data_PCOD9497865
_publ_section_title
;
Structure prediction by ZEFSAII (Michael W. Deem and Ramdas Pophale) SiO2 
 PCOD9497865
Probable space group: C C C M
;
_chemical_formula_sum "Si O2"
_cell_formula_units_Z 104
_cell_length_a 19.515381
_cell_length_b 7.911749
_cell_length_c 33.325931
_cell_angle_alpha 90.000000
_cell_angle_beta 90.000000
_cell_angle_gamma 90.000000
_cell_volume 5145.550278
_symmetry_space_group_name_H-M "C C C M"
_symmetry_group_IT_number 66
_symmetry_cell_setting 'orthorhombic'
loop_
_space_group_symop_operation_xyz
x,y,z
-x,-y,z
x,-y,1/2-z
-x,y,1/2-z
-x,-y,-z
x,y,-z
-x,y,1/2+z
x,-y,1/2+z
1/2+x,1/2+y,z
1/2-x,1/2-y,z
1/2+x,1/2-y,1/2-z
1/2-x,1/2+y,1/2-z
1/2-x,1/2-y,-z
1/2+x,1/2+y,-z
1/2-x,1/2+y,1/2+z
1/2+x,1/2-y,1/2+z
loop_
_atom_site_type_symbol
_atom_site_label
_atom_site_fract_x
_atom_site_fract_y
_atom_site_fract_z
Si Si1 0.000000 0.000000 0.681373
Si Si2 0.000000 0.500000 0.426472
Si Si3 0.689140 0.000000 0.250000
Si Si4 0.754530 0.451329 0.336798
Si Si5 0.889391 0.005932 0.377034
Si Si6 0.934296 0.301169 0.222959
Si Si7 0.394835 0.112052 0.364146
Si Si8 0.444587 0.650799 0.455588
O O1 0.053201 0.907284 0.651596
O O2 0.049662 0.112921 0.708159
O O3 0.064793 0.491402 0.396953
O O4 0.015027 0.672168 0.450392
O O5 0.733703 0.993278 0.210024
O O6 0.635594 0.842321 0.253416
O O7 0.750000 0.250000 0.340847
O O8 0.682908 0.504895 0.355179
O O9 0.817526 0.543992 0.359246
O O10 0.906193 0.805754 0.378713
O O11 0.893436 0.103042 0.419156
O O12 0.925981 0.400429 0.180866
O O13 0.000000 0.338296 0.250000
O O14 0.500000 0.500000 0.453534
O O15 0.412407 0.649161 0.500000
#
# Coordination Sequence:
#
# PCOD9497865 Si02
#       8
#     8   8   8  16  16  16  16  16
#     4  10  21  36  63  90 114 170 218 272 331 389
#     4  12  21  40  69  98 142 168 226 264 333 410
#     4  10  25  40  56  85 126 172 222 280 332 387
#     4  11  25  40  63  85 128 177 231 274 334 397
#     4  11  21  44  64  92 130 168 224 271 335 402
#     4  10  21  36  57  87 124 159 215 279 327 368
#     4  10  23  39  64  93 124 181 220 274 330 398
#     4  11  22  40  69 106 138 167 208 274 339 406
#
# _framework density 20.211639000000002
#
# number of rings (size 3 to 8) (size 9 to 14) (size 15 to 20)
#    0.000    1.385    2.308    3.000    6.462    3.692 
#    0.000    0.000    0.000    6.923    0.000    0.000 
#    0.000    0.000    0.000    0.000    0.000    0.000 
#
# Total GULP energy -290104.070538 kJ/mol
# GULP energy per Si atom -5578.924433 kJ/mol
# Density = 2.016564 g / cm^3
# Si number density = 20.211639 Si / 1000 Ang^3
#
#
#
# Elastic Constant Matrix: (Units=GPa)
#
#
# Indices 1 2 3 4 5 6 
#
# 1 117.2101 18.2127 60.0104 0.0000 0.0000 0.0000
# 2 18.2127 88.4499 32.0825 0.0000 0.0000 0.0000
# 3 60.0104 32.0825 131.5312 0.0000 0.0000 0.0000
# 4 0.0000 0.0000 0.0000 11.8373 0.0000 0.0000
# 5 0.0000 0.0000 0.0000 0.0000 -120.0569 0.0000
# 6 0.0000 0.0000 0.0000 0.0000 0.0000 22.8299
#
#
#
# Elastic Compliance Matrix: (Units=1/GPa)
#
#
# Indices 1 2 3 4 5 6 
#
# 1 0.011152 -0.000495 -0.004967 0.000000 0.000000 0.000000
# 2 -0.000495 0.012425 -0.002805 0.000000 0.000000 0.000000
# 3 -0.004967 -0.002805 0.010553 0.000000 0.000000 0.000000
# 4 0.000000 0.000000 0.000000 0.084479 0.000000 0.000000
# 5 0.000000 0.000000 0.000000 0.000000 -0.008329 0.000000
# 6 0.000000 0.000000 0.000000 0.000000 0.000000 0.043802
#
#
# Mechanical properties :
#
#
# Convention : Reuss Voigt Hill
#
# Bulk Modulus (GPa) = 56.82993 61.97803 59.40398
# Shear Modulus (GPa) = 28.33166 -1.95224 13.18971
#
# Velocity S-wave (km/s) = 3.74806 -0.98387 2.55734
# Velocity P-wave (km/s) = 6.84902 5.42590 6.17857
#
# Compressibility (1/GPa) = 0.01759636
#
# Stress axis : x y z
#
# Youngs Moduli (GPa) = 89.67214 80.48218 94.75748
#
# Poissons Ratio (x) = 0.03980 0.47069
# Poissons Ratio (y) = 0.04435 0.26580
# Poissons Ratio (z) = 0.44543 0.22576
#
# Static dielectric constant tensor:
#      x y z
#    x 1.692260 0.000000 0.000000 
#    y 0.000000 3.080240 0.000000 
#    z 0.000000 0.000000 1.740690 
# 
# From -- ./inp_files/70229.got.cif
#   From: 2010.05.17/outbox.cif.g08.bks.cpg/sg66_36_cif.got.tgz:70229.got - 2010.06.03 17:51:23.
