data_PCOD9497713
_publ_section_title
;
Structure prediction by ZEFSAII (Michael W. Deem and Ramdas Pophale) SiO2 
 PCOD9497713
Probable space group: C C C M
;
_chemical_formula_sum "Si O2"
_cell_formula_units_Z 88
_cell_length_a 10.736088
_cell_length_b 11.365949
_cell_length_c 30.309296
_cell_angle_alpha 90.000000
_cell_angle_beta 90.000000
_cell_angle_gamma 90.000000
_cell_volume 3698.516961
_symmetry_space_group_name_H-M "C C C M"
_symmetry_group_IT_number 66
_symmetry_cell_setting 'orthorhombic'
loop_
_space_group_symop_operation_xyz
x,y,z
-x,-y,z
x,-y,1/2-z
-x,y,1/2-z
-x,-y,-z
x,y,-z
-x,y,1/2+z
x,-y,1/2+z
1/2+x,1/2+y,z
1/2-x,1/2-y,z
1/2+x,1/2-y,1/2-z
1/2-x,1/2+y,1/2-z
1/2-x,1/2-y,-z
1/2+x,1/2+y,-z
1/2-x,1/2+y,1/2+z
1/2+x,1/2-y,1/2+z
loop_
_atom_site_type_symbol
_atom_site_label
_atom_site_fract_x
_atom_site_fract_y
_atom_site_fract_z
Si Si1 0.623060 0.077247 0.000000
Si Si2 0.081472 0.386616 0.692870
Si Si3 0.878475 0.081822 0.405451
Si Si4 0.883828 0.808855 0.811512
Si Si5 0.820726 0.628272 0.596609
Si Si6 0.625442 0.420242 0.500000
Si Si7 0.706278 0.500000 0.750000
O O1 0.623181 0.141784 0.047385
O O2 0.500000 0.000000 0.000000
O O3 0.752594 0.003618 0.000000
O O4 0.097619 0.386750 0.640052
O O5 0.207138 0.410877 0.720576
O O6 0.000000 0.500000 0.703353
O O7 0.000306 0.270983 0.701856
O O8 0.885279 0.165467 0.363719
O O9 0.874002 0.144960 0.453161
O O10 0.765413 0.988551 0.403098
O O11 0.000000 0.000000 0.404292
O O12 0.750000 0.750000 0.802775
O O13 0.874957 0.928645 0.784699
O O14 0.750000 0.750000 0.604744
O O15 0.500000 0.500000 0.500000
#
# Coordination Sequence:
#
# PCOD9497713 Si02
#       7
#     8  16  16  16  16   8   8
#     4  10  21  37  68 111 144 197 250 299 374 467
#     4  12  25  49  75 104 144 197 246 320 382 449
#     4  10  20  43  66 106 139 191 242 303 365 452
#     4  12  26  47  74 104 143 191 252 305 385 453
#     4  11  22  41  70 104 152 193 243 308 376 449
#     4   8  18  37  71  95 149 191 235 301 375 451
#     4  12  27  54  75 104 152 195 260 319 396 444
#
# _framework density 23.793320999999999
#
# number of rings (size 3 to 8) (size 9 to 14) (size 15 to 20)
#    0.000    1.091    3.636    2.182    0.000    2.182 
#    6.545    3.182    0.000    0.000    0.000    0.000 
#    0.000    0.000    0.000    0.000    0.000    0.000 
#
# Total GULP energy -246137.263512 kJ/mol
# GULP energy per Si atom -5594.028716 kJ/mol
# Density = 2.373917 g / cm^3
# Si number density = 23.793321 Si / 1000 Ang^3
#
#
#
# Elastic Constant Matrix: (Units=GPa)
#
#
# Indices 1 2 3 4 5 6 
#
# 1 98.7335 41.2693 39.6734 0.0000 0.0000 0.0000
# 2 41.2693 86.2872 57.5026 0.0000 0.0000 0.0000
# 3 39.6734 57.5026 231.0291 0.0000 0.0000 0.0000
# 4 0.0000 0.0000 0.0000 228.0433 0.0000 0.0000
# 5 0.0000 0.0000 0.0000 0.0000 114.5758 0.0000
# 6 0.0000 0.0000 0.0000 0.0000 0.0000 42.5222
#
#
#
# Elastic Compliance Matrix: (Units=1/GPa)
#
#
# Indices 1 2 3 4 5 6 
#
# 1 0.012783 -0.005576 -0.000807 0.000000 0.000000 0.000000
# 2 -0.005576 0.016326 -0.003106 0.000000 0.000000 0.000000
# 3 -0.000807 -0.003106 0.005240 0.000000 0.000000 0.000000
# 4 0.000000 0.000000 0.000000 0.004385 0.000000 0.000000
# 5 0.000000 0.000000 0.000000 0.000000 0.008728 0.000000
# 6 0.000000 0.000000 0.000000 0.000000 0.000000 0.023517
#
#
# Mechanical properties :
#
#
# Convention : Reuss Voigt Hill
#
# Bulk Modulus (GPa) = 65.05817 76.99339 71.02578
# Shear Modulus (GPa) = 52.58629 95.53522 74.06076
#
# Velocity S-wave (km/s) = 4.70630 6.34344 5.58518
# Velocity P-wave (km/s) = 7.54551 9.27803 8.45626
#
# Compressibility (1/GPa) = 0.01537086
#
# Stress axis : x y z
#
# Youngs Moduli (GPa) = 78.22655 61.25230 190.83352
#
# Poissons Ratio (x) = 0.34154 0.15407
# Poissons Ratio (y) = 0.43619 0.59272
# Poissons Ratio (z) = 0.06316 0.19025
#
# Static dielectric constant tensor:
#      x y z
#    x 1.859350 0.000000 0.000000 
#    y 0.000000 1.940300 0.000000 
#    z 0.000000 0.000000 2.003190 
# 
# From -- ./inp_files/68920.got.cif
#   From: 2010.05.17/outbox.cif.g08.bks.cpg/sg66_35_cif.got.tgz:68920.got - 2010.06.03 17:51:23.
