data_PCOD9497807
_publ_section_title
;
Structure prediction by ZEFSAII (Michael W. Deem and Ramdas Pophale) SiO2 
 PCOD9497807
Probable space group: C C C M
;
_chemical_formula_sum "Si O2"
_cell_formula_units_Z 88
_cell_length_a 15.719505
_cell_length_b 11.798852
_cell_length_c 22.306391
_cell_angle_alpha 90.000000
_cell_angle_beta 90.000000
_cell_angle_gamma 90.000000
_cell_volume 4137.213472
_symmetry_space_group_name_H-M "C C C M"
_symmetry_group_IT_number 66
_symmetry_cell_setting 'orthorhombic'
loop_
_space_group_symop_operation_xyz
x,y,z
-x,-y,z
x,-y,1/2-z
-x,y,1/2-z
-x,-y,-z
x,y,-z
-x,y,1/2+z
x,-y,1/2+z
1/2+x,1/2+y,z
1/2-x,1/2-y,z
1/2+x,1/2-y,1/2-z
1/2-x,1/2+y,1/2-z
1/2-x,1/2-y,-z
1/2+x,1/2+y,-z
1/2-x,1/2+y,1/2+z
1/2+x,1/2-y,1/2+z
loop_
_atom_site_type_symbol
_atom_site_label
_atom_site_fract_x
_atom_site_fract_y
_atom_site_fract_z
Si Si1 0.284723 0.434429 0.687222
Si Si2 0.221842 0.621920 0.378824
Si Si3 0.723273 0.543515 0.000000
Si Si4 0.937681 0.785624 0.000000
Si Si5 0.960164 0.380380 0.387810
Si Si6 0.868253 0.278173 0.862089
Si Si7 0.131246 0.805176 0.000000
O O1 0.276297 0.500000 0.750000
O O2 0.296360 0.542750 0.645499
O O3 0.200442 0.367117 0.664088
O O4 0.354380 0.339082 0.673881
O O5 0.250000 0.750000 0.374926
O O6 0.217230 0.574379 0.445090
O O7 0.127961 0.605322 0.351841
O O8 0.641395 0.628116 0.000000
O O9 0.690808 0.415272 0.000000
O O10 0.937600 0.705338 0.941700
O O11 0.031762 0.841266 0.000000
O O12 0.000000 0.500000 0.409143
O O13 0.037385 0.323390 0.352651
O O14 0.855821 0.258716 0.935099
#
# Coordination Sequence:
#
# PCOD9497807 Si02
#       7
#    16  16   8   8  16  16   8
#     4  11  25  45  70  96 132 177 234 285 345 410
#     4  12  24  40  66  99 138 185 223 283 341 416
#     4  12  21  39  60 104 144 184 233 274 353 419
#     4  10  21  35  58  98 149 189 218 276 343 429
#     4  11  21  40  63 100 139 174 226 281 345 407
#     4  10  23  44  70 107 136 182 228 286 345 419
#     4  10  21  38  69 104 143 179 228 286 355 416
#
# _framework density 21.270354000000001
#
# number of rings (size 3 to 8) (size 9 to 14) (size 15 to 20)
#    0.000    1.091    5.455    1.364    2.545    2.182 
#    0.000    2.727    0.000    1.091    0.000    0.000 
#    0.000    0.000    0.000    0.000    0.000    0.000 
#
# Total GULP energy -245276.529505 kJ/mol
# GULP energy per Si atom -5574.466580 kJ/mol
# Density = 2.122194 g / cm^3
# Si number density = 21.270354 Si / 1000 Ang^3
#
#
#
# Elastic Constant Matrix: (Units=GPa)
#
#
# Indices 1 2 3 4 5 6 
#
# 1 105.1537 13.5298 2.9226 0.0000 0.0000 0.0000
# 2 13.5298 109.4566 31.7144 0.0000 0.0000 0.0000
# 3 2.9226 31.7144 65.5316 0.0000 0.0000 0.0000
# 4 0.0000 0.0000 0.0000 26.6246 0.0000 0.0000
# 5 0.0000 0.0000 0.0000 0.0000 -11.4948 0.0000
# 6 0.0000 0.0000 0.0000 0.0000 0.0000 -9.7528
#
#
#
# Elastic Compliance Matrix: (Units=1/GPa)
#
#
# Indices 1 2 3 4 5 6 
#
# 1 0.009665 -0.001244 0.000171 0.000000 0.000000 0.000000
# 2 -0.001244 0.010786 -0.005165 0.000000 0.000000 0.000000
# 3 0.000171 -0.005165 0.017752 0.000000 0.000000 0.000000
# 4 0.000000 0.000000 0.000000 0.037559 0.000000 0.000000
# 5 0.000000 0.000000 0.000000 0.000000 -0.086996 0.000000
# 6 0.000000 0.000000 0.000000 0.000000 0.000000 -0.102535
#
#
# Mechanical properties :
#
#
# Convention : Reuss Voigt Hill
#
# Bulk Modulus (GPa) = 38.86874 41.83061 40.34967
# Shear Modulus (GPa) = -53.92762 16.54041 -18.69360
#
# Velocity S-wave (km/s) = -5.04068 2.79162 -2.96777
# Velocity P-wave (km/s) = 3.94520 5.48632 2.69584
#
# Compressibility (1/GPa) = 0.02572762
#
# Stress axis : x y z
#
# Youngs Moduli (GPa) = 103.46361 92.71058 56.33292
#
# Poissons Ratio (x) = 0.11536 -0.00964
# Poissons Ratio (y) = 0.12874 0.29094
# Poissons Ratio (z) = -0.01771 0.47881
#
# Static dielectric constant tensor:
#      x y z
#    x 1.814530 0.000000 0.000000 
#    y 0.000000 1.777840 0.000000 
#    z 0.000000 0.000000 1.692930 
# 
# From -- ./inp_files/50963.got.cif
#   From: 2010.05.17/outbox.cif.g08.bks.cpg/sg66_26_cif.got.tgz:50963.got - 2010.06.03 17:51:23.
