data_PCOD9497742
_publ_section_title
;
Structure prediction by ZEFSAII (Michael W. Deem and Ramdas Pophale) SiO2 
 PCOD9497742
Probable space group: C C C M
;
_chemical_formula_sum "Si O2"
_cell_formula_units_Z 80
_cell_length_a 16.869142
_cell_length_b 7.492695
_cell_length_c 27.679378
_cell_angle_alpha 90.000000
_cell_angle_beta 90.000000
_cell_angle_gamma 90.000000
_cell_volume 3498.544280
_symmetry_space_group_name_H-M "C C C M"
_symmetry_group_IT_number 66
_symmetry_cell_setting 'orthorhombic'
loop_
_space_group_symop_operation_xyz
x,y,z
-x,-y,z
x,-y,1/2-z
-x,y,1/2-z
-x,-y,-z
x,y,-z
-x,y,1/2+z
x,-y,1/2+z
1/2+x,1/2+y,z
1/2-x,1/2-y,z
1/2+x,1/2-y,1/2-z
1/2-x,1/2+y,1/2-z
1/2-x,1/2-y,-z
1/2+x,1/2+y,-z
1/2-x,1/2+y,1/2+z
1/2+x,1/2-y,1/2+z
loop_
_atom_site_type_symbol
_atom_site_label
_atom_site_fract_x
_atom_site_fract_y
_atom_site_fract_z
Si Si1 0.669287 0.464682 0.301815
Si Si2 0.093256 0.026108 0.101903
Si Si3 0.093732 0.980230 0.500000
Si Si4 0.172432 0.384308 0.000000
Si Si5 0.849787 0.538381 0.802832
Si Si6 0.408455 0.952162 0.406870
O O1 0.630988 0.500000 0.250000
O O2 0.630325 0.544897 0.349291
O O3 0.759638 0.532123 0.300795
O O4 0.662549 0.251355 0.306314
O O5 0.103761 0.239224 0.099248
O O6 0.125431 0.949750 0.051075
O O7 0.000000 0.000000 0.103821
O O8 0.104881 0.767497 0.500000
O O9 0.000000 0.000000 0.500000
O O10 0.250000 0.250000 0.000000
O O11 0.153345 0.493107 0.950761
O O12 0.887317 0.500000 0.750000
O O13 0.890528 0.475733 0.852646
O O14 0.500000 0.000000 0.419389
#
# Coordination Sequence:
#
# PCOD9497742 Si02
#       6
#    16  16   8   8  16  16
#     4   9  18  32  51  74 102 135 187 230 263 316
#     4   9  18  32  52  77 102 141 182 220 267 333
#     4   8  16  31  50  77 104 136 167 216 269 317
#     4  10  21  33  60  89 107 144 191 232 270 329
#     4   9  19  34  52  74 106 145 178 222 280 332
#     4  10  21  35  54  82 114 140 175 230 281 330
#
# _framework density 22.866651999999998
#
# number of rings (size 3 to 8) (size 9 to 14) (size 15 to 20)
#    0.000    2.800    0.000    0.300    8.400    2.400 
#    0.000    4.000    0.000    0.000    0.000    8.400 
#    0.000    0.000    0.000    0.000    0.000    0.000 
#
# Total GULP energy -222669.525138 kJ/mol
# GULP energy per Si atom -5566.738128 kJ/mol
# Density = 2.281461 g / cm^3
# Si number density = 22.866652 Si / 1000 Ang^3
#
#
#
# Elastic Constant Matrix: (Units=GPa)
#
#
# Indices 1 2 3 4 5 6 
#
# 1 46.4008 2.6200 66.2925 0.0000 0.0000 0.0000
# 2 2.6200 51.3861 2.0888 0.0000 0.0000 0.0000
# 3 66.2925 2.0888 285.7001 0.0000 0.0000 0.0000
# 4 0.0000 0.0000 0.0000 15.9803 0.0000 0.0000
# 5 0.0000 0.0000 0.0000 0.0000 42.1358 0.0000
# 6 0.0000 0.0000 0.0000 0.0000 0.0000 24.8289
#
#
#
# Elastic Compliance Matrix: (Units=1/GPa)
#
#
# Indices 1 2 3 4 5 6 
#
# 1 0.032331 -0.001344 -0.007492 0.000000 0.000000 0.000000
# 2 -0.001344 0.019522 0.000169 0.000000 0.000000 0.000000
# 3 -0.007492 0.000169 0.005237 0.000000 0.000000 0.000000
# 4 0.000000 0.000000 0.000000 0.062577 0.000000 0.000000
# 5 0.000000 0.000000 0.000000 0.000000 0.023733 0.000000
# 6 0.000000 0.000000 0.000000 0.000000 0.000000 0.040276
#
#
# Mechanical properties :
#
#
# Convention : Reuss Voigt Hill
#
# Bulk Modulus (GPa) = 25.15290 58.38772 41.77031
# Shear Modulus (GPa) = 23.33587 37.42139 30.37863
#
# Velocity S-wave (km/s) = 3.19802 4.04976 3.64883
# Velocity P-wave (km/s) = 4.96590 6.88889 6.00487
#
# Compressibility (1/GPa) = 0.03975684
#
# Stress axis : x y z
#
# Youngs Moduli (GPa) = 30.92990 51.22384 190.93524
#
# Poissons Ratio (x) = 0.06884 1.43051
# Poissons Ratio (y) = 0.04157 -0.03229
# Poissons Ratio (z) = 0.23173 -0.00866
#
# Static dielectric constant tensor:
#      x y z
#    x 1.833000 0.000000 0.000000 
#    y 0.000000 1.974580 0.000000 
#    z 0.000000 0.000000 2.009070 
# 
# From -- ./inp_files/56871.got.cif
#   From: 2010.05.17/outbox.cif.g08.bks.cpg/sg66_29_cif.got.tgz:56871.got - 2010.06.03 17:51:23.
