data_PCOD9497600
_publ_section_title
;
Structure prediction by ZEFSAII (Michael W. Deem and Ramdas Pophale) SiO2 
 PCOD9497600
Probable space group: C C C M
;
_chemical_formula_sum "Si O2"
_cell_formula_units_Z 52
_cell_length_a 5.518226
_cell_length_b 18.967904
_cell_length_c 23.211671
_cell_angle_alpha 90.000000
_cell_angle_beta 90.000000
_cell_angle_gamma 90.000000
_cell_volume 2429.546594
_symmetry_space_group_name_H-M "C C C M"
_symmetry_group_IT_number 66
_symmetry_cell_setting 'orthorhombic'
loop_
_space_group_symop_operation_xyz
x,y,z
-x,-y,z
x,-y,1/2-z
-x,y,1/2-z
-x,-y,-z
x,y,-z
-x,y,1/2+z
x,-y,1/2+z
1/2+x,1/2+y,z
1/2-x,1/2-y,z
1/2+x,1/2-y,1/2-z
1/2-x,1/2+y,1/2-z
1/2-x,1/2-y,-z
1/2+x,1/2+y,-z
1/2-x,1/2+y,1/2+z
1/2+x,1/2-y,1/2+z
loop_
_atom_site_type_symbol
_atom_site_label
_atom_site_fract_x
_atom_site_fract_y
_atom_site_fract_z
Si Si1 0.500000 0.500000 0.000000
Si Si2 0.500893 0.219629 0.932124
Si Si3 0.251610 0.580887 0.726746
Si Si4 0.671407 0.067981 0.407760
O O1 0.394461 0.446358 0.050191
O O2 0.250000 0.250000 0.906842
O O3 0.481032 0.135916 0.926534
O O4 0.750000 0.250000 0.906957
O O5 0.501024 0.238896 0.000000
O O6 0.250835 0.500000 0.750000
O O7 0.500000 0.613947 0.750000
O O8 0.249464 0.577386 0.658014
O O9 0.000000 0.613033 0.750000
O O10 0.500000 0.000000 0.413779
#
# Coordination Sequence:
#
# PCOD9497600 Si02
#       4
#     4  16  16  16
#     4  12  26  36  62 112 140 160 224 314 364 378
#     4  10  24  43  63  90 138 186 218 260 343 425
#     4  10  20  39  61  95 126 175 214 273 335 409
#     4  12  25  40  69 102 138 172 235 296 342 418
#
# _framework density 21.403169999999999
#
# number of rings (size 3 to 8) (size 9 to 14) (size 15 to 20)
#    0.000    1.231    4.615    2.308    4.308    0.000 
#    0.000    0.000    0.000    3.692    0.000    0.000 
#    0.000    0.000    0.000    0.000    0.000    0.000 
#
# Total GULP energy -144736.967778 kJ/mol
# GULP energy per Si atom -5566.806453 kJ/mol
# Density = 2.135446 g / cm^3
# Si number density = 21.403170 Si / 1000 Ang^3
#
#
#
# Elastic Constant Matrix: (Units=GPa)
#
#
# Indices 1 2 3 4 5 6 
#
# 1 180.7016 57.6348 34.6427 0.0000 0.0000 0.0000
# 2 57.6348 80.7285 -24.2188 0.0000 0.0000 0.0000
# 3 34.6427 -24.2188 121.1194 0.0000 0.0000 0.0000
# 4 0.0000 0.0000 0.0000 -6.4105 0.0000 0.0000
# 5 0.0000 0.0000 0.0000 0.0000 -13.8600 0.0000
# 6 0.0000 0.0000 0.0000 0.0000 0.0000 48.2446
#
#
#
# Elastic Compliance Matrix: (Units=1/GPa)
#
#
# Indices 1 2 3 4 5 6 
#
# 1 0.008631 -0.007343 -0.003937 0.000000 0.000000 0.000000
# 2 -0.007343 0.019425 0.005984 0.000000 0.000000 0.000000
# 3 -0.003937 0.005984 0.010579 0.000000 0.000000 0.000000
# 4 0.000000 0.000000 0.000000 -0.155993 0.000000 0.000000
# 5 0.000000 0.000000 0.000000 0.000000 -0.072150 0.000000
# 6 0.000000 0.000000 0.000000 0.000000 0.000000 0.020728
#
#
# Mechanical properties :
#
#
# Convention : Reuss Voigt Hill
#
# Bulk Modulus (GPa) = 35.65840 57.62965 46.64402
# Shear Modulus (GPa) = -33.59251 26.56088 -3.51581
#
# Velocity S-wave (km/s) = -3.96600 3.52657 -1.28305
# Velocity P-wave (km/s) = 2.06779 6.60049 4.43231
#
# Compressibility (1/GPa) = 0.02804389
#
# Stress axis : x y z
#
# Youngs Moduli (GPa) = 115.86528 51.48056 94.52737
#
# Poissons Ratio (x) = 0.37801 0.37214
# Poissons Ratio (y) = 0.85078 -0.56568
# Poissons Ratio (z) = 0.45614 -0.30808
#
# Static dielectric constant tensor:
#      x y z
#    x 1.898100 0.000000 0.000000 
#    y 0.000000 1.754250 0.000000 
#    z 0.000000 0.000000 1.736900 
# 
# From -- ./inp_files/45353.got.cif
#   From: 2010.05.17/outbox.cif.g08.bks.cpg/sg66_23_cif.got.tgz:45353.got - 2010.06.03 17:51:23.
