data_PCOD9497801
_publ_section_title
;
Structure prediction by ZEFSAII (Michael W. Deem and Ramdas Pophale) SiO2 
 PCOD9497801
Probable space group: C C C M
;
_chemical_formula_sum "Si O2"
_cell_formula_units_Z 112
_cell_length_a 14.532063
_cell_length_b 27.531221
_cell_length_c 13.879712
_cell_angle_alpha 90.000000
_cell_angle_beta 90.000000
_cell_angle_gamma 90.000000
_cell_volume 5553.070655
_symmetry_space_group_name_H-M "C C C M"
_symmetry_group_IT_number 66
_symmetry_cell_setting 'orthorhombic'
loop_
_space_group_symop_operation_xyz
x,y,z
-x,-y,z
x,-y,1/2-z
-x,y,1/2-z
-x,-y,-z
x,y,-z
-x,y,1/2+z
x,-y,1/2+z
1/2+x,1/2+y,z
1/2-x,1/2-y,z
1/2+x,1/2-y,1/2-z
1/2-x,1/2+y,1/2-z
1/2-x,1/2-y,-z
1/2+x,1/2+y,-z
1/2-x,1/2+y,1/2+z
1/2+x,1/2-y,1/2+z
loop_
_atom_site_type_symbol
_atom_site_label
_atom_site_fract_x
_atom_site_fract_y
_atom_site_fract_z
Si Si1 0.277443 0.853940 0.884935
Si Si2 0.761061 0.550779 0.274501
Si Si3 0.108150 0.305482 0.769391
Si Si4 0.064876 0.849907 0.884313
Si Si5 0.234262 0.626735 0.388021
Si Si6 0.071949 0.041710 0.384491
Si Si7 0.889245 0.209658 0.386568
O O1 0.303320 0.907631 0.844501
O O2 0.339470 0.814880 0.830765
O O3 0.170883 0.844950 0.853579
O O4 0.283557 0.852257 0.000000
O O5 0.810669 0.500000 0.250000
O O6 0.743268 0.579776 0.175590
O O7 0.667003 0.536461 0.328575
O O8 0.145374 0.347373 0.841173
O O9 0.133368 0.255010 0.820099
O O10 0.000000 0.307983 0.750000
O O11 0.034240 0.904656 0.860426
O O12 0.988723 0.811206 0.856443
O O13 0.067523 0.847287 0.000000
O O14 0.221941 0.615356 0.500000
O O15 0.316061 0.666191 0.379420
O O16 0.089646 0.040745 0.500000
O O17 0.000000 0.000000 0.362044
O O18 0.891536 0.224371 0.500000
#
# Coordination Sequence:
#
# PCOD9497801 Si02
#       7
#    16  16  16  16  16  16  16
#     4   9  20  42  64  86 124 166 203 250 307 368
#     4  10  21  35  56  91 122 159 207 249 296 354
#     4  11  24  39  62  92 116 150 206 269 321 368
#     4   8  16  33  56  84 119 164 204 235 285 358
#     4  10  23  42  62  86 125 168 205 249 310 378
#     4   9  18  32  52  81 126 172 209 245 284 343
#     4  10  21  38  61  89 125 165 202 246 302 370
#
# _framework density 20.169021000000001
#
# number of rings (size 3 to 8) (size 9 to 14) (size 15 to 20)
#    0.000    2.429    0.000    2.143    2.000    8.286 
#    2.571    0.000    0.000   17.571    0.000    8.000 
#    0.000    0.000    0.000    0.000    0.000    0.000 
#
# Total GULP energy -312839.074050 kJ/mol
# GULP energy per Si atom -5586.412037 kJ/mol
# Density = 2.012312 g / cm^3
# Si number density = 20.169021 Si / 1000 Ang^3
#
#
#
# Elastic Constant Matrix: (Units=GPa)
#
#
# Indices 1 2 3 4 5 6 
#
# 1 71.7148 40.8221 32.7216 0.0000 0.0000 0.0000
# 2 40.8221 113.5704 52.7195 0.0000 0.0000 0.0000
# 3 32.7216 52.7195 158.8200 0.0000 0.0000 0.0000
# 4 0.0000 0.0000 0.0000 19.4149 0.0000 0.0000
# 5 0.0000 0.0000 0.0000 0.0000 28.3771 0.0000
# 6 0.0000 0.0000 0.0000 0.0000 0.0000 24.9508
#
#
#
# Elastic Compliance Matrix: (Units=1/GPa)
#
#
# Indices 1 2 3 4 5 6 
#
# 1 0.017976 -0.005606 -0.001843 0.000000 0.000000 0.000000
# 2 -0.005606 0.012157 -0.002881 0.000000 0.000000 0.000000
# 3 -0.001843 -0.002881 0.007632 0.000000 0.000000 0.000000
# 4 0.000000 0.000000 0.000000 0.051507 0.000000 0.000000
# 5 0.000000 0.000000 0.000000 0.000000 0.035240 0.000000
# 6 0.000000 0.000000 0.000000 0.000000 0.000000 0.040079
#
#
# Mechanical properties :
#
#
# Convention : Reuss Voigt Hill
#
# Bulk Modulus (GPa) = 58.45528 66.29240 62.37384
# Shear Modulus (GPa) = 26.18464 29.07137 27.62800
#
# Velocity S-wave (km/s) = 3.60705 3.80068 3.70513
# Velocity P-wave (km/s) = 6.81127 7.22496 7.02116
#
# Compressibility (1/GPa) = 0.01710709
#
# Stress axis : x y z
#
# Youngs Moduli (GPa) = 55.62983 82.25519 131.02253
#
# Poissons Ratio (x) = 0.46112 0.24144
# Poissons Ratio (y) = 0.31186 0.37742
# Poissons Ratio (z) = 0.10251 0.23694
#
# Static dielectric constant tensor:
#      x y z
#    x 1.705570 0.000000 0.000000 
#    y 0.000000 1.739130 0.000000 
#    z 0.000000 0.000000 1.740460 
# 
# From -- ./inp_files/28907.got.cif
#   From: 2010.05.17/outbox.cif.g08.bks.cpg/sg66_15_cif.got.tgz:28907.got - 2010.06.03 17:51:23.
