data_PCOD9497990
_publ_section_title
;
Structure prediction by ZEFSAII (Michael W. Deem and Ramdas Pophale) SiO2 
 PCOD9497990
Probable space group: C C C M
;
_chemical_formula_sum "Si O2"
_cell_formula_units_Z 112
_cell_length_a 13.357974
_cell_length_b 25.545340
_cell_length_c 16.774129
_cell_angle_alpha 90.000000
_cell_angle_beta 90.000000
_cell_angle_gamma 90.000000
_cell_volume 5723.902926
_symmetry_space_group_name_H-M "C C C M"
_symmetry_group_IT_number 66
_symmetry_cell_setting 'orthorhombic'
loop_
_space_group_symop_operation_xyz
x,y,z
-x,-y,z
x,-y,1/2-z
-x,y,1/2-z
-x,-y,-z
x,y,-z
-x,y,1/2+z
x,-y,1/2+z
1/2+x,1/2+y,z
1/2-x,1/2-y,z
1/2+x,1/2-y,1/2-z
1/2-x,1/2+y,1/2-z
1/2-x,1/2-y,-z
1/2+x,1/2+y,-z
1/2-x,1/2+y,1/2+z
1/2+x,1/2-y,1/2+z
loop_
_atom_site_type_symbol
_atom_site_label
_atom_site_fract_x
_atom_site_fract_y
_atom_site_fract_z
Si Si1 0.416200 0.658930 0.403768
Si Si2 0.958814 0.943560 0.597320
Si Si3 0.296578 0.160809 0.817403
Si Si4 0.698934 0.196857 0.137261
Si Si5 0.381582 0.059655 0.261056
Si Si6 0.525881 0.776304 0.095638
Si Si7 0.261428 0.914253 0.089367
O O1 0.408279 0.656696 0.500000
O O2 0.477077 0.607192 0.377021
O O3 0.306153 0.660339 0.365939
O O4 0.468147 0.714446 0.383518
O O5 0.960013 0.942980 0.500000
O O6 0.843211 0.936857 0.620840
O O7 0.000000 0.000000 0.623436
O O8 0.281900 0.187121 0.730888
O O9 0.331064 0.101616 0.797542
O O10 0.383117 0.192598 0.863288
O O11 0.750000 0.250000 0.110806
O O12 0.580188 0.200629 0.123181
O O13 0.746152 0.148353 0.090704
O O14 0.500000 0.063269 0.250000
O O15 0.350356 0.073927 0.350539
O O16 0.349057 0.000000 0.250000
O O17 0.534062 0.781003 0.000000
O O18 0.279361 0.933372 0.000000
#
# Coordination Sequence:
#
# PCOD9497990 Si02
#       7
#    16  16  16  16  16  16  16
#     4  10  21  37  60  92 125 160 203 254 313 374
#     4   9  19  36  60  89 122 157 199 256 309 360
#     4  11  22  38  60  84 120 161 203 247 313 378
#     4  11  22  36  57  85 119 160 199 247 308 368
#     4  10  23  43  62  84 121 160 201 260 310 358
#     4  11  22  37  59  88 123 159 203 255 308 375
#     4  10  21  39  63  89 119 156 205 252 302 366
#
# _framework density 19.567069
#
# number of rings (size 3 to 8) (size 9 to 14) (size 15 to 20)
#    0.000    1.714    0.000    5.143    2.000    3.429 
#    0.000    8.571    0.000    0.000    0.000    0.000 
#    0.000    0.000    0.000    0.000    0.000    0.000 
#
# Total GULP energy -312864.027918 kJ/mol
# GULP energy per Si atom -5586.857641 kJ/mol
# Density = 1.952253 g / cm^3
# Si number density = 19.567069 Si / 1000 Ang^3
#
#
#
# Elastic Constant Matrix: (Units=GPa)
#
#
# Indices 1 2 3 4 5 6 
#
# 1 100.2210 34.0962 26.7274 0.0000 0.0000 0.0000
# 2 34.0962 131.7630 21.8020 0.0000 0.0000 0.0000
# 3 26.7274 21.8020 51.4218 0.0000 0.0000 0.0000
# 4 0.0000 0.0000 0.0000 -16.3412 0.0000 0.0000
# 5 0.0000 0.0000 0.0000 0.0000 0.4218 0.0000
# 6 0.0000 0.0000 0.0000 0.0000 0.0000 34.9466
#
#
#
# Elastic Compliance Matrix: (Units=1/GPa)
#
#
# Indices 1 2 3 4 5 6 
#
# 1 0.012180 -0.002263 -0.005371 0.000000 0.000000 0.000000
# 2 -0.002263 0.008582 -0.002463 0.000000 0.000000 0.000000
# 3 -0.005371 -0.002463 0.023283 0.000000 0.000000 0.000000
# 4 0.000000 0.000000 0.000000 -0.061195 0.000000 0.000000
# 5 0.000000 0.000000 0.000000 0.000000 2.371016 0.000000
# 6 0.000000 0.000000 0.000000 0.000000 0.000000 0.028615
#
#
# Mechanical properties :
#
#
# Convention : Reuss Voigt Hill
#
# Bulk Modulus (GPa) = 41.92586 49.85080 45.88833
# Shear Modulus (GPa) = 2.07415 17.19078 9.63246
#
# Velocity S-wave (km/s) = 1.03069 2.96726 2.22114
# Velocity P-wave (km/s) = 4.78432 6.10506 5.48459
#
# Compressibility (1/GPa) = 0.02385163
#
# Stress axis : x y z
#
# Youngs Moduli (GPa) = 82.09926 116.51658 42.94982
#
# Poissons Ratio (x) = 0.26369 0.23070
# Poissons Ratio (y) = 0.18580 0.10577
# Poissons Ratio (z) = 0.44099 0.28693
#
# Static dielectric constant tensor:
#      x y z
#    x 1.648220 0.000000 0.000000 
#    y 0.000000 1.716330 0.000000 
#    z 0.000000 0.000000 1.682530 
# 
# From -- ./inp_files/28672.got.cif
#   From: 2010.05.17/outbox.cif.g08.bks.cpg/sg66_15_cif.got.tgz:28672.got - 2010.06.03 17:51:23.
