data_PCOD9497129
_publ_section_title
;
Structure prediction by ZEFSAII (Michael W. Deem and Ramdas Pophale) SiO2 
 PCOD9497129
Probable space group: C C C M
;
_chemical_formula_sum "Si O2"
_cell_formula_units_Z 120
_cell_length_a 11.562584
_cell_length_b 18.343181
_cell_length_c 25.230641
_cell_angle_alpha 90.000000
_cell_angle_beta 90.000000
_cell_angle_gamma 90.000000
_cell_volume 5351.281982
_symmetry_space_group_name_H-M "C C C M"
_symmetry_group_IT_number 66
_symmetry_cell_setting 'orthorhombic'
loop_
_space_group_symop_operation_xyz
x,y,z
-x,-y,z
x,-y,1/2-z
-x,y,1/2-z
-x,-y,-z
x,y,-z
-x,y,1/2+z
x,-y,1/2+z
1/2+x,1/2+y,z
1/2-x,1/2-y,z
1/2+x,1/2-y,1/2-z
1/2-x,1/2+y,1/2-z
1/2-x,1/2-y,-z
1/2+x,1/2+y,-z
1/2-x,1/2+y,1/2+z
1/2+x,1/2-y,1/2+z
loop_
_atom_site_type_symbol
_atom_site_label
_atom_site_fract_x
_atom_site_fract_y
_atom_site_fract_z
Si Si1 0.866658 0.975466 0.308389
Si Si2 0.750000 0.750000 0.135182
Si Si3 0.479102 0.809705 0.688433
Si Si4 0.028511 0.584899 0.595722
Si Si5 0.768896 0.028639 0.584125
Si Si6 0.201211 0.635128 0.943061
Si Si7 0.626686 0.678690 0.639887
Si Si8 0.081869 0.154644 0.939429
O O1 0.865254 0.888915 0.319121
O O2 0.829685 0.000000 0.250000
O O3 0.791229 0.014272 0.353636
O O4 0.000000 0.000000 0.315045
O O5 0.650941 0.784345 0.172675
O O6 0.825119 0.801599 0.096338
O O7 0.500000 0.821362 0.750000
O O8 0.491128 0.882382 0.653703
O O9 0.570407 0.747856 0.669021
O O10 0.159916 0.582529 0.576481
O O11 0.000000 0.500000 0.595126
O O12 0.937533 0.629924 0.561071
O O13 0.877993 0.070645 0.561310
O O14 0.743839 0.949067 0.560804
O O15 0.253429 0.675631 0.892516
O O16 0.236270 0.665097 0.000000
O O17 0.536872 0.660763 0.592506
O O18 0.075349 0.180650 0.000000
#
# Coordination Sequence:
#
# PCOD9497129 Si02
#       8
#    16   8  16  16  16  16  16  16
#     4  10  20  35  61  92 130 173 210 259 330 383
#     4  10  23  42  60  94 132 158 213 264 314 404
#     4  11  25  44  68  94 127 173 213 268 335 379
#     4  10  23  45  64  92 130 166 220 269 311 388
#     4  10  20  38  60  95 129 160 221 270 310 386
#     4  10  22  41  66  93 129 173 215 266 323 382
#     4  10  23  40  60  96 136 162 220 269 313 401
#     4  11  20  35  61  89 128 170 207 263 327 374
#
# _framework density 22.424534000000001
#
# number of rings (size 3 to 8) (size 9 to 14) (size 15 to 20)
#    0.000    1.733    2.667    1.000    1.867    4.800 
#    7.200    4.000    0.000    0.000    0.000    0.000 
#    0.000    0.000    0.000    0.000    0.000    0.000 
#
# Total GULP energy -335219.461879 kJ/mol
# GULP energy per Si atom -5586.991031 kJ/mol
# Density = 2.237350 g / cm^3
# Si number density = 22.424534 Si / 1000 Ang^3
#
#
#
# Elastic Constant Matrix: (Units=GPa)
#
#
# Indices 1 2 3 4 5 6 
#
# 1 67.8402 4.1534 11.5195 0.0000 0.0000 0.0000
# 2 4.1534 32.5650 0.1327 0.0000 0.0000 0.0000
# 3 11.5195 0.1327 129.0997 0.0000 0.0000 0.0000
# 4 0.0000 0.0000 0.0000 -48.3472 0.0000 0.0000
# 5 0.0000 0.0000 0.0000 0.0000 27.8772 0.0000
# 6 0.0000 0.0000 0.0000 0.0000 0.0000 21.0977
#
#
#
# Elastic Compliance Matrix: (Units=1/GPa)
#
#
# Indices 1 2 3 4 5 6 
#
# 1 0.015086 -0.001919 -0.001344 0.000000 0.000000 0.000000
# 2 -0.001919 0.030952 0.000139 0.000000 0.000000 0.000000
# 3 -0.001344 0.000139 0.007866 0.000000 0.000000 0.000000
# 4 0.000000 0.000000 0.000000 -0.020684 0.000000 0.000000
# 5 0.000000 0.000000 0.000000 0.000000 0.035872 0.000000
# 6 0.000000 0.000000 0.000000 0.000000 0.000000 0.047399
#
#
# Mechanical properties :
#
#
# Convention : Reuss Voigt Hill
#
# Bulk Modulus (GPa) = 20.98321 29.01290 24.99805
# Shear Modulus (GPa) = 36.06904 14.37215 25.22059
#
# Velocity S-wave (km/s) = 4.01492 2.53437 3.35727
# Velocity P-wave (km/s) = 5.55611 4.64006 5.11862
#
# Compressibility (1/GPa) = 0.04765714
#
# Stress axis : x y z
#
# Youngs Moduli (GPa) = 66.28565 32.30810 127.13352
#
# Poissons Ratio (x) = 0.06199 0.17089
# Poissons Ratio (y) = 0.12718 -0.01772
# Poissons Ratio (z) = 0.08910 -0.00450
#
# Static dielectric constant tensor:
#      x y z
#    x 1.929660 0.000000 0.000000 
#    y 0.000000 1.850220 0.000000 
#    z 0.000000 0.000000 1.789000 
# 
# From -- ./inp_files/57229.got.cif
#   From: 2010.05.17/outbox.cif.g08.bks.cpg/sg66_29_cif.got.tgz:57229.got - 2010.06.03 17:51:23.
