data_PCOD9497664
_publ_section_title
;
Structure prediction by ZEFSAII (Michael W. Deem and Ramdas Pophale) SiO2 
 PCOD9497664
Probable space group: C C C M
;
_chemical_formula_sum "Si O2"
_cell_formula_units_Z 64
_cell_length_a 7.866714
_cell_length_b 18.941714
_cell_length_c 18.963966
_cell_angle_alpha 90.000000
_cell_angle_beta 90.000000
_cell_angle_gamma 90.000000
_cell_volume 2825.802495
_symmetry_space_group_name_H-M "C C C M"
_symmetry_group_IT_number 66
_symmetry_cell_setting 'orthorhombic'
loop_
_space_group_symop_operation_xyz
x,y,z
-x,-y,z
x,-y,1/2-z
-x,y,1/2-z
-x,-y,-z
x,y,-z
-x,y,1/2+z
x,-y,1/2+z
1/2+x,1/2+y,z
1/2-x,1/2-y,z
1/2+x,1/2-y,1/2-z
1/2-x,1/2+y,1/2-z
1/2-x,1/2-y,-z
1/2+x,1/2+y,-z
1/2-x,1/2+y,1/2+z
1/2+x,1/2-y,1/2+z
loop_
_atom_site_type_symbol
_atom_site_label
_atom_site_fract_x
_atom_site_fract_y
_atom_site_fract_z
Si Si1 0.806747 0.971989 0.824615
Si Si2 0.924271 0.203190 0.823132
Si Si3 0.420305 0.844536 0.329420
Si Si4 0.223893 0.405030 0.417058
O O1 0.736868 0.015002 0.890934
O O2 0.731119 0.000000 0.750000
O O3 0.750161 0.890897 0.831420
O O4 0.000000 0.000000 0.822519
O O5 0.750000 0.250000 0.810357
O O6 0.865474 0.143103 0.876870
O O7 0.000000 0.174473 0.750000
O O8 0.062373 0.261479 0.845894
O O9 0.500000 0.852161 0.250000
O O10 0.546827 0.878375 0.385899
O O11 0.239330 0.397075 0.500000
#
# Coordination Sequence:
#
# PCOD9497664 Si02
#       4
#    16  16  16  16
#     4  11  24  39  66  96 134 180 233 291 352 422
#     4   9  21  38  66  96 134 179 235 289 344 424
#     4  10  20  40  65  97 131 179 235 286 343 425
#     4  11  24  40  64 100 138 177 229 294 360 422
#
# _framework density 22.648433000000001
#
# number of rings (size 3 to 8) (size 9 to 14) (size 15 to 20)
#    0.000    1.750    2.500    0.750    3.500    7.000 
#    0.000    0.000    0.000    5.250    0.000    0.000 
#    0.000    0.000    0.000    0.000    0.000    0.000 
#
# Total GULP energy -178648.038165 kJ/mol
# GULP energy per Si atom -5582.751193 kJ/mol
# Density = 2.259688 g / cm^3
# Si number density = 22.648433 Si / 1000 Ang^3
#
#
#
# Elastic Constant Matrix: (Units=GPa)
#
#
# Indices 1 2 3 4 5 6 
#
# 1 112.6922 65.3817 37.1843 0.0000 0.0000 0.0000
# 2 65.3817 160.5428 49.1443 0.0000 0.0000 0.0000
# 3 37.1843 49.1443 161.5510 0.0000 0.0000 0.0000
# 4 0.0000 0.0000 0.0000 122.4199 0.0000 0.0000
# 5 0.0000 0.0000 0.0000 0.0000 32.1923 0.0000
# 6 0.0000 0.0000 0.0000 0.0000 0.0000 41.4770
#
#
#
# Elastic Compliance Matrix: (Units=1/GPa)
#
#
# Indices 1 2 3 4 5 6 
#
# 1 0.011897 -0.004418 -0.001394 0.000000 0.000000 0.000000
# 2 -0.004418 0.008509 -0.001572 0.000000 0.000000 0.000000
# 3 -0.001394 -0.001572 0.006989 0.000000 0.000000 0.000000
# 4 0.000000 0.000000 0.000000 0.008169 0.000000 0.000000
# 5 0.000000 0.000000 0.000000 0.000000 0.031063 0.000000
# 6 0.000000 0.000000 0.000000 0.000000 0.000000 0.024110
#
#
# Mechanical properties :
#
#
# Convention : Reuss Voigt Hill
#
# Bulk Modulus (GPa) = 79.19510 82.02296 80.60903
# Shear Modulus (GPa) = 45.57265 58.08955 51.83110
#
# Velocity S-wave (km/s) = 4.49060 5.06992 4.78902
# Velocity P-wave (km/s) = 7.86958 8.40038 8.13931
#
# Compressibility (1/GPa) = 0.01262704
#
# Stress axis : x y z
#
# Youngs Moduli (GPa) = 84.05295 117.51766 143.08184
#
# Poissons Ratio (x) = 0.51924 0.19950
# Poissons Ratio (y) = 0.37138 0.22487
# Poissons Ratio (z) = 0.11720 0.18469
#
# Static dielectric constant tensor:
#      x y z
#    x 1.965880 0.000000 0.000000 
#    y 0.000000 1.911200 0.000000 
#    z 0.000000 0.000000 1.774070 
# 
# From -- ./inp_files/36307.got.cif
#   From: 2010.05.17/outbox.cif.g08.bks.cpg/sg66_19_cif.got.tgz:36307.got - 2010.06.03 17:51:23.
