data_PCOD9497191
_publ_section_title
;
Structure prediction by ZEFSAII (Michael W. Deem and Ramdas Pophale) SiO2 
 PCOD9497191
Probable space group: C C C M
;
_chemical_formula_sum "Si O2"
_cell_formula_units_Z 64
_cell_length_a 20.218371
_cell_length_b 9.733231
_cell_length_c 14.276556
_cell_angle_alpha 90.000000
_cell_angle_beta 90.000000
_cell_angle_gamma 90.000000
_cell_volume 2809.484532
_symmetry_space_group_name_H-M "C C C M"
_symmetry_group_IT_number 66
_symmetry_cell_setting 'orthorhombic'
loop_
_space_group_symop_operation_xyz
x,y,z
-x,-y,z
x,-y,1/2-z
-x,y,1/2-z
-x,-y,-z
x,y,-z
-x,y,1/2+z
x,-y,1/2+z
1/2+x,1/2+y,z
1/2-x,1/2-y,z
1/2+x,1/2-y,1/2-z
1/2-x,1/2+y,1/2-z
1/2-x,1/2-y,-z
1/2+x,1/2+y,-z
1/2-x,1/2+y,1/2+z
1/2+x,1/2-y,1/2+z
loop_
_atom_site_type_symbol
_atom_site_label
_atom_site_fract_x
_atom_site_fract_y
_atom_site_fract_z
Si Si1 0.826454 0.790622 0.385682
Si Si2 0.677540 0.601274 0.107022
Si Si3 0.063458 0.426081 0.603988
Si Si4 0.325321 0.106376 0.836989
O O1 0.823695 0.779406 0.500000
O O2 0.750000 0.750000 0.354964
O O3 0.889470 0.695943 0.357513
O O4 0.842232 0.948682 0.362886
O O5 0.742951 0.906438 0.108155
O O6 0.662950 0.730490 0.173886
O O7 0.655109 0.627365 0.000000
O O8 0.042392 0.381360 0.500000
O O9 0.115566 0.549099 0.602273
O O10 0.000000 0.500000 0.649497
O O11 0.319887 0.000000 0.750000
#
# Coordination Sequence:
#
# PCOD9497191 Si02
#       4
#    16  16  16  16
#     4   9  16  30  57  89 117 148 199 264 314 361
#     4  10  20  37  62  88 120 162 215 268 322 380
#     4  10  20  36  58  83 115 159 208 253 305 379
#     4  11  22  34  53  85 122 158 200 262 324 384
#
# _framework density 22.779979999999998
#
# number of rings (size 3 to 8) (size 9 to 14) (size 15 to 20)
#    0.000    2.000    2.500    3.000    0.000    4.500 
#    0.000    1.250    0.000    6.000    0.000    3.500 
#    0.000    0.000    0.000    0.000    0.000    1.000 
#
# Total GULP energy -178244.712838 kJ/mol
# GULP energy per Si atom -5570.147276 kJ/mol
# Density = 2.272813 g / cm^3
# Si number density = 22.779980 Si / 1000 Ang^3
#
#
#
# Elastic Constant Matrix: (Units=GPa)
#
#
# Indices 1 2 3 4 5 6 
#
# 1 94.1283 80.8895 24.1701 0.0000 0.0000 0.0000
# 2 80.8895 233.7506 44.0823 0.0000 0.0000 0.0000
# 3 24.1701 44.0823 99.7465 0.0000 0.0000 0.0000
# 4 0.0000 0.0000 0.0000 27.6342 0.0000 0.0000
# 5 0.0000 0.0000 0.0000 0.0000 -10.3585 0.0000
# 6 0.0000 0.0000 0.0000 0.0000 0.0000 42.3810
#
#
#
# Elastic Compliance Matrix: (Units=1/GPa)
#
#
# Indices 1 2 3 4 5 6 
#
# 1 0.015322 -0.005020 -0.001494 0.000000 0.000000 0.000000
# 2 -0.005020 0.006312 -0.001573 0.000000 0.000000 0.000000
# 3 -0.001494 -0.001573 0.011083 0.000000 0.000000 0.000000
# 4 0.000000 0.000000 0.000000 0.036187 0.000000 0.000000
# 5 0.000000 0.000000 0.000000 0.000000 -0.096539 0.000000
# 6 0.000000 0.000000 0.000000 0.000000 0.000000 0.023596
#
#
# Mechanical properties :
#
#
# Convention : Reuss Voigt Hill
#
# Bulk Modulus (GPa) = 60.45368 80.65659 70.55514
# Shear Modulus (GPa) = 283.30755 30.49689 156.90222
#
# Velocity S-wave (km/s) = 11.16409 3.66287 8.30823
# Velocity P-wave (km/s) = 13.88446 7.30565 11.09393
#
# Compressibility (1/GPa) = 0.01654159
#
# Stress axis : x y z
#
# Youngs Moduli (GPa) = 65.26715 158.42831 90.23131
#
# Poissons Ratio (x) = 0.79536 0.13480
# Poissons Ratio (y) = 0.32766 0.14194
# Poissons Ratio (z) = 0.09751 0.24922
#
# Static dielectric constant tensor:
#      x y z
#    x 1.801600 0.000000 0.000000 
#    y 0.000000 1.916100 0.000000 
#    z 0.000000 0.000000 2.015770 
# 
# From -- ./inp_files/31895.got.cif
#   From: 2010.05.17/outbox.cif.g08.bks.cpg/sg66_16_cif.got.tgz:31895.got - 2010.06.03 17:51:23.
