data_PCOD9497004
_publ_section_title
;
Structure prediction by ZEFSAII (Michael W. Deem and Ramdas Pophale) SiO2 
 PCOD9497004
Probable space group: C C C M
;
_chemical_formula_sum "Si O2"
_cell_formula_units_Z 116
_cell_length_a 29.735645
_cell_length_b 23.376392
_cell_length_c 8.923534
_cell_angle_alpha 90.000000
_cell_angle_beta 90.000000
_cell_angle_gamma 90.000000
_cell_volume 6202.856404
_symmetry_space_group_name_H-M "C C C M"
_symmetry_group_IT_number 66
_symmetry_cell_setting 'orthorhombic'
loop_
_space_group_symop_operation_xyz
x,y,z
-x,-y,z
x,-y,1/2-z
-x,y,1/2-z
-x,-y,-z
x,y,-z
-x,y,1/2+z
x,-y,1/2+z
1/2+x,1/2+y,z
1/2-x,1/2-y,z
1/2+x,1/2-y,1/2-z
1/2-x,1/2+y,1/2-z
1/2-x,1/2-y,-z
1/2+x,1/2+y,-z
1/2-x,1/2+y,1/2+z
1/2+x,1/2-y,1/2+z
loop_
_atom_site_type_symbol
_atom_site_label
_atom_site_fract_x
_atom_site_fract_y
_atom_site_fract_z
Si Si1 0.500000 0.500000 0.750000
Si Si2 0.916491 0.558829 0.819490
Si Si3 0.653226 0.349780 0.319262
Si Si4 0.589462 0.444185 0.330100
Si Si5 0.045427 0.680700 0.322140
Si Si6 0.232066 0.060659 0.180114
Si Si7 0.355365 0.221688 0.181718
Si Si8 0.824642 0.604742 0.320005
O O1 0.464083 0.542815 0.672972
O O2 0.933854 0.500000 0.750000
O O3 0.945834 0.614478 0.778886
O O4 0.867368 0.571615 0.750095
O O5 0.913381 0.555493 0.000000
O O6 0.650115 0.343276 0.500000
O O7 0.608722 0.384867 0.267725
O O8 0.695091 0.390749 0.285942
O O9 0.658077 0.284934 0.265615
O O10 0.608987 0.500000 0.250000
O O11 0.604789 0.446650 0.500000
O O12 0.040341 0.682524 0.500000
O O13 0.091532 0.713396 0.285849
O O14 0.000000 0.703057 0.250000
O O15 0.279255 0.078606 0.253290
O O16 0.218686 0.000000 0.250000
O O17 0.236334 0.056254 0.000000
O O18 0.329881 0.170149 0.263272
O O19 0.349419 0.215274 0.000000
O O20 0.825584 0.601282 0.500000
#
# Coordination Sequence:
#
# PCOD9497004 Si02
#       8
#     4  16  16  16  16  16  16  16
#     4   8  18  28  54  76 114 140 186 228 276 320
#     4  10  20  35  55  81 109 143 182 223 270 322
#     4   9  19  36  58  79 107 146 186 224 268 326
#     4   9  17  31  51  77 106 140 179 223 272 321
#     4   9  19  34  53  76 106 141 178 222 269 319
#     4  11  22  37  58  84 112 145 181 220 270 325
#     4   9  19  39  60  78 104 144 188 226 266 321
#     4  11  22  37  57  81 111 143 179 226 271 321
#
# _framework density 18.701060999999999
#
# number of rings (size 3 to 8) (size 9 to 14) (size 15 to 20)
#    0.414    1.931    0.000    3.931    0.000    3.586 
#    1.241    6.897    0.000    0.000    0.000    0.000 
#    0.000    0.000    0.000    0.000    0.000    0.000 
#
# Total GULP energy -323157.098120 kJ/mol
# GULP energy per Si atom -5571.674106 kJ/mol
# Density = 1.865850 g / cm^3
# Si number density = 18.701061 Si / 1000 Ang^3
#
#
#
# Elastic Constant Matrix: (Units=GPa)
#
#
# Indices 1 2 3 4 5 6 
#
# 1 61.7011 6.6758 17.1937 0.0000 0.0000 0.0000
# 2 6.6758 88.9829 20.7864 0.0000 0.0000 0.0000
# 3 17.1937 20.7864 55.3709 0.0000 0.0000 0.0000
# 4 0.0000 0.0000 0.0000 22.4459 0.0000 0.0000
# 5 0.0000 0.0000 0.0000 0.0000 15.5679 0.0000
# 6 0.0000 0.0000 0.0000 0.0000 0.0000 15.3231
#
#
#
# Elastic Compliance Matrix: (Units=1/GPa)
#
#
# Indices 1 2 3 4 5 6 
#
# 1 0.017743 -0.000048 -0.005491 0.000000 0.000000 0.000000
# 2 -0.000048 0.012318 -0.004609 0.000000 0.000000 0.000000
# 3 -0.005491 -0.004609 0.021496 0.000000 0.000000 0.000000
# 4 0.000000 0.000000 0.000000 0.044552 0.000000 0.000000
# 5 0.000000 0.000000 0.000000 0.000000 0.064235 0.000000
# 6 0.000000 0.000000 0.000000 0.000000 0.000000 0.065261
#
#
# Mechanical properties :
#
#
# Convention : Reuss Voigt Hill
#
# Bulk Modulus (GPa) = 31.99114 32.81851 32.40483
# Shear Modulus (GPa) = 19.50673 21.42729 20.46701
#
# Velocity S-wave (km/s) = 3.23318 3.38861 3.31181
# Velocity P-wave (km/s) = 5.57509 5.73562 5.65593
#
# Compressibility (1/GPa) = 0.03125866
#
# Stress axis : x y z
#
# Youngs Moduli (GPa) = 56.36147 81.17872 46.52122
#
# Poissons Ratio (x) = 0.00393 0.25546
# Poissons Ratio (y) = 0.00273 0.21443
# Poissons Ratio (z) = 0.30950 0.37418
#
# Static dielectric constant tensor:
#      x y z
#    x 1.652420 0.000000 0.000000 
#    y 0.000000 1.668950 0.000000 
#    z 0.000000 0.000000 1.646570 
# 
# From -- ./inp_files/11740.got.cif
#   From: 2010.05.17/outbox.cif.g08.bks.cpg/sg66_6_cif.got.tgz:11740.got - 2010.06.03 17:51:23.
