data_PCOD9497478
_publ_section_title
;
Structure prediction by ZEFSAII (Michael W. Deem and Ramdas Pophale) SiO2 
 PCOD9497478
Probable space group: C C C M
;
_chemical_formula_sum "Si O2"
_cell_formula_units_Z 80
_cell_length_a 15.576402
_cell_length_b 10.045949
_cell_length_c 25.641262
_cell_angle_alpha 90.000000
_cell_angle_beta 90.000000
_cell_angle_gamma 90.000000
_cell_volume 4012.338013
_symmetry_space_group_name_H-M "C C C M"
_symmetry_group_IT_number 66
_symmetry_cell_setting 'orthorhombic'
loop_
_space_group_symop_operation_xyz
x,y,z
-x,-y,z
x,-y,1/2-z
-x,y,1/2-z
-x,-y,-z
x,y,-z
-x,y,1/2+z
x,-y,1/2+z
1/2+x,1/2+y,z
1/2-x,1/2-y,z
1/2+x,1/2-y,1/2-z
1/2-x,1/2+y,1/2-z
1/2-x,1/2-y,-z
1/2+x,1/2+y,-z
1/2-x,1/2+y,1/2+z
1/2+x,1/2-y,1/2+z
loop_
_atom_site_type_symbol
_atom_site_label
_atom_site_fract_x
_atom_site_fract_y
_atom_site_fract_z
Si Si1 0.353467 0.057082 0.000000
Si Si2 0.525740 0.790976 0.500000
Si Si3 0.979014 0.843684 0.806949
Si Si4 0.609081 0.283195 0.104340
Si Si5 0.286481 0.615724 0.706790
Si Si6 0.769209 0.475333 0.105739
O O1 0.425432 0.171965 0.000000
O O2 0.414101 0.924351 0.000000
O O3 0.295938 0.051040 0.947530
O O4 0.555047 0.715161 0.448590
O O5 0.878110 0.839889 0.816109
O O6 0.000000 0.786978 0.750000
O O7 0.041558 0.782991 0.849145
O O8 0.000000 0.000000 0.806037
O O9 0.675269 0.406362 0.104365
O O10 0.665296 0.149014 0.108440
O O11 0.297241 0.500000 0.750000
O O12 0.250000 0.750000 0.732212
O O13 0.230301 0.562689 0.658297
#
# Coordination Sequence:
#
# PCOD9497478 Si02
#       6
#     8   8  16  16  16  16
#     4   9  19  37  57  89 135 164 208 267 321 363
#     4   9  19  35  59  89 127 171 205 265 320 371
#     4  11  21  41  63  89 124 166 202 256 322 377
#     4  10  20  37  67  91 121 166 220 254 310 386
#     4  12  27  43  67  94 131 168 210 261 323 378
#     4  10  21  39  64  94 123 166 215 263 311 377
#
# _framework density 19.938499
#
# number of rings (size 3 to 8) (size 9 to 14) (size 15 to 20)
#    0.000    1.600    4.000    0.600    8.400    2.400 
#    0.000    2.000    0.000    0.000    0.000    0.000 
#    0.000    0.000    0.000    0.000    0.000    0.000 
#
# Total GULP energy -223255.876508 kJ/mol
# GULP energy per Si atom -5581.396913 kJ/mol
# Density = 1.989312 g / cm^3
# Si number density = 19.938499 Si / 1000 Ang^3
#
#
#
# Elastic Constant Matrix: (Units=GPa)
#
#
# Indices 1 2 3 4 5 6 
#
# 1 103.0012 30.8615 54.3020 0.0000 0.0000 0.0000
# 2 30.8615 53.6628 26.7974 0.0000 0.0000 0.0000
# 3 54.3020 26.7974 158.9821 0.0000 0.0000 0.0000
# 4 0.0000 0.0000 0.0000 28.6467 0.0000 0.0000
# 5 0.0000 0.0000 0.0000 0.0000 36.0398 0.0000
# 6 0.0000 0.0000 0.0000 0.0000 0.0000 3.0504
#
#
#
# Elastic Compliance Matrix: (Units=1/GPa)
#
#
# Indices 1 2 3 4 5 6 
#
# 1 0.013357 -0.005900 -0.003568 0.000000 0.000000 0.000000
# 2 -0.005900 0.022954 -0.001854 0.000000 0.000000 0.000000
# 3 -0.003568 -0.001854 0.007821 0.000000 0.000000 0.000000
# 4 0.000000 0.000000 0.000000 0.034908 0.000000 0.000000
# 5 0.000000 0.000000 0.000000 0.000000 0.027747 0.000000
# 6 0.000000 0.000000 0.000000 0.000000 0.000000 0.327827
#
#
# Mechanical properties :
#
#
# Convention : Reuss Voigt Hill
#
# Bulk Modulus (GPa) = 46.53594 59.95198 53.24396
# Shear Modulus (GPa) = 10.76609 27.12640 18.94624
#
# Velocity S-wave (km/s) = 2.32624 3.69250 3.08593
# Velocity P-wave (km/s) = 5.53223 6.95077 6.28167
#
# Compressibility (1/GPa) = 0.02148877
#
# Stress axis : x y z
#
# Youngs Moduli (GPa) = 74.86476 43.56582 127.85909
#
# Poissons Ratio (x) = 0.25705 0.45618
# Poissons Ratio (y) = 0.44172 0.23702
# Poissons Ratio (z) = 0.26711 0.08076
#
# Static dielectric constant tensor:
#      x y z
#    x 1.717700 0.000000 0.000000 
#    y 0.000000 1.736800 0.000000 
#    z 0.000000 0.000000 1.576200 
# 
# From -- ./inp_files/64486.got.cif
#   From: 2010.05.17/outbox.cif.g08.bks.cpg/sg66_33_cif.got.tgz:64486.got - 2010.06.03 17:51:23.
