data_PCOD9497138
_publ_section_title
;
Structure prediction by ZEFSAII (Michael W. Deem and Ramdas Pophale) SiO2 
 PCOD9497138
Probable space group: C C C M
;
_chemical_formula_sum "Si O2"
_cell_formula_units_Z 40
_cell_length_a 23.718284
_cell_length_b 6.845372
_cell_length_c 10.350264
_cell_angle_alpha 90.000000
_cell_angle_beta 90.000000
_cell_angle_gamma 90.000000
_cell_volume 1680.473802
_symmetry_space_group_name_H-M "C C C M"
_symmetry_group_IT_number 66
_symmetry_cell_setting 'orthorhombic'
loop_
_space_group_symop_operation_xyz
x,y,z
-x,-y,z
x,-y,1/2-z
-x,y,1/2-z
-x,-y,-z
x,y,-z
-x,y,1/2+z
x,-y,1/2+z
1/2+x,1/2+y,z
1/2-x,1/2-y,z
1/2+x,1/2-y,1/2-z
1/2-x,1/2+y,1/2-z
1/2-x,1/2-y,-z
1/2+x,1/2+y,-z
1/2-x,1/2+y,1/2+z
1/2+x,1/2-y,1/2+z
loop_
_atom_site_type_symbol
_atom_site_label
_atom_site_fract_x
_atom_site_fract_y
_atom_site_fract_z
Si Si1 0.105587 0.730527 0.280068
Si Si2 0.514447 0.272645 0.500000
Si Si3 0.610180 0.788794 0.500000
Si Si4 0.185712 0.683845 0.500000
O O1 0.107005 0.500000 0.250000
O O2 0.050727 0.752085 0.369129
O O3 0.158096 0.771227 0.371628
O O4 0.111297 0.822530 0.137609
O O5 0.500000 0.500000 0.500000
O O6 0.456362 0.147526 0.500000
O O7 0.659095 0.958175 0.500000
O O8 0.250000 0.750000 0.500000
#
# Coordination Sequence:
#
# PCOD9497138 Si02
#       4
#    16   8   8   8
#     4   9  20  37  64  98 128 174 229 279 350 424
#     4  11  23  38  64 103 152 179 208 283 375 459
#     4  10  20  35  63  99 128 169 228 281 356 423
#     4   9  19  38  64  86 122 175 229 294 343 412
#
# _framework density 23.802810000000001
#
# number of rings (size 3 to 8) (size 9 to 14) (size 15 to 20)
#    0.000    2.400    0.000    2.400    0.000   20.800 
#    0.000    1.000   52.800    0.000    0.000    0.000 
#    0.000    0.000    0.000    0.000    0.000    0.000 
#
# Total GULP energy -111507.854888 kJ/mol
# GULP energy per Si atom -5575.392744 kJ/mol
# Density = 2.374863 g / cm^3
# Si number density = 23.802810 Si / 1000 Ang^3
#
#
#
# Elastic Constant Matrix: (Units=GPa)
#
#
# Indices 1 2 3 4 5 6 
#
# 1 211.1484 47.2637 97.2143 0.0000 0.0000 0.0000
# 2 47.2637 81.9497 20.2163 0.0000 0.0000 0.0000
# 3 97.2143 20.2163 283.1495 0.0000 0.0000 0.0000
# 4 0.0000 0.0000 0.0000 -0.8143 0.0000 0.0000
# 5 0.0000 0.0000 0.0000 0.0000 15.2927 0.0000
# 6 0.0000 0.0000 0.0000 0.0000 0.0000 27.2079
#
#
#
# Elastic Compliance Matrix: (Units=1/GPa)
#
#
# Indices 1 2 3 4 5 6 
#
# 1 0.006346 -0.003179 -0.001952 0.000000 0.000000 0.000000
# 2 -0.003179 0.014013 0.000091 0.000000 0.000000 0.000000
# 3 -0.001952 0.000091 0.004195 0.000000 0.000000 0.000000
# 4 0.000000 0.000000 0.000000 -1.228027 0.000000 0.000000
# 5 0.000000 0.000000 0.000000 0.000000 0.065391 0.000000
# 6 0.000000 0.000000 0.000000 0.000000 0.000000 0.036754
#
#
# Mechanical properties :
#
#
# Convention : Reuss Voigt Hill
#
# Bulk Modulus (GPa) = 69.08190 100.62625 84.85408
# Shear Modulus (GPa) = -4.60226 35.77414 15.58594
#
# Velocity S-wave (km/s) = -1.39201 3.88098 2.56167
# Velocity P-wave (km/s) = 5.14801 7.90249 6.66901
#
# Compressibility (1/GPa) = 0.01447557
#
# Stress axis : x y z
#
# Youngs Moduli (GPa) = 157.57532 71.36013 238.35791
#
# Poissons Ratio (x) = 0.22682 0.46525
# Poissons Ratio (y) = 0.50086 -0.02164
# Poissons Ratio (z) = 0.30757 -0.00648
#
# Static dielectric constant tensor:
#      x y z
#    x 1.867100 0.000000 0.000000 
#    y 0.000000 2.061820 0.000000 
#    z 0.000000 0.000000 2.283180 
# 
# From -- ./inp_files/18307.got.cif
#   From: 2010.05.17/outbox.cif.g08.bks.cpg/sg66_10_cif.got.tgz:18307.got - 2010.06.03 17:51:23.
