data_PCOD9497759
_publ_section_title
;
Structure prediction by ZEFSAII (Michael W. Deem and Ramdas Pophale) SiO2 
 PCOD9497759
Probable space group: C C C M
;
_chemical_formula_sum "Si O2"
_cell_formula_units_Z 96
_cell_length_a 10.985661
_cell_length_b 21.711194
_cell_length_c 22.028895
_cell_angle_alpha 90.000000
_cell_angle_beta 90.000000
_cell_angle_gamma 90.000000
_cell_volume 5254.151777
_symmetry_space_group_name_H-M "C C C M"
_symmetry_group_IT_number 66
_symmetry_cell_setting 'orthorhombic'
loop_
_space_group_symop_operation_xyz
x,y,z
-x,-y,z
x,-y,1/2-z
-x,y,1/2-z
-x,-y,-z
x,y,-z
-x,y,1/2+z
x,-y,1/2+z
1/2+x,1/2+y,z
1/2-x,1/2-y,z
1/2+x,1/2-y,1/2-z
1/2-x,1/2+y,1/2-z
1/2-x,1/2-y,-z
1/2+x,1/2+y,-z
1/2-x,1/2+y,1/2+z
1/2+x,1/2-y,1/2+z
loop_
_atom_site_type_symbol
_atom_site_label
_atom_site_fract_x
_atom_site_fract_y
_atom_site_fract_z
Si Si1 0.750825 0.607726 0.645965
Si Si2 0.225725 0.025687 0.818621
Si Si3 0.616807 0.251667 0.361455
Si Si4 0.633930 0.137624 0.272541
Si Si5 0.130622 0.290535 0.572340
Si Si6 0.978984 0.117006 0.677317
O O1 0.769362 0.534318 0.646120
O O2 0.784863 0.636126 0.711957
O O3 0.832979 0.642623 0.597637
O O4 0.606124 0.617686 0.641862
O O5 0.319318 0.082155 0.814551
O O6 0.101480 0.057748 0.839604
O O7 0.206841 0.000000 0.750000
O O8 0.750000 0.250000 0.393193
O O9 0.629864 0.202492 0.306699
O O10 0.496485 0.232081 0.398768
O O11 0.591954 0.320143 0.336943
O O12 0.500000 0.122293 0.250000
O O13 0.120674 0.288995 0.500000
O O14 0.250000 0.250000 0.590280
O O15 0.000000 0.113731 0.750000
#
# Coordination Sequence:
#
# PCOD9497759 Si02
#       6
#    16  16  16  16  16  16
#     4  11  22  37  60  86 122 163 196 245 294 359
#     4  10  21  34  53  87 128 164 193 229 292 374
#     4  12  23  38  61  92 122 154 194 254 309 359
#     4  11  21  34  55  92 125 158 191 232 304 372
#     4  11  25  45  65  85 112 158 214 256 298 347
#     4  12  20  33  57  90 129 157 192 234 303 369
#
# _framework density 18.271265
#
# number of rings (size 3 to 8) (size 9 to 14) (size 15 to 20)
#    0.000    0.833    8.333    1.000    0.000    4.000 
#    0.000    0.000    0.000    5.000    0.000    0.000 
#    0.000    0.000    0.000    0.000    0.000    0.000 
#
# Total GULP energy -267890.008238 kJ/mol
# GULP energy per Si atom -5581.041838 kJ/mol
# Density = 1.822968 g / cm^3
# Si number density = 18.271265 Si / 1000 Ang^3
#
#
#
# Elastic Constant Matrix: (Units=GPa)
#
#
# Indices 1 2 3 4 5 6 
#
# 1 121.8824 30.3314 18.2399 0.0000 0.0000 0.0000
# 2 30.3314 119.5266 21.0958 0.0000 0.0000 0.0000
# 3 18.2399 21.0958 23.8397 0.0000 0.0000 0.0000
# 4 0.0000 0.0000 0.0000 12.5013 0.0000 0.0000
# 5 0.0000 0.0000 0.0000 0.0000 8.5047 0.0000
# 6 0.0000 0.0000 0.0000 0.0000 0.0000 31.4703
#
#
#
# Elastic Compliance Matrix: (Units=1/GPa)
#
#
# Indices 1 2 3 4 5 6 
#
# 1 0.009440 -0.001328 -0.006047 0.000000 0.000000 0.000000
# 2 -0.001328 0.010102 -0.007923 0.000000 0.000000 0.000000
# 3 -0.006047 -0.007923 0.053585 0.000000 0.000000 0.000000
# 4 0.000000 0.000000 0.000000 0.079992 0.000000 0.000000
# 5 0.000000 0.000000 0.000000 0.000000 0.117582 0.000000
# 6 0.000000 0.000000 0.000000 0.000000 0.000000 0.031776
#
#
# Mechanical properties :
#
#
# Convention : Reuss Voigt Hill
#
# Bulk Modulus (GPa) = 23.51299 44.95364 34.23332
# Shear Modulus (GPa) = 14.39887 23.53403 18.96645
#
# Velocity S-wave (km/s) = 2.81029 3.59281 3.22537
# Velocity P-wave (km/s) = 4.84015 6.47055 5.71380
#
# Compressibility (1/GPa) = 0.04252968
#
# Stress axis : x y z
#
# Youngs Moduli (GPa) = 105.93033 98.99297 18.66209
#
# Poissons Ratio (x) = 0.13149 0.11286
# Poissons Ratio (y) = 0.14070 0.14786
# Poissons Ratio (z) = 0.64060 0.78430
#
# Static dielectric constant tensor:
#      x y z
#    x 1.696080 0.000000 0.000000 
#    y 0.000000 1.641520 0.000000 
#    z 0.000000 0.000000 1.601010 
# 
# From -- ./inp_files/48796.got.cif
#   From: 2010.05.17/outbox.cif.g08.bks.cpg/sg66_25_cif.got.tgz:48796.got - 2010.06.03 17:51:23.
