data_PCOD9497657
_publ_section_title
;
Structure prediction by ZEFSAII (Michael W. Deem and Ramdas Pophale) SiO2 
 PCOD9497657
Probable space group: C C C M
;
_chemical_formula_sum "Si O2"
_cell_formula_units_Z 88
_cell_length_a 11.431907
_cell_length_b 28.851895
_cell_length_c 14.362890
_cell_angle_alpha 90.000000
_cell_angle_beta 90.000000
_cell_angle_gamma 90.000000
_cell_volume 4737.343326
_symmetry_space_group_name_H-M "C C C M"
_symmetry_group_IT_number 66
_symmetry_cell_setting 'orthorhombic'
loop_
_space_group_symop_operation_xyz
x,y,z
-x,-y,z
x,-y,1/2-z
-x,y,1/2-z
-x,-y,-z
x,y,-z
-x,y,1/2+z
x,-y,1/2+z
1/2+x,1/2+y,z
1/2-x,1/2-y,z
1/2+x,1/2-y,1/2-z
1/2-x,1/2+y,1/2-z
1/2-x,1/2-y,-z
1/2+x,1/2+y,-z
1/2-x,1/2+y,1/2+z
1/2+x,1/2-y,1/2+z
loop_
_atom_site_type_symbol
_atom_site_label
_atom_site_fract_x
_atom_site_fract_y
_atom_site_fract_z
Si Si1 0.371979 0.551531 0.289663
Si Si2 0.634910 0.421204 0.500000
Si Si3 0.213852 0.600262 0.851457
Si Si4 0.611737 0.744917 0.500000
Si Si5 0.068197 0.451562 0.500000
Si Si6 0.601815 0.363916 0.000000
Si Si7 0.878331 0.630705 0.000000
Si Si8 0.022962 0.317371 0.646110
O O1 0.355980 0.500000 0.250000
O O2 0.500000 0.566970 0.250000
O O3 0.367442 0.551385 0.401859
O O4 0.268814 0.582594 0.244914
O O5 0.519675 0.390143 0.500000
O O6 0.749146 0.388944 0.500000
O O7 0.150010 0.559132 0.910110
O O8 0.120195 0.641823 0.847931
O O9 0.320698 0.619847 0.912512
O O10 0.750000 0.750000 0.500000
O O11 0.582545 0.690987 0.500000
O O12 0.565485 0.773717 0.587562
O O13 0.000000 0.500000 0.500000
O O14 0.968179 0.412347 0.500000
O O15 0.913551 0.660759 0.909597
O O16 0.000000 0.302776 0.750000
#
# Coordination Sequence:
#
# PCOD9497657 Si02
#       8
#    16   8  16   8   8   8   8  16
#     4  11  25  40  60  94 124 168 215 255 313 378
#     4  12  24  42  65  87 131 170 209 268 314 375
#     4  10  20  40  64  91 131 163 210 262 317 377
#     4  11  20  40  66  96 119 159 217 265 309 386
#     4   9  20  35  64  97 123 165 217 261 305 356
#     4  11  21  40  67  93 120 164 213 266 312 377
#     4   9  21  38  61  89 128 168 197 261 321 361
#     4  10  20  40  64  92 127 167 208 253 327 383
#
# _framework density 18.575811999999999
#
# number of rings (size 3 to 8) (size 9 to 14) (size 15 to 20)
#    0.000    1.636    3.636    2.182    2.545    2.182 
#    3.273    1.818    0.000    0.000    0.000    0.000 
#    0.000    0.000    0.000    0.000    0.000    0.000 
#
# Total GULP energy -245594.805695 kJ/mol
# GULP energy per Si atom -5581.700129 kJ/mol
# Density = 1.853353 g / cm^3
# Si number density = 18.575812 Si / 1000 Ang^3
#
#
#
# Elastic Constant Matrix: (Units=GPa)
#
#
# Indices 1 2 3 4 5 6 
#
# 1 91.8647 30.9998 49.4375 0.0000 0.0000 0.0000
# 2 30.9998 113.2165 63.7254 0.0000 0.0000 0.0000
# 3 49.4375 63.7254 182.1017 0.0000 0.0000 0.0000
# 4 0.0000 0.0000 0.0000 6.1849 0.0000 0.0000
# 5 0.0000 0.0000 0.0000 0.0000 -58.2889 0.0000
# 6 0.0000 0.0000 0.0000 0.0000 0.0000 26.7180
#
#
#
# Elastic Compliance Matrix: (Units=1/GPa)
#
#
# Indices 1 2 3 4 5 6 
#
# 1 0.013093 -0.001973 -0.002864 0.000000 0.000000 0.000000
# 2 -0.001973 0.011296 -0.003418 0.000000 0.000000 0.000000
# 3 -0.002864 -0.003418 0.007465 0.000000 0.000000 0.000000
# 4 0.000000 0.000000 0.000000 0.161683 0.000000 0.000000
# 5 0.000000 0.000000 0.000000 0.000000 -0.017156 0.000000
# 6 0.000000 0.000000 0.000000 0.000000 0.000000 0.037428
#
#
# Mechanical properties :
#
#
# Convention : Reuss Voigt Hill
#
# Bulk Modulus (GPa) = 65.16714 75.05649 70.11181
# Shear Modulus (GPa) = 21.23749 11.12415 16.18082
#
# Velocity S-wave (km/s) = 3.38492 2.44980 2.95459
# Velocity P-wave (km/s) = 7.10175 6.96385 7.03314
#
# Compressibility (1/GPa) = 0.01534516
#
# Stress axis : x y z
#
# Youngs Moduli (GPa) = 76.37896 88.52360 133.95985
#
# Poissons Ratio (x) = 0.17464 0.38367
# Poissons Ratio (y) = 0.15068 0.45781
# Poissons Ratio (z) = 0.21875 0.30253
#
# Static dielectric constant tensor:
#      x y z
#    x 1.621600 0.000000 0.000000 
#    y 0.000000 1.582810 0.000000 
#    z 0.000000 0.000000 1.634880 
# 
# From -- ./inp_files/26599.got.cif
#   From: 2010.05.17/outbox.cif.g08.bks.cpg/sg66_14_cif.got.tgz:26599.got - 2010.06.03 17:51:23.
