data_PCOD9497194
_publ_section_title
;
Structure prediction by ZEFSAII (Michael W. Deem and Ramdas Pophale) SiO2 
 PCOD9497194
Probable space group: C C C M
;
_chemical_formula_sum "Si O2"
_cell_formula_units_Z 96
_cell_length_a 21.708654
_cell_length_b 12.833675
_cell_length_c 13.499607
_cell_angle_alpha 90.000000
_cell_angle_beta 90.000000
_cell_angle_gamma 90.000000
_cell_volume 3761.014946
_symmetry_space_group_name_H-M "C C C M"
_symmetry_group_IT_number 66
_symmetry_cell_setting 'orthorhombic'
loop_
_space_group_symop_operation_xyz
x,y,z
-x,-y,z
x,-y,1/2-z
-x,y,1/2-z
-x,-y,-z
x,y,-z
-x,y,1/2+z
x,-y,1/2+z
1/2+x,1/2+y,z
1/2-x,1/2-y,z
1/2+x,1/2-y,1/2-z
1/2-x,1/2+y,1/2-z
1/2-x,1/2-y,-z
1/2+x,1/2+y,-z
1/2-x,1/2+y,1/2+z
1/2+x,1/2-y,1/2+z
loop_
_atom_site_type_symbol
_atom_site_label
_atom_site_fract_x
_atom_site_fract_y
_atom_site_fract_z
Si Si1 0.848678 0.481994 0.616800
Si Si2 0.777361 0.863344 0.883678
Si Si3 0.471731 0.113639 0.882391
Si Si4 0.106874 0.128507 0.237120
Si Si5 0.322267 0.218824 0.616512
Si Si6 0.011059 0.832389 0.116054
O O1 0.863471 0.488821 0.500000
O O2 0.781824 0.434396 0.626839
O O3 0.902356 0.405619 0.656687
O O4 0.839139 0.601169 0.646466
O O5 0.750000 0.750000 0.853624
O O6 0.834027 0.912405 0.823229
O O7 0.794897 0.854337 0.000000
O O8 0.516770 0.208826 0.853311
O O9 0.500000 0.000000 0.865419
O O10 0.467388 0.132648 0.000000
O O11 0.141469 0.209849 0.307762
O O12 0.059870 0.156443 0.148990
O O13 0.056373 0.093238 0.320590
O O14 0.340432 0.233677 0.500000
O O15 0.250000 0.250000 0.620897
O O16 0.020102 0.848677 0.000000
#
# Coordination Sequence:
#
# PCOD9497194 Si02
#       6
#    16  16  16  16  16  16
#     4   9  18  34  58  86 120 166 211 256 311 368
#     4  10  20  36  58  84 118 159 206 259 309 363
#     4   9  16  29  51  78 112 155 198 237 287 357
#     4  11  21  35  55  83 117 154 200 250 307 373
#     4  10  21  38  59  86 123 163 203 250 308 377
#     4  10  21  36  54  78 112 156 202 250 307 375
#
# _framework density 25.525023999999998
#
# number of rings (size 3 to 8) (size 9 to 14) (size 15 to 20)
#    0.000    2.167    0.000    3.500    0.000    5.333 
#    0.000   14.167    0.000    0.000    0.000   11.667 
#    0.000   26.667    0.000    0.500    0.000    0.000 
#
# Total GULP energy -267775.829599 kJ/mol
# GULP energy per Si atom -5578.663117 kJ/mol
# Density = 2.546693 g / cm^3
# Si number density = 25.525024 Si / 1000 Ang^3
#
#
#
# Elastic Constant Matrix: (Units=GPa)
#
#
# Indices 1 2 3 4 5 6 
#
# 1 598.6264 -12.5455 226.6836 0.0000 0.0000 0.0000
# 2 -12.5455 63.2315 1.1021 0.0000 0.0000 0.0000
# 3 226.6836 1.1021 236.9222 0.0000 0.0000 0.0000
# 4 0.0000 0.0000 0.0000 0.8731 0.0000 0.0000
# 5 0.0000 0.0000 0.0000 0.0000 46.6861 0.0000
# 6 0.0000 0.0000 0.0000 0.0000 0.0000 -128.6192
#
#
#
# Elastic Compliance Matrix: (Units=1/GPa)
#
#
# Indices 1 2 3 4 5 6 
#
# 1 0.002640 0.000568 -0.002528 0.000000 0.000000 0.000000
# 2 0.000568 0.015938 -0.000617 0.000000 0.000000 0.000000
# 3 -0.002528 -0.000617 0.006643 0.000000 0.000000 0.000000
# 4 0.000000 0.000000 0.000000 1.145365 0.000000 0.000000
# 5 0.000000 0.000000 0.000000 0.000000 0.021420 0.000000
# 6 0.000000 0.000000 0.000000 0.000000 0.000000 -0.007775
#
#
# Mechanical properties :
#
#
# Convention : Reuss Voigt Hill
#
# Bulk Modulus (GPa) = 49.83811 147.69558 98.76685
# Shear Modulus (GPa) = 4.18034 29.35734 16.76884
#
# Velocity S-wave (km/s) = 1.28113 3.39505 2.56590
# Velocity P-wave (km/s) = 4.66433 8.56488 6.89613
#
# Compressibility (1/GPa) = 0.02006497
#
# Stress axis : x y z
#
# Youngs Moduli (GPa) = 378.81360 62.74184 150.53926
#
# Poissons Ratio (x) = -0.03563 0.38062
# Poissons Ratio (y) = -0.21510 0.09295
# Poissons Ratio (z) = 0.95779 0.03874
#
# Static dielectric constant tensor:
#      x y z
#    x 2.030260 0.000000 0.000000 
#    y 0.000000 2.562410 0.000000 
#    z 0.000000 0.000000 2.027190 
# 
# From -- ./inp_files/31162.got.cif
#   From: 2010.05.17/outbox.cif.g08.bks.cpg/sg66_16_cif.got.tgz:31162.got - 2010.06.03 17:51:23.
