data_PCOD9497045
_publ_section_title
;
Structure prediction by ZEFSAII (Michael W. Deem and Ramdas Pophale) SiO2 
 PCOD9497045
Probable space group: C C C M
;
_chemical_formula_sum "Si O2"
_cell_formula_units_Z 96
_cell_length_a 27.970040
_cell_length_b 20.934592
_cell_length_c 8.839220
_cell_angle_alpha 90.000000
_cell_angle_beta 90.000000
_cell_angle_gamma 90.000000
_cell_volume 5175.729038
_symmetry_space_group_name_H-M "C C C M"
_symmetry_group_IT_number 66
_symmetry_cell_setting 'orthorhombic'
loop_
_space_group_symop_operation_xyz
x,y,z
-x,-y,z
x,-y,1/2-z
-x,y,1/2-z
-x,-y,-z
x,y,-z
-x,y,1/2+z
x,-y,1/2+z
1/2+x,1/2+y,z
1/2-x,1/2-y,z
1/2+x,1/2-y,1/2-z
1/2-x,1/2+y,1/2-z
1/2-x,1/2-y,-z
1/2+x,1/2+y,-z
1/2-x,1/2+y,1/2+z
1/2+x,1/2-y,1/2+z
loop_
_atom_site_type_symbol
_atom_site_label
_atom_site_fract_x
_atom_site_fract_y
_atom_site_fract_z
Si Si1 0.273582 0.682186 0.319190
Si Si2 0.400382 0.932204 0.818213
Si Si3 0.378549 0.314223 0.681769
Si Si4 0.948396 0.699104 0.317315
Si Si5 0.551879 0.568284 0.318974
Si Si6 0.211500 0.568395 0.181260
O O1 0.271957 0.675557 0.500000
O O2 0.250000 0.750000 0.277350
O O3 0.327860 0.682145 0.262232
O O4 0.243739 0.624940 0.245064
O O5 0.431125 0.871323 0.768501
O O6 0.344502 0.921421 0.777952
O O7 0.415630 0.000000 0.750000
O O8 0.402954 0.936189 0.000000
O O9 0.371221 0.311676 0.500000
O O10 0.408992 0.251746 0.726245
O O11 0.410496 0.376359 0.715780
O O12 0.951405 0.699877 0.500000
O O13 0.000000 0.714441 0.250000
O O14 0.566298 0.500000 0.250000
O O15 0.500000 0.584196 0.250000
O O16 0.547436 0.562720 0.500000
O O17 0.225789 0.500000 0.250000
O O18 0.214957 0.566286 0.000000
#
# Coordination Sequence:
#
# PCOD9497045 Si02
#       6
#    16  16  16  16  16  16
#     4  11  24  39  57  84 115 147 187 234 282 334
#     4   9  19  35  56  81 109 143 181 222 269 325
#     4  10  22  39  58  80 108 145 187 229 276 330
#     4  10  21  37  56  80 109 142 183 227 274 327
#     4  10  20  35  57  83 111 144 181 222 270 325
#     4  10  20  37  61  85 113 149 187 230 280 333
#
# _framework density 18.548110999999999
#
# number of rings (size 3 to 8) (size 9 to 14) (size 15 to 20)
#    0.000    2.000    0.000    3.500    0.000    7.000 
#    0.000    3.333    0.000    0.000    0.000    0.000 
#    0.000    0.000    0.000    0.000    0.000    0.000 
#
# Total GULP energy -268183.491429 kJ/mol
# GULP energy per Si atom -5587.156071 kJ/mol
# Density = 1.850590 g / cm^3
# Si number density = 18.548111 Si / 1000 Ang^3
#
#
#
# Elastic Constant Matrix: (Units=GPa)
#
#
# Indices 1 2 3 4 5 6 
#
# 1 33.7438 16.8557 20.0770 0.0000 0.0000 0.0000
# 2 16.8557 71.9175 30.8876 0.0000 0.0000 0.0000
# 3 20.0770 30.8876 32.7419 0.0000 0.0000 0.0000
# 4 0.0000 0.0000 0.0000 24.0149 0.0000 0.0000
# 5 0.0000 0.0000 0.0000 0.0000 30.7052 0.0000
# 6 0.0000 0.0000 0.0000 0.0000 0.0000 38.4901
#
#
#
# Elastic Compliance Matrix: (Units=1/GPa)
#
#
# Indices 1 2 3 4 5 6 
#
# 1 0.046880 0.002284 -0.030901 0.000000 0.000000 0.000000
# 2 0.002284 0.023487 -0.023557 0.000000 0.000000 0.000000
# 3 -0.030901 -0.023557 0.071713 0.000000 0.000000 0.000000
# 4 0.000000 0.000000 0.000000 0.041641 0.000000 0.000000
# 5 0.000000 0.000000 0.000000 0.000000 0.032568 0.000000
# 6 0.000000 0.000000 0.000000 0.000000 0.000000 0.025981
#
#
# Mechanical properties :
#
#
# Convention : Reuss Voigt Hill
#
# Bulk Modulus (GPa) = 26.50301 30.44929 28.47615
# Shear Modulus (GPa) = 13.92004 23.34757 18.63380
#
# Velocity S-wave (km/s) = 2.74247 3.55175 3.17301
# Velocity P-wave (km/s) = 4.93437 5.76818 5.36749
#
# Compressibility (1/GPa) = 0.03773157
#
# Stress axis : x y z
#
# Youngs Moduli (GPa) = 21.33125 42.57651 13.94446
#
# Poissons Ratio (x) = -0.09724 0.43089
# Poissons Ratio (y) = -0.04872 0.32850
# Poissons Ratio (z) = 0.65915 1.00299
#
# Static dielectric constant tensor:
#      x y z
#    x 1.605150 0.000000 0.000000 
#    y 0.000000 1.627800 0.000000 
#    z 0.000000 0.000000 1.624200 
# 
# From -- ./inp_files/7985.got.cif
#   From: 2010.05.17/outbox.cif.g08.bks.cpg/sg66_4_cif.got.tgz:7985.got - 2010.06.03 17:51:23.
