data_PCOD9497417
_publ_section_title
;
Structure prediction by ZEFSAII (Michael W. Deem and Ramdas Pophale) SiO2 
 PCOD9497417
Probable space group: C C C M
;
_chemical_formula_sum "Si O2"
_cell_formula_units_Z 96
_cell_length_a 7.645782
_cell_length_b 18.266624
_cell_length_c 28.350593
_cell_angle_alpha 90.000000
_cell_angle_beta 90.000000
_cell_angle_gamma 90.000000
_cell_volume 3959.518238
_symmetry_space_group_name_H-M "C C C M"
_symmetry_group_IT_number 66
_symmetry_cell_setting 'orthorhombic'
loop_
_space_group_symop_operation_xyz
x,y,z
-x,-y,z
x,-y,1/2-z
-x,y,1/2-z
-x,-y,-z
x,y,-z
-x,y,1/2+z
x,-y,1/2+z
1/2+x,1/2+y,z
1/2-x,1/2-y,z
1/2+x,1/2-y,1/2-z
1/2-x,1/2+y,1/2-z
1/2-x,1/2-y,-z
1/2+x,1/2+y,-z
1/2-x,1/2+y,1/2+z
1/2+x,1/2-y,1/2+z
loop_
_atom_site_type_symbol
_atom_site_label
_atom_site_fract_x
_atom_site_fract_y
_atom_site_fract_z
Si Si1 0.320256 0.581553 0.271036
Si Si2 0.476620 0.397313 0.364503
Si Si3 0.827580 0.666688 0.694379
Si Si4 0.419896 0.887907 0.944972
Si Si5 0.452428 0.768270 0.380814
Si Si6 0.711947 0.529021 0.056394
O O1 0.297467 0.500000 0.250000
O O2 0.500000 0.614213 0.250000
O O3 0.372878 0.580265 0.325855
O O4 0.179054 0.633225 0.246686
O O5 0.290187 0.394239 0.335281
O O6 0.474924 0.312090 0.375594
O O7 0.564225 0.434947 0.410984
O O8 0.750000 0.750000 0.697130
O O9 0.494925 0.818090 0.665012
O O10 0.439507 0.810855 0.920302
O O11 0.610871 0.923994 0.938428
O O12 0.276890 0.947466 0.928881
O O13 0.387701 0.878686 0.000000
O O14 0.250000 0.750000 0.389858
O O15 0.672065 0.529800 0.000000
#
# Coordination Sequence:
#
# PCOD9497417 Si02
#       6
#    16  16  16  16  16  16
#     4   9  19  37  62  91 121 171 223 268 340 421
#     4  10  20  37  61  91 125 168 219 277 345 420
#     4   9  21  39  58  88 132 170 215 278 342 414
#     4   9  19  35  57  86 121 165 220 274 336 415
#     4  11  21  36  59  87 118 167 218 267 335 407
#     4   9  18  35  59  89 127 168 212 280 352 415
#
# _framework density 24.245374999999999
#
# number of rings (size 3 to 8) (size 9 to 14) (size 15 to 20)
#    0.000    2.500    1.667    1.000    2.333    1.667 
#    0.000    3.333    0.000    6.000    0.000    0.000 
#    0.000    0.000    0.000    0.000    0.000    0.000 
#
# Total GULP energy -267338.762701 kJ/mol
# GULP energy per Si atom -5569.557556 kJ/mol
# Density = 2.419019 g / cm^3
# Si number density = 24.245375 Si / 1000 Ang^3
#
#
#
# Elastic Constant Matrix: (Units=GPa)
#
#
# Indices 1 2 3 4 5 6 
#
# 1 108.9077 34.9322 38.5249 0.0000 0.0000 0.0000
# 2 34.9322 145.3282 67.8443 0.0000 0.0000 0.0000
# 3 38.5249 67.8443 119.0708 0.0000 0.0000 0.0000
# 4 0.0000 0.0000 0.0000 13.6152 0.0000 0.0000
# 5 0.0000 0.0000 0.0000 0.0000 29.1177 0.0000
# 6 0.0000 0.0000 0.0000 0.0000 0.0000 14.5857
#
#
#
# Elastic Compliance Matrix: (Units=1/GPa)
#
#
# Indices 1 2 3 4 5 6 
#
# 1 0.010541 -0.001283 -0.002680 0.000000 0.000000 0.000000
# 2 -0.001283 0.009531 -0.005015 0.000000 0.000000 0.000000
# 3 -0.002680 -0.005015 0.012123 0.000000 0.000000 0.000000
# 4 0.000000 0.000000 0.000000 0.073448 0.000000 0.000000
# 5 0.000000 0.000000 0.000000 0.000000 0.034343 0.000000
# 6 0.000000 0.000000 0.000000 0.000000 0.000000 0.068560
#
#
# Mechanical properties :
#
#
# Convention : Reuss Voigt Hill
#
# Bulk Modulus (GPa) = 70.22781 72.87885 71.55333
# Shear Modulus (GPa) = 21.62174 26.93072 24.27623
#
# Velocity S-wave (km/s) = 2.98952 3.33642 3.16772
# Velocity P-wave (km/s) = 6.39880 6.70570 6.55405
#
# Compressibility (1/GPa) = 0.01423937
#
# Stress axis : x y z
#
# Youngs Moduli (GPa) = 94.86333 104.92447 82.48765
#
# Poissons Ratio (x) = 0.13460 0.22104
# Poissons Ratio (y) = 0.12169 0.41370
# Poissons Ratio (z) = 0.25421 0.52623
#
# Static dielectric constant tensor:
#      x y z
#    x 2.095550 0.000000 0.000000 
#    y 0.000000 1.918360 0.000000 
#    z 0.000000 0.000000 2.033690 
# 
# From -- ./inp_files/62600.got.cif
#   From: 2010.05.17/outbox.cif.g08.bks.cpg/sg66_32_cif.got.tgz:62600.got - 2010.06.03 17:51:23.
