data_PCOD9497378
_publ_section_title
;
Structure prediction by ZEFSAII (Michael W. Deem and Ramdas Pophale) SiO2 
 PCOD9497378
Probable space group: C C C M
;
_chemical_formula_sum "Si O2"
_cell_formula_units_Z 96
_cell_length_a 19.012616
_cell_length_b 29.357539
_cell_length_c 8.794853
_cell_angle_alpha 90.000000
_cell_angle_beta 90.000000
_cell_angle_gamma 90.000000
_cell_volume 4908.966950
_symmetry_space_group_name_H-M "C C C M"
_symmetry_group_IT_number 66
_symmetry_cell_setting 'orthorhombic'
loop_
_space_group_symop_operation_xyz
x,y,z
-x,-y,z
x,-y,1/2-z
-x,y,1/2-z
-x,-y,-z
x,y,-z
-x,y,1/2+z
x,-y,1/2+z
1/2+x,1/2+y,z
1/2-x,1/2-y,z
1/2+x,1/2-y,1/2-z
1/2-x,1/2+y,1/2-z
1/2-x,1/2-y,-z
1/2+x,1/2+y,-z
1/2-x,1/2+y,1/2+z
1/2+x,1/2-y,1/2+z
loop_
_atom_site_type_symbol
_atom_site_label
_atom_site_fract_x
_atom_site_fract_y
_atom_site_fract_z
Si Si1 0.935503 0.367995 0.675412
Si Si2 0.621962 0.954356 0.679127
Si Si3 0.278264 0.548773 0.317805
Si Si4 0.675055 0.644296 0.681404
Si Si5 0.076807 0.777339 0.181630
Si Si6 0.324382 0.808798 0.179534
O O1 0.946660 0.377739 0.500000
O O2 0.926084 0.412471 0.777230
O O3 0.864840 0.340874 0.704047
O O4 0.000000 0.340958 0.750000
O O5 0.631856 0.958399 0.500000
O O6 0.697895 0.947435 0.757670
O O7 0.591469 0.000000 0.750000
O O8 0.304628 0.500000 0.250000
O O9 0.278890 0.546201 0.500000
O O10 0.314709 0.595508 0.261715
O O11 0.670215 0.635736 0.500000
O O12 0.608162 0.673916 0.733004
O O13 0.742855 0.678025 0.700031
O O14 0.138945 0.740000 0.208330
O O15 0.000000 0.767620 0.250000
O O16 0.068545 0.778828 0.000000
O O17 0.339619 0.819552 0.000000
#
# Coordination Sequence:
#
# PCOD9497378 Si02
#       6
#    16  16  16  16  16  16
#     4  12  24  37  53  77 110 151 197 244 295 348
#     4  11  21  36  55  77 107 146 190 240 294 349
#     4  11  21  35  58  89 121 154 193 240 296 351
#     4  10  20  37  62  89 120 157 201 246 295 352
#     4  10  22  39  60  88 121 161 200 243 299 358
#     4  10  20  37  60  85 115 154 200 247 293 344
#
# _framework density 19.556049000000002
#
# number of rings (size 3 to 8) (size 9 to 14) (size 15 to 20)
#    0.000    1.333    1.667    6.500    0.000    5.000 
#    0.000    1.667    0.000    3.500    0.000    3.500 
#    0.000    0.000    0.000    0.000    0.000    0.000 
#
# Total GULP energy -267795.744952 kJ/mol
# GULP energy per Si atom -5579.078020 kJ/mol
# Density = 1.951154 g / cm^3
# Si number density = 19.556049 Si / 1000 Ang^3
#
#
#
# Elastic Constant Matrix: (Units=GPa)
#
#
# Indices 1 2 3 4 5 6 
#
# 1 45.6771 46.0619 27.9799 0.0000 0.0000 0.0000
# 2 46.0619 133.3522 53.2887 0.0000 0.0000 0.0000
# 3 27.9799 53.2887 112.3825 0.0000 0.0000 0.0000
# 4 0.0000 0.0000 0.0000 24.5585 0.0000 0.0000
# 5 0.0000 0.0000 0.0000 0.0000 -32.9339 0.0000
# 6 0.0000 0.0000 0.0000 0.0000 0.0000 -66.1828
#
#
#
# Elastic Compliance Matrix: (Units=1/GPa)
#
#
# Indices 1 2 3 4 5 6 
#
# 1 0.034770 -0.010550 -0.003654 0.000000 0.000000 0.000000
# 2 -0.010550 0.012453 -0.003278 0.000000 0.000000 0.000000
# 3 -0.003654 -0.003278 0.011362 0.000000 0.000000 0.000000
# 4 0.000000 0.000000 0.000000 0.040719 0.000000 0.000000
# 5 0.000000 0.000000 0.000000 0.000000 -0.030364 0.000000
# 6 0.000000 0.000000 0.000000 0.000000 0.000000 -0.015110
#
#
# Mechanical properties :
#
#
# Convention : Reuss Voigt Hill
#
# Bulk Modulus (GPa) = 42.33569 60.67475 51.50522
# Shear Modulus (GPa) = 51.72266 -3.97288 23.87489
#
# Velocity S-wave (km/s) = 5.14838 -1.42687 3.49785
# Velocity P-wave (km/s) = 7.55225 5.32718 6.53511
#
# Compressibility (1/GPa) = 0.02362073
#
# Stress axis : x y z
#
# Youngs Moduli (GPa) = 28.76043 80.30161 88.00908
#
# Poissons Ratio (x) = 0.84717 0.32161
# Poissons Ratio (y) = 0.30342 0.28852
# Poissons Ratio (z) = 0.10510 0.26325
#
# Static dielectric constant tensor:
#      x y z
#    x 1.694170 0.000000 0.000000 
#    y 0.000000 1.713790 0.000000 
#    z 0.000000 0.000000 1.838770 
# 
# From -- ./inp_files/7945.got.cif
#   From: 2010.05.17/outbox.cif.g08.bks.cpg/sg66_4_cif.got.tgz:7945.got - 2010.06.03 17:51:23.
