data_PCOD9497578
_publ_section_title
;
Structure prediction by ZEFSAII (Michael W. Deem and Ramdas Pophale) SiO2 
 PCOD9497578
Probable space group: C C C M
;
_chemical_formula_sum "Si O2"
_cell_formula_units_Z 96
_cell_length_a 21.429275
_cell_length_b 12.368302
_cell_length_c 14.546446
_cell_angle_alpha 90.000000
_cell_angle_beta 90.000000
_cell_angle_gamma 90.000000
_cell_volume 3855.444522
_symmetry_space_group_name_H-M "C C C M"
_symmetry_group_IT_number 66
_symmetry_cell_setting 'orthorhombic'
loop_
_space_group_symop_operation_xyz
x,y,z
-x,-y,z
x,-y,1/2-z
-x,y,1/2-z
-x,-y,-z
x,y,-z
-x,y,1/2+z
x,-y,1/2+z
1/2+x,1/2+y,z
1/2-x,1/2-y,z
1/2+x,1/2-y,1/2-z
1/2-x,1/2+y,1/2-z
1/2-x,1/2-y,-z
1/2+x,1/2+y,-z
1/2-x,1/2+y,1/2+z
1/2+x,1/2-y,1/2+z
loop_
_atom_site_type_symbol
_atom_site_label
_atom_site_fract_x
_atom_site_fract_y
_atom_site_fract_z
Si Si1 0.587061 0.444341 0.401017
Si Si2 0.695504 0.107777 0.388803
Si Si3 0.495543 0.272564 0.359057
Si Si4 0.138501 0.187699 0.399127
Si Si5 0.186518 0.839137 0.706410
Si Si6 0.061302 0.444936 0.105142
O O1 0.612574 0.404443 0.500000
O O2 0.519070 0.389217 0.395262
O O3 0.607742 0.568189 0.399332
O O4 0.621239 0.394272 0.314057
O O5 0.702759 0.100627 0.500000
O O6 0.759307 0.083292 0.333813
O O7 0.686272 0.231377 0.355565
O O8 0.632225 0.045630 0.359706
O O9 0.500000 0.273824 0.250000
O O10 0.424661 0.242416 0.385485
O O11 0.542842 0.181550 0.394541
O O12 0.165789 0.208937 0.500000
O O13 0.185047 0.192838 0.313208
O O14 0.000000 0.500000 0.148554
O O15 0.064688 0.484016 0.000000
#
# Coordination Sequence:
#
# PCOD9497578 Si02
#       6
#    16  16  16  16  16  16
#     4  11  21  36  61  93 128 168 209 261 326 391
#     4  10  20  38  67 100 126 164 223 283 333 386
#     4  12  22  37  62  92 131 170 211 266 328 392
#     4  11  24  38  58  92 136 176 212 256 324 407
#     4  11  20  36  63  93 130 166 219 270 329 389
#     4  10  21  39  66  96 126 164 214 272 337 400
#
# _framework density 24.899851000000002
#
# number of rings (size 3 to 8) (size 9 to 14) (size 15 to 20)
#    0.000    1.167    3.333    4.500    0.000    2.333 
#    0.000    1.667   22.000    0.000    0.000    0.000 
#    0.000    0.667    0.000    0.000    0.000    0.000 
#
# Total GULP energy -267891.459460 kJ/mol
# GULP energy per Si atom -5581.072072 kJ/mol
# Density = 2.484318 g / cm^3
# Si number density = 24.899851 Si / 1000 Ang^3
#
#
#
# Elastic Constant Matrix: (Units=GPa)
#
#
# Indices 1 2 3 4 5 6 
#
# 1 161.6182 -0.0886 53.9721 0.0000 0.0000 0.0000
# 2 -0.0886 24.7615 -6.3696 0.0000 0.0000 0.0000
# 3 53.9721 -6.3696 193.1757 0.0000 0.0000 0.0000
# 4 0.0000 0.0000 0.0000 -3.4451 0.0000 0.0000
# 5 0.0000 0.0000 0.0000 0.0000 20.6521 0.0000
# 6 0.0000 0.0000 0.0000 0.0000 0.0000 32.9444
#
#
#
# Elastic Compliance Matrix: (Units=1/GPa)
#
#
# Indices 1 2 3 4 5 6 
#
# 1 0.006830 -0.000470 -0.001924 0.000000 0.000000 0.000000
# 2 -0.000470 0.040763 0.001476 0.000000 0.000000 0.000000
# 3 -0.001924 0.001476 0.005763 0.000000 0.000000 0.000000
# 4 0.000000 0.000000 0.000000 -0.290271 0.000000 0.000000
# 5 0.000000 0.000000 0.000000 0.000000 0.048421 0.000000
# 6 0.000000 0.000000 0.000000 0.000000 0.000000 0.030354
#
#
# Mechanical properties :
#
#
# Convention : Reuss Voigt Hill
#
# Bulk Modulus (GPa) = 19.41051 52.73146 36.07099
# Shear Modulus (GPa) = -35.93759 32.16639 -1.88560
#
# Velocity S-wave (km/s) = -3.80318 3.59810 -0.87116
# Velocity P-wave (km/s) = 3.38722 6.20364 3.67505
#
# Compressibility (1/GPa) = 0.05151848
#
# Stress axis : x y z
#
# Youngs Moduli (GPa) = 146.42224 24.53191 173.52853
#
# Poissons Ratio (x) = 0.01154 0.33381
# Poissons Ratio (y) = 0.06888 -0.25604
# Poissons Ratio (z) = 0.28166 -0.03620
#
# Static dielectric constant tensor:
#      x y z
#    x 2.063210 0.000000 0.000000 
#    y 0.000000 2.033730 0.000000 
#    z 0.000000 0.000000 1.948520 
# 
# From -- ./inp_files/31201.got.cif
#   From: 2010.05.17/outbox.cif.g08.bks.cpg/sg66_16_cif.got.tgz:31201.got - 2010.06.03 17:51:23.
