data_PCOD9497899
_publ_section_title
;
Structure prediction by ZEFSAII (Michael W. Deem and Ramdas Pophale) SiO2 
 PCOD9497899
Probable space group: C C C M
;
_chemical_formula_sum "Si O2"
_cell_formula_units_Z 88
_cell_length_a 22.973706
_cell_length_b 8.310649
_cell_length_c 24.192535
_cell_angle_alpha 90.000000
_cell_angle_beta 90.000000
_cell_angle_gamma 90.000000
_cell_volume 4618.993779
_symmetry_space_group_name_H-M "C C C M"
_symmetry_group_IT_number 66
_symmetry_cell_setting 'orthorhombic'
loop_
_space_group_symop_operation_xyz
x,y,z
-x,-y,z
x,-y,1/2-z
-x,y,1/2-z
-x,-y,-z
x,y,-z
-x,y,1/2+z
x,-y,1/2+z
1/2+x,1/2+y,z
1/2-x,1/2-y,z
1/2+x,1/2-y,1/2-z
1/2-x,1/2+y,1/2-z
1/2-x,1/2-y,-z
1/2+x,1/2+y,-z
1/2-x,1/2+y,1/2+z
1/2+x,1/2-y,1/2+z
loop_
_atom_site_type_symbol
_atom_site_label
_atom_site_fract_x
_atom_site_fract_y
_atom_site_fract_z
Si Si1 0.493390 0.246677 0.686771
Si Si2 0.000000 0.500000 0.095358
Si Si3 0.282078 0.587195 0.379595
Si Si4 0.913708 0.431458 0.500000
Si Si5 0.347089 0.732140 0.000000
Si Si6 0.750000 0.250000 0.905957
Si Si7 0.101021 0.968413 0.312219
Si Si8 0.667488 0.379589 0.500000
O O1 0.500000 0.185958 0.750000
O O2 0.475231 0.127919 0.638417
O O3 0.444752 0.384965 0.683165
O O4 0.557936 0.318239 0.677688
O O5 0.953249 0.579533 0.054645
O O6 0.250000 0.750000 0.359576
O O7 0.248001 0.418148 0.373216
O O8 0.344351 0.554450 0.351607
O O9 0.293787 0.610865 0.445005
O O10 0.888570 0.613602 0.500000
O O11 0.867792 0.286660 0.500000
O O12 0.305856 0.745958 0.946279
O O13 0.370151 0.547321 0.000000
O O14 0.123695 0.000000 0.250000
#
# Coordination Sequence:
#
# PCOD9497899 Si02
#       8
#    16   8  16   8   8   8  16   8
#     4   9  19  39  64  84 110 154 205 247 283 355
#     4  11  23  34  54  90 121 147 186 246 304 353
#     4  11  21  37  61  88 118 156 197 241 295 356
#     4  11  23  37  50  89 130 146 182 244 302 357
#     4   9  19  37  56  76 116 157 198 233 276 348
#     4   9  20  34  56  88 108 152 206 235 272 344
#     4   9  20  40  62  85 116 153 198 248 300 349
#     4  10  21  36  61  81 114 163 199 234 285 351
#
# _framework density 19.051767999999999
#
# number of rings (size 3 to 8) (size 9 to 14) (size 15 to 20)
#    0.000    2.182    0.000    4.364    5.091    0.000 
#    1.636    0.909    0.000    0.000    0.000    0.000 
#    0.000    0.000    0.000    0.000    0.000    0.000 
#
# Total GULP energy -245006.798936 kJ/mol
# GULP energy per Si atom -5568.336339 kJ/mol
# Density = 1.900840 g / cm^3
# Si number density = 19.051768 Si / 1000 Ang^3
#
#
#
# Elastic Constant Matrix: (Units=GPa)
#
#
# Indices 1 2 3 4 5 6 
#
# 1 50.2421 25.3845 23.7853 0.0000 0.0000 0.0000
# 2 25.3845 116.3005 17.6187 0.0000 0.0000 0.0000
# 3 23.7853 17.6187 80.9559 0.0000 0.0000 0.0000
# 4 0.0000 0.0000 0.0000 15.9086 0.0000 0.0000
# 5 0.0000 0.0000 0.0000 0.0000 -5.2929 0.0000
# 6 0.0000 0.0000 0.0000 0.0000 0.0000 19.1186
#
#
#
# Elastic Compliance Matrix: (Units=1/GPa)
#
#
# Indices 1 2 3 4 5 6 
#
# 1 0.025238 -0.004535 -0.006428 0.000000 0.000000 0.000000
# 2 -0.004535 0.009706 -0.000780 0.000000 0.000000 0.000000
# 3 -0.006428 -0.000780 0.014411 0.000000 0.000000 0.000000
# 4 0.000000 0.000000 0.000000 0.062859 0.000000 0.000000
# 5 0.000000 0.000000 0.000000 0.000000 -0.188933 0.000000
# 6 0.000000 0.000000 0.000000 0.000000 0.000000 0.052305
#
#
# Mechanical properties :
#
#
# Convention : Reuss Voigt Hill
#
# Bulk Modulus (GPa) = 38.65610 42.34173 40.49892
# Shear Modulus (GPa) = 649.76659 17.99419 333.88039
#
# Velocity S-wave (km/s) = 18.48766 3.07659 13.25253
# Velocity P-wave (km/s) = 21.81877 5.90706 15.98362
#
# Compressibility (1/GPa) = 0.02586914
#
# Stress axis : x y z
#
# Youngs Moduli (GPa) = 39.62282 103.02492 69.39244
#
# Poissons Ratio (x) = 0.46720 0.44606
# Poissons Ratio (y) = 0.17968 0.05413
# Poissons Ratio (z) = 0.25470 0.08037
#
# Static dielectric constant tensor:
#      x y z
#    x 1.640750 0.000000 0.000000 
#    y 0.000000 1.676690 0.000000 
#    z 0.000000 0.000000 1.656550 
# 
# From -- ./inp_files/59423.got.cif
#   From: 2010.05.17/outbox.cif.g08.bks.cpg/sg66_30_cif.got.tgz:59423.got - 2010.06.03 17:51:23.
