data_PCOD9497375
_publ_section_title
;
Structure prediction by ZEFSAII (Michael W. Deem and Ramdas Pophale) SiO2 
 PCOD9497375
Probable space group: C C C M
;
_chemical_formula_sum "Si O2"
_cell_formula_units_Z 112
_cell_length_a 25.509222
_cell_length_b 15.303506
_cell_length_c 14.703541
_cell_angle_alpha 90.000000
_cell_angle_beta 90.000000
_cell_angle_gamma 90.000000
_cell_volume 5739.976157
_symmetry_space_group_name_H-M "C C C M"
_symmetry_group_IT_number 66
_symmetry_cell_setting 'orthorhombic'
loop_
_space_group_symop_operation_xyz
x,y,z
-x,-y,z
x,-y,1/2-z
-x,y,1/2-z
-x,-y,-z
x,y,-z
-x,y,1/2+z
x,-y,1/2+z
1/2+x,1/2+y,z
1/2-x,1/2-y,z
1/2+x,1/2-y,1/2-z
1/2-x,1/2+y,1/2-z
1/2-x,1/2-y,-z
1/2+x,1/2+y,-z
1/2-x,1/2+y,1/2+z
1/2+x,1/2-y,1/2+z
loop_
_atom_site_type_symbol
_atom_site_label
_atom_site_fract_x
_atom_site_fract_y
_atom_site_fract_z
Si Si1 0.196411 0.292746 0.297682
Si Si2 0.205054 0.476033 0.392653
Si Si3 0.394987 0.681135 0.605248
Si Si4 0.622782 0.344045 0.106919
Si Si5 0.167136 0.340690 0.105771
Si Si6 0.994770 0.098952 0.142171
Si Si7 0.321773 0.472946 0.889668
O O1 0.250000 0.250000 0.333370
O O2 0.191251 0.389431 0.338671
O O3 0.149007 0.231048 0.331795
O O4 0.201346 0.304017 0.188814
O O5 0.209539 0.454418 0.500000
O O6 0.164369 0.555563 0.383048
O O7 0.261365 0.515767 0.361789
O O8 0.382231 0.673176 0.500000
O O9 0.384356 0.782629 0.623800
O O10 0.454344 0.652979 0.615272
O O11 0.354358 0.610252 0.647907
O O12 0.560398 0.357266 0.117573
O O13 0.647944 0.437719 0.132638
O O14 0.634533 0.327310 0.000000
O O15 0.185277 0.326972 0.000000
O O16 0.000000 0.092567 0.250000
O O17 0.000000 0.000000 0.104982
O O18 0.320288 0.468499 0.000000
#
# Coordination Sequence:
#
# PCOD9497375 Si02
#       7
#    16  16  16  16  16  16  16
#     4  12  24  38  59  90 121 158 202 252 305 361
#     4  10  21  40  62  86 120 160 202 251 303 360
#     4  10  20  37  60  82 113 158 204 247 294 354
#     4  11  22  38  60  89 123 162 202 248 306 362
#     4  10  24  42  59  83 119 163 207 249 300 361
#     4  11  22  36  55  86 124 160 200 248 299 358
#     4   9  18  32  54  85 119 156 198 243 293 352
#
# _framework density 19.512276
#
# number of rings (size 3 to 8) (size 9 to 14) (size 15 to 20)
#    0.000    1.571    2.857    2.143    2.000    1.429 
#    0.000    0.000    0.000    0.857    0.000    7.000 
#    0.000    0.000    0.000    0.000    0.000    0.000 
#
# Total GULP energy -312354.805039 kJ/mol
# GULP energy per Si atom -5577.764376 kJ/mol
# Density = 1.946787 g / cm^3
# Si number density = 19.512276 Si / 1000 Ang^3
#
#
#
# Elastic Constant Matrix: (Units=GPa)
#
#
# Indices 1 2 3 4 5 6 
#
# 1 89.1964 90.0618 5.3804 0.0000 0.0000 0.0000
# 2 90.0618 159.8253 43.1250 0.0000 0.0000 0.0000
# 3 5.3804 43.1250 85.8346 0.0000 0.0000 0.0000
# 4 0.0000 0.0000 0.0000 27.9919 0.0000 0.0000
# 5 0.0000 0.0000 0.0000 0.0000 15.1264 0.0000
# 6 0.0000 0.0000 0.0000 0.0000 0.0000 18.8597
#
#
#
# Elastic Compliance Matrix: (Units=1/GPa)
#
#
# Indices 1 2 3 4 5 6 
#
# 1 0.029743 -0.018807 0.007584 0.000000 0.000000 0.000000
# 2 -0.018807 0.019130 -0.008432 0.000000 0.000000 0.000000
# 3 0.007584 -0.008432 0.015411 0.000000 0.000000 0.000000
# 4 0.000000 0.000000 0.000000 0.035725 0.000000 0.000000
# 5 0.000000 0.000000 0.000000 0.000000 0.066110 0.000000
# 6 0.000000 0.000000 0.000000 0.000000 0.000000 0.053023
#
#
# Mechanical properties :
#
#
# Convention : Reuss Voigt Hill
#
# Bulk Modulus (GPa) = 40.04004 67.99895 54.01950
# Shear Modulus (GPa) = 18.74241 25.48153 22.11197
#
# Velocity S-wave (km/s) = 3.10263 3.61768 3.37001
# Velocity P-wave (km/s) = 5.77928 7.23706 6.54886
#
# Compressibility (1/GPa) = 0.02497500
#
# Stress axis : x y z
#
# Youngs Moduli (GPa) = 33.62169 52.27508 64.88695
#
# Poissons Ratio (x) = 0.98311 -0.49213
# Poissons Ratio (y) = 0.63231 0.54714
# Poissons Ratio (z) = -0.25500 0.44080
#
# Static dielectric constant tensor:
#      x y z
#    x 1.629440 0.000000 0.000000 
#    y 0.000000 1.720960 0.000000 
#    z 0.000000 0.000000 1.721990 
# 
# From -- ./inp_files/32483.got.cif
#   From: 2010.05.17/outbox.cif.g08.bks.cpg/sg66_17_cif.got.tgz:32483.got - 2010.06.03 17:51:23.
