data_PCOD9497554
_publ_section_title
;
Structure prediction by ZEFSAII (Michael W. Deem and Ramdas Pophale) SiO2 
 PCOD9497554
Probable space group: C C C M
;
_chemical_formula_sum "Si O2"
_cell_formula_units_Z 56
_cell_length_a 5.134952
_cell_length_b 18.336946
_cell_length_c 26.005093
_cell_angle_alpha 90.000000
_cell_angle_beta 90.000000
_cell_angle_gamma 90.000000
_cell_volume 2448.622329
_symmetry_space_group_name_H-M "C C C M"
_symmetry_group_IT_number 66
_symmetry_cell_setting 'orthorhombic'
loop_
_space_group_symop_operation_xyz
x,y,z
-x,-y,z
x,-y,1/2-z
-x,y,1/2-z
-x,-y,-z
x,y,-z
-x,y,1/2+z
x,-y,1/2+z
1/2+x,1/2+y,z
1/2-x,1/2-y,z
1/2+x,1/2-y,1/2-z
1/2-x,1/2+y,1/2-z
1/2-x,1/2-y,-z
1/2+x,1/2+y,-z
1/2-x,1/2+y,1/2+z
1/2+x,1/2-y,1/2+z
loop_
_atom_site_type_symbol
_atom_site_label
_atom_site_fract_x
_atom_site_fract_y
_atom_site_fract_z
Si Si1 0.867526 0.167111 0.942459
Si Si2 0.579170 0.158218 0.696079
Si Si3 0.393887 0.581244 0.840309
Si Si4 0.750000 0.750000 0.890247
O O1 0.750000 0.250000 0.940141
O O2 0.810892 0.111084 0.896821
O O3 0.166504 0.185615 0.927966
O O4 0.827457 0.139915 0.000000
O O5 0.500000 0.193762 0.750000
O O6 0.368752 0.093585 0.691550
O O7 0.544622 0.216684 0.650225
O O8 0.870388 0.128214 0.685469
O O9 0.500000 0.500000 0.843098
#
# Coordination Sequence:
#
# PCOD9497554 Si02
#       4
#    16  16  16   8
#     4  10  20  38  64  89 122 162 207 257 317 380
#     4  11  24  40  64  92 125 169 211 260 316 378
#     4  11  24  42  62  92 129 164 210 261 313 380
#     4  10  21  38  62  90 130 154 213 260 316 368
#
# _framework density 22.870001999999999
#
# number of rings (size 3 to 8) (size 9 to 14) (size 15 to 20)
#    0.000    1.429    2.857    2.143    0.000    8.571 
#    0.000    0.000    0.000    5.143    0.000    0.000 
#    0.000    0.000    0.000    0.000    0.000    0.000 
#
# Total GULP energy -155977.301088 kJ/mol
# GULP energy per Si atom -5570.617896 kJ/mol
# Density = 2.281795 g / cm^3
# Si number density = 22.870002 Si / 1000 Ang^3
#
#
#
# Elastic Constant Matrix: (Units=GPa)
#
#
# Indices 1 2 3 4 5 6 
#
# 1 89.5825 23.9667 36.7107 0.0000 0.0000 0.0000
# 2 23.9667 77.0232 0.8693 0.0000 0.0000 0.0000
# 3 36.7107 0.8693 121.0076 0.0000 0.0000 0.0000
# 4 0.0000 0.0000 0.0000 13.8968 0.0000 0.0000
# 5 0.0000 0.0000 0.0000 0.0000 16.3525 0.0000
# 6 0.0000 0.0000 0.0000 0.0000 0.0000 40.9852
#
#
#
# Elastic Compliance Matrix: (Units=1/GPa)
#
#
# Indices 1 2 3 4 5 6 
#
# 1 0.014055 -0.004326 -0.004233 0.000000 0.000000 0.000000
# 2 -0.004326 0.014315 0.001209 0.000000 0.000000 0.000000
# 3 -0.004233 0.001209 0.009539 0.000000 0.000000 0.000000
# 4 0.000000 0.000000 0.000000 0.071959 0.000000 0.000000
# 5 0.000000 0.000000 0.000000 0.000000 0.061153 0.000000
# 6 0.000000 0.000000 0.000000 0.000000 0.000000 0.024399
#
#
# Mechanical properties :
#
#
# Convention : Reuss Voigt Hill
#
# Bulk Modulus (GPa) = 43.08170 45.63408 44.35789
# Shear Modulus (GPa) = 22.95103 29.31800 26.13452
#
# Velocity S-wave (km/s) = 3.17131 3.58431 3.38411
# Velocity P-wave (km/s) = 5.68227 6.09317 5.89130
#
# Compressibility (1/GPa) = 0.02321171
#
# Stress axis : x y z
#
# Youngs Moduli (GPa) = 71.15051 69.85484 104.82866
#
# Poissons Ratio (x) = 0.30216 0.44372
# Poissons Ratio (y) = 0.30776 -0.12678
# Poissons Ratio (z) = 0.30116 -0.08448
#
# Static dielectric constant tensor:
#      x y z
#    x 2.044180 0.000000 0.000000 
#    y 0.000000 1.890130 0.000000 
#    z 0.000000 0.000000 1.865500 
# 
# From -- ./inp_files/53880.got.cif
#   From: 2010.05.17/outbox.cif.g08.bks.cpg/sg66_27_cif.got.tgz:53880.got - 2010.06.03 17:51:23.
