data_PCOD9497590
_publ_section_title
;
Structure prediction by ZEFSAII (Michael W. Deem and Ramdas Pophale) SiO2 
 PCOD9497590
Probable space group: C C C M
;
_chemical_formula_sum "Si O2"
_cell_formula_units_Z 88
_cell_length_a 14.330868
_cell_length_b 22.891190
_cell_length_c 11.482394
_cell_angle_alpha 90.000000
_cell_angle_beta 90.000000
_cell_angle_gamma 90.000000
_cell_volume 3766.806497
_symmetry_space_group_name_H-M "C C C M"
_symmetry_group_IT_number 66
_symmetry_cell_setting 'orthorhombic'
loop_
_space_group_symop_operation_xyz
x,y,z
-x,-y,z
x,-y,1/2-z
-x,y,1/2-z
-x,-y,-z
x,y,-z
-x,y,1/2+z
x,-y,1/2+z
1/2+x,1/2+y,z
1/2-x,1/2-y,z
1/2+x,1/2-y,1/2-z
1/2-x,1/2+y,1/2-z
1/2-x,1/2-y,-z
1/2+x,1/2+y,-z
1/2-x,1/2+y,1/2+z
1/2+x,1/2-y,1/2+z
loop_
_atom_site_type_symbol
_atom_site_label
_atom_site_fract_x
_atom_site_fract_y
_atom_site_fract_z
Si Si1 0.435880 0.641443 0.637656
Si Si2 0.654404 0.785613 0.500000
Si Si3 0.109046 0.482691 0.000000
Si Si4 0.638813 0.761672 0.763026
Si Si5 0.244877 0.909493 0.000000
Si Si6 0.706969 0.431027 0.764726
Si Si7 0.102927 0.609527 0.701375
O O1 0.500000 0.623108 0.750000
O O2 0.463119 0.638248 0.500000
O O3 0.407670 0.707585 0.672134
O O4 0.343934 0.601612 0.660071
O O5 0.750000 0.750000 0.500000
O O6 0.608733 0.770428 0.625944
O O7 0.689497 0.852235 0.500000
O O8 0.186668 0.533275 0.000000
O O9 0.120203 0.439350 0.106592
O O10 0.000000 0.500000 0.000000
O O11 0.750000 0.750000 0.761585
O O12 0.616220 0.822530 0.826916
O O13 0.172832 0.911912 0.108596
O O14 0.702781 0.500000 0.750000
O O15 0.811885 0.407044 0.783594
O O16 0.000000 0.601513 0.750000
#
# Coordination Sequence:
#
# PCOD9497590 Si02
#       7
#    16   8   8  16   8  16  16
#     4  12  31  55  82 115 154 202 264 340 407 473
#     4  10  20  38  70 106 144 196 261 309 375 448
#     4  12  28  42  67 107 164 214 267 324 378 481
#     4  11  23  46  78 112 154 206 263 325 392 474
#     4  12  22  42  74 106 155 213 254 320 388 461
#     4  12  26  47  78 112 154 206 264 319 395 473
#     4  12  26  44  70 111 159 213 261 319 387 474
#
# _framework density 23.361965999999999
#
# number of rings (size 3 to 8) (size 9 to 14) (size 15 to 20)
#    0.000    0.364    5.455    2.727    6.364    0.727 
#    0.000    0.909    0.000    0.000    0.000    0.000 
#    0.000    0.000    0.000    0.000    0.000    0.000 
#
# Total GULP energy -245592.437319 kJ/mol
# GULP energy per Si atom -5581.646303 kJ/mol
# Density = 2.330879 g / cm^3
# Si number density = 23.361966 Si / 1000 Ang^3
#
#
#
# Elastic Constant Matrix: (Units=GPa)
#
#
# Indices 1 2 3 4 5 6 
#
# 1 84.1699 36.0339 44.4916 0.0000 0.0000 0.0000
# 2 36.0339 163.7024 42.9427 0.0000 0.0000 0.0000
# 3 44.4916 42.9427 137.2063 0.0000 0.0000 0.0000
# 4 0.0000 0.0000 0.0000 43.4991 0.0000 0.0000
# 5 0.0000 0.0000 0.0000 0.0000 24.4430 0.0000
# 6 0.0000 0.0000 0.0000 0.0000 0.0000 -6.7117
#
#
#
# Elastic Compliance Matrix: (Units=1/GPa)
#
#
# Indices 1 2 3 4 5 6 
#
# 1 0.015040 -0.002213 -0.004184 0.000000 0.000000 0.000000
# 2 -0.002213 0.006981 -0.001467 0.000000 0.000000 0.000000
# 3 -0.004184 -0.001467 0.009104 0.000000 0.000000 0.000000
# 4 0.000000 0.000000 0.000000 0.022989 0.000000 0.000000
# 5 0.000000 0.000000 0.000000 0.000000 0.040912 0.000000
# 6 0.000000 0.000000 0.000000 0.000000 0.000000 -0.148993
#
#
# Mechanical properties :
#
#
# Convention : Reuss Voigt Hill
#
# Bulk Modulus (GPa) = 64.95225 70.22388 67.58806
# Shear Modulus (GPa) = -151.02574 29.68677 -60.66949
#
# Velocity S-wave (km/s) = -8.04900 3.56860 -5.10154
# Velocity P-wave (km/s) = 7.64976 6.86325 2.38900
#
# Compressibility (1/GPa) = 0.01539592
#
# Stress axis : x y z
#
# Youngs Moduli (GPa) = 66.48969 143.25354 109.83751
#
# Poissons Ratio (x) = 0.31701 0.45960
# Poissons Ratio (y) = 0.14714 0.16116
# Poissons Ratio (z) = 0.27822 0.21018
#
# Static dielectric constant tensor:
#      x y z
#    x 2.887200 0.000000 0.000000 
#    y 0.000000 1.829440 0.000000 
#    z 0.000000 0.000000 2.002580 
# 
# From -- ./inp_files/16491.got.cif
#   From: 2010.05.17/outbox.cif.g08.bks.cpg/sg66_9_cif.got.tgz:16491.got - 2010.06.03 17:51:23.
