data_PCOD9497810
_publ_section_title
;
Structure prediction by ZEFSAII (Michael W. Deem and Ramdas Pophale) SiO2 
 PCOD9497810
Probable space group: C C C M
;
_chemical_formula_sum "Si O2"
_cell_formula_units_Z 88
_cell_length_a 8.485934
_cell_length_b 18.982581
_cell_length_c 25.441288
_cell_angle_alpha 90.000000
_cell_angle_beta 90.000000
_cell_angle_gamma 90.000000
_cell_volume 4098.208084
_symmetry_space_group_name_H-M "C C C M"
_symmetry_group_IT_number 66
_symmetry_cell_setting 'orthorhombic'
loop_
_space_group_symop_operation_xyz
x,y,z
-x,-y,z
x,-y,1/2-z
-x,y,1/2-z
-x,-y,-z
x,y,-z
-x,y,1/2+z
x,-y,1/2+z
1/2+x,1/2+y,z
1/2-x,1/2-y,z
1/2+x,1/2-y,1/2-z
1/2-x,1/2+y,1/2-z
1/2-x,1/2-y,-z
1/2+x,1/2+y,-z
1/2-x,1/2+y,1/2+z
1/2+x,1/2-y,1/2+z
loop_
_atom_site_type_symbol
_atom_site_label
_atom_site_fract_x
_atom_site_fract_y
_atom_site_fract_z
Si Si1 0.750000 0.250000 0.415849
Si Si2 0.581370 0.838874 0.844205
Si Si3 0.987558 0.255666 0.000000
Si Si4 0.093487 0.203778 0.300490
Si Si5 0.682364 0.025123 0.303674
Si Si6 0.248721 0.372944 0.500000
Si Si7 0.251632 0.092587 0.379956
O O1 0.719754 0.179502 0.383886
O O2 0.595387 0.256447 0.450134
O O3 0.520817 0.764381 0.823392
O O4 0.660725 0.891397 0.803202
O O5 0.429869 0.877101 0.870093
O O6 0.921975 0.334975 0.000000
O O7 0.859141 0.195390 0.000000
O O8 0.250000 0.250000 0.285920
O O9 0.145099 0.146884 0.344988
O O10 0.000000 0.174028 0.250000
O O11 0.500000 0.000000 0.303666
O O12 0.759843 0.000000 0.250000
O O13 0.756906 0.984444 0.353005
O O14 0.274250 0.408974 0.442971
#
# Coordination Sequence:
#
# PCOD9497810 Si02
#       7
#     8  16   8  16  16   8  16
#     4  11  20  36  58  94 122 154 220 265 320 364
#     4  10  21  35  59  94 124 163 205 271 316 382
#     4  10  22  34  60  87 125 171 200 269 318 376
#     4  10  23  37  61  99 129 162 217 276 327 378
#     4   9  20  37  60  87 128 167 211 260 327 381
#     4  11  20  40  61  88 129 170 214 255 323 395
#     4  10  21  39  63  92 127 168 212 259 319 387
#
# _framework density 21.472798999999998
#
# number of rings (size 3 to 8) (size 9 to 14) (size 15 to 20)
#    0.000    2.000    1.818    1.091   14.000    0.000 
#    0.000    5.909    0.000   10.364    0.000    0.000 
#    0.000    0.000    0.000    0.000    0.000    0.000 
#
# Total GULP energy -245326.764126 kJ/mol
# GULP energy per Si atom -5575.608276 kJ/mol
# Density = 2.142393 g / cm^3
# Si number density = 21.472799 Si / 1000 Ang^3
#
#
#
# Elastic Constant Matrix: (Units=GPa)
#
#
# Indices 1 2 3 4 5 6 
#
# 1 46.4532 21.8480 34.3858 0.0000 0.0000 0.0000
# 2 21.8480 66.9108 32.3719 0.0000 0.0000 0.0000
# 3 34.3858 32.3719 143.5079 0.0000 0.0000 0.0000
# 4 0.0000 0.0000 0.0000 30.7711 0.0000 0.0000
# 5 0.0000 0.0000 0.0000 0.0000 40.5880 0.0000
# 6 0.0000 0.0000 0.0000 0.0000 0.0000 11.6475
#
#
#
# Elastic Compliance Matrix: (Units=1/GPa)
#
#
# Indices 1 2 3 4 5 6 
#
# 1 0.028667 -0.006777 -0.005340 0.000000 0.000000 0.000000
# 2 -0.006777 0.018378 -0.002522 0.000000 0.000000 0.000000
# 3 -0.005340 -0.002522 0.008817 0.000000 0.000000 0.000000
# 4 0.000000 0.000000 0.000000 0.032498 0.000000 0.000000
# 5 0.000000 0.000000 0.000000 0.000000 0.024638 0.000000
# 6 0.000000 0.000000 0.000000 0.000000 0.000000 0.085855
#
#
# Mechanical properties :
#
#
# Convention : Reuss Voigt Hill
#
# Bulk Modulus (GPa) = 37.61638 48.23150 42.92394
# Shear Modulus (GPa) = 21.09766 27.81906 24.45836
#
# Velocity S-wave (km/s) = 3.13793 3.60328 3.37863
# Velocity P-wave (km/s) = 5.53941 6.31046 5.93746
#
# Compressibility (1/GPa) = 0.02658416
#
# Stress axis : x y z
#
# Youngs Moduli (GPa) = 34.88282 54.41226 113.42112
#
# Poissons Ratio (x) = 0.36875 0.60570
# Poissons Ratio (y) = 0.23640 0.28603
# Poissons Ratio (z) = 0.18628 0.13722
#
# Static dielectric constant tensor:
#      x y z
#    x 1.816520 0.000000 0.000000 
#    y 0.000000 1.799970 0.000000 
#    z 0.000000 0.000000 1.889280 
# 
# From -- ./inp_files/55512.got.cif
#   From: 2010.05.17/outbox.cif.g08.bks.cpg/sg66_28_cif.got.tgz:55512.got - 2010.06.03 17:51:23.
