data_PCOD9497358
_publ_section_title
;
Structure prediction by ZEFSAII (Michael W. Deem and Ramdas Pophale) SiO2 
 PCOD9497358
Probable space group: C C C M
;
_chemical_formula_sum "Si O2"
_cell_formula_units_Z 80
_cell_length_a 8.728208
_cell_length_b 18.684835
_cell_length_c 26.770949
_cell_angle_alpha 90.000000
_cell_angle_beta 90.000000
_cell_angle_gamma 90.000000
_cell_volume 4365.943600
_symmetry_space_group_name_H-M "C C C M"
_symmetry_group_IT_number 66
_symmetry_cell_setting 'orthorhombic'
loop_
_space_group_symop_operation_xyz
x,y,z
-x,-y,z
x,-y,1/2-z
-x,y,1/2-z
-x,-y,-z
x,y,-z
-x,y,1/2+z
x,-y,1/2+z
1/2+x,1/2+y,z
1/2-x,1/2-y,z
1/2+x,1/2-y,1/2-z
1/2-x,1/2+y,1/2-z
1/2-x,1/2-y,-z
1/2+x,1/2+y,-z
1/2-x,1/2+y,1/2+z
1/2+x,1/2-y,1/2+z
loop_
_atom_site_type_symbol
_atom_site_label
_atom_site_fract_x
_atom_site_fract_y
_atom_site_fract_z
Si Si1 0.700198 0.576784 0.402236
Si Si2 0.820125 0.171370 0.696385
Si Si3 0.159428 0.907896 0.402655
Si Si4 0.296628 0.833319 0.500000
Si Si5 0.690702 0.669024 0.306977
Si Si6 0.590025 0.921392 0.500000
O O1 0.692660 0.491504 0.396437
O O2 0.523735 0.600871 0.409580
O O3 0.748005 0.618678 0.351854
O O4 0.806027 0.586515 0.450589
O O5 0.750000 0.250000 0.692829
O O6 0.776640 0.128052 0.647399
O O7 0.769402 0.142837 0.750828
O O8 0.005353 0.172643 0.693799
O O9 0.232298 0.872359 0.450998
O O10 0.250000 0.750000 0.500000
O O11 0.474033 0.854798 0.500000
O O12 0.750000 0.750000 0.313377
O O13 0.500000 0.000000 0.500000
#
# Coordination Sequence:
#
# PCOD9497358 Si02
#       6
#    16  16  16   8  16   8
#     4  10  21  37  60  82 113 153 189 237 290 348
#     4   9  18  34  56  82 115 150 187 236 287 337
#     4  10  20  37  58  85 115 151 193 234 289 346
#     4  12  25  39  59  87 115 150 193 240 285 351
#     4   9  19  35  55  83 114 150 190 233 286 344
#     4  12  23  41  59  83 114 152 188 243 300 347
#
# _framework density 18.323646
#
# number of rings (size 3 to 8) (size 9 to 14) (size 15 to 20)
#    0.000    2.000    2.000    1.200    0.000    7.200 
#    0.000    5.500    0.000    0.000    0.000    0.000 
#    0.000    0.000    0.000    0.000    0.000    0.000 
#
# Total GULP energy -222929.884447 kJ/mol
# GULP energy per Si atom -5573.247111 kJ/mol
# Density = 1.828194 g / cm^3
# Si number density = 18.323646 Si / 1000 Ang^3
#
#
#
# Elastic Constant Matrix: (Units=GPa)
#
#
# Indices 1 2 3 4 5 6 
#
# 1 37.3005 33.8134 65.5785 0.0000 0.0000 0.0000
# 2 33.8134 61.9927 77.1264 0.0000 0.0000 0.0000
# 3 65.5785 77.1264 220.0676 0.0000 0.0000 0.0000
# 4 0.0000 0.0000 0.0000 33.2318 0.0000 0.0000
# 5 0.0000 0.0000 0.0000 0.0000 -0.2554 0.0000
# 6 0.0000 0.0000 0.0000 0.0000 0.0000 25.6468
#
#
#
# Elastic Compliance Matrix: (Units=1/GPa)
#
#
# Indices 1 2 3 4 5 6 
#
# 1 0.069427 -0.021506 -0.013151 0.000000 0.000000 0.000000
# 2 -0.021506 0.035264 -0.005950 0.000000 0.000000 0.000000
# 3 -0.013151 -0.005950 0.010548 0.000000 0.000000 0.000000
# 4 0.000000 0.000000 0.000000 0.030092 0.000000 0.000000
# 5 0.000000 0.000000 0.000000 0.000000 -3.915227 0.000000
# 6 0.000000 0.000000 0.000000 0.000000 0.000000 0.038991
#
#
# Mechanical properties :
#
#
# Convention : Reuss Voigt Hill
#
# Bulk Modulus (GPa) = 29.39149 74.71082 52.05116
# Shear Modulus (GPa) = -1.37425 21.24746 9.93661
#
# Velocity S-wave (km/s) = -0.86696 3.40893 2.33122
# Velocity P-wave (km/s) = 3.88238 7.50705 5.97615
#
# Compressibility (1/GPa) = 0.03402345
#
# Stress axis : x y z
#
# Youngs Moduli (GPa) = 14.40366 28.35742 94.80104
#
# Poissons Ratio (x) = 0.60987 1.24677
# Poissons Ratio (y) = 0.30977 0.56408
# Poissons Ratio (z) = 0.18943 0.16873
#
# Static dielectric constant tensor:
#      x y z
#    x 1.644710 0.000000 0.000000 
#    y 0.000000 1.574630 0.000000 
#    z 0.000000 0.000000 1.649080 
# 
# From -- ./inp_files/62452.got.cif
#   From: 2010.05.17/outbox.cif.g08.bks.cpg/sg66_32_cif.got.tgz:62452.got - 2010.06.03 17:51:23.
