data_PCOD9497363
_publ_section_title
;
Structure prediction by ZEFSAII (Michael W. Deem and Ramdas Pophale) SiO2 
 PCOD9497363
Probable space group: C C C M
;
_chemical_formula_sum "Si O2"
_cell_formula_units_Z 112
_cell_length_a 24.735740
_cell_length_b 12.843856
_cell_length_c 15.196453
_cell_angle_alpha 90.000000
_cell_angle_beta 90.000000
_cell_angle_gamma 90.000000
_cell_volume 4827.947806
_symmetry_space_group_name_H-M "C C C M"
_symmetry_group_IT_number 66
_symmetry_cell_setting 'orthorhombic'
loop_
_space_group_symop_operation_xyz
x,y,z
-x,-y,z
x,-y,1/2-z
-x,y,1/2-z
-x,-y,-z
x,y,-z
-x,y,1/2+z
x,-y,1/2+z
1/2+x,1/2+y,z
1/2-x,1/2-y,z
1/2+x,1/2-y,1/2-z
1/2-x,1/2+y,1/2-z
1/2-x,1/2-y,-z
1/2+x,1/2+y,-z
1/2-x,1/2+y,1/2+z
1/2+x,1/2-y,1/2+z
loop_
_atom_site_type_symbol
_atom_site_label
_atom_site_fract_x
_atom_site_fract_y
_atom_site_fract_z
Si Si1 0.695176 0.459287 0.348065
Si Si2 0.631055 0.830994 0.599736
Si Si3 0.814870 0.257414 0.270648
Si Si4 0.504498 0.115000 0.102368
Si Si5 0.414512 0.521760 0.147468
Si Si6 0.815215 0.443099 0.402740
Si Si7 0.490357 0.668947 0.396954
O O1 0.709520 0.500000 0.250000
O O2 0.673365 0.342707 0.330745
O O3 0.646103 0.524957 0.388573
O O4 0.750446 0.456481 0.400425
O O5 0.643492 0.794108 0.500000
O O6 0.653637 0.761223 0.678853
O O7 0.567163 0.851928 0.604233
O O8 0.658582 0.944518 0.611390
O O9 0.750000 0.250000 0.253770
O O10 0.827765 0.360379 0.326868
O O11 0.475426 0.217695 0.141457
O O12 0.500000 0.000000 0.142435
O O13 0.485875 0.103405 0.000000
O O14 0.407412 0.500000 0.250000
O O15 0.446627 0.421700 0.111936
O O16 0.453931 0.619552 0.138173
O O17 0.831964 0.405267 0.500000
O O18 0.499629 0.685381 0.500000
#
# Coordination Sequence:
#
# PCOD9497363 Si02
#       7
#    16  16  16  16  16  16  16
#     4  10  22  37  57  86 118 162 199 252 309 367
#     4  10  21  38  63  91 124 163 201 253 312 368
#     4  10  21  38  61  85 123 162 201 252 308 373
#     4   9  20  38  61  89 121 158 201 253 311 363
#     4  10  21  36  58  83 118 160 195 245 308 362
#     4  10  21  39  62  88 120 159 204 254 312 371
#     4  10  20  37  59  83 115 155 200 253 304 365
#
# _framework density 23.198264000000002
#
# number of rings (size 3 to 8) (size 9 to 14) (size 15 to 20)
#    0.000    2.143    0.000    3.857    4.000    5.143 
#    0.000    2.143    0.000    0.000    0.000    0.000 
#    0.000    0.000    0.000    0.000    0.000    0.000 
#
# Total GULP energy -312964.640377 kJ/mol
# GULP energy per Si atom -5588.654292 kJ/mol
# Density = 2.314546 g / cm^3
# Si number density = 23.198264 Si / 1000 Ang^3
#
#
#
# Elastic Constant Matrix: (Units=GPa)
#
#
# Indices 1 2 3 4 5 6 
#
# 1 44.9179 13.2001 9.1115 0.0000 0.0000 0.0000
# 2 13.2001 124.6513 -0.9437 0.0000 0.0000 0.0000
# 3 9.1115 -0.9437 60.6875 0.0000 0.0000 0.0000
# 4 0.0000 0.0000 0.0000 15.0015 0.0000 0.0000
# 5 0.0000 0.0000 0.0000 0.0000 35.1360 0.0000
# 6 0.0000 0.0000 0.0000 0.0000 0.0000 12.2415
#
#
#
# Elastic Compliance Matrix: (Units=1/GPa)
#
#
# Indices 1 2 3 4 5 6 
#
# 1 0.023741 -0.002541 -0.003604 0.000000 0.000000 0.000000
# 2 -0.002541 0.008295 0.000511 0.000000 0.000000 0.000000
# 3 -0.003604 0.000511 0.017027 0.000000 0.000000 0.000000
# 4 0.000000 0.000000 0.000000 0.066660 0.000000 0.000000
# 5 0.000000 0.000000 0.000000 0.000000 0.028461 0.000000
# 6 0.000000 0.000000 0.000000 0.000000 0.000000 0.081690
#
#
# Mechanical properties :
#
#
# Convention : Reuss Voigt Hill
#
# Bulk Modulus (GPa) = 26.45953 30.33251 28.39602
# Shear Modulus (GPa) = 20.02078 26.40171 23.21125
#
# Velocity S-wave (km/s) = 2.94092 3.37722 3.16659
# Velocity P-wave (km/s) = 4.79193 5.32083 5.06329
#
# Compressibility (1/GPa) = 0.03779357
#
# Stress axis : x y z
#
# Youngs Moduli (GPa) = 42.12179 120.54927 58.73067
#
# Poissons Ratio (x) = 0.30636 0.21166
# Poissons Ratio (y) = 0.10705 -0.02998
# Poissons Ratio (z) = 0.15180 -0.06155
#
# Static dielectric constant tensor:
#      x y z
#    x 1.897980 0.000000 0.000000 
#    y 0.000000 1.973680 0.000000 
#    z 0.000000 0.000000 1.852810 
# 
# From -- ./inp_files/33849.got.cif
#   From: 2010.05.17/outbox.cif.g08.bks.cpg/sg66_17_cif.got.tgz:33849.got - 2010.06.03 17:51:23.
