data_PCOD9497233
_publ_section_title
;
Structure prediction by ZEFSAII (Michael W. Deem and Ramdas Pophale) SiO2 
 PCOD9497233
Probable space group: C C C M
;
_chemical_formula_sum "Si O2"
_cell_formula_units_Z 96
_cell_length_a 21.906018
_cell_length_b 14.007459
_cell_length_c 14.367141
_cell_angle_alpha 90.000000
_cell_angle_beta 90.000000
_cell_angle_gamma 90.000000
_cell_volume 4408.523439
_symmetry_space_group_name_H-M "C C C M"
_symmetry_group_IT_number 66
_symmetry_cell_setting 'orthorhombic'
loop_
_space_group_symop_operation_xyz
x,y,z
-x,-y,z
x,-y,1/2-z
-x,y,1/2-z
-x,-y,-z
x,y,-z
-x,y,1/2+z
x,-y,1/2+z
1/2+x,1/2+y,z
1/2-x,1/2-y,z
1/2+x,1/2-y,1/2-z
1/2-x,1/2+y,1/2-z
1/2-x,1/2-y,-z
1/2+x,1/2+y,-z
1/2-x,1/2+y,1/2+z
1/2+x,1/2-y,1/2+z
loop_
_atom_site_type_symbol
_atom_site_label
_atom_site_fract_x
_atom_site_fract_y
_atom_site_fract_z
Si Si1 0.804476 0.567969 0.606594
Si Si2 0.819061 0.015263 0.892309
Si Si3 0.432382 0.029911 0.857257
Si Si4 0.054426 0.072750 0.112923
Si Si5 0.145000 0.236592 0.610220
Si Si6 0.061517 0.727026 0.289326
O O1 0.785717 0.575347 0.500000
O O2 0.749415 0.504544 0.647647
O O3 0.872582 0.525816 0.607586
O O4 0.808784 0.677984 0.636413
O O5 0.831472 0.128750 0.888418
O O6 0.879199 0.964105 0.853221
O O7 0.819570 0.982506 0.000000
O O8 0.416081 0.142842 0.857614
O O9 0.500000 0.000000 0.894728
O O10 0.432590 0.000000 0.750000
O O11 0.046379 0.177067 0.155439
O O12 0.053228 0.077261 0.000000
O O13 0.000000 0.000000 0.139211
O O14 0.125260 0.252750 0.500000
O O15 0.097695 0.247349 0.695197
O O16 0.000000 0.681929 0.250000
#
# Coordination Sequence:
#
# PCOD9497233 Si02
#       6
#    16  16  16  16  16  16
#     4  10  20  37  62  88 118 160 204 251 308 366
#     4   9  19  38  60  86 124 159 197 254 305 355
#     4  11  21  41  60  82 122 160 194 257 311 358
#     4  10  23  43  65  91 125 164 206 255 311 370
#     4  10  20  36  59  89 121 159 205 253 302 361
#     4  12  23  38  63  89 121 160 205 253 309 368
#
# _framework density 21.775998000000001
#
# number of rings (size 3 to 8) (size 9 to 14) (size 15 to 20)
#    0.000    1.667    3.333    1.500    0.000    7.333 
#    3.000    0.833    0.000    4.000    0.000    0.000 
#    0.000    0.000    0.000    0.000    0.000    0.000 
#
# Total GULP energy -267282.091279 kJ/mol
# GULP energy per Si atom -5568.376902 kJ/mol
# Density = 2.172643 g / cm^3
# Si number density = 21.775998 Si / 1000 Ang^3
#
#
#
# Elastic Constant Matrix: (Units=GPa)
#
#
# Indices 1 2 3 4 5 6 
#
# 1 103.9295 18.5211 6.6874 0.0000 0.0000 0.0000
# 2 18.5211 119.9366 3.8349 0.0000 0.0000 0.0000
# 3 6.6874 3.8349 74.1115 0.0000 0.0000 0.0000
# 4 0.0000 0.0000 0.0000 -59.5183 0.0000 0.0000
# 5 0.0000 0.0000 0.0000 0.0000 32.7513 0.0000
# 6 0.0000 0.0000 0.0000 0.0000 0.0000 29.3875
#
#
#
# Elastic Compliance Matrix: (Units=1/GPa)
#
#
# Indices 1 2 3 4 5 6 
#
# 1 0.009944 -0.001509 -0.000819 0.000000 0.000000 0.000000
# 2 -0.001509 0.008581 -0.000308 0.000000 0.000000 0.000000
# 3 -0.000819 -0.000308 0.013583 0.000000 0.000000 0.000000
# 4 0.000000 0.000000 0.000000 -0.016802 0.000000 0.000000
# 5 0.000000 0.000000 0.000000 0.000000 0.030533 0.000000
# 6 0.000000 0.000000 0.000000 0.000000 0.000000 0.034028
#
#
# Mechanical properties :
#
#
# Convention : Reuss Voigt Hill
#
# Bulk Modulus (GPa) = 37.26522 39.56270 38.41396
# Shear Modulus (GPa) = 53.14376 18.45305 35.79841
#
# Velocity S-wave (km/s) = 4.94548 2.91418 4.05895
# Velocity P-wave (km/s) = 7.05411 5.43422 6.29647
#
# Compressibility (1/GPa) = 0.02683467
#
# Stress axis : x y z
#
# Youngs Moduli (GPa) = 100.56729 116.54115 73.62134
#
# Poissons Ratio (x) = 0.17590 0.06031
# Poissons Ratio (y) = 0.15179 0.02266
# Poissons Ratio (z) = 0.08238 0.03587
#
# Static dielectric constant tensor:
#      x y z
#    x 1.964780 0.000000 0.000000 
#    y 0.000000 1.791070 0.000000 
#    z 0.000000 0.000000 1.791320 
# 
# From -- ./inp_files/31161.got.cif
#   From: 2010.05.17/outbox.cif.g08.bks.cpg/sg66_16_cif.got.tgz:31161.got - 2010.06.03 17:51:23.
