data_PCOD9497674
_publ_section_title
;
Structure prediction by ZEFSAII (Michael W. Deem and Ramdas Pophale) SiO2 
 PCOD9497674
Probable space group: C C C M
;
_chemical_formula_sum "Si O2"
_cell_formula_units_Z 60
_cell_length_a 5.558900
_cell_length_b 30.754634
_cell_length_c 16.622373
_cell_angle_alpha 90.000000
_cell_angle_beta 90.000000
_cell_angle_gamma 90.000000
_cell_volume 2841.793051
_symmetry_space_group_name_H-M "C C C M"
_symmetry_group_IT_number 66
_symmetry_cell_setting 'orthorhombic'
loop_
_space_group_symop_operation_xyz
x,y,z
-x,-y,z
x,-y,1/2-z
-x,y,1/2-z
-x,-y,-z
x,y,-z
-x,y,1/2+z
x,-y,1/2+z
1/2+x,1/2+y,z
1/2-x,1/2-y,z
1/2+x,1/2-y,1/2-z
1/2-x,1/2+y,1/2-z
1/2-x,1/2-y,-z
1/2+x,1/2+y,-z
1/2-x,1/2+y,1/2+z
1/2+x,1/2-y,1/2+z
loop_
_atom_site_type_symbol
_atom_site_label
_atom_site_fract_x
_atom_site_fract_y
_atom_site_fract_z
Si Si1 0.629615 0.156888 0.837224
Si Si2 0.500000 0.000000 0.250000
Si Si3 0.568886 0.125812 0.500000
Si Si4 0.750000 0.750000 0.299990
Si Si5 0.559143 0.426947 0.000000
Si Si6 0.350610 0.437128 0.330054
O O1 0.500000 0.155811 0.750000
O O2 0.462322 0.150945 0.915494
O O3 0.752158 0.203919 0.845546
O O4 0.799586 0.114507 0.835672
O O5 0.621828 0.966237 0.311689
O O6 0.333755 0.093170 0.500000
O O7 0.833874 0.105818 0.500000
O O8 0.500000 0.750151 0.250000
O O9 0.536221 0.450326 0.085413
O O10 0.500000 0.445233 0.250000
#
# Coordination Sequence:
#
# PCOD9497674 Si02
#       6
#    16   4   8   8   8  16
#     4  10  20  40  68  91 136 174 218 280 331 393
#     4  12  26  42  64 106 120 182 230 274 338 414
#     4  10  22  39  64 104 124 179 229 256 344 398
#     4  10  22  37  62 101 130 176 228 261 338 401
#     4  10  24  41  71  96 133 177 223 277 336 401
#     4  11  23  43  68  94 135 174 227 277 339 399
#
# _framework density 21.113429
#
# number of rings (size 3 to 8) (size 9 to 14) (size 15 to 20)
#    0.000    1.600    1.333    2.800    3.733    7.467 
#    0.000    2.667    0.000   20.000    0.000    0.000 
#    0.000    0.000    0.000    0.000    0.000    0.000 
#
# Total GULP energy -167103.163369 kJ/mol
# GULP energy per Si atom -5570.105446 kJ/mol
# Density = 2.106537 g / cm^3
# Si number density = 21.113429 Si / 1000 Ang^3
#
#
#
# Elastic Constant Matrix: (Units=GPa)
#
#
# Indices 1 2 3 4 5 6 
#
# 1 67.3707 29.0373 21.2119 0.0000 0.0000 0.0000
# 2 29.0373 141.8345 21.3565 0.0000 0.0000 0.0000
# 3 21.2119 21.3565 195.3728 0.0000 0.0000 0.0000
# 4 0.0000 0.0000 0.0000 72.1634 0.0000 0.0000
# 5 0.0000 0.0000 0.0000 0.0000 19.7833 0.0000
# 6 0.0000 0.0000 0.0000 0.0000 0.0000 -49.7938
#
#
#
# Elastic Compliance Matrix: (Units=1/GPa)
#
#
# Indices 1 2 3 4 5 6 
#
# 1 0.016681 -0.003195 -0.001462 0.000000 0.000000 0.000000
# 2 -0.003195 0.007780 -0.000504 0.000000 0.000000 0.000000
# 3 -0.001462 -0.000504 0.005332 0.000000 0.000000 0.000000
# 4 0.000000 0.000000 0.000000 0.013857 0.000000 0.000000
# 5 0.000000 0.000000 0.000000 0.000000 0.050548 0.000000
# 6 0.000000 0.000000 0.000000 0.000000 0.000000 -0.020083
#
#
# Mechanical properties :
#
#
# Convention : Reuss Voigt Hill
#
# Bulk Modulus (GPa) = 51.35430 60.86548 56.10989
# Shear Modulus (GPa) = 54.98940 30.62874 42.80907
#
# Velocity S-wave (km/s) = 5.10894 3.81291 4.50775
# Velocity P-wave (km/s) = 7.69270 6.94800 7.32981
#
# Compressibility (1/GPa) = 0.01947256
#
# Stress axis : x y z
#
# Youngs Moduli (GPa) = 59.95019 128.52852 187.54057
#
# Poissons Ratio (x) = 0.41063 0.27415
# Poissons Ratio (y) = 0.19153 0.09445
# Poissons Ratio (z) = 0.08763 0.06473
#
# Static dielectric constant tensor:
#      x y z
#    x 1.811920 0.000000 0.000000 
#    y 0.000000 1.773040 0.000000 
#    z 0.000000 0.000000 1.798920 
# 
# From -- ./inp_files/35002.got.cif
#   From: 2010.05.17/outbox.cif.g08.bks.cpg/sg66_18_cif.got.tgz:35002.got - 2010.06.03 17:51:23.
