data_PCOD9497634
_publ_section_title
;
Structure prediction by ZEFSAII (Michael W. Deem and Ramdas Pophale) SiO2 
 PCOD9497634
Probable space group: C C C M
;
_chemical_formula_sum "Si O2"
_cell_formula_units_Z 112
_cell_length_a 14.511406
_cell_length_b 22.803480
_cell_length_c 14.532311
_cell_angle_alpha 90.000000
_cell_angle_beta 90.000000
_cell_angle_gamma 90.000000
_cell_volume 4808.895120
_symmetry_space_group_name_H-M "C C C M"
_symmetry_group_IT_number 66
_symmetry_cell_setting 'orthorhombic'
loop_
_space_group_symop_operation_xyz
x,y,z
-x,-y,z
x,-y,1/2-z
-x,y,1/2-z
-x,-y,-z
x,y,-z
-x,y,1/2+z
x,-y,1/2+z
1/2+x,1/2+y,z
1/2-x,1/2-y,z
1/2+x,1/2-y,1/2-z
1/2-x,1/2+y,1/2-z
1/2-x,1/2-y,-z
1/2+x,1/2+y,-z
1/2-x,1/2+y,1/2+z
1/2+x,1/2-y,1/2+z
loop_
_atom_site_type_symbol
_atom_site_label
_atom_site_fract_x
_atom_site_fract_y
_atom_site_fract_z
Si Si1 0.393551 0.239205 0.731510
Si Si2 0.309963 0.454890 0.611382
Si Si3 0.647699 0.313245 0.607434
Si Si4 0.936384 0.850733 0.391367
Si Si5 0.151332 0.363414 0.603348
Si Si6 0.738066 0.078297 0.610646
Si Si7 0.022619 0.435155 0.142407
O O1 0.500000 0.221790 0.750000
O O2 0.353681 0.256062 0.830079
O O3 0.395474 0.298309 0.669816
O O4 0.344115 0.188860 0.675133
O O5 0.316887 0.460022 0.500000
O O6 0.395692 0.413657 0.638973
O O7 0.218509 0.416570 0.630552
O O8 0.291690 0.520587 0.646264
O O9 0.662620 0.299985 0.500000
O O10 0.546281 0.343218 0.616042
O O11 0.718091 0.361573 0.643586
O O12 0.913334 0.842842 0.500000
O O13 0.176898 0.344329 0.500000
O O14 0.047321 0.388081 0.601162
O O15 0.749396 0.078601 0.500000
O O16 0.630055 0.075858 0.629904
O O17 0.000000 0.500000 0.105665
O O18 0.000000 0.435205 0.250000
#
# Coordination Sequence:
#
# PCOD9497634 Si02
#       7
#    16  16  16  16  16  16  16
#     4  10  21  39  60  87 124 169 224 276 325 390
#     4   9  19  34  59  96 130 162 208 260 327 399
#     4   9  20  39  64  91 127 174 221 272 330 388
#     4   9  18  36  60  90 127 167 211 267 327 390
#     4  11  22  38  62  92 127 171 216 268 334 396
#     4  10  20  39  66  96 130 171 218 269 328 401
#     4  11  23  39  60  93 134 173 217 269 328 398
#
# _framework density 23.290172999999999
#
# number of rings (size 3 to 8) (size 9 to 14) (size 15 to 20)
#    0.000    2.143    1.429    1.286    0.000    3.429 
#    0.000    7.857    0.000    5.143    0.000   25.000 
#    0.000    2.286    0.000    0.000    0.000    0.000 
#
# Total GULP energy -313496.295975 kJ/mol
# GULP energy per Si atom -5598.148142 kJ/mol
# Density = 2.323716 g / cm^3
# Si number density = 23.290173 Si / 1000 Ang^3
#
#
#
# Elastic Constant Matrix: (Units=GPa)
#
#
# Indices 1 2 3 4 5 6 
#
# 1 77.4177 35.5022 14.0290 0.0000 0.0000 0.0000
# 2 35.5022 114.0097 48.9676 0.0000 0.0000 0.0000
# 3 14.0290 48.9676 92.2210 0.0000 0.0000 0.0000
# 4 0.0000 0.0000 0.0000 56.7550 0.0000 0.0000
# 5 0.0000 0.0000 0.0000 0.0000 18.2640 0.0000
# 6 0.0000 0.0000 0.0000 0.0000 0.0000 29.5292
#
#
#
# Elastic Compliance Matrix: (Units=1/GPa)
#
#
# Indices 1 2 3 4 5 6 
#
# 1 0.015074 -0.004805 0.000258 0.000000 0.000000 0.000000
# 2 -0.004805 0.012894 -0.006116 0.000000 0.000000 0.000000
# 3 0.000258 -0.006116 0.014051 0.000000 0.000000 0.000000
# 4 0.000000 0.000000 0.000000 0.017620 0.000000 0.000000
# 5 0.000000 0.000000 0.000000 0.000000 0.054752 0.000000
# 6 0.000000 0.000000 0.000000 0.000000 0.000000 0.033865
#
#
# Mechanical properties :
#
#
# Convention : Reuss Voigt Hill
#
# Bulk Modulus (GPa) = 48.32135 53.40512 50.86324
# Shear Modulus (GPa) = 28.33210 33.25295 30.79252
#
# Velocity S-wave (km/s) = 3.49160 3.78268 3.64005
# Velocity P-wave (km/s) = 6.08667 6.48524 6.28911
#
# Compressibility (1/GPa) = 0.02069479
#
# Stress axis : x y z
#
# Youngs Moduli (GPa) = 66.34156 77.55538 71.16689
#
# Poissons Ratio (x) = 0.37263 -0.01837
# Poissons Ratio (y) = 0.31875 0.43523
# Poissons Ratio (z) = -0.01713 0.47429
#
# Static dielectric constant tensor:
#      x y z
#    x 1.800220 0.000000 0.000000 
#    y 0.000000 1.840410 0.000000 
#    z 0.000000 0.000000 1.903070 
# 
# From -- ./inp_files/28679.got.cif
#   From: 2010.05.17/outbox.cif.g08.bks.cpg/sg66_15_cif.got.tgz:28679.got - 2010.06.03 17:51:23.
