data_PCOD9497749
_publ_section_title
;
Structure prediction by ZEFSAII (Michael W. Deem and Ramdas Pophale) SiO2 
 PCOD9497749
Probable space group: C C C M
;
_chemical_formula_sum "Si O2"
_cell_formula_units_Z 116
_cell_length_a 26.719639
_cell_length_b 27.069781
_cell_length_c 9.097790
_cell_angle_alpha 90.000000
_cell_angle_beta 90.000000
_cell_angle_gamma 90.000000
_cell_volume 6580.383981
_symmetry_space_group_name_H-M "C C C M"
_symmetry_group_IT_number 66
_symmetry_cell_setting 'orthorhombic'
loop_
_space_group_symop_operation_xyz
x,y,z
-x,-y,z
x,-y,1/2-z
-x,y,1/2-z
-x,-y,-z
x,y,-z
-x,y,1/2+z
x,-y,1/2+z
1/2+x,1/2+y,z
1/2-x,1/2-y,z
1/2+x,1/2-y,1/2-z
1/2-x,1/2+y,1/2-z
1/2-x,1/2-y,-z
1/2+x,1/2+y,-z
1/2-x,1/2+y,1/2+z
1/2+x,1/2-y,1/2+z
loop_
_atom_site_type_symbol
_atom_site_label
_atom_site_fract_x
_atom_site_fract_y
_atom_site_fract_z
Si Si1 0.224795 0.682263 0.165937
Si Si2 0.053153 0.679649 0.324208
Si Si3 0.808174 0.428769 0.168711
Si Si4 0.205323 0.049096 0.825104
Si Si5 0.824212 0.158159 0.325835
Si Si6 0.419066 0.921370 0.832270
Si Si7 0.131631 0.247528 0.327124
Si Si8 0.500000 0.000000 0.750000
O O1 0.194304 0.630934 0.170931
O O2 0.268839 0.677580 0.282537
O O3 0.185793 0.725943 0.187803
O O4 0.246603 0.685933 0.000000
O O5 0.050409 0.681476 0.500000
O O6 0.067449 0.624263 0.271970
O O7 0.093161 0.718547 0.261916
O O8 0.000000 0.690765 0.250000
O O9 0.762836 0.445734 0.270505
O O10 0.864575 0.442455 0.210669
O O11 0.798380 0.444793 0.000000
O O12 0.177670 0.100222 0.783460
O O13 0.184337 0.000000 0.750000
O O14 0.204337 0.044796 0.000000
O O15 0.832006 0.162185 0.500000
O O16 0.862468 0.192892 0.238955
O O17 0.461974 0.962743 0.830698
O O18 0.413936 0.902480 0.000000
O O19 0.119180 0.246993 0.500000
#
# Coordination Sequence:
#
# PCOD9497749 Si02
#       8
#    16  16  16  16  16  16  16   4
#     4   9  17  31  51  75 104 141 176 215 267 327
#     4  12  25  41  62  82 106 140 181 229 283 339
#     4   9  18  34  53  72 100 136 177 225 275 331
#     4  10  21  36  53  76 107 144 184 224 267 319
#     4  10  21  34  50  79 113 142 179 224 267 323
#     4  11  23  41  57  76 103 135 180 236 293 343
#     4  11  21  36  57  81 109 142 179 220 273 333
#     4  12  26  36  60  82 102 136 186 248 300 340
#
# _framework density 17.628150999999999
#
# number of rings (size 3 to 8) (size 9 to 14) (size 15 to 20)
#    0.000    1.655    2.069    3.103    0.966    5.517 
#    0.000    0.000    0.000    0.000    0.000    0.000 
#    0.000    0.552    0.000    5.793    0.000    3.172 
#
# Total GULP energy -323844.088642 kJ/mol
# GULP energy per Si atom -5583.518770 kJ/mol
# Density = 1.758803 g / cm^3
# Si number density = 17.628151 Si / 1000 Ang^3
#
#
#
# Elastic Constant Matrix: (Units=GPa)
#
#
# Indices 1 2 3 4 5 6 
#
# 1 40.2832 36.0291 29.5943 0.0000 0.0000 0.0000
# 2 36.0291 133.8690 63.3843 0.0000 0.0000 0.0000
# 3 29.5943 63.3843 99.4126 0.0000 0.0000 0.0000
# 4 0.0000 0.0000 0.0000 -500.4923 0.0000 0.0000
# 5 0.0000 0.0000 0.0000 0.0000 21.7310 0.0000
# 6 0.0000 0.0000 0.0000 0.0000 0.0000 23.7562
#
#
#
# Elastic Compliance Matrix: (Units=1/GPa)
#
#
# Indices 1 2 3 4 5 6 
#
# 1 0.035308 -0.006483 -0.006377 0.000000 0.000000 0.000000
# 2 -0.006483 0.011891 -0.005651 0.000000 0.000000 0.000000
# 3 -0.006377 -0.005651 0.015561 0.000000 0.000000 0.000000
# 4 0.000000 0.000000 0.000000 -0.001998 0.000000 0.000000
# 5 0.000000 0.000000 0.000000 0.000000 0.046017 0.000000
# 6 0.000000 0.000000 0.000000 0.000000 0.000000 0.042094
#
#
# Mechanical properties :
#
#
# Convention : Reuss Voigt Hill
#
# Bulk Modulus (GPa) = 38.85651 59.06448 48.96050
# Shear Modulus (GPa) = 25.71025 -81.36389 -27.82682
#
# Velocity S-wave (km/s) = 3.82314 -6.80117 -3.97740
# Velocity P-wave (km/s) = 6.44816 5.30056 2.59642
#
# Compressibility (1/GPa) = 0.02573571
#
# Stress axis : x y z
#
# Youngs Moduli (GPa) = 28.32234 84.09982 64.26411
#
# Poissons Ratio (x) = 0.54523 0.40983
# Poissons Ratio (y) = 0.18362 0.36318
# Poissons Ratio (z) = 0.18062 0.47528
#
# Static dielectric constant tensor:
#      x y z
#    x 1.593180 0.000000 0.000000 
#    y 0.000000 1.647760 0.000000 
#    z 0.000000 0.000000 1.602860 
# 
# From -- ./inp_files/9409.got.cif
#   From: 2010.05.17/outbox.cif.g08.bks.cpg/sg66_5_cif.got.tgz:9409.got - 2010.06.03 17:51:23.
