data_PCOD9497216
_publ_section_title
;
Structure prediction by ZEFSAII (Michael W. Deem and Ramdas Pophale) SiO2 
 PCOD9497216
Probable space group: C C C M
;
_chemical_formula_sum "Si O2"
_cell_formula_units_Z 52
_cell_length_a 30.289630
_cell_length_b 10.559146
_cell_length_c 8.946599
_cell_angle_alpha 90.000000
_cell_angle_beta 90.000000
_cell_angle_gamma 90.000000
_cell_volume 2861.414247
_symmetry_space_group_name_H-M "C C C M"
_symmetry_group_IT_number 66
_symmetry_cell_setting 'orthorhombic'
loop_
_space_group_symop_operation_xyz
x,y,z
-x,-y,z
x,-y,1/2-z
-x,y,1/2-z
-x,-y,-z
x,y,-z
-x,y,1/2+z
x,-y,1/2+z
1/2+x,1/2+y,z
1/2-x,1/2-y,z
1/2+x,1/2-y,1/2-z
1/2-x,1/2+y,1/2-z
1/2-x,1/2-y,-z
1/2+x,1/2+y,-z
1/2-x,1/2+y,1/2+z
1/2+x,1/2-y,1/2+z
loop_
_atom_site_type_symbol
_atom_site_label
_atom_site_fract_x
_atom_site_fract_y
_atom_site_fract_z
Si Si1 0.877543 0.131655 0.178684
Si Si2 0.500000 0.000000 0.250000
Si Si3 0.780741 0.128729 0.678205
Si Si4 0.413404 0.123844 0.168139
O O1 0.827902 0.148224 0.242353
O O2 0.904777 0.251838 0.236156
O O3 0.894141 0.000000 0.250000
O O4 0.877188 0.123922 0.000000
O O5 0.534552 0.911282 0.163582
O O6 0.787185 0.111580 0.500000
O O7 0.750000 0.250000 0.701899
O O8 0.761686 0.000000 0.750000
O O9 0.393220 0.000000 0.250000
O O10 0.396412 0.139183 0.000000
#
# Coordination Sequence:
#
# PCOD9497216 Si02
#       4
#    16   4  16  16
#     4  11  22  37  58  83 115 152 190 236 287 339
#     4   8  22  36  64  84 118 148 188 236 290 336
#     4  10  21  37  57  81 112 148 189 236 284 338
#     4  10  20  36  59  85 114 147 187 231 282 338
#
# _framework density 18.172832
#
# number of rings (size 3 to 8) (size 9 to 14) (size 15 to 20)
#    0.923    0.923    0.000    6.923    0.000    3.692 
#    0.000    3.846    0.000    3.692    0.000    0.000 
#    0.000    0.000    0.000    0.000    0.000    0.000 
#
# Total GULP energy -144882.626491 kJ/mol
# GULP energy per Si atom -5572.408711 kJ/mol
# Density = 1.813147 g / cm^3
# Si number density = 18.172832 Si / 1000 Ang^3
#
#
#
# Elastic Constant Matrix: (Units=GPa)
#
#
# Indices 1 2 3 4 5 6 
#
# 1 35.3996 52.1033 33.5218 0.0000 0.0000 0.0000
# 2 52.1033 175.5915 89.3631 0.0000 0.0000 0.0000
# 3 33.5218 89.3631 177.6867 0.0000 0.0000 0.0000
# 4 0.0000 0.0000 0.0000 61.2358 0.0000 0.0000
# 5 0.0000 0.0000 0.0000 0.0000 342.2972 0.0000
# 6 0.0000 0.0000 0.0000 0.0000 0.0000 32.3229
#
#
#
# Elastic Compliance Matrix: (Units=1/GPa)
#
#
# Indices 1 2 3 4 5 6 
#
# 1 0.051104 -0.013786 -0.002708 0.000000 0.000000 0.000000
# 2 -0.013786 0.011373 -0.003119 0.000000 0.000000 0.000000
# 3 -0.002708 -0.003119 0.007707 0.000000 0.000000 0.000000
# 4 0.000000 0.000000 0.000000 0.016330 0.000000 0.000000
# 5 0.000000 0.000000 0.000000 0.000000 0.002921 0.000000
# 6 0.000000 0.000000 0.000000 0.000000 0.000000 0.030938
#
#
# Mechanical properties :
#
#
# Convention : Reuss Voigt Hill
#
# Bulk Modulus (GPa) = 32.30076 82.07269 57.18673
# Shear Modulus (GPa) = 29.42561 101.41716 65.42138
#
# Velocity S-wave (km/s) = 4.02830 7.47851 6.00647
# Velocity P-wave (km/s) = 6.28085 10.94675 8.92413
#
# Compressibility (1/GPa) = 0.03095902
#
# Stress axis : x y z
#
# Youngs Moduli (GPa) = 19.56777 87.92645 129.74638
#
# Poissons Ratio (x) = 1.21217 0.35133
# Poissons Ratio (y) = 0.26976 0.40468
# Poissons Ratio (z) = 0.05299 0.27424
#
# Static dielectric constant tensor:
#      x y z
#    x 1.619780 0.000000 0.000000 
#    y 0.000000 1.624880 0.000000 
#    z 0.000000 0.000000 1.623290 
# 
# From -- ./inp_files/11103.got.cif
#   From: 2010.05.17/outbox.cif.g08.bks.cpg/sg66_6_cif.got.tgz:11103.got - 2010.06.03 17:51:23.
