data_PCOD9497406
_publ_section_title
;
Structure prediction by ZEFSAII (Michael W. Deem and Ramdas Pophale) SiO2 
 PCOD9497406
Probable space group: C C C M
;
_chemical_formula_sum "Si O2"
_cell_formula_units_Z 96
_cell_length_a 24.508128
_cell_length_b 14.704384
_cell_length_c 14.976691
_cell_angle_alpha 90.000000
_cell_angle_beta 90.000000
_cell_angle_gamma 90.000000
_cell_volume 5397.253853
_symmetry_space_group_name_H-M "C C C M"
_symmetry_group_IT_number 66
_symmetry_cell_setting 'orthorhombic'
loop_
_space_group_symop_operation_xyz
x,y,z
-x,-y,z
x,-y,1/2-z
-x,y,1/2-z
-x,-y,-z
x,y,-z
-x,y,1/2+z
x,-y,1/2+z
1/2+x,1/2+y,z
1/2-x,1/2-y,z
1/2+x,1/2-y,1/2-z
1/2-x,1/2+y,1/2-z
1/2-x,1/2-y,-z
1/2+x,1/2+y,-z
1/2-x,1/2+y,1/2+z
1/2+x,1/2-y,1/2+z
loop_
_atom_site_type_symbol
_atom_site_label
_atom_site_fract_x
_atom_site_fract_y
_atom_site_fract_z
Si Si1 0.271200 0.995478 0.000000
Si Si2 0.500478 0.247905 0.144467
Si Si3 0.477858 0.898872 0.500000
Si Si4 0.879809 0.192388 0.644022
Si Si5 0.620293 0.688283 0.355885
Si Si6 0.145982 0.660749 0.500000
Si Si7 0.822481 0.998240 0.144014
Si Si8 0.689302 0.206368 0.000000
O O1 0.231744 0.995417 0.914226
O O2 0.305188 0.902104 0.000000
O O3 0.307605 0.085501 0.000000
O O4 0.500000 0.227629 0.250000
O O5 0.498227 0.157190 0.085946
O O6 0.444780 0.302854 0.124747
O O7 0.556352 0.299948 0.123661
O O8 0.412338 0.890485 0.500000
O O9 0.500000 0.000000 0.500000
O O10 0.872364 0.206642 0.750136
O O11 0.853217 0.272237 0.585464
O O12 0.854071 0.094898 0.622133
O O13 0.640752 0.586539 0.375209
O O14 0.656245 0.756419 0.414723
O O15 0.810771 0.000000 0.250000
O O16 0.750000 0.250000 0.000000
#
# Coordination Sequence:
#
# PCOD9497406 Si02
#       8
#     8  16   8  16  16   8  16   8
#     4  12  25  39  55  80 111 152 200 241 275 327
#     4   9  19  36  59  86 116 145 178 227 290 347
#     4  10  21  36  57  79 108 148 191 234 280 331
#     4   9  20  39  59  86 120 146 183 232 284 351
#     4  10  20  37  61  88 114 149 185 233 290 339
#     4  10  23  40  55  82 112 151 195 235 280 331
#     4  10  21  37  59  86 115 147 187 229 280 343
#     4  12  23  39  59  80 115 152 197 246 281 327
#
# _framework density 17.786822000000001
#
# number of rings (size 3 to 8) (size 9 to 14) (size 15 to 20)
#    0.000    2.000    1.667    1.000    2.333    3.667 
#    0.000    3.333    0.000    5.000    0.000    0.000 
#    0.000    0.000    0.000    0.000    0.000    0.000 
#
# Total GULP energy -267967.981829 kJ/mol
# GULP energy per Si atom -5582.666288 kJ/mol
# Density = 1.774634 g / cm^3
# Si number density = 17.786822 Si / 1000 Ang^3
#
#
#
# Elastic Constant Matrix: (Units=GPa)
#
#
# Indices 1 2 3 4 5 6 
#
# 1 120.0504 95.0559 63.3295 0.0000 0.0000 0.0000
# 2 95.0559 175.3432 71.5818 0.0000 0.0000 0.0000
# 3 63.3295 71.5818 72.8474 0.0000 0.0000 0.0000
# 4 0.0000 0.0000 0.0000 121.1788 0.0000 0.0000
# 5 0.0000 0.0000 0.0000 0.0000 30.2855 0.0000
# 6 0.0000 0.0000 0.0000 0.0000 0.0000 35.3272
#
#
#
# Elastic Compliance Matrix: (Units=1/GPa)
#
#
# Indices 1 2 3 4 5 6 
#
# 1 0.018271 -0.005712 -0.010271 0.000000 0.000000 0.000000
# 2 -0.005712 0.011309 -0.006147 0.000000 0.000000 0.000000
# 3 -0.010271 -0.006147 0.028697 0.000000 0.000000 0.000000
# 4 0.000000 0.000000 0.000000 0.008252 0.000000 0.000000
# 5 0.000000 0.000000 0.000000 0.000000 0.033019 0.000000
# 6 0.000000 0.000000 0.000000 0.000000 0.000000 0.028307
#
#
# Mechanical properties :
#
#
# Convention : Reuss Voigt Hill
#
# Bulk Modulus (GPa) = 71.34343 92.01947 81.68145
# Shear Modulus (GPa) = 28.28284 46.57656 37.42970
#
# Velocity S-wave (km/s) = 3.99193 5.12278 4.59230
# Velocity P-wave (km/s) = 7.83867 9.31866 8.61052
#
# Compressibility (1/GPa) = 0.01401671
#
# Stress axis : x y z
#
# Youngs Moduli (GPa) = 54.73302 88.42545 34.84743
#
# Poissons Ratio (x) = 0.50506 0.35791
# Poissons Ratio (y) = 0.31262 0.21421
# Poissons Ratio (z) = 0.56216 0.54356
#
# Static dielectric constant tensor:
#      x y z
#    x 1.595640 0.000000 0.000000 
#    y 0.000000 1.566340 0.000000 
#    z 0.000000 0.000000 1.616710 
# 
# From -- ./inp_files/32408.got.cif
#   From: 2010.05.17/outbox.cif.g08.bks.cpg/sg66_17_cif.got.tgz:32408.got - 2010.06.03 17:51:23.
