data_PCOD9497466
_publ_section_title
;
Structure prediction by ZEFSAII (Michael W. Deem and Ramdas Pophale) SiO2 
 PCOD9497466
Probable space group: C C C M
;
_chemical_formula_sum "Si O2"
_cell_formula_units_Z 120
_cell_length_a 24.837177
_cell_length_b 11.698673
_cell_length_c 19.422101
_cell_angle_alpha 90.000000
_cell_angle_beta 90.000000
_cell_angle_gamma 90.000000
_cell_volume 5643.324743
_symmetry_space_group_name_H-M "C C C M"
_symmetry_group_IT_number 66
_symmetry_cell_setting 'orthorhombic'
loop_
_space_group_symop_operation_xyz
x,y,z
-x,-y,z
x,-y,1/2-z
-x,y,1/2-z
-x,-y,-z
x,y,-z
-x,y,1/2+z
x,-y,1/2+z
1/2+x,1/2+y,z
1/2-x,1/2-y,z
1/2+x,1/2-y,1/2-z
1/2-x,1/2+y,1/2-z
1/2-x,1/2-y,-z
1/2+x,1/2+y,-z
1/2-x,1/2+y,1/2+z
1/2+x,1/2-y,1/2+z
loop_
_atom_site_type_symbol
_atom_site_label
_atom_site_fract_x
_atom_site_fract_y
_atom_site_fract_z
Si Si1 0.026062 0.760633 0.417737
Si Si2 0.703070 0.156545 0.133726
Si Si3 0.229225 0.582739 0.423983
Si Si4 0.365938 0.181324 0.152015
Si Si5 0.171683 0.500000 0.750000
Si Si6 0.177945 0.911994 0.313265
Si Si7 0.411257 0.482091 0.077406
Si Si8 0.409599 0.245331 0.579617
O O1 0.027352 0.740747 0.500000
O O2 0.076410 0.705367 0.379611
O O3 0.038615 0.897054 0.408635
O O4 0.968678 0.711635 0.392850
O O5 0.750000 0.250000 0.127329
O O6 0.644008 0.209240 0.119804
O O7 0.713109 0.050991 0.081782
O O8 0.704876 0.094950 0.208151
O O9 0.251480 0.605283 0.500000
O O10 0.177525 0.661322 0.408666
O O11 0.268666 0.600803 0.359311
O O12 0.363734 0.065517 0.194668
O O13 0.344979 0.285064 0.200370
O O14 0.133910 0.959305 0.366542
O O15 0.182149 0.000000 0.250000
O O16 0.417664 0.617642 0.077481
O O17 0.392838 0.450380 0.000000
O O18 0.402977 0.206855 0.500000
#
# Coordination Sequence:
#
# PCOD9497466 Si02
#       8
#    16  16  16  16   8  16  16  16
#     4   9  18  37  66  95 127 164 212 272 327 384
#     4  11  25  42  65  90 130 169 219 270 327 392
#     4  11  24  41  62  94 132 170 218 274 327 390
#     4  10  23  42  63  91 127 169 224 261 331 379
#     4  10  26  44  63  88 120 180 217 264 316 392
#     4  11  24  37  63  97 129 171 214 267 329 396
#     4   9  18  35  61  96 132 165 207 261 327 392
#     4  10  20  37  64  98 129 165 210 266 331 386
#
# _framework density 21.264061999999999
#
# number of rings (size 3 to 8) (size 9 to 14) (size 15 to 20)
#    0.000    1.867    0.000    2.800    7.467    5.867 
#    0.000    4.000    0.000    8.000    0.000    0.000 
#    0.000    0.000    0.000    0.000    0.000    0.000 
#
# Total GULP energy -334838.490542 kJ/mol
# GULP energy per Si atom -5580.641509 kJ/mol
# Density = 2.121566 g / cm^3
# Si number density = 21.264062 Si / 1000 Ang^3
#
#
#
# Elastic Constant Matrix: (Units=GPa)
#
#
# Indices 1 2 3 4 5 6 
#
# 1 161.8865 43.7550 44.3834 0.0000 0.0000 0.0000
# 2 43.7550 76.9444 18.5507 0.0000 0.0000 0.0000
# 3 44.3834 18.5507 86.7209 0.0000 0.0000 0.0000
# 4 0.0000 0.0000 0.0000 23.2466 0.0000 0.0000
# 5 0.0000 0.0000 0.0000 0.0000 14.3662 0.0000
# 6 0.0000 0.0000 0.0000 0.0000 0.0000 20.8151
#
#
#
# Elastic Compliance Matrix: (Units=1/GPa)
#
#
# Indices 1 2 3 4 5 6 
#
# 1 0.008124 -0.003814 -0.003342 0.000000 0.000000 0.000000
# 2 -0.003814 0.015494 -0.001362 0.000000 0.000000 0.000000
# 3 -0.003342 -0.001362 0.013533 0.000000 0.000000 0.000000
# 4 0.000000 0.000000 0.000000 0.043017 0.000000 0.000000
# 5 0.000000 0.000000 0.000000 0.000000 0.069608 0.000000
# 6 0.000000 0.000000 0.000000 0.000000 0.000000 0.048042
#
#
# Mechanical properties :
#
#
# Convention : Reuss Voigt Hill
#
# Bulk Modulus (GPa) = 49.71614 59.88112 54.79863
# Shear Modulus (GPa) = 22.56726 26.27643 24.42184
#
# Velocity S-wave (km/s) = 3.26127 3.51909 3.39263
# Velocity P-wave (km/s) = 6.13289 6.68834 6.41663
#
# Compressibility (1/GPa) = 0.02011419
#
# Stress axis : x y z
#
# Youngs Moduli (GPa) = 123.08653 64.54190 73.89284
#
# Poissons Ratio (x) = 0.24618 0.24696
# Poissons Ratio (y) = 0.46948 0.10066
# Poissons Ratio (z) = 0.41137 0.08792
#
# Static dielectric constant tensor:
#      x y z
#    x 1.795290 0.000000 0.000000 
#    y 0.000000 1.822590 0.000000 
#    z 0.000000 0.000000 1.766240 
# 
# From -- ./inp_files/53177.got.cif
#   From: 2010.05.17/outbox.cif.g08.bks.cpg/sg66_27_cif.got.tgz:53177.got - 2010.06.03 17:51:23.
