data_PCOD9497625
_publ_section_title
;
Structure prediction by ZEFSAII (Michael W. Deem and Ramdas Pophale) SiO2 
 PCOD9497625
Probable space group: C C C M
;
_chemical_formula_sum "Si O2"
_cell_formula_units_Z 80
_cell_length_a 23.687956
_cell_length_b 15.900247
_cell_length_c 10.193305
_cell_angle_alpha 90.000000
_cell_angle_beta 90.000000
_cell_angle_gamma 90.000000
_cell_volume 3839.250750
_symmetry_space_group_name_H-M "C C C M"
_symmetry_group_IT_number 66
_symmetry_cell_setting 'orthorhombic'
loop_
_space_group_symop_operation_xyz
x,y,z
-x,-y,z
x,-y,1/2-z
-x,y,1/2-z
-x,-y,-z
x,y,-z
-x,y,1/2+z
x,-y,1/2+z
1/2+x,1/2+y,z
1/2-x,1/2-y,z
1/2+x,1/2-y,1/2-z
1/2-x,1/2+y,1/2-z
1/2-x,1/2-y,-z
1/2+x,1/2+y,-z
1/2-x,1/2+y,1/2+z
1/2+x,1/2-y,1/2+z
loop_
_atom_site_type_symbol
_atom_site_label
_atom_site_fract_x
_atom_site_fract_y
_atom_site_fract_z
Si Si1 0.762185 0.618552 0.000000
Si Si2 0.875060 0.063942 0.000000
Si Si3 0.949762 0.344806 0.847166
Si Si4 0.173903 0.398902 0.742008
Si Si5 0.062857 0.846490 0.232551
Si Si6 0.252237 0.912763 0.000000
Si Si7 0.630748 0.362429 0.500000
O O1 0.799657 0.639096 0.873307
O O2 0.756457 0.515592 0.000000
O O3 0.698476 0.655370 0.000000
O O4 0.904611 0.094620 0.131958
O O5 0.813341 0.104623 0.000000
O O6 0.872328 0.963750 0.000000
O O7 0.889599 0.375312 0.793676
O O8 0.946581 0.243855 0.835557
O O9 0.000000 0.373396 0.750000
O O10 0.958095 0.368904 0.000000
O O11 0.175140 0.500000 0.750000
O O12 0.216010 0.376910 0.625039
O O13 0.097362 0.834433 0.368453
O O14 0.000000 0.882105 0.250000
#
# Coordination Sequence:
#
# PCOD9497625 Si02
#       7
#     8   8  16  16  16   8   8
#     4   9  20  36  59  92 122 163 192 247 312 355
#     4  11  21  39  63  92 118 165 207 252 300 360
#     4  11  25  44  65  88 122 164 201 247 307 365
#     4  10  20  39  65  93 123 157 200 247 297 361
#     4  11  24  40  60  87 124 164 204 253 311 359
#     4   9  18  36  61  86 126 157 198 247 306 357
#     4  11  23  39  63  90 126 157 211 256 298 360
#
# _framework density 20.837399999999999
#
# number of rings (size 3 to 8) (size 9 to 14) (size 15 to 20)
#    0.000    1.600    2.000    2.400    5.600    6.000 
#    0.000    7.000    0.000    0.000    0.000    0.000 
#    0.000    0.000    0.000    0.000    0.000    0.000 
#
# Total GULP energy -223520.792983 kJ/mol
# GULP energy per Si atom -5588.019825 kJ/mol
# Density = 2.078997 g / cm^3
# Si number density = 20.837400 Si / 1000 Ang^3
#
#
#
# Elastic Constant Matrix: (Units=GPa)
#
#
# Indices 1 2 3 4 5 6 
#
# 1 214.3032 8.3489 110.9452 0.0000 0.0000 0.0000
# 2 8.3489 7.3421 9.7913 0.0000 0.0000 0.0000
# 3 110.9452 9.7913 200.3518 0.0000 0.0000 0.0000
# 4 0.0000 0.0000 0.0000 3.1752 0.0000 0.0000
# 5 0.0000 0.0000 0.0000 0.0000 36.4941 0.0000
# 6 0.0000 0.0000 0.0000 0.0000 0.0000 26.2925
#
#
#
# Elastic Compliance Matrix: (Units=1/GPa)
#
#
# Indices 1 2 3 4 5 6 
#
# 1 0.006595 -0.002813 -0.003515 0.000000 0.000000 0.000000
# 2 -0.002813 0.146897 -0.005621 0.000000 0.000000 0.000000
# 3 -0.003515 -0.005621 0.007212 0.000000 0.000000 0.000000
# 4 0.000000 0.000000 0.000000 0.314943 0.000000 0.000000
# 5 0.000000 0.000000 0.000000 0.000000 0.027402 0.000000
# 6 0.000000 0.000000 0.000000 0.000000 0.000000 0.038034
#
#
# Mechanical properties :
#
#
# Convention : Reuss Voigt Hill
#
# Bulk Modulus (GPa) = 7.30959 75.57419 41.44189
# Shear Modulus (GPa) = 8.18891 32.71979 20.45435
#
# Velocity S-wave (km/s) = 1.98455 3.96693 3.13648
# Velocity P-wave (km/s) = 2.96088 7.57161 5.74874
#
# Compressibility (1/GPa) = 0.13680665
#
# Stress axis : x y z
#
# Youngs Moduli (GPa) = 151.61891 6.80751 138.65251
#
# Poissons Ratio (x) = 0.01915 0.48734
# Poissons Ratio (y) = 0.42645 0.77942
# Poissons Ratio (z) = 0.53291 0.03827
#
# Static dielectric constant tensor:
#      x y z
#    x 1.733300 0.000000 0.000000 
#    y 0.000000 1.759740 0.000000 
#    z 0.000000 0.000000 1.739370 
# 
# From -- ./inp_files/8941.got.cif
#   From: 2010.05.17/outbox.cif.g08.bks.cpg/sg66_5_cif.got.tgz:8941.got - 2010.06.03 17:51:23.
