data_PCOD9497202
_publ_section_title
;
Structure prediction by ZEFSAII (Michael W. Deem and Ramdas Pophale) SiO2 
 PCOD9497202
Probable space group: C C C M
;
_chemical_formula_sum "Si O2"
_cell_formula_units_Z 64
_cell_length_a 14.359503
_cell_length_b 7.828239
_cell_length_c 22.609376
_cell_angle_alpha 90.000000
_cell_angle_beta 90.000000
_cell_angle_gamma 90.000000
_cell_volume 2541.511396
_symmetry_space_group_name_H-M "C C C M"
_symmetry_group_IT_number 66
_symmetry_cell_setting 'orthorhombic'
loop_
_space_group_symop_operation_xyz
x,y,z
-x,-y,z
x,-y,1/2-z
-x,y,1/2-z
-x,-y,-z
x,y,-z
-x,y,1/2+z
x,-y,1/2+z
1/2+x,1/2+y,z
1/2-x,1/2-y,z
1/2+x,1/2-y,1/2-z
1/2-x,1/2+y,1/2-z
1/2-x,1/2-y,-z
1/2+x,1/2+y,-z
1/2-x,1/2+y,1/2+z
1/2+x,1/2-y,1/2+z
loop_
_atom_site_type_symbol
_atom_site_label
_atom_site_fract_x
_atom_site_fract_y
_atom_site_fract_z
Si Si1 0.152178 0.699357 0.761929
Si Si2 0.855359 0.888211 0.136614
Si Si3 0.800400 0.437075 0.932977
Si Si4 0.959126 0.251719 0.127566
O O1 0.161498 0.500000 0.750000
O O2 0.250000 0.750000 0.794200
O O3 0.150440 0.823310 0.704627
O O4 0.062430 0.711472 0.803662
O O5 0.933227 0.760699 0.110612
O O6 0.755485 0.931001 0.108705
O O7 0.908771 0.067235 0.125100
O O8 0.750000 0.250000 0.933581
O O9 0.901533 0.387199 0.909498
O O10 0.799796 0.501721 0.000000
#
# Coordination Sequence:
#
# PCOD9497202 Si02
#       4
#    16  16  16  16
#     4  12  23  37  60  88 122 163 208 267 338 406
#     4  10  21  36  57  89 126 167 215 269 331 401
#     4   9  18  35  60  91 129 174 222 269 323 395
#     4  10  20  36  58  87 127 169 215 269 330 401
#
# _framework density 25.181868000000001
#
# number of rings (size 3 to 8) (size 9 to 14) (size 15 to 20)
#    0.000    1.750    0.000    6.750    0.000    5.000 
#    0.000    5.000    0.000    6.750    0.000    8.750 
#    0.000    0.000    0.000    0.000    0.000    0.000 
#
# Total GULP energy -178882.111379 kJ/mol
# GULP energy per Si atom -5590.065981 kJ/mol
# Density = 2.512455 g / cm^3
# Si number density = 25.181868 Si / 1000 Ang^3
#
#
#
# Elastic Constant Matrix: (Units=GPa)
#
#
# Indices 1 2 3 4 5 6 
#
# 1 167.5972 40.2957 38.1718 0.0000 0.0000 0.0000
# 2 40.2957 135.0122 21.7146 0.0000 0.0000 0.0000
# 3 38.1718 21.7146 122.6781 0.0000 0.0000 0.0000
# 4 0.0000 0.0000 0.0000 -51.9166 0.0000 0.0000
# 5 0.0000 0.0000 0.0000 0.0000 11.0079 0.0000
# 6 0.0000 0.0000 0.0000 0.0000 0.0000 40.5886
#
#
#
# Elastic Compliance Matrix: (Units=1/GPa)
#
#
# Indices 1 2 3 4 5 6 
#
# 1 0.006796 -0.001738 -0.001807 0.000000 0.000000 0.000000
# 2 -0.001738 0.008068 -0.000887 0.000000 0.000000 0.000000
# 3 -0.001807 -0.000887 0.008871 0.000000 0.000000 0.000000
# 4 0.000000 0.000000 0.000000 -0.019262 0.000000 0.000000
# 5 0.000000 0.000000 0.000000 0.000000 0.090844 0.000000
# 6 0.000000 0.000000 0.000000 0.000000 0.000000 0.024637
#
#
# Mechanical properties :
#
#
# Convention : Reuss Voigt Hill
#
# Bulk Modulus (GPa) = 67.24669 69.51685 68.38177
# Shear Modulus (GPa) = 37.37597 21.60968 29.49282
#
# Velocity S-wave (km/s) = 3.85676 2.93259 3.42598
# Velocity P-wave (km/s) = 6.82607 6.25561 6.54705
#
# Compressibility (1/GPa) = 0.01487062
#
# Stress axis : x y z
#
# Youngs Moduli (GPa) = 147.14414 123.94489 112.73001
#
# Poissons Ratio (x) = 0.21538 0.20371
# Poissons Ratio (y) = 0.25570 0.10004
# Poissons Ratio (z) = 0.26589 0.10999
#
# Static dielectric constant tensor:
#      x y z
#    x 2.058860 0.000000 0.000000 
#    y 0.000000 2.179050 0.000000 
#    z 0.000000 0.000000 2.000600 
# 
# From -- ./inp_files/57684.got.cif
#   From: 2010.05.17/outbox.cif.g08.bks.cpg/sg66_29_cif.got.tgz:57684.got - 2010.06.03 17:51:23.
