data_PCOD9497270
_publ_section_title
;
Structure prediction by ZEFSAII (Michael W. Deem and Ramdas Pophale) SiO2 
 PCOD9497270
Probable space group: C C C M
;
_chemical_formula_sum "Si O2"
_cell_formula_units_Z 116
_cell_length_a 22.767703
_cell_length_b 26.440719
_cell_length_c 9.610150
_cell_angle_alpha 90.000000
_cell_angle_beta 90.000000
_cell_angle_gamma 90.000000
_cell_volume 5785.256842
_symmetry_space_group_name_H-M "C C C M"
_symmetry_group_IT_number 66
_symmetry_cell_setting 'orthorhombic'
loop_
_space_group_symop_operation_xyz
x,y,z
-x,-y,z
x,-y,1/2-z
-x,y,1/2-z
-x,-y,-z
x,y,-z
-x,y,1/2+z
x,-y,1/2+z
1/2+x,1/2+y,z
1/2-x,1/2-y,z
1/2+x,1/2-y,1/2-z
1/2-x,1/2+y,1/2-z
1/2-x,1/2-y,-z
1/2+x,1/2+y,-z
1/2-x,1/2+y,1/2+z
1/2+x,1/2-y,1/2+z
loop_
_atom_site_type_symbol
_atom_site_label
_atom_site_fract_x
_atom_site_fract_y
_atom_site_fract_z
Si Si1 0.278808 0.901796 0.164962
Si Si2 0.000000 0.500000 0.250000
Si Si3 0.946131 0.872616 0.337709
Si Si4 0.157870 0.047749 0.337287
Si Si5 0.057493 0.683249 0.664868
Si Si6 0.910650 0.585164 0.341291
Si Si7 0.757635 0.806904 0.161683
Si Si8 0.106671 0.789075 0.341958
O O1 0.222823 0.934863 0.208739
O O2 0.342137 0.927716 0.184074
O O3 0.274013 0.849664 0.249671
O O4 0.271899 0.891283 0.000000
O O5 0.955479 0.538455 0.327512
O O6 0.960291 0.868897 0.500000
O O7 0.888531 0.907170 0.322367
O O8 0.931296 0.818563 0.270323
O O9 0.000000 0.894670 0.250000
O O10 0.161181 0.034521 0.500000
O O11 0.138186 0.000000 0.250000
O O12 0.046466 0.676873 0.500000
O O13 0.074508 0.629911 0.733857
O O14 0.104528 0.728623 0.680843
O O15 0.000000 0.700213 0.750000
O O16 0.914968 0.604704 0.500000
O O17 0.750000 0.750000 0.215634
O O18 0.828126 0.812122 0.163512
O O19 0.737732 0.808695 0.000000
O O20 0.084233 0.797089 0.500000
#
# Coordination Sequence:
#
# PCOD9497270 Si02
#       8
#    16   4  16  16  16  16  16  16
#     4  10  22  42  64  93 129 165 211 262 320 384
#     4  12  26  44  72  98 130 168 220 272 332 388
#     4  11  23  40  63  92 127 166 210 260 313 374
#     4  10  23  42  64  91 126 164 210 265 319 378
#     4  11  23  40  62  90 128 167 212 264 319 384
#     4  11  25  44  67  94 127 166 212 268 325 386
#     4  10  20  36  60  93 131 167 209 258 311 376
#     4  10  21  37  60  92 129 170 211 258 314 377
#
# _framework density 20.050968999999998
#
# number of rings (size 3 to 8) (size 9 to 14) (size 15 to 20)
#    0.000    1.517    2.069    2.276    0.966    6.621 
#    0.000    1.379    0.000    0.000    0.000    0.000 
#    0.000    0.000    0.000    0.000    0.000    0.000 
#
# Total GULP energy -323819.737757 kJ/mol
# GULP energy per Si atom -5583.098927 kJ/mol
# Density = 2.000533 g / cm^3
# Si number density = 20.050969 Si / 1000 Ang^3
#
#
#
# Elastic Constant Matrix: (Units=GPa)
#
#
# Indices 1 2 3 4 5 6 
#
# 1 97.4278 22.1340 37.4535 0.0000 0.0000 0.0000
# 2 22.1340 85.3281 49.0355 0.0000 0.0000 0.0000
# 3 37.4535 49.0355 96.2294 0.0000 0.0000 0.0000
# 4 0.0000 0.0000 0.0000 19.9111 0.0000 0.0000
# 5 0.0000 0.0000 0.0000 0.0000 28.4129 0.0000
# 6 0.0000 0.0000 0.0000 0.0000 0.0000 28.6219
#
#
#
# Elastic Compliance Matrix: (Units=1/GPa)
#
#
# Indices 1 2 3 4 5 6 
#
# 1 0.012092 -0.000611 -0.004395 0.000000 0.000000 0.000000
# 2 -0.000611 0.016603 -0.008223 0.000000 0.000000 0.000000
# 3 -0.004395 -0.008223 0.016293 0.000000 0.000000 0.000000
# 4 0.000000 0.000000 0.000000 0.050223 0.000000 0.000000
# 5 0.000000 0.000000 0.000000 0.000000 0.035195 0.000000
# 6 0.000000 0.000000 0.000000 0.000000 0.000000 0.034938
#
#
# Mechanical properties :
#
#
# Convention : Reuss Voigt Hill
#
# Bulk Modulus (GPa) = 53.96506 55.13679 54.55093
# Shear Modulus (GPa) = 25.25511 26.74665 26.00088
#
# Velocity S-wave (km/s) = 3.55286 3.65627 3.60493
# Velocity P-wave (km/s) = 6.61837 6.73665 6.67777
#
# Compressibility (1/GPa) = 0.01853051
#
# Stress axis : x y z
#
# Youngs Moduli (GPa) = 82.69647 60.22897 61.37791
#
# Poissons Ratio (x) = 0.03680 0.26976
# Poissons Ratio (y) = 0.05053 0.50469
# Poissons Ratio (z) = 0.36346 0.49525
#
# Static dielectric constant tensor:
#      x y z
#    x 1.763470 0.000000 0.000000 
#    y 0.000000 1.687750 0.000000 
#    z 0.000000 0.000000 1.678860 
# 
# From -- ./inp_files/9465.got.cif
#   From: 2010.05.17/outbox.cif.g08.bks.cpg/sg66_5_cif.got.tgz:9465.got - 2010.06.03 17:51:23.
