data_PCOD9497818
_publ_section_title
;
Structure prediction by ZEFSAII (Michael W. Deem and Ramdas Pophale) SiO2 
 PCOD9497818
Probable space group: C C C M
;
_chemical_formula_sum "Si O2"
_cell_formula_units_Z 72
_cell_length_a 26.771664
_cell_length_b 5.434248
_cell_length_c 24.631700
_cell_angle_alpha 90.000000
_cell_angle_beta 90.000000
_cell_angle_gamma 90.000000
_cell_volume 3583.514833
_symmetry_space_group_name_H-M "C C C M"
_symmetry_group_IT_number 66
_symmetry_cell_setting 'orthorhombic'
loop_
_space_group_symop_operation_xyz
x,y,z
-x,-y,z
x,-y,1/2-z
-x,y,1/2-z
-x,-y,-z
x,y,-z
-x,y,1/2+z
x,-y,1/2+z
1/2+x,1/2+y,z
1/2-x,1/2-y,z
1/2+x,1/2-y,1/2-z
1/2-x,1/2+y,1/2-z
1/2-x,1/2-y,-z
1/2+x,1/2+y,-z
1/2-x,1/2+y,1/2+z
1/2+x,1/2-y,1/2+z
loop_
_atom_site_type_symbol
_atom_site_label
_atom_site_fract_x
_atom_site_fract_y
_atom_site_fract_z
Si Si1 0.556389 0.747253 0.726573
Si Si2 0.613294 0.247808 0.876316
Si Si3 0.250000 0.750000 0.611489
Si Si4 0.358102 0.266154 0.063970
Si Si5 0.798230 0.623270 0.302541
O O1 0.580843 0.500000 0.750000
O O2 0.500000 0.741570 0.750000
O O3 0.564466 0.754419 0.662031
O O4 0.576695 0.000000 0.750000
O O5 0.614786 0.487626 0.914136
O O6 0.659824 0.275875 0.834124
O O7 0.623147 0.985110 0.906006
O O8 0.298869 0.687988 0.575977
O O9 0.227711 0.543315 0.651271
O O10 0.365421 0.235876 0.000000
O O11 0.821886 0.500000 0.250000
O O12 0.750000 0.750000 0.277298
#
# Coordination Sequence:
#
# PCOD9497818 Si02
#       5
#    16  16   8  16  16
#     4  10  21  39  64  96 124 151 186 240 311 380
#     4  11  23  38  59  89 121 160 206 253 301 363
#     4  10  21  36  50  78 116 166 217 256 286 346
#     4  11  23  39  59  83 118 167 218 263 298 333
#     4  11  20  32  50  78 120 163 197 238 300 365
#
# _framework density 20.092006000000001
#
# number of rings (size 3 to 8) (size 9 to 14) (size 15 to 20)
#    0.000    1.333    3.333    3.000    0.000    2.667 
#    0.000    3.333    0.000    0.000    0.000   62.222 
#    0.000    0.000    0.000    0.000    0.000    0.000 
#
# Total GULP energy -200559.506657 kJ/mol
# GULP energy per Si atom -5571.097407 kJ/mol
# Density = 2.004628 g / cm^3
# Si number density = 20.092006 Si / 1000 Ang^3
#
#
#
# Elastic Constant Matrix: (Units=GPa)
#
#
# Indices 1 2 3 4 5 6 
#
# 1 94.6908 26.2397 45.4991 0.0000 0.0000 0.0000
# 2 26.2397 144.6841 55.2904 0.0000 0.0000 0.0000
# 3 45.4991 55.2904 142.6489 0.0000 0.0000 0.0000
# 4 0.0000 0.0000 0.0000 36.6839 0.0000 0.0000
# 5 0.0000 0.0000 0.0000 0.0000 22.6548 0.0000
# 6 0.0000 0.0000 0.0000 0.0000 0.0000 -31.0029
#
#
#
# Elastic Compliance Matrix: (Units=1/GPa)
#
#
# Indices 1 2 3 4 5 6 
#
# 1 0.012566 -0.000877 -0.003668 0.000000 0.000000 0.000000
# 2 -0.000877 0.008175 -0.002889 0.000000 0.000000 0.000000
# 3 -0.003668 -0.002889 0.009300 0.000000 0.000000 0.000000
# 4 0.000000 0.000000 0.000000 0.027260 0.000000 0.000000
# 5 0.000000 0.000000 0.000000 0.000000 0.044141 0.000000
# 6 0.000000 0.000000 0.000000 0.000000 0.000000 -0.032255
#
#
# Mechanical properties :
#
#
# Convention : Reuss Voigt Hill
#
# Bulk Modulus (GPa) = 65.90780 70.67579 68.29179
# Shear Modulus (GPa) = 56.10927 22.66682 39.38805
#
# Velocity S-wave (km/s) = 5.29025 3.36244 4.43243
# Velocity P-wave (km/s) = 8.37794 7.09416 7.76264
#
# Compressibility (1/GPa) = 0.01517271
#
# Stress axis : x y z
#
# Youngs Moduli (GPa) = 79.57774 122.33037 107.52882
#
# Poissons Ratio (x) = 0.10731 0.39443
# Poissons Ratio (y) = 0.06981 0.31061
# Poissons Ratio (z) = 0.29190 0.35337
#
# Static dielectric constant tensor:
#      x y z
#    x 1.972280 0.000000 0.000000 
#    y 0.000000 1.782100 0.000000 
#    z 0.000000 0.000000 1.724890 
# 
# From -- ./inp_files/60040.got.cif
#   From: 2010.05.17/outbox.cif.g08.bks.cpg/sg66_31_cif.got.tgz:60040.got - 2010.06.03 17:51:23.
