data_PCOD9497588
_publ_section_title
;
Structure prediction by ZEFSAII (Michael W. Deem and Ramdas Pophale) SiO2 
 PCOD9497588
Probable space group: C C C M
;
_chemical_formula_sum "Si O2"
_cell_formula_units_Z 80
_cell_length_a 11.149955
_cell_length_b 13.446086
_cell_length_c 22.849364
_cell_angle_alpha 90.000000
_cell_angle_beta 90.000000
_cell_angle_gamma 90.000000
_cell_volume 3425.650999
_symmetry_space_group_name_H-M "C C C M"
_symmetry_group_IT_number 66
_symmetry_cell_setting 'orthorhombic'
loop_
_space_group_symop_operation_xyz
x,y,z
-x,-y,z
x,-y,1/2-z
-x,y,1/2-z
-x,-y,-z
x,y,-z
-x,y,1/2+z
x,-y,1/2+z
1/2+x,1/2+y,z
1/2-x,1/2-y,z
1/2+x,1/2-y,1/2-z
1/2-x,1/2+y,1/2-z
1/2-x,1/2-y,-z
1/2+x,1/2+y,-z
1/2-x,1/2+y,1/2+z
1/2+x,1/2-y,1/2+z
loop_
_atom_site_type_symbol
_atom_site_label
_atom_site_fract_x
_atom_site_fract_y
_atom_site_fract_z
Si Si1 0.982572 0.847649 0.500000
Si Si2 0.695506 0.091070 0.000000
Si Si3 0.421155 0.104951 0.625490
Si Si4 0.332097 0.832247 0.633375
Si Si5 0.000000 0.000000 0.598787
Si Si6 0.786024 0.973539 0.314925
Si Si7 0.361584 0.853836 0.500000
O O1 0.837281 0.874802 0.500000
O O2 0.032715 0.908391 0.443923
O O3 0.033734 0.734481 0.500000
O O4 0.641680 0.124170 0.062858
O O5 0.352909 0.024353 0.000000
O O6 0.526261 0.181956 0.639420
O O7 0.500000 0.000000 0.620645
O O8 0.318120 0.107408 0.674530
O O9 0.250000 0.750000 0.661006
O O10 0.287833 0.932092 0.662351
O O11 0.308265 0.837970 0.563983
O O12 0.894006 0.962558 0.640169
O O13 0.825535 0.000000 0.250000
#
# Coordination Sequence:
#
# PCOD9497588 Si02
#       7
#     8   8  16  16   8  16   8
#     4  11  24  37  72 111 148 185 233 306 380 459
#     4  12  19  42  67 102 151 190 228 304 378 442
#     4  10  20  38  69  95 132 186 232 287 360 430
#     4  11  23  40  68 102 142 179 242 299 358 433
#     4  11  21  44  64 106 149 187 236 298 374 447
#     4  11  23  41  74  96 130 202 245 285 361 439
#     4  12  21  38  69 111 143 186 234 294 376 452
#
# _framework density 23.353225999999999
#
# number of rings (size 3 to 8) (size 9 to 14) (size 15 to 20)
#    0.000    1.000    6.000    2.700    0.000    6.000 
#    0.000    2.000   17.600    0.000    0.000    0.000 
#    0.000    0.000    0.000    0.000    0.000    0.000 
#
# Total GULP energy -222799.721834 kJ/mol
# GULP energy per Si atom -5569.993046 kJ/mol
# Density = 2.330007 g / cm^3
# Si number density = 23.353226 Si / 1000 Ang^3
#
#
#
# Elastic Constant Matrix: (Units=GPa)
#
#
# Indices 1 2 3 4 5 6 
#
# 1 138.1835 29.5337 29.1751 0.0000 0.0000 0.0000
# 2 29.5337 46.1000 4.3405 0.0000 0.0000 0.0000
# 3 29.1751 4.3405 111.9117 0.0000 0.0000 0.0000
# 4 0.0000 0.0000 0.0000 11.3242 0.0000 0.0000
# 5 0.0000 0.0000 0.0000 0.0000 17.0511 0.0000
# 6 0.0000 0.0000 0.0000 0.0000 0.0000 32.9194
#
#
#
# Elastic Compliance Matrix: (Units=1/GPa)
#
#
# Indices 1 2 3 4 5 6 
#
# 1 0.008848 -0.005471 -0.002095 0.000000 0.000000 0.000000
# 2 -0.005471 0.025155 0.000451 0.000000 0.000000 0.000000
# 3 -0.002095 0.000451 0.009464 0.000000 0.000000 0.000000
# 4 0.000000 0.000000 0.000000 0.088306 0.000000 0.000000
# 5 0.000000 0.000000 0.000000 0.000000 0.058647 0.000000
# 6 0.000000 0.000000 0.000000 0.000000 0.000000 0.030377
#
#
# Mechanical properties :
#
#
# Convention : Reuss Voigt Hill
#
# Bulk Modulus (GPa) = 34.20336 46.92151 40.56244
# Shear Modulus (GPa) = 20.42700 27.80200 24.11450
#
# Velocity S-wave (km/s) = 2.96074 3.45410 3.21689
# Velocity P-wave (km/s) = 5.13477 6.00362 5.58611
#
# Compressibility (1/GPa) = 0.02923689
#
# Stress axis : x y z
#
# Youngs Moduli (GPa) = 113.01498 39.75388 105.66156
#
# Poissons Ratio (x) = 0.21751 0.22131
# Poissons Ratio (y) = 0.61836 -0.04763
# Poissons Ratio (z) = 0.23671 -0.01792
#
# Static dielectric constant tensor:
#      x y z
#    x 2.047920 0.000000 0.000000 
#    y 0.000000 2.234690 0.000000 
#    z 0.000000 0.000000 1.837970 
# 
# From -- ./inp_files/56697.got.cif
#   From: 2010.05.17/outbox.cif.g08.bks.cpg/sg66_29_cif.got.tgz:56697.got - 2010.06.03 17:51:23.
