data_PCOD9497076
_publ_section_title
;
Structure prediction by ZEFSAII (Michael W. Deem and Ramdas Pophale) SiO2 
 PCOD9497076
Probable space group: C C C M
;
_chemical_formula_sum "Si O2"
_cell_formula_units_Z 112
_cell_length_a 15.703778
_cell_length_b 30.154455
_cell_length_c 11.476893
_cell_angle_alpha 90.000000
_cell_angle_beta 90.000000
_cell_angle_gamma 90.000000
_cell_volume 5434.754908
_symmetry_space_group_name_H-M "C C C M"
_symmetry_group_IT_number 66
_symmetry_cell_setting 'orthorhombic'
loop_
_space_group_symop_operation_xyz
x,y,z
-x,-y,z
x,-y,1/2-z
-x,y,1/2-z
-x,-y,-z
x,y,-z
-x,y,1/2+z
x,-y,1/2+z
1/2+x,1/2+y,z
1/2-x,1/2-y,z
1/2+x,1/2-y,1/2-z
1/2-x,1/2+y,1/2-z
1/2-x,1/2-y,-z
1/2+x,1/2+y,-z
1/2-x,1/2+y,1/2+z
1/2+x,1/2-y,1/2+z
loop_
_atom_site_type_symbol
_atom_site_label
_atom_site_fract_x
_atom_site_fract_y
_atom_site_fract_z
Si Si1 0.289378 0.389550 0.866439
Si Si2 0.984079 0.109502 0.372197
Si Si3 0.763322 0.298468 0.635312
Si Si4 0.889240 0.025617 0.127637
Si Si5 0.461950 0.823374 0.628672
Si Si6 0.200026 0.453045 0.694833
Si Si7 0.478267 0.926342 0.123725
O O1 0.386024 0.406094 0.865444
O O2 0.287980 0.340015 0.814166
O O3 0.225654 0.420612 0.799216
O O4 0.261140 0.387104 0.000000
O O5 0.992933 0.131815 0.500000
O O6 0.049093 0.068234 0.371307
O O7 0.000000 0.134625 0.250000
O O8 0.734458 0.294520 0.500000
O O9 0.750000 0.250000 0.688777
O O10 0.861315 0.313888 0.635871
O O11 0.789800 0.039134 0.130473
O O12 0.903034 0.000000 0.250000
O O13 0.903132 0.003108 0.000000
O O14 0.500000 0.805291 0.750000
O O15 0.490156 0.806174 0.500000
O O16 0.486491 0.875777 0.626920
O O17 0.174021 0.500000 0.750000
O O18 0.123958 0.430596 0.624942
O O19 0.500000 0.946212 0.250000
O O20 0.510076 0.945625 0.000000
#
# Coordination Sequence:
#
# PCOD9497076 Si02
#       7
#    16  16  16  16  16  16  16
#     4  10  20  35  58  85 119 160 203 256 311 363
#     4  10  20  36  54  78 112 155 201 248 304 364
#     4   9  18  35  61  92 119 151 201 253 300 359
#     4  10  22  38  57  80 114 159 211 260 304 357
#     4   9  17  32  58  87 117 150 188 232 286 351
#     4  11  23  37  57  83 118 157 207 251 301 355
#     4  10  21  38  58  83 113 151 192 237 293 350
#
# _framework density 20.608105999999999
#
# number of rings (size 3 to 8) (size 9 to 14) (size 15 to 20)
#    0.000    2.143    1.429    2.143    0.000    6.286 
#    0.000    2.857    0.000    0.429    0.000    0.000 
#    0.000    0.000    0.000    0.000    0.000    0.000 
#
# Total GULP energy -311936.236704 kJ/mol
# GULP energy per Si atom -5570.289941 kJ/mol
# Density = 2.056120 g / cm^3
# Si number density = 20.608106 Si / 1000 Ang^3
#
#
#
# Elastic Constant Matrix: (Units=GPa)
#
#
# Indices 1 2 3 4 5 6 
#
# 1 91.2526 33.5991 17.7902 0.0000 0.0000 0.0000
# 2 33.5991 91.7724 17.8400 0.0000 0.0000 0.0000
# 3 17.7902 17.8400 181.7440 0.0000 0.0000 0.0000
# 4 0.0000 0.0000 0.0000 8.9399 0.0000 0.0000
# 5 0.0000 0.0000 0.0000 0.0000 23.8155 0.0000
# 6 0.0000 0.0000 0.0000 0.0000 0.0000 11.3808
#
#
#
# Elastic Compliance Matrix: (Units=1/GPa)
#
#
# Indices 1 2 3 4 5 6 
#
# 1 0.012781 -0.004522 -0.000807 0.000000 0.000000 0.000000
# 2 -0.004522 0.012709 -0.000805 0.000000 0.000000 0.000000
# 3 -0.000807 -0.000805 0.005660 0.000000 0.000000 0.000000
# 4 0.000000 0.000000 0.000000 0.111858 0.000000 0.000000
# 5 0.000000 0.000000 0.000000 0.000000 0.041989 0.000000
# 6 0.000000 0.000000 0.000000 0.000000 0.000000 0.087867
#
#
# Mechanical properties :
#
#
# Convention : Reuss Voigt Hill
#
# Bulk Modulus (GPa) = 52.96259 55.91419 54.43839
# Shear Modulus (GPa) = 17.15694 28.52990 22.84342
#
# Velocity S-wave (km/s) = 2.88850 3.72479 3.33298
# Velocity P-wave (km/s) = 6.07291 6.75942 6.42534
#
# Compressibility (1/GPa) = 0.01888125
#
# Stress axis : x y z
#
# Youngs Moduli (GPa) = 78.24054 78.68634 176.67048
#
# Poissons Ratio (x) = 0.35585 0.14260
# Poissons Ratio (y) = 0.35384 0.14219
# Poissons Ratio (z) = 0.06315 0.06333
#
# Static dielectric constant tensor:
#      x y z
#    x 1.744910 0.000000 0.000000 
#    y 0.000000 1.770270 0.000000 
#    z 0.000000 0.000000 1.835870 
# 
# From -- ./inp_files/16803.got.cif
#   From: 2010.05.17/outbox.cif.g08.bks.cpg/sg66_9_cif.got.tgz:16803.got - 2010.06.03 17:51:23.
