data_PCOD9497111
_publ_section_title
;
Structure prediction by ZEFSAII (Michael W. Deem and Ramdas Pophale) SiO2 
 PCOD9497111
Probable space group: C C C M
;
_chemical_formula_sum "Si O2"
_cell_formula_units_Z 96
_cell_length_a 24.662007
_cell_length_b 8.823315
_cell_length_c 21.522334
_cell_angle_alpha 90.000000
_cell_angle_beta 90.000000
_cell_angle_gamma 90.000000
_cell_volume 4683.274003
_symmetry_space_group_name_H-M "C C C M"
_symmetry_group_IT_number 66
_symmetry_cell_setting 'orthorhombic'
loop_
_space_group_symop_operation_xyz
x,y,z
-x,-y,z
x,-y,1/2-z
-x,y,1/2-z
-x,-y,-z
x,y,-z
-x,y,1/2+z
x,-y,1/2+z
1/2+x,1/2+y,z
1/2-x,1/2-y,z
1/2+x,1/2-y,1/2-z
1/2-x,1/2+y,1/2-z
1/2-x,1/2-y,-z
1/2+x,1/2+y,-z
1/2-x,1/2+y,1/2+z
1/2+x,1/2-y,1/2+z
loop_
_atom_site_type_symbol
_atom_site_label
_atom_site_fract_x
_atom_site_fract_y
_atom_site_fract_z
Si Si1 0.094586 0.607044 0.931764
Si Si2 0.596429 0.825447 0.847126
Si Si3 0.988450 0.831721 0.602586
Si Si4 0.196549 0.170504 0.426041
Si Si5 0.563688 0.334439 0.231776
Si Si6 0.309875 0.322743 0.073496
O O1 0.040143 0.705114 0.937632
O O2 0.145469 0.718479 0.920448
O O3 0.088384 0.493455 0.874048
O O4 0.104097 0.531477 0.000000
O O5 0.545586 0.728886 0.872763
O O6 0.594114 0.791985 0.772988
O O7 0.649872 0.766731 0.881572
O O8 0.943859 0.838861 0.658183
O O9 0.000000 0.000000 0.577795
O O10 0.205796 0.152171 0.500000
O O11 0.250000 0.250000 0.398922
O O12 0.189150 0.998075 0.404836
O O13 0.585313 0.500000 0.250000
O O14 0.500000 0.324491 0.250000
O O15 0.250000 0.250000 0.076917
O O16 0.326390 0.315850 0.000000
#
# Coordination Sequence:
#
# PCOD9497111 Si02
#       6
#    16  16  16  16  16  16
#     4  11  24  37  53  87 130 163 197 246 314 383
#     4  11  21  35  60  86 119 158 199 258 305 360
#     4  11  21  38  61  84 118 158 207 256 312 365
#     4   9  18  34  54  77 113 158 200 244 292 354
#     4   9  17  36  61  83 108 144 203 257 300 352
#     4  10  20  35  59  90 121 160 208 251 306 375
#
# _framework density 20.498481000000002
#
# number of rings (size 3 to 8) (size 9 to 14) (size 15 to 20)
#    0.000    1.833    3.333    3.000    0.000    5.667 
#    0.000    2.500    0.000    1.000    0.000    0.000 
#    0.000    0.000    0.000    0.000    0.000    0.000 
#
# Total GULP energy -267474.445555 kJ/mol
# GULP energy per Si atom -5572.384282 kJ/mol
# Density = 2.045183 g / cm^3
# Si number density = 20.498481 Si / 1000 Ang^3
#
#
#
# Elastic Constant Matrix: (Units=GPa)
#
#
# Indices 1 2 3 4 5 6 
#
# 1 59.3772 3.4424 7.9469 0.0000 0.0000 0.0000
# 2 3.4424 109.6684 22.1067 0.0000 0.0000 0.0000
# 3 7.9469 22.1067 78.8322 0.0000 0.0000 0.0000
# 4 0.0000 0.0000 0.0000 46.3204 0.0000 0.0000
# 5 0.0000 0.0000 0.0000 0.0000 21.6843 0.0000
# 6 0.0000 0.0000 0.0000 0.0000 0.0000 29.3140
#
#
#
# Elastic Compliance Matrix: (Units=1/GPa)
#
#
# Indices 1 2 3 4 5 6 
#
# 1 0.017076 -0.000200 -0.001665 0.000000 0.000000 0.000000
# 2 -0.000200 0.009667 -0.002691 0.000000 0.000000 0.000000
# 3 -0.001665 -0.002691 0.013608 0.000000 0.000000 0.000000
# 4 0.000000 0.000000 0.000000 0.021589 0.000000 0.000000
# 5 0.000000 0.000000 0.000000 0.000000 0.046116 0.000000
# 6 0.000000 0.000000 0.000000 0.000000 0.000000 0.034113
#
#
# Mechanical properties :
#
#
# Convention : Reuss Voigt Hill
#
# Bulk Modulus (GPa) = 32.01218 34.98553 33.49885
# Shear Modulus (GPa) = 30.92254 33.75585 32.33920
#
# Velocity S-wave (km/s) = 3.88819 4.06242 3.97626
# Velocity P-wave (km/s) = 5.98399 6.25370 6.12033
#
# Compressibility (1/GPa) = 0.03123811
#
# Stress axis : x y z
#
# Youngs Moduli (GPa) = 58.56180 103.44396 73.48839
#
# Poissons Ratio (x) = 0.02072 0.12237
# Poissons Ratio (y) = 0.01173 0.19774
# Poissons Ratio (z) = 0.09752 0.27834
#
# Static dielectric constant tensor:
#      x y z
#    x 1.695250 0.000000 0.000000 
#    y 0.000000 1.789780 0.000000 
#    z 0.000000 0.000000 1.866940 
# 
# From -- ./inp_files/59485.got.cif
#   From: 2010.05.17/outbox.cif.g08.bks.cpg/sg66_30_cif.got.tgz:59485.got - 2010.06.03 17:51:23.
