data_PCOD9497959
_publ_section_title
;
Structure prediction by ZEFSAII (Michael W. Deem and Ramdas Pophale) SiO2 
 PCOD9497959
Probable space group: C C C M
;
_chemical_formula_sum "Si O2"
_cell_formula_units_Z 120
_cell_length_a 18.895625
_cell_length_b 21.277149
_cell_length_c 14.405595
_cell_angle_alpha 90.000000
_cell_angle_beta 90.000000
_cell_angle_gamma 90.000000
_cell_volume 5791.697853
_symmetry_space_group_name_H-M "C C C M"
_symmetry_group_IT_number 66
_symmetry_cell_setting 'orthorhombic'
loop_
_space_group_symop_operation_xyz
x,y,z
-x,-y,z
x,-y,1/2-z
-x,y,1/2-z
-x,-y,-z
x,y,-z
-x,y,1/2+z
x,-y,1/2+z
1/2+x,1/2+y,z
1/2-x,1/2-y,z
1/2+x,1/2-y,1/2-z
1/2-x,1/2+y,1/2-z
1/2-x,1/2-y,-z
1/2+x,1/2+y,-z
1/2-x,1/2+y,1/2+z
1/2+x,1/2-y,1/2+z
loop_
_atom_site_type_symbol
_atom_site_label
_atom_site_fract_x
_atom_site_fract_y
_atom_site_fract_z
Si Si1 0.631242 0.151720 0.100914
Si Si2 0.115719 0.755894 0.391174
Si Si3 0.540873 0.274923 0.893774
Si Si4 0.659466 0.500000 0.250000
Si Si5 0.927945 0.522924 0.606797
Si Si6 0.777987 0.468615 0.389593
Si Si7 0.718374 0.839885 0.782910
Si Si8 0.378633 0.358279 0.754351
O O1 0.599580 0.220784 0.104999
O O2 0.572166 0.097970 0.104390
O O3 0.675885 0.141412 0.191920
O O4 0.667785 0.142923 0.000000
O O5 0.131425 0.750392 0.500000
O O6 0.173805 0.715765 0.333795
O O7 0.111056 0.828091 0.356327
O O8 0.033387 0.739042 0.372504
O O9 0.568028 0.325770 0.818924
O O10 0.534157 0.299858 0.000000
O O11 0.712493 0.501055 0.337956
O O12 0.618689 0.566360 0.247837
O O13 0.927891 0.499309 0.500000
O O14 0.852636 0.498455 0.642055
O O15 0.000000 0.500000 0.650849
O O16 0.771533 0.474060 0.500000
O O17 0.777628 0.396459 0.356458
O O18 0.797621 0.834190 0.740807
#
# Coordination Sequence:
#
# PCOD9497959 Si02
#       8
#    16  16  16   8  16  16  16  16
#     4  10  21  37  58  86 126 171 216 264 315 369
#     4  11  24  42  65  93 129 168 211 267 328 394
#     4  10  23  42  65  92 126 169 214 269 333 391
#     4  10  24  42  64  92 122 162 210 260 330 400
#     4   9  18  32  52  80 118 163 211 255 296 357
#     4  10  21  39  59  86 127 169 213 264 318 381
#     4  11  23  38  64  96 127 170 217 264 319 388
#     4  11  23  42  65  94 128 163 212 267 326 395
#
# _framework density 20.719313
#
# number of rings (size 3 to 8) (size 9 to 14) (size 15 to 20)
#    0.000    1.733    1.333    2.800    1.867    4.267 
#    0.000    5.000    0.000    1.600    0.000    0.000 
#    0.000    0.000    0.000    0.000    0.000    0.000 
#
# Total GULP energy -334341.164002 kJ/mol
# GULP energy per Si atom -5572.352733 kJ/mol
# Density = 2.067216 g / cm^3
# Si number density = 20.719313 Si / 1000 Ang^3
#
#
#
# Elastic Constant Matrix: (Units=GPa)
#
#
# Indices 1 2 3 4 5 6 
#
# 1 46.3895 3.3639 18.6303 0.0000 0.0000 0.0000
# 2 3.3639 84.0436 17.0170 0.0000 0.0000 0.0000
# 3 18.6303 17.0170 108.9362 0.0000 0.0000 0.0000
# 4 0.0000 0.0000 0.0000 10.7520 0.0000 0.0000
# 5 0.0000 0.0000 0.0000 0.0000 21.4036 0.0000
# 6 0.0000 0.0000 0.0000 0.0000 0.0000 24.0526
#
#
#
# Elastic Compliance Matrix: (Units=1/GPa)
#
#
# Indices 1 2 3 4 5 6 
#
# 1 0.023148 -0.000129 -0.003939 0.000000 0.000000 0.000000
# 2 -0.000129 0.012288 -0.001897 0.000000 0.000000 0.000000
# 3 -0.003939 -0.001897 0.010150 0.000000 0.000000 0.000000
# 4 0.000000 0.000000 0.000000 0.093006 0.000000 0.000000
# 5 0.000000 0.000000 0.000000 0.000000 0.046721 0.000000
# 6 0.000000 0.000000 0.000000 0.000000 0.000000 0.041575
#
#
# Mechanical properties :
#
#
# Convention : Reuss Voigt Hill
#
# Bulk Modulus (GPa) = 29.71307 35.26575 32.48941
# Shear Modulus (GPa) = 19.99707 24.59884 22.29795
#
# Velocity S-wave (km/s) = 3.11004 3.44938 3.28409
# Velocity P-wave (km/s) = 5.22191 5.73776 5.48590
#
# Compressibility (1/GPa) = 0.03365523
#
# Stress axis : x y z
#
# Youngs Moduli (GPa) = 43.20084 81.38054 98.52548
#
# Poissons Ratio (x) = 0.01050 0.38805
# Poissons Ratio (y) = 0.00557 0.18695
# Poissons Ratio (z) = 0.17015 0.15442
#
# Static dielectric constant tensor:
#      x y z
#    x 1.819580 0.000000 0.000000 
#    y 0.000000 1.743940 0.000000 
#    z 0.000000 0.000000 1.771830 
# 
# From -- ./inp_files/31567.got.cif
#   From: 2010.05.17/outbox.cif.g08.bks.cpg/sg66_16_cif.got.tgz:31567.got - 2010.06.03 17:51:23.
