data_PCOD9497758
_publ_section_title
;
Structure prediction by ZEFSAII (Michael W. Deem and Ramdas Pophale) SiO2 
 PCOD9497758
Probable space group: C C C M
;
_chemical_formula_sum "Si O2"
_cell_formula_units_Z 112
_cell_length_a 29.588529
_cell_length_b 13.767308
_cell_length_c 14.323885
_cell_angle_alpha 90.000000
_cell_angle_beta 90.000000
_cell_angle_gamma 90.000000
_cell_volume 5834.897465
_symmetry_space_group_name_H-M "C C C M"
_symmetry_group_IT_number 66
_symmetry_cell_setting 'orthorhombic'
loop_
_space_group_symop_operation_xyz
x,y,z
-x,-y,z
x,-y,1/2-z
-x,y,1/2-z
-x,-y,-z
x,y,-z
-x,y,1/2+z
x,-y,1/2+z
1/2+x,1/2+y,z
1/2-x,1/2-y,z
1/2+x,1/2-y,1/2-z
1/2-x,1/2+y,1/2-z
1/2-x,1/2-y,-z
1/2+x,1/2+y,-z
1/2-x,1/2+y,1/2+z
1/2+x,1/2-y,1/2+z
loop_
_atom_site_type_symbol
_atom_site_label
_atom_site_fract_x
_atom_site_fract_y
_atom_site_fract_z
Si Si1 0.448806 0.331486 0.746611
Si Si2 0.425717 0.497050 0.108460
Si Si3 0.644518 0.986252 0.110881
Si Si4 0.170963 0.926041 0.398029
Si Si5 0.255888 0.065786 0.604811
Si Si6 0.875072 0.662627 0.271967
Si Si7 0.292911 0.290698 0.747796
O O1 0.500000 0.294672 0.750000
O O2 0.439518 0.398456 0.837909
O O3 0.444373 0.409974 0.662777
O O4 0.413439 0.244328 0.734313
O O5 0.371045 0.498206 0.115126
O O6 0.438555 0.495869 0.000000
O O7 0.631622 0.893502 0.173464
O O8 0.696974 0.014885 0.131044
O O9 0.617028 0.078768 0.151156
O O10 0.639279 0.972461 0.000000
O O11 0.164308 0.879217 0.500000
O O12 0.174674 0.851990 0.314227
O O13 0.217752 0.983029 0.397821
O O14 0.261659 0.106098 0.500000
O O15 0.233641 0.144381 0.672834
O O16 0.826986 0.713129 0.295759
O O17 0.250000 0.250000 0.805751
#
# Coordination Sequence:
#
# PCOD9497758 Si02
#       7
#    16  16  16  16  16  16  16
#     4  11  24  41  64  94 125 156 196 251 311 374
#     4  10  21  40  63  92 130 165 196 237 297 370
#     4  10  23  43  62  83 119 164 212 259 305 355
#     4  10  21  34  53  82 119 160 196 233 278 340
#     4  10  21  35  53  82 120 161 200 239 289 349
#     4  11  23  40  61  91 118 159 205 254 309 361
#     4  12  21  32  58  85 120 156 196 243 296 351
#
# _framework density 19.194853999999999
#
# number of rings (size 3 to 8) (size 9 to 14) (size 15 to 20)
#    0.000    1.429    2.857    3.000    4.000    4.000 
#    0.000    1.429    0.000    0.857    0.000    0.000 
#    0.000    0.000    0.000    0.000    0.000    0.000 
#
# Total GULP energy -312564.858234 kJ/mol
# GULP energy per Si atom -5581.515326 kJ/mol
# Density = 1.915117 g / cm^3
# Si number density = 19.194854 Si / 1000 Ang^3
#
#
#
# Elastic Constant Matrix: (Units=GPa)
#
#
# Indices 1 2 3 4 5 6 
#
# 1 103.5217 27.6483 9.8213 0.0000 0.0000 0.0000
# 2 27.6483 54.0324 13.2771 0.0000 0.0000 0.0000
# 3 9.8213 13.2771 91.1409 0.0000 0.0000 0.0000
# 4 0.0000 0.0000 0.0000 74.6800 0.0000 0.0000
# 5 0.0000 0.0000 0.0000 0.0000 8.1415 0.0000
# 6 0.0000 0.0000 0.0000 0.0000 0.0000 21.9874
#
#
#
# Elastic Compliance Matrix: (Units=1/GPa)
#
#
# Indices 1 2 3 4 5 6 
#
# 1 0.011202 -0.005637 -0.000386 0.000000 0.000000 0.000000
# 2 -0.005637 0.022031 -0.002602 0.000000 0.000000 0.000000
# 3 -0.000386 -0.002602 0.011393 0.000000 0.000000 0.000000
# 4 0.000000 0.000000 0.000000 0.013390 0.000000 0.000000
# 5 0.000000 0.000000 0.000000 0.000000 0.122827 0.000000
# 6 0.000000 0.000000 0.000000 0.000000 0.000000 0.045481
#
#
# Mechanical properties :
#
#
# Convention : Reuss Voigt Hill
#
# Bulk Modulus (GPa) = 36.52863 38.90980 37.71922
# Shear Modulus (GPa) = 19.78632 34.15835 26.97233
#
# Velocity S-wave (km/s) = 3.21411 4.22306 3.75265
# Velocity P-wave (km/s) = 5.73112 6.64032 6.20241
#
# Compressibility (1/GPa) = 0.02737579
#
# Stress axis : x y z
#
# Youngs Moduli (GPa) = 89.26987 45.38987 87.77580
#
# Poissons Ratio (x) = 0.25587 0.03387
# Poissons Ratio (y) = 0.50323 0.22839
# Poissons Ratio (z) = 0.03445 0.11810
#
# Static dielectric constant tensor:
#      x y z
#    x 1.673150 0.000000 0.000000 
#    y 0.000000 1.712210 0.000000 
#    z 0.000000 0.000000 1.715740 
# 
# From -- ./inp_files/33811.got.cif
#   From: 2010.05.17/outbox.cif.g08.bks.cpg/sg66_17_cif.got.tgz:33811.got - 2010.06.03 17:51:23.
