data_PCOD9497669
_publ_section_title
;
Structure prediction by ZEFSAII (Michael W. Deem and Ramdas Pophale) SiO2 
 PCOD9497669
Probable space group: C C C M
;
_chemical_formula_sum "Si O2"
_cell_formula_units_Z 112
_cell_length_a 22.005278
_cell_length_b 11.958861
_cell_length_c 16.606368
_cell_angle_alpha 90.000000
_cell_angle_beta 90.000000
_cell_angle_gamma 90.000000
_cell_volume 4370.099601
_symmetry_space_group_name_H-M "C C C M"
_symmetry_group_IT_number 66
_symmetry_cell_setting 'orthorhombic'
loop_
_space_group_symop_operation_xyz
x,y,z
-x,-y,z
x,-y,1/2-z
-x,y,1/2-z
-x,-y,-z
x,y,-z
-x,y,1/2+z
x,-y,1/2+z
1/2+x,1/2+y,z
1/2-x,1/2-y,z
1/2+x,1/2-y,1/2-z
1/2-x,1/2+y,1/2-z
1/2-x,1/2-y,-z
1/2+x,1/2+y,-z
1/2-x,1/2+y,1/2+z
1/2+x,1/2-y,1/2+z
loop_
_atom_site_type_symbol
_atom_site_label
_atom_site_fract_x
_atom_site_fract_y
_atom_site_fract_z
Si Si1 0.168467 0.827750 0.363824
Si Si2 0.813202 0.882780 0.300369
Si Si3 0.076638 0.664469 0.413632
Si Si4 0.772387 0.494593 0.906526
Si Si5 0.418632 0.703459 0.093238
Si Si6 0.465973 0.643142 0.667831
Si Si7 0.597108 0.046862 0.838262
O O1 0.186819 0.795673 0.272878
O O2 0.145268 0.717585 0.410324
O O3 0.102740 0.893982 0.353929
O O4 0.223017 0.902571 0.399131
O O5 0.763319 0.888952 0.369046
O O6 0.873858 0.864385 0.349398
O O7 0.808442 0.000000 0.250000
O O8 0.051492 0.700495 0.500000
O O9 0.047414 0.723863 0.336518
O O10 0.068085 0.535303 0.403661
O O11 0.832249 0.489375 0.851883
O O12 0.788524 0.482842 0.000000
O O13 0.482086 0.635989 0.101152
O O14 0.416494 0.826948 0.134686
O O15 0.400521 0.711432 0.000000
O O16 0.500000 0.613728 0.750000
O O17 0.580498 0.000000 0.750000
#
# Coordination Sequence:
#
# PCOD9497669 Si02
#       7
#    16  16  16  16  16  16  16
#     4   9  20  39  65  91 129 171 223 273 340 409
#     4  10  21  42  65  93 125 171 222 273 343 420
#     4  10  21  39  64  97 133 173 227 285 342 404
#     4  11  23  41  65  96 134 174 227 291 348 408
#     4  12  24  41  67 101 139 178 230 294 357 415
#     4  10  20  40  66  94 135 179 225 280 344 418
#     4  12  25  43  65  96 137 184 235 279 345 428
#
# _framework density 25.628706000000001
#
# number of rings (size 3 to 8) (size 9 to 14) (size 15 to 20)
#    0.857    0.571    1.429    5.571    0.000    1.714 
#    0.000   15.000    0.000    4.286    0.000    0.000 
#    0.000    0.000    0.000    0.000    0.000    0.000 
#
# Total GULP energy -311906.673909 kJ/mol
# GULP energy per Si atom -5569.762034 kJ/mol
# Density = 2.557037 g / cm^3
# Si number density = 25.628706 Si / 1000 Ang^3
#
#
#
# Elastic Constant Matrix: (Units=GPa)
#
#
# Indices 1 2 3 4 5 6 
#
# 1 109.0934 16.0434 8.2908 0.0000 0.0000 0.0000
# 2 16.0434 99.6006 22.9361 0.0000 0.0000 0.0000
# 3 8.2908 22.9361 160.0381 0.0000 0.0000 0.0000
# 4 0.0000 0.0000 0.0000 23.0716 0.0000 0.0000
# 5 0.0000 0.0000 0.0000 0.0000 37.0663 0.0000
# 6 0.0000 0.0000 0.0000 0.0000 0.0000 22.9355
#
#
#
# Elastic Compliance Matrix: (Units=1/GPa)
#
#
# Indices 1 2 3 4 5 6 
#
# 1 0.009401 -0.001450 -0.000279 0.000000 0.000000 0.000000
# 2 -0.001450 0.010606 -0.001445 0.000000 0.000000 0.000000
# 3 -0.000279 -0.001445 0.006470 0.000000 0.000000 0.000000
# 4 0.000000 0.000000 0.000000 0.043343 0.000000 0.000000
# 5 0.000000 0.000000 0.000000 0.000000 0.026979 0.000000
# 6 0.000000 0.000000 0.000000 0.000000 0.000000 0.043601
#
#
# Mechanical properties :
#
#
# Convention : Reuss Voigt Hill
#
# Bulk Modulus (GPa) = 49.67934 51.47474 50.57704
# Shear Modulus (GPa) = 32.58221 38.04546 35.31383
#
# Velocity S-wave (km/s) = 3.56942 3.85708 3.71604
# Velocity P-wave (km/s) = 6.03440 6.32175 6.17975
#
# Compressibility (1/GPa) = 0.02012909
#
# Stress axis : x y z
#
# Youngs Moduli (GPa) = 106.37267 94.28261 154.55796
#
# Poissons Ratio (x) = 0.13671 0.04315
# Poissons Ratio (y) = 0.15424 0.22333
# Poissons Ratio (z) = 0.02970 0.13623
#
# Static dielectric constant tensor:
#      x y z
#    x 2.207320 0.000000 0.000000 
#    y 0.000000 2.129890 0.000000 
#    z 0.000000 0.000000 2.004130 
# 
# From -- ./inp_files/33295.got.cif
#   From: 2010.05.17/outbox.cif.g08.bks.cpg/sg66_17_cif.got.tgz:33295.got - 2010.06.03 17:51:23.
