data_PCOD9497359
_publ_section_title
;
Structure prediction by ZEFSAII (Michael W. Deem and Ramdas Pophale) SiO2 
 PCOD9497359
Probable space group: C C C M
;
_chemical_formula_sum "Si O2"
_cell_formula_units_Z 96
_cell_length_a 7.391060
_cell_length_b 21.139724
_cell_length_c 26.513258
_cell_angle_alpha 90.000000
_cell_angle_beta 90.000000
_cell_angle_gamma 90.000000
_cell_volume 4142.563160
_symmetry_space_group_name_H-M "C C C M"
_symmetry_group_IT_number 66
_symmetry_cell_setting 'orthorhombic'
loop_
_space_group_symop_operation_xyz
x,y,z
-x,-y,z
x,-y,1/2-z
-x,y,1/2-z
-x,-y,-z
x,y,-z
-x,y,1/2+z
x,-y,1/2+z
1/2+x,1/2+y,z
1/2-x,1/2-y,z
1/2+x,1/2-y,1/2-z
1/2-x,1/2+y,1/2-z
1/2-x,1/2-y,-z
1/2+x,1/2+y,-z
1/2-x,1/2+y,1/2+z
1/2+x,1/2-y,1/2+z
loop_
_atom_site_type_symbol
_atom_site_label
_atom_site_fract_x
_atom_site_fract_y
_atom_site_fract_z
Si Si1 0.208924 0.175864 0.055279
Si Si2 0.223464 0.154415 0.554329
Si Si3 0.246250 0.362123 0.659548
Si Si4 0.844493 0.406170 0.352263
Si Si5 0.288275 0.818951 0.735191
Si Si6 0.179172 0.030031 0.600582
O O1 0.250000 0.250000 0.060175
O O2 0.300782 0.138727 0.100450
O O3 0.993181 0.163861 0.055033
O O4 0.275743 0.154594 0.000000
O O5 0.291878 0.177510 0.500000
O O6 0.281877 0.180000 0.609101
O O7 0.267673 0.079132 0.561188
O O8 0.303623 0.327930 0.710174
O O9 0.380588 0.418399 0.642995
O O10 0.054821 0.398854 0.663267
O O11 0.748741 0.375372 0.303333
O O12 0.790975 0.475151 0.372375
O O13 0.500000 0.819003 0.750000
O O14 0.250000 0.750000 0.712691
O O15 0.000000 0.000000 0.577373
#
# Coordination Sequence:
#
# PCOD9497359 Si02
#       6
#    16  16  16  16  16  16
#     4  10  21  37  58  85 118 157 201 247 297 355
#     4   9  20  38  58  83 118 155 196 245 303 360
#     4   9  22  38  56  88 120 151 195 245 300 357
#     4  11  20  38  60  87 118 153 199 244 302 355
#     4  10  23  40  61  86 118 159 197 246 298 356
#     4  10  20  37  58  86 117 154 195 244 299 356
#
# _framework density 23.174057000000001
#
# number of rings (size 3 to 8) (size 9 to 14) (size 15 to 20)
#    1.000    1.167    1.667    1.000    0.000    7.667 
#    0.000    4.167    0.000    3.500    0.000    0.000 
#    0.000    0.000    0.000    0.000    0.000    0.000 
#
# Total GULP energy -267350.265933 kJ/mol
# GULP energy per Si atom -5569.797207 kJ/mol
# Density = 2.312131 g / cm^3
# Si number density = 23.174057 Si / 1000 Ang^3
#
#
#
# Elastic Constant Matrix: (Units=GPa)
#
#
# Indices 1 2 3 4 5 6 
#
# 1 44.7692 -0.8089 -3.3151 0.0000 0.0000 0.0000
# 2 -0.8089 105.2188 40.6324 0.0000 0.0000 0.0000
# 3 -3.3151 40.6324 142.2027 0.0000 0.0000 0.0000
# 4 0.0000 0.0000 0.0000 -9.0010 0.0000 0.0000
# 5 0.0000 0.0000 0.0000 0.0000 12.1369 0.0000
# 6 0.0000 0.0000 0.0000 0.0000 0.0000 21.8759
#
#
#
# Elastic Compliance Matrix: (Units=1/GPa)
#
#
# Indices 1 2 3 4 5 6 
#
# 1 0.022376 -0.000033 0.000531 0.000000 0.000000 0.000000
# 2 -0.000033 0.010683 -0.003053 0.000000 0.000000 0.000000
# 3 0.000531 -0.003053 0.007917 0.000000 0.000000 0.000000
# 4 0.000000 0.000000 0.000000 -0.111098 0.000000 0.000000
# 5 0.000000 0.000000 0.000000 0.000000 0.082393 0.000000
# 6 0.000000 0.000000 0.000000 0.000000 0.000000 0.045712
#
#
# Mechanical properties :
#
#
# Convention : Reuss Voigt Hill
#
# Bulk Modulus (GPa) = 27.88242 40.57861 34.23052
# Shear Modulus (GPa) = 66.62407 22.04784 44.33595
#
# Velocity S-wave (km/s) = 5.36767 3.08783 4.37873
# Velocity P-wave (km/s) = 7.10448 5.50102 6.35354
#
# Compressibility (1/GPa) = 0.03586490
#
# Stress axis : x y z
#
# Youngs Moduli (GPa) = 44.69170 93.60823 126.31020
#
# Poissons Ratio (x) = 0.00310 -0.06708
# Poissons Ratio (y) = 0.00148 0.38565
# Poissons Ratio (z) = -0.02373 0.28581
#
# Static dielectric constant tensor:
#      x y z
#    x 1.987510 0.000000 0.000000 
#    y 0.000000 1.871650 0.000000 
#    z 0.000000 0.000000 1.939400 
# 
# From -- ./inp_files/62768.got.cif
#   From: 2010.05.17/outbox.cif.g08.bks.cpg/sg66_32_cif.got.tgz:62768.got - 2010.06.03 17:51:23.
