data_PCOD9497239
_publ_section_title
;
Structure prediction by ZEFSAII (Michael W. Deem and Ramdas Pophale) SiO2 
 PCOD9497239
Probable space group: C C C M
;
_chemical_formula_sum "Si O2"
_cell_formula_units_Z 88
_cell_length_a 11.541057
_cell_length_b 25.559183
_cell_length_c 14.936769
_cell_angle_alpha 90.000000
_cell_angle_beta 90.000000
_cell_angle_gamma 90.000000
_cell_volume 4406.047939
_symmetry_space_group_name_H-M "C C C M"
_symmetry_group_IT_number 66
_symmetry_cell_setting 'orthorhombic'
loop_
_space_group_symop_operation_xyz
x,y,z
-x,-y,z
x,-y,1/2-z
-x,y,1/2-z
-x,-y,-z
x,y,-z
-x,y,1/2+z
x,-y,1/2+z
1/2+x,1/2+y,z
1/2-x,1/2-y,z
1/2+x,1/2-y,1/2-z
1/2-x,1/2+y,1/2-z
1/2-x,1/2-y,-z
1/2+x,1/2+y,-z
1/2-x,1/2+y,1/2+z
1/2+x,1/2-y,1/2+z
loop_
_atom_site_type_symbol
_atom_site_label
_atom_site_fract_x
_atom_site_fract_y
_atom_site_fract_z
Si Si1 0.555365 0.139254 0.000000
Si Si2 0.500798 0.439883 0.105402
Si Si3 0.611180 0.346567 0.188431
Si Si4 0.679453 0.804313 0.000000
Si Si5 0.197324 0.807541 0.000000
Si Si6 0.237911 0.118169 0.151937
Si Si7 0.967709 0.441222 0.353452
O O1 0.461683 0.187743 0.000000
O O2 0.688590 0.155881 0.000000
O O3 0.528104 0.102331 0.914933
O O4 0.500000 0.500000 0.132562
O O5 0.591716 0.406836 0.161027
O O6 0.381965 0.408803 0.122930
O O7 0.527492 0.437546 0.000000
O O8 0.500000 0.329190 0.250000
O O9 0.720212 0.351486 0.254251
O O10 0.628081 0.317398 0.093509
O O11 0.750000 0.750000 0.000000
O O12 0.723285 0.837271 0.915789
O O13 0.250000 0.750000 0.000000
O O14 0.332119 0.072442 0.145103
O O15 0.000000 0.500000 0.382902
O O16 0.000000 0.435969 0.250000
#
# Coordination Sequence:
#
# PCOD9497239 Si02
#       7
#     8  16  16   8   8  16  16
#     4  10  23  40  60  90 124 160 205 263 311 369
#     4  10  20  36  59  91 125 161 202 247 311 380
#     4  10  23  41  65  91 127 166 209 262 313 378
#     4  10  22  41  66  89 118 167 219 269 315 369
#     4  12  26  45  64  93 130 165 206 266 327 366
#     4  10  21  38  61  89 123 159 211 260 306 373
#     4  10  21  38  59  87 122 163 205 247 303 375
#
# _framework density 19.972546000000001
#
# number of rings (size 3 to 8) (size 9 to 14) (size 15 to 20)
#    0.000    1.818    1.818    1.364    0.000   11.273 
#    0.000    2.727    0.000    0.000    0.000    0.000 
#    0.000    0.000    0.000    0.000    0.000    0.000 
#
# Total GULP energy -245364.540885 kJ/mol
# GULP energy per Si atom -5576.466838 kJ/mol
# Density = 1.992709 g / cm^3
# Si number density = 19.972546 Si / 1000 Ang^3
#
#
#
# Elastic Constant Matrix: (Units=GPa)
#
#
# Indices 1 2 3 4 5 6 
#
# 1 61.5761 20.8868 36.1116 0.0000 0.0000 0.0000
# 2 20.8868 73.3684 38.2629 0.0000 0.0000 0.0000
# 3 36.1116 38.2629 139.9425 0.0000 0.0000 0.0000
# 4 0.0000 0.0000 0.0000 -24.7625 0.0000 0.0000
# 5 0.0000 0.0000 0.0000 0.0000 58.7040 0.0000
# 6 0.0000 0.0000 0.0000 0.0000 0.0000 25.1972
#
#
#
# Elastic Compliance Matrix: (Units=1/GPa)
#
#
# Indices 1 2 3 4 5 6 
#
# 1 0.019869 -0.003479 -0.004176 0.000000 0.000000 0.000000
# 2 -0.003479 0.016506 -0.003615 0.000000 0.000000 0.000000
# 3 -0.004176 -0.003615 0.009212 0.000000 0.000000 0.000000
# 4 0.000000 0.000000 0.000000 -0.040384 0.000000 0.000000
# 5 0.000000 0.000000 0.000000 0.000000 0.017035 0.000000
# 6 0.000000 0.000000 0.000000 0.000000 0.000000 0.039687
#
#
# Mechanical properties :
#
#
# Convention : Reuss Voigt Hill
#
# Bulk Modulus (GPa) = 43.39003 51.71218 47.55110
# Shear Modulus (GPa) = 54.26147 23.80280 39.03213
#
# Velocity S-wave (km/s) = 5.21795 3.45596 4.42553
# Velocity P-wave (km/s) = 7.62067 6.47091 7.06921
#
# Compressibility (1/GPa) = 0.02304677
#
# Stress axis : x y z
#
# Youngs Moduli (GPa) = 50.32954 60.58560 108.55525
#
# Poissons Ratio (x) = 0.21075 0.45333
# Poissons Ratio (y) = 0.17507 0.39246
# Poissons Ratio (z) = 0.21018 0.21904
#
# Static dielectric constant tensor:
#      x y z
#    x 2.123910 0.000000 0.000000 
#    y 0.000000 1.668810 0.000000 
#    z 0.000000 0.000000 1.745530 
# 
# From -- ./inp_files/26592.got.cif
#   From: 2010.05.17/outbox.cif.g08.bks.cpg/sg66_14_cif.got.tgz:26592.got - 2010.06.03 17:51:23.
