data_PCOD9497769
_publ_section_title
;
Structure prediction by ZEFSAII (Michael W. Deem and Ramdas Pophale) SiO2 
 PCOD9497769
Probable space group: C C C M
;
_chemical_formula_sum "Si O2"
_cell_formula_units_Z 108
_cell_length_a 10.696162
_cell_length_b 31.898565
_cell_length_c 15.146486
_cell_angle_alpha 90.000000
_cell_angle_beta 90.000000
_cell_angle_gamma 90.000000
_cell_volume 5167.863165
_symmetry_space_group_name_H-M "C C C M"
_symmetry_group_IT_number 66
_symmetry_cell_setting 'orthorhombic'
loop_
_space_group_symop_operation_xyz
x,y,z
-x,-y,z
x,-y,1/2-z
-x,y,1/2-z
-x,-y,-z
x,y,-z
-x,y,1/2+z
x,-y,1/2+z
1/2+x,1/2+y,z
1/2-x,1/2-y,z
1/2+x,1/2-y,1/2-z
1/2-x,1/2+y,1/2-z
1/2-x,1/2-y,-z
1/2+x,1/2+y,-z
1/2-x,1/2+y,1/2+z
1/2+x,1/2-y,1/2+z
loop_
_atom_site_type_symbol
_atom_site_label
_atom_site_fract_x
_atom_site_fract_y
_atom_site_fract_z
Si Si1 0.594670 0.559374 0.667635
Si Si2 0.000000 0.000000 0.000000
Si Si3 0.858971 0.549187 0.241084
Si Si4 0.280563 0.110758 0.098974
Si Si5 0.250000 0.750000 0.843235
Si Si6 0.866005 0.690850 0.790749
Si Si7 0.025393 0.233235 0.899873
Si Si8 0.996620 0.859346 0.100266
O O1 0.500000 0.549095 0.750000
O O2 0.554822 0.532410 0.580506
O O3 0.740524 0.555561 0.694040
O O4 0.583560 0.609384 0.651987
O O5 0.874566 0.500000 0.250000
O O6 0.813919 0.568080 0.148209
O O7 0.000000 0.567774 0.250000
O O8 0.322288 0.151326 0.153830
O O9 0.131963 0.115038 0.094437
O O10 0.332187 0.112180 0.000000
O O11 0.227647 0.708599 0.783255
O O12 0.121050 0.754935 0.895364
O O13 0.000000 0.679413 0.750000
O O14 0.896817 0.731960 0.848973
O O15 0.032691 0.186393 0.861778
O O16 0.071083 0.231617 0.000000
O O17 0.044030 0.852316 0.000000
#
# Coordination Sequence:
#
# PCOD9497769 Si02
#       8
#    16   4  16  16   8  16  16  16
#     4  12  24  44  76 105 143 188 229 299 362 435
#     4  12  26  44  76 116 148 172 258 298 378 444
#     4  11  26  49  71 101 140 183 232 290 363 430
#     4  11  23  42  68  97 136 179 234 293 351 429
#     4  10  21  34  59  88 126 174 220 282 345 409
#     4  10  21  37  59  91 128 178 230 282 353 417
#     4  10  21  38  60  88 130 176 228 285 344 421
#     4  10  22  39  63 101 135 173 234 295 355 422
#
# _framework density 20.898385999999999
#
# number of rings (size 3 to 8) (size 9 to 14) (size 15 to 20)
#    0.000    1.333    2.222    3.111    2.074    1.778 
#    1.333    3.704    0.000    0.000    0.000    0.000 
#    0.000    0.000    0.000    0.000    0.000    0.000 
#
# Total GULP energy -300709.032467 kJ/mol
# GULP energy per Si atom -5568.685786 kJ/mol
# Density = 2.085082 g / cm^3
# Si number density = 20.898386 Si / 1000 Ang^3
#
#
#
# Elastic Constant Matrix: (Units=GPa)
#
#
# Indices 1 2 3 4 5 6 
#
# 1 85.5706 14.4035 22.6216 0.0000 0.0000 0.0000
# 2 14.4035 107.9925 38.7895 0.0000 0.0000 0.0000
# 3 22.6216 38.7895 104.4373 0.0000 0.0000 0.0000
# 4 0.0000 0.0000 0.0000 7.9789 0.0000 0.0000
# 5 0.0000 0.0000 0.0000 0.0000 -3.3385 0.0000
# 6 0.0000 0.0000 0.0000 0.0000 0.0000 20.3008
#
#
#
# Elastic Compliance Matrix: (Units=1/GPa)
#
#
# Indices 1 2 3 4 5 6 
#
# 1 0.012456 -0.000799 -0.002401 0.000000 0.000000 0.000000
# 2 -0.000799 0.010737 -0.003815 0.000000 0.000000 0.000000
# 3 -0.002401 -0.003815 0.011512 0.000000 0.000000 0.000000
# 4 0.000000 0.000000 0.000000 0.125331 0.000000 0.000000
# 5 0.000000 0.000000 0.000000 0.000000 -0.299539 0.000000
# 6 0.000000 0.000000 0.000000 0.000000 0.000000 0.049259
#
#
# Mechanical properties :
#
#
# Convention : Reuss Voigt Hill
#
# Bulk Modulus (GPa) = 48.36813 49.95883 49.16348
# Shear Modulus (GPa) = -72.12603 19.80062 -26.16271
#
# Velocity S-wave (km/s) = -5.88113 3.08144 -3.54206
# Velocity P-wave (km/s) = 4.78771 6.05127 2.61684
#
# Compressibility (1/GPa) = 0.02067477
#
# Stress axis : x y z
#
# Youngs Moduli (GPa) = 80.28576 93.13905 86.86522
#
# Poissons Ratio (x) = 0.07440 0.20858
# Poissons Ratio (y) = 0.06413 0.33137
# Poissons Ratio (z) = 0.19279 0.35530
#
# Static dielectric constant tensor:
#      x y z
#    x 1.879760 0.000000 0.000000 
#    y 0.000000 1.705520 0.000000 
#    z 0.000000 0.000000 1.812980 
# 
# From -- ./inp_files/27060.got.cif
#   From: 2010.05.17/outbox.cif.g08.bks.cpg/sg66_14_cif.got.tgz:27060.got - 2010.06.03 17:51:23.
