data_PCOD9497681
_publ_section_title
;
Structure prediction by ZEFSAII (Michael W. Deem and Ramdas Pophale) SiO2 
 PCOD9497681
Probable space group: C C C M
;
_chemical_formula_sum "Si O2"
_cell_formula_units_Z 60
_cell_length_a 12.037229
_cell_length_b 9.594067
_cell_length_c 23.572624
_cell_angle_alpha 90.000000
_cell_angle_beta 90.000000
_cell_angle_gamma 90.000000
_cell_volume 2722.307620
_symmetry_space_group_name_H-M "C C C M"
_symmetry_group_IT_number 66
_symmetry_cell_setting 'orthorhombic'
loop_
_space_group_symop_operation_xyz
x,y,z
-x,-y,z
x,-y,1/2-z
-x,y,1/2-z
-x,-y,-z
x,y,-z
-x,y,1/2+z
x,-y,1/2+z
1/2+x,1/2+y,z
1/2-x,1/2-y,z
1/2+x,1/2-y,1/2-z
1/2-x,1/2+y,1/2-z
1/2-x,1/2-y,-z
1/2+x,1/2+y,-z
1/2-x,1/2+y,1/2+z
1/2+x,1/2-y,1/2+z
loop_
_atom_site_type_symbol
_atom_site_label
_atom_site_fract_x
_atom_site_fract_y
_atom_site_fract_z
Si Si1 0.894539 0.396613 0.062550
Si Si2 0.000000 0.000000 0.151817
Si Si3 0.121538 0.737484 0.819731
Si Si4 0.500000 0.000000 0.250000
Si Si5 0.187199 0.104690 0.065256
O O1 0.891646 0.288423 0.112973
O O2 0.783173 0.488011 0.066604
O O3 0.000000 0.500000 0.068209
O O4 0.900447 0.331559 0.000000
O O5 0.943798 0.119984 0.189248
O O6 0.093683 0.067963 0.110809
O O7 0.250000 0.750000 0.804751
O O8 0.071754 0.603354 0.788733
O O9 0.250000 0.250000 0.078006
O O10 0.144767 0.113852 0.000000
#
# Coordination Sequence:
#
# PCOD9497681 Si02
#       5
#    16   8  16   4  16
#     4  10  20  40  71 107 150 191 233 289 362 437
#     4  12  25  41  74 106 142 180 243 293 356 428
#     4  12  27  50  76 107 141 190 241 305 365 430
#     4  12  32  54  74  98 140 186 256 306 366 422
#     4  10  21  37  63 106 156 196 228 281 351 430
#
# _framework density 22.040123999999999
#
# number of rings (size 3 to 8) (size 9 to 14) (size 15 to 20)
#    0.000    1.067    4.000    2.000    0.000    7.467 
#    0.000    0.000    0.000    0.000    0.000    0.000 
#    0.000    0.000    0.000    0.000    0.000    0.000 
#
# Total GULP energy -168024.268988 kJ/mol
# GULP energy per Si atom -5600.808966 kJ/mol
# Density = 2.198996 g / cm^3
# Si number density = 22.040124 Si / 1000 Ang^3
#
#
#
# Elastic Constant Matrix: (Units=GPa)
#
#
# Indices 1 2 3 4 5 6 
#
# 1 157.0547 68.4006 51.6806 0.0000 0.0000 0.0000
# 2 68.4006 146.4274 57.9119 0.0000 0.0000 0.0000
# 3 51.6806 57.9119 78.8271 0.0000 0.0000 0.0000
# 4 0.0000 0.0000 0.0000 -13.6317 0.0000 0.0000
# 5 0.0000 0.0000 0.0000 0.0000 28.2792 0.0000
# 6 0.0000 0.0000 0.0000 0.0000 0.0000 41.0320
#
#
#
# Elastic Compliance Matrix: (Units=1/GPa)
#
#
# Indices 1 2 3 4 5 6 
#
# 1 0.008752 -0.002564 -0.003854 0.000000 0.000000 0.000000
# 2 -0.002564 0.010378 -0.005943 0.000000 0.000000 0.000000
# 3 -0.003854 -0.005943 0.019579 0.000000 0.000000 0.000000
# 4 0.000000 0.000000 0.000000 -0.073358 0.000000 0.000000
# 5 0.000000 0.000000 0.000000 0.000000 0.035362 0.000000
# 6 0.000000 0.000000 0.000000 0.000000 0.000000 0.024371
#
#
# Mechanical properties :
#
#
# Convention : Reuss Voigt Hill
#
# Bulk Modulus (GPa) = 71.50005 82.03279 76.76642
# Shear Modulus (GPa) = 91.79620 24.75697 58.27659
#
# Velocity S-wave (km/s) = 6.46065 3.35516 5.14767
# Velocity P-wave (km/s) = 9.38960 7.23256 8.38077
#
# Compressibility (1/GPa) = 0.01398600
#
# Stress axis : x y z
#
# Youngs Moduli (GPa) = 114.25656 96.36226 51.07458
#
# Poissons Ratio (x) = 0.24707 0.19686
# Poissons Ratio (y) = 0.29295 0.30354
# Poissons Ratio (z) = 0.44040 0.57268
#
# Static dielectric constant tensor:
#      x y z
#    x 1.782260 0.000000 0.000000 
#    y 0.000000 1.773940 0.000000 
#    z 0.000000 0.000000 1.802960 
# 
# From -- ./inp_files/63262.got.cif
#   From: 2010.05.17/outbox.cif.g08.bks.cpg/sg66_32_cif.got.tgz:63262.got - 2010.06.03 17:51:23.
