data_PCOD9497730
_publ_section_title
;
Structure prediction by ZEFSAII (Michael W. Deem and Ramdas Pophale) SiO2 
 PCOD9497730
Probable space group: C C C M
;
_chemical_formula_sum "Si O2"
_cell_formula_units_Z 60
_cell_length_a 17.207885
_cell_length_b 16.174310
_cell_length_c 9.182337
_cell_angle_alpha 90.000000
_cell_angle_beta 90.000000
_cell_angle_gamma 90.000000
_cell_volume 2555.680065
_symmetry_space_group_name_H-M "C C C M"
_symmetry_group_IT_number 66
_symmetry_cell_setting 'orthorhombic'
loop_
_space_group_symop_operation_xyz
x,y,z
-x,-y,z
x,-y,1/2-z
-x,y,1/2-z
-x,-y,-z
x,y,-z
-x,y,1/2+z
x,-y,1/2+z
1/2+x,1/2+y,z
1/2-x,1/2-y,z
1/2+x,1/2-y,1/2-z
1/2-x,1/2+y,1/2-z
1/2-x,1/2-y,-z
1/2+x,1/2+y,-z
1/2-x,1/2+y,1/2+z
1/2+x,1/2-y,1/2+z
loop_
_atom_site_type_symbol
_atom_site_label
_atom_site_fract_x
_atom_site_fract_y
_atom_site_fract_z
Si Si1 0.250000 0.750000 0.255160
Si Si2 0.912414 0.041956 0.000000
Si Si3 0.769673 0.864750 0.500000
Si Si4 0.290278 0.863526 0.500000
Si Si5 0.000000 0.500000 0.750000
Si Si6 0.500000 0.639889 0.750000
Si Si7 0.615011 0.039294 0.000000
Si Si8 0.601621 0.349041 0.500000
O O1 0.304027 0.807302 0.357209
O O2 0.209800 0.812446 0.142631
O O3 0.820269 0.053831 0.000000
O O4 0.944358 0.085449 0.854518
O O5 0.925811 0.945220 0.000000
O O6 0.680246 0.890420 0.500000
O O7 0.194553 0.860174 0.500000
O O8 0.337985 0.949567 0.500000
O O9 0.940883 0.545669 0.640005
O O10 0.441856 0.687028 0.641155
#
# Coordination Sequence:
#
# PCOD9497730 Si02
#       8
#     8   8   8   8   4   8   8   8
#     4  10  24  38  60  94 128 162 198 266 320 368
#     4  11  19  34  55  87 115 158 194 242 274 346
#     4  11  22  41  66  90 123 162 216 255 310 379
#     4  11  22  41  66  90 123 162 216 255 310 379
#     4  10  24  38  68 104 126 144 212 292 356 374
#     4  10  21  30  50  85 133 152 184 235 296 313
#     4  11  22  44  70  99 122 162 216 279 328 392
#     4  11  19  34  55  87 115 158 194 242 274 346
#
# _framework density 23.477117
#
# number of rings (size 3 to 8) (size 9 to 14) (size 15 to 20)
#    0.000    1.333    1.333    6.400    0.000    0.000 
#    0.000    0.000    0.000  112.000    0.000    0.000 
#    0.000    0.000    0.000    0.000    0.000    0.000 
#
# Total GULP energy -167298.397706 kJ/mol
# GULP energy per Si atom -5576.613257 kJ/mol
# Density = 2.342368 g / cm^3
# Si number density = 23.477117 Si / 1000 Ang^3
#
#
#
# Elastic Constant Matrix: (Units=GPa)
#
#
# Indices 1 2 3 4 5 6 
#
# 1 157.5488 18.7764 50.9314 0.0000 0.0000 0.0000
# 2 18.7764 63.3207 22.7237 0.0000 0.0000 0.0000
# 3 50.9314 22.7237 174.1842 0.0000 0.0000 0.0000
# 4 0.0000 0.0000 0.0000 6.0188 0.0000 0.0000
# 5 0.0000 0.0000 0.0000 0.0000 16.7187 0.0000
# 6 0.0000 0.0000 0.0000 0.0000 0.0000 32.4021
#
#
#
# Elastic Compliance Matrix: (Units=1/GPa)
#
#
# Indices 1 2 3 4 5 6 
#
# 1 0.007132 -0.001434 -0.001898 0.000000 0.000000 0.000000
# 2 -0.001434 0.016856 -0.001780 0.000000 0.000000 0.000000
# 3 -0.001898 -0.001780 0.006528 0.000000 0.000000 0.000000
# 4 0.000000 0.000000 0.000000 0.166145 0.000000 0.000000
# 5 0.000000 0.000000 0.000000 0.000000 0.059813 0.000000
# 6 0.000000 0.000000 0.000000 0.000000 0.000000 0.030862
#
#
# Mechanical properties :
#
#
# Convention : Reuss Voigt Hill
#
# Bulk Modulus (GPa) = 49.27791 64.43519 56.85655
# Shear Modulus (GPa) = 16.42981 31.20273 23.81627
#
# Velocity S-wave (km/s) = 2.64829 3.64960 3.18849
# Velocity P-wave (km/s) = 5.51240 6.72792 6.15026
#
# Compressibility (1/GPa) = 0.02029307
#
# Stress axis : x y z
#
# Youngs Moduli (GPa) = 140.21785 59.32445 153.17892
#
# Poissons Ratio (x) = 0.08504 0.29078
# Poissons Ratio (y) = 0.20101 0.27264
# Poissons Ratio (z) = 0.26618 0.10559
#
# Static dielectric constant tensor:
#      x y z
#    x 1.947160 0.000000 0.000000 
#    y 0.000000 1.887330 0.000000 
#    z 0.000000 0.000000 1.895420 
# 
# From -- ./inp_files/6077.got.cif
#   From: 2010.05.17/outbox.cif.g08.bks.cpg/sg66_4_cif.got.tgz:6077.got - 2010.06.03 17:51:23.
