data_PCOD9497744
_publ_section_title
;
Structure prediction by ZEFSAII (Michael W. Deem and Ramdas Pophale) SiO2 
 PCOD9497744
Probable space group: C C C M
;
_chemical_formula_sum "Si O2"
_cell_formula_units_Z 112
_cell_length_a 17.323813
_cell_length_b 36.839520
_cell_length_c 10.544141
_cell_angle_alpha 90.000000
_cell_angle_beta 90.000000
_cell_angle_gamma 90.000000
_cell_volume 6729.280861
_symmetry_space_group_name_H-M "C C C M"
_symmetry_group_IT_number 66
_symmetry_cell_setting 'orthorhombic'
loop_
_space_group_symop_operation_xyz
x,y,z
-x,-y,z
x,-y,1/2-z
-x,y,1/2-z
-x,-y,-z
x,y,-z
-x,y,1/2+z
x,-y,1/2+z
1/2+x,1/2+y,z
1/2-x,1/2-y,z
1/2+x,1/2-y,1/2-z
1/2-x,1/2+y,1/2-z
1/2-x,1/2-y,-z
1/2+x,1/2+y,-z
1/2-x,1/2+y,1/2+z
1/2+x,1/2-y,1/2+z
loop_
_atom_site_type_symbol
_atom_site_label
_atom_site_fract_x
_atom_site_fract_y
_atom_site_fract_z
Si Si1 0.370692 0.687609 0.144397
Si Si2 0.441700 0.448663 0.857451
Si Si3 0.762222 0.030051 0.352416
Si Si4 0.102041 0.134293 0.138485
Si Si5 0.433646 0.768740 0.853510
Si Si6 0.783055 0.611848 0.857237
Si Si7 0.809103 0.667693 0.354655
O O1 0.410220 0.661446 0.246293
O O2 0.395611 0.729062 0.162627
O O3 0.278164 0.683079 0.158934
O O4 0.389743 0.676723 0.000000
O O5 0.500000 0.460911 0.750000
O O6 0.354329 0.462498 0.838625
O O7 0.437825 0.404745 0.851530
O O8 0.466458 0.458533 0.000000
O O9 0.749630 0.019424 0.500000
O O10 0.720409 0.068773 0.331595
O O11 0.739457 0.000000 0.250000
O O12 0.193342 0.124412 0.139679
O O13 0.083735 0.150425 0.000000
O O14 0.500000 0.773285 0.750000
O O15 0.369148 0.799708 0.837266
O O16 0.461891 0.770845 0.000000
O O17 0.820932 0.636044 0.748154
O O18 0.814154 0.617815 0.000000
O O19 0.815873 0.654221 0.500000
#
# Coordination Sequence:
#
# PCOD9497744 Si02
#       7
#    16  16  16  16  16  16  16
#     4   9  17  30  48  67  87 116 155 196 235 271
#     4   9  18  30  41  55  79 113 151 188 225 266
#     4   9  18  31  45  63  88 114 140 177 224 268
#     4   8  15  28  43  59  81 108 142 187 231 266
#     4  10  21  34  46  65  95 125 152 187 231 275
#     4   8  15  29  47  66  87 110 139 178 222 264
#     4   9  17  31  51  70  88 116 156 195 227 265
#
# _framework density 16.64368
#
# number of rings (size 3 to 8) (size 9 to 14) (size 15 to 20)
#    0.000    3.143    0.000    2.143    0.000    5.429 
#    0.000    7.143    0.000    4.286    0.000    0.000 
#    0.000    0.571    0.000    6.286    0.000    4.571 
#
# Total GULP energy -312095.706555 kJ/mol
# GULP energy per Si atom -5573.137617 kJ/mol
# Density = 1.660580 g / cm^3
# Si number density = 16.643680 Si / 1000 Ang^3
#
#
#
# Elastic Constant Matrix: (Units=GPa)
#
#
# Indices 1 2 3 4 5 6 
#
# 1 29.4794 27.1005 44.4948 0.0000 0.0000 0.0000
# 2 27.1005 105.3437 99.4748 0.0000 0.0000 0.0000
# 3 44.4948 99.4748 148.2931 0.0000 0.0000 0.0000
# 4 0.0000 0.0000 0.0000 8.2153 0.0000 0.0000
# 5 0.0000 0.0000 0.0000 0.0000 25.1997 0.0000
# 6 0.0000 0.0000 0.0000 0.0000 0.0000 5.8170
#
#
#
# Elastic Compliance Matrix: (Units=1/GPa)
#
#
# Indices 1 2 3 4 5 6 
#
# 1 0.062761 0.004464 -0.021825 0.000000 0.000000 0.000000
# 2 0.004464 0.026213 -0.018923 0.000000 0.000000 0.000000
# 3 -0.021825 -0.018923 0.025986 0.000000 0.000000 0.000000
# 4 0.000000 0.000000 0.000000 0.121723 0.000000 0.000000
# 5 0.000000 0.000000 0.000000 0.000000 0.039683 0.000000
# 6 0.000000 0.000000 0.000000 0.000000 0.000000 0.171909
#
#
# Mechanical properties :
#
#
# Convention : Reuss Voigt Hill
#
# Bulk Modulus (GPa) = 23.59043 69.47295 46.53169
# Shear Modulus (GPa) = 9.34622 15.31615 12.33119
#
# Velocity S-wave (km/s) = 2.37227 3.03683 2.72489
# Velocity P-wave (km/s) = 4.65920 7.35720 6.15778
#
# Compressibility (1/GPa) = 0.04239008
#
# Stress axis : x y z
#
# Youngs Moduli (GPa) = 15.93354 38.14834 38.48253
#
# Poissons Ratio (x) = -0.17029 0.83990
# Poissons Ratio (y) = -0.07113 0.72822
# Poissons Ratio (z) = 0.34776 0.72189
#
# Static dielectric constant tensor:
#      x y z
#    x 1.538210 0.000000 0.000000 
#    y 0.000000 1.547420 0.000000 
#    z 0.000000 0.000000 1.581200 
# 
# From -- ./inp_files/16792.got.cif
#   From: 2010.05.17/outbox.cif.g08.bks.cpg/sg66_9_cif.got.tgz:16792.got - 2010.06.03 17:51:23.
