data_PCOD9497283
_publ_section_title
;
Structure prediction by ZEFSAII (Michael W. Deem and Ramdas Pophale) SiO2 
 PCOD9497283
Probable space group: C C C M
;
_chemical_formula_sum "Si O2"
_cell_formula_units_Z 112
_cell_length_a 24.297922
_cell_length_b 15.147667
_cell_length_c 14.781607
_cell_angle_alpha 90.000000
_cell_angle_beta 90.000000
_cell_angle_gamma 90.000000
_cell_volume 5440.471433
_symmetry_space_group_name_H-M "C C C M"
_symmetry_group_IT_number 66
_symmetry_cell_setting 'orthorhombic'
loop_
_space_group_symop_operation_xyz
x,y,z
-x,-y,z
x,-y,1/2-z
-x,y,1/2-z
-x,-y,-z
x,y,-z
-x,y,1/2+z
x,-y,1/2+z
1/2+x,1/2+y,z
1/2-x,1/2-y,z
1/2+x,1/2-y,1/2-z
1/2-x,1/2+y,1/2-z
1/2-x,1/2-y,-z
1/2+x,1/2+y,-z
1/2-x,1/2+y,1/2+z
1/2+x,1/2-y,1/2+z
loop_
_atom_site_type_symbol
_atom_site_label
_atom_site_fract_x
_atom_site_fract_y
_atom_site_fract_z
Si Si1 0.550283 0.441047 0.607306
Si Si2 0.785241 0.577234 0.101415
Si Si3 0.944271 0.738356 0.101763
Si Si4 0.839889 0.277677 0.274411
Si Si5 0.327613 0.426505 0.820999
Si Si6 0.523225 0.910594 0.647498
Si Si7 0.348858 0.896034 0.892071
O O1 0.500000 0.500000 0.642498
O O2 0.555063 0.458477 0.500000
O O3 0.536989 0.337992 0.619960
O O4 0.610911 0.452271 0.648380
O O5 0.802156 0.657375 0.166144
O O6 0.719379 0.570720 0.103534
O O7 0.813071 0.483868 0.128482
O O8 0.804969 0.596240 0.000000
O O9 0.900082 0.711382 0.178041
O O10 0.996132 0.674575 0.103428
O O11 0.919165 0.737023 0.000000
O O12 0.828497 0.173556 0.283191
O O13 0.834220 0.313933 0.172671
O O14 0.309490 0.500000 0.750000
O O15 0.500000 0.908396 0.750000
O O16 0.588188 0.914549 0.636100
O O17 0.500000 0.000000 0.605621
O O18 0.344997 0.879034 0.000000
#
# Coordination Sequence:
#
# PCOD9497283 Si02
#       7
#    16  16  16  16  16  16  16
#     4   9  20  40  64  90 122 161 208 267 324 378
#     4  11  24  42  68  97 126 163 211 269 326 384
#     4  10  20  36  61  92 123 161 213 265 314 375
#     4  11  22  40  65  92 129 165 211 265 322 384
#     4  11  24  41  63  94 127 166 213 267 318 382
#     4  11  22  36  57  87 130 174 209 255 308 379
#     4  11  24  41  63  94 133 175 217 262 322 391
#
# _framework density 20.586452000000001
#
# number of rings (size 3 to 8) (size 9 to 14) (size 15 to 20)
#    0.000    1.429    1.429    3.857    2.000    6.000 
#    0.000    2.857    0.000    3.429    0.000    0.000 
#    0.000    0.857    0.000    0.000    0.000    0.000 
#
# Total GULP energy -312708.555350 kJ/mol
# GULP energy per Si atom -5584.081346 kJ/mol
# Density = 2.053960 g / cm^3
# Si number density = 20.586452 Si / 1000 Ang^3
#
#
#
# Elastic Constant Matrix: (Units=GPa)
#
#
# Indices 1 2 3 4 5 6 
#
# 1 115.0148 57.0061 29.6623 0.0000 0.0000 0.0000
# 2 57.0061 85.0801 55.4981 0.0000 0.0000 0.0000
# 3 29.6623 55.4981 111.2900 0.0000 0.0000 0.0000
# 4 0.0000 0.0000 0.0000 22.0544 0.0000 0.0000
# 5 0.0000 0.0000 0.0000 0.0000 -351.1182 0.0000
# 6 0.0000 0.0000 0.0000 0.0000 0.0000 14.8616
#
#
#
# Elastic Compliance Matrix: (Units=1/GPa)
#
#
# Indices 1 2 3 4 5 6 
#
# 1 0.013147 -0.009668 0.001317 0.000000 0.000000 0.000000
# 2 -0.009668 0.024530 -0.009656 0.000000 0.000000 0.000000
# 3 0.001317 -0.009656 0.013450 0.000000 0.000000 0.000000
# 4 0.000000 0.000000 0.000000 0.045342 0.000000 0.000000
# 5 0.000000 0.000000 0.000000 0.000000 -0.002848 0.000000
# 6 0.000000 0.000000 0.000000 0.000000 0.000000 0.067287
#
#
# Mechanical properties :
#
#
# Convention : Reuss Voigt Hill
#
# Bulk Modulus (GPa) = 66.16717 66.19086 66.17901
# Shear Modulus (GPa) = 24.75759 -51.55920 -13.40080
#
# Velocity S-wave (km/s) = 3.47164 -5.00995 -2.55415
# Velocity P-wave (km/s) = 6.94842 1.11520 4.84958
#
# Compressibility (1/GPa) = 0.01511324
#
# Stress axis : x y z
#
# Youngs Moduli (GPa) = 76.06536 40.76676 74.35167
#
# Poissons Ratio (x) = 0.39412 -0.09793
# Poissons Ratio (y) = 0.73538 0.71792
# Poissons Ratio (z) = -0.10019 0.39363
#
# Static dielectric constant tensor:
#      x y z
#    x 1.742990 0.000000 0.000000 
#    y 0.000000 1.812920 0.000000 
#    z 0.000000 0.000000 1.785900 
# 
# From -- ./inp_files/32512.got.cif
#   From: 2010.05.17/outbox.cif.g08.bks.cpg/sg66_17_cif.got.tgz:32512.got - 2010.06.03 17:51:23.
