data_PCOD9497642
_publ_section_title
;
Structure prediction by ZEFSAII (Michael W. Deem and Ramdas Pophale) SiO2 
 PCOD9497642
Probable space group: C C C M
;
_chemical_formula_sum "Si O2"
_cell_formula_units_Z 60
_cell_length_a 5.270721
_cell_length_b 22.845335
_cell_length_c 23.487757
_cell_angle_alpha 90.000000
_cell_angle_beta 90.000000
_cell_angle_gamma 90.000000
_cell_volume 2828.193396
_symmetry_space_group_name_H-M "C C C M"
_symmetry_group_IT_number 66
_symmetry_cell_setting 'orthorhombic'
loop_
_space_group_symop_operation_xyz
x,y,z
-x,-y,z
x,-y,1/2-z
-x,y,1/2-z
-x,-y,-z
x,y,-z
-x,y,1/2+z
x,-y,1/2+z
1/2+x,1/2+y,z
1/2-x,1/2-y,z
1/2+x,1/2-y,1/2-z
1/2-x,1/2+y,1/2-z
1/2-x,1/2-y,-z
1/2+x,1/2+y,-z
1/2-x,1/2+y,1/2+z
1/2+x,1/2-y,1/2+z
loop_
_atom_site_type_symbol
_atom_site_label
_atom_site_fract_x
_atom_site_fract_y
_atom_site_fract_z
Si Si1 0.000000 0.303785 0.750000
Si Si2 0.750000 0.250000 0.854057
Si Si3 0.749358 0.041026 0.000000
Si Si4 0.000000 0.000000 0.750000
Si Si5 0.728807 0.378953 0.888369
Si Si6 0.232632 0.400088 0.184002
O O1 0.037414 0.265321 0.693656
O O2 0.219055 0.349499 0.767924
O O3 0.740454 0.308225 0.891692
O O4 0.749278 0.083365 0.054782
O O5 0.500000 0.000000 0.000000
O O6 0.000000 0.000000 0.000000
O O7 0.814468 0.040142 0.713076
O O8 0.455012 0.388933 0.860664
O O9 0.960174 0.398677 0.847088
#
# Coordination Sequence:
#
# PCOD9497642 Si02
#       6
#     8   8   8   4  16  16
#     4  10  20  40  64 104 145 185 216 266 356 412
#     4  10  20  39  72  96 146 171 226 276 328 426
#     4  12  28  51  74  95 132 180 234 297 343 398
#     4  12  24  40  64  96 152 184 220 286 318 424
#     4  11  26  45  69 103 127 185 230 286 343 393
#     4  11  25  40  65 102 142 180 230 266 341 409
#
# _framework density 21.214955
#
# number of rings (size 3 to 8) (size 9 to 14) (size 15 to 20)
#    0.000    1.067    0.000    6.400    5.600    7.467 
#    0.000    0.000    0.000    9.600    0.000    0.000 
#    0.000    0.000    0.000    0.000    0.000    0.000 
#
# Total GULP energy -167571.793797 kJ/mol
# GULP energy per Si atom -5585.726460 kJ/mol
# Density = 2.116667 g / cm^3
# Si number density = 21.214955 Si / 1000 Ang^3
#
#
#
# Elastic Constant Matrix: (Units=GPa)
#
#
# Indices 1 2 3 4 5 6 
#
# 1 117.7433 45.9730 58.3205 0.0000 0.0000 0.0000
# 2 45.9730 193.7714 86.5592 0.0000 0.0000 0.0000
# 3 58.3205 86.5592 125.6806 0.0000 0.0000 0.0000
# 4 0.0000 0.0000 0.0000 41.4585 0.0000 0.0000
# 5 0.0000 0.0000 0.0000 0.0000 30.5235 0.0000
# 6 0.0000 0.0000 0.0000 0.0000 0.0000 40.4954
#
#
#
# Elastic Compliance Matrix: (Units=1/GPa)
#
#
# Indices 1 2 3 4 5 6 
#
# 1 0.011058 -0.000479 -0.004802 0.000000 0.000000 0.000000
# 2 -0.000479 0.007475 -0.004926 0.000000 0.000000 0.000000
# 3 -0.004802 -0.004926 0.013578 0.000000 0.000000 0.000000
# 4 0.000000 0.000000 0.000000 0.024121 0.000000 0.000000
# 5 0.000000 0.000000 0.000000 0.000000 0.032762 0.000000
# 6 0.000000 0.000000 0.000000 0.000000 0.000000 0.024694
#
#
# Mechanical properties :
#
#
# Convention : Reuss Voigt Hill
#
# Bulk Modulus (GPa) = 85.48604 90.98898 88.23751
# Shear Modulus (GPa) = 36.23215 38.91833 37.57524
#
# Velocity S-wave (km/s) = 4.13711 4.28773 4.21309
# Velocity P-wave (km/s) = 7.95007 8.21553 8.08389
#
# Compressibility (1/GPa) = 0.01169782
#
# Stress axis : x y z
#
# Youngs Moduli (GPa) = 90.42903 133.78426 73.65107
#
# Poissons Ratio (x) = 0.06403 0.35366
# Poissons Ratio (y) = 0.04328 0.36280
# Poissons Ratio (z) = 0.43423 0.65901
#
# Static dielectric constant tensor:
#      x y z
#    x 1.746970 0.000000 0.000000 
#    y 0.000000 1.821980 0.000000 
#    z 0.000000 0.000000 1.755790 
# 
# From -- ./inp_files/54028.got.cif
#   From: 2010.05.17/outbox.cif.g08.bks.cpg/sg66_28_cif.got.tgz:54028.got - 2010.06.03 17:51:23.
