data_PCOD9497793
_publ_section_title
;
Structure prediction by ZEFSAII (Michael W. Deem and Ramdas Pophale) SiO2 
 PCOD9497793
Probable space group: C C C M
;
_chemical_formula_sum "Si O2"
_cell_formula_units_Z 88
_cell_length_a 14.814958
_cell_length_b 13.781614
_cell_length_c 25.433250
_cell_angle_alpha 90.000000
_cell_angle_beta 90.000000
_cell_angle_gamma 90.000000
_cell_volume 5192.809214
_symmetry_space_group_name_H-M "C C C M"
_symmetry_group_IT_number 66
_symmetry_cell_setting 'orthorhombic'
loop_
_space_group_symop_operation_xyz
x,y,z
-x,-y,z
x,-y,1/2-z
-x,y,1/2-z
-x,-y,-z
x,y,-z
-x,y,1/2+z
x,-y,1/2+z
1/2+x,1/2+y,z
1/2-x,1/2-y,z
1/2+x,1/2-y,1/2-z
1/2-x,1/2+y,1/2-z
1/2-x,1/2-y,-z
1/2+x,1/2+y,-z
1/2-x,1/2+y,1/2+z
1/2+x,1/2-y,1/2+z
loop_
_atom_site_type_symbol
_atom_site_label
_atom_site_fract_x
_atom_site_fract_y
_atom_site_fract_z
Si Si1 0.500000 0.735800 0.250000
Si Si2 0.723779 0.025078 0.331641
Si Si3 0.567766 0.411251 0.337536
Si Si4 0.179949 0.339259 0.736871
Si Si5 0.812334 0.601523 0.941198
Si Si6 0.608984 0.689876 0.058343
O O1 0.453111 0.667547 0.293148
O O2 0.579974 0.800148 0.273851
O O3 0.830267 0.049641 0.332686
O O4 0.681626 0.107603 0.293699
O O5 0.684357 0.033439 0.390397
O O6 0.708328 0.921643 0.304601
O O7 0.500000 0.500000 0.331426
O O8 0.557534 0.360542 0.394237
O O9 0.250000 0.250000 0.736824
O O10 0.710237 0.644696 0.941343
O O11 0.876407 0.695199 0.933822
O O12 0.828512 0.560850 0.000000
O O13 0.570800 0.673137 0.000000
#
# Coordination Sequence:
#
# PCOD9497793 Si02
#       6
#     8  16  16  16  16  16
#     4  12  23  35  56  76 110 146 184 220 278 320
#     4  10  21  35  55  78 108 141 181 226 276 320
#     4  11  21  32  52  79 107 142 182 223 271 335
#     4  11  22  37  54  78 110 146 180 227 270 329
#     4   8  14  28  52  77 100 133 181 224 268 326
#     4   8  15  28  48  76 105 135 171 222 276 318
#
# _framework density 16.946511000000001
#
# number of rings (size 3 to 8) (size 9 to 14) (size 15 to 20)
#    0.000    2.182    1.818    3.545    5.091    1.818 
#    0.000    0.000    0.000    1.636    0.000    3.818 
#    0.000    0.000    0.000    0.000    0.000    0.000 
#
# Total GULP energy -245352.476088 kJ/mol
# GULP energy per Si atom -5576.192638 kJ/mol
# Density = 1.690794 g / cm^3
# Si number density = 16.946511 Si / 1000 Ang^3
#
#
#
# Elastic Constant Matrix: (Units=GPa)
#
#
# Indices 1 2 3 4 5 6 
#
# 1 53.5649 29.0157 14.3322 0.0000 0.0000 0.0000
# 2 29.0157 90.0709 57.8322 0.0000 0.0000 0.0000
# 3 14.3322 57.8322 126.3123 0.0000 0.0000 0.0000
# 4 0.0000 0.0000 0.0000 22.8064 0.0000 0.0000
# 5 0.0000 0.0000 0.0000 0.0000 4.2395 0.0000
# 6 0.0000 0.0000 0.0000 0.0000 0.0000 21.3010
#
#
#
# Elastic Compliance Matrix: (Units=1/GPa)
#
#
# Indices 1 2 3 4 5 6 
#
# 1 0.022722 -0.008023 0.001095 0.000000 0.000000 0.000000
# 2 -0.008023 0.018558 -0.007586 0.000000 0.000000 0.000000
# 3 0.001095 -0.007586 0.011266 0.000000 0.000000 0.000000
# 4 0.000000 0.000000 0.000000 0.043847 0.000000 0.000000
# 5 0.000000 0.000000 0.000000 0.000000 0.235877 0.000000
# 6 0.000000 0.000000 0.000000 0.000000 0.000000 0.046946
#
#
# Mechanical properties :
#
#
# Convention : Reuss Voigt Hill
#
# Bulk Modulus (GPa) = 42.52151 52.47871 47.50011
# Shear Modulus (GPa) = 12.01680 20.92057 16.46869
#
# Velocity S-wave (km/s) = 2.66579 3.51737 3.12076
# Velocity P-wave (km/s) = 5.88399 6.89422 6.40904
#
# Compressibility (1/GPa) = 0.02351751
#
# Stress axis : x y z
#
# Youngs Moduli (GPa) = 44.01055 53.88540 88.76192
#
# Poissons Ratio (x) = 0.43231 -0.09720
# Poissons Ratio (y) = 0.35309 0.67339
# Poissons Ratio (z) = -0.04819 0.40880
#
# Static dielectric constant tensor:
#      x y z
#    x 1.560020 0.000000 0.000000 
#    y 0.000000 1.558130 0.000000 
#    z 0.000000 0.000000 1.594410 
# 
# From -- ./inp_files/58105.got.cif
#   From: 2010.05.17/outbox.cif.g08.bks.cpg/sg66_30_cif.got.tgz:58105.got - 2010.06.03 17:51:23.
