data_PCOD9497379
_publ_section_title
;
Structure prediction by ZEFSAII (Michael W. Deem and Ramdas Pophale) SiO2 
 PCOD9497379
Probable space group: C C C M
;
_chemical_formula_sum "Si O2"
_cell_formula_units_Z 64
_cell_length_a 9.590300
_cell_length_b 22.519677
_cell_length_c 14.029475
_cell_angle_alpha 90.000000
_cell_angle_beta 90.000000
_cell_angle_gamma 90.000000
_cell_volume 3029.952146
_symmetry_space_group_name_H-M "C C C M"
_symmetry_group_IT_number 66
_symmetry_cell_setting 'orthorhombic'
loop_
_space_group_symop_operation_xyz
x,y,z
-x,-y,z
x,-y,1/2-z
-x,y,1/2-z
-x,-y,-z
x,y,-z
-x,y,1/2+z
x,-y,1/2+z
1/2+x,1/2+y,z
1/2-x,1/2-y,z
1/2+x,1/2-y,1/2-z
1/2-x,1/2+y,1/2-z
1/2-x,1/2-y,-z
1/2+x,1/2+y,-z
1/2-x,1/2+y,1/2+z
1/2+x,1/2-y,1/2+z
loop_
_atom_site_type_symbol
_atom_site_label
_atom_site_fract_x
_atom_site_fract_y
_atom_site_fract_z
Si Si1 0.165049 0.173722 0.675852
Si Si2 0.519136 0.433038 0.388990
Si Si3 0.463453 0.203303 0.359989
Si Si4 0.731592 0.663289 0.105229
O O1 0.081557 0.113483 0.662684
O O2 0.316913 0.169699 0.627715
O O3 0.081001 0.227830 0.626597
O O4 0.185204 0.188090 0.789763
O O5 0.500000 0.500000 0.355153
O O6 0.477833 0.432676 0.500000
O O7 0.674230 0.404188 0.385810
O O8 0.500000 0.198150 0.250000
O O9 0.604390 0.177008 0.402738
O O10 0.674879 0.683854 0.000000
#
# Coordination Sequence:
#
# PCOD9497379 Si02
#       4
#    16  16  16  16
#     4  10  20  37  60  85 120 158 194 242 296 355
#     4  10  22  39  59  86 118 154 198 245 295 353
#     4   9  19  36  56  84 119 152 192 241 290 349
#     4  10  21  37  59  88 120 155 198 246 296 352
#
# _framework density 21.122444999999999
#
# number of rings (size 3 to 8) (size 9 to 14) (size 15 to 20)
#    0.000    2.250    0.000    2.250    0.000    7.000 
#    0.000   23.750    0.000   10.500    0.000    1.750 
#    0.000    0.000    0.000    0.000    0.000    0.000 
#
# Total GULP energy -178150.260815 kJ/mol
# GULP energy per Si atom -5567.195650 kJ/mol
# Density = 2.107437 g / cm^3
# Si number density = 21.122445 Si / 1000 Ang^3
#
#
#
# Elastic Constant Matrix: (Units=GPa)
#
#
# Indices 1 2 3 4 5 6 
#
# 1 189.5396 101.8239 37.0609 0.0000 0.0000 0.0000
# 2 101.8239 171.5658 27.9539 0.0000 0.0000 0.0000
# 3 37.0609 27.9539 128.2278 0.0000 0.0000 0.0000
# 4 0.0000 0.0000 0.0000 20.0398 0.0000 0.0000
# 5 0.0000 0.0000 0.0000 0.0000 27.9496 0.0000
# 6 0.0000 0.0000 0.0000 0.0000 0.0000 25.6437
#
#
#
# Elastic Compliance Matrix: (Units=1/GPa)
#
#
# Indices 1 2 3 4 5 6 
#
# 1 0.007954 -0.004506 -0.001317 0.000000 0.000000 0.000000
# 2 -0.004506 0.008596 -0.000572 0.000000 0.000000 0.000000
# 3 -0.001317 -0.000572 0.008304 0.000000 0.000000 0.000000
# 4 0.000000 0.000000 0.000000 0.049901 0.000000 0.000000
# 5 0.000000 0.000000 0.000000 0.000000 0.035779 0.000000
# 6 0.000000 0.000000 0.000000 0.000000 0.000000 0.038996
#
#
# Mechanical properties :
#
#
# Convention : Reuss Voigt Hill
#
# Bulk Modulus (GPa) = 82.88204 91.44562 87.16383
# Shear Modulus (GPa) = 30.05883 36.22623 33.14253
#
# Velocity S-wave (km/s) = 3.77646 4.14582 3.96544
# Velocity P-wave (km/s) = 7.63803 8.14274 7.89442
#
# Compressibility (1/GPa) = 0.01206534
#
# Stress axis : x y z
#
# Youngs Moduli (GPa) = 125.71906 116.32938 120.42752
#
# Poissons Ratio (x) = 0.52422 0.15855
# Poissons Ratio (y) = 0.56653 0.06883
# Poissons Ratio (z) = 0.16552 0.06649
#
# Static dielectric constant tensor:
#      x y z
#    x 1.827760 0.000000 0.000000 
#    y 0.000000 1.754600 0.000000 
#    z 0.000000 0.000000 1.849590 
# 
# From -- ./inp_files/24138.got.cif
#   From: 2010.05.17/outbox.cif.g08.bks.cpg/sg66_13_cif.got.tgz:24138.got - 2010.06.03 17:51:23.
