data_PCOD9497859
_publ_section_title
;
Structure prediction by ZEFSAII (Michael W. Deem and Ramdas Pophale) SiO2 
 PCOD9497859
Probable space group: C C C M
;
_chemical_formula_sum "Si O2"
_cell_formula_units_Z 56
_cell_length_a 33.836823
_cell_length_b 5.113185
_cell_length_c 15.096830
_cell_angle_alpha 90.000000
_cell_angle_beta 90.000000
_cell_angle_gamma 90.000000
_cell_volume 2611.961977
_symmetry_space_group_name_H-M "C C C M"
_symmetry_group_IT_number 66
_symmetry_cell_setting 'orthorhombic'
loop_
_space_group_symop_operation_xyz
x,y,z
-x,-y,z
x,-y,1/2-z
-x,y,1/2-z
-x,-y,-z
x,y,-z
-x,y,1/2+z
x,-y,1/2+z
1/2+x,1/2+y,z
1/2-x,1/2-y,z
1/2+x,1/2-y,1/2-z
1/2-x,1/2+y,1/2-z
1/2-x,1/2-y,-z
1/2+x,1/2+y,-z
1/2-x,1/2+y,1/2+z
1/2+x,1/2-y,1/2+z
loop_
_atom_site_type_symbol
_atom_site_label
_atom_site_fract_x
_atom_site_fract_y
_atom_site_fract_z
Si Si1 0.971746 0.755550 0.500000
Si Si2 0.724713 0.996476 0.142756
Si Si3 0.587355 0.586974 0.655268
Si Si4 0.633307 0.941656 0.898584
O O1 0.944820 0.800007 0.587045
O O2 0.000000 0.500000 0.500000
O O3 0.000000 0.000000 0.500000
O O4 0.750000 0.750000 0.114567
O O5 0.680428 0.954180 0.109180
O O6 0.722163 0.000000 0.250000
O O7 0.750000 0.250000 0.115587
O O8 0.570412 0.500000 0.750000
O O9 0.612340 0.336590 0.620231
O O10 0.617194 0.829401 0.664385
O O11 0.622946 0.011362 0.000000
#
# Coordination Sequence:
#
# PCOD9497859 Si02
#       4
#     8  16  16  16
#     4  12  26  48  76 106 144 174 218 286 344 416
#     4  10  21  36  56  89 133 181 235 292 347 401
#     4  12  25  46  73 104 139 185 232 277 346 420
#     4  12  23  42  68  99 139 183 239 294 342 406
#
# _framework density 21.439823000000001
#
# number of rings (size 3 to 8) (size 9 to 14) (size 15 to 20)
#    0.000    0.571    2.857    6.000    0.000    4.000 
#    0.000    1.429    0.000    0.000    0.000    0.000 
#    0.000    0.000    0.000    0.000    0.000    0.000 
#
# Total GULP energy -156486.376822 kJ/mol
# GULP energy per Si atom -5588.799172 kJ/mol
# Density = 2.139103 g / cm^3
# Si number density = 21.439823 Si / 1000 Ang^3
#
#
#
# Elastic Constant Matrix: (Units=GPa)
#
#
# Indices 1 2 3 4 5 6 
#
# 1 156.8146 76.5633 53.2130 0.0000 0.0000 0.0000
# 2 76.5633 184.1943 39.4436 0.0000 0.0000 0.0000
# 3 53.2130 39.4436 125.0430 0.0000 0.0000 0.0000
# 4 0.0000 0.0000 0.0000 -26.0905 0.0000 0.0000
# 5 0.0000 0.0000 0.0000 0.0000 21.9086 0.0000
# 6 0.0000 0.0000 0.0000 0.0000 0.0000 42.5840
#
#
#
# Elastic Compliance Matrix: (Units=1/GPa)
#
#
# Indices 1 2 3 4 5 6 
#
# 1 0.008821 -0.003070 -0.002785 0.000000 0.000000 0.000000
# 2 -0.003070 0.006891 -0.000867 0.000000 0.000000 0.000000
# 3 -0.002785 -0.000867 0.009456 0.000000 0.000000 0.000000
# 4 0.000000 0.000000 0.000000 -0.038328 0.000000 0.000000
# 5 0.000000 0.000000 0.000000 0.000000 0.045644 0.000000
# 6 0.000000 0.000000 0.000000 0.000000 0.000000 0.023483
#
#
# Mechanical properties :
#
#
# Convention : Reuss Voigt Hill
#
# Bulk Modulus (GPa) = 85.30468 89.38798 87.34633
# Shear Modulus (GPa) = 68.19384 27.46921 47.83153
#
# Velocity S-wave (km/s) = 5.64590 3.58330 4.72843
# Velocity P-wave (km/s) = 9.07611 7.67483 8.40473
#
# Compressibility (1/GPa) = 0.01172269
#
# Stress axis : x y z
#
# Youngs Moduli (GPa) = 113.36391 145.11880 105.75135
#
# Poissons Ratio (x) = 0.44554 0.29457
# Poissons Ratio (y) = 0.34805 0.09170
# Poissons Ratio (z) = 0.31577 0.12584
#
# Static dielectric constant tensor:
#      x y z
#    x 1.871560 0.000000 0.000000 
#    y 0.000000 1.743480 0.000000 
#    z 0.000000 0.000000 1.866810 
# 
# From -- ./inp_files/22518.got.cif
#   From: 2010.05.17/outbox.cif.g08.bks.cpg/sg66_12_cif.got.tgz:22518.got - 2010.06.03 17:51:23.
