data_PCOD9497636
_publ_section_title
;
Structure prediction by ZEFSAII (Michael W. Deem and Ramdas Pophale) SiO2 
 PCOD9497636
Probable space group: C C C M
;
_chemical_formula_sum "Si O2"
_cell_formula_units_Z 64
_cell_length_a 16.037591
_cell_length_b 11.243263
_cell_length_c 17.112685
_cell_angle_alpha 90.000000
_cell_angle_beta 90.000000
_cell_angle_gamma 90.000000
_cell_volume 3085.671289
_symmetry_space_group_name_H-M "C C C M"
_symmetry_group_IT_number 66
_symmetry_cell_setting 'orthorhombic'
loop_
_space_group_symop_operation_xyz
x,y,z
-x,-y,z
x,-y,1/2-z
-x,y,1/2-z
-x,-y,-z
x,y,-z
-x,y,1/2+z
x,-y,1/2+z
1/2+x,1/2+y,z
1/2-x,1/2-y,z
1/2+x,1/2-y,1/2-z
1/2-x,1/2+y,1/2-z
1/2-x,1/2-y,-z
1/2+x,1/2+y,-z
1/2-x,1/2+y,1/2+z
1/2+x,1/2-y,1/2+z
loop_
_atom_site_type_symbol
_atom_site_label
_atom_site_fract_x
_atom_site_fract_y
_atom_site_fract_z
Si Si1 0.593246 0.509923 0.342715
Si Si2 0.151491 0.748895 0.087703
Si Si3 0.255955 0.888269 0.688264
Si Si4 0.597769 0.009257 0.594123
O O1 0.500000 0.500000 0.377957
O O2 0.584077 0.500000 0.250000
O O3 0.622377 0.641745 0.362220
O O4 0.670857 0.420893 0.360776
O O5 0.250000 0.750000 0.081561
O O6 0.128957 0.620719 0.118702
O O7 0.115397 0.760498 0.000000
O O8 0.250000 0.750000 0.716878
O O9 0.259829 0.000000 0.750000
O O10 0.340786 0.900093 0.637711
O O11 0.606627 0.023570 0.500000
O O12 0.500000 0.000000 0.612476
#
# Coordination Sequence:
#
# PCOD9497636 Si02
#       4
#    16  16  16  16
#     4  10  23  39  60  90 130 167 210 263 315 373
#     4  10  20  39  67  92 123 169 214 261 316 382
#     4  11  26  43  65  96 132 173 214 268 323 383
#     4  10  23  43  67  96 130 168 217 271 323 386
#
# _framework density 20.741031
#
# number of rings (size 3 to 8) (size 9 to 14) (size 15 to 20)
#    0.000    1.750    2.500    0.000   10.500    1.500 
#    0.000    0.000    0.000    0.000    0.000    0.000 
#    0.000    0.000    0.000    0.000    0.000    0.000 
#
# Total GULP energy -178256.385233 kJ/mol
# GULP energy per Si atom -5570.512039 kJ/mol
# Density = 2.069382 g / cm^3
# Si number density = 20.741031 Si / 1000 Ang^3
#
#
#
# Elastic Constant Matrix: (Units=GPa)
#
#
# Indices 1 2 3 4 5 6 
#
# 1 152.2884 40.1479 19.7442 0.0000 0.0000 0.0000
# 2 40.1479 143.0968 43.4942 0.0000 0.0000 0.0000
# 3 19.7442 43.4942 39.5669 0.0000 0.0000 0.0000
# 4 0.0000 0.0000 0.0000 28.9082 0.0000 0.0000
# 5 0.0000 0.0000 0.0000 0.0000 24.1081 0.0000
# 6 0.0000 0.0000 0.0000 0.0000 0.0000 29.2471
#
#
#
# Elastic Compliance Matrix: (Units=1/GPa)
#
#
# Indices 1 2 3 4 5 6 
#
# 1 0.007201 -0.001394 -0.002061 0.000000 0.000000 0.000000
# 2 -0.001394 0.010765 -0.011138 0.000000 0.000000 0.000000
# 3 -0.002061 -0.011138 0.038545 0.000000 0.000000 0.000000
# 4 0.000000 0.000000 0.000000 0.034592 0.000000 0.000000
# 5 0.000000 0.000000 0.000000 0.000000 0.041480 0.000000
# 6 0.000000 0.000000 0.000000 0.000000 0.000000 0.034191
#
#
# Mechanical properties :
#
#
# Convention : Reuss Voigt Hill
#
# Bulk Modulus (GPa) = 36.59544 60.19164 48.39354
# Shear Modulus (GPa) = 24.38210 31.89040 28.13625
#
# Velocity S-wave (km/s) = 3.43235 3.92542 3.68713
# Velocity P-wave (km/s) = 5.77843 7.04477 6.44279
#
# Compressibility (1/GPa) = 0.02732581
#
# Stress axis : x y z
#
# Youngs Moduli (GPa) = 138.86579 92.89711 25.94352
#
# Poissons Ratio (x) = 0.12949 0.05348
# Poissons Ratio (y) = 0.19356 0.28895
# Poissons Ratio (z) = 0.28623 1.03464
#
# Static dielectric constant tensor:
#      x y z
#    x 1.805050 0.000000 0.000000 
#    y 0.000000 1.720560 0.000000 
#    z 0.000000 0.000000 1.755180 
# 
# From -- ./inp_files/39807.got.cif
#   From: 2010.05.17/outbox.cif.g08.bks.cpg/sg66_20_cif.got.tgz:39807.got - 2010.06.03 17:51:23.
