data_PCOD9497791
_publ_section_title
;
Structure prediction by ZEFSAII (Michael W. Deem and Ramdas Pophale) SiO2 
 PCOD9497791
Probable space group: C C C M
;
_chemical_formula_sum "Si O2"
_cell_formula_units_Z 64
_cell_length_a 10.592676
_cell_length_b 10.201166
_cell_length_c 27.180796
_cell_angle_alpha 90.000000
_cell_angle_beta 90.000000
_cell_angle_gamma 90.000000
_cell_volume 2937.092839
_symmetry_space_group_name_H-M "C C C M"
_symmetry_group_IT_number 66
_symmetry_cell_setting 'orthorhombic'
loop_
_space_group_symop_operation_xyz
x,y,z
-x,-y,z
x,-y,1/2-z
-x,y,1/2-z
-x,-y,-z
x,y,-z
-x,y,1/2+z
x,-y,1/2+z
1/2+x,1/2+y,z
1/2-x,1/2-y,z
1/2+x,1/2-y,1/2-z
1/2-x,1/2+y,1/2-z
1/2-x,1/2-y,-z
1/2+x,1/2+y,-z
1/2-x,1/2+y,1/2+z
1/2+x,1/2-y,1/2+z
loop_
_atom_site_type_symbol
_atom_site_label
_atom_site_fract_x
_atom_site_fract_y
_atom_site_fract_z
Si Si1 0.948503 0.186839 0.804688
Si Si2 0.702123 0.064162 0.154303
Si Si3 0.116572 0.281151 0.120147
Si Si4 0.592765 0.127291 0.944753
O O1 0.836434 0.088814 0.820164
O O2 0.888444 0.331163 0.817491
O O3 0.000000 0.174939 0.750000
O O4 0.070647 0.179739 0.839252
O O5 0.700200 0.105983 0.096261
O O6 0.642039 0.919390 0.149066
O O7 0.250000 0.250000 0.096501
O O8 0.006186 0.274809 0.080124
O O9 0.500000 0.000000 0.946126
O O10 0.633784 0.154690 0.000000
#
# Coordination Sequence:
#
# PCOD9497791 Si02
#       4
#    16  16  16  16
#     4  10  21  38  58  80 107 148 203 245 293 347
#     4   9  20  38  58  84 115 147 196 250 288 352
#     4  10  21  35  54  84 122 154 185 240 296 353
#     4   8  15  33  61  86 112 154 198 240 293 351
#
# _framework density 21.790253
#
# number of rings (size 3 to 8) (size 9 to 14) (size 15 to 20)
#    0.000    2.750    0.000    2.250    3.500    3.500 
#    0.000   11.250    0.000    0.000    0.000   22.750 
#    0.000    0.000    0.000    0.000    0.000    0.000 
#
# Total GULP energy -178162.629867 kJ/mol
# GULP energy per Si atom -5567.582183 kJ/mol
# Density = 2.174066 g / cm^3
# Si number density = 21.790253 Si / 1000 Ang^3
#
#
#
# Elastic Constant Matrix: (Units=GPa)
#
#
# Indices 1 2 3 4 5 6 
#
# 1 92.6494 24.3695 56.2893 0.0000 0.0000 0.0000
# 2 24.3695 80.5714 3.3200 0.0000 0.0000 0.0000
# 3 56.2893 3.3200 194.9872 0.0000 0.0000 0.0000
# 4 0.0000 0.0000 0.0000 -1.8602 0.0000 0.0000
# 5 0.0000 0.0000 0.0000 0.0000 5.6293 0.0000
# 6 0.0000 0.0000 0.0000 0.0000 0.0000 26.0955
#
#
#
# Elastic Compliance Matrix: (Units=1/GPa)
#
#
# Indices 1 2 3 4 5 6 
#
# 1 0.014369 -0.004178 -0.004077 0.000000 0.000000 0.000000
# 2 -0.004178 0.013635 0.000974 0.000000 0.000000 0.000000
# 3 -0.004077 0.000974 0.006289 0.000000 0.000000 0.000000
# 4 0.000000 0.000000 0.000000 -0.537586 0.000000 0.000000
# 5 0.000000 0.000000 0.000000 0.000000 0.177643 0.000000
# 6 0.000000 0.000000 0.000000 0.000000 0.000000 0.038321
#
#
# Mechanical properties :
#
#
# Convention : Reuss Voigt Hill
#
# Bulk Modulus (GPa) = 50.68203 59.57396 55.12799
# Shear Modulus (GPa) = -18.78353 24.92154 3.06900
#
# Velocity S-wave (km/s) = -2.93919 3.38553 1.18806
# Velocity P-wave (km/s) = 3.43381 6.53311 5.21884
#
# Compressibility (1/GPa) = 0.01973086
#
# Stress axis : x y z
#
# Youngs Moduli (GPa) = 69.59251 73.34100 159.00972
#
# Poissons Ratio (x) = 0.30643 0.64829
# Poissons Ratio (y) = 0.29077 -0.15488
# Poissons Ratio (z) = 0.28373 -0.07143
#
# Static dielectric constant tensor:
#      x y z
#    x 1.919330 0.000000 0.000000 
#    y 0.000000 1.920920 0.000000 
#    z 0.000000 0.000000 1.775140 
# 
# From -- ./inp_files/56310.got.cif
#   From: 2010.05.17/outbox.cif.g08.bks.cpg/sg66_29_cif.got.tgz:56310.got - 2010.06.03 17:51:23.
