data_PCOD9497938
_publ_section_title
;
Structure prediction by ZEFSAII (Michael W. Deem and Ramdas Pophale) SiO2 
 PCOD9497938
Probable space group: C C C M
;
_chemical_formula_sum "Si O2"
_cell_formula_units_Z 60
_cell_length_a 14.199046
_cell_length_b 5.461715
_cell_length_c 34.598318
_cell_angle_alpha 90.000000
_cell_angle_beta 90.000000
_cell_angle_gamma 90.000000
_cell_volume 2683.139090
_symmetry_space_group_name_H-M "C C C M"
_symmetry_group_IT_number 66
_symmetry_cell_setting 'orthorhombic'
loop_
_space_group_symop_operation_xyz
x,y,z
-x,-y,z
x,-y,1/2-z
-x,y,1/2-z
-x,-y,-z
x,y,-z
-x,y,1/2+z
x,-y,1/2+z
1/2+x,1/2+y,z
1/2-x,1/2-y,z
1/2+x,1/2-y,1/2-z
1/2-x,1/2+y,1/2-z
1/2-x,1/2-y,-z
1/2+x,1/2+y,-z
1/2-x,1/2+y,1/2+z
1/2+x,1/2-y,1/2+z
loop_
_atom_site_type_symbol
_atom_site_label
_atom_site_fract_x
_atom_site_fract_y
_atom_site_fract_z
Si Si1 0.106798 0.892816 0.788723
Si Si2 0.888221 0.497807 0.914851
Si Si3 0.384460 0.500825 0.626589
Si Si4 0.500000 0.000000 0.250000
Si Si5 0.809521 0.498947 0.500000
O O1 0.150117 0.960870 0.829466
O O2 0.076232 0.617447 0.779711
O O3 0.154081 0.000000 0.750000
O O4 0.000000 0.000000 0.789116
O O5 0.855467 0.238261 0.897620
O O6 0.000000 0.500000 0.909629
O O7 0.854978 0.743250 0.892758
O O8 0.866598 0.506840 0.960145
O O9 0.500000 0.500000 0.627623
O O10 0.750000 0.750000 0.500000
O O11 0.750000 0.250000 0.500000
#
# Coordination Sequence:
#
# PCOD9497938 Si02
#       5
#    16  16  16   4   8
#     4   8  15  22  36  64 103 150 183 208 261 316
#     4  10  21  37  57  83 110 144 181 228 275 327
#     4   9  18  29  49  75 110 146 184 219 265 321
#     4   8  14  20  36  58 104 150 190 204 258 320
#     4  12  25  42  63  82 110 140 182 228 285 342
#
# _framework density 22.361868999999999
#
# number of rings (size 3 to 8) (size 9 to 14) (size 15 to 20)
#    0.000    2.933    0.000    2.000   13.067    0.000 
#    0.000    5.333    0.000    0.000    0.000    0.000 
#    0.000   21.333    0.000    0.000    0.000    0.000 
#
# Total GULP energy -167158.690349 kJ/mol
# GULP energy per Si atom -5571.956345 kJ/mol
# Density = 2.231097 g / cm^3
# Si number density = 22.361869 Si / 1000 Ang^3
#
#
#
# Elastic Constant Matrix: (Units=GPa)
#
#
# Indices 1 2 3 4 5 6 
#
# 1 58.5817 15.9228 7.2087 0.0000 0.0000 0.0000
# 2 15.9228 166.1006 92.7204 0.0000 0.0000 0.0000
# 3 7.2087 92.7204 224.2093 0.0000 0.0000 0.0000
# 4 0.0000 0.0000 0.0000 60.2665 0.0000 0.0000
# 5 0.0000 0.0000 0.0000 0.0000 -28.1182 0.0000
# 6 0.0000 0.0000 0.0000 0.0000 0.0000 -13.9261
#
#
#
# Elastic Compliance Matrix: (Units=1/GPa)
#
#
# Indices 1 2 3 4 5 6 
#
# 1 0.017532 -0.001776 0.000171 0.000000 0.000000 0.000000
# 2 -0.001776 0.008007 -0.003254 0.000000 0.000000 0.000000
# 3 0.000171 -0.003254 0.005800 0.000000 0.000000 0.000000
# 4 0.000000 0.000000 0.000000 0.016593 0.000000 0.000000
# 5 0.000000 0.000000 0.000000 0.000000 -0.035564 0.000000
# 6 0.000000 0.000000 0.000000 0.000000 0.000000 -0.071808
#
#
# Mechanical properties :
#
#
# Convention : Reuss Voigt Hill
#
# Bulk Modulus (GPa) = 46.25209 75.62168 60.93689
# Shear Modulus (GPa) = -117.61000 25.84708 -45.88146
#
# Velocity S-wave (km/s) = -7.26004 3.40348 -4.53456
# Velocity P-wave (km/s) = 7.03912 7.02392 0.32686
#
# Compressibility (1/GPa) = 0.02162064
#
# Stress axis : x y z
#
# Youngs Moduli (GPa) = 57.03894 124.88620 172.40157
#
# Poissons Ratio (x) = 0.22179 -0.02944
# Poissons Ratio (y) = 0.10130 0.56104
# Poissons Ratio (z) = -0.00974 0.40641
#
# Static dielectric constant tensor:
#      x y z
#    x 1.817100 0.000000 0.000000 
#    y 0.000000 1.458910 0.000000 
#    z 0.000000 0.000000 1.884950 
# 
# From -- ./inp_files/69725.got.cif
#   From: 2010.05.17/outbox.cif.g08.bks.cpg/sg66_35_cif.got.tgz:69725.got - 2010.06.03 17:51:23.
