data_PCOD9497677
_publ_section_title
;
Structure prediction by ZEFSAII (Michael W. Deem and Ramdas Pophale) SiO2 
 PCOD9497677
Probable space group: C C C M
;
_chemical_formula_sum "Si O2"
_cell_formula_units_Z 116
_cell_length_a 12.118854
_cell_length_b 26.933035
_cell_length_c 15.204442
_cell_angle_alpha 90.000000
_cell_angle_beta 90.000000
_cell_angle_gamma 90.000000
_cell_volume 4962.692146
_symmetry_space_group_name_H-M "C C C M"
_symmetry_group_IT_number 66
_symmetry_cell_setting 'orthorhombic'
loop_
_space_group_symop_operation_xyz
x,y,z
-x,-y,z
x,-y,1/2-z
-x,y,1/2-z
-x,-y,-z
x,y,-z
-x,y,1/2+z
x,-y,1/2+z
1/2+x,1/2+y,z
1/2-x,1/2-y,z
1/2+x,1/2-y,1/2-z
1/2-x,1/2+y,1/2-z
1/2-x,1/2-y,-z
1/2+x,1/2+y,-z
1/2-x,1/2+y,1/2+z
1/2+x,1/2-y,1/2+z
loop_
_atom_site_type_symbol
_atom_site_label
_atom_site_fract_x
_atom_site_fract_y
_atom_site_fract_z
Si Si1 0.212361 0.877145 0.399909
Si Si2 0.000000 0.000000 0.000000
Si Si3 0.832087 0.369242 0.106536
Si Si4 0.914388 0.779847 0.134696
Si Si5 0.378321 0.984421 0.894128
Si Si6 0.432256 0.165975 0.102781
Si Si7 0.338424 0.292326 0.336321
Si Si8 0.846291 0.974710 0.159981
O O1 0.220892 0.897280 0.500000
O O2 0.155729 0.823731 0.406514
O O3 0.333638 0.867461 0.360157
O O4 0.137875 0.915494 0.346121
O O5 0.905530 0.999743 0.077644
O O6 0.848882 0.427175 0.125136
O O7 0.726251 0.343613 0.149821
O O8 0.944773 0.341988 0.138336
O O9 0.821552 0.362937 0.000000
O O10 0.896834 0.723115 0.107883
O O11 0.876155 0.782845 0.236363
O O12 0.043741 0.790079 0.116045
O O13 0.500000 0.000000 0.864667
O O14 0.284348 0.017975 0.852419
O O15 0.375671 0.990141 0.000000
O O16 0.438968 0.151776 0.000000
O O17 0.250000 0.250000 0.363478
O O18 0.879426 0.000000 0.250000
#
# Coordination Sequence:
#
# PCOD9497677 Si02
#       8
#    16   4  16  16  16  16  16  16
#     4  11  23  44  69 103 138 185 235 292 357 423
#     4  12  26  56  74  98 142 198 242 312 386 426
#     4  10  22  38  67 102 133 182 228 282 353 424
#     4  11  24  40  64  98 137 188 231 284 346 425
#     4  10  21  44  75 108 146 187 235 301 375 442
#     4  10  20  40  70 100 140 181 232 284 347 425
#     4  11  23  42  61  91 141 182 229 286 351 411
#     4  12  27  48  77 106 144 191 247 311 367 444
#
# _framework density 23.374410000000001
#
# number of rings (size 3 to 8) (size 9 to 14) (size 15 to 20)
#    0.000    1.241    2.759    2.690    1.931    6.069 
#    2.483    0.000    0.000    0.000    0.000    0.000 
#    0.000    0.000    0.000    0.000    0.000    0.000 
#
# Total GULP energy -323951.079419 kJ/mol
# GULP energy per Si atom -5585.363438 kJ/mol
# Density = 2.332121 g / cm^3
# Si number density = 23.374410 Si / 1000 Ang^3
#
#
#
# Elastic Constant Matrix: (Units=GPa)
#
#
# Indices 1 2 3 4 5 6 
#
# 1 143.7726 26.3519 24.7133 0.0000 0.0000 0.0000
# 2 26.3519 90.7755 13.5025 0.0000 0.0000 0.0000
# 3 24.7133 13.5025 66.5525 0.0000 0.0000 0.0000
# 4 0.0000 0.0000 0.0000 29.2490 0.0000 0.0000
# 5 0.0000 0.0000 0.0000 0.0000 42.1118 0.0000
# 6 0.0000 0.0000 0.0000 0.0000 0.0000 19.7830
#
#
#
# Elastic Compliance Matrix: (Units=1/GPa)
#
#
# Indices 1 2 3 4 5 6 
#
# 1 0.007727 -0.001873 -0.002489 0.000000 0.000000 0.000000
# 2 -0.001873 0.011813 -0.001701 0.000000 0.000000 0.000000
# 3 -0.002489 -0.001701 0.016295 0.000000 0.000000 0.000000
# 4 0.000000 0.000000 0.000000 0.034189 0.000000 0.000000
# 5 0.000000 0.000000 0.000000 0.000000 0.023746 0.000000
# 6 0.000000 0.000000 0.000000 0.000000 0.000000 0.050549
#
#
# Mechanical properties :
#
#
# Convention : Reuss Voigt Hill
#
# Bulk Modulus (GPa) = 42.17932 47.80399 44.99166
# Shear Modulus (GPa) = 30.42327 33.99761 32.21044
#
# Velocity S-wave (km/s) = 3.61163 3.81790 3.71620
# Velocity P-wave (km/s) = 5.95618 6.31910 6.14032
#
# Compressibility (1/GPa) = 0.02370830
#
# Stress axis : x y z
#
# Youngs Moduli (GPa) = 129.42386 84.65329 61.36772
#
# Poissons Ratio (x) = 0.15853 0.15276
# Poissons Ratio (y) = 0.24238 0.10440
# Poissons Ratio (z) = 0.32216 0.14402
#
# Static dielectric constant tensor:
#      x y z
#    x 1.890600 0.000000 0.000000 
#    y 0.000000 1.901360 0.000000 
#    z 0.000000 0.000000 1.880750 
# 
# From -- ./inp_files/39117.got.cif
#   From: 2010.05.17/outbox.cif.g08.bks.cpg/sg66_20_cif.got.tgz:39117.got - 2010.06.03 17:51:23.
