data_PCOD9497995
_publ_section_title
;
Structure prediction by ZEFSAII (Michael W. Deem and Ramdas Pophale) SiO2 
 PCOD9497995
Probable space group: C C C M
;
_chemical_formula_sum "Si O2"
_cell_formula_units_Z 104
_cell_length_a 27.650930
_cell_length_b 20.386752
_cell_length_c 9.529781
_cell_angle_alpha 90.000000
_cell_angle_beta 90.000000
_cell_angle_gamma 90.000000
_cell_volume 5372.058125
_symmetry_space_group_name_H-M "C C C M"
_symmetry_group_IT_number 66
_symmetry_cell_setting 'orthorhombic'
loop_
_space_group_symop_operation_xyz
x,y,z
-x,-y,z
x,-y,1/2-z
-x,y,1/2-z
-x,-y,-z
x,y,-z
-x,y,1/2+z
x,-y,1/2+z
1/2+x,1/2+y,z
1/2-x,1/2-y,z
1/2+x,1/2-y,1/2-z
1/2-x,1/2+y,1/2-z
1/2-x,1/2-y,-z
1/2+x,1/2+y,-z
1/2-x,1/2+y,1/2+z
1/2+x,1/2-y,1/2+z
loop_
_atom_site_type_symbol
_atom_site_label
_atom_site_fract_x
_atom_site_fract_y
_atom_site_fract_z
Si Si1 0.280770 0.938535 0.157684
Si Si2 0.762313 0.825227 0.840239
Si Si3 0.647109 0.401174 0.722297
Si Si4 0.836226 0.019732 0.000000
Si Si5 0.102785 0.564208 0.837490
Si Si6 0.050788 0.323821 0.168372
Si Si7 0.549282 0.670353 0.834607
O O1 0.264090 0.872652 0.231417
O O2 0.338892 0.938953 0.153737
O O3 0.264462 0.000000 0.250000
O O4 0.260766 0.947691 0.000000
O O5 0.750000 0.750000 0.815501
O O6 0.818757 0.840909 0.824040
O O7 0.747277 0.842241 0.000000
O O8 0.660555 0.424348 0.876417
O O9 0.658412 0.460978 0.619195
O O10 0.591912 0.377689 0.711903
O O11 0.086371 0.500000 0.750000
O O12 0.087088 0.627265 0.747600
O O13 0.085055 0.565316 0.000000
O O14 0.063641 0.246972 0.185622
O O15 0.000000 0.333328 0.250000
O O16 0.047443 0.337115 0.000000
O O17 0.500000 0.658935 0.750000
O O18 0.540422 0.661249 0.000000
#
# Coordination Sequence:
#
# PCOD9497995 Si02
#       7
#    16  16  16   8  16  16  16
#     4  10  23  40  62  89 122 164 206 255 311 372
#     4  11  25  41  63  94 128 167 213 259 313 368
#     4  11  23  45  65  97 127 168 208 265 311 377
#     4  10  24  42  71  92 128 168 214 250 325 378
#     4  10  21  39  59  87 122 158 203 257 308 367
#     4  10  21  37  61  88 118 163 204 252 310 376
#     4  10  22  41  64  91 128 165 209 254 316 380
#
# _framework density 19.359432999999999
#
# number of rings (size 3 to 8) (size 9 to 14) (size 15 to 20)
#    0.000    1.692    1.538    1.385    6.462    3.077 
#    0.000    3.846    0.000    0.000    0.000    0.000 
#    0.000    0.000    0.000    0.000    0.000    0.000 
#
# Total GULP energy -289485.762831 kJ/mol
# GULP energy per Si atom -5567.033901 kJ/mol
# Density = 1.931537 g / cm^3
# Si number density = 19.359433 Si / 1000 Ang^3
#
#
#
# Elastic Constant Matrix: (Units=GPa)
#
#
# Indices 1 2 3 4 5 6 
#
# 1 30.4820 20.0265 17.9722 0.0000 0.0000 0.0000
# 2 20.0265 73.0508 55.4594 0.0000 0.0000 0.0000
# 3 17.9722 55.4594 188.2029 0.0000 0.0000 0.0000
# 4 0.0000 0.0000 0.0000 38.8939 0.0000 0.0000
# 5 0.0000 0.0000 0.0000 0.0000 20.5280 0.0000
# 6 0.0000 0.0000 0.0000 0.0000 0.0000 21.0230
#
#
#
# Elastic Compliance Matrix: (Units=1/GPa)
#
#
# Indices 1 2 3 4 5 6 
#
# 1 0.040097 -0.010416 -0.000760 0.000000 0.000000 0.000000
# 2 -0.010416 0.020340 -0.004999 0.000000 0.000000 0.000000
# 3 -0.000760 -0.004999 0.006859 0.000000 0.000000 0.000000
# 4 0.000000 0.000000 0.000000 0.025711 0.000000 0.000000
# 5 0.000000 0.000000 0.000000 0.000000 0.048714 0.000000
# 6 0.000000 0.000000 0.000000 0.000000 0.000000 0.047567
#
#
# Mechanical properties :
#
#
# Convention : Reuss Voigt Hill
#
# Bulk Modulus (GPa) = 28.61469 53.18355 40.89912
# Shear Modulus (GPa) = 21.43295 29.30749 25.37022
#
# Velocity S-wave (km/s) = 3.33093 3.89506 3.62399
# Velocity P-wave (km/s) = 5.44117 6.91086 6.21957
#
# Compressibility (1/GPa) = 0.03494709
#
# Stress axis : x y z
#
# Youngs Moduli (GPa) = 24.93942 49.16488 145.79200
#
# Poissons Ratio (x) = 0.51208 0.11077
# Poissons Ratio (y) = 0.25976 0.72882
# Poissons Ratio (z) = 0.01895 0.24578
#
# Static dielectric constant tensor:
#      x y z
#    x 1.744980 0.000000 0.000000 
#    y 0.000000 1.677320 0.000000 
#    z 0.000000 0.000000 1.675990 
# 
# From -- ./inp_files/8170.got.cif
#   From: 2010.05.17/outbox.cif.g08.bks.cpg/sg66_5_cif.got.tgz:8170.got - 2010.06.03 17:51:23.
