data_PCOD9497704
_publ_section_title
;
Structure prediction by ZEFSAII (Michael W. Deem and Ramdas Pophale) SiO2 
 PCOD9497704
Probable space group: C C C M
;
_chemical_formula_sum "Si O2"
_cell_formula_units_Z 52
_cell_length_a 10.304357
_cell_length_b 17.877107
_cell_length_c 14.028942
_cell_angle_alpha 90.000000
_cell_angle_beta 90.000000
_cell_angle_gamma 90.000000
_cell_volume 2584.300764
_symmetry_space_group_name_H-M "C C C M"
_symmetry_group_IT_number 66
_symmetry_cell_setting 'orthorhombic'
loop_
_space_group_symop_operation_xyz
x,y,z
-x,-y,z
x,-y,1/2-z
-x,y,1/2-z
-x,-y,-z
x,y,-z
-x,y,1/2+z
x,-y,1/2+z
1/2+x,1/2+y,z
1/2-x,1/2-y,z
1/2+x,1/2-y,1/2-z
1/2-x,1/2+y,1/2-z
1/2-x,1/2-y,-z
1/2+x,1/2+y,-z
1/2-x,1/2+y,1/2+z
1/2+x,1/2-y,1/2+z
loop_
_atom_site_type_symbol
_atom_site_label
_atom_site_fract_x
_atom_site_fract_y
_atom_site_fract_z
Si Si1 0.382803 0.449130 0.106264
Si Si2 0.688314 0.915807 0.607696
Si Si3 0.152105 0.183757 0.748820
Si Si4 0.000000 0.500000 0.750000
O O1 0.500000 0.500000 0.143559
O O2 0.267037 0.507131 0.099428
O O3 0.346991 0.382171 0.174071
O O4 0.419677 0.422617 0.000000
O O5 0.645809 0.894242 0.500000
O O6 0.786293 0.854212 0.653292
O O7 0.578333 0.942179 0.681635
O O8 0.250000 0.250000 0.774147
O O9 0.000000 0.207978 0.750000
#
# Coordination Sequence:
#
# PCOD9497704 Si02
#       4
#    16  16  16   4
#     4  10  20  41  73 100 124 174 241 292 338 410
#     4  11  24  42  69  99 133 180 236 291 346 416
#     4  12  26  42  66 100 146 191 230 289 357 423
#     4  12  22  40  70 102 132 164 226 300 352 402
#
# _framework density 20.121496
#
# number of rings (size 3 to 8) (size 9 to 14) (size 15 to 20)
#    0.000    0.923    6.154    0.462    2.154    1.231 
#    0.000    0.000    0.000    0.000    0.000    0.000 
#    0.000    0.000    0.000    0.000    0.000    0.000 
#
# Total GULP energy -144999.119116 kJ/mol
# GULP energy per Si atom -5576.889197 kJ/mol
# Density = 2.007570 g / cm^3
# Si number density = 20.121496 Si / 1000 Ang^3
#
#
#
# Elastic Constant Matrix: (Units=GPa)
#
#
# Indices 1 2 3 4 5 6 
#
# 1 125.9887 45.4224 65.0979 0.0000 0.0000 0.0000
# 2 45.4224 100.9068 45.4217 0.0000 0.0000 0.0000
# 3 65.0979 45.4217 158.9262 0.0000 0.0000 0.0000
# 4 0.0000 0.0000 0.0000 -14.2519 0.0000 0.0000
# 5 0.0000 0.0000 0.0000 0.0000 -72.3572 0.0000
# 6 0.0000 0.0000 0.0000 0.0000 0.0000 43.3755
#
#
#
# Elastic Compliance Matrix: (Units=1/GPa)
#
#
# Indices 1 2 3 4 5 6 
#
# 1 0.010972 -0.003346 -0.003538 0.000000 0.000000 0.000000
# 2 -0.003346 0.012394 -0.002172 0.000000 0.000000 0.000000
# 3 -0.003538 -0.002172 0.008362 0.000000 0.000000 0.000000
# 4 0.000000 0.000000 0.000000 -0.070166 0.000000 0.000000
# 5 0.000000 0.000000 0.000000 0.000000 -0.013820 0.000000
# 6 0.000000 0.000000 0.000000 0.000000 0.000000 0.023054
#
#
# Mechanical properties :
#
#
# Convention : Reuss Voigt Hill
#
# Bulk Modulus (GPa) = 73.44114 77.52285 75.48199
# Shear Modulus (GPa) = -762.81932 6.67861 -378.07035
#
# Velocity S-wave (km/s) = -19.49178 1.82383 -13.72231
# Velocity P-wave (km/s) = 21.67936 6.56096 14.61076
#
# Compressibility (1/GPa) = 0.01361635
#
# Stress axis : x y z
#
# Youngs Moduli (GPa) = 91.14463 80.68454 119.58960
#
# Poissons Ratio (x) = 0.27000 0.42307
# Poissons Ratio (y) = 0.30500 0.25969
# Poissons Ratio (z) = 0.32244 0.17521
#
# Static dielectric constant tensor:
#      x y z
#    x 1.664680 0.000000 0.000000 
#    y 0.000000 1.674280 0.000000 
#    z 0.000000 0.000000 1.822160 
# 
# From -- ./inp_files/23706.got.cif
#   From: 2010.05.17/outbox.cif.g08.bks.cpg/sg66_12_cif.got.tgz:23706.got - 2010.06.03 17:51:23.
