data_PCOD9497927
_publ_section_title
;
Structure prediction by ZEFSAII (Michael W. Deem and Ramdas Pophale) SiO2 
 PCOD9497927
Probable space group: C C C M
;
_chemical_formula_sum "Si O2"
_cell_formula_units_Z 116
_cell_length_a 23.173119
_cell_length_b 28.448203
_cell_length_c 9.021411
_cell_angle_alpha 90.000000
_cell_angle_beta 90.000000
_cell_angle_gamma 90.000000
_cell_volume 5947.217192
_symmetry_space_group_name_H-M "C C C M"
_symmetry_group_IT_number 66
_symmetry_cell_setting 'orthorhombic'
loop_
_space_group_symop_operation_xyz
x,y,z
-x,-y,z
x,-y,1/2-z
-x,y,1/2-z
-x,-y,-z
x,y,-z
-x,y,1/2+z
x,-y,1/2+z
1/2+x,1/2+y,z
1/2-x,1/2-y,z
1/2+x,1/2-y,1/2-z
1/2-x,1/2+y,1/2-z
1/2-x,1/2-y,-z
1/2+x,1/2+y,-z
1/2-x,1/2+y,1/2+z
1/2+x,1/2-y,1/2+z
loop_
_atom_site_type_symbol
_atom_site_label
_atom_site_fract_x
_atom_site_fract_y
_atom_site_fract_z
Si Si1 0.378465 0.327122 0.676997
Si Si2 0.061096 0.741250 0.675886
Si Si3 0.500000 0.500000 0.250000
Si Si4 0.408352 0.581122 0.329821
Si Si5 0.061219 0.629581 0.675977
Si Si6 0.722939 0.449650 0.322092
Si Si7 0.822506 0.386841 0.821954
Si Si8 0.247445 0.802940 0.820776
O O1 0.382533 0.325388 0.500000
O O2 0.396448 0.277400 0.745591
O O3 0.415610 0.371540 0.733533
O O4 0.310915 0.330458 0.722032
O O5 0.060310 0.749510 0.500000
O O6 0.070353 0.685737 0.700359
O O7 0.000000 0.752313 0.750000
O O8 0.454415 0.538382 0.317460
O O9 0.408171 0.596458 0.500000
O O10 0.343900 0.563552 0.290135
O O11 0.059495 0.621375 0.500000
O O12 0.115274 0.604067 0.751590
O O13 0.000000 0.617387 0.750000
O O14 0.732048 0.500000 0.250000
O O15 0.729499 0.449778 0.500000
O O16 0.771399 0.417341 0.247899
O O17 0.802881 0.333602 0.783619
O O18 0.823854 0.391940 0.000000
O O19 0.250000 0.750000 0.761635
O O20 0.245458 0.800037 0.000000
#
# Coordination Sequence:
#
# PCOD9497927 Si02
#       8
#    16  16   4  16  16  16  16  16
#     4  11  22  37  58  83 118 160 204 255 314 376
#     4  10  21  37  56  81 117 161 210 256 305 362
#     4  12  26  48  68  90 114 164 222 274 338 396
#     4  11  25  43  64  88 118 155 204 266 327 384
#     4  10  21  38  61  91 126 166 208 254 302 361
#     4  11  23  42  66  92 123 159 204 260 318 379
#     4  11  21  37  62  92 125 163 206 254 312 377
#     4   9  18  32  53  84 120 159 202 247 300 368
#
# _framework density 19.504919999999998
#
# number of rings (size 3 to 8) (size 9 to 14) (size 15 to 20)
#    0.000    1.517    2.069    3.103    0.966    4.414 
#    0.000    0.000    0.000    3.724    0.000    2.897 
#    0.000    0.000    0.000    0.000    0.000    0.000 
#
# Total GULP energy -323497.249467 kJ/mol
# GULP energy per Si atom -5577.538784 kJ/mol
# Density = 1.946053 g / cm^3
# Si number density = 19.504920 Si / 1000 Ang^3
#
#
#
# Elastic Constant Matrix: (Units=GPa)
#
#
# Indices 1 2 3 4 5 6 
#
# 1 139.3541 26.3116 53.9998 0.0000 0.0000 0.0000
# 2 26.3116 57.5769 29.2313 0.0000 0.0000 0.0000
# 3 53.9998 29.2313 57.7576 0.0000 0.0000 0.0000
# 4 0.0000 0.0000 0.0000 25.4510 0.0000 0.0000
# 5 0.0000 0.0000 0.0000 0.0000 24.7916 0.0000
# 6 0.0000 0.0000 0.0000 0.0000 0.0000 44.9538
#
#
#
# Elastic Compliance Matrix: (Units=1/GPa)
#
#
# Indices 1 2 3 4 5 6 
#
# 1 0.011256 0.000268 -0.010659 0.000000 0.000000 0.000000
# 2 0.000268 0.023380 -0.012083 0.000000 0.000000 0.000000
# 3 -0.010659 -0.012083 0.033395 0.000000 0.000000 0.000000
# 4 0.000000 0.000000 0.000000 0.039291 0.000000 0.000000
# 5 0.000000 0.000000 0.000000 0.000000 0.040336 0.000000
# 6 0.000000 0.000000 0.000000 0.000000 0.000000 0.022245
#
#
# Mechanical properties :
#
#
# Convention : Reuss Voigt Hill
#
# Bulk Modulus (GPa) = 43.32415 52.64157 47.98286
# Shear Modulus (GPa) = 22.46730 28.71567 25.59149
#
# Velocity S-wave (km/s) = 3.39762 3.84112 3.62616
# Velocity P-wave (km/s) = 6.13611 6.83519 6.49506
#
# Compressibility (1/GPa) = 0.02308182
#
# Stress axis : x y z
#
# Youngs Moduli (GPa) = 88.84340 42.77120 29.94503
#
# Poissons Ratio (x) = -0.01145 0.31918
# Poissons Ratio (y) = -0.02379 0.36183
# Poissons Ratio (z) = 0.94698 0.51681
#
# Static dielectric constant tensor:
#      x y z
#    x 1.695380 0.000000 0.000000 
#    y 0.000000 1.575440 0.000000 
#    z 0.000000 0.000000 1.648310 
# 
# From -- ./inp_files/9434.got.cif
#   From: 2010.05.17/outbox.cif.g08.bks.cpg/sg66_5_cif.got.tgz:9434.got - 2010.06.03 17:51:23.
