data_PCOD9497066
_publ_section_title
;
Structure prediction by ZEFSAII (Michael W. Deem and Ramdas Pophale) SiO2 
 PCOD9497066
Probable space group: C C C M
;
_chemical_formula_sum "Si O2"
_cell_formula_units_Z 72
_cell_length_a 8.410386
_cell_length_b 29.168233
_cell_length_c 15.995268
_cell_angle_alpha 90.000000
_cell_angle_beta 90.000000
_cell_angle_gamma 90.000000
_cell_volume 3923.896740
_symmetry_space_group_name_H-M "C C C M"
_symmetry_group_IT_number 66
_symmetry_cell_setting 'orthorhombic'
loop_
_space_group_symop_operation_xyz
x,y,z
-x,-y,z
x,-y,1/2-z
-x,y,1/2-z
-x,-y,-z
x,y,-z
-x,y,1/2+z
x,-y,1/2+z
1/2+x,1/2+y,z
1/2-x,1/2-y,z
1/2+x,1/2-y,1/2-z
1/2-x,1/2+y,1/2-z
1/2-x,1/2-y,-z
1/2+x,1/2+y,-z
1/2-x,1/2+y,1/2+z
1/2+x,1/2-y,1/2+z
loop_
_atom_site_type_symbol
_atom_site_label
_atom_site_fract_x
_atom_site_fract_y
_atom_site_fract_z
Si Si1 0.103613 0.283972 0.667868
Si Si2 0.895221 0.285617 0.500000
Si Si3 0.376546 0.890765 0.173516
Si Si4 0.428836 0.890723 0.500000
Si Si5 0.817413 0.513907 0.000000
Si Si6 0.675924 0.522800 0.669488
O O1 0.250000 0.250000 0.662753
O O2 0.160643 0.336708 0.677011
O O3 0.000000 0.273657 0.750000
O O4 0.999104 0.279329 0.583891
O O5 0.750000 0.250000 0.500000
O O6 0.853747 0.339988 0.500000
O O7 0.500000 0.900737 0.250000
O O8 0.221604 0.923502 0.177628
O O9 0.465885 0.897001 0.084142
O O10 0.301991 0.931345 0.500000
O O11 0.745338 0.493136 0.917379
O O12 0.000000 0.500000 0.000000
O O13 0.500000 0.500000 0.668899
O O14 0.758217 0.500000 0.750000
#
# Coordination Sequence:
#
# PCOD9497066 Si02
#       6
#    16   8  16   8   8  16
#     4  10  21  39  61  87 116 151 198 246 294 351
#     4  10  21  39  59  85 121 150 192 246 295 353
#     4  10  20  37  61  83 115 157 195 236 286 357
#     4  10  20  35  57  88 107 149 205 228 278 346
#     4  12  21  36  63  83 109 157 200 234 276 350
#     4  11  24  39  55  86 123 148 189 244 295 338
#
# _framework density 18.349105999999999
#
# number of rings (size 3 to 8) (size 9 to 14) (size 15 to 20)
#    0.000    1.556    2.222    2.667    0.000    0.000 
#    8.000    0.000    0.000    0.000    0.000    0.000 
#    0.000    0.000    0.000    0.000    0.000    0.000 
#
# Total GULP energy -200655.749628 kJ/mol
# GULP energy per Si atom -5573.770823 kJ/mol
# Density = 1.830734 g / cm^3
# Si number density = 18.349106 Si / 1000 Ang^3
#
#
#
# Elastic Constant Matrix: (Units=GPa)
#
#
# Indices 1 2 3 4 5 6 
#
# 1 92.1586 83.4857 47.2714 0.0000 0.0000 0.0000
# 2 83.4857 154.3493 46.3819 0.0000 0.0000 0.0000
# 3 47.2714 46.3819 166.3065 0.0000 0.0000 0.0000
# 4 0.0000 0.0000 0.0000 -405.8105 0.0000 0.0000
# 5 0.0000 0.0000 0.0000 0.0000 43.4224 0.0000
# 6 0.0000 0.0000 0.0000 0.0000 0.0000 38.6724
#
#
#
# Elastic Compliance Matrix: (Units=1/GPa)
#
#
# Indices 1 2 3 4 5 6 
#
# 1 0.022846 -0.011357 -0.003326 0.000000 0.000000 0.000000
# 2 -0.011357 0.012718 -0.000319 0.000000 0.000000 0.000000
# 3 -0.003326 -0.000319 0.007047 0.000000 0.000000 0.000000
# 4 0.000000 0.000000 0.000000 -0.002464 0.000000 0.000000
# 5 0.000000 0.000000 0.000000 0.000000 0.023030 0.000000
# 6 0.000000 0.000000 0.000000 0.000000 0.000000 0.025858
#
#
# Mechanical properties :
#
#
# Convention : Reuss Voigt Hill
#
# Bulk Modulus (GPa) = 79.32649 85.23248 82.27949
# Shear Modulus (GPa) = 40.57110 -49.03145 -4.23018
#
# Velocity S-wave (km/s) = 4.70730 -5.17489 -1.52000
# Velocity P-wave (km/s) = 8.53642 3.29323 6.46977
#
# Compressibility (1/GPa) = 0.01260613
#
# Stress axis : x y z
#
# Youngs Moduli (GPa) = 43.77223 78.63102 141.89843
#
# Poissons Ratio (x) = 0.89304 0.47198
# Poissons Ratio (y) = 0.49714 0.04521
# Poissons Ratio (z) = 0.14559 0.02505
#
# Static dielectric constant tensor:
#      x y z
#    x 1.553660 0.000000 0.000000 
#    y 0.000000 1.652120 0.000000 
#    z 0.000000 0.000000 1.691410 
# 
# From -- ./inp_files/24513.got.cif
#   From: 2010.05.17/outbox.cif.g08.bks.cpg/sg66_13_cif.got.tgz:24513.got - 2010.06.03 17:51:23.
