data_PCOD9497626
_publ_section_title
;
Structure prediction by ZEFSAII (Michael W. Deem and Ramdas Pophale) SiO2 
 PCOD9497626
Probable space group: C C C M
;
_chemical_formula_sum "Si O2"
_cell_formula_units_Z 104
_cell_length_a 22.481134
_cell_length_b 8.981756
_cell_length_c 26.441247
_cell_angle_alpha 90.000000
_cell_angle_beta 90.000000
_cell_angle_gamma 90.000000
_cell_volume 5339.018186
_symmetry_space_group_name_H-M "C C C M"
_symmetry_group_IT_number 66
_symmetry_cell_setting 'orthorhombic'
loop_
_space_group_symop_operation_xyz
x,y,z
-x,-y,z
x,-y,1/2-z
-x,y,1/2-z
-x,-y,-z
x,y,-z
-x,y,1/2+z
x,-y,1/2+z
1/2+x,1/2+y,z
1/2-x,1/2-y,z
1/2+x,1/2-y,1/2-z
1/2-x,1/2+y,1/2-z
1/2-x,1/2-y,-z
1/2+x,1/2+y,-z
1/2-x,1/2+y,1/2+z
1/2+x,1/2-y,1/2+z
loop_
_atom_site_type_symbol
_atom_site_label
_atom_site_fract_x
_atom_site_fract_y
_atom_site_fract_z
Si Si1 0.686831 0.262967 0.698813
Si Si2 0.100826 0.000000 0.250000
Si Si3 0.907531 0.486816 0.308181
Si Si4 0.945292 0.623759 0.000000
Si Si5 0.913652 0.820000 0.345360
Si Si6 0.347597 0.567256 0.392827
Si Si7 0.536680 0.239511 0.387243
Si Si8 0.820482 0.209528 0.500000
O O1 0.750000 0.250000 0.725188
O O2 0.642437 0.369883 0.728570
O O3 0.653834 0.106456 0.692475
O O4 0.696183 0.348055 0.645459
O O5 0.068901 0.918836 0.203738
O O6 0.928976 0.500000 0.250000
O O7 0.898602 0.652792 0.328375
O O8 0.949279 0.390231 0.346036
O O9 0.957832 0.690135 0.944970
O O10 0.870213 0.652993 0.000000
O O11 0.000000 0.500000 0.000000
O O12 0.972068 0.805347 0.378920
O O13 0.859562 0.898702 0.375293
O O14 0.411420 0.641371 0.380263
O O15 0.332612 0.609708 0.450011
O O16 0.750000 0.250000 0.500000
#
# Coordination Sequence:
#
# PCOD9497626 Si02
#       8
#    16   8  16   8  16  16  16   8
#     4  10  21  38  59  81 115 155 207 255 315 375
#     4  10  22  36  53  80 114 156 203 248 308 384
#     4  11  22  39  56  88 120 159 212 258 311 390
#     4  10  20  39  65  95 125 161 215 272 323 381
#     4  11  21  38  55  84 125 160 199 257 316 383
#     4   9  21  39  57  93 121 159 208 258 316 387
#     4  10  22  39  61  88 124 164 210 256 323 387
#     4  10  20  39  71  95 128 171 219 272 332 395
#
# _framework density 19.479237000000001
#
# number of rings (size 3 to 8) (size 9 to 14) (size 15 to 20)
#    0.000    1.846    1.538    2.308    1.077    1.846 
#    2.769    5.385    0.000    0.000    0.000   16.154 
#    0.000    0.000    0.000    0.000    0.000    0.000 
#
# Total GULP energy -289567.939553 kJ/mol
# GULP energy per Si atom -5568.614222 kJ/mol
# Density = 1.943490 g / cm^3
# Si number density = 19.479237 Si / 1000 Ang^3
#
#
#
# Elastic Constant Matrix: (Units=GPa)
#
#
# Indices 1 2 3 4 5 6 
#
# 1 92.1294 33.1247 18.5606 0.0000 0.0000 0.0000
# 2 33.1247 97.6750 26.7451 0.0000 0.0000 0.0000
# 3 18.5606 26.7451 132.5800 0.0000 0.0000 0.0000
# 4 0.0000 0.0000 0.0000 21.4112 0.0000 0.0000
# 5 0.0000 0.0000 0.0000 0.0000 10.9747 0.0000
# 6 0.0000 0.0000 0.0000 0.0000 0.0000 14.6450
#
#
#
# Elastic Compliance Matrix: (Units=1/GPa)
#
#
# Indices 1 2 3 4 5 6 
#
# 1 0.012472 -0.003971 -0.000945 0.000000 0.000000 0.000000
# 2 -0.003971 0.012101 -0.001885 0.000000 0.000000 0.000000
# 3 -0.000945 -0.001885 0.008055 0.000000 0.000000 0.000000
# 4 0.000000 0.000000 0.000000 0.046704 0.000000 0.000000
# 5 0.000000 0.000000 0.000000 0.000000 0.091118 0.000000
# 6 0.000000 0.000000 0.000000 0.000000 0.000000 0.068283
#
#
# Mechanical properties :
#
#
# Convention : Reuss Voigt Hill
#
# Bulk Modulus (GPa) = 52.55927 53.24946 52.90436
# Shear Modulus (GPa) = 19.32900 25.66979 22.49939
#
# Velocity S-wave (km/s) = 3.15348 3.63409 3.40228
# Velocity P-wave (km/s) = 6.34823 6.70856 6.53088
#
# Compressibility (1/GPa) = 0.01902614
#
# Stress axis : x y z
#
# Youngs Moduli (GPa) = 80.17664 82.63822 124.14336
#
# Poissons Ratio (x) = 0.32816 0.11732
# Poissons Ratio (y) = 0.31839 0.23403
# Poissons Ratio (z) = 0.07577 0.15579
#
# Static dielectric constant tensor:
#      x y z
#    x 1.714680 0.000000 0.000000 
#    y 0.000000 1.706160 0.000000 
#    z 0.000000 0.000000 10.304710 
# 
# From -- ./inp_files/66103.got.cif
#   From: 2010.05.17/outbox.cif.g08.bks.cpg/sg66_34_cif.got.tgz:66103.got - 2010.06.03 17:51:23.
