data_PCOD9497130
_publ_section_title
;
Structure prediction by ZEFSAII (Michael W. Deem and Ramdas Pophale) SiO2 
 PCOD9497130
Probable space group: C C C M
;
_chemical_formula_sum "Si O2"
_cell_formula_units_Z 80
_cell_length_a 24.816618
_cell_length_b 5.310264
_cell_length_c 24.838682
_cell_angle_alpha 90.000000
_cell_angle_beta 90.000000
_cell_angle_gamma 90.000000
_cell_volume 3273.310893
_symmetry_space_group_name_H-M "C C C M"
_symmetry_group_IT_number 66
_symmetry_cell_setting 'orthorhombic'
loop_
_space_group_symop_operation_xyz
x,y,z
-x,-y,z
x,-y,1/2-z
-x,y,1/2-z
-x,-y,-z
x,y,-z
-x,y,1/2+z
x,-y,1/2+z
1/2+x,1/2+y,z
1/2-x,1/2-y,z
1/2+x,1/2-y,1/2-z
1/2-x,1/2+y,1/2-z
1/2-x,1/2-y,-z
1/2+x,1/2+y,-z
1/2-x,1/2+y,1/2+z
1/2+x,1/2-y,1/2+z
loop_
_atom_site_type_symbol
_atom_site_label
_atom_site_fract_x
_atom_site_fract_y
_atom_site_fract_z
Si Si1 0.578810 0.007659 0.189064
Si Si2 0.699451 0.938873 0.057341
Si Si3 0.968143 0.748407 0.408098
Si Si4 0.879282 0.097678 0.609788
Si Si5 0.807304 0.745963 0.666569
O O1 0.540743 0.194128 0.155336
O O2 0.640247 0.114796 0.191712
O O3 0.560728 0.000000 0.250000
O O4 0.582992 0.761650 0.150101
O O5 0.750000 0.750000 0.056847
O O6 0.644985 0.778132 0.065039
O O7 0.703217 0.103793 0.110392
O O8 0.698467 0.076201 0.000000
O O9 0.000000 0.500000 0.429648
O O10 0.906853 0.852145 0.417547
O O11 0.000000 0.000000 0.422153
O O12 0.829999 0.015505 0.648297
O O13 0.750000 0.750000 0.696368
#
# Coordination Sequence:
#
# PCOD9497130 Si02
#       5
#    16  16  16  16  16
#     4  10  23  41  59  91 124 163 215 264 315 378
#     4  10  20  35  61  94 126 164 211 263 319 378
#     4  11  22  42  65  92 121 166 211 265 324 379
#     4  10  21  40  62  86 129 165 206 263 316 380
#     4  10  20  36  57  88 127 171 207 253 311 379
#
# _framework density 24.440083999999999
#
# number of rings (size 3 to 8) (size 9 to 14) (size 15 to 20)
#    0.000    1.800    4.000    0.000    0.000    4.800 
#    7.200    0.000    0.000    1.200    0.000    0.000 
#    0.000    0.000    0.000    0.000    0.000    0.000 
#
# Total GULP energy -222953.100966 kJ/mol
# GULP energy per Si atom -5573.827524 kJ/mol
# Density = 2.438446 g / cm^3
# Si number density = 24.440084 Si / 1000 Ang^3
#
#
#
# Elastic Constant Matrix: (Units=GPa)
#
#
# Indices 1 2 3 4 5 6 
#
# 1 137.7966 32.2367 -9.8763 0.0000 0.0000 0.0000
# 2 32.2367 111.5129 6.8191 0.0000 0.0000 0.0000
# 3 -9.8763 6.8191 73.2300 0.0000 0.0000 0.0000
# 4 0.0000 0.0000 0.0000 -9.6398 0.0000 0.0000
# 5 0.0000 0.0000 0.0000 0.0000 -43.1344 0.0000
# 6 0.0000 0.0000 0.0000 0.0000 0.0000 65.5616
#
#
#
# Elastic Compliance Matrix: (Units=1/GPa)
#
#
# Indices 1 2 3 4 5 6 
#
# 1 0.007902 -0.002363 0.001286 0.000000 0.000000 0.000000
# 2 -0.002363 0.009726 -0.001224 0.000000 0.000000 0.000000
# 3 0.001286 -0.001224 0.013943 0.000000 0.000000 0.000000
# 4 0.000000 0.000000 0.000000 -0.103737 0.000000 0.000000
# 5 0.000000 0.000000 0.000000 0.000000 -0.023183 0.000000
# 6 0.000000 0.000000 0.000000 0.000000 0.000000 0.015253
#
#
# Mechanical properties :
#
#
# Convention : Reuss Voigt Hill
#
# Bulk Modulus (GPa) = 37.08167 42.32207 39.70187
# Shear Modulus (GPa) = -75.18312 22.11481 -26.53416
#
# Velocity S-wave (km/s) = -5.55239 3.01135 -3.29854
# Velocity P-wave (km/s) = 5.08920 5.42635 1.33141
#
# Compressibility (1/GPa) = 0.02696750
#
# Stress axis : x y z
#
# Youngs Moduli (GPa) = 126.54969 102.82196 71.72050
#
# Poissons Ratio (x) = 0.24297 -0.09222
# Poissons Ratio (y) = 0.29904 0.08781
# Poissons Ratio (z) = -0.16271 0.12589
#
# Static dielectric constant tensor:
#      x y z
#    x 2.130780 0.000000 0.000000 
#    y 0.000000 2.047270 0.000000 
#    z 0.000000 0.000000 1.854860 
# 
# From -- ./inp_files/66231.got.cif
#   From: 2010.05.17/outbox.cif.g08.bks.cpg/sg66_34_cif.got.tgz:66231.got - 2010.06.03 17:51:23.
