data_PCOD9497039
_publ_section_title
;
Structure prediction by ZEFSAII (Michael W. Deem and Ramdas Pophale) SiO2 
 PCOD9497039
Probable space group: C C C M
;
_chemical_formula_sum "Si O2"
_cell_formula_units_Z 80
_cell_length_a 11.376231
_cell_length_b 21.612538
_cell_length_c 13.901816
_cell_angle_alpha 90.000000
_cell_angle_beta 90.000000
_cell_angle_gamma 90.000000
_cell_volume 3418.028723
_symmetry_space_group_name_H-M "C C C M"
_symmetry_group_IT_number 66
_symmetry_cell_setting 'orthorhombic'
loop_
_space_group_symop_operation_xyz
x,y,z
-x,-y,z
x,-y,1/2-z
-x,y,1/2-z
-x,-y,-z
x,y,-z
-x,y,1/2+z
x,-y,1/2+z
1/2+x,1/2+y,z
1/2-x,1/2-y,z
1/2+x,1/2-y,1/2-z
1/2-x,1/2+y,1/2-z
1/2-x,1/2-y,-z
1/2+x,1/2+y,-z
1/2-x,1/2+y,1/2+z
1/2+x,1/2-y,1/2+z
loop_
_atom_site_type_symbol
_atom_site_label
_atom_site_fract_x
_atom_site_fract_y
_atom_site_fract_z
Si Si1 0.878870 0.762599 0.306598
Si Si2 0.145240 0.903366 0.808271
Si Si3 0.141449 0.962902 0.612442
Si Si4 0.614962 0.135371 0.890337
Si Si5 0.585620 0.946369 0.115148
O O1 0.750000 0.750000 0.255317
O O2 0.888035 0.833876 0.339587
O O3 0.873775 0.708910 0.385494
O O4 0.000000 0.751369 0.250000
O O5 0.104321 0.916216 0.698125
O O6 0.287129 0.896960 0.824026
O O7 0.108404 0.965149 0.867188
O O8 0.120633 0.947457 0.500000
O O9 0.280555 0.959463 0.635403
O O10 0.483386 0.116140 0.860184
O O11 0.637877 0.113989 0.000000
O O12 0.500000 0.000000 0.149189
O O13 0.584380 0.947536 0.000000
#
# Coordination Sequence:
#
# PCOD9497039 Si02
#       5
#    16  16  16  16  16
#     4  10  24  43  65  93 131 176 229 281 333 398
#     4  10  21  36  59  90 123 174 216 274 335 397
#     4  10  20  35  56  89 130 170 217 269 336 407
#     4  10  20  35  60  94 129 171 223 278 338 399
#     4   9  16  28  50  84 125 163 202 265 332 383
#
# _framework density 23.405304000000001
#
# number of rings (size 3 to 8) (size 9 to 14) (size 15 to 20)
#    0.000    2.200    2.000    0.600    5.600    4.400 
#    0.000    3.000    0.000    7.200    0.000    0.000 
#    0.000    0.000    0.000    0.000    0.000    0.000 
#
# Total GULP energy -222980.395375 kJ/mol
# GULP energy per Si atom -5574.509884 kJ/mol
# Density = 2.335203 g / cm^3
# Si number density = 23.405304 Si / 1000 Ang^3
#
#
#
# Elastic Constant Matrix: (Units=GPa)
#
#
# Indices 1 2 3 4 5 6 
#
# 1 112.1907 17.7546 16.3895 0.0000 0.0000 0.0000
# 2 17.7546 164.6343 35.3842 0.0000 0.0000 0.0000
# 3 16.3895 35.3842 124.3439 0.0000 0.0000 0.0000
# 4 0.0000 0.0000 0.0000 24.3468 0.0000 0.0000
# 5 0.0000 0.0000 0.0000 0.0000 34.2199 0.0000
# 6 0.0000 0.0000 0.0000 0.0000 0.0000 42.6923
#
#
#
# Elastic Compliance Matrix: (Units=1/GPa)
#
#
# Indices 1 2 3 4 5 6 
#
# 1 0.009181 -0.000778 -0.000989 0.000000 0.000000 0.000000
# 2 -0.000778 0.006536 -0.001757 0.000000 0.000000 0.000000
# 3 -0.000989 -0.001757 0.008673 0.000000 0.000000 0.000000
# 4 0.000000 0.000000 0.000000 0.041073 0.000000 0.000000
# 5 0.000000 0.000000 0.000000 0.000000 0.029223 0.000000
# 6 0.000000 0.000000 0.000000 0.000000 0.000000 0.023423
#
#
# Mechanical properties :
#
#
# Convention : Reuss Voigt Hill
#
# Bulk Modulus (GPa) = 57.66459 60.02505 58.84482
# Shear Modulus (GPa) = 38.18641 42.36116 40.27378
#
# Velocity S-wave (km/s) = 4.04360 4.25890 4.15265
# Velocity P-wave (km/s) = 6.81849 7.06300 6.94182
#
# Compressibility (1/GPa) = 0.01734166
#
# Stress axis : x y z
#
# Youngs Moduli (GPa) = 108.92171 153.00763 115.30531
#
# Poissons Ratio (x) = 0.11897 0.11402
# Poissons Ratio (y) = 0.08469 0.20263
# Poissons Ratio (z) = 0.10771 0.26889
#
# Static dielectric constant tensor:
#      x y z
#    x 2.096500 0.000000 0.000000 
#    y 0.000000 1.874620 0.000000 
#    z 0.000000 0.000000 1.866410 
# 
# From -- ./inp_files/26429.got.cif
#   From: 2010.05.17/outbox.cif.g08.bks.cpg/sg66_14_cif.got.tgz:26429.got - 2010.06.03 17:51:23.
