data_PCOD9497418
_publ_section_title
;
Structure prediction by ZEFSAII (Michael W. Deem and Ramdas Pophale) SiO2 
 PCOD9497418
Probable space group: C C C M
;
_chemical_formula_sum "Si O2"
_cell_formula_units_Z 80
_cell_length_a 15.235209
_cell_length_b 8.702984
_cell_length_c 26.275741
_cell_angle_alpha 90.000000
_cell_angle_beta 90.000000
_cell_angle_gamma 90.000000
_cell_volume 3483.947274
_symmetry_space_group_name_H-M "C C C M"
_symmetry_group_IT_number 66
_symmetry_cell_setting 'orthorhombic'
loop_
_space_group_symop_operation_xyz
x,y,z
-x,-y,z
x,-y,1/2-z
-x,y,1/2-z
-x,-y,-z
x,y,-z
-x,y,1/2+z
x,-y,1/2+z
1/2+x,1/2+y,z
1/2-x,1/2-y,z
1/2+x,1/2-y,1/2-z
1/2-x,1/2+y,1/2-z
1/2-x,1/2-y,-z
1/2+x,1/2+y,-z
1/2-x,1/2+y,1/2+z
1/2+x,1/2-y,1/2+z
loop_
_atom_site_type_symbol
_atom_site_label
_atom_site_fract_x
_atom_site_fract_y
_atom_site_fract_z
Si Si1 0.102279 0.946397 0.000000
Si Si2 0.165343 0.128249 0.903397
Si Si3 0.353691 0.573739 0.801685
Si Si4 0.095301 0.568071 0.599809
Si Si5 0.098215 0.421100 0.500000
Si Si6 0.646782 0.916395 0.299242
O O1 0.100149 0.761464 0.000000
O O2 0.153317 0.013988 0.950701
O O3 0.000000 0.000000 0.000000
O O4 0.250000 0.250000 0.903256
O O5 0.088409 0.252683 0.909746
O O6 0.147647 0.035968 0.851112
O O7 0.391737 0.500000 0.750000
O O8 0.390365 0.746076 0.810148
O O9 0.250576 0.598216 0.790539
O O10 0.139876 0.486120 0.551603
O O11 0.140463 0.525724 0.652263
O O12 0.000000 0.500000 0.605389
O O13 0.000000 0.500000 0.500000
O O14 0.607670 0.000000 0.250000
#
# Coordination Sequence:
#
# PCOD9497418 Si02
#       6
#     8  16  16  16   8  16
#     4  12  25  44  70  99 139 184 227 286 352 410
#     4  12  24  43  68 105 137 176 234 286 336 408
#     4  10  21  37  64  94 129 175 221 277 335 400
#     4  11  22  40  64  89 128 174 217 272 340 401
#     4  10  22  42  63  89 124 177 223 265 336 411
#     4  10  20  37  61  91 129 171 219 269 338 401
#
# _framework density 22.96246
#
# number of rings (size 3 to 8) (size 9 to 14) (size 15 to 20)
#    0.000    1.200    2.000    5.700    2.800    0.400 
#    0.000    1.000    0.000    4.200    0.000    0.000 
#    0.000    0.000    0.000    0.000    0.000    0.000 
#
# Total GULP energy -223202.122922 kJ/mol
# GULP energy per Si atom -5580.053073 kJ/mol
# Density = 2.291020 g / cm^3
# Si number density = 22.962460 Si / 1000 Ang^3
#
#
#
# Elastic Constant Matrix: (Units=GPa)
#
#
# Indices 1 2 3 4 5 6 
#
# 1 54.0698 13.9705 5.4252 0.0000 0.0000 0.0000
# 2 13.9705 214.0312 96.6257 0.0000 0.0000 0.0000
# 3 5.4252 96.6257 207.0143 0.0000 0.0000 0.0000
# 4 0.0000 0.0000 0.0000 29.8480 0.0000 0.0000
# 5 0.0000 0.0000 0.0000 0.0000 -0.0891 0.0000
# 6 0.0000 0.0000 0.0000 0.0000 0.0000 25.0475
#
#
#
# Elastic Compliance Matrix: (Units=1/GPa)
#
#
# Indices 1 2 3 4 5 6 
#
# 1 0.018814 -0.001274 0.000102 0.000000 0.000000 0.000000
# 2 -0.001274 0.006006 -0.002770 0.000000 0.000000 0.000000
# 3 0.000102 -0.002770 0.006121 0.000000 0.000000 0.000000
# 4 0.000000 0.000000 0.000000 0.033503 0.000000 0.000000
# 5 0.000000 0.000000 0.000000 0.000000-11.225612 0.000000
# 6 0.000000 0.000000 0.000000 0.000000 0.000000 0.039924
#
#
# Mechanical properties :
#
#
# Convention : Reuss Voigt Hill
#
# Bulk Modulus (GPa) = 43.37309 78.57312 60.97311
# Shear Modulus (GPa) = -0.45022 34.90088 17.22533
#
# Velocity S-wave (km/s) = -0.44328 3.90283 2.74186
# Velocity P-wave (km/s) = 4.32061 7.38931 6.05267
#
# Compressibility (1/GPa) = 0.02305577
#
# Stress axis : x y z
#
# Youngs Moduli (GPa) = 53.15317 166.50425 163.37739
#
# Poissons Ratio (x) = 0.21210 -0.01659
# Poissons Ratio (y) = 0.06771 0.45254
# Poissons Ratio (z) = -0.00540 0.46120
#
# Static dielectric constant tensor:
#      x y z
#    x 2.735380 0.000000 0.000000 
#    y 0.000000 1.916380 0.000000 
#    z 0.000000 0.000000 1.855100 
# 
# From -- ./inp_files/65104.got.cif
#   From: 2010.05.17/outbox.cif.g08.bks.cpg/sg66_33_cif.got.tgz:65104.got - 2010.06.03 17:51:23.
