data_PCOD9497362
_publ_section_title
;
Structure prediction by ZEFSAII (Michael W. Deem and Ramdas Pophale) SiO2 
 PCOD9497362
Probable space group: C C C M
;
_chemical_formula_sum "Si O2"
_cell_formula_units_Z 120
_cell_length_a 9.422066
_cell_length_b 27.128964
_cell_length_c 26.207075
_cell_angle_alpha 90.000000
_cell_angle_beta 90.000000
_cell_angle_gamma 90.000000
_cell_volume 6698.813747
_symmetry_space_group_name_H-M "C C C M"
_symmetry_group_IT_number 66
_symmetry_cell_setting 'orthorhombic'
loop_
_space_group_symop_operation_xyz
x,y,z
-x,-y,z
x,-y,1/2-z
-x,y,1/2-z
-x,-y,-z
x,y,-z
-x,y,1/2+z
x,-y,1/2+z
1/2+x,1/2+y,z
1/2-x,1/2-y,z
1/2+x,1/2-y,1/2-z
1/2-x,1/2+y,1/2-z
1/2-x,1/2-y,-z
1/2+x,1/2+y,-z
1/2-x,1/2+y,1/2+z
1/2+x,1/2-y,1/2+z
loop_
_atom_site_type_symbol
_atom_site_label
_atom_site_fract_x
_atom_site_fract_y
_atom_site_fract_z
Si Si1 0.203227 0.067907 0.500000
Si Si2 0.344310 0.056883 0.765153
Si Si3 0.571172 0.946292 0.592093
Si Si4 0.200283 0.399873 0.874326
Si Si5 0.665620 0.799982 0.184673
Si Si6 0.329026 0.199436 0.693364
Si Si7 0.285381 0.404114 0.671167
Si Si8 0.507493 0.559298 0.095080
O O1 0.324911 0.060177 0.544692
O O2 0.081010 0.072694 0.455021
O O3 0.500000 0.078295 0.750000
O O4 0.318589 0.065691 0.824292
O O5 0.225885 0.082308 0.730342
O O6 0.345223 0.000000 0.750000
O O7 0.443805 0.906834 0.593937
O O8 0.666480 0.936932 0.642317
O O9 0.500000 0.000000 0.592215
O O10 0.214869 0.345428 0.850449
O O11 0.333300 0.420296 0.905512
O O12 0.750000 0.750000 0.171876
O O13 0.688021 0.808831 0.245427
O O14 0.495113 0.795945 0.180159
O O15 0.250000 0.250000 0.680669
O O16 0.260060 0.152579 0.665823
O O17 0.431738 0.416826 0.644254
O O18 0.500000 0.500000 0.099538
#
# Coordination Sequence:
#
# PCOD9497362 Si02
#       8
#     8  16  16  16  16  16  16  16
#     4  10  24  44  62  84 121 156 200 261 319 361
#     4  11  19  31  54  82 125 167 201 236 282 346
#     4  11  21  37  63  92 115 152 209 252 299 369
#     4  12  22  36  60  90 122 165 202 251 296 359
#     4  10  21  37  57  88 120 161 211 255 293 340
#     4  10  20  37  59  82 122 169 208 248 291 347
#     4  11  21  37  55  86 127 166 205 238 292 364
#     4  11  25  41  59  87 128 160 201 252 309 366
#
# _framework density 17.913619000000001
#
# number of rings (size 3 to 8) (size 9 to 14) (size 15 to 20)
#    0.000    1.200    4.000    3.600    1.867    1.067 
#    0.000    1.333    0.000    0.000    0.000   17.733 
#    0.000    0.000    0.000    0.000    0.000    0.000 
#
# Total GULP energy -334052.580488 kJ/mol
# GULP energy per Si atom -5567.543008 kJ/mol
# Density = 1.787285 g / cm^3
# Si number density = 17.913619 Si / 1000 Ang^3
#
#
#
# Elastic Constant Matrix: (Units=GPa)
#
#
# Indices 1 2 3 4 5 6 
#
# 1 67.3600 13.9783 21.5711 0.0000 0.0000 0.0000
# 2 13.9783 86.6630 15.4698 0.0000 0.0000 0.0000
# 3 21.5711 15.4698 72.0814 0.0000 0.0000 0.0000
# 4 0.0000 0.0000 0.0000 -1.5054 0.0000 0.0000
# 5 0.0000 0.0000 0.0000 0.0000 31.6535 0.0000
# 6 0.0000 0.0000 0.0000 0.0000 0.0000 19.5723
#
#
#
# Elastic Compliance Matrix: (Units=1/GPa)
#
#
# Indices 1 2 3 4 5 6 
#
# 1 0.016707 -0.001874 -0.004597 0.000000 0.000000 0.000000
# 2 -0.001874 0.012209 -0.002059 0.000000 0.000000 0.000000
# 3 -0.004597 -0.002059 0.015691 0.000000 0.000000 0.000000
# 4 0.000000 0.000000 0.000000 -0.664273 0.000000 0.000000
# 5 0.000000 0.000000 0.000000 0.000000 0.031592 0.000000
# 6 0.000000 0.000000 0.000000 0.000000 0.000000 0.051093
#
#
# Mechanical properties :
#
#
# Convention : Reuss Voigt Hill
#
# Bulk Modulus (GPa) = 36.30445 36.46031 36.38238
# Shear Modulus (GPa) = -9.78975 21.61641 5.91333
#
# Velocity S-wave (km/s) = -2.34026 3.47753 1.81884
# Velocity P-wave (km/s) = 3.60665 6.04333 4.97644
#
# Compressibility (1/GPa) = 0.02754483
#
# Stress axis : x y z
#
# Youngs Moduli (GPa) = 59.85590 81.90795 63.73069
#
# Poissons Ratio (x) = 0.15350 0.29300
# Poissons Ratio (y) = 0.11217 0.13125
# Poissons Ratio (z) = 0.27519 0.16868
#
# Static dielectric constant tensor:
#      x y z
#    x 1.650890 0.000000 0.000000 
#    y 0.000000 1.625960 0.000000 
#    z 0.000000 0.000000 1.587040 
# 
# From -- ./inp_files/62970.got.cif
#   From: 2010.05.17/outbox.cif.g08.bks.cpg/sg66_32_cif.got.tgz:62970.got - 2010.06.03 17:51:23.
