data_PCOD9497602
_publ_section_title
;
Structure prediction by ZEFSAII (Michael W. Deem and Ramdas Pophale) SiO2 
 PCOD9497602
Probable space group: C C C M
;
_chemical_formula_sum "Si O2"
_cell_formula_units_Z 112
_cell_length_a 32.135165
_cell_length_b 12.019071
_cell_length_c 14.655940
_cell_angle_alpha 90.000000
_cell_angle_beta 90.000000
_cell_angle_gamma 90.000000
_cell_volume 5660.634490
_symmetry_space_group_name_H-M "C C C M"
_symmetry_group_IT_number 66
_symmetry_cell_setting 'orthorhombic'
loop_
_space_group_symop_operation_xyz
x,y,z
-x,-y,z
x,-y,1/2-z
-x,y,1/2-z
-x,-y,-z
x,y,-z
-x,y,1/2+z
x,-y,1/2+z
1/2+x,1/2+y,z
1/2-x,1/2-y,z
1/2+x,1/2-y,1/2-z
1/2-x,1/2+y,1/2-z
1/2-x,1/2-y,-z
1/2+x,1/2+y,-z
1/2-x,1/2+y,1/2+z
1/2+x,1/2-y,1/2+z
loop_
_atom_site_type_symbol
_atom_site_label
_atom_site_fract_x
_atom_site_fract_y
_atom_site_fract_z
Si Si1 0.836725 0.394022 0.103406
Si Si2 0.435077 0.241830 0.108613
Si Si3 0.248628 0.881639 0.801094
Si Si4 0.837050 0.132298 0.899634
Si Si5 0.076189 0.513276 0.889156
Si Si6 0.468718 0.766813 0.108772
Si Si7 0.910020 0.116780 0.768520
O O1 0.794416 0.402488 0.158848
O O2 0.846727 0.263579 0.097404
O O3 0.877920 0.450828 0.142268
O O4 0.829698 0.435873 0.000000
O O5 0.483741 0.267579 0.124639
O O6 0.406715 0.316466 0.173817
O O7 0.431383 0.113009 0.136684
O O8 0.426374 0.253119 0.000000
O O9 0.250000 0.750000 0.762681
O O10 0.211521 0.875960 0.874911
O O11 0.239349 0.000000 0.750000
O O12 0.867010 0.089608 0.820369
O O13 0.845499 0.084169 0.000000
O O14 0.041977 0.605585 0.864077
O O15 0.076834 0.514609 0.000000
O O16 0.437573 0.690250 0.164027
O O17 0.461116 0.757886 0.000000
O O18 0.931747 0.000000 0.750000
#
# Coordination Sequence:
#
# PCOD9497602 Si02
#       7
#    16  16  16  16  16  16  16
#     4   9  17  33  60  90 117 151 197 249 304 363
#     4  10  23  39  58  86 122 156 191 243 313 379
#     4  10  21  36  58  90 127 162 202 254 314 375
#     4  10  20  39  63  87 115 157 213 264 303 358
#     4   9  17  34  60  89 119 150 191 244 306 367
#     4  10  20  39  62  84 113 155 201 249 301 363
#     4  12  25  39  57  82 115 157 211 260 305 355
#
# _framework density 19.785768000000001
#
# number of rings (size 3 to 8) (size 9 to 14) (size 15 to 20)
#    0.000    2.000    1.429    2.143    0.000    8.571 
#    0.000    2.857    0.000    1.714    0.000    0.000 
#    0.000    0.000    0.000    0.000    0.000    0.000 
#
# Total GULP energy -312143.809661 kJ/mol
# GULP energy per Si atom -5573.996601 kJ/mol
# Density = 1.974074 g / cm^3
# Si number density = 19.785768 Si / 1000 Ang^3
#
#
#
# Elastic Constant Matrix: (Units=GPa)
#
#
# Indices 1 2 3 4 5 6 
#
# 1 53.1546 3.7164 30.6423 0.0000 0.0000 0.0000
# 2 3.7164 77.8160 28.5730 0.0000 0.0000 0.0000
# 3 30.6423 28.5730 75.0920 0.0000 0.0000 0.0000
# 4 0.0000 0.0000 0.0000 25.2970 0.0000 0.0000
# 5 0.0000 0.0000 0.0000 0.0000 21.4885 0.0000
# 6 0.0000 0.0000 0.0000 0.0000 0.0000 10.7612
#
#
#
# Elastic Compliance Matrix: (Units=1/GPa)
#
#
# Indices 1 2 3 4 5 6 
#
# 1 0.025184 0.002988 -0.011414 0.000000 0.000000 0.000000
# 2 0.002988 0.015292 -0.007038 0.000000 0.000000 0.000000
# 3 -0.011414 -0.007038 0.020653 0.000000 0.000000 0.000000
# 4 0.000000 0.000000 0.000000 0.039530 0.000000 0.000000
# 5 0.000000 0.000000 0.000000 0.000000 0.046537 0.000000
# 6 0.000000 0.000000 0.000000 0.000000 0.000000 0.092926
#
#
# Mechanical properties :
#
#
# Convention : Reuss Voigt Hill
#
# Bulk Modulus (GPa) = 33.11094 36.88065 34.99579
# Shear Modulus (GPa) = 17.78622 21.05140 19.41881
#
# Velocity S-wave (km/s) = 3.00149 3.26539 3.13621
# Velocity P-wave (km/s) = 5.36497 5.73563 5.55340
#
# Compressibility (1/GPa) = 0.03020150
#
# Stress axis : x y z
#
# Youngs Moduli (GPa) = 39.70809 65.39161 48.42010
#
# Poissons Ratio (x) = -0.19540 0.55265
# Poissons Ratio (y) = -0.11866 0.34079
# Poissons Ratio (z) = 0.45321 0.46024
#
# Static dielectric constant tensor:
#      x y z
#    x 1.683860 0.000000 0.000000 
#    y 0.000000 1.732020 0.000000 
#    z 0.000000 0.000000 1.741590 
# 
# From -- ./inp_files/27030.got.cif
#   From: 2010.05.17/outbox.cif.g08.bks.cpg/sg66_14_cif.got.tgz:27030.got - 2010.06.03 17:51:23.
