data_PCOD9497330
_publ_section_title
;
Structure prediction by ZEFSAII (Michael W. Deem and Ramdas Pophale) SiO2 
 PCOD9497330
Probable space group: C C C M
;
_chemical_formula_sum "Si O2"
_cell_formula_units_Z 64
_cell_length_a 11.885749
_cell_length_b 15.864992
_cell_length_c 16.884857
_cell_angle_alpha 90.000000
_cell_angle_beta 90.000000
_cell_angle_gamma 90.000000
_cell_volume 3183.932111
_symmetry_space_group_name_H-M "C C C M"
_symmetry_group_IT_number 66
_symmetry_cell_setting 'orthorhombic'
loop_
_space_group_symop_operation_xyz
x,y,z
-x,-y,z
x,-y,1/2-z
-x,y,1/2-z
-x,-y,-z
x,y,-z
-x,y,1/2+z
x,-y,1/2+z
1/2+x,1/2+y,z
1/2-x,1/2-y,z
1/2+x,1/2-y,1/2-z
1/2-x,1/2+y,1/2-z
1/2-x,1/2-y,-z
1/2+x,1/2+y,-z
1/2-x,1/2+y,1/2+z
1/2+x,1/2-y,1/2+z
loop_
_atom_site_type_symbol
_atom_site_label
_atom_site_fract_x
_atom_site_fract_y
_atom_site_fract_z
Si Si1 0.830870 0.384966 0.315814
Si Si2 0.430151 0.839389 0.846081
Si Si3 0.120685 0.846768 0.783906
Si Si4 0.245211 0.450933 0.410651
O O1 0.889895 0.396491 0.229511
O O2 0.712555 0.345284 0.287064
O O3 0.799791 0.464176 0.369533
O O4 0.935876 0.338444 0.358107
O O5 0.391583 0.745997 0.821930
O O6 0.356572 0.882829 0.912833
O O7 0.163415 0.910166 0.851504
O O8 0.000000 0.871408 0.750000
O O9 0.285405 0.465970 0.500000
#
# Coordination Sequence:
#
# PCOD9497330 Si02
#       4
#    16  16  16  16
#     4  10  20  37  60  92 122 158 216 264 304 359
#     4  10  20  36  66  93 118 159 218 271 304 356
#     4  11  22  39  66  93 121 168 219 262 302 368
#     4  11  24  39  60  93 132 166 201 257 325 384
#
# _framework density 20.100930999999999
#
# number of rings (size 3 to 8) (size 9 to 14) (size 15 to 20)
#    0.000    1.500    2.500    6.750    0.000   10.000 
#    0.000    2.500    0.000    3.000    0.000    0.000 
#    0.000    0.000    0.000    0.000    0.000    0.000 
#
# Total GULP energy -178148.833437 kJ/mol
# GULP energy per Si atom -5567.151045 kJ/mol
# Density = 2.005518 g / cm^3
# Si number density = 20.100931 Si / 1000 Ang^3
#
#
#
# Elastic Constant Matrix: (Units=GPa)
#
#
# Indices 1 2 3 4 5 6 
#
# 1 181.4839 54.0972 32.3725 0.0000 0.0000 0.0000
# 2 54.0972 83.8997 25.8660 0.0000 0.0000 0.0000
# 3 32.3725 25.8660 74.4919 0.0000 0.0000 0.0000
# 4 0.0000 0.0000 0.0000 -0.5100 0.0000 0.0000
# 5 0.0000 0.0000 0.0000 0.0000 10.0873 0.0000
# 6 0.0000 0.0000 0.0000 0.0000 0.0000 14.5748
#
#
#
# Elastic Compliance Matrix: (Units=1/GPa)
#
#
# Indices 1 2 3 4 5 6 
#
# 1 0.006998 -0.004003 -0.001651 0.000000 0.000000 0.000000
# 2 -0.004003 0.015638 -0.003690 0.000000 0.000000 0.000000
# 3 -0.001651 -0.003690 0.015423 0.000000 0.000000 0.000000
# 4 0.000000 0.000000 0.000000 -1.960665 0.000000 0.000000
# 5 0.000000 0.000000 0.000000 0.000000 0.099134 0.000000
# 6 0.000000 0.000000 0.000000 0.000000 0.000000 0.068611
#
#
# Mechanical properties :
#
#
# Convention : Reuss Voigt Hill
#
# Bulk Modulus (GPa) = 51.62651 62.72744 57.17697
# Shear Modulus (GPa) = -2.89065 19.99974 8.55454
#
# Velocity S-wave (km/s) = -1.20050 3.15773 2.06520
# Velocity P-wave (km/s) = 4.88035 6.67600 5.84751
#
# Compressibility (1/GPa) = 0.01936989
#
# Stress axis : x y z
#
# Youngs Moduli (GPa) = 142.89979 63.94742 64.83727
#
# Poissons Ratio (x) = 0.25599 0.10705
# Poissons Ratio (y) = 0.57204 0.23927
# Poissons Ratio (z) = 0.23595 0.23599
#
# Static dielectric constant tensor:
#      x y z
#    x 1.795750 0.000000 0.000000 
#    y 0.000000 1.755930 0.000000 
#    z 0.000000 0.000000 1.750860 
# 
# From -- ./inp_files/38187.got.cif
#   From: 2010.05.17/outbox.cif.g08.bks.cpg/sg66_20_cif.got.tgz:38187.got - 2010.06.03 17:51:23.
