data_PCOD9497395
_publ_section_title
;
Structure prediction by ZEFSAII (Michael W. Deem and Ramdas Pophale) SiO2 
 PCOD9497395
Probable space group: C C C M
;
_chemical_formula_sum "Si O2"
_cell_formula_units_Z 80
_cell_length_a 26.828627
_cell_length_b 8.768277
_cell_length_c 17.568927
_cell_angle_alpha 90.000000
_cell_angle_beta 90.000000
_cell_angle_gamma 90.000000
_cell_volume 4132.929024
_symmetry_space_group_name_H-M "C C C M"
_symmetry_group_IT_number 66
_symmetry_cell_setting 'orthorhombic'
loop_
_space_group_symop_operation_xyz
x,y,z
-x,-y,z
x,-y,1/2-z
-x,y,1/2-z
-x,-y,-z
x,y,-z
-x,y,1/2+z
x,-y,1/2+z
1/2+x,1/2+y,z
1/2-x,1/2-y,z
1/2+x,1/2-y,1/2-z
1/2-x,1/2+y,1/2-z
1/2-x,1/2-y,-z
1/2+x,1/2+y,-z
1/2-x,1/2+y,1/2+z
1/2+x,1/2-y,1/2+z
loop_
_atom_site_type_symbol
_atom_site_label
_atom_site_fract_x
_atom_site_fract_y
_atom_site_fract_z
Si Si1 0.148282 0.926449 0.590280
Si Si2 0.050284 0.429191 0.335165
Si Si3 0.749337 0.065482 0.666330
Si Si4 0.547021 0.387409 0.089747
Si Si5 0.853651 0.572292 0.090423
O O1 0.158574 0.925738 0.500000
O O2 0.197852 0.985188 0.631563
O O3 0.139760 0.750146 0.613246
O O4 0.098502 0.022384 0.603079
O O5 0.052758 0.500000 0.250000
O O6 0.044393 0.249584 0.349926
O O7 0.101168 0.478272 0.375062
O O8 0.000000 0.500000 0.370737
O O9 0.750000 0.250000 0.666932
O O10 0.700602 0.020168 0.618634
O O11 0.743966 0.000000 0.750000
O O12 0.500000 0.500000 0.097686
O O13 0.547132 0.334681 0.000000
O O14 0.855527 0.563504 0.000000
#
# Coordination Sequence:
#
# PCOD9497395 Si02
#       5
#    16  16  16  16  16
#     4   9  19  36  58  85 114 148 194 242 288 340
#     4  11  24  40  57  85 122 157 193 236 293 355
#     4  10  21  36  56  82 115 153 190 234 290 351
#     4  10  21  39  64  91 118 152 198 249 296 347
#     4  10  20  37  61  85 113 152 197 243 289 344
#
# _framework density 19.356731
#
# number of rings (size 3 to 8) (size 9 to 14) (size 15 to 20)
#    0.000    2.000    0.000    3.000    0.000   10.400 
#    0.000    6.000    0.000    4.800    0.000    0.000 
#    0.000    0.000    0.000    0.000    0.000    0.000 
#
# Total GULP energy -223262.020884 kJ/mol
# GULP energy per Si atom -5581.550522 kJ/mol
# Density = 1.931267 g / cm^3
# Si number density = 19.356731 Si / 1000 Ang^3
#
#
#
# Elastic Constant Matrix: (Units=GPa)
#
#
# Indices 1 2 3 4 5 6 
#
# 1 152.6328 43.8834 50.2312 0.0000 0.0000 0.0000
# 2 43.8834 59.6215 40.6585 0.0000 0.0000 0.0000
# 3 50.2312 40.6585 57.8009 0.0000 0.0000 0.0000
# 4 0.0000 0.0000 0.0000 34.9678 0.0000 0.0000
# 5 0.0000 0.0000 0.0000 0.0000 29.1848 0.0000
# 6 0.0000 0.0000 0.0000 0.0000 0.0000 26.6497
#
#
#
# Elastic Compliance Matrix: (Units=1/GPa)
#
#
# Indices 1 2 3 4 5 6 
#
# 1 0.009379 -0.002585 -0.006332 0.000000 0.000000 0.000000
# 2 -0.002585 0.032948 -0.020930 0.000000 0.000000 0.000000
# 3 -0.006332 -0.020930 0.037527 0.000000 0.000000 0.000000
# 4 0.000000 0.000000 0.000000 0.028598 0.000000 0.000000
# 5 0.000000 0.000000 0.000000 0.000000 0.034264 0.000000
# 6 0.000000 0.000000 0.000000 0.000000 0.000000 0.037524
#
#
# Mechanical properties :
#
#
# Convention : Reuss Voigt Hill
#
# Bulk Modulus (GPa) = 49.60591 59.95570 54.78081
# Shear Modulus (GPa) = 20.27133 27.17926 23.72529
#
# Velocity S-wave (km/s) = 3.23963 3.75123 3.50478
# Velocity P-wave (km/s) = 6.29893 7.05717 6.68880
#
# Compressibility (1/GPa) = 0.02015889
#
# Stress axis : x y z
#
# Youngs Moduli (GPa) = 106.62363 30.35070 26.64779
#
# Poissons Ratio (x) = 0.07845 0.16874
# Poissons Ratio (y) = 0.27560 0.55774
# Poissons Ratio (z) = 0.67517 0.63525
#
# Static dielectric constant tensor:
#      x y z
#    x 1.657400 0.000000 0.000000 
#    y 0.000000 1.686910 0.000000 
#    z 0.000000 0.000000 1.667460 
# 
# From -- ./inp_files/36949.got.cif
#   From: 2010.05.17/outbox.cif.g08.bks.cpg/sg66_19_cif.got.tgz:36949.got - 2010.06.03 17:51:23.
