data_PCOD9497166
_publ_section_title
;
Structure prediction by ZEFSAII (Michael W. Deem and Ramdas Pophale) SiO2 
 PCOD9497166
Probable space group: C C C M
;
_chemical_formula_sum "Si O2"
_cell_formula_units_Z 64
_cell_length_a 25.301710
_cell_length_b 5.067858
_cell_length_c 28.135134
_cell_angle_alpha 90.000000
_cell_angle_beta 90.000000
_cell_angle_gamma 90.000000
_cell_volume 3607.640877
_symmetry_space_group_name_H-M "C C C M"
_symmetry_group_IT_number 66
_symmetry_cell_setting 'orthorhombic'
loop_
_space_group_symop_operation_xyz
x,y,z
-x,-y,z
x,-y,1/2-z
-x,y,1/2-z
-x,-y,-z
x,y,-z
-x,y,1/2+z
x,-y,1/2+z
1/2+x,1/2+y,z
1/2-x,1/2-y,z
1/2+x,1/2-y,1/2-z
1/2-x,1/2+y,1/2-z
1/2-x,1/2-y,-z
1/2+x,1/2+y,-z
1/2-x,1/2+y,1/2+z
1/2+x,1/2-y,1/2+z
loop_
_atom_site_type_symbol
_atom_site_label
_atom_site_fract_x
_atom_site_fract_y
_atom_site_fract_z
Si Si1 0.787319 0.000000 0.750000
Si Si2 0.288208 0.998603 0.500000
Si Si3 0.963972 0.759197 0.944526
Si Si4 0.850707 0.631671 0.095068
Si Si5 0.689652 0.354856 0.852733
O O1 0.750000 0.250000 0.738762
O O2 0.818479 0.067768 0.797800
O O3 0.250000 0.750000 0.500000
O O4 0.324145 0.977874 0.453199
O O5 0.250000 0.250000 0.500000
O O6 0.910235 0.717294 0.916163
O O7 0.000000 0.500000 0.943143
O O8 0.949848 0.812513 0.000000
O O9 0.000000 0.000000 0.927388
O O10 0.846409 0.388855 0.131394
O O11 0.819995 0.887581 0.115076
O O12 0.750000 0.250000 0.857363
#
# Coordination Sequence:
#
# PCOD9497166 Si02
#       5
#     8   8  16  16  16
#     4  10  20  36  56  80 111 150 191 232 274 320
#     4  12  24  34  48  76 118 154 182 212 265 342
#     4  10  21  38  58  78 107 146 195 245 278 316
#     4  12  22  37  55  83 112 153 189 228 281 335
#     4  11  22  36  57  82 117 149 186 230 275 337
#
# _framework density 17.740126
#
# number of rings (size 3 to 8) (size 9 to 14) (size 15 to 20)
#    0.000    1.000    1.250    9.000    0.000    0.000 
#    0.000    0.000    0.000    0.000    0.000   13.125 
#    0.000    0.000    0.000    0.000    0.000    0.000 
#
# Total GULP energy -178914.837056 kJ/mol
# GULP energy per Si atom -5591.088658 kJ/mol
# Density = 1.769975 g / cm^3
# Si number density = 17.740126 Si / 1000 Ang^3
#
#
#
# Elastic Constant Matrix: (Units=GPa)
#
#
# Indices 1 2 3 4 5 6 
#
# 1 98.2602 49.9315 64.4005 0.0000 0.0000 0.0000
# 2 49.9315 147.6710 57.4341 0.0000 0.0000 0.0000
# 3 64.4005 57.4341 119.5211 0.0000 0.0000 0.0000
# 4 0.0000 0.0000 0.0000 41.1738 0.0000 0.0000
# 5 0.0000 0.0000 0.0000 0.0000 28.9832 0.0000
# 6 0.0000 0.0000 0.0000 0.0000 0.0000 32.4461
#
#
#
# Elastic Compliance Matrix: (Units=1/GPa)
#
#
# Indices 1 2 3 4 5 6 
#
# 1 0.016513 -0.002611 -0.007643 0.000000 0.000000 0.000000
# 2 -0.002611 0.008741 -0.002794 0.000000 0.000000 0.000000
# 3 -0.007643 -0.002794 0.013827 0.000000 0.000000 0.000000
# 4 0.000000 0.000000 0.000000 0.024287 0.000000 0.000000
# 5 0.000000 0.000000 0.000000 0.000000 0.034503 0.000000
# 6 0.000000 0.000000 0.000000 0.000000 0.000000 0.030820
#
#
# Mechanical properties :
#
#
# Convention : Reuss Voigt Hill
#
# Bulk Modulus (GPa) = 77.00251 78.77607 77.88929
# Shear Modulus (GPa) = 31.42366 33.43303 32.42835
#
# Velocity S-wave (km/s) = 4.21329 4.34591 4.28011
# Velocity P-wave (km/s) = 8.19568 8.34773 8.27205
#
# Compressibility (1/GPa) = 0.01298659
#
# Stress axis : x y z
#
# Youngs Moduli (GPa) = 60.55815 114.40132 72.32043
#
# Poissons Ratio (x) = 0.29869 0.55274
# Poissons Ratio (y) = 0.15811 0.20204
# Poissons Ratio (z) = 0.46284 0.31959
#
# Static dielectric constant tensor:
#      x y z
#    x 1.572370 0.000000 0.000000 
#    y 0.000000 1.598410 0.000000 
#    z 0.000000 0.000000 1.633240 
# 
# From -- ./inp_files/59730.got.cif
#   From: 2010.05.17/outbox.cif.g08.bks.cpg/sg66_30_cif.got.tgz:59730.got - 2010.06.03 17:51:23.
