data_PCOD9497630
_publ_section_title
;
Structure prediction by ZEFSAII (Michael W. Deem and Ramdas Pophale) SiO2 
 PCOD9497630
Probable space group: C C C M
;
_chemical_formula_sum "Si O2"
_cell_formula_units_Z 56
_cell_length_a 19.661877
_cell_length_b 14.181369
_cell_length_c 9.042274
_cell_angle_alpha 90.000000
_cell_angle_beta 90.000000
_cell_angle_gamma 90.000000
_cell_volume 2521.278355
_symmetry_space_group_name_H-M "C C C M"
_symmetry_group_IT_number 66
_symmetry_cell_setting 'orthorhombic'
loop_
_space_group_symop_operation_xyz
x,y,z
-x,-y,z
x,-y,1/2-z
-x,y,1/2-z
-x,-y,-z
x,y,-z
-x,y,1/2+z
x,-y,1/2+z
1/2+x,1/2+y,z
1/2-x,1/2-y,z
1/2+x,1/2-y,1/2-z
1/2-x,1/2+y,1/2-z
1/2-x,1/2-y,-z
1/2+x,1/2+y,-z
1/2-x,1/2+y,1/2+z
1/2+x,1/2-y,1/2+z
loop_
_atom_site_type_symbol
_atom_site_label
_atom_site_fract_x
_atom_site_fract_y
_atom_site_fract_z
Si Si1 0.717067 0.845017 0.669391
Si Si2 0.929688 0.657804 0.676561
Si Si3 0.322027 0.500000 0.750000
Si Si4 0.934957 0.858282 0.168239
O O1 0.701082 0.818099 0.500000
O O2 0.750000 0.750000 0.740131
O O3 0.644013 0.880749 0.728463
O O4 0.772073 0.927485 0.669292
O O5 0.937825 0.649067 0.500000
O O6 0.921258 0.766470 0.731208
O O7 0.000000 0.622987 0.750000
O O8 0.372950 0.430623 0.835338
O O9 0.000000 0.901151 0.250000
O O10 0.951045 0.829548 0.000000
#
# Coordination Sequence:
#
# PCOD9497630 Si02
#       4
#    16  16   8  16
#     4  10  21  40  63  87 122 168 207 248 309 372
#     4  10  20  39  66  89 120 163 207 251 305 366
#     4  12  23  38  61  92 124 162 206 258 301 368
#     4  11  23  37  59  91 127 160 200 250 307 371
#
# _framework density 22.210954999999998
#
# number of rings (size 3 to 8) (size 9 to 14) (size 15 to 20)
#    0.000    1.429    2.857    4.714    0.000    4.571 
#    0.000    7.857    0.000    3.429    0.000    0.000 
#    0.000    0.000    0.000    0.000    0.000    0.000 
#
# Total GULP energy -156000.185949 kJ/mol
# GULP energy per Si atom -5571.435212 kJ/mol
# Density = 2.216040 g / cm^3
# Si number density = 22.210955 Si / 1000 Ang^3
#
#
#
# Elastic Constant Matrix: (Units=GPa)
#
#
# Indices 1 2 3 4 5 6 
#
# 1 208.3134 23.8716 36.3123 0.0000 0.0000 0.0000
# 2 23.8716 55.7181 -0.7038 0.0000 0.0000 0.0000
# 3 36.3123 -0.7038 81.9986 0.0000 0.0000 0.0000
# 4 0.0000 0.0000 0.0000 -47.4105 0.0000 0.0000
# 5 0.0000 0.0000 0.0000 0.0000 -2.2326 0.0000
# 6 0.0000 0.0000 0.0000 0.0000 0.0000 41.6054
#
#
#
# Elastic Compliance Matrix: (Units=1/GPa)
#
#
# Indices 1 2 3 4 5 6 
#
# 1 0.005503 -0.002389 -0.002457 0.000000 0.000000 0.000000
# 2 -0.002389 0.018986 0.001221 0.000000 0.000000 0.000000
# 3 -0.002457 0.001221 0.013294 0.000000 0.000000 0.000000
# 4 0.000000 0.000000 0.000000 -0.021092 0.000000 0.000000
# 5 0.000000 0.000000 0.000000 0.000000 -0.447906 0.000000
# 6 0.000000 0.000000 0.000000 0.000000 0.000000 0.024035
#
#
# Mechanical properties :
#
#
# Convention : Reuss Voigt Hill
#
# Bulk Modulus (GPa) = 32.75189 51.66560 42.20875
# Shear Modulus (GPa) = -12.82866 17.49578 2.33356
#
# Velocity S-wave (km/s) = -2.40590 2.80966 1.02612
# Velocity P-wave (km/s) = 2.65707 5.81699 4.52203
#
# Compressibility (1/GPa) = 0.03053259
#
# Stress axis : x y z
#
# Youngs Moduli (GPa) = 181.73539 52.66974 75.22207
#
# Poissons Ratio (x) = 0.12580 0.18484
# Poissons Ratio (y) = 0.43408 -0.09182
# Poissons Ratio (z) = 0.44657 -0.06429
#
# Static dielectric constant tensor:
#      x y z
#    x 2.056750 0.000000 0.000000 
#    y 0.000000 1.834350 0.000000 
#    z 0.000000 0.000000 1.793350 
# 
# From -- ./inp_files/7308.got.cif
#   From: 2010.05.17/outbox.cif.g08.bks.cpg/sg66_4_cif.got.tgz:7308.got - 2010.06.03 17:51:23.
