data_PCOD9497857
_publ_section_title
;
Structure prediction by ZEFSAII (Michael W. Deem and Ramdas Pophale) SiO2 
 PCOD9497857
Probable space group: C C C M
;
_chemical_formula_sum "Si O2"
_cell_formula_units_Z 64
_cell_length_a 9.101563
_cell_length_b 11.139077
_cell_length_c 28.695602
_cell_angle_alpha 90.000000
_cell_angle_beta 90.000000
_cell_angle_gamma 90.000000
_cell_volume 2909.246535
_symmetry_space_group_name_H-M "C C C M"
_symmetry_group_IT_number 66
_symmetry_cell_setting 'orthorhombic'
loop_
_space_group_symop_operation_xyz
x,y,z
-x,-y,z
x,-y,1/2-z
-x,y,1/2-z
-x,-y,-z
x,y,-z
-x,y,1/2+z
x,-y,1/2+z
1/2+x,1/2+y,z
1/2-x,1/2-y,z
1/2+x,1/2-y,1/2-z
1/2-x,1/2+y,1/2-z
1/2-x,1/2-y,-z
1/2+x,1/2+y,-z
1/2-x,1/2+y,1/2+z
1/2+x,1/2-y,1/2+z
loop_
_atom_site_type_symbol
_atom_site_label
_atom_site_fract_x
_atom_site_fract_y
_atom_site_fract_z
Si Si1 0.074619 0.629881 0.552361
Si Si2 0.227054 0.973289 0.367550
Si Si3 0.603681 0.837053 0.205762
Si Si4 0.948615 0.802613 0.625529
O O1 0.116055 0.666243 0.500000
O O2 0.200268 0.596704 0.589113
O O3 0.000000 0.500000 0.548806
O O4 0.976830 0.730846 0.577734
O O5 0.322220 0.948798 0.321332
O O6 0.077025 0.899720 0.365209
O O7 0.195859 0.114158 0.374884
O O8 0.500000 0.857323 0.250000
O O9 0.750000 0.750000 0.214258
O O10 0.487775 0.783765 0.168221
#
# Coordination Sequence:
#
# PCOD9497857 Si02
#       4
#    16  16  16  16
#     4  10  21  36  56  88 126 163 209 259 309 378
#     4   9  19  38  62  88 121 161 207 260 316 377
#     4   9  18  37  63  87 123 161 209 265 321 386
#     4   9  19  38  63  85 122 164 203 259 321 374
#
# _framework density 21.998822000000001
#
# number of rings (size 3 to 8) (size 9 to 14) (size 15 to 20)
#    0.000    2.750    0.000    2.250    0.000    4.000 
#    9.000   15.000   22.000    0.000    0.000    0.000 
#    0.000    0.000    0.000    0.000    0.000    0.000 
#
# Total GULP energy -178294.340838 kJ/mol
# GULP energy per Si atom -5571.698151 kJ/mol
# Density = 2.194875 g / cm^3
# Si number density = 21.998822 Si / 1000 Ang^3
#
#
#
# Elastic Constant Matrix: (Units=GPa)
#
#
# Indices 1 2 3 4 5 6 
#
# 1 100.5466 47.1802 62.8692 0.0000 0.0000 0.0000
# 2 47.1802 141.9429 55.0981 0.0000 0.0000 0.0000
# 3 62.8692 55.0981 164.8416 0.0000 0.0000 0.0000
# 4 0.0000 0.0000 0.0000 46.8824 0.0000 0.0000
# 5 0.0000 0.0000 0.0000 0.0000 -0.8768 0.0000
# 6 0.0000 0.0000 0.0000 0.0000 0.0000 44.6098
#
#
#
# Elastic Compliance Matrix: (Units=1/GPa)
#
#
# Indices 1 2 3 4 5 6 
#
# 1 0.014079 -0.002982 -0.004373 0.000000 0.000000 0.000000
# 2 -0.002982 0.008727 -0.001780 0.000000 0.000000 0.000000
# 3 -0.004373 -0.001780 0.008329 0.000000 0.000000 0.000000
# 4 0.000000 0.000000 0.000000 0.021330 0.000000 0.000000
# 5 0.000000 0.000000 0.000000 0.000000 -1.140462 0.000000
# 6 0.000000 0.000000 0.000000 0.000000 0.000000 0.022417
#
#
# Mechanical properties :
#
#
# Convention : Reuss Voigt Hill
#
# Bulk Modulus (GPa) = 77.72524 81.95846 79.84185
# Shear Modulus (GPa) = -4.79377 34.26864 14.73744
#
# Velocity S-wave (km/s) = -1.47778 3.95111 2.59109
# Velocity P-wave (km/s) = 5.70057 7.62573 6.73232
#
# Compressibility (1/GPa) = 0.01286583
#
# Stress axis : x y z
#
# Youngs Moduli (GPa) = 71.02614 114.58446 120.06186
#
# Poissons Ratio (x) = 0.34173 0.52502
# Poissons Ratio (y) = 0.21183 0.21366
# Poissons Ratio (z) = 0.31059 0.20391
#
# Static dielectric constant tensor:
#      x y z
#    x 1.831910 0.000000 0.000000 
#    y 0.000000 1.839810 0.000000 
#    z 0.000000 0.000000 1.802420 
# 
# From -- ./inp_files/67881.got.cif
#   From: 2010.05.17/outbox.cif.g08.bks.cpg/sg66_34_cif.got.tgz:67881.got - 2010.06.03 17:51:23.
