data_PCOD9497667
_publ_section_title
;
Structure prediction by ZEFSAII (Michael W. Deem and Ramdas Pophale) SiO2 
 PCOD9497667
Probable space group: C C C M
;
_chemical_formula_sum "Si O2"
_cell_formula_units_Z 120
_cell_length_a 15.315634
_cell_length_b 27.554251
_cell_length_c 15.483028
_cell_angle_alpha 90.000000
_cell_angle_beta 90.000000
_cell_angle_gamma 90.000000
_cell_volume 6534.005396
_symmetry_space_group_name_H-M "C C C M"
_symmetry_group_IT_number 66
_symmetry_cell_setting 'orthorhombic'
loop_
_space_group_symop_operation_xyz
x,y,z
-x,-y,z
x,-y,1/2-z
-x,y,1/2-z
-x,-y,-z
x,y,-z
-x,y,1/2+z
x,-y,1/2+z
1/2+x,1/2+y,z
1/2-x,1/2-y,z
1/2+x,1/2-y,1/2-z
1/2-x,1/2+y,1/2-z
1/2-x,1/2-y,-z
1/2+x,1/2+y,-z
1/2-x,1/2+y,1/2+z
1/2+x,1/2-y,1/2+z
loop_
_atom_site_type_symbol
_atom_site_label
_atom_site_fract_x
_atom_site_fract_y
_atom_site_fract_z
Si Si1 0.344143 0.264936 0.098032
Si Si2 0.500000 0.108648 0.750000
Si Si3 0.209813 0.900997 0.596005
Si Si4 0.444089 0.452511 0.397126
Si Si5 0.570389 0.043928 0.097523
Si Si6 0.107615 0.344525 0.903048
Si Si7 0.051997 0.141555 0.165140
Si Si8 0.741578 0.509299 0.350959
O O1 0.250000 0.250000 0.141014
O O2 0.391620 0.213429 0.097772
O O3 0.409247 0.307697 0.127678
O O4 0.320727 0.279537 0.000000
O O5 0.553537 0.076453 0.818263
O O6 0.441606 0.138383 0.817512
O O7 0.170007 0.892622 0.500000
O O8 0.296115 0.868503 0.602025
O O9 0.143014 0.887255 0.670989
O O10 0.227379 0.957377 0.604597
O O11 0.500000 0.500000 0.365807
O O12 0.438667 0.456894 0.500000
O O13 0.490108 0.400588 0.377513
O O14 0.345861 0.458830 0.361798
O O15 0.670794 0.029079 0.106381
O O16 0.500000 0.000000 0.103896
O O17 0.558724 0.064092 0.000000
O O18 0.075736 0.358966 0.000000
O O19 0.000000 0.154758 0.250000
O O20 0.757707 0.500000 0.250000
#
# Coordination Sequence:
#
# PCOD9497667 Si02
#       8
#    16   8  16  16  16  16  16  16
#     4  10  20  40  66  87 112 147 198 262 323 372
#     4  12  23  38  60  86 128 160 203 258 316 388
#     4  11  20  37  61  86 115 158 211 258 306 366
#     4  11  23  38  57  84 124 169 207 247 304 377
#     4  11  23  40  61  88 125 170 217 263 311 371
#     4  10  22  38  63  92 118 155 206 270 332 376
#     4  12  24  36  58  89 125 156 197 249 312 376
#     4  12  23  36  59  87 127 167 210 257 310 370
#
# _framework density 18.365456999999999
#
# number of rings (size 3 to 8) (size 9 to 14) (size 15 to 20)
#    0.000    0.933    2.667    6.200    0.933    2.133 
#    0.000    0.000    0.000    0.000    0.000    0.000 
#    0.000   11.200    0.000    0.000    0.000    0.000 
#
# Total GULP energy -334112.226472 kJ/mol
# GULP energy per Si atom -5568.537108 kJ/mol
# Density = 1.832366 g / cm^3
# Si number density = 18.365457 Si / 1000 Ang^3
#
#
#
# Elastic Constant Matrix: (Units=GPa)
#
#
# Indices 1 2 3 4 5 6 
#
# 1 116.7110 61.6621 43.1136 0.0000 0.0000 0.0000
# 2 61.6621 117.7995 42.1085 0.0000 0.0000 0.0000
# 3 43.1136 42.1085 114.2517 0.0000 0.0000 0.0000
# 4 0.0000 0.0000 0.0000 27.8107 0.0000 0.0000
# 5 0.0000 0.0000 0.0000 0.0000 34.6486 0.0000
# 6 0.0000 0.0000 0.0000 0.0000 0.0000 36.6394
#
#
#
# Elastic Compliance Matrix: (Units=1/GPa)
#
#
# Indices 1 2 3 4 5 6 
#
# 1 0.012507 -0.005597 -0.002657 0.000000 0.000000 0.000000
# 2 -0.005597 0.012282 -0.002415 0.000000 0.000000 0.000000
# 3 -0.002657 -0.002415 0.010645 0.000000 0.000000 0.000000
# 4 0.000000 0.000000 0.000000 0.035957 0.000000 0.000000
# 5 0.000000 0.000000 0.000000 0.000000 0.028861 0.000000
# 6 0.000000 0.000000 0.000000 0.000000 0.000000 0.027293
#
#
# Mechanical properties :
#
#
# Convention : Reuss Voigt Hill
#
# Bulk Modulus (GPa) = 70.93613 71.39229 71.16421
# Shear Modulus (GPa) = 32.55629 33.27829 32.91729
#
# Velocity S-wave (km/s) = 4.21490 4.26138 4.23821
# Velocity P-wave (km/s) = 7.89910 7.94796 7.92357
#
# Compressibility (1/GPa) = 0.01409719
#
# Stress axis : x y z
#
# Youngs Moduli (GPa) = 79.95795 81.42134 93.94073
#
# Poissons Ratio (x) = 0.45571 0.24957
# Poissons Ratio (y) = 0.44752 0.22682
# Poissons Ratio (z) = 0.21242 0.19659
#
# Static dielectric constant tensor:
#      x y z
#    x 1.655850 0.000000 0.000000 
#    y 0.000000 1.734120 0.000000 
#    z 0.000000 0.000000 1.526340 
# 
# From -- ./inp_files/29074.got.cif
#   From: 2010.05.17/outbox.cif.g08.bks.cpg/sg66_15_cif.got.tgz:29074.got - 2010.06.03 17:51:23.
