data_PCOD9497890
_publ_section_title
;
Structure prediction by ZEFSAII (Michael W. Deem and Ramdas Pophale) SiO2 
 PCOD9497890
Probable space group: C C C M
;
_chemical_formula_sum "Si O2"
_cell_formula_units_Z 88
_cell_length_a 26.523794
_cell_length_b 5.220086
_cell_length_c 31.683341
_cell_angle_alpha 90.000000
_cell_angle_beta 90.000000
_cell_angle_gamma 90.000000
_cell_volume 4386.764051
_symmetry_space_group_name_H-M "C C C M"
_symmetry_group_IT_number 66
_symmetry_cell_setting 'orthorhombic'
loop_
_space_group_symop_operation_xyz
x,y,z
-x,-y,z
x,-y,1/2-z
-x,y,1/2-z
-x,-y,-z
x,y,-z
-x,y,1/2+z
x,-y,1/2+z
1/2+x,1/2+y,z
1/2-x,1/2-y,z
1/2+x,1/2-y,1/2-z
1/2-x,1/2+y,1/2-z
1/2-x,1/2-y,-z
1/2+x,1/2+y,-z
1/2-x,1/2+y,1/2+z
1/2+x,1/2-y,1/2+z
loop_
_atom_site_type_symbol
_atom_site_label
_atom_site_fract_x
_atom_site_fract_y
_atom_site_fract_z
Si Si1 0.873322 0.325296 0.915487
Si Si2 0.172872 0.145696 0.048308
Si Si3 0.694448 0.131615 0.836040
Si Si4 0.466334 0.751525 0.141921
Si Si5 0.604739 0.242194 0.777166
Si Si6 0.750000 0.250000 0.386664
O O1 0.853669 0.594584 0.934408
O O2 0.838922 0.260928 0.874405
O O3 0.929459 0.320984 0.896986
O O4 0.864243 0.094402 0.947517
O O5 0.220357 0.079997 0.078859
O O6 0.188176 0.182786 0.000000
O O7 0.750000 0.250000 0.831100
O O8 0.659377 0.159481 0.795711
O O9 0.707803 0.853185 0.854684
O O10 0.500000 0.500000 0.134101
O O11 0.431948 0.707699 0.183347
O O12 0.500000 0.000000 0.150116
O O13 0.608744 0.500000 0.750000
O O14 0.585984 0.000000 0.750000
#
# Coordination Sequence:
#
# PCOD9497890 Si02
#       6
#    16  16  16  16  16   8
#     4  10  22  39  60  91 123 158 206 248 296 371
#     4  11  21  36  60  91 129 162 197 253 308 347
#     4  10  21  38  61  82 122 167 206 242 292 349
#     4  11  23  42  70  91 114 157 206 254 309 364
#     4  11  26  41  60  92 126 156 199 255 311 367
#     4  10  21  36  60  90 122 168 220 248 278 362
#
# _framework density 20.060345000000002
#
# number of rings (size 3 to 8) (size 9 to 14) (size 15 to 20)
#    0.000    1.455    1.818    3.000    2.545    5.818 
#    0.000    2.727    0.000   10.909    0.000    0.000 
#    0.000    0.000    0.000    0.000    0.000    0.000 
#
# Total GULP energy -245252.492205 kJ/mol
# GULP energy per Si atom -5573.920277 kJ/mol
# Density = 2.001469 g / cm^3
# Si number density = 20.060345 Si / 1000 Ang^3
#
#
#
# Elastic Constant Matrix: (Units=GPa)
#
#
# Indices 1 2 3 4 5 6 
#
# 1 87.8318 17.2772 13.8567 0.0000 0.0000 0.0000
# 2 17.2772 93.5869 29.2519 0.0000 0.0000 0.0000
# 3 13.8567 29.2519 54.2987 0.0000 0.0000 0.0000
# 4 0.0000 0.0000 0.0000 37.7974 0.0000 0.0000
# 5 0.0000 0.0000 0.0000 0.0000 9.0276 0.0000
# 6 0.0000 0.0000 0.0000 0.0000 0.0000 20.7558
#
#
#
# Elastic Compliance Matrix: (Units=1/GPa)
#
#
# Indices 1 2 3 4 5 6 
#
# 1 0.012040 -0.001518 -0.002255 0.000000 0.000000 0.000000
# 2 -0.001518 0.013040 -0.006638 0.000000 0.000000 0.000000
# 3 -0.002255 -0.006638 0.022568 0.000000 0.000000 0.000000
# 4 0.000000 0.000000 0.000000 0.026457 0.000000 0.000000
# 5 0.000000 0.000000 0.000000 0.000000 0.110771 0.000000
# 6 0.000000 0.000000 0.000000 0.000000 0.000000 0.048179
#
#
# Mechanical properties :
#
#
# Convention : Reuss Voigt Hill
#
# Bulk Modulus (GPa) = 37.27567 39.60990 38.44279
# Shear Modulus (GPa) = 19.02458 25.20494 22.11476
#
# Velocity S-wave (km/s) = 3.08290 3.54850 3.32386
# Velocity P-wave (km/s) = 5.59415 6.04792 5.82545
#
# Compressibility (1/GPa) = 0.02682715
#
# Stress axis : x y z
#
# Youngs Moduli (GPa) = 83.05856 76.68606 44.31071
#
# Poissons Ratio (x) = 0.11640 0.09991
# Poissons Ratio (y) = 0.12608 0.29412
# Poissons Ratio (z) = 0.18727 0.50902
#
# Static dielectric constant tensor:
#      x y z
#    x 1.750860 0.000000 0.000000 
#    y 0.000000 1.764740 0.000000 
#    z 0.000000 0.000000 1.701230 
# 
# From -- ./inp_files/70391.got.cif
#   From: 2010.05.17/outbox.cif.g08.bks.cpg/sg66_36_cif.got.tgz:70391.got - 2010.06.03 17:51:23.
