data_PCOD9497300
_publ_section_title
;
Structure prediction by ZEFSAII (Michael W. Deem and Ramdas Pophale) SiO2 
 PCOD9497300
Probable space group: C C C M
;
_chemical_formula_sum "Si O2"
_cell_formula_units_Z 88
_cell_length_a 12.964734
_cell_length_b 19.927866
_cell_length_c 17.537923
_cell_angle_alpha 90.000000
_cell_angle_beta 90.000000
_cell_angle_gamma 90.000000
_cell_volume 4531.088699
_symmetry_space_group_name_H-M "C C C M"
_symmetry_group_IT_number 66
_symmetry_cell_setting 'orthorhombic'
loop_
_space_group_symop_operation_xyz
x,y,z
-x,-y,z
x,-y,1/2-z
-x,y,1/2-z
-x,-y,-z
x,y,-z
-x,y,1/2+z
x,-y,1/2+z
1/2+x,1/2+y,z
1/2-x,1/2-y,z
1/2+x,1/2-y,1/2-z
1/2-x,1/2+y,1/2-z
1/2-x,1/2-y,-z
1/2+x,1/2+y,-z
1/2-x,1/2+y,1/2+z
1/2+x,1/2-y,1/2+z
loop_
_atom_site_type_symbol
_atom_site_label
_atom_site_fract_x
_atom_site_fract_y
_atom_site_fract_z
Si Si1 0.617543 0.025657 0.911843
Si Si2 0.431368 0.152155 0.671109
Si Si3 0.894243 0.288490 0.414336
Si Si4 0.272724 0.596992 0.587852
Si Si5 0.897864 0.834808 0.799275
Si Si6 0.750000 0.250000 0.201110
O O1 0.626389 0.083148 0.848075
O O2 0.500000 0.000000 0.908161
O O3 0.695097 0.964101 0.897369
O O4 0.636273 0.048480 0.000000
O O5 0.500000 0.152413 0.750000
O O6 0.512812 0.160967 0.602812
O O7 0.349343 0.212816 0.665552
O O8 0.895882 0.262573 0.500000
O O9 0.791827 0.333098 0.404623
O O10 0.911195 0.229156 0.355036
O O11 0.307064 0.592364 0.500000
O O12 0.363861 0.603463 0.648235
O O13 0.802642 0.810690 0.747514
O O14 0.000000 0.845098 0.750000
#
# Coordination Sequence:
#
# PCOD9497300 Si02
#       6
#    16  16  16  16  16   8
#     4  10  21  39  62  92 127 156 196 254 315 379
#     4  12  22  39  59  90 128 162 197 251 317 373
#     4  11  19  34  59  89 121 160 204 249 307 368
#     4  10  20  36  62  92 124 162 205 251 307 373
#     4  12  21  37  58  86 125 165 207 259 303 360
#     4  12  22  38  56  84 128 162 202 252 308 362
#
# _framework density 19.421381
#
# number of rings (size 3 to 8) (size 9 to 14) (size 15 to 20)
#    0.000    0.909    7.273    1.091    0.000    1.818 
#    0.000    1.818    0.000    3.273    0.000    2.545 
#    0.000    0.000    0.000    0.000    0.000    0.000 
#
# Total GULP energy -245455.054545 kJ/mol
# GULP energy per Si atom -5578.523967 kJ/mol
# Density = 1.937718 g / cm^3
# Si number density = 19.421381 Si / 1000 Ang^3
#
#
#
# Elastic Constant Matrix: (Units=GPa)
#
#
# Indices 1 2 3 4 5 6 
#
# 1 82.7949 21.1840 48.5765 0.0000 0.0000 0.0000
# 2 21.1840 73.9782 36.6288 0.0000 0.0000 0.0000
# 3 48.5765 36.6288 73.0126 0.0000 0.0000 0.0000
# 4 0.0000 0.0000 0.0000 -12.9492 0.0000 0.0000
# 5 0.0000 0.0000 0.0000 0.0000 33.8308 0.0000
# 6 0.0000 0.0000 0.0000 0.0000 0.0000 35.2974
#
#
#
# Elastic Compliance Matrix: (Units=1/GPa)
#
#
# Indices 1 2 3 4 5 6 
#
# 1 0.019883 0.001139 -0.013800 0.000000 0.000000 0.000000
# 2 0.001139 0.018050 -0.009813 0.000000 0.000000 0.000000
# 3 -0.013800 -0.009813 0.027801 0.000000 0.000000 0.000000
# 4 0.000000 0.000000 0.000000 -0.077225 0.000000 0.000000
# 5 0.000000 0.000000 0.000000 0.000000 0.029559 0.000000
# 6 0.000000 0.000000 0.000000 0.000000 0.000000 0.028331
#
#
# Mechanical properties :
#
#
# Convention : Reuss Voigt Hill
#
# Bulk Modulus (GPa) = 48.10991 49.17382 48.64186
# Shear Modulus (GPa) = 50.87715 19.46224 35.16969
#
# Velocity S-wave (km/s) = 5.12380 3.16904 4.26005
# Velocity P-wave (km/s) = 7.73498 6.22614 7.02120
#
# Compressibility (1/GPa) = 0.02078574
#
# Stress axis : x y z
#
# Youngs Moduli (GPa) = 50.29366 55.40121 35.97012
#
# Poissons Ratio (x) = -0.06311 0.49639
# Poissons Ratio (y) = -0.05730 0.35299
# Poissons Ratio (z) = 0.69406 0.54367
#
# Static dielectric constant tensor:
#      x y z
#    x 1.682650 0.000000 0.000000 
#    y 0.000000 1.721550 0.000000 
#    z 0.000000 0.000000 1.715250 
# 
# From -- ./inp_files/38638.got.cif
#   From: 2010.05.17/outbox.cif.g08.bks.cpg/sg66_20_cif.got.tgz:38638.got - 2010.06.03 17:51:23.
