data_PCOD9497931
_publ_section_title
;
Structure prediction by ZEFSAII (Michael W. Deem and Ramdas Pophale) SiO2 
 PCOD9497931
Probable space group: C C C M
;
_chemical_formula_sum "Si O2"
_cell_formula_units_Z 68
_cell_length_a 9.937805
_cell_length_b 24.742589
_cell_length_c 13.561082
_cell_angle_alpha 90.000000
_cell_angle_beta 90.000000
_cell_angle_gamma 90.000000
_cell_volume 3334.494104
_symmetry_space_group_name_H-M "C C C M"
_symmetry_group_IT_number 66
_symmetry_cell_setting 'orthorhombic'
loop_
_space_group_symop_operation_xyz
x,y,z
-x,-y,z
x,-y,1/2-z
-x,y,1/2-z
-x,-y,-z
x,y,-z
-x,y,1/2+z
x,-y,1/2+z
1/2+x,1/2+y,z
1/2-x,1/2-y,z
1/2+x,1/2-y,1/2-z
1/2-x,1/2+y,1/2-z
1/2-x,1/2-y,-z
1/2+x,1/2+y,-z
1/2-x,1/2+y,1/2+z
1/2+x,1/2-y,1/2+z
loop_
_atom_site_type_symbol
_atom_site_label
_atom_site_fract_x
_atom_site_fract_y
_atom_site_fract_z
Si Si1 0.444666 0.671740 0.389859
Si Si2 0.173058 0.080621 0.615448
Si Si3 0.000000 0.000000 0.750000
Si Si4 0.306240 0.849965 0.743376
Si Si5 0.528298 0.204286 0.114303
O O1 0.386017 0.667068 0.500000
O O2 0.574184 0.633114 0.387172
O O3 0.334167 0.653570 0.312368
O O4 0.477355 0.734601 0.374295
O O5 0.202288 0.067322 0.500000
O O6 0.298104 0.097795 0.685331
O O7 0.091638 0.035547 0.676230
O O8 0.337914 0.803378 0.822444
O O9 0.420740 0.837778 0.661488
O O10 0.550617 0.193374 0.000000
#
# Coordination Sequence:
#
# PCOD9497931 Si02
#       5
#    16  16   4  16  16
#     4  10  21  37  56  86 124 159 200 245 290 349
#     4  11  24  40  62  92 119 149 196 251 305 357
#     4  12  22  44  68  88 116 148 190 252 326 360
#     4  11  21  35  60  81 125 160 196 239 288 351
#     4  10  23  36  56  88 124 168 204 235 284 349
#
# _framework density 20.392899
#
# number of rings (size 3 to 8) (size 9 to 14) (size 15 to 20)
#    0.000    1.412    2.353    2.471    9.882    1.882 
#    0.000    3.529    0.000    2.824    0.000    8.235 
#    0.000    0.000    0.000    0.000    0.000    0.000 
#
# Total GULP energy -189644.970886 kJ/mol
# GULP energy per Si atom -5577.793261 kJ/mol
# Density = 2.034648 g / cm^3
# Si number density = 20.392899 Si / 1000 Ang^3
#
#
#
# Elastic Constant Matrix: (Units=GPa)
#
#
# Indices 1 2 3 4 5 6 
#
# 1 26.2822 11.1632 12.4866 0.0000 0.0000 0.0000
# 2 11.1632 53.0517 36.3642 0.0000 0.0000 0.0000
# 3 12.4866 36.3642 175.3041 0.0000 0.0000 0.0000
# 4 0.0000 0.0000 0.0000 25.8282 0.0000 0.0000
# 5 0.0000 0.0000 0.0000 0.0000 32.9926 0.0000
# 6 0.0000 0.0000 0.0000 0.0000 0.0000 -0.1783
#
#
#
# Elastic Compliance Matrix: (Units=1/GPa)
#
#
# Indices 1 2 3 4 5 6 
#
# 1 0.042056 -0.007923 -0.001352 0.000000 0.000000 0.000000
# 2 -0.007923 0.023466 -0.004303 0.000000 0.000000 0.000000
# 3 -0.001352 -0.004303 0.006693 0.000000 0.000000 0.000000
# 4 0.000000 0.000000 0.000000 0.038717 0.000000 0.000000
# 5 0.000000 0.000000 0.000000 0.000000 0.030310 0.000000
# 6 0.000000 0.000000 0.000000 0.000000 0.000000 -5.609237
#
#
# Mechanical properties :
#
#
# Convention : Reuss Voigt Hill
#
# Bulk Modulus (GPa) = 22.19294 41.62955 31.91124
# Shear Modulus (GPa) = -0.92152 24.70344 11.89096
#
# Velocity S-wave (km/s) = -0.67295 3.48426 2.41735
# Velocity P-wave (km/s) = 3.20975 6.05349 4.84496
#
# Compressibility (1/GPa) = 0.04505938
#
# Stress axis : x y z
#
# Youngs Moduli (GPa) = 23.77778 42.61410 149.40164
#
# Poissons Ratio (x) = 0.33762 0.20201
# Poissons Ratio (y) = 0.18838 0.64294
# Poissons Ratio (z) = 0.03215 0.18339
#
# Static dielectric constant tensor:
#      x y z
#    x 1.810320 0.000000 0.000000 
#    y 0.000000 1.730220 0.000000 
#    z 0.000000 0.000000 1.768180 
# 
# From -- ./inp_files/26126.got.cif
#   From: 2010.05.17/outbox.cif.g08.bks.cpg/sg66_14_cif.got.tgz:26126.got - 2010.06.03 17:51:23.
