data_PCOD9497764
_publ_section_title
;
Structure prediction by ZEFSAII (Michael W. Deem and Ramdas Pophale) SiO2 
 PCOD9497764
Probable space group: C C C M
;
_chemical_formula_sum "Si O2"
_cell_formula_units_Z 80
_cell_length_a 11.848297
_cell_length_b 12.286099
_cell_length_c 28.756456
_cell_angle_alpha 90.000000
_cell_angle_beta 90.000000
_cell_angle_gamma 90.000000
_cell_volume 4186.058606
_symmetry_space_group_name_H-M "C C C M"
_symmetry_group_IT_number 66
_symmetry_cell_setting 'orthorhombic'
loop_
_space_group_symop_operation_xyz
x,y,z
-x,-y,z
x,-y,1/2-z
-x,y,1/2-z
-x,-y,-z
x,y,-z
-x,y,1/2+z
x,-y,1/2+z
1/2+x,1/2+y,z
1/2-x,1/2-y,z
1/2+x,1/2-y,1/2-z
1/2-x,1/2+y,1/2-z
1/2-x,1/2-y,-z
1/2+x,1/2+y,-z
1/2-x,1/2+y,1/2+z
1/2+x,1/2-y,1/2+z
loop_
_atom_site_type_symbol
_atom_site_label
_atom_site_fract_x
_atom_site_fract_y
_atom_site_fract_z
Si Si1 0.948007 0.377038 0.447142
Si Si2 0.812502 0.556284 0.864626
Si Si3 0.879632 0.941279 0.205027
Si Si4 0.963484 0.704507 0.201787
Si Si5 0.370808 0.804638 0.122298
O O1 0.926714 0.343101 0.500000
O O2 0.838150 0.387799 0.414215
O O3 0.000000 0.500000 0.448552
O O4 0.040447 0.302722 0.420478
O O5 0.689439 0.553339 0.842538
O O6 0.888217 0.623791 0.828442
O O7 0.852442 0.432396 0.868009
O O8 0.897510 0.814224 0.215104
O O9 0.823897 0.000000 0.250000
O O10 0.000000 0.000000 0.199762
O O11 0.000000 0.651758 0.250000
O O12 0.067328 0.739333 0.168459
O O13 0.250000 0.750000 0.113431
#
# Coordination Sequence:
#
# PCOD9497764 Si02
#       5
#    16  16  16  16  16
#     4   8  16  35  58  84 113 143 190 242 301 356
#     4  10  22  36  58  82 111 154 191 242 288 341
#     4  11  22  38  53  80 113 154 192 231 291 348
#     4  11  22  36  53  79 113 153 195 233 283 346
#     4  10  21  34  55  85 113 150 193 242 289 344
#
# _framework density 19.111056000000001
#
# number of rings (size 3 to 8) (size 9 to 14) (size 15 to 20)
#    0.000    2.000    2.000    3.600    2.800    1.200 
#    0.000    0.000    0.000   10.200    0.000    0.000 
#    0.000    0.000    0.000    0.000    0.000    0.000 
#
# Total GULP energy -223130.836647 kJ/mol
# GULP energy per Si atom -5578.270916 kJ/mol
# Density = 1.906756 g / cm^3
# Si number density = 19.111056 Si / 1000 Ang^3
#
#
#
# Elastic Constant Matrix: (Units=GPa)
#
#
# Indices 1 2 3 4 5 6 
#
# 1 70.4677 9.1796 53.3256 0.0000 0.0000 0.0000
# 2 9.1796 76.3867 22.4714 0.0000 0.0000 0.0000
# 3 53.3256 22.4714 171.5949 0.0000 0.0000 0.0000
# 4 0.0000 0.0000 0.0000 11.8214 0.0000 0.0000
# 5 0.0000 0.0000 0.0000 0.0000 25.2117 0.0000
# 6 0.0000 0.0000 0.0000 0.0000 0.0000 21.9273
#
#
#
# Elastic Compliance Matrix: (Units=1/GPa)
#
#
# Indices 1 2 3 4 5 6 
#
# 1 0.018577 -0.000556 -0.005700 0.000000 0.000000 0.000000
# 2 -0.000556 0.013632 -0.001613 0.000000 0.000000 0.000000
# 3 -0.005700 -0.001613 0.007810 0.000000 0.000000 0.000000
# 4 0.000000 0.000000 0.000000 0.084592 0.000000 0.000000
# 5 0.000000 0.000000 0.000000 0.000000 0.039664 0.000000
# 6 0.000000 0.000000 0.000000 0.000000 0.000000 0.045605
#
#
# Mechanical properties :
#
#
# Convention : Reuss Voigt Hill
#
# Bulk Modulus (GPa) = 41.18143 54.26693 47.72418
# Shear Modulus (GPa) = 21.39383 27.35694 24.37538
#
# Velocity S-wave (km/s) = 3.34944 3.78758 3.57523
# Velocity P-wave (km/s) = 6.04596 6.89818 6.48608
#
# Compressibility (1/GPa) = 0.02428279
#
# Stress axis : x y z
#
# Youngs Moduli (GPa) = 53.83034 73.35441 128.03595
#
# Poissons Ratio (x) = 0.04075 0.72984
# Poissons Ratio (y) = 0.02990 0.20647
# Poissons Ratio (z) = 0.30685 0.11829
#
# Static dielectric constant tensor:
#      x y z
#    x 1.728780 0.000000 0.000000 
#    y 0.000000 1.679400 0.000000 
#    z 0.000000 0.000000 1.683940 
# 
# From -- ./inp_files/68737.got.cif
#   From: 2010.05.17/outbox.cif.g08.bks.cpg/sg66_35_cif.got.tgz:68737.got - 2010.06.03 17:51:23.
