data_PCOD9497902
_publ_section_title
;
Structure prediction by ZEFSAII (Michael W. Deem and Ramdas Pophale) SiO2 
 PCOD9497902
Probable space group: C C C M
;
_chemical_formula_sum "Si O2"
_cell_formula_units_Z 88
_cell_length_a 18.155412
_cell_length_b 10.716743
_cell_length_c 19.634193
_cell_angle_alpha 90.000000
_cell_angle_beta 90.000000
_cell_angle_gamma 90.000000
_cell_volume 3820.163761
_symmetry_space_group_name_H-M "C C C M"
_symmetry_group_IT_number 66
_symmetry_cell_setting 'orthorhombic'
loop_
_space_group_symop_operation_xyz
x,y,z
-x,-y,z
x,-y,1/2-z
-x,y,1/2-z
-x,-y,-z
x,y,-z
-x,y,1/2+z
x,-y,1/2+z
1/2+x,1/2+y,z
1/2-x,1/2-y,z
1/2+x,1/2-y,1/2-z
1/2-x,1/2+y,1/2-z
1/2-x,1/2-y,-z
1/2+x,1/2+y,-z
1/2-x,1/2+y,1/2+z
1/2+x,1/2-y,1/2+z
loop_
_atom_site_type_symbol
_atom_site_label
_atom_site_fract_x
_atom_site_fract_y
_atom_site_fract_z
Si Si1 0.058235 0.651187 0.000000
Si Si2 0.639569 0.271082 0.626917
Si Si3 0.963907 0.206275 0.862023
Si Si4 0.250000 0.750000 0.124677
Si Si5 0.854270 0.964617 0.578689
Si Si6 0.362728 0.145084 0.267357
Si Si7 0.381575 0.897330 0.500000
O O1 0.064143 0.725883 0.069366
O O2 0.121127 0.545923 0.000000
O O3 0.971017 0.616448 0.000000
O O4 0.551404 0.296395 0.633523
O O5 0.674493 0.402131 0.604962
O O6 0.661945 0.214686 0.698778
O O7 0.648188 0.170679 0.566666
O O8 0.920374 0.076673 0.870288
O O9 0.934347 0.286451 0.798892
O O10 0.204915 0.853910 0.083622
O O11 0.302817 0.829873 0.174423
O O12 0.879275 0.980739 0.500000
O O13 0.375077 0.000000 0.250000
#
# Coordination Sequence:
#
# PCOD9497902 Si02
#       7
#     8  16  16   8  16  16   8
#     4   9  16  31  55  83 135 167 210 252 324 422
#     4  11  22  37  65  99 135 167 218 279 351 406
#     4  10  21  36  62 100 131 177 214 272 349 418
#     4  10  27  44  68  91 124 188 240 284 334 393
#     4  11  22  42  68  97 133 176 228 285 339 408
#     4  11  25  43  65  92 134 184 229 282 338 409
#     4   9  18  31  53  92 126 170 202 264 333 403
#
# _framework density 23.035661000000001
#
# number of rings (size 3 to 8) (size 9 to 14) (size 15 to 20)
#    0.000    1.636    1.818    2.455    2.545    5.818 
#    0.000    3.636    0.000    1.636    0.000    0.000 
#    0.000    0.000    0.000    0.000    0.000    0.000 
#
# Total GULP energy -245960.908852 kJ/mol
# GULP energy per Si atom -5590.020656 kJ/mol
# Density = 2.298323 g / cm^3
# Si number density = 23.035661 Si / 1000 Ang^3
#
#
#
# Elastic Constant Matrix: (Units=GPa)
#
#
# Indices 1 2 3 4 5 6 
#
# 1 71.9708 8.9677 8.5182 0.0000 0.0000 0.0000
# 2 8.9677 125.0264 33.6280 0.0000 0.0000 0.0000
# 3 8.5182 33.6280 113.5310 0.0000 0.0000 0.0000
# 4 0.0000 0.0000 0.0000 34.2708 0.0000 0.0000
# 5 0.0000 0.0000 0.0000 0.0000 2.3879 0.0000
# 6 0.0000 0.0000 0.0000 0.0000 0.0000 18.2140
#
#
#
# Elastic Compliance Matrix: (Units=1/GPa)
#
#
# Indices 1 2 3 4 5 6 
#
# 1 0.014090 -0.000789 -0.000823 0.000000 0.000000 0.000000
# 2 -0.000789 0.008735 -0.002528 0.000000 0.000000 0.000000
# 3 -0.000823 -0.002528 0.009619 0.000000 0.000000 0.000000
# 4 0.000000 0.000000 0.000000 0.029179 0.000000 0.000000
# 5 0.000000 0.000000 0.000000 0.000000 0.418780 0.000000
# 6 0.000000 0.000000 0.000000 0.000000 0.000000 0.054903
#
#
# Mechanical properties :
#
#
# Convention : Reuss Voigt Hill
#
# Bulk Modulus (GPa) = 41.38626 45.86177 43.62401
# Shear Modulus (GPa) = 9.06385 28.26884 18.66635
#
# Velocity S-wave (km/s) = 1.98576 3.50691 2.84971
# Velocity P-wave (km/s) = 4.82316 6.02911 5.45953
#
# Compressibility (1/GPa) = 0.02416261
#
# Stress axis : x y z
#
# Youngs Moduli (GPa) = 70.97074 114.48356 103.96349
#
# Poissons Ratio (x) = 0.09035 0.08561
# Poissons Ratio (y) = 0.05601 0.26283
# Poissons Ratio (z) = 0.05844 0.28942
#
# Static dielectric constant tensor:
#      x y z
#    x 1.901360 0.000000 0.000000 
#    y 0.000000 1.882390 0.000000 
#    z 0.000000 0.000000 1.795320 
# 
# From -- ./inp_files/42825.got.cif
#   From: 2010.05.17/outbox.cif.g08.bks.cpg/sg66_22_cif.got.tgz:42825.got - 2010.06.03 17:51:23.
