data_PCOD9497539
_publ_section_title
;
Structure prediction by ZEFSAII (Michael W. Deem and Ramdas Pophale) SiO2 
 PCOD9497539
Probable space group: C C C M
;
_chemical_formula_sum "Si O2"
_cell_formula_units_Z 68
_cell_length_a 4.958717
_cell_length_b 25.569637
_cell_length_c 21.160245
_cell_angle_alpha 90.000000
_cell_angle_beta 90.000000
_cell_angle_gamma 90.000000
_cell_volume 2682.962346
_symmetry_space_group_name_H-M "C C C M"
_symmetry_group_IT_number 66
_symmetry_cell_setting 'orthorhombic'
loop_
_space_group_symop_operation_xyz
x,y,z
-x,-y,z
x,-y,1/2-z
-x,y,1/2-z
-x,-y,-z
x,y,-z
-x,y,1/2+z
x,-y,1/2+z
1/2+x,1/2+y,z
1/2-x,1/2-y,z
1/2+x,1/2-y,1/2-z
1/2-x,1/2+y,1/2-z
1/2-x,1/2-y,-z
1/2+x,1/2+y,-z
1/2-x,1/2+y,1/2+z
1/2+x,1/2-y,1/2+z
loop_
_atom_site_type_symbol
_atom_site_label
_atom_site_fract_x
_atom_site_fract_y
_atom_site_fract_z
Si Si1 0.702271 0.077248 0.658806
Si Si2 0.320408 0.306325 0.824244
Si Si3 0.674544 0.195249 0.095471
Si Si4 0.000000 0.000000 0.750000
Si Si5 0.794818 0.079700 0.070129
O O1 0.734047 0.134448 0.693554
O O2 0.415071 0.065872 0.626288
O O3 0.807762 0.035728 0.707875
O O4 0.909154 0.074560 0.599455
O O5 0.250000 0.250000 0.792540
O O6 0.636203 0.306770 0.841047
O O7 0.138497 0.303142 0.887567
O O8 0.750000 0.250000 0.065682
O O9 0.742106 0.141557 0.063297
O O10 0.763628 0.055589 0.000000
#
# Coordination Sequence:
#
# PCOD9497539 Si02
#       5
#    16  16  16   4  16
#     4  10  23  40  64  92 123 168 212 261 316 376
#     4   8  14  29  53  82 118 155 199 251 304 364
#     4   8  14  25  47  82 123 163 195 233 295 373
#     4  12  28  50  70  90 124 170 232 278 320 386
#     4  10  20  38  62  93 129 161 204 259 320 384
#
# _framework density 25.345120999999999
#
# number of rings (size 3 to 8) (size 9 to 14) (size 15 to 20)
#    0.000    2.824    0.000    0.706    0.000    3.294 
#    0.000    3.529    0.000   28.235    0.000    0.000 
#    0.000    0.000    0.000    0.000    0.000    1.176 
#
# Total GULP energy -189703.715623 kJ/mol
# GULP energy per Si atom -5579.521048 kJ/mol
# Density = 2.528743 g / cm^3
# Si number density = 25.345121 Si / 1000 Ang^3
#
#
#
# Elastic Constant Matrix: (Units=GPa)
#
#
# Indices 1 2 3 4 5 6 
#
# 1 84.9172 -2.5516 8.6865 0.0000 0.0000 0.0000
# 2 -2.5516 139.8033 49.9292 0.0000 0.0000 0.0000
# 3 8.6865 49.9292 89.0378 0.0000 0.0000 0.0000
# 4 0.0000 0.0000 0.0000 1.6959 0.0000 0.0000
# 5 0.0000 0.0000 0.0000 0.0000-1223.9240 0.0000
# 6 0.0000 0.0000 0.0000 0.0000 0.0000 33.3531
#
#
#
# Elastic Compliance Matrix: (Units=1/GPa)
#
#
# Indices 1 2 3 4 5 6 
#
# 1 0.011965 0.000794 -0.001613 0.000000 0.000000 0.000000
# 2 0.000794 0.008997 -0.005123 0.000000 0.000000 0.000000
# 3 -0.001613 -0.005123 0.014261 0.000000 0.000000 0.000000
# 4 0.000000 0.000000 0.000000 0.589657 0.000000 0.000000
# 5 0.000000 0.000000 0.000000 0.000000 -0.000817 0.000000
# 6 0.000000 0.000000 0.000000 0.000000 0.000000 0.029982
#
#
# Mechanical properties :
#
#
# Convention : Reuss Voigt Hill
#
# Bulk Modulus (GPa) = 42.84312 47.32072 45.08192
# Shear Modulus (GPa) = 7.42162 -220.59539 -106.58688
#
# Velocity S-wave (km/s) = 1.71306 -9.33946 -6.49196
# Velocity P-wave (km/s) = 4.56655 9.87875 6.19420
#
# Compressibility (1/GPa) = 0.02334097
#
# Stress axis : x y z
#
# Youngs Moduli (GPa) = 83.57701 111.14946 70.12082
#
# Poissons Ratio (x) = -0.08829 0.11309
# Poissons Ratio (y) = -0.06639 0.35920
# Poissons Ratio (z) = 0.13479 0.56938
#
# Static dielectric constant tensor:
#      x y z
#    x 1.889430 0.000000 0.000000 
#    y 0.000000 2.060670 0.000000 
#    z 0.000000 0.000000 1.955920 
# 
# From -- ./inp_files/45777.got.cif
#   From: 2010.05.17/outbox.cif.g08.bks.cpg/sg66_23_cif.got.tgz:45777.got - 2010.06.03 17:51:23.
