data_PCOD9497541
_publ_section_title
;
Structure prediction by ZEFSAII (Michael W. Deem and Ramdas Pophale) SiO2 
 PCOD9497541
Probable space group: C C C M
;
_chemical_formula_sum "Si O2"
_cell_formula_units_Z 88
_cell_length_a 11.667646
_cell_length_b 16.637223
_cell_length_c 21.974357
_cell_angle_alpha 90.000000
_cell_angle_beta 90.000000
_cell_angle_gamma 90.000000
_cell_volume 4265.601276
_symmetry_space_group_name_H-M "C C C M"
_symmetry_group_IT_number 66
_symmetry_cell_setting 'orthorhombic'
loop_
_space_group_symop_operation_xyz
x,y,z
-x,-y,z
x,-y,1/2-z
-x,y,1/2-z
-x,-y,-z
x,y,-z
-x,y,1/2+z
x,-y,1/2+z
1/2+x,1/2+y,z
1/2-x,1/2-y,z
1/2+x,1/2-y,1/2-z
1/2-x,1/2+y,1/2-z
1/2-x,1/2-y,-z
1/2+x,1/2+y,-z
1/2-x,1/2+y,1/2+z
1/2+x,1/2-y,1/2+z
loop_
_atom_site_type_symbol
_atom_site_label
_atom_site_fract_x
_atom_site_fract_y
_atom_site_fract_z
Si Si1 0.325359 0.321731 0.843553
Si Si2 0.454732 0.765217 0.179871
Si Si3 0.391962 0.943114 0.844422
Si Si4 0.731348 0.450867 0.571992
Si Si5 0.332459 0.389569 0.283885
Si Si6 0.000000 0.000000 0.860809
O O1 0.250000 0.250000 0.817284
O O2 0.447120 0.282188 0.857217
O O3 0.254501 0.363660 0.896849
O O4 0.344142 0.383104 0.788303
O O5 0.500000 0.779468 0.250000
O O6 0.432770 0.850663 0.148406
O O7 0.353550 0.699951 0.188850
O O8 0.290645 0.928290 0.796023
O O9 0.500000 0.000000 0.828477
O O10 0.322993 0.986841 0.899296
O O11 0.739353 0.450254 0.500000
O O12 0.601748 0.469086 0.595039
O O13 0.429282 0.440571 0.317262
#
# Coordination Sequence:
#
# PCOD9497541 Si02
#       6
#    16  16  16  16  16   8
#     4  11  22  39  64 100 132 170 217 269 341 405
#     4  10  20  38  62  94 135 166 204 267 343 409
#     4  11  24  40  64  94 132 171 217 278 339 396
#     4  11  25  43  63  90 130 179 234 278 318 385
#     4  10  21  39  67 101 135 166 210 274 346 420
#     4  10  21  41  70  98 131 167 222 276 348 389
#
# _framework density 20.630151999999999
#
# number of rings (size 3 to 8) (size 9 to 14) (size 15 to 20)
#    0.000    1.455    1.818    4.091    0.000    6.182 
#    0.000    0.909    0.000    2.182    0.000    0.000 
#    0.000    0.000    0.000    0.000    0.000    0.000 
#
# Total GULP energy -245467.639885 kJ/mol
# GULP energy per Si atom -5578.809997 kJ/mol
# Density = 2.058320 g / cm^3
# Si number density = 20.630152 Si / 1000 Ang^3
#
#
#
# Elastic Constant Matrix: (Units=GPa)
#
#
# Indices 1 2 3 4 5 6 
#
# 1 137.9406 69.7999 38.4532 0.0000 0.0000 0.0000
# 2 69.7999 153.7924 62.1379 0.0000 0.0000 0.0000
# 3 38.4532 62.1379 98.8728 0.0000 0.0000 0.0000
# 4 0.0000 0.0000 0.0000 13.7015 0.0000 0.0000
# 5 0.0000 0.0000 0.0000 0.0000 11.4102 0.0000
# 6 0.0000 0.0000 0.0000 0.0000 0.0000 53.2577
#
#
#
# Elastic Compliance Matrix: (Units=1/GPa)
#
#
# Indices 1 2 3 4 5 6 
#
# 1 0.009539 -0.003794 -0.001326 0.000000 0.000000 0.000000
# 2 -0.003794 0.010224 -0.004950 0.000000 0.000000 0.000000
# 3 -0.001326 -0.004950 0.013740 0.000000 0.000000 0.000000
# 4 0.000000 0.000000 0.000000 0.072985 0.000000 0.000000
# 5 0.000000 0.000000 0.000000 0.000000 0.087641 0.000000
# 6 0.000000 0.000000 0.000000 0.000000 0.000000 0.018777
#
#
# Mechanical properties :
#
#
# Convention : Reuss Voigt Hill
#
# Bulk Modulus (GPa) = 74.82409 81.26533 78.04471
# Shear Modulus (GPa) = 21.05277 30.35487 25.70382
#
# Velocity S-wave (km/s) = 3.19797 3.84002 3.53361
# Velocity P-wave (km/s) = 7.06994 7.69013 7.38655
#
# Compressibility (1/GPa) = 0.01336468
#
# Stress axis : x y z
#
# Youngs Moduli (GPa) = 104.83675 97.80890 72.77775
#
# Poissons Ratio (x) = 0.37105 0.09647
# Poissons Ratio (y) = 0.39771 0.36025
# Poissons Ratio (z) = 0.13897 0.48416
#
# Static dielectric constant tensor:
#      x y z
#    x 1.800020 0.000000 0.000000 
#    y 0.000000 1.831030 0.000000 
#    z 0.000000 0.000000 1.691310 
# 
# From -- ./inp_files/48533.got.cif
#   From: 2010.05.17/outbox.cif.g08.bks.cpg/sg66_25_cif.got.tgz:48533.got - 2010.06.03 17:51:23.
