data_PCOD9497029
_publ_section_title
;
Structure prediction by ZEFSAII (Michael W. Deem and Ramdas Pophale) SiO2 
 PCOD9497029
Probable space group: C C C M
;
_chemical_formula_sum "Si O2"
_cell_formula_units_Z 112
_cell_length_a 13.845369
_cell_length_b 16.395058
_cell_length_c 24.806728
_cell_angle_alpha 90.000000
_cell_angle_beta 90.000000
_cell_angle_gamma 90.000000
_cell_volume 5631.018796
_symmetry_space_group_name_H-M "C C C M"
_symmetry_group_IT_number 66
_symmetry_cell_setting 'orthorhombic'
loop_
_space_group_symop_operation_xyz
x,y,z
-x,-y,z
x,-y,1/2-z
-x,y,1/2-z
-x,-y,-z
x,y,-z
-x,y,1/2+z
x,-y,1/2+z
1/2+x,1/2+y,z
1/2-x,1/2-y,z
1/2+x,1/2-y,1/2-z
1/2-x,1/2+y,1/2-z
1/2-x,1/2-y,-z
1/2+x,1/2+y,-z
1/2-x,1/2+y,1/2+z
1/2+x,1/2-y,1/2+z
loop_
_atom_site_type_symbol
_atom_site_label
_atom_site_fract_x
_atom_site_fract_y
_atom_site_fract_z
Si Si1 0.609417 0.347986 0.128064
Si Si2 0.599243 0.906102 0.235552
Si Si3 0.428279 0.186408 0.437786
Si Si4 0.213012 0.836906 0.242911
Si Si5 0.916592 0.430012 0.613709
Si Si6 0.262217 0.951103 0.936924
Si Si7 0.953862 0.091092 0.696307
O O1 0.604522 0.266171 0.093979
O O2 0.657836 0.331012 0.186278
O O3 0.670949 0.419430 0.098412
O O4 0.498759 0.371258 0.142896
O O5 0.500000 0.861844 0.250000
O O6 0.686585 0.878237 0.271531
O O7 0.615090 0.898861 0.172212
O O8 0.590741 0.000000 0.250000
O O9 0.442466 0.207706 0.500000
O O10 0.525043 0.141506 0.416546
O O11 0.340868 0.121726 0.434087
O O12 0.250000 0.750000 0.264936
O O13 0.156875 0.892330 0.287520
O O14 0.824391 0.471439 0.584640
O O15 0.000000 0.500000 0.621479
O O16 0.235871 0.962566 0.000000
O O17 0.000000 0.131277 0.750000
O O18 0.000000 0.000000 0.695686
#
# Coordination Sequence:
#
# PCOD9497029 Si02
#       7
#    16  16  16  16  16  16  16
#     4  11  22  36  61  84 122 158 201 256 310 360
#     4  11  23  36  59  91 126 158 194 243 311 380
#     4  10  21  36  57  86 121 159 199 251 315 372
#     4  11  25  37  59  89 125 160 207 253 309 369
#     4  10  20  35  56  84 122 162 193 242 307 374
#     4  10  20  35  58  89 119 156 206 249 306 374
#     4   9  22  41  58  83 115 163 209 246 300 378
#
# _framework density 19.889828999999999
#
# number of rings (size 3 to 8) (size 9 to 14) (size 15 to 20)
#    0.000    1.714    1.429    3.000   12.000    3.429 
#    0.000    0.000    0.000    1.714    0.000    1.000 
#    0.000    0.000    0.000    0.000    0.000    0.000 
#
# Total GULP energy -311918.671170 kJ/mol
# GULP energy per Si atom -5569.976271 kJ/mol
# Density = 1.984456 g / cm^3
# Si number density = 19.889829 Si / 1000 Ang^3
#
#
#
# Elastic Constant Matrix: (Units=GPa)
#
#
# Indices 1 2 3 4 5 6 
#
# 1 78.7215 24.9765 39.0650 0.0000 0.0000 0.0000
# 2 24.9765 48.7852 27.5741 0.0000 0.0000 0.0000
# 3 39.0650 27.5741 114.5120 0.0000 0.0000 0.0000
# 4 0.0000 0.0000 0.0000 6.1705 0.0000 0.0000
# 5 0.0000 0.0000 0.0000 0.0000 9.1641 0.0000
# 6 0.0000 0.0000 0.0000 0.0000 0.0000 2.2836
#
#
#
# Elastic Compliance Matrix: (Units=1/GPa)
#
#
# Indices 1 2 3 4 5 6 
#
# 1 0.016766 -0.006194 -0.004228 0.000000 0.000000 0.000000
# 2 -0.006194 0.026016 -0.004151 0.000000 0.000000 0.000000
# 3 -0.004228 -0.004151 0.011175 0.000000 0.000000 0.000000
# 4 0.000000 0.000000 0.000000 0.162061 0.000000 0.000000
# 5 0.000000 0.000000 0.000000 0.000000 0.109122 0.000000
# 6 0.000000 0.000000 0.000000 0.000000 0.000000 0.437903
#
#
# Mechanical properties :
#
#
# Convention : Reuss Voigt Hill
#
# Bulk Modulus (GPa) = 40.30723 47.24999 43.77861
# Shear Modulus (GPa) = 6.24640 13.55051 9.89846
#
# Velocity S-wave (km/s) = 1.77407 2.61296 2.23326
# Velocity P-wave (km/s) = 4.95032 5.73680 5.35801
#
# Compressibility (1/GPa) = 0.02480944
#
# Stress axis : x y z
#
# Youngs Moduli (GPa) = 59.64278 38.43845 89.48702
#
# Poissons Ratio (x) = 0.23809 0.37838
# Poissons Ratio (y) = 0.36943 0.37150
# Poissons Ratio (z) = 0.25219 0.15957
#
# Static dielectric constant tensor:
#      x y z
#    x 1.117100 0.000000 0.000000 
#    y 0.000000 1.302030 0.000000 
#    z 0.000000 0.000000 1.693910 
# 
# From -- ./inp_files/58220.got.cif
#   From: 2010.05.17/outbox.cif.g08.bks.cpg/sg66_30_cif.got.tgz:58220.got - 2010.06.03 17:51:23.
