data_PCOD9497023
_publ_section_title
;
Structure prediction by ZEFSAII (Michael W. Deem and Ramdas Pophale) SiO2 
 PCOD9497023
Probable space group: C C C M
;
_chemical_formula_sum "Si O2"
_cell_formula_units_Z 80
_cell_length_a 27.352705
_cell_length_b 9.937918
_cell_length_c 13.817877
_cell_angle_alpha 90.000000
_cell_angle_beta 90.000000
_cell_angle_gamma 90.000000
_cell_volume 3756.098849
_symmetry_space_group_name_H-M "C C C M"
_symmetry_group_IT_number 66
_symmetry_cell_setting 'orthorhombic'
loop_
_space_group_symop_operation_xyz
x,y,z
-x,-y,z
x,-y,1/2-z
-x,y,1/2-z
-x,-y,-z
x,y,-z
-x,y,1/2+z
x,-y,1/2+z
1/2+x,1/2+y,z
1/2-x,1/2-y,z
1/2+x,1/2-y,1/2-z
1/2-x,1/2+y,1/2-z
1/2-x,1/2-y,-z
1/2+x,1/2+y,-z
1/2-x,1/2+y,1/2+z
1/2+x,1/2-y,1/2+z
loop_
_atom_site_type_symbol
_atom_site_label
_atom_site_fract_x
_atom_site_fract_y
_atom_site_fract_z
Si Si1 0.429767 0.892794 0.888570
Si Si2 0.185314 0.379886 0.391526
Si Si3 0.700040 0.185931 0.323076
Si Si4 0.496618 0.652020 0.112902
Si Si5 0.095026 0.688519 0.387571
O O1 0.372880 0.852983 0.891028
O O2 0.461362 0.770033 0.844976
O O3 0.426226 0.045732 0.848498
O O4 0.448209 0.908364 0.000000
O O5 0.203192 0.347011 0.500000
O O6 0.194764 0.537416 0.369174
O O7 0.204464 0.314689 0.293252
O O8 0.750000 0.250000 0.362387
O O9 0.645570 0.241845 0.343205
O O10 0.500000 0.500000 0.149983
O O11 0.551263 0.708033 0.116591
O O12 0.480778 0.639876 0.000000
O O13 0.106813 0.660415 0.500000
#
# Coordination Sequence:
#
# PCOD9497023 Si02
#       5
#    16  16  16  16  16
#     4   8  14  28  51  75 103 142 185 228 274 333
#     4   9  19  36  57  81 109 144 188 238 291 343
#     4  10  20  35  56  83 112 142 188 245 287 332
#     4   9  16  27  47  79 115 147 181 225 280 341
#     4   9  17  30  51  79 111 149 189 229 280 339
#
# _framework density 21.298694999999999
#
# number of rings (size 3 to 8) (size 9 to 14) (size 15 to 20)
#    0.000    3.000    0.000    2.400    0.000    4.400 
#    0.000    5.000    0.000    8.400    0.000    0.000 
#    0.000    0.000    0.000    0.000    0.000    0.000 
#
# Total GULP energy -222692.237124 kJ/mol
# GULP energy per Si atom -5567.305928 kJ/mol
# Density = 2.125022 g / cm^3
# Si number density = 21.298695 Si / 1000 Ang^3
#
#
#
# Elastic Constant Matrix: (Units=GPa)
#
#
# Indices 1 2 3 4 5 6 
#
# 1 138.2396 83.6634 17.6133 0.0000 0.0000 0.0000
# 2 83.6634 91.5515 17.5111 0.0000 0.0000 0.0000
# 3 17.6133 17.5111 113.9850 0.0000 0.0000 0.0000
# 4 0.0000 0.0000 0.0000 0.4203 0.0000 0.0000
# 5 0.0000 0.0000 0.0000 0.0000 18.0294 0.0000
# 6 0.0000 0.0000 0.0000 0.0000 0.0000 36.2557
#
#
#
# Elastic Compliance Matrix: (Units=1/GPa)
#
#
# Indices 1 2 3 4 5 6 
#
# 1 0.016191 -0.014751 -0.000236 0.000000 0.000000 0.000000
# 2 -0.014751 0.024693 -0.001514 0.000000 0.000000 0.000000
# 3 -0.000236 -0.001514 0.009042 0.000000 0.000000 0.000000
# 4 0.000000 0.000000 0.000000 2.379271 0.000000 0.000000
# 5 0.000000 0.000000 0.000000 0.000000 0.055465 0.000000
# 6 0.000000 0.000000 0.000000 0.000000 0.000000 0.027582
#
#
# Mechanical properties :
#
#
# Convention : Reuss Voigt Hill
#
# Bulk Modulus (GPa) = 59.08737 64.59464 61.84101
# Shear Modulus (GPa) = 1.96010 25.94031 13.95021
#
# Velocity S-wave (km/s) = 0.96036 3.49367 2.56203
# Velocity P-wave (km/s) = 5.38815 6.83141 6.15225
#
# Compressibility (1/GPa) = 0.01692409
#
# Stress axis : x y z
#
# Youngs Moduli (GPa) = 61.76125 40.49785 110.59362
#
# Poissons Ratio (x) = 0.59739 0.02607
# Poissons Ratio (y) = 0.91105 0.16744
# Poissons Ratio (z) = 0.01456 0.06132
#
# Static dielectric constant tensor:
#      x y z
#    x 1.754610 0.000000 0.000000 
#    y 0.000000 1.775110 0.000000 
#    z 0.000000 0.000000 1.867640 
# 
# From -- ./inp_files/32129.got.cif
#   From: 2010.05.17/outbox.cif.g08.bks.cpg/sg66_17_cif.got.tgz:32129.got - 2010.06.03 17:51:23.
