data_PCOD9497220
_publ_section_title
;
Structure prediction by ZEFSAII (Michael W. Deem and Ramdas Pophale) SiO2 
 PCOD9497220
Probable space group: C C C M
;
_chemical_formula_sum "Si O2"
_cell_formula_units_Z 116
_cell_length_a 22.417797
_cell_length_b 27.836176
_cell_length_c 9.264637
_cell_angle_alpha 90.000000
_cell_angle_beta 90.000000
_cell_angle_gamma 90.000000
_cell_volume 5781.371986
_symmetry_space_group_name_H-M "C C C M"
_symmetry_group_IT_number 66
_symmetry_cell_setting 'orthorhombic'
loop_
_space_group_symop_operation_xyz
x,y,z
-x,-y,z
x,-y,1/2-z
-x,y,1/2-z
-x,-y,-z
x,y,-z
-x,y,1/2+z
x,-y,1/2+z
1/2+x,1/2+y,z
1/2-x,1/2-y,z
1/2+x,1/2-y,1/2-z
1/2-x,1/2+y,1/2-z
1/2-x,1/2-y,-z
1/2+x,1/2+y,-z
1/2-x,1/2+y,1/2+z
1/2+x,1/2-y,1/2+z
loop_
_atom_site_type_symbol
_atom_site_label
_atom_site_fract_x
_atom_site_fract_y
_atom_site_fract_z
Si Si1 0.306025 0.450459 0.165952
Si Si2 0.914815 0.911624 0.667041
Si Si3 0.500000 0.500000 0.250000
Si Si4 0.664768 0.050499 0.667603
Si Si5 0.222363 0.197426 0.330243
Si Si6 0.939769 0.287766 0.330497
Si Si7 0.346321 0.146290 0.671387
Si Si8 0.098745 0.821332 0.331540
O O1 0.310748 0.500000 0.250000
O O2 0.351196 0.418458 0.255284
O O3 0.236114 0.439399 0.165607
O O4 0.326300 0.454052 0.000000
O O5 0.907216 0.901498 0.500000
O O6 0.935426 0.863579 0.747961
O O7 0.954622 0.960435 0.679710
O O8 0.645401 0.047984 0.500000
O O9 0.638924 0.095322 0.755516
O O10 0.655218 0.000000 0.750000
O O11 0.205264 0.197176 0.500000
O O12 0.250000 0.250000 0.298178
O O13 0.276660 0.160227 0.309873
O O14 0.164813 0.186586 0.234867
O O15 0.940554 0.300371 0.500000
O O16 0.885054 0.313317 0.250456
O O17 0.932388 0.230362 0.319355
O O18 0.000000 0.302622 0.250000
O O19 0.357950 0.145659 0.500000
O O20 0.103386 0.834338 0.500000
#
# Coordination Sequence:
#
# PCOD9497220 Si02
#       8
#    16  16   4  16  16  16  16  16
#     4  10  20  36  59  86 119 157 200 250 308 373
#     4  12  26  43  64  84 114 157 208 270 330 386
#     4  12  30  48  64  90 114 160 226 288 342 396
#     4  10  21  37  60  93 130 165 204 250 304 371
#     4  10  20  37  63  97 133 170 211 258 319 388
#     4  11  25  44  65  91 124 166 212 260 312 374
#     4  11  22  38  64  95 130 170 211 258 313 377
#     4  11  25  42  64  94 127 164 211 266 326 390
#
# _framework density 20.064442
#
# number of rings (size 3 to 8) (size 9 to 14) (size 15 to 20)
#    0.000    1.241    2.069    3.517    0.966    8.552 
#    0.000    0.000    0.000    0.414    0.000    2.897 
#    0.000    0.000    0.000    0.000    0.000    0.000 
#
# Total GULP energy -323874.876170 kJ/mol
# GULP energy per Si atom -5584.049589 kJ/mol
# Density = 2.001877 g / cm^3
# Si number density = 20.064442 Si / 1000 Ang^3
#
#
#
# Elastic Constant Matrix: (Units=GPa)
#
#
# Indices 1 2 3 4 5 6 
#
# 1 55.5138 2.3595 43.1469 0.0000 0.0000 0.0000
# 2 2.3595 114.9779 70.4881 0.0000 0.0000 0.0000
# 3 43.1469 70.4881 171.5156 0.0000 0.0000 0.0000
# 4 0.0000 0.0000 0.0000 2.8539 0.0000 0.0000
# 5 0.0000 0.0000 0.0000 0.0000 136.4301 0.0000
# 6 0.0000 0.0000 0.0000 0.0000 0.0000 7.1350
#
#
#
# Elastic Compliance Matrix: (Units=1/GPa)
#
#
# Indices 1 2 3 4 5 6 
#
# 1 0.023859 0.004264 -0.007755 0.000000 0.000000 0.000000
# 2 0.004264 0.012389 -0.006164 0.000000 0.000000 0.000000
# 3 -0.007755 -0.006164 0.010315 0.000000 0.000000 0.000000
# 4 0.000000 0.000000 0.000000 0.350404 0.000000 0.000000
# 5 0.000000 0.000000 0.000000 0.000000 0.007330 0.000000
# 6 0.000000 0.000000 0.000000 0.000000 0.000000 0.140155
#
#
# Mechanical properties :
#
#
# Convention : Reuss Voigt Hill
#
# Bulk Modulus (GPa) = 36.69208 63.77736 50.23472
# Shear Modulus (GPa) = 8.72836 44.35129 26.53983
#
# Velocity S-wave (km/s) = 2.08797 4.70663 3.64088
# Velocity P-wave (km/s) = 4.91321 7.83529 6.53955
#
# Compressibility (1/GPa) = 0.02725383
#
# Stress axis : x y z
#
# Youngs Moduli (GPa) = 41.91205 80.71768 96.95087
#
# Poissons Ratio (x) = -0.34422 0.75183
# Poissons Ratio (y) = -0.17873 0.59763
# Poissons Ratio (z) = 0.32502 0.49756
#
# Static dielectric constant tensor:
#      x y z
#    x 1.740340 0.000000 0.000000 
#    y 0.000000 1.717470 0.000000 
#    z 0.000000 0.000000 1.676950 
# 
# From -- ./inp_files/9471.got.cif
#   From: 2010.05.17/outbox.cif.g08.bks.cpg/sg66_5_cif.got.tgz:9471.got - 2010.06.03 17:51:23.
