data_PCOD9497275
_publ_section_title
;
Structure prediction by ZEFSAII (Michael W. Deem and Ramdas Pophale) SiO2 
 PCOD9497275
Probable space group: C C C M
;
_chemical_formula_sum "Si O2"
_cell_formula_units_Z 92
_cell_length_a 14.770728
_cell_length_b 14.796257
_cell_length_c 21.545116
_cell_angle_alpha 90.000000
_cell_angle_beta 90.000000
_cell_angle_gamma 90.000000
_cell_volume 4708.717152
_symmetry_space_group_name_H-M "C C C M"
_symmetry_group_IT_number 66
_symmetry_cell_setting 'orthorhombic'
loop_
_space_group_symop_operation_xyz
x,y,z
-x,-y,z
x,-y,1/2-z
-x,y,1/2-z
-x,-y,-z
x,y,-z
-x,y,1/2+z
x,-y,1/2+z
1/2+x,1/2+y,z
1/2-x,1/2-y,z
1/2+x,1/2-y,1/2-z
1/2-x,1/2+y,1/2-z
1/2-x,1/2-y,-z
1/2+x,1/2+y,-z
1/2-x,1/2+y,1/2+z
1/2+x,1/2-y,1/2+z
loop_
_atom_site_type_symbol
_atom_site_label
_atom_site_fract_x
_atom_site_fract_y
_atom_site_fract_z
Si Si1 0.241863 0.856909 0.193763
Si Si2 0.285562 0.120653 0.108552
Si Si3 0.116299 0.150369 0.201013
Si Si4 0.906104 0.635134 0.220370
Si Si5 0.750000 0.750000 0.000000
Si Si6 0.814780 0.057418 0.930268
Si Si7 0.000000 0.000000 0.633410
O O1 0.250000 0.750000 0.200230
O O2 0.154877 0.886683 0.233769
O O3 0.330133 0.891695 0.229078
O O4 0.228634 0.881578 0.123008
O O5 0.203964 0.150378 0.155419
O O6 0.370096 0.101288 0.153668
O O7 0.243072 0.034452 0.074346
O O8 0.303003 0.193567 0.055411
O O9 0.088967 0.254874 0.210615
O O10 0.041968 0.083205 0.172881
O O11 0.000000 0.606020 0.250000
O O12 0.917185 0.035154 0.909013
O O13 0.813065 0.093234 0.000000
#
# Coordination Sequence:
#
# PCOD9497275 Si02
#       7
#    16  16  16  16   4  16   8
#     4   9  21  39  59  82 115 162 202 240 303 363
#     4  10  20  36  61  89 117 164 196 245 300 364
#     4   9  19  36  55  88 123 154 191 237 299 369
#     4  10  20  37  61  85 116 151 212 257 294 339
#     4  12  16  36  64  86 124 160 204 228 298 380
#     4  11  23  39  58  86 125 158 199 245 300 373
#     4  10  23  33  58  96 127 149 186 240 318 364
#
# _framework density 19.538231
#
# number of rings (size 3 to 8) (size 9 to 14) (size 15 to 20)
#    0.000    2.087    2.609    1.304    4.870    7.304 
#    0.000    1.739    1.913    1.043    0.000    0.000 
#    0.000    0.000    0.000    0.000    0.000    0.000 
#
# Total GULP energy -256146.554197 kJ/mol
# GULP energy per Si atom -5568.403352 kJ/mol
# Density = 1.949376 g / cm^3
# Si number density = 19.538231 Si / 1000 Ang^3
#
#
#
# Elastic Constant Matrix: (Units=GPa)
#
#
# Indices 1 2 3 4 5 6 
#
# 1 86.6554 6.3197 56.2542 0.0000 0.0000 0.0000
# 2 6.3197 35.9258 16.8993 0.0000 0.0000 0.0000
# 3 56.2542 16.8993 179.2822 0.0000 0.0000 0.0000
# 4 0.0000 0.0000 0.0000 28.0386 0.0000 0.0000
# 5 0.0000 0.0000 0.0000 0.0000 8.4288 0.0000
# 6 0.0000 0.0000 0.0000 0.0000 0.0000 16.6112
#
#
#
# Elastic Compliance Matrix: (Units=1/GPa)
#
#
# Indices 1 2 3 4 5 6 
#
# 1 0.014498 -0.000430 -0.004509 0.000000 0.000000 0.000000
# 2 -0.000430 0.029139 -0.002612 0.000000 0.000000 0.000000
# 3 -0.004509 -0.002612 0.007239 0.000000 0.000000 0.000000
# 4 0.000000 0.000000 0.000000 0.035665 0.000000 0.000000
# 5 0.000000 0.000000 0.000000 0.000000 0.118641 0.000000
# 6 0.000000 0.000000 0.000000 0.000000 0.000000 0.060200
#
#
# Mechanical properties :
#
#
# Convention : Reuss Voigt Hill
#
# Bulk Modulus (GPa) = 27.95170 51.20111 39.57641
# Shear Modulus (GPa) = 17.09936 25.44173 21.27054
#
# Velocity S-wave (km/s) = 2.96154 3.61245 3.30307
# Velocity P-wave (km/s) = 5.10211 6.60774 5.90312
#
# Compressibility (1/GPa) = 0.03577599
#
# Stress axis : x y z
#
# Youngs Moduli (GPa) = 68.97413 34.31785 138.14618
#
# Poissons Ratio (x) = 0.01474 0.62286
# Poissons Ratio (y) = 0.02963 0.36083
# Poissons Ratio (z) = 0.31098 0.08964
#
# Static dielectric constant tensor:
#      x y z
#    x 1.696790 0.000000 0.000000 
#    y 0.000000 1.745460 0.000000 
#    z 0.000000 0.000000 1.676840 
# 
# From -- ./inp_files/49926.got.cif
#   From: 2010.05.17/outbox.cif.g08.bks.cpg/sg66_25_cif.got.tgz:49926.got - 2010.06.03 17:51:23.
