data_PCOD9497894
_publ_section_title
;
Structure prediction by ZEFSAII (Michael W. Deem and Ramdas Pophale) SiO2 
 PCOD9497894
Probable space group: C C C M
;
_chemical_formula_sum "Si O2"
_cell_formula_units_Z 88
_cell_length_a 18.558310
_cell_length_b 12.547203
_cell_length_c 19.897322
_cell_angle_alpha 90.000000
_cell_angle_beta 90.000000
_cell_angle_gamma 90.000000
_cell_volume 4633.188584
_symmetry_space_group_name_H-M "C C C M"
_symmetry_group_IT_number 66
_symmetry_cell_setting 'orthorhombic'
loop_
_space_group_symop_operation_xyz
x,y,z
-x,-y,z
x,-y,1/2-z
-x,y,1/2-z
-x,-y,-z
x,y,-z
-x,y,1/2+z
x,-y,1/2+z
1/2+x,1/2+y,z
1/2-x,1/2-y,z
1/2+x,1/2-y,1/2-z
1/2-x,1/2+y,1/2-z
1/2-x,1/2-y,-z
1/2+x,1/2+y,-z
1/2-x,1/2+y,1/2+z
1/2+x,1/2-y,1/2+z
loop_
_atom_site_type_symbol
_atom_site_label
_atom_site_fract_x
_atom_site_fract_y
_atom_site_fract_z
Si Si1 0.077185 0.552654 0.580128
Si Si2 0.783710 0.130940 0.000000
Si Si3 0.955676 0.111751 0.000000
Si Si4 0.842663 0.088729 0.697595
Si Si5 0.426156 0.696189 0.422905
Si Si6 0.750000 0.750000 0.724410
Si Si7 0.783176 0.450873 0.863726
O O1 0.090836 0.537407 0.500000
O O2 0.080503 0.679286 0.592803
O O3 0.138449 0.496218 0.622886
O O4 0.000000 0.500000 0.594145
O O5 0.750000 0.250000 0.000000
O O6 0.895709 0.821376 0.000000
O O7 0.753575 0.074512 0.934440
O O8 0.989432 0.170844 0.935184
O O9 0.000000 0.000000 0.000000
O O10 0.891358 0.122064 0.633887
O O11 0.814527 0.195330 0.733991
O O12 0.873995 0.000000 0.750000
O O13 0.769038 0.034752 0.671856
O O14 0.629587 0.619303 0.500000
O O15 0.782583 0.656705 0.678912
#
# Coordination Sequence:
#
# PCOD9497894 Si02
#       7
#    16   8   8  16  16   8  16
#     4  10  21  36  60  92 130 161 201 265 328 382
#     4  12  24  35  65 101 127 164 219 273 325 390
#     4  10  22  39  63  95 137 165 206 276 337 380
#     4  10  21  39  64  90 129 171 216 261 323 391
#     4   9  21  38  64  94 125 168 208 264 325 379
#     4  10  22  39  59  88 130 176 214 264 316 380
#     4  11  22  37  62  94 125 165 216 265 318 384
#
# _framework density 18.993399
#
# number of rings (size 3 to 8) (size 9 to 14) (size 15 to 20)
#    0.545    1.273    1.818    2.182    3.818    0.000 
#    0.000    2.273    0.000   37.091    0.000    0.000 
#    0.000    0.000    0.000    0.000    0.000    0.000 
#
# Total GULP energy -245343.906834 kJ/mol
# GULP energy per Si atom -5575.997883 kJ/mol
# Density = 1.895017 g / cm^3
# Si number density = 18.993399 Si / 1000 Ang^3
#
#
#
# Elastic Constant Matrix: (Units=GPa)
#
#
# Indices 1 2 3 4 5 6 
#
# 1 101.6144 58.1690 42.5855 0.0000 0.0000 0.0000
# 2 58.1690 105.7655 48.9934 0.0000 0.0000 0.0000
# 3 42.5855 48.9934 102.5057 0.0000 0.0000 0.0000
# 4 0.0000 0.0000 0.0000 76.2815 0.0000 0.0000
# 5 0.0000 0.0000 0.0000 0.0000 -23.6197 0.0000
# 6 0.0000 0.0000 0.0000 0.0000 0.0000 21.2538
#
#
#
# Elastic Compliance Matrix: (Units=1/GPa)
#
#
# Indices 1 2 3 4 5 6 
#
# 1 0.015025 -0.006899 -0.002944 0.000000 0.000000 0.000000
# 2 -0.006899 0.015312 -0.004452 0.000000 0.000000 0.000000
# 3 -0.002944 -0.004452 0.013107 0.000000 0.000000 0.000000
# 4 0.000000 0.000000 0.000000 0.013109 0.000000 0.000000
# 5 0.000000 0.000000 0.000000 0.000000 -0.042338 0.000000
# 6 0.000000 0.000000 0.000000 0.000000 0.000000 0.047050
#
#
# Mechanical properties :
#
#
# Convention : Reuss Voigt Hill
#
# Bulk Modulus (GPa) = 67.33310 67.70904 67.52107
# Shear Modulus (GPa) = 52.73878 25.45897 39.09887
#
# Velocity S-wave (km/s) = 5.27515 3.66513 4.54205
# Velocity P-wave (km/s) = 8.52236 7.32373 7.94568
#
# Compressibility (1/GPa) = 0.01485154
#
# Stress axis : x y z
#
# Youngs Moduli (GPa) = 66.55766 65.30954 76.29728
#
# Poissons Ratio (x) = 0.45059 0.22464
# Poissons Ratio (y) = 0.45921 0.33968
# Poissons Ratio (z) = 0.19596 0.29076
#
# Static dielectric constant tensor:
#      x y z
#    x 1.685040 0.000000 0.000000 
#    y 0.000000 1.635280 0.000000 
#    z 0.000000 0.000000 1.689720 
# 
# From -- ./inp_files/50975.got.cif
#   From: 2010.05.17/outbox.cif.g08.bks.cpg/sg66_26_cif.got.tgz:50975.got - 2010.06.03 17:51:23.
