data_PCOD9497258
_publ_section_title
;
Structure prediction by ZEFSAII (Michael W. Deem and Ramdas Pophale) SiO2 
 PCOD9497258
Probable space group: C C C M
;
_chemical_formula_sum "Si O2"
_cell_formula_units_Z 88
_cell_length_a 12.810952
_cell_length_b 21.474269
_cell_length_c 15.956136
_cell_angle_alpha 90.000000
_cell_angle_beta 90.000000
_cell_angle_gamma 90.000000
_cell_volume 4389.626028
_symmetry_space_group_name_H-M "C C C M"
_symmetry_group_IT_number 66
_symmetry_cell_setting 'orthorhombic'
loop_
_space_group_symop_operation_xyz
x,y,z
-x,-y,z
x,-y,1/2-z
-x,y,1/2-z
-x,-y,-z
x,y,-z
-x,y,1/2+z
x,-y,1/2+z
1/2+x,1/2+y,z
1/2-x,1/2-y,z
1/2+x,1/2-y,1/2-z
1/2-x,1/2+y,1/2-z
1/2-x,1/2-y,-z
1/2+x,1/2+y,-z
1/2-x,1/2+y,1/2+z
1/2+x,1/2-y,1/2+z
loop_
_atom_site_type_symbol
_atom_site_label
_atom_site_fract_x
_atom_site_fract_y
_atom_site_fract_z
Si Si1 0.702666 0.591413 0.685117
Si Si2 0.560709 0.709633 0.661739
Si Si3 0.790348 0.109074 0.500000
Si Si4 0.053619 0.631876 0.500000
Si Si5 0.426232 0.853824 0.168863
Si Si6 0.117340 0.028286 0.144490
Si Si7 0.579323 0.279247 0.500000
O O1 0.643733 0.654220 0.659597
O O2 0.823386 0.607679 0.690768
O O3 0.648952 0.563050 0.769020
O O4 0.686703 0.532649 0.624923
O O5 0.500000 0.704542 0.750000
O O6 0.602751 0.780575 0.656221
O O7 0.483822 0.702453 0.583411
O O8 0.665895 0.097670 0.500000
O O9 0.851516 0.079053 0.422850
O O10 0.814164 0.182577 0.500000
O O11 0.083081 0.705047 0.500000
O O12 0.985775 0.622894 0.415116
O O13 0.500000 0.856266 0.250000
O O14 0.000000 0.000000 0.144667
#
# Coordination Sequence:
#
# PCOD9497258 Si02
#       7
#    16  16   8   8  16  16   8
#     4  11  21  39  59  82 118 160 192 241 303 350
#     4  10  20  36  60  89 118 150 193 248 306 361
#     4  12  22  39  62  87 118 160 198 242 308 364
#     4  10  23  41  59  88 124 154 199 255 290 349
#     4  10  22  39  60  87 117 155 204 247 293 360
#     4  11  24  39  60  90 120 151 198 251 301 366
#     4  10  21  36  61  91 118 152 195 247 306 359
#
# _framework density 20.047267000000002
#
# number of rings (size 3 to 8) (size 9 to 14) (size 15 to 20)
#    0.000    1.455    0.000    6.545    0.000    2.182 
#    0.000   17.273    0.000    0.000    0.000    0.000 
#    0.000    0.000    0.000    0.000    0.000    0.000 
#
# Total GULP energy -245468.789649 kJ/mol
# GULP energy per Si atom -5578.836128 kJ/mol
# Density = 2.000164 g / cm^3
# Si number density = 20.047267 Si / 1000 Ang^3
#
#
#
# Elastic Constant Matrix: (Units=GPa)
#
#
# Indices 1 2 3 4 5 6 
#
# 1 122.4342 62.2729 30.8665 0.0000 0.0000 0.0000
# 2 62.2729 80.0189 14.0360 0.0000 0.0000 0.0000
# 3 30.8665 14.0360 109.5144 0.0000 0.0000 0.0000
# 4 0.0000 0.0000 0.0000 7.2602 0.0000 0.0000
# 5 0.0000 0.0000 0.0000 0.0000 9.9390 0.0000
# 6 0.0000 0.0000 0.0000 0.0000 0.0000 42.8447
#
#
#
# Elastic Compliance Matrix: (Units=1/GPa)
#
#
# Indices 1 2 3 4 5 6 
#
# 1 0.014234 -0.010612 -0.002652 0.000000 0.000000 0.000000
# 2 -0.010612 0.020696 0.000338 0.000000 0.000000 0.000000
# 3 -0.002652 0.000338 0.009835 0.000000 0.000000 0.000000
# 4 0.000000 0.000000 0.000000 0.137738 0.000000 0.000000
# 5 0.000000 0.000000 0.000000 0.000000 0.100614 0.000000
# 6 0.000000 0.000000 0.000000 0.000000 0.000000 0.023340
#
#
# Mechanical properties :
#
#
# Convention : Reuss Voigt Hill
#
# Bulk Modulus (GPa) = 52.86881 58.47981 55.67431
# Shear Modulus (GPa) = 14.76616 25.66158 20.21387
#
# Velocity S-wave (km/s) = 2.71692 3.58167 3.17884
# Velocity P-wave (km/s) = 6.02259 6.80726 6.42691
#
# Compressibility (1/GPa) = 0.01891474
#
# Stress axis : x y z
#
# Youngs Moduli (GPa) = 70.25629 48.31815 101.67557
#
# Poissons Ratio (x) = 0.51275 0.26961
# Poissons Ratio (y) = 0.74555 -0.03441
# Poissons Ratio (z) = 0.18629 -0.01635
#
# Static dielectric constant tensor:
#      x y z
#    x 1.686000 0.000000 0.000000 
#    y 0.000000 1.727310 0.000000 
#    z 0.000000 0.000000 1.755750 
# 
# From -- ./inp_files/38702.got.cif
#   From: 2010.05.17/outbox.cif.g08.bks.cpg/sg66_20_cif.got.tgz:38702.got - 2010.06.03 17:51:23.
