data_PCOD9497616
_publ_section_title
;
Structure prediction by ZEFSAII (Michael W. Deem and Ramdas Pophale) SiO2 
 PCOD9497616
Probable space group: C C C M
;
_chemical_formula_sum "Si O2"
_cell_formula_units_Z 112
_cell_length_a 16.769433
_cell_length_b 24.761267
_cell_length_c 14.428114
_cell_angle_alpha 90.000000
_cell_angle_beta 90.000000
_cell_angle_gamma 90.000000
_cell_volume 5991.020518
_symmetry_space_group_name_H-M "C C C M"
_symmetry_group_IT_number 66
_symmetry_cell_setting 'orthorhombic'
loop_
_space_group_symop_operation_xyz
x,y,z
-x,-y,z
x,-y,1/2-z
-x,y,1/2-z
-x,-y,-z
x,y,-z
-x,y,1/2+z
x,-y,1/2+z
1/2+x,1/2+y,z
1/2-x,1/2-y,z
1/2+x,1/2-y,1/2-z
1/2-x,1/2+y,1/2-z
1/2-x,1/2-y,-z
1/2+x,1/2+y,-z
1/2-x,1/2+y,1/2+z
1/2+x,1/2-y,1/2+z
loop_
_atom_site_type_symbol
_atom_site_label
_atom_site_fract_x
_atom_site_fract_y
_atom_site_fract_z
Si Si1 0.287266 0.697154 0.606272
Si Si2 0.007712 0.438390 0.887781
Si Si3 0.704266 0.560645 0.267821
Si Si4 0.155879 0.260039 0.606709
Si Si5 0.905531 0.163332 0.761695
Si Si6 0.682547 0.093925 0.394558
Si Si7 0.657798 0.114988 0.112282
O O1 0.311164 0.707820 0.500000
O O2 0.250000 0.750000 0.651006
O O3 0.361561 0.677929 0.665474
O O4 0.215134 0.654638 0.604375
O O5 0.092319 0.413061 0.860897
O O6 0.000000 0.500000 0.857631
O O7 0.927587 0.408716 0.859899
O O8 0.007621 0.437560 0.000000
O O9 0.672370 0.500000 0.250000
O O10 0.635758 0.605533 0.284445
O O11 0.754948 0.566758 0.173157
O O12 0.771760 0.578581 0.343590
O O13 0.124578 0.258781 0.500000
O O14 0.250000 0.250000 0.602791
O O15 0.116401 0.212129 0.667071
O O16 0.153242 0.322059 0.642113
O O17 0.000000 0.159156 0.750000
O O18 0.687065 0.072528 0.500000
O O19 0.666603 0.114331 0.000000
#
# Coordination Sequence:
#
# PCOD9497616 Si02
#       7
#    16  16  16  16  16  16  16
#     4   9  19  36  60  83 111 150 188 230 285 349
#     4   9  17  31  52  80 115 149 182 226 280 339
#     4  11  23  38  59  82 109 155 206 244 294 355
#     4  10  20  39  64  88 116 152 195 243 296 357
#     4  11  24  39  59  87 120 153 195 254 301 347
#     4   9  19  35  53  78 113 147 183 231 282 338
#     4  10  21  37  60  88 119 155 195 240 293 354
#
# _framework density 18.694645000000001
#
# number of rings (size 3 to 8) (size 9 to 14) (size 15 to 20)
#    0.000    2.143    1.429    1.286    2.000    4.286 
#    0.000    4.286    0.000    0.000    0.000    6.000 
#    0.000    0.000    0.000    0.000    0.000    0.000 
#
# Total GULP energy -311938.564613 kJ/mol
# GULP energy per Si atom -5570.331511 kJ/mol
# Density = 1.865210 g / cm^3
# Si number density = 18.694645 Si / 1000 Ang^3
#
#
#
# Elastic Constant Matrix: (Units=GPa)
#
#
# Indices 1 2 3 4 5 6 
#
# 1 136.6207 56.2406 21.5249 0.0000 0.0000 0.0000
# 2 56.2406 116.4791 26.6898 0.0000 0.0000 0.0000
# 3 21.5249 26.6898 70.9008 0.0000 0.0000 0.0000
# 4 0.0000 0.0000 0.0000 113.6333 0.0000 0.0000
# 5 0.0000 0.0000 0.0000 0.0000 10.1498 0.0000
# 6 0.0000 0.0000 0.0000 0.0000 0.0000 10.8052
#
#
#
# Elastic Compliance Matrix: (Units=1/GPa)
#
#
# Indices 1 2 3 4 5 6 
#
# 1 0.009232 -0.004176 -0.001231 0.000000 0.000000 0.000000
# 2 -0.004176 0.011284 -0.002980 0.000000 0.000000 0.000000
# 3 -0.001231 -0.002980 0.015600 0.000000 0.000000 0.000000
# 4 0.000000 0.000000 0.000000 0.008800 0.000000 0.000000
# 5 0.000000 0.000000 0.000000 0.000000 0.098525 0.000000
# 6 0.000000 0.000000 0.000000 0.000000 0.000000 0.092548
#
#
# Mechanical properties :
#
#
# Convention : Reuss Voigt Hill
#
# Bulk Modulus (GPa) = 51.69873 59.21234 55.45554
# Shear Modulus (GPa) = 19.28931 41.55400 30.42166
#
# Velocity S-wave (km/s) = 3.21566 4.71975 4.03835
# Velocity P-wave (km/s) = 6.44218 7.83859 7.17444
#
# Compressibility (1/GPa) = 0.01934283
#
# Stress axis : x y z
#
# Youngs Moduli (GPa) = 108.31384 88.61889 64.10349
#
# Poissons Ratio (x) = 0.37005 0.07891
# Poissons Ratio (y) = 0.45229 0.19104
# Poissons Ratio (z) = 0.13333 0.26410
#
# Static dielectric constant tensor:
#      x y z
#    x 1.629420 0.000000 0.000000 
#    y 0.000000 1.760220 0.000000 
#    z 0.000000 0.000000 1.710290 
# 
# From -- ./inp_files/28691.got.cif
#   From: 2010.05.17/outbox.cif.g08.bks.cpg/sg66_15_cif.got.tgz:28691.got - 2010.06.03 17:51:23.
