data_PCOD9497543
_publ_section_title
;
Structure prediction by ZEFSAII (Michael W. Deem and Ramdas Pophale) SiO2 
 PCOD9497543
Probable space group: C C C M
;
_chemical_formula_sum "Si O2"
_cell_formula_units_Z 60
_cell_length_a 6.716963
_cell_length_b 25.025566
_cell_length_c 15.622230
_cell_angle_alpha 90.000000
_cell_angle_beta 90.000000
_cell_angle_gamma 90.000000
_cell_volume 2626.031263
_symmetry_space_group_name_H-M "C C C M"
_symmetry_group_IT_number 66
_symmetry_cell_setting 'orthorhombic'
loop_
_space_group_symop_operation_xyz
x,y,z
-x,-y,z
x,-y,1/2-z
-x,y,1/2-z
-x,-y,-z
x,y,-z
-x,y,1/2+z
x,-y,1/2+z
1/2+x,1/2+y,z
1/2-x,1/2-y,z
1/2+x,1/2-y,1/2-z
1/2-x,1/2+y,1/2-z
1/2-x,1/2-y,-z
1/2+x,1/2+y,-z
1/2-x,1/2+y,1/2+z
1/2+x,1/2-y,1/2+z
loop_
_atom_site_type_symbol
_atom_site_label
_atom_site_fract_x
_atom_site_fract_y
_atom_site_fract_z
Si Si1 0.800649 0.958007 0.000000
Si Si2 0.403829 0.200479 0.500000
Si Si3 0.500000 0.500000 0.750000
Si Si4 0.265850 0.192636 0.145153
Si Si5 0.834540 0.571635 0.178650
Si Si6 0.014266 0.155282 0.500000
O O1 0.648543 0.949820 0.918758
O O2 0.918204 0.902237 0.000000
O O3 0.000000 0.000000 0.000000
O O4 0.250000 0.250000 0.500000
O O5 0.546869 0.198301 0.418785
O O6 0.250142 0.151741 0.500000
O O7 0.363811 0.460305 0.801348
O O8 0.250000 0.250000 0.192602
O O9 0.296197 0.135395 0.188477
O O10 0.073943 0.184849 0.083592
O O11 0.000000 0.558600 0.250000
#
# Coordination Sequence:
#
# PCOD9497543 Si02
#       6
#     8   8   4  16  16   8
#     4  10  21  47  82 111 137 200 260 299 377 471
#     4  11  17  33  65 104 146 192 233 304 371 425
#     4  12  26  54  72  94 156 198 242 316 400 426
#     4  10  20  38  63 102 146 188 244 296 365 458
#     4  11  26  49  76 110 151 193 250 324 375 443
#     4   9  18  33  63 102 145 181 235 304 364 426
#
# _framework density 22.848165999999999
#
# number of rings (size 3 to 8) (size 9 to 14) (size 15 to 20)
#    0.000    1.600    4.000    2.000    0.000    4.267 
#    7.200    4.000    0.000    0.000    0.000    0.000 
#    0.000    0.000    0.000    0.000    0.000    0.000 
#
# Total GULP energy -167018.345397 kJ/mol
# GULP energy per Si atom -5567.278180 kJ/mol
# Density = 2.279616 g / cm^3
# Si number density = 22.848166 Si / 1000 Ang^3
#
#
#
# Elastic Constant Matrix: (Units=GPa)
#
#
# Indices 1 2 3 4 5 6 
#
# 1 104.8836 29.9185 35.7536 0.0000 0.0000 0.0000
# 2 29.9185 196.1468 28.9086 0.0000 0.0000 0.0000
# 3 35.7536 28.9086 98.9871 0.0000 0.0000 0.0000
# 4 0.0000 0.0000 0.0000 15.9399 0.0000 0.0000
# 5 0.0000 0.0000 0.0000 0.0000 6.7343 0.0000
# 6 0.0000 0.0000 0.0000 0.0000 0.0000 59.5901
#
#
#
# Elastic Compliance Matrix: (Units=1/GPa)
#
#
# Indices 1 2 3 4 5 6 
#
# 1 0.011117 -0.001154 -0.003679 0.000000 0.000000 0.000000
# 2 -0.001154 0.005447 -0.001174 0.000000 0.000000 0.000000
# 3 -0.003679 -0.001174 0.011774 0.000000 0.000000 0.000000
# 4 0.000000 0.000000 0.000000 0.062736 0.000000 0.000000
# 5 0.000000 0.000000 0.000000 0.000000 0.148494 0.000000
# 6 0.000000 0.000000 0.000000 0.000000 0.000000 0.016781
#
#
# Mechanical properties :
#
#
# Convention : Reuss Voigt Hill
#
# Bulk Modulus (GPa) = 61.25270 65.46431 63.35851
# Shear Modulus (GPa) = 18.26122 36.81531 27.53827
#
# Velocity S-wave (km/s) = 2.83015 4.01846 3.47547
# Velocity P-wave (km/s) = 6.12752 7.08835 6.62538
#
# Compressibility (1/GPa) = 0.01632581
#
# Stress axis : x y z
#
# Youngs Moduli (GPa) = 89.94857 183.57944 84.93329
#
# Poissons Ratio (x) = 0.21178 0.31244
# Poissons Ratio (y) = 0.10376 0.09973
# Poissons Ratio (z) = 0.33089 0.21555
#
# Static dielectric constant tensor:
#      x y z
#    x 1.813950 0.000000 0.000000 
#    y 0.000000 1.927270 0.000000 
#    z 0.000000 0.000000 2.081080 
# 
# From -- ./inp_files/34909.got.cif
#   From: 2010.05.17/outbox.cif.g08.bks.cpg/sg66_18_cif.got.tgz:34909.got - 2010.06.03 17:51:23.
