data_PCOD9497117
_publ_section_title
;
Structure prediction by ZEFSAII (Michael W. Deem and Ramdas Pophale) SiO2 
 PCOD9497117
Probable space group: C C C M
;
_chemical_formula_sum "Si O2"
_cell_formula_units_Z 80
_cell_length_a 14.763383
_cell_length_b 11.025357
_cell_length_c 24.348495
_cell_angle_alpha 90.000000
_cell_angle_beta 90.000000
_cell_angle_gamma 90.000000
_cell_volume 3963.242712
_symmetry_space_group_name_H-M "C C C M"
_symmetry_group_IT_number 66
_symmetry_cell_setting 'orthorhombic'
loop_
_space_group_symop_operation_xyz
x,y,z
-x,-y,z
x,-y,1/2-z
-x,y,1/2-z
-x,-y,-z
x,y,-z
-x,y,1/2+z
x,-y,1/2+z
1/2+x,1/2+y,z
1/2-x,1/2-y,z
1/2+x,1/2-y,1/2-z
1/2-x,1/2+y,1/2-z
1/2-x,1/2-y,-z
1/2+x,1/2+y,-z
1/2-x,1/2+y,1/2+z
1/2+x,1/2-y,1/2+z
loop_
_atom_site_type_symbol
_atom_site_label
_atom_site_fract_x
_atom_site_fract_y
_atom_site_fract_z
Si Si1 0.478987 0.642386 0.438473
Si Si2 0.894142 0.684259 0.761633
Si Si3 0.847678 0.312359 0.063868
Si Si4 0.175180 0.467490 0.335329
Si Si5 0.175069 0.849767 0.348365
O O1 0.500000 0.500000 0.439240
O O2 0.445917 0.676161 0.500000
O O3 0.570750 0.717431 0.428273
O O4 0.405623 0.659892 0.391293
O O5 0.839035 0.640544 0.708287
O O6 0.878747 0.578965 0.807355
O O7 0.858032 0.806858 0.788565
O O8 0.000000 0.691992 0.750000
O O9 0.750000 0.250000 0.074846
O O10 0.859526 0.421700 0.106286
O O11 0.847639 0.350489 0.000000
O O12 0.275806 0.520800 0.343881
O O13 0.250000 0.750000 0.365271
#
# Coordination Sequence:
#
# PCOD9497117 Si02
#       5
#    16  16  16  16  16
#     4  10  21  39  62  89 122 158 200 248 300 359
#     4  10  21  39  61  84 117 160 206 254 305 359
#     4  10  21  37  61  91 121 157 200 250 307 365
#     4  10  20  35  60  85 115 154 200 249 299 360
#     4  10  22  39  59  88 122 158 200 245 303 363
#
# _framework density 20.185492
#
# number of rings (size 3 to 8) (size 9 to 14) (size 15 to 20)
#    0.000    2.000    0.000    3.600    0.000    8.400 
#    0.000   13.000    0.000   13.200    0.000    0.000 
#    0.000    0.000    0.000    0.000    0.000    0.000 
#
# Total GULP energy -223377.417089 kJ/mol
# GULP energy per Si atom -5584.435427 kJ/mol
# Density = 2.013955 g / cm^3
# Si number density = 20.185492 Si / 1000 Ang^3
#
#
#
# Elastic Constant Matrix: (Units=GPa)
#
#
# Indices 1 2 3 4 5 6 
#
# 1 118.8960 26.9677 67.3696 0.0000 0.0000 0.0000
# 2 26.9677 48.3334 47.4741 0.0000 0.0000 0.0000
# 3 67.3696 47.4741 110.8583 0.0000 0.0000 0.0000
# 4 0.0000 0.0000 0.0000 43.6418 0.0000 0.0000
# 5 0.0000 0.0000 0.0000 0.0000 45.1257 0.0000
# 6 0.0000 0.0000 0.0000 0.0000 0.0000 28.2908
#
#
#
# Elastic Compliance Matrix: (Units=1/GPa)
#
#
# Indices 1 2 3 4 5 6 
#
# 1 0.012849 0.000864 -0.008178 0.000000 0.000000 0.000000
# 2 0.000864 0.035769 -0.015843 0.000000 0.000000 0.000000
# 3 -0.008178 -0.015843 0.020775 0.000000 0.000000 0.000000
# 4 0.000000 0.000000 0.000000 0.022914 0.000000 0.000000
# 5 0.000000 0.000000 0.000000 0.000000 0.022160 0.000000
# 6 0.000000 0.000000 0.000000 0.000000 0.000000 0.035347
#
#
# Mechanical properties :
#
#
# Convention : Reuss Voigt Hill
#
# Bulk Modulus (GPa) = 43.33054 62.41227 52.87141
# Shear Modulus (GPa) = 24.53141 32.49675 28.51408
#
# Velocity S-wave (km/s) = 3.48990 4.01672 3.76254
# Velocity P-wave (km/s) = 6.14426 7.24559 6.71753
#
# Compressibility (1/GPa) = 0.02307841
#
# Stress axis : x y z
#
# Youngs Moduli (GPa) = 77.82828 27.95752 48.13488
#
# Poissons Ratio (x) = -0.02415 0.39366
# Poissons Ratio (y) = -0.06723 0.76258
# Poissons Ratio (z) = 0.63650 0.44292
#
# Static dielectric constant tensor:
#      x y z
#    x 1.718720 0.000000 0.000000 
#    y 0.000000 1.725520 0.000000 
#    z 0.000000 0.000000 1.724090 
# 
# From -- ./inp_files/57890.got.cif
#   From: 2010.05.17/outbox.cif.g08.bks.cpg/sg66_29_cif.got.tgz:57890.got - 2010.06.03 17:51:23.
