data_PCOD9497838
_publ_section_title
;
Structure prediction by ZEFSAII (Michael W. Deem and Ramdas Pophale) SiO2 
 PCOD9497838
Probable space group: C C C M
;
_chemical_formula_sum "Si O2"
_cell_formula_units_Z 88
_cell_length_a 12.037655
_cell_length_b 21.259000
_cell_length_c 14.342963
_cell_angle_alpha 90.000000
_cell_angle_beta 90.000000
_cell_angle_gamma 90.000000
_cell_volume 3670.486257
_symmetry_space_group_name_H-M "C C C M"
_symmetry_group_IT_number 66
_symmetry_cell_setting 'orthorhombic'
loop_
_space_group_symop_operation_xyz
x,y,z
-x,-y,z
x,-y,1/2-z
-x,y,1/2-z
-x,-y,-z
x,y,-z
-x,y,1/2+z
x,-y,1/2+z
1/2+x,1/2+y,z
1/2-x,1/2-y,z
1/2+x,1/2-y,1/2-z
1/2-x,1/2+y,1/2-z
1/2-x,1/2-y,-z
1/2+x,1/2+y,-z
1/2-x,1/2+y,1/2+z
1/2+x,1/2-y,1/2+z
loop_
_atom_site_type_symbol
_atom_site_label
_atom_site_fract_x
_atom_site_fract_y
_atom_site_fract_z
Si Si1 0.455852 0.093820 0.390916
Si Si2 0.250000 0.250000 0.823885
Si Si3 0.832664 0.531188 0.113755
Si Si4 0.886512 0.156947 0.192717
Si Si5 0.996261 0.269638 0.638252
Si Si6 0.879981 0.022795 0.887210
O O1 0.459118 0.078277 0.500000
O O2 0.379829 0.037185 0.355955
O O3 0.438527 0.167619 0.388248
O O4 0.579998 0.082186 0.351547
O O5 0.204653 0.192873 0.757475
O O6 0.136862 0.267026 0.881925
O O7 0.706777 0.530516 0.144712
O O8 0.829128 0.536022 0.000000
O O9 0.849236 0.091883 0.148478
O O10 0.000000 0.142514 0.250000
O O11 0.933425 0.207281 0.116492
O O12 0.000000 0.271681 0.750000
O O13 0.877813 0.026011 0.000000
O O14 0.000000 0.000000 0.858345
#
# Coordination Sequence:
#
# PCOD9497838 Si02
#       6
#    16   8  16  16  16  16
#     4   9  17  33  54  76 103 136 174 213 263 315
#     4   8  18  36  52  70 104 140 168 218 264 310
#     4   8  17  32  51  75 105 138 167 209 264 310
#     4   9  20  36  54  76 105 141 175 208 263 313
#     4   9  19  33  52  75 104 135 172 217 264 307
#     4  10  21  36  55  79 108 138 175 218 258 308
#
# _framework density 23.975024000000001
#
# number of rings (size 3 to 8) (size 9 to 14) (size 15 to 20)
#    0.000    3.455    0.000    1.091    5.091    4.000 
#    0.000    2.727    0.000    0.000    0.000    0.000 
#    0.000    0.000    0.000    0.000    0.000    0.000 
#
# Total GULP energy -245172.215312 kJ/mol
# GULP energy per Si atom -5572.095803 kJ/mol
# Density = 2.392046 g / cm^3
# Si number density = 23.975024 Si / 1000 Ang^3
#
#
#
# Elastic Constant Matrix: (Units=GPa)
#
#
# Indices 1 2 3 4 5 6 
#
# 1 69.9803 -2.0608 -15.0899 0.0000 0.0000 0.0000
# 2 -2.0608 82.2083 -8.4080 0.0000 0.0000 0.0000
# 3 -15.0899 -8.4080 54.8713 0.0000 0.0000 0.0000
# 4 0.0000 0.0000 0.0000 1.5216 0.0000 0.0000
# 5 0.0000 0.0000 0.0000 0.0000 2.4577 0.0000
# 6 0.0000 0.0000 0.0000 0.0000 0.0000 30.9691
#
#
#
# Elastic Compliance Matrix: (Units=1/GPa)
#
#
# Indices 1 2 3 4 5 6 
#
# 1 0.015245 0.000824 0.004319 0.000000 0.000000 0.000000
# 2 0.000824 0.012402 0.002127 0.000000 0.000000 0.000000
# 3 0.004319 0.002127 0.019738 0.000000 0.000000 0.000000
# 4 0.000000 0.000000 0.000000 0.657206 0.000000 0.000000
# 5 0.000000 0.000000 0.000000 0.000000 0.406883 0.000000
# 6 0.000000 0.000000 0.000000 0.000000 0.000000 0.032290
#
#
# Mechanical properties :
#
#
# Convention : Reuss Voigt Hill
#
# Bulk Modulus (GPa) = 16.14855 17.32695 16.73775
# Shear Modulus (GPa) = 4.34832 22.49758 13.42295
#
# Velocity S-wave (km/s) = 1.34819 3.06661 2.36873
# Velocity P-wave (km/s) = 3.02881 4.44765 3.80495
#
# Compressibility (1/GPa) = 0.06192506
#
# Stress axis : x y z
#
# Youngs Moduli (GPa) = 65.59420 80.62943 50.66349
#
# Poissons Ratio (x) = -0.06643 -0.21880
# Poissons Ratio (y) = -0.05404 -0.10776
# Poissons Ratio (z) = -0.28329 -0.17150
#
# Static dielectric constant tensor:
#      x y z
#    x 1.998750 0.000000 0.000000 
#    y 0.000000 1.924540 0.000000 
#    z 0.000000 0.000000 1.943090 
# 
# From -- ./inp_files/48547.got.cif
#   From: 2010.05.17/outbox.cif.g08.bks.cpg/sg66_25_cif.got.tgz:48547.got - 2010.06.03 17:51:23.
