data_PCOD9497018
_publ_section_title
;
Structure prediction by ZEFSAII (Michael W. Deem and Ramdas Pophale) SiO2 
 PCOD9497018
Probable space group: C C C M
;
_chemical_formula_sum "Si O2"
_cell_formula_units_Z 104
_cell_length_a 9.072471
_cell_length_b 23.223607
_cell_length_c 26.586406
_cell_angle_alpha 90.000000
_cell_angle_beta 90.000000
_cell_angle_gamma 90.000000
_cell_volume 5601.636133
_symmetry_space_group_name_H-M "C C C M"
_symmetry_group_IT_number 66
_symmetry_cell_setting 'orthorhombic'
loop_
_space_group_symop_operation_xyz
x,y,z
-x,-y,z
x,-y,1/2-z
-x,y,1/2-z
-x,-y,-z
x,y,-z
-x,y,1/2+z
x,-y,1/2+z
1/2+x,1/2+y,z
1/2-x,1/2-y,z
1/2+x,1/2-y,1/2-z
1/2-x,1/2+y,1/2-z
1/2-x,1/2-y,-z
1/2+x,1/2+y,-z
1/2-x,1/2+y,1/2+z
1/2+x,1/2-y,1/2+z
loop_
_atom_site_type_symbol
_atom_site_label
_atom_site_fract_x
_atom_site_fract_y
_atom_site_fract_z
Si Si1 0.523461 0.401496 0.000000
Si Si2 0.190488 0.083195 0.662212
Si Si3 0.257127 0.494458 0.000000
Si Si4 0.769792 0.814563 0.188527
Si Si5 0.226560 0.468697 0.889333
Si Si6 0.554207 0.360141 0.605465
Si Si7 0.500000 0.393008 0.750000
Si Si8 0.478857 0.908531 0.307944
O O1 0.395568 0.450227 0.000000
O O2 0.672795 0.440700 0.000000
O O3 0.496052 0.361558 0.048186
O O4 0.356473 0.101153 0.672918
O O5 0.095896 0.132854 0.636416
O O6 0.100130 0.069979 0.712755
O O7 0.196856 0.027476 0.627463
O O8 0.176775 0.479576 0.052836
O O9 0.750000 0.750000 0.207208
O O10 0.841647 0.813670 0.132389
O O11 0.618808 0.850596 0.191087
O O12 0.885463 0.852139 0.220667
O O13 0.347936 0.418292 0.888219
O O14 0.106543 0.450629 0.847119
O O15 0.500000 0.928883 0.250000
#
# Coordination Sequence:
#
# PCOD9497018 Si02
#       8
#     8  16   8  16  16  16   8  16
#     4   9  14  30  58  82 115 148 191 240 268 314
#     4  11  20  35  50  79 114 151 181 226 272 338
#     4   9  16  30  56  85 109 158 198 232 268 313
#     4  10  22  40  60  80 105 138 190 244 291 340
#     4  10  20  35  56  81 120 154 193 226 270 334
#     4   9  19  35  55  87 110 147 195 231 270 332
#     4  10  22  36  55  78 102 142 197 224 278 342
#     4  11  23  40  51  79 117 152 183 229 288 345
#
# _framework density 18.566005000000001
#
# number of rings (size 3 to 8) (size 9 to 14) (size 15 to 20)
#    0.000    2.000    3.077    0.923    1.077    1.231 
#    2.769    5.000    0.000    0.000    0.000    1.077 
#    0.000    0.000    0.000    0.000    0.000    0.000 
#
# Total GULP energy -289768.532973 kJ/mol
# GULP energy per Si atom -5572.471788 kJ/mol
# Density = 1.852375 g / cm^3
# Si number density = 18.566005 Si / 1000 Ang^3
#
#
#
# Elastic Constant Matrix: (Units=GPa)
#
#
# Indices 1 2 3 4 5 6 
#
# 1 89.9564 1.6152 24.9536 0.0000 0.0000 0.0000
# 2 1.6152 33.7476 1.7058 0.0000 0.0000 0.0000
# 3 24.9536 1.7058 124.4916 0.0000 0.0000 0.0000
# 4 0.0000 0.0000 0.0000 9.5608 0.0000 0.0000
# 5 0.0000 0.0000 0.0000 0.0000 18.6998 0.0000
# 6 0.0000 0.0000 0.0000 0.0000 0.0000 11.3003
#
#
#
# Elastic Compliance Matrix: (Units=1/GPa)
#
#
# Indices 1 2 3 4 5 6 
#
# 1 0.011778 -0.000445 -0.002355 0.000000 0.000000 0.000000
# 2 -0.000445 0.029669 -0.000317 0.000000 0.000000 0.000000
# 3 -0.002355 -0.000317 0.008509 0.000000 0.000000 0.000000
# 4 0.000000 0.000000 0.000000 0.104594 0.000000 0.000000
# 5 0.000000 0.000000 0.000000 0.000000 0.053476 0.000000
# 6 0.000000 0.000000 0.000000 0.000000 0.000000 0.088493
#
#
# Mechanical properties :
#
#
# Convention : Reuss Voigt Hill
#
# Bulk Modulus (GPa) = 22.87167 33.86055 28.36611
# Shear Modulus (GPa) = 15.75660 22.57357 19.16509
#
# Velocity S-wave (km/s) = 2.91637 3.49069 3.21638
# Velocity P-wave (km/s) = 4.86684 5.87572 5.39492
#
# Compressibility (1/GPa) = 0.04372222
#
# Stress axis : x y z
#
# Youngs Moduli (GPa) = 84.90656 33.70516 117.52259
#
# Poissons Ratio (x) = 0.01499 0.27673
# Poissons Ratio (y) = 0.03775 0.03730
# Poissons Ratio (z) = 0.19993 0.01070
#
# Static dielectric constant tensor:
#      x y z
#    x 1.645430 0.000000 0.000000 
#    y 0.000000 1.604890 0.000000 
#    z 0.000000 0.000000 1.751360 
# 
# From -- ./inp_files/62861.got.cif
#   From: 2010.05.17/outbox.cif.g08.bks.cpg/sg66_32_cif.got.tgz:62861.got - 2010.06.03 17:51:23.
