data_PCOD9497760
_publ_section_title
;
Structure prediction by ZEFSAII (Michael W. Deem and Ramdas Pophale) SiO2 
 PCOD9497760
Probable space group: C C C M
;
_chemical_formula_sum "Si O2"
_cell_formula_units_Z 80
_cell_length_a 5.129156
_cell_length_b 21.633537
_cell_length_c 32.322130
_cell_angle_alpha 90.000000
_cell_angle_beta 90.000000
_cell_angle_gamma 90.000000
_cell_volume 3586.521276
_symmetry_space_group_name_H-M "C C C M"
_symmetry_group_IT_number 66
_symmetry_cell_setting 'orthorhombic'
loop_
_space_group_symop_operation_xyz
x,y,z
-x,-y,z
x,-y,1/2-z
-x,y,1/2-z
-x,-y,-z
x,y,-z
-x,y,1/2+z
x,-y,1/2+z
1/2+x,1/2+y,z
1/2-x,1/2-y,z
1/2+x,1/2-y,1/2-z
1/2-x,1/2+y,1/2-z
1/2-x,1/2-y,-z
1/2+x,1/2+y,-z
1/2-x,1/2+y,1/2+z
1/2+x,1/2-y,1/2+z
loop_
_atom_site_type_symbol
_atom_site_label
_atom_site_fract_x
_atom_site_fract_y
_atom_site_fract_z
Si Si1 0.102130 0.400250 0.653905
Si Si2 0.319020 0.177938 0.086408
Si Si3 0.503825 0.207325 0.000000
Si Si4 0.000000 0.500000 0.590291
Si Si5 0.102027 0.070213 0.047797
Si Si6 0.423435 0.427783 0.797366
O O1 0.975787 0.347644 0.625423
O O2 0.156564 0.458241 0.623198
O O3 0.873650 0.417977 0.687193
O O4 0.375724 0.387665 0.675456
O O5 0.250000 0.250000 0.092002
O O6 0.482392 0.173601 0.043570
O O7 0.074596 0.131189 0.076152
O O8 0.750000 0.250000 0.000000
O O9 0.250000 0.250000 0.000000
O O10 0.896287 0.448247 0.559386
O O11 0.048104 0.084149 0.000000
O O12 0.000000 0.000000 0.056745
O O13 0.500000 0.500000 0.803096
O O14 0.500000 0.413912 0.750000
#
# Coordination Sequence:
#
# PCOD9497760 Si02
#       6
#    16  16   8   8  16  16
#     4  11  23  37  67  94 137 171 222 272 338 397
#     4  10  23  43  64  99 137 183 236 283 333 397
#     4  10  22  44  65  91 131 183 231 279 327 384
#     4  10  21  34  53  88 136 172 218 268 343 385
#     4  10  21  38  61  90 133 182 233 283 340 393
#     4  11  22  41  66 101 137 173 215 273 344 417
#
# _framework density 22.305736
#
# number of rings (size 3 to 8) (size 9 to 14) (size 15 to 20)
#    0.000    1.600    3.000    0.900    5.600    4.800 
#    7.200    0.000    0.000    2.400    0.000    0.000 
#    0.000    0.000    0.000    0.000    0.000    0.000 
#
# Total GULP energy -222778.779758 kJ/mol
# GULP energy per Si atom -5569.469494 kJ/mol
# Density = 2.225497 g / cm^3
# Si number density = 22.305736 Si / 1000 Ang^3
#
#
#
# Elastic Constant Matrix: (Units=GPa)
#
#
# Indices 1 2 3 4 5 6 
#
# 1 72.6223 13.0758 23.1851 0.0000 0.0000 0.0000
# 2 13.0758 135.2355 45.6570 0.0000 0.0000 0.0000
# 3 23.1851 45.6570 108.6955 0.0000 0.0000 0.0000
# 4 0.0000 0.0000 0.0000 25.4265 0.0000 0.0000
# 5 0.0000 0.0000 0.0000 0.0000 18.0136 0.0000
# 6 0.0000 0.0000 0.0000 0.0000 0.0000 22.7966
#
#
#
# Elastic Compliance Matrix: (Units=1/GPa)
#
#
# Indices 1 2 3 4 5 6 
#
# 1 0.014797 -0.000425 -0.002978 0.000000 0.000000 0.000000
# 2 -0.000425 0.008629 -0.003534 0.000000 0.000000 0.000000
# 3 -0.002978 -0.003534 0.011319 0.000000 0.000000 0.000000
# 4 0.000000 0.000000 0.000000 0.039329 0.000000 0.000000
# 5 0.000000 0.000000 0.000000 0.000000 0.055514 0.000000
# 6 0.000000 0.000000 0.000000 0.000000 0.000000 0.043866
#
#
# Mechanical properties :
#
#
# Convention : Reuss Voigt Hill
#
# Bulk Modulus (GPa) = 47.91153 53.37657 50.64405
# Shear Modulus (GPa) = 25.73542 28.88969 27.31255
#
# Velocity S-wave (km/s) = 3.40039 3.60275 3.50303
# Velocity P-wave (km/s) = 6.07807 6.42556 6.25423
#
# Compressibility (1/GPa) = 0.02087180
#
# Stress axis : x y z
#
# Youngs Moduli (GPa) = 67.58090 115.89294 88.34363
#
# Poissons Ratio (x) = 0.04931 0.26305
# Poissons Ratio (y) = 0.02875 0.31218
# Poissons Ratio (z) = 0.20123 0.40953
#
# Static dielectric constant tensor:
#      x y z
#    x 2.171120 0.000000 0.000000 
#    y 0.000000 1.921830 0.000000 
#    z 0.000000 0.000000 1.854090 
# 
# From -- ./inp_files/67237.got.cif
#   From: 2010.05.17/outbox.cif.g08.bks.cpg/sg66_34_cif.got.tgz:67237.got - 2010.06.03 17:51:23.
