data_PCOD9497753
_publ_section_title
;
Structure prediction by ZEFSAII (Michael W. Deem and Ramdas Pophale) SiO2 
 PCOD9497753
Probable space group: C C C M
;
_chemical_formula_sum "Si O2"
_cell_formula_units_Z 72
_cell_length_a 25.285061
_cell_length_b 16.685863
_cell_length_c 9.481105
_cell_angle_alpha 90.000000
_cell_angle_beta 90.000000
_cell_angle_gamma 90.000000
_cell_volume 4000.107248
_symmetry_space_group_name_H-M "C C C M"
_symmetry_group_IT_number 66
_symmetry_cell_setting 'orthorhombic'
loop_
_space_group_symop_operation_xyz
x,y,z
-x,-y,z
x,-y,1/2-z
-x,y,1/2-z
-x,-y,-z
x,y,-z
-x,y,1/2+z
x,-y,1/2+z
1/2+x,1/2+y,z
1/2-x,1/2-y,z
1/2+x,1/2-y,1/2-z
1/2-x,1/2+y,1/2-z
1/2-x,1/2-y,-z
1/2+x,1/2+y,-z
1/2-x,1/2+y,1/2+z
1/2+x,1/2-y,1/2+z
loop_
_atom_site_type_symbol
_atom_site_label
_atom_site_fract_x
_atom_site_fract_y
_atom_site_fract_z
Si Si1 0.713620 0.629102 0.661690
Si Si2 0.551582 0.366840 0.659034
Si Si3 0.630856 0.500000 0.250000
Si Si4 0.856927 0.751360 0.833515
Si Si5 0.817316 0.422939 0.333244
O O1 0.729201 0.644652 0.500000
O O2 0.669387 0.558971 0.664550
O O3 0.686839 0.705463 0.737133
O O4 0.762146 0.599784 0.757371
O O5 0.500000 0.381612 0.750000
O O6 0.534152 0.353539 0.500000
O O7 0.592140 0.441206 0.665361
O O8 0.586930 0.290706 0.705040
O O9 0.853107 0.656243 0.819867
O O10 0.847073 0.771175 0.000000
O O11 0.838381 0.500000 0.250000
O O12 0.809200 0.439542 0.500000
#
# Coordination Sequence:
#
# PCOD9497753 Si02
#       5
#    16  16   8  16  16
#     4  11  21  33  53  80 111 147 185 220 259 319
#     4  10  21  37  56  78 106 142 183 225 272 322
#     4  10  21  34  52  78 118 152 179 214 262 320
#     4   9  21  39  55  74 107 146 179 221 279 328
#     4  11  22  36  55  78 107 143 181 224 273 325
#
# _framework density 17.999517999999998
#
# number of rings (size 3 to 8) (size 9 to 14) (size 15 to 20)
#    0.000    1.778    1.111    3.000    0.000   11.556 
#    0.000    0.000    0.000    0.667    0.000    4.667 
#    0.000    0.000    0.000    0.000    0.000    0.000 
#
# Total GULP energy -200938.296906 kJ/mol
# GULP energy per Si atom -5581.619358 kJ/mol
# Density = 1.795855 g / cm^3
# Si number density = 17.999518 Si / 1000 Ang^3
#
#
#
# Elastic Constant Matrix: (Units=GPa)
#
#
# Indices 1 2 3 4 5 6 
#
# 1 51.8725 22.3590 12.9113 0.0000 0.0000 0.0000
# 2 22.3590 111.3606 36.1747 0.0000 0.0000 0.0000
# 3 12.9113 36.1747 78.0595 0.0000 0.0000 0.0000
# 4 0.0000 0.0000 0.0000 30.6460 0.0000 0.0000
# 5 0.0000 0.0000 0.0000 0.0000 6.0583 0.0000
# 6 0.0000 0.0000 0.0000 0.0000 0.0000 12.7103
#
#
#
# Elastic Compliance Matrix: (Units=1/GPa)
#
#
# Indices 1 2 3 4 5 6 
#
# 1 0.021321 -0.003691 -0.001816 0.000000 0.000000 0.000000
# 2 -0.003691 0.011210 -0.004585 0.000000 0.000000 0.000000
# 3 -0.001816 -0.004585 0.015236 0.000000 0.000000 0.000000
# 4 0.000000 0.000000 0.000000 0.032631 0.000000 0.000000
# 5 0.000000 0.000000 0.000000 0.000000 0.165063 0.000000
# 6 0.000000 0.000000 0.000000 0.000000 0.000000 0.078676
#
#
# Mechanical properties :
#
#
# Convention : Reuss Voigt Hill
#
# Bulk Modulus (GPa) = 36.25326 42.68695 39.47011
# Shear Modulus (GPa) = 14.14368 21.20609 17.67489
#
# Velocity S-wave (km/s) = 2.80622 3.43614 3.13703
# Velocity P-wave (km/s) = 5.53939 6.28568 5.92430
#
# Compressibility (1/GPa) = 0.02758373
#
# Stress axis : x y z
#
# Youngs Moduli (GPa) = 46.90216 89.20482 65.63510
#
# Poissons Ratio (x) = 0.32924 0.11920
# Poissons Ratio (y) = 0.17311 0.30091
# Poissons Ratio (z) = 0.08518 0.40897
#
# Static dielectric constant tensor:
#      x y z
#    x 1.593900 0.000000 0.000000 
#    y 0.000000 1.647350 0.000000 
#    z 0.000000 0.000000 1.620180 
# 
# From -- ./inp_files/5358.got.cif
#   From: 2010.05.17/outbox.cif.g08.bks.cpg/sg66_3_cif.got.tgz:5358.got - 2010.06.03 17:51:23.
