data_PCOD9497772
_publ_section_title
;
Structure prediction by ZEFSAII (Michael W. Deem and Ramdas Pophale) SiO2 
 PCOD9497772
Probable space group: C C C M
;
_chemical_formula_sum "Si O2"
_cell_formula_units_Z 80
_cell_length_a 9.271811
_cell_length_b 17.508710
_cell_length_c 21.604079
_cell_angle_alpha 90.000000
_cell_angle_beta 90.000000
_cell_angle_gamma 90.000000
_cell_volume 3507.151094
_symmetry_space_group_name_H-M "C C C M"
_symmetry_group_IT_number 66
_symmetry_cell_setting 'orthorhombic'
loop_
_space_group_symop_operation_xyz
x,y,z
-x,-y,z
x,-y,1/2-z
-x,y,1/2-z
-x,-y,-z
x,y,-z
-x,y,1/2+z
x,-y,1/2+z
1/2+x,1/2+y,z
1/2-x,1/2-y,z
1/2+x,1/2-y,1/2-z
1/2-x,1/2+y,1/2-z
1/2-x,1/2-y,-z
1/2+x,1/2+y,-z
1/2-x,1/2+y,1/2+z
1/2+x,1/2-y,1/2+z
loop_
_atom_site_type_symbol
_atom_site_label
_atom_site_fract_x
_atom_site_fract_y
_atom_site_fract_z
Si Si1 0.928430 0.823587 0.000000
Si Si2 0.891178 0.398633 0.366028
Si Si3 0.750000 0.750000 0.103704
Si Si4 0.741921 0.127551 0.000000
Si Si5 0.156777 0.981544 0.177885
Si Si6 0.324638 0.053131 0.000000
Si Si7 0.804343 0.333701 0.138634
O O1 0.883234 0.772647 0.940939
O O2 0.088179 0.853858 0.000000
O O3 0.819978 0.895721 0.000000
O O4 0.789827 0.324802 0.359370
O O5 0.796022 0.469383 0.342820
O O6 0.907848 0.420845 0.438507
O O7 0.043021 0.369870 0.339115
O O8 0.686155 0.163397 0.936149
O O9 0.713146 0.036257 0.000000
O O10 0.187533 0.894488 0.161529
O O11 0.146572 0.000000 0.250000
O O12 0.000000 0.000000 0.148670
O O13 0.750000 0.250000 0.157534
#
# Coordination Sequence:
#
# PCOD9497772 Si02
#       7
#     8  16   8   8  16   8  16
#     4   9  19  33  53  94 141 187 224 272 333 402
#     4  11  23  42  71  99 142 185 224 286 348 419
#     4   9  20  36  60  96 136 178 230 275 334 412
#     4  12  22  35  63  99 153 185 224 284 342 424
#     4  11  28  52  73  99 134 178 238 302 357 418
#     4  10  21  34  63 102 136 184 233 270 342 423
#     4  12  27  43  70 109 146 185 234 283 350 424
#
# _framework density 22.810538000000001
#
# number of rings (size 3 to 8) (size 9 to 14) (size 15 to 20)
#    0.000    1.200    2.000    3.600    8.400    2.400 
#    1.800    0.000    0.000    0.000    0.000    0.000 
#    0.000    0.000    0.000    0.000    0.000    0.000 
#
# Total GULP energy -223629.372174 kJ/mol
# GULP energy per Si atom -5590.734304 kJ/mol
# Density = 2.275862 g / cm^3
# Si number density = 22.810538 Si / 1000 Ang^3
#
#
#
# Elastic Constant Matrix: (Units=GPa)
#
#
# Indices 1 2 3 4 5 6 
#
# 1 154.1666 62.9182 7.4318 0.0000 0.0000 0.0000
# 2 62.9182 211.2948 4.8077 0.0000 0.0000 0.0000
# 3 7.4318 4.8077 32.0538 0.0000 0.0000 0.0000
# 4 0.0000 0.0000 0.0000 -55.2595 0.0000 0.0000
# 5 0.0000 0.0000 0.0000 0.0000 -9.4297 0.0000
# 6 0.0000 0.0000 0.0000 0.0000 0.0000 17.9661
#
#
#
# Elastic Compliance Matrix: (Units=1/GPa)
#
#
# Indices 1 2 3 4 5 6 
#
# 1 0.007446 -0.002185 -0.001399 0.000000 0.000000 0.000000
# 2 -0.002185 0.005390 -0.000302 0.000000 0.000000 0.000000
# 3 -0.001399 -0.000302 0.031567 0.000000 0.000000 0.000000
# 4 0.000000 0.000000 0.000000 -0.018096 0.000000 0.000000
# 5 0.000000 0.000000 0.000000 0.000000 -0.106048 0.000000
# 6 0.000000 0.000000 0.000000 0.000000 0.000000 0.055660
#
#
# Mechanical properties :
#
#
# Convention : Reuss Voigt Hill
#
# Bulk Modulus (GPa) = 27.29870 60.87006 44.08438
# Shear Modulus (GPa) = -1219.88072 12.14587 -603.86742
#
# Velocity S-wave (km/s) = -23.15058 2.31003 -16.28823
# Velocity P-wave (km/s) = 26.50670 5.81876 18.28589
#
# Compressibility (1/GPa) = 0.03663178
#
# Stress axis : x y z
#
# Youngs Moduli (GPa) = 134.30417 185.51736 31.67857
#
# Poissons Ratio (x) = 0.40542 0.04430
# Poissons Ratio (y) = 0.29350 0.00956
# Poissons Ratio (z) = 0.18783 0.05599
#
# Static dielectric constant tensor:
#      x y z
#    x 1.902400 0.000000 0.000000 
#    y 0.000000 1.829580 0.000000 
#    z 0.000000 0.000000 1.856190 
# 
# From -- ./inp_files/62488.got.cif
#   From: 2010.05.17/outbox.cif.g08.bks.cpg/sg66_32_cif.got.tgz:62488.got - 2010.06.03 17:51:23.
