data_PCOD9497930
_publ_section_title
;
Structure prediction by ZEFSAII (Michael W. Deem and Ramdas Pophale) SiO2 
 PCOD9497930
Probable space group: C C C M
;
_chemical_formula_sum "Si O2"
_cell_formula_units_Z 96
_cell_length_a 11.507793
_cell_length_b 17.196566
_cell_length_c 26.772967
_cell_angle_alpha 90.000000
_cell_angle_beta 90.000000
_cell_angle_gamma 90.000000
_cell_volume 5298.223503
_symmetry_space_group_name_H-M "C C C M"
_symmetry_group_IT_number 66
_symmetry_cell_setting 'orthorhombic'
loop_
_space_group_symop_operation_xyz
x,y,z
-x,-y,z
x,-y,1/2-z
-x,y,1/2-z
-x,-y,-z
x,y,-z
-x,y,1/2+z
x,-y,1/2+z
1/2+x,1/2+y,z
1/2-x,1/2-y,z
1/2+x,1/2-y,1/2-z
1/2-x,1/2+y,1/2-z
1/2-x,1/2-y,-z
1/2+x,1/2+y,-z
1/2-x,1/2+y,1/2+z
1/2+x,1/2-y,1/2+z
loop_
_atom_site_type_symbol
_atom_site_label
_atom_site_fract_x
_atom_site_fract_y
_atom_site_fract_z
Si Si1 0.633880 0.527044 0.442977
Si Si2 0.270167 0.557116 0.651917
Si Si3 0.185577 0.824955 0.881521
Si Si4 0.106441 0.656471 0.303501
Si Si5 0.154060 0.594080 0.198443
Si Si6 0.032819 0.165902 0.193360
O O1 0.500000 0.500000 0.439774
O O2 0.672466 0.516930 0.500000
O O3 0.704569 0.479149 0.401629
O O4 0.648658 0.615230 0.424293
O O5 0.180794 0.628154 0.650098
O O6 0.207983 0.491144 0.687025
O O7 0.387858 0.595827 0.672833
O O8 0.250000 0.750000 0.903211
O O9 0.284188 0.856844 0.844144
O O10 0.074811 0.819328 0.844265
O O11 0.175592 0.629319 0.253525
O O12 0.090531 0.748562 0.302251
O O13 0.984557 0.609201 0.305405
O O14 0.000000 0.144709 0.250000
#
# Coordination Sequence:
#
# PCOD9497930 Si02
#       6
#    16  16  16  16  16  16
#     4  10  22  43  64  84 112 147 195 259 321 356
#     4  11  23  36  60  87 114 154 206 244 291 355
#     4  11  20  37  62  90 118 153 198 249 295 357
#     4  11  20  38  57  83 128 173 196 229 289 359
#     4  10  21  37  56  85 124 170 197 232 286 355
#     4  12  22  36  57  90 128 162 198 239 292 351
#
# _framework density 18.119281000000001
#
# number of rings (size 3 to 8) (size 9 to 14) (size 15 to 20)
#    0.000    1.167    5.000    2.500    0.000    3.000 
#    0.000    1.667    0.000   11.000    0.000    0.000 
#    0.000    0.000    0.000    0.000    0.000    0.000 
#
# Total GULP energy -267543.435758 kJ/mol
# GULP energy per Si atom -5573.821578 kJ/mol
# Density = 1.807804 g / cm^3
# Si number density = 18.119281 Si / 1000 Ang^3
#
#
#
# Elastic Constant Matrix: (Units=GPa)
#
#
# Indices 1 2 3 4 5 6 
#
# 1 55.6277 32.5866 30.6652 0.0000 0.0000 0.0000
# 2 32.5866 100.8614 58.6681 0.0000 0.0000 0.0000
# 3 30.6652 58.6681 113.0925 0.0000 0.0000 0.0000
# 4 0.0000 0.0000 0.0000 -13.8953 0.0000 0.0000
# 5 0.0000 0.0000 0.0000 0.0000 17.3466 0.0000
# 6 0.0000 0.0000 0.0000 0.0000 0.0000 27.2306
#
#
#
# Elastic Compliance Matrix: (Units=1/GPa)
#
#
# Indices 1 2 3 4 5 6 
#
# 1 0.023061 -0.005461 -0.003420 0.000000 0.000000 0.000000
# 2 -0.005461 0.015493 -0.006556 0.000000 0.000000 0.000000
# 3 -0.003420 -0.006556 0.013171 0.000000 0.000000 0.000000
# 4 0.000000 0.000000 0.000000 -0.071967 0.000000 0.000000
# 5 0.000000 0.000000 0.000000 0.000000 0.057648 0.000000
# 6 0.000000 0.000000 0.000000 0.000000 0.000000 0.036723
#
#
# Mechanical properties :
#
#
# Convention : Reuss Voigt Hill
#
# Bulk Modulus (GPa) = 47.96250 57.04683 52.50466
# Shear Modulus (GPa) = 44.66117 15.98048 30.32083
#
# Velocity S-wave (km/s) = 4.97010 2.97300 4.09516
# Velocity P-wave (km/s) = 7.71128 6.58311 7.16942
#
# Compressibility (1/GPa) = 0.02084962
#
# Stress axis : x y z
#
# Youngs Moduli (GPa) = 43.36289 64.54700 75.92629
#
# Poissons Ratio (x) = 0.35252 0.25966
# Poissons Ratio (y) = 0.23682 0.49778
# Poissons Ratio (z) = 0.14830 0.42318
#
# Static dielectric constant tensor:
#      x y z
#    x 1.688330 0.000000 0.000000 
#    y 0.000000 1.712590 0.000000 
#    z 0.000000 0.000000 1.605060 
# 
# From -- ./inp_files/56952.got.cif
#   From: 2010.05.17/outbox.cif.g08.bks.cpg/sg66_29_cif.got.tgz:56952.got - 2010.06.03 17:51:23.
