data_PCOD9497668
_publ_section_title
;
Structure prediction by ZEFSAII (Michael W. Deem and Ramdas Pophale) SiO2 
 PCOD9497668
Probable space group: C C C M
;
_chemical_formula_sum "Si O2"
_cell_formula_units_Z 96
_cell_length_a 14.574693
_cell_length_b 20.382166
_cell_length_c 16.549464
_cell_angle_alpha 90.000000
_cell_angle_beta 90.000000
_cell_angle_gamma 90.000000
_cell_volume 4916.246864
_symmetry_space_group_name_H-M "C C C M"
_symmetry_group_IT_number 66
_symmetry_cell_setting 'orthorhombic'
loop_
_space_group_symop_operation_xyz
x,y,z
-x,-y,z
x,-y,1/2-z
-x,y,1/2-z
-x,-y,-z
x,y,-z
-x,y,1/2+z
x,-y,1/2+z
1/2+x,1/2+y,z
1/2-x,1/2-y,z
1/2+x,1/2-y,1/2-z
1/2-x,1/2+y,1/2-z
1/2-x,1/2-y,-z
1/2+x,1/2+y,-z
1/2-x,1/2+y,1/2+z
1/2+x,1/2-y,1/2+z
loop_
_atom_site_type_symbol
_atom_site_label
_atom_site_fract_x
_atom_site_fract_y
_atom_site_fract_z
Si Si1 0.076262 0.689980 0.902671
Si Si2 0.927842 0.055630 0.593714
Si Si3 0.456667 0.666294 0.838188
Si Si4 0.764561 0.519922 0.842419
Si Si5 0.767041 0.122478 0.905715
Si Si6 0.950821 0.567589 0.097600
O O1 0.049877 0.757773 0.861518
O O2 0.181084 0.668835 0.885830
O O3 0.010078 0.630351 0.877206
O O4 0.069323 0.697069 0.000000
O O5 0.906724 0.041467 0.500000
O O6 0.834312 0.051801 0.642976
O O7 0.977872 0.124763 0.602985
O O8 0.000000 0.000000 0.621923
O O9 0.500000 0.657542 0.750000
O O10 0.354852 0.636709 0.850515
O O11 0.776120 0.500000 0.750000
O O12 0.765098 0.452431 0.893964
O O13 0.847912 0.565589 0.869692
O O14 0.792491 0.132947 0.000000
O O15 0.000000 0.500000 0.123827
O O16 0.948248 0.567231 0.000000
#
# Coordination Sequence:
#
# PCOD9497668 Si02
#       6
#    16  16  16  16  16  16
#     4  10  22  41  68  96 125 167 216 263 310 375
#     4  11  23  40  65  90 121 167 213 259 310 378
#     4  12  25  40  61  93 135 168 201 262 325 382
#     4  12  24  37  61  97 133 164 204 265 327 378
#     4  11  21  41  70  95 121 162 220 273 310 362
#     4  10  20  40  66  92 124 165 213 260 309 374
#
# _framework density 19.527092
#
# number of rings (size 3 to 8) (size 9 to 14) (size 15 to 20)
#    0.000    1.000    3.333    4.500    0.000    3.000 
#    0.000    2.500    0.000    3.000    0.000    0.000 
#    0.000    0.000    0.000    0.000    0.000    0.000 
#
# Total GULP energy -268476.079300 kJ/mol
# GULP energy per Si atom -5593.251652 kJ/mol
# Density = 1.948265 g / cm^3
# Si number density = 19.527092 Si / 1000 Ang^3
#
#
#
# Elastic Constant Matrix: (Units=GPa)
#
#
# Indices 1 2 3 4 5 6 
#
# 1 121.2703 27.2663 35.0629 0.0000 0.0000 0.0000
# 2 27.2663 67.0301 7.5655 0.0000 0.0000 0.0000
# 3 35.0629 7.5655 46.2374 0.0000 0.0000 0.0000
# 4 0.0000 0.0000 0.0000 -61.8056 0.0000 0.0000
# 5 0.0000 0.0000 0.0000 0.0000 -63.3623 0.0000
# 6 0.0000 0.0000 0.0000 0.0000 0.0000 33.2381
#
#
#
# Elastic Compliance Matrix: (Units=1/GPa)
#
#
# Indices 1 2 3 4 5 6 
#
# 1 0.011411 -0.003734 -0.008042 0.000000 0.000000 0.000000
# 2 -0.003734 0.016421 0.000145 0.000000 0.000000 0.000000
# 3 -0.008042 0.000145 0.027702 0.000000 0.000000 0.000000
# 4 0.000000 0.000000 0.000000 -0.016180 0.000000 0.000000
# 5 0.000000 0.000000 0.000000 0.000000 -0.015782 0.000000
# 6 0.000000 0.000000 0.000000 0.000000 0.000000 0.030086
#
#
# Mechanical properties :
#
#
# Convention : Reuss Voigt Hill
#
# Bulk Modulus (GPa) = 30.98700 41.59190 36.28945
# Shear Modulus (GPa) = 57.02665 -7.40975 24.80845
#
# Velocity S-wave (km/s) = 5.40992 -1.95009 3.56822
# Velocity P-wave (km/s) = 7.41122 4.03428 5.96664
#
# Compressibility (1/GPa) = 0.03227159
#
# Stress axis : x y z
#
# Youngs Moduli (GPa) = 87.63627 60.89681 36.09798
#
# Poissons Ratio (x) = 0.22739 0.29030
# Poissons Ratio (y) = 0.32723 -0.00522
# Poissons Ratio (z) = 0.70478 -0.00881
#
# Static dielectric constant tensor:
#      x y z
#    x 1.671230 0.000000 0.000000 
#    y 0.000000 1.669490 0.000000 
#    z 0.000000 0.000000 1.677450 
# 
# From -- ./inp_files/28385.got.cif
#   From: 2010.05.17/outbox.cif.g08.bks.cpg/sg66_15_cif.got.tgz:28385.got - 2010.06.03 17:51:23.
