data_PCOD9497881
_publ_section_title
;
Structure prediction by ZEFSAII (Michael W. Deem and Ramdas Pophale) SiO2 
 PCOD9497881
Probable space group: C C C M
;
_chemical_formula_sum "Si O2"
_cell_formula_units_Z 64
_cell_length_a 22.462442
_cell_length_b 8.824377
_cell_length_c 13.883146
_cell_angle_alpha 90.000000
_cell_angle_beta 90.000000
_cell_angle_gamma 90.000000
_cell_volume 2751.876336
_symmetry_space_group_name_H-M "C C C M"
_symmetry_group_IT_number 66
_symmetry_cell_setting 'orthorhombic'
loop_
_space_group_symop_operation_xyz
x,y,z
-x,-y,z
x,-y,1/2-z
-x,y,1/2-z
-x,-y,-z
x,y,-z
-x,y,1/2+z
x,-y,1/2+z
1/2+x,1/2+y,z
1/2-x,1/2-y,z
1/2+x,1/2-y,1/2-z
1/2-x,1/2+y,1/2-z
1/2-x,1/2-y,-z
1/2+x,1/2+y,-z
1/2-x,1/2+y,1/2+z
1/2+x,1/2-y,1/2+z
loop_
_atom_site_type_symbol
_atom_site_label
_atom_site_fract_x
_atom_site_fract_y
_atom_site_fract_z
Si Si1 0.831256 0.349923 0.390717
Si Si2 0.609959 0.648306 0.280880
Si Si3 0.729152 0.580788 0.615295
Si Si4 0.938093 0.439985 0.858725
O O1 0.823158 0.284663 0.500000
O O2 0.860115 0.241786 0.308933
O O3 0.771276 0.438095 0.356942
O O4 0.879349 0.484941 0.401076
O O5 0.574088 0.500000 0.250000
O O6 0.663568 0.577411 0.342810
O O7 0.571974 0.762114 0.346633
O O8 0.729342 0.577909 0.500000
O O9 0.750000 0.750000 0.644467
O O10 0.938684 0.500000 0.750000
O O11 0.000000 0.500000 0.900362
#
# Coordination Sequence:
#
# PCOD9497881 Si02
#       4
#    16  16  16  16
#     4  10  22  40  61  91 128 169 215 260 315 385
#     4  11  24  37  64  94 130 170 214 267 322 387
#     4  10  21  36  59  92 130 169 210 256 315 390
#     4   9  19  38  61  86 118 164 217 265 320 378
#
# _framework density 23.256858000000001
#
# number of rings (size 3 to 8) (size 9 to 14) (size 15 to 20)
#    0.000    2.000    2.500    0.000    3.500    1.500 
#    0.000   12.500    0.000    1.500    0.000    0.000 
#    0.000    0.000    0.000    0.000    0.000    0.000 
#
# Total GULP energy -178619.546542 kJ/mol
# GULP energy per Si atom -5581.860829 kJ/mol
# Density = 2.320392 g / cm^3
# Si number density = 23.256858 Si / 1000 Ang^3
#
#
#
# Elastic Constant Matrix: (Units=GPa)
#
#
# Indices 1 2 3 4 5 6 
#
# 1 106.2950 49.4601 7.1462 0.0000 0.0000 0.0000
# 2 49.4601 169.7560 14.6071 0.0000 0.0000 0.0000
# 3 7.1462 14.6071 90.2049 0.0000 0.0000 0.0000
# 4 0.0000 0.0000 0.0000 21.7630 0.0000 0.0000
# 5 0.0000 0.0000 0.0000 0.0000 49.1625 0.0000
# 6 0.0000 0.0000 0.0000 0.0000 0.0000 15.5049
#
#
#
# Elastic Compliance Matrix: (Units=1/GPa)
#
#
# Indices 1 2 3 4 5 6 
#
# 1 0.010894 -0.003144 -0.000354 0.000000 0.000000 0.000000
# 2 -0.003144 0.006881 -0.000865 0.000000 0.000000 0.000000
# 3 -0.000354 -0.000865 0.011254 0.000000 0.000000 0.000000
# 4 0.000000 0.000000 0.000000 0.045950 0.000000 0.000000
# 5 0.000000 0.000000 0.000000 0.000000 0.020341 0.000000
# 6 0.000000 0.000000 0.000000 0.000000 0.000000 0.064496
#
#
# Mechanical properties :
#
#
# Convention : Reuss Voigt Hill
#
# Bulk Modulus (GPa) = 49.25210 56.52026 52.88618
# Shear Modulus (GPa) = 28.52094 36.95555 32.73825
#
# Velocity S-wave (km/s) = 3.50572 3.99057 3.75598
# Velocity P-wave (km/s) = 6.13272 6.75191 6.44975
#
# Compressibility (1/GPa) = 0.02030370
#
# Stress axis : x y z
#
# Youngs Moduli (GPa) = 91.79037 145.32314 88.85705
#
# Poissons Ratio (x) = 0.45686 0.03146
# Poissons Ratio (y) = 0.28856 0.07688
# Poissons Ratio (z) = 0.03249 0.12574
#
# Static dielectric constant tensor:
#      x y z
#    x 1.920940 0.000000 0.000000 
#    y 0.000000 2.008780 0.000000 
#    z 0.000000 0.000000 1.916240 
# 
# From -- ./inp_files/24163.got.cif
#   From: 2010.05.17/outbox.cif.g08.bks.cpg/sg66_13_cif.got.tgz:24163.got - 2010.06.03 17:51:23.
