data_PCOD9497568
_publ_section_title
;
Structure prediction by ZEFSAII (Michael W. Deem and Ramdas Pophale) SiO2 
 PCOD9497568
Probable space group: C C C M
;
_chemical_formula_sum "Si O2"
_cell_formula_units_Z 104
_cell_length_a 9.437767
_cell_length_b 20.726022
_cell_length_c 24.618411
_cell_angle_alpha 90.000000
_cell_angle_beta 90.000000
_cell_angle_gamma 90.000000
_cell_volume 4815.542542
_symmetry_space_group_name_H-M "C C C M"
_symmetry_group_IT_number 66
_symmetry_cell_setting 'orthorhombic'
loop_
_space_group_symop_operation_xyz
x,y,z
-x,-y,z
x,-y,1/2-z
-x,y,1/2-z
-x,-y,-z
x,y,-z
-x,y,1/2+z
x,-y,1/2+z
1/2+x,1/2+y,z
1/2-x,1/2-y,z
1/2+x,1/2-y,1/2-z
1/2-x,1/2+y,1/2-z
1/2-x,1/2-y,-z
1/2+x,1/2+y,-z
1/2-x,1/2+y,1/2+z
1/2+x,1/2-y,1/2+z
loop_
_atom_site_type_symbol
_atom_site_label
_atom_site_fract_x
_atom_site_fract_y
_atom_site_fract_z
Si Si1 0.419045 0.242950 0.057728
Si Si2 0.664291 0.111391 0.250623
Si Si3 0.064073 0.170402 0.357234
Si Si4 0.945611 0.592898 0.062760
Si Si5 0.230070 0.427608 0.627195
Si Si6 0.686465 0.566563 0.856508
Si Si7 0.250000 0.750000 0.228509
O O1 0.250000 0.250000 0.060066
O O2 0.482939 0.278348 0.107872
O O3 0.467188 0.169414 0.059173
O O4 0.464150 0.272366 0.000000
O O5 0.500000 0.097901 0.250000
O O6 0.713017 0.090717 0.190750
O O7 0.262458 0.071838 0.201824
O O8 0.686971 0.188596 0.260415
O O9 0.186932 0.135696 0.392304
O O10 0.132790 0.212100 0.308128
O O11 0.949869 0.112621 0.348193
O O12 0.801030 0.588418 0.097890
O O13 0.081506 0.564262 0.095465
O O14 0.932172 0.569287 0.000000
O O15 0.325929 0.491631 0.627006
#
# Coordination Sequence:
#
# PCOD9497568 Si02
#       7
#    16  16  16  16  16  16   8
#     4  10  20  38  65  95 126 167 224 273 326 397
#     4  11  24  41  67  98 132 176 220 269 326 396
#     4  11  24  43  67  98 134 174 215 278 336 396
#     4  11  24  43  68  99 131 172 224 279 332 390
#     4  11  25  45  62  99 135 175 225 271 326 399
#     4  12  25  41  71  93 133 184 222 267 327 396
#     4  10  26  40  63 100 139 160 222 274 342 400
#
# _framework density 21.596736
#
# number of rings (size 3 to 8) (size 9 to 14) (size 15 to 20)
#    0.000    1.077    3.077    3.231    2.154    4.308 
#    0.000    5.000    0.000    2.769    0.000    0.000 
#    0.000    0.000    0.000    0.000    0.000    0.000 
#
# Total GULP energy -290043.093430 kJ/mol
# GULP energy per Si atom -5577.751797 kJ/mol
# Density = 2.154758 g / cm^3
# Si number density = 21.596736 Si / 1000 Ang^3
#
#
#
# Elastic Constant Matrix: (Units=GPa)
#
#
# Indices 1 2 3 4 5 6 
#
# 1 72.2916 7.6002 16.4924 0.0000 0.0000 0.0000
# 2 7.6002 76.0901 0.7803 0.0000 0.0000 0.0000
# 3 16.4924 0.7803 77.2758 0.0000 0.0000 0.0000
# 4 0.0000 0.0000 0.0000 1033.3609 0.0000 0.0000
# 5 0.0000 0.0000 0.0000 0.0000 -22.1291 0.0000
# 6 0.0000 0.0000 0.0000 0.0000 0.0000 64.6589
#
#
#
# Elastic Compliance Matrix: (Units=1/GPa)
#
#
# Indices 1 2 3 4 5 6 
#
# 1 0.014696 -0.001436 -0.003122 0.000000 0.000000 0.000000
# 2 -0.001436 0.013284 0.000172 0.000000 0.000000 0.000000
# 3 -0.003122 0.000172 0.013605 0.000000 0.000000 0.000000
# 4 0.000000 0.000000 0.000000 0.000968 0.000000 0.000000
# 5 0.000000 0.000000 0.000000 0.000000 -0.045189 0.000000
# 6 0.000000 0.000000 0.000000 0.000000 0.000000 0.015466
#
#
# Mechanical properties :
#
#
# Convention : Reuss Voigt Hill
#
# Bulk Modulus (GPa) = 30.47464 30.60036 30.53750
# Shear Modulus (GPa) = 153.66436 228.56378 191.11407
#
# Velocity S-wave (km/s) = 8.44430 10.29866 9.41723
# Velocity P-wave (km/s) = 10.45066 12.47462 11.50722
#
# Compressibility (1/GPa) = 0.03281417
#
# Stress axis : x y z
#
# Youngs Moduli (GPa) = 68.04545 75.27874 73.50118
#
# Poissons Ratio (x) = 0.10809 0.22947
# Poissons Ratio (y) = 0.09771 -0.01266
# Poissons Ratio (z) = 0.21244 -0.01297
#
# Static dielectric constant tensor:
#      x y z
#    x 1.776220 0.000000 0.000000 
#    y 0.000000 1.841290 0.000000 
#    z 0.000000 0.000000 1.590150 
# 
# From -- ./inp_files/62664.got.cif
#   From: 2010.05.17/outbox.cif.g08.bks.cpg/sg66_32_cif.got.tgz:62664.got - 2010.06.03 17:51:23.
