data_PCOD9497063
_publ_section_title
;
Structure prediction by ZEFSAII (Michael W. Deem and Ramdas Pophale) SiO2 
 PCOD9497063
Probable space group: C C C M
;
_chemical_formula_sum "Si O2"
_cell_formula_units_Z 116
_cell_length_a 19.063604
_cell_length_b 17.939503
_cell_length_c 18.226833
_cell_angle_alpha 90.000000
_cell_angle_beta 90.000000
_cell_angle_gamma 90.000000
_cell_volume 6233.423437
_symmetry_space_group_name_H-M "C C C M"
_symmetry_group_IT_number 66
_symmetry_cell_setting 'orthorhombic'
loop_
_space_group_symop_operation_xyz
x,y,z
-x,-y,z
x,-y,1/2-z
-x,y,1/2-z
-x,-y,-z
x,y,-z
-x,y,1/2+z
x,-y,1/2+z
1/2+x,1/2+y,z
1/2-x,1/2-y,z
1/2+x,1/2-y,1/2-z
1/2-x,1/2+y,1/2-z
1/2-x,1/2-y,-z
1/2+x,1/2+y,-z
1/2-x,1/2+y,1/2+z
1/2+x,1/2-y,1/2+z
loop_
_atom_site_type_symbol
_atom_site_label
_atom_site_fract_x
_atom_site_fract_y
_atom_site_fract_z
Si Si1 0.759124 0.950914 0.185547
Si Si2 0.500000 0.500000 0.750000
Si Si3 0.686831 0.579507 0.587467
Si Si4 0.198754 0.678881 0.412697
Si Si5 0.105033 0.878034 0.297284
Si Si6 0.086844 0.791714 0.154556
Si Si7 0.810380 0.312613 0.082080
Si Si8 0.566365 0.274742 0.586156
O O1 0.715565 0.892835 0.136986
O O2 0.818368 0.903110 0.227292
O O3 0.723676 0.000000 0.250000
O O4 0.806016 0.003131 0.131837
O O5 0.449664 0.554573 0.705308
O O6 0.677159 0.569834 0.500000
O O7 0.627217 0.637859 0.615385
O O8 0.764620 0.615178 0.598893
O O9 0.208232 0.663345 0.500000
O O10 0.250000 0.750000 0.395478
O O11 0.118678 0.705733 0.400424
O O12 0.082417 0.815381 0.238983
O O13 0.106579 0.844088 0.377563
O O14 0.133840 0.718968 0.138914
O O15 0.010450 0.776541 0.121683
O O16 0.750000 0.250000 0.078178
O O17 0.841987 0.318242 0.000000
O O18 0.558814 0.283373 0.500000
#
# Coordination Sequence:
#
# PCOD9497063 Si02
#       8
#    16   4  16  16  16  16  16  16
#     4  12  23  38  56  88 119 160 202 248 306 365
#     4  12  20  40  50  76 132 156 180 230 312 376
#     4  10  20  35  57  87 120 154 191 241 304 363
#     4  10  22  41  62  83 119 164 214 259 290 351
#     4  12  23  36  56  80 120 158 193 243 299 356
#     4  11  19  37  59  88 121 152 194 246 301 367
#     4   8  16  31  54  85 118 145 184 242 296 352
#     4  11  23  39  60  85 113 160 209 245 290 349
#
# _framework density 18.609356999999999
#
# number of rings (size 3 to 8) (size 9 to 14) (size 15 to 20)
#    0.000    1.379    4.828    2.483    0.000    1.655 
#    2.483    0.345    0.000    0.828    0.000    4.828 
#    0.000    0.000    0.000    0.000    0.000    0.000 
#
# Total GULP energy -323378.017821 kJ/mol
# GULP energy per Si atom -5575.483066 kJ/mol
# Density = 1.856700 g / cm^3
# Si number density = 18.609357 Si / 1000 Ang^3
#
#
#
# Elastic Constant Matrix: (Units=GPa)
#
#
# Indices 1 2 3 4 5 6 
#
# 1 78.3412 41.0705 43.8461 0.0000 0.0000 0.0000
# 2 41.0705 57.9997 40.6601 0.0000 0.0000 0.0000
# 3 43.8461 40.6601 66.7612 0.0000 0.0000 0.0000
# 4 0.0000 0.0000 0.0000 26.7117 0.0000 0.0000
# 5 0.0000 0.0000 0.0000 0.0000 23.4611 0.0000
# 6 0.0000 0.0000 0.0000 0.0000 0.0000 30.4755
#
#
#
# Elastic Compliance Matrix: (Units=1/GPa)
#
#
# Indices 1 2 3 4 5 6 
#
# 1 0.023076 -0.009975 -0.009081 0.000000 0.000000 0.000000
# 2 -0.009975 0.034399 -0.014399 0.000000 0.000000 0.000000
# 3 -0.009081 -0.014399 0.029712 0.000000 0.000000 0.000000
# 4 0.000000 0.000000 0.000000 0.037437 0.000000 0.000000
# 5 0.000000 0.000000 0.000000 0.000000 0.042624 0.000000
# 6 0.000000 0.000000 0.000000 0.000000 0.000000 0.032813
#
#
# Mechanical properties :
#
#
# Convention : Reuss Voigt Hill
#
# Bulk Modulus (GPa) = 49.31374 50.47283 49.89329
# Shear Modulus (GPa) = 18.26615 21.29803 19.78209
#
# Velocity S-wave (km/s) = 3.13638 3.38669 3.26393
# Velocity P-wave (km/s) = 6.29864 6.51721 6.40885
#
# Compressibility (1/GPa) = 0.02027832
#
# Stress axis : x y z
#
# Youngs Moduli (GPa) = 43.33473 29.07034 33.65613
#
# Poissons Ratio (x) = 0.28997 0.30561
# Poissons Ratio (y) = 0.43226 0.48463
# Poissons Ratio (z) = 0.39350 0.41860
#
# Static dielectric constant tensor:
#      x y z
#    x 1.688430 0.000000 0.000000 
#    y 0.000000 1.686960 0.000000 
#    z 0.000000 0.000000 1.664390 
# 
# From -- ./inp_files/41840.got.cif
#   From: 2010.05.17/outbox.cif.g08.bks.cpg/sg66_21_cif.got.tgz:41840.got - 2010.06.03 17:51:23.
