data_PCOD9497843
_publ_section_title
;
Structure prediction by ZEFSAII (Michael W. Deem and Ramdas Pophale) SiO2 
 PCOD9497843
Probable space group: C C C M
;
_chemical_formula_sum "Si O2"
_cell_formula_units_Z 112
_cell_length_a 14.570911
_cell_length_b 14.241504
_cell_length_c 24.432473
_cell_angle_alpha 90.000000
_cell_angle_beta 90.000000
_cell_angle_gamma 90.000000
_cell_volume 5070.023697
_symmetry_space_group_name_H-M "C C C M"
_symmetry_group_IT_number 66
_symmetry_cell_setting 'orthorhombic'
loop_
_space_group_symop_operation_xyz
x,y,z
-x,-y,z
x,-y,1/2-z
-x,y,1/2-z
-x,-y,-z
x,y,-z
-x,y,1/2+z
x,-y,1/2+z
1/2+x,1/2+y,z
1/2-x,1/2-y,z
1/2+x,1/2-y,1/2-z
1/2-x,1/2+y,1/2-z
1/2-x,1/2-y,-z
1/2+x,1/2+y,-z
1/2-x,1/2+y,1/2+z
1/2+x,1/2-y,1/2+z
loop_
_atom_site_type_symbol
_atom_site_label
_atom_site_fract_x
_atom_site_fract_y
_atom_site_fract_z
Si Si1 0.632076 0.093446 0.649334
Si Si2 0.950324 0.395365 0.809714
Si Si3 0.270889 0.400414 0.764898
Si Si4 0.565659 0.589159 0.847850
Si Si5 0.604526 0.699682 0.677329
Si Si6 0.213244 0.940775 0.563761
Si Si7 0.678103 0.663230 0.439935
O O1 0.530815 0.136055 0.648063
O O2 0.693336 0.144380 0.696108
O O3 0.600390 0.987281 0.667308
O O4 0.695616 0.091209 0.596301
O O5 0.883612 0.308062 0.807991
O O6 0.000000 0.404352 0.750000
O O7 0.227149 0.500000 0.750000
O O8 0.353299 0.428882 0.805322
O O9 0.320506 0.352941 0.714062
O O10 0.500000 0.500000 0.855344
O O11 0.500209 0.664366 0.817348
O O12 0.623681 0.600142 0.904222
O O13 0.619373 0.681328 0.613418
O O14 0.213211 0.914863 0.500000
O O15 0.213421 0.055649 0.566591
O O16 0.632359 0.665722 0.500000
O O17 0.750000 0.750000 0.439813
#
# Coordination Sequence:
#
# PCOD9497843 Si02
#       7
#    16  16  16  16  16  16  16
#     4  10  22  42  63  87 121 166 207 259 322 371
#     4  11  23  41  62  89 125 166 208 260 314 387
#     4  11  20  34  59  83 121 156 194 246 309 370
#     4  11  20  35  55  87 123 160 191 246 315 373
#     4  12  23  37  59  90 124 162 208 252 309 383
#     4  10  21  39  63  89 118 162 215 260 313 383
#     4  10  21  36  55  82 117 152 198 261 313 363
#
# _framework density 22.090626
#
# number of rings (size 3 to 8) (size 9 to 14) (size 15 to 20)
#    0.000    1.286    2.857    4.714    0.000    2.000 
#    0.000    9.286    0.000    0.857    0.000    0.000 
#    0.000    0.000    0.000    0.000    0.000    0.000 
#
# Total GULP energy -312279.378621 kJ/mol
# GULP energy per Si atom -5576.417475 kJ/mol
# Density = 2.204035 g / cm^3
# Si number density = 22.090626 Si / 1000 Ang^3
#
#
#
# Elastic Constant Matrix: (Units=GPa)
#
#
# Indices 1 2 3 4 5 6 
#
# 1 107.9343 -10.3213 38.1856 0.0000 0.0000 0.0000
# 2 -10.3213 53.3320 -0.3023 0.0000 0.0000 0.0000
# 3 38.1856 -0.3023 133.6973 0.0000 0.0000 0.0000
# 4 0.0000 0.0000 0.0000 11.6099 0.0000 0.0000
# 5 0.0000 0.0000 0.0000 0.0000 24.6328 0.0000
# 6 0.0000 0.0000 0.0000 0.0000 0.0000 6.2029
#
#
#
# Elastic Compliance Matrix: (Units=1/GPa)
#
#
# Indices 1 2 3 4 5 6 
#
# 1 0.010519 0.002019 -0.003000 0.000000 0.000000 0.000000
# 2 0.002019 0.019138 -0.000533 0.000000 0.000000 0.000000
# 3 -0.003000 -0.000533 0.008335 0.000000 0.000000 0.000000
# 4 0.000000 0.000000 0.000000 0.086133 0.000000 0.000000
# 5 0.000000 0.000000 0.000000 0.000000 0.040596 0.000000
# 6 0.000000 0.000000 0.000000 0.000000 0.000000 0.161216
#
#
# Mechanical properties :
#
#
# Convention : Reuss Voigt Hill
#
# Bulk Modulus (GPa) = 28.60106 38.89864 33.74985
# Shear Modulus (GPa) = 14.67906 26.31589 20.49747
#
# Velocity S-wave (km/s) = 2.58057 3.45522 3.04942
# Velocity P-wave (km/s) = 4.67487 5.79353 5.26400
#
# Compressibility (1/GPa) = 0.03496374
#
# Stress axis : x y z
#
# Youngs Moduli (GPa) = 95.06381 52.25171 119.97346
#
# Poissons Ratio (x) = -0.10548 0.35990
# Poissons Ratio (y) = -0.19191 0.06398
# Poissons Ratio (z) = 0.28518 0.02787
#
# Static dielectric constant tensor:
#      x y z
#    x 1.882800 0.000000 0.000000 
#    y 0.000000 1.927280 0.000000 
#    z 0.000000 0.000000 1.795080 
# 
# From -- ./inp_files/58233.got.cif
#   From: 2010.05.17/outbox.cif.g08.bks.cpg/sg66_30_cif.got.tgz:58233.got - 2010.06.03 17:51:23.
