data_PCOD9497920
_publ_section_title
;
Structure prediction by ZEFSAII (Michael W. Deem and Ramdas Pophale) SiO2 
 PCOD9497920
Probable space group: C C C M
;
_chemical_formula_sum "Si O2"
_cell_formula_units_Z 80
_cell_length_a 14.012166
_cell_length_b 11.105450
_cell_length_c 24.021496
_cell_angle_alpha 90.000000
_cell_angle_beta 90.000000
_cell_angle_gamma 90.000000
_cell_volume 3738.018837
_symmetry_space_group_name_H-M "C C C M"
_symmetry_group_IT_number 66
_symmetry_cell_setting 'orthorhombic'
loop_
_space_group_symop_operation_xyz
x,y,z
-x,-y,z
x,-y,1/2-z
-x,y,1/2-z
-x,-y,-z
x,y,-z
-x,y,1/2+z
x,-y,1/2+z
1/2+x,1/2+y,z
1/2-x,1/2-y,z
1/2+x,1/2-y,1/2-z
1/2-x,1/2+y,1/2-z
1/2-x,1/2-y,-z
1/2+x,1/2+y,-z
1/2-x,1/2+y,1/2+z
1/2+x,1/2-y,1/2+z
loop_
_atom_site_type_symbol
_atom_site_label
_atom_site_fract_x
_atom_site_fract_y
_atom_site_fract_z
Si Si1 0.390158 0.876747 0.270122
Si Si2 0.599616 0.181007 0.500000
Si Si3 0.298209 0.444106 0.000000
Si Si4 0.111143 0.977096 0.612685
Si Si5 0.350616 0.704511 0.824434
Si Si6 0.951146 0.712591 0.878917
O O1 0.500000 0.880994 0.250000
O O2 0.354508 0.757427 0.238318
O O3 0.396542 0.874291 0.336430
O O4 0.341778 0.000000 0.250000
O O5 0.643717 0.316728 0.500000
O O6 0.687961 0.090083 0.500000
O O7 0.544434 0.169834 0.557847
O O8 0.328789 0.506553 0.942571
O O9 0.111363 0.835360 0.624527
O O10 0.139467 0.062622 0.663812
O O11 0.000000 0.000000 0.598881
O O12 0.250000 0.750000 0.847874
O O13 0.443220 0.759925 0.855640
#
# Coordination Sequence:
#
# PCOD9497920 Si02
#       6
#    16   8   8  16  16  16
#     4   9  19  38  60  78 110 157 191 234 295 355
#     4   9  18  34  58  91 113 153 204 244 288 347
#     4   9  17  32  54  87 120 149 200 243 282 344
#     4   9  18  34  58  84 119 156 188 239 298 352
#     4  10  21  37  55  87 119 152 195 239 297 366
#     4   9  19  38  63  84 116 154 197 247 299 349
#
# _framework density 21.401710999999999
#
# number of rings (size 3 to 8) (size 9 to 14) (size 15 to 20)
#    0.000    2.800    0.000    0.300    0.000    4.800 
#   10.800    6.000    0.000   12.000    0.000    0.000 
#    0.000    0.000    0.000    0.000    0.000    0.000 
#
# Total GULP energy -222939.722111 kJ/mol
# GULP energy per Si atom -5573.493053 kJ/mol
# Density = 2.135300 g / cm^3
# Si number density = 21.401711 Si / 1000 Ang^3
#
#
#
# Elastic Constant Matrix: (Units=GPa)
#
#
# Indices 1 2 3 4 5 6 
#
# 1 47.3900 2.5969 20.4251 0.0000 0.0000 0.0000
# 2 2.5969 52.3274 36.5928 0.0000 0.0000 0.0000
# 3 20.4251 36.5928 151.4175 0.0000 0.0000 0.0000
# 4 0.0000 0.0000 0.0000 12.1375 0.0000 0.0000
# 5 0.0000 0.0000 0.0000 0.0000 12.2869 0.0000
# 6 0.0000 0.0000 0.0000 0.0000 0.0000 6.2897
#
#
#
# Elastic Compliance Matrix: (Units=1/GPa)
#
#
# Indices 1 2 3 4 5 6 
#
# 1 0.022467 0.001209 -0.003323 0.000000 0.000000 0.000000
# 2 0.001209 0.023062 -0.005736 0.000000 0.000000 0.000000
# 3 -0.003323 -0.005736 0.008439 0.000000 0.000000 0.000000
# 4 0.000000 0.000000 0.000000 0.082389 0.000000 0.000000
# 5 0.000000 0.000000 0.000000 0.000000 0.081388 0.000000
# 6 0.000000 0.000000 0.000000 0.000000 0.000000 0.158990
#
#
# Mechanical properties :
#
#
# Convention : Reuss Voigt Hill
#
# Bulk Modulus (GPa) = 26.13211 41.15160 33.64186
# Shear Modulus (GPa) = 12.33983 18.91081 15.62532
#
# Velocity S-wave (km/s) = 2.40382 2.97579 2.70496
# Velocity P-wave (km/s) = 4.46556 5.57467 5.05066
#
# Compressibility (1/GPa) = 0.03826709
#
# Stress axis : x y z
#
# Youngs Moduli (GPa) = 44.50892 43.36145 118.50055
#
# Poissons Ratio (x) = -0.05241 0.39375
# Poissons Ratio (y) = -0.05380 0.67976
# Poissons Ratio (z) = 0.14789 0.24874
#
# Static dielectric constant tensor:
#      x y z
#    x 1.778000 0.000000 0.000000 
#    y 0.000000 1.879180 0.000000 
#    z 0.000000 0.000000 1.788420 
# 
# From -- ./inp_files/57952.got.cif
#   From: 2010.05.17/outbox.cif.g08.bks.cpg/sg66_29_cif.got.tgz:57952.got - 2010.06.03 17:51:23.
