data_PCOD9497473
_publ_section_title
;
Structure prediction by ZEFSAII (Michael W. Deem and Ramdas Pophale) SiO2 
 PCOD9497473
Probable space group: C C C M
;
_chemical_formula_sum "Si O2"
_cell_formula_units_Z 52
_cell_length_a 19.261447
_cell_length_b 7.464139
_cell_length_c 13.490777
_cell_angle_alpha 90.000000
_cell_angle_beta 90.000000
_cell_angle_gamma 90.000000
_cell_volume 1939.570598
_symmetry_space_group_name_H-M "C C C M"
_symmetry_group_IT_number 66
_symmetry_cell_setting 'orthorhombic'
loop_
_space_group_symop_operation_xyz
x,y,z
-x,-y,z
x,-y,1/2-z
-x,y,1/2-z
-x,-y,-z
x,y,-z
-x,y,1/2+z
x,-y,1/2+z
1/2+x,1/2+y,z
1/2-x,1/2-y,z
1/2+x,1/2-y,1/2-z
1/2-x,1/2+y,1/2-z
1/2-x,1/2-y,-z
1/2+x,1/2+y,-z
1/2-x,1/2+y,1/2+z
1/2+x,1/2-y,1/2+z
loop_
_atom_site_type_symbol
_atom_site_label
_atom_site_fract_x
_atom_site_fract_y
_atom_site_fract_z
Si Si1 0.149138 0.821850 0.113372
Si Si2 0.509640 0.787052 0.892433
Si Si3 0.843347 0.232060 0.323434
Si Si4 0.250000 0.250000 0.000000
O O1 0.176494 0.718848 0.210739
O O2 0.065420 0.801298 0.114719
O O3 0.166660 0.026462 0.140362
O O4 0.170948 0.781667 0.000000
O O5 0.573211 0.750356 0.821408
O O6 0.500000 0.000000 0.890612
O O7 0.538067 0.731632 0.000000
O O8 0.802716 0.328825 0.411408
#
# Coordination Sequence:
#
# PCOD9497473 Si02
#       4
#    16  16  16   4
#     4  10  21  40  67  97 127 161 218 277 324 377
#     4  10  20  37  66 101 135 161 205 276 340 383
#     4  11  22  40  68  94 129 173 218 262 318 390
#     4  12  24  44  66  90 126 184 222 254 306 394
#
# _framework density 26.810055999999999
#
# number of rings (size 3 to 8) (size 9 to 14) (size 15 to 20)
#    0.000    1.538    3.077    1.846    0.000    7.385 
#    0.000    6.923    0.000    0.000    0.000    0.000 
#    0.000    0.000    0.000    0.000    0.000    0.000 
#
# Total GULP energy -144749.910574 kJ/mol
# GULP energy per Si atom -5567.304253 kJ/mol
# Density = 2.674903 g / cm^3
# Si number density = 26.810056 Si / 1000 Ang^3
#
#
#
# Elastic Constant Matrix: (Units=GPa)
#
#
# Indices 1 2 3 4 5 6 
#
# 1 167.3916 6.9655 40.6157 0.0000 0.0000 0.0000
# 2 6.9655 63.4266 21.0870 0.0000 0.0000 0.0000
# 3 40.6157 21.0870 348.6377 0.0000 0.0000 0.0000
# 4 0.0000 0.0000 0.0000 13.5614 0.0000 0.0000
# 5 0.0000 0.0000 0.0000 0.0000 -34.6890 0.0000
# 6 0.0000 0.0000 0.0000 0.0000 0.0000 12.3392
#
#
#
# Elastic Compliance Matrix: (Units=1/GPa)
#
#
# Indices 1 2 3 4 5 6 
#
# 1 0.006160 -0.000447 -0.000691 0.000000 0.000000 0.000000
# 2 -0.000447 0.016122 -0.000923 0.000000 0.000000 0.000000
# 3 -0.000691 -0.000923 0.003005 0.000000 0.000000 0.000000
# 4 0.000000 0.000000 0.000000 0.073739 0.000000 0.000000
# 5 0.000000 0.000000 0.000000 0.000000 -0.028828 0.000000
# 6 0.000000 0.000000 0.000000 0.000000 0.000000 0.081043
#
#
# Mechanical properties :
#
#
# Convention : Reuss Voigt Hill
#
# Bulk Modulus (GPa) = 47.24603 79.64361 63.44482
# Shear Modulus (GPa) = 30.78487 32.29481 31.53984
#
# Velocity S-wave (km/s) = 3.39227 3.47447 3.43362
# Velocity P-wave (km/s) = 5.74492 6.77252 6.27977
#
# Compressibility (1/GPa) = 0.02116580
#
# Stress axis : x y z
#
# Youngs Moduli (GPa) = 162.33278 62.02620 332.82356
#
# Poissons Ratio (x) = 0.02772 0.22986
# Poissons Ratio (y) = 0.07255 0.30722
# Poissons Ratio (z) = 0.11211 0.05725
#
# Static dielectric constant tensor:
#      x y z
#    x 2.100390 0.000000 0.000000 
#    y 0.000000 2.135940 0.000000 
#    z 0.000000 0.000000 2.205360 
# 
# From -- ./inp_files/23725.got.cif
#   From: 2010.05.17/outbox.cif.g08.bks.cpg/sg66_12_cif.got.tgz:23725.got - 2010.06.03 17:51:23.
