data_PCOD9497083
_publ_section_title
;
Structure prediction by ZEFSAII (Michael W. Deem and Ramdas Pophale) SiO2 
 PCOD9497083
Probable space group: C C C M
;
_chemical_formula_sum "Si O2"
_cell_formula_units_Z 116
_cell_length_a 25.239236
_cell_length_b 27.380056
_cell_length_c 9.060697
_cell_angle_alpha 90.000000
_cell_angle_beta 90.000000
_cell_angle_gamma 90.000000
_cell_volume 6261.410020
_symmetry_space_group_name_H-M "C C C M"
_symmetry_group_IT_number 66
_symmetry_cell_setting 'orthorhombic'
loop_
_space_group_symop_operation_xyz
x,y,z
-x,-y,z
x,-y,1/2-z
-x,y,1/2-z
-x,-y,-z
x,y,-z
-x,y,1/2+z
x,-y,1/2+z
1/2+x,1/2+y,z
1/2-x,1/2-y,z
1/2+x,1/2-y,1/2-z
1/2-x,1/2+y,1/2-z
1/2-x,1/2-y,-z
1/2+x,1/2+y,-z
1/2-x,1/2+y,1/2+z
1/2+x,1/2-y,1/2+z
loop_
_atom_site_type_symbol
_atom_site_label
_atom_site_fract_x
_atom_site_fract_y
_atom_site_fract_z
Si Si1 0.000000 0.000000 0.750000
Si Si2 0.556784 0.320747 0.824180
Si Si3 0.057913 0.285432 0.677061
Si Si4 0.197400 0.100674 0.822966
Si Si5 0.855269 0.650042 0.176595
Si Si6 0.251291 0.691588 0.822526
Si Si7 0.691386 0.949471 0.174555
Si Si8 0.904008 0.073076 0.171585
O O1 0.955854 0.961951 0.683435
O O2 0.500000 0.318638 0.750000
O O3 0.583030 0.268505 0.791763
O O4 0.581221 0.371942 0.779322
O O5 0.550584 0.323194 0.000000
O O6 0.054444 0.290893 0.500000
O O7 0.094056 0.325549 0.751788
O O8 0.000000 0.286649 0.750000
O O9 0.204282 0.154716 0.747467
O O10 0.251350 0.072356 0.781707
O O11 0.148530 0.066687 0.769333
O O12 0.195112 0.107091 0.000000
O O13 0.803578 0.672810 0.253258
O O14 0.851286 0.592431 0.205475
O O15 0.852874 0.657890 0.000000
O O16 0.250000 0.750000 0.791949
O O17 0.253486 0.685725 0.000000
O O18 0.680124 0.000000 0.250000
O O19 0.693819 0.956603 0.000000
O O20 0.888489 0.073026 0.000000
#
# Coordination Sequence:
#
# PCOD9497083 Si02
#       8
#     4  16  16  16  16  16  16  16
#     4  12  26  44  64  86 110 156 212 270 326 376
#     4   9  19  36  55  77 107 142 186 236 286 345
#     4  10  20  35  58  87 119 157 197 237 286 347
#     4  10  23  40  58  85 116 151 195 243 299 363
#     4  10  21  37  57  86 121 154 191 238 291 349
#     4  10  21  37  58  86 120 156 195 240 295 358
#     4   9  20  38  59  84 114 147 188 234 284 345
#     4  11  24  41  60  82 111 149 196 254 312 365
#
# _framework density 18.526178999999999
#
# number of rings (size 3 to 8) (size 9 to 14) (size 15 to 20)
#    0.000    2.069    0.690    2.690    2.897    6.621 
#    0.000    0.000    0.000    0.414    0.000    2.897 
#    0.000    0.000    0.000    0.000    0.000    0.000 
#
# Total GULP energy -323037.636485 kJ/mol
# GULP energy per Si atom -5569.614422 kJ/mol
# Density = 1.848401 g / cm^3
# Si number density = 18.526179 Si / 1000 Ang^3
#
#
#
# Elastic Constant Matrix: (Units=GPa)
#
#
# Indices 1 2 3 4 5 6 
#
# 1 66.3445 40.4282 24.6389 0.0000 0.0000 0.0000
# 2 40.4282 127.3824 51.2326 0.0000 0.0000 0.0000
# 3 24.6389 51.2326 48.7774 0.0000 0.0000 0.0000
# 4 0.0000 0.0000 0.0000 23.2828 0.0000 0.0000
# 5 0.0000 0.0000 0.0000 0.0000 23.2622 0.0000
# 6 0.0000 0.0000 0.0000 0.0000 0.0000 19.5862
#
#
#
# Elastic Compliance Matrix: (Units=1/GPa)
#
#
# Indices 1 2 3 4 5 6 
#
# 1 0.019600 -0.003876 -0.005829 0.000000 0.000000 0.000000
# 2 -0.003876 0.014359 -0.013124 0.000000 0.000000 0.000000
# 3 -0.005829 -0.013124 0.037230 0.000000 0.000000 0.000000
# 4 0.000000 0.000000 0.000000 0.042950 0.000000 0.000000
# 5 0.000000 0.000000 0.000000 0.000000 0.042988 0.000000
# 6 0.000000 0.000000 0.000000 0.000000 0.000000 0.051056
#
#
# Mechanical properties :
#
#
# Convention : Reuss Voigt Hill
#
# Bulk Modulus (GPa) = 39.16859 52.78927 45.97893
# Shear Modulus (GPa) = 19.05842 21.63987 20.34914
#
# Velocity S-wave (km/s) = 3.21086 3.42141 3.31781
# Velocity P-wave (km/s) = 5.91053 6.64563 6.28883
#
# Compressibility (1/GPa) = 0.02553066
#
# Stress axis : x y z
#
# Youngs Moduli (GPa) = 51.02151 69.64380 26.86000
#
# Poissons Ratio (x) = 0.26993 0.15657
# Poissons Ratio (y) = 0.19776 0.35250
# Poissons Ratio (z) = 0.29742 0.91398
#
# Static dielectric constant tensor:
#      x y z
#    x 1.656980 0.000000 0.000000 
#    y 0.000000 1.687030 0.000000 
#    z 0.000000 0.000000 1.626290 
# 
# From -- ./inp_files/9459.got.cif
#   From: 2010.05.17/outbox.cif.g08.bks.cpg/sg66_5_cif.got.tgz:9459.got - 2010.06.03 17:51:23.
