data_PCOD9497463
_publ_section_title
;
Structure prediction by ZEFSAII (Michael W. Deem and Ramdas Pophale) SiO2 
 PCOD9497463
Probable space group: C C C M
;
_chemical_formula_sum "Si O2"
_cell_formula_units_Z 88
_cell_length_a 18.285815
_cell_length_b 21.874127
_cell_length_c 11.951902
_cell_angle_alpha 90.000000
_cell_angle_beta 90.000000
_cell_angle_gamma 90.000000
_cell_volume 4780.596337
_symmetry_space_group_name_H-M "C C C M"
_symmetry_group_IT_number 66
_symmetry_cell_setting 'orthorhombic'
loop_
_space_group_symop_operation_xyz
x,y,z
-x,-y,z
x,-y,1/2-z
-x,y,1/2-z
-x,-y,-z
x,y,-z
-x,y,1/2+z
x,-y,1/2+z
1/2+x,1/2+y,z
1/2-x,1/2-y,z
1/2+x,1/2-y,1/2-z
1/2-x,1/2+y,1/2-z
1/2-x,1/2-y,-z
1/2+x,1/2+y,-z
1/2-x,1/2+y,1/2+z
1/2+x,1/2-y,1/2+z
loop_
_atom_site_type_symbol
_atom_site_label
_atom_site_fract_x
_atom_site_fract_y
_atom_site_fract_z
Si Si1 0.638407 0.893334 0.500000
Si Si2 0.781802 0.028779 0.626262
Si Si3 0.529556 0.851824 0.000000
Si Si4 0.927240 0.743041 0.191909
Si Si5 0.857452 0.461821 0.500000
Si Si6 0.795206 0.693205 0.673677
Si Si7 0.690413 0.662671 0.121030
O O1 0.557191 0.864559 0.500000
O O2 0.686418 0.866792 0.602523
O O3 0.626368 0.965894 0.500000
O O4 0.796814 0.998681 0.500000
O O5 0.696687 0.047990 0.606200
O O6 0.827431 0.091228 0.627812
O O7 0.789640 0.000000 0.750000
O O8 0.551757 0.811214 0.892727
O O9 0.575762 0.915015 0.000000
O O10 0.873177 0.717792 0.286588
O O11 0.880366 0.795418 0.132471
O O12 0.000000 0.767220 0.250000
O O13 0.750000 0.750000 0.620257
O O14 0.746966 0.677568 0.781673
O O15 0.725760 0.674156 0.000000
#
# Coordination Sequence:
#
# PCOD9497463 Si02
#       7
#     8  16   8  16   8  16  16
#     4  12  22  40  54  82 129 169 199 251 306 380
#     4   9  19  37  60  91 124 157 206 264 314 366
#     4  12  23  38  57  79 126 163 215 243 303 365
#     4  11  22  38  59  88 117 159 198 262 309 369
#     4  10  23  34  59  83 119 169 219 245 304 362
#     4  10  22  35  58  85 116 153 207 253 319 353
#     4  10  20  37  64  91 113 154 210 254 307 365
#
# _framework density 18.407744999999998
#
# number of rings (size 3 to 8) (size 9 to 14) (size 15 to 20)
#    0.545    1.091    2.727    2.727    1.273    1.091 
#    0.000    0.000    0.000    0.545    0.000    2.545 
#    0.000    0.000    0.000    0.000    0.000    0.000 
#
# Total GULP energy -244936.823443 kJ/mol
# GULP energy per Si atom -5566.745987 kJ/mol
# Density = 1.836585 g / cm^3
# Si number density = 18.407745 Si / 1000 Ang^3
#
#
#
# Elastic Constant Matrix: (Units=GPa)
#
#
# Indices 1 2 3 4 5 6 
#
# 1 87.4127 50.8416 39.4420 0.0000 0.0000 0.0000
# 2 50.8416 101.8198 55.9897 0.0000 0.0000 0.0000
# 3 39.4420 55.9897 128.6415 0.0000 0.0000 0.0000
# 4 0.0000 0.0000 0.0000 25.5584 0.0000 0.0000
# 5 0.0000 0.0000 0.0000 0.0000 41.2833 0.0000
# 6 0.0000 0.0000 0.0000 0.0000 0.0000 20.8509
#
#
#
# Elastic Compliance Matrix: (Units=1/GPa)
#
#
# Indices 1 2 3 4 5 6 
#
# 1 0.016480 -0.007166 -0.001934 0.000000 0.000000 0.000000
# 2 -0.007166 0.016027 -0.004779 0.000000 0.000000 0.000000
# 3 -0.001934 -0.004779 0.010446 0.000000 0.000000 0.000000
# 4 0.000000 0.000000 0.000000 0.039126 0.000000 0.000000
# 5 0.000000 0.000000 0.000000 0.000000 0.024223 0.000000
# 6 0.000000 0.000000 0.000000 0.000000 0.000000 0.047960
#
#
# Mechanical properties :
#
#
# Convention : Reuss Voigt Hill
#
# Bulk Modulus (GPa) = 65.80214 67.82452 66.81333
# Shear Modulus (GPa) = 26.72588 28.97856 27.85222
#
# Velocity S-wave (km/s) = 3.81449 3.97200 3.89404
# Velocity P-wave (km/s) = 7.43136 7.61323 7.52284
#
# Compressibility (1/GPa) = 0.01519707
#
# Stress axis : x y z
#
# Youngs Moduli (GPa) = 60.67811 62.39513 95.72681
#
# Poissons Ratio (x) = 0.44709 0.18516
# Poissons Ratio (y) = 0.43479 0.45743
# Poissons Ratio (z) = 0.11737 0.29816
#
# Static dielectric constant tensor:
#      x y z
#    x 1.608280 0.000000 0.000000 
#    y 0.000000 1.676710 0.000000 
#    z 0.000000 0.000000 1.694770 
# 
# From -- ./inp_files/17710.got.cif
#   From: 2010.05.17/outbox.cif.g08.bks.cpg/sg66_9_cif.got.tgz:17710.got - 2010.06.03 17:51:23.
