data_PCOD9497095
_publ_section_title
;
Structure prediction by ZEFSAII (Michael W. Deem and Ramdas Pophale) SiO2 
 PCOD9497095
Probable space group: C C C M
;
_chemical_formula_sum "Si O2"
_cell_formula_units_Z 72
_cell_length_a 20.913616
_cell_length_b 12.078617
_cell_length_c 14.664486
_cell_angle_alpha 90.000000
_cell_angle_beta 90.000000
_cell_angle_gamma 90.000000
_cell_volume 3704.359994
_symmetry_space_group_name_H-M "C C C M"
_symmetry_group_IT_number 66
_symmetry_cell_setting 'orthorhombic'
loop_
_space_group_symop_operation_xyz
x,y,z
-x,-y,z
x,-y,1/2-z
-x,y,1/2-z
-x,-y,-z
x,y,-z
-x,y,1/2+z
x,-y,1/2+z
1/2+x,1/2+y,z
1/2-x,1/2-y,z
1/2+x,1/2-y,1/2-z
1/2-x,1/2+y,1/2-z
1/2-x,1/2-y,-z
1/2+x,1/2+y,-z
1/2-x,1/2+y,1/2+z
1/2+x,1/2-y,1/2+z
loop_
_atom_site_type_symbol
_atom_site_label
_atom_site_fract_x
_atom_site_fract_y
_atom_site_fract_z
Si Si1 0.528016 0.115291 0.602446
Si Si2 0.500000 0.297038 0.750000
Si Si3 0.796656 0.002294 0.391850
Si Si4 0.161645 0.406206 0.177897
Si Si5 0.355290 0.339258 0.245911
O O1 0.504600 0.129466 0.500000
O O2 0.507679 0.216898 0.663721
O O3 0.604346 0.107328 0.607129
O O4 0.500000 0.000000 0.637999
O O5 0.431237 0.354141 0.737292
O O6 0.803959 0.983813 0.500000
O O7 0.726129 0.049213 0.368308
O O8 0.841116 0.097906 0.348961
O O9 0.814919 0.897372 0.327276
O O10 0.142440 0.500000 0.250000
O O11 0.164854 0.288351 0.230401
#
# Coordination Sequence:
#
# PCOD9497095 Si02
#       5
#    16   8  16  16  16
#     4  10  20  35  58  92 124 159 206 254 313 376
#     4  10  21  39  62  84 120 168 205 257 314 364
#     4  11  24  41  63  92 125 167 213 260 310 371
#     4  11  21  39  66  90 129 165 200 256 315 379
#     4  10  23  42  63  90 124 163 211 260 311 375
#
# _framework density 19.436556
#
# number of rings (size 3 to 8) (size 9 to 14) (size 15 to 20)
#    0.000    1.556    2.222    4.333    0.000    8.000 
#    0.000    4.444    0.000    0.000    0.000    0.000 
#    0.000    0.000    0.000    0.000    0.000    0.000 
#
# Total GULP energy -200807.177315 kJ/mol
# GULP energy per Si atom -5577.977148 kJ/mol
# Density = 1.939232 g / cm^3
# Si number density = 19.436556 Si / 1000 Ang^3
#
#
#
# Elastic Constant Matrix: (Units=GPa)
#
#
# Indices 1 2 3 4 5 6 
#
# 1 132.2727 18.5455 26.9174 0.0000 0.0000 0.0000
# 2 18.5455 116.0195 40.3848 0.0000 0.0000 0.0000
# 3 26.9174 40.3848 122.7861 0.0000 0.0000 0.0000
# 4 0.0000 0.0000 0.0000 11.1825 0.0000 0.0000
# 5 0.0000 0.0000 0.0000 0.0000 19.4803 0.0000
# 6 0.0000 0.0000 0.0000 0.0000 0.0000 23.0018
#
#
#
# Elastic Compliance Matrix: (Units=1/GPa)
#
#
# Indices 1 2 3 4 5 6 
#
# 1 0.007971 -0.000752 -0.001500 0.000000 0.000000 0.000000
# 2 -0.000752 0.009805 -0.003060 0.000000 0.000000 0.000000
# 3 -0.001500 -0.003060 0.009480 0.000000 0.000000 0.000000
# 4 0.000000 0.000000 0.000000 0.089425 0.000000 0.000000
# 5 0.000000 0.000000 0.000000 0.000000 0.051334 0.000000
# 6 0.000000 0.000000 0.000000 0.000000 0.000000 0.043475
#
#
# Mechanical properties :
#
#
# Convention : Reuss Voigt Hill
#
# Bulk Modulus (GPa) = 60.12861 60.30820 60.21840
# Shear Modulus (GPa) = 21.96289 29.74829 25.85559
#
# Velocity S-wave (km/s) = 3.36516 3.91645 3.65122
# Velocity P-wave (km/s) = 6.78985 7.17962 6.98746
#
# Compressibility (1/GPa) = 0.01663102
#
# Stress axis : x y z
#
# Youngs Moduli (GPa) = 125.45743 101.99343 105.49079
#
# Poissons Ratio (x) = 0.07670 0.15824
# Poissons Ratio (y) = 0.09434 0.32279
# Poissons Ratio (z) = 0.18819 0.31209
#
# Static dielectric constant tensor:
#      x y z
#    x 1.719840 0.000000 0.000000 
#    y 0.000000 1.702550 0.000000 
#    z 0.000000 0.000000 1.651020 
# 
# From -- ./inp_files/32024.got.cif
#   From: 2010.05.17/outbox.cif.g08.bks.cpg/sg66_17_cif.got.tgz:32024.got - 2010.06.03 17:51:23.
