data_PCOD9497655
_publ_section_title
;
Structure prediction by ZEFSAII (Michael W. Deem and Ramdas Pophale) SiO2 
 PCOD9497655
Probable space group: C C C M
;
_chemical_formula_sum "Si O2"
_cell_formula_units_Z 72
_cell_length_a 26.406895
_cell_length_b 8.573190
_cell_length_c 15.648508
_cell_angle_alpha 90.000000
_cell_angle_beta 90.000000
_cell_angle_gamma 90.000000
_cell_volume 3542.686510
_symmetry_space_group_name_H-M "C C C M"
_symmetry_group_IT_number 66
_symmetry_cell_setting 'orthorhombic'
loop_
_space_group_symop_operation_xyz
x,y,z
-x,-y,z
x,-y,1/2-z
-x,y,1/2-z
-x,-y,-z
x,y,-z
-x,y,1/2+z
x,-y,1/2+z
1/2+x,1/2+y,z
1/2-x,1/2-y,z
1/2+x,1/2-y,1/2-z
1/2-x,1/2+y,1/2-z
1/2-x,1/2-y,-z
1/2+x,1/2+y,-z
1/2-x,1/2+y,1/2+z
1/2+x,1/2-y,1/2+z
loop_
_atom_site_type_symbol
_atom_site_label
_atom_site_fract_x
_atom_site_fract_y
_atom_site_fract_z
Si Si1 0.540154 0.147101 0.500000
Si Si2 0.046816 0.881275 0.343325
Si Si3 0.904127 0.624192 0.500000
Si Si4 0.303276 0.333370 0.500000
Si Si5 0.414418 0.162703 0.302660
Si Si6 0.346794 0.429118 0.665911
O O1 0.538319 0.257751 0.418477
O O2 0.500000 0.000000 0.500000
O O3 0.594710 0.061929 0.500000
O O4 0.053683 0.779716 0.257160
O O5 0.099806 0.978643 0.352764
O O6 0.000000 0.000000 0.345674
O O7 0.850952 0.712474 0.500000
O O8 0.928190 0.658127 0.404538
O O9 0.250000 0.250000 0.500000
O O10 0.312072 0.433650 0.584236
O O11 0.360872 0.251078 0.309394
O O12 0.414463 0.000000 0.250000
O O13 0.323219 0.500000 0.750000
#
# Coordination Sequence:
#
# PCOD9497655 Si02
#       6
#     8  16   8   8  16  16
#     4  12  26  40  62  96 131 175 223 263 315 386
#     4  11  24  40  62  96 135 177 219 266 324 386
#     4  10  22  43  63  91 126 167 218 275 325 382
#     4  10  21  41  71  97 126 170 215 273 338 394
#     4  10  20  40  64  89 125 173 219 264 317 385
#     4   9  21  40  65  95 130 167 213 267 328 385
#
# _framework density 20.323560000000001
#
# number of rings (size 3 to 8) (size 9 to 14) (size 15 to 20)
#    0.000    1.778    2.222    1.000    6.222    4.000 
#    0.000    7.222    0.000    1.333    0.000    0.000 
#    0.000    0.000    0.000    0.000    0.000    0.000 
#
# Total GULP energy -200470.128741 kJ/mol
# GULP energy per Si atom -5568.614687 kJ/mol
# Density = 2.027730 g / cm^3
# Si number density = 20.323560 Si / 1000 Ang^3
#
#
#
# Elastic Constant Matrix: (Units=GPa)
#
#
# Indices 1 2 3 4 5 6 
#
# 1 55.1462 17.2166 58.3049 0.0000 0.0000 0.0000
# 2 17.2166 101.4963 69.1166 0.0000 0.0000 0.0000
# 3 58.3049 69.1166 244.4550 0.0000 0.0000 0.0000
# 4 0.0000 0.0000 0.0000 32.9178 0.0000 0.0000
# 5 0.0000 0.0000 0.0000 0.0000 6.0394 0.0000
# 6 0.0000 0.0000 0.0000 0.0000 0.0000 18.9367
#
#
#
# Elastic Compliance Matrix: (Units=1/GPa)
#
#
# Indices 1 2 3 4 5 6 
#
# 1 0.024252 -0.000217 -0.005723 0.000000 0.000000 0.000000
# 2 -0.000217 0.012204 -0.003399 0.000000 0.000000 0.000000
# 3 -0.005723 -0.003399 0.006417 0.000000 0.000000 0.000000
# 4 0.000000 0.000000 0.000000 0.030379 0.000000 0.000000
# 5 0.000000 0.000000 0.000000 0.000000 0.165579 0.000000
# 6 0.000000 0.000000 0.000000 0.000000 0.000000 0.052807
#
#
# Mechanical properties :
#
#
# Convention : Reuss Voigt Hill
#
# Bulk Modulus (GPa) = 41.32959 76.70819 59.01889
# Shear Modulus (GPa) = 15.70451 28.67608 22.19030
#
# Velocity S-wave (km/s) = 2.78281 3.76037 3.30790
# Velocity P-wave (km/s) = 5.54124 7.52857 6.61002
#
# Compressibility (1/GPa) = 0.02419574
#
# Stress axis : x y z
#
# Youngs Moduli (GPa) = 41.23337 81.94140 155.84226
#
# Poissons Ratio (x) = 0.01774 0.89191
# Poissons Ratio (y) = 0.00893 0.52968
# Poissons Ratio (z) = 0.23599 0.27851
#
# Static dielectric constant tensor:
#      x y z
#    x 1.752550 0.000000 0.000000 
#    y 0.000000 1.771920 0.000000 
#    z 0.000000 0.000000 1.822540 
# 
# From -- ./inp_files/33059.got.cif
#   From: 2010.05.17/outbox.cif.g08.bks.cpg/sg66_17_cif.got.tgz:33059.got - 2010.06.03 17:51:23.
