data_PCOD9497785
_publ_section_title
;
Structure prediction by ZEFSAII (Michael W. Deem and Ramdas Pophale) SiO2 
 PCOD9497785
Probable space group: C C C M
;
_chemical_formula_sum "Si O2"
_cell_formula_units_Z 80
_cell_length_a 13.282976
_cell_length_b 10.726624
_cell_length_c 27.967978
_cell_angle_alpha 90.000000
_cell_angle_beta 90.000000
_cell_angle_gamma 90.000000
_cell_volume 3984.919154
_symmetry_space_group_name_H-M "C C C M"
_symmetry_group_IT_number 66
_symmetry_cell_setting 'orthorhombic'
loop_
_space_group_symop_operation_xyz
x,y,z
-x,-y,z
x,-y,1/2-z
-x,y,1/2-z
-x,-y,-z
x,y,-z
-x,y,1/2+z
x,-y,1/2+z
1/2+x,1/2+y,z
1/2-x,1/2-y,z
1/2+x,1/2-y,1/2-z
1/2-x,1/2+y,1/2-z
1/2-x,1/2-y,-z
1/2+x,1/2+y,-z
1/2-x,1/2+y,1/2+z
1/2+x,1/2-y,1/2+z
loop_
_atom_site_type_symbol
_atom_site_label
_atom_site_fract_x
_atom_site_fract_y
_atom_site_fract_z
Si Si1 0.860197 0.778006 0.163813
Si Si2 0.425242 0.196836 0.636347
Si Si3 0.391103 0.521389 0.106409
Si Si4 0.880539 0.363930 0.758631
Si Si5 0.704575 0.108463 0.946258
O O1 0.750000 0.750000 0.143342
O O2 0.854452 0.741989 0.219927
O O3 0.953779 0.696514 0.143573
O O4 0.882867 0.919535 0.148524
O O5 0.396239 0.339725 0.626685
O O6 0.370366 0.163500 0.685690
O O7 0.383449 0.114683 0.593006
O O8 0.500000 0.500000 0.081878
O O9 0.294992 0.520255 0.071911
O O10 0.832719 0.500000 0.750000
O O11 0.000000 0.375804 0.750000
O O12 0.750000 0.250000 0.947563
O O13 0.672129 0.077400 0.000000
#
# Coordination Sequence:
#
# PCOD9497785 Si02
#       5
#    16  16  16  16  16
#     4  10  21  35  53  82 115 154 182 224 292 347
#     4   9  19  37  58  81 114 143 192 244 275 337
#     4   9  19  35  55  83 115 147 182 238 291 334
#     4   9  19  35  54  81 108 149 192 225 274 339
#     4   9  18  34  60  87 109 146 196 242 286 331
#
# _framework density 20.075690999999999
#
# number of rings (size 3 to 8) (size 9 to 14) (size 15 to 20)
#    0.000    2.800    0.000    0.000    2.800    3.600 
#    0.000    7.000    0.000    3.600    0.000    0.000 
#    0.000    0.000    0.000    0.000    0.000    0.000 
#
# Total GULP energy -222769.407812 kJ/mol
# GULP energy per Si atom -5569.235195 kJ/mol
# Density = 2.003000 g / cm^3
# Si number density = 20.075691 Si / 1000 Ang^3
#
#
#
# Elastic Constant Matrix: (Units=GPa)
#
#
# Indices 1 2 3 4 5 6 
#
# 1 119.3059 24.5969 67.7459 0.0000 0.0000 0.0000
# 2 24.5969 50.5670 38.5932 0.0000 0.0000 0.0000
# 3 67.7459 38.5932 164.6687 0.0000 0.0000 0.0000
# 4 0.0000 0.0000 0.0000 3.3769 0.0000 0.0000
# 5 0.0000 0.0000 0.0000 0.0000 16.1633 0.0000
# 6 0.0000 0.0000 0.0000 0.0000 0.0000 17.1885
#
#
#
# Elastic Compliance Matrix: (Units=1/GPa)
#
#
# Indices 1 2 3 4 5 6 
#
# 1 0.011160 -0.002344 -0.004042 0.000000 0.000000 0.000000
# 2 -0.002344 0.024576 -0.004796 0.000000 0.000000 0.000000
# 3 -0.004042 -0.004796 0.008860 0.000000 0.000000 0.000000
# 4 0.000000 0.000000 0.000000 0.296129 0.000000 0.000000
# 5 0.000000 0.000000 0.000000 0.000000 0.061868 0.000000
# 6 0.000000 0.000000 0.000000 0.000000 0.000000 0.058178
#
#
# Mechanical properties :
#
#
# Convention : Reuss Voigt Hill
#
# Bulk Modulus (GPa) = 44.97816 66.26816 55.62316
# Shear Modulus (GPa) = 10.19274 20.91948 15.55611
#
# Velocity S-wave (km/s) = 2.25570 3.23155 2.78667
# Velocity P-wave (km/s) = 5.40714 6.85600 6.17422
#
# Compressibility (1/GPa) = 0.02223301
#
# Stress axis : x y z
#
# Youngs Moduli (GPa) = 89.60378 40.69053 112.87060
#
# Poissons Ratio (x) = 0.09536 0.45624
# Poissons Ratio (y) = 0.20999 0.54128
# Poissons Ratio (z) = 0.36219 0.19514
#
# Static dielectric constant tensor:
#      x y z
#    x 1.786950 0.000000 0.000000 
#    y 0.000000 1.750530 0.000000 
#    z 0.000000 0.000000 1.703740 
# 
# From -- ./inp_files/64460.got.cif
#   From: 2010.05.17/outbox.cif.g08.bks.cpg/sg66_33_cif.got.tgz:64460.got - 2010.06.03 17:51:23.
