data_PCOD9497069
_publ_section_title
;
Structure prediction by ZEFSAII (Michael W. Deem and Ramdas Pophale) SiO2 
 PCOD9497069
Probable space group: C C C M
;
_chemical_formula_sum "Si O2"
_cell_formula_units_Z 112
_cell_length_a 24.175053
_cell_length_b 16.527672
_cell_length_c 14.143791
_cell_angle_alpha 90.000000
_cell_angle_beta 90.000000
_cell_angle_gamma 90.000000
_cell_volume 5651.255602
_symmetry_space_group_name_H-M "C C C M"
_symmetry_group_IT_number 66
_symmetry_cell_setting 'orthorhombic'
loop_
_space_group_symop_operation_xyz
x,y,z
-x,-y,z
x,-y,1/2-z
-x,y,1/2-z
-x,-y,-z
x,y,-z
-x,y,1/2+z
x,-y,1/2+z
1/2+x,1/2+y,z
1/2-x,1/2-y,z
1/2+x,1/2-y,1/2-z
1/2-x,1/2+y,1/2-z
1/2-x,1/2-y,-z
1/2+x,1/2+y,-z
1/2-x,1/2+y,1/2+z
1/2+x,1/2-y,1/2+z
loop_
_atom_site_type_symbol
_atom_site_label
_atom_site_fract_x
_atom_site_fract_y
_atom_site_fract_z
Si Si1 0.639962 0.073953 0.387696
Si Si2 0.622249 0.498139 0.112698
Si Si3 0.750008 0.994392 0.613929
Si Si4 0.905284 0.305354 0.764104
Si Si5 0.564891 0.620331 0.756957
Si Si6 0.549686 0.061266 0.888737
Si Si7 0.296065 0.818765 0.111656
O O1 0.638500 0.090806 0.500000
O O2 0.702744 0.057104 0.355187
O O3 0.610992 0.143940 0.328690
O O4 0.605735 0.990584 0.373568
O O5 0.686718 0.508640 0.140161
O O6 0.589537 0.575975 0.151026
O O7 0.596513 0.422176 0.168994
O O8 0.618322 0.488053 0.000000
O O9 0.748519 0.997481 0.500000
O O10 0.730543 0.904457 0.639567
O O11 0.925711 0.215887 0.742565
O O12 0.947738 0.359824 0.824735
O O13 0.850121 0.300373 0.828099
O O14 0.500000 0.602794 0.750000
O O15 0.500000 0.000000 0.866287
O O16 0.545630 0.081705 0.000000
O O17 0.250000 0.750000 0.123120
O O18 0.310872 0.823298 0.000000
#
# Coordination Sequence:
#
# PCOD9497069 Si02
#       7
#    16  16  16  16  16  16  16
#     4  10  22  39  58  90 130 171 213 252 301 371
#     4  10  22  46  73  90 118 165 207 264 337 388
#     4   9  18  36  63  92 122 161 212 258 310 383
#     4  12  24  37  62  93 129 171 209 258 315 377
#     4  11  27  44  61  97 128 154 214 275 313 385
#     4  10  22  40  62  90 126 171 219 256 298 367
#     4  10  20  35  57  91 130 159 201 265 321 377
#
# _framework density 19.818604000000001
#
# number of rings (size 3 to 8) (size 9 to 14) (size 15 to 20)
#    0.000    1.714    1.429    2.571    2.000    8.000 
#    0.000    0.000    0.000    3.000    0.000    0.000 
#    0.000    0.000    0.000    0.000    0.000    0.000 
#
# Total GULP energy -313147.129035 kJ/mol
# GULP energy per Si atom -5591.913018 kJ/mol
# Density = 1.977350 g / cm^3
# Si number density = 19.818604 Si / 1000 Ang^3
#
#
#
# Elastic Constant Matrix: (Units=GPa)
#
#
# Indices 1 2 3 4 5 6 
#
# 1 104.1418 27.3309 12.7516 0.0000 0.0000 0.0000
# 2 27.3309 126.7949 37.3943 0.0000 0.0000 0.0000
# 3 12.7516 37.3943 96.7498 0.0000 0.0000 0.0000
# 4 0.0000 0.0000 0.0000 7.3982 0.0000 0.0000
# 5 0.0000 0.0000 0.0000 0.0000 26.2866 0.0000
# 6 0.0000 0.0000 0.0000 0.0000 0.0000 28.7706
#
#
#
# Elastic Compliance Matrix: (Units=1/GPa)
#
#
# Indices 1 2 3 4 5 6 
#
# 1 0.010205 -0.002035 -0.000558 0.000000 0.000000 0.000000
# 2 -0.002035 0.009307 -0.003329 0.000000 0.000000 0.000000
# 3 -0.000558 -0.003329 0.011696 0.000000 0.000000 0.000000
# 4 0.000000 0.000000 0.000000 0.135167 0.000000 0.000000
# 5 0.000000 0.000000 0.000000 0.000000 0.038042 0.000000
# 6 0.000000 0.000000 0.000000 0.000000 0.000000 0.034758
#
#
# Mechanical properties :
#
#
# Convention : Reuss Voigt Hill
#
# Bulk Modulus (GPa) = 51.64438 53.62670 52.63554
# Shear Modulus (GPa) = 19.41937 29.17175 24.29556
#
# Velocity S-wave (km/s) = 3.13366 3.84075 3.50508
# Velocity P-wave (km/s) = 6.26165 6.84003 6.55722
#
# Compressibility (1/GPa) = 0.01936319
#
# Stress axis : x y z
#
# Youngs Moduli (GPa) = 97.99385 107.44370 85.49753
#
# Poissons Ratio (x) = 0.21864 0.04775
# Poissons Ratio (y) = 0.19941 0.28463
# Poissons Ratio (z) = 0.05473 0.35769
#
# Static dielectric constant tensor:
#      x y z
#    x 1.711190 0.000000 0.000000 
#    y 0.000000 1.656150 0.000000 
#    z 0.000000 0.000000 1.709970 
# 
# From -- ./inp_files/32471.got.cif
#   From: 2010.05.17/outbox.cif.g08.bks.cpg/sg66_17_cif.got.tgz:32471.got - 2010.06.03 17:51:23.
