data_PCOD9497565
_publ_section_title
;
Structure prediction by ZEFSAII (Michael W. Deem and Ramdas Pophale) SiO2 
 PCOD9497565
Probable space group: C C C M
;
_chemical_formula_sum "Si O2"
_cell_formula_units_Z 104
_cell_length_a 8.911780
_cell_length_b 18.792334
_cell_length_c 30.753897
_cell_angle_alpha 90.000000
_cell_angle_beta 90.000000
_cell_angle_gamma 90.000000
_cell_volume 5150.451891
_symmetry_space_group_name_H-M "C C C M"
_symmetry_group_IT_number 66
_symmetry_cell_setting 'orthorhombic'
loop_
_space_group_symop_operation_xyz
x,y,z
-x,-y,z
x,-y,1/2-z
-x,y,1/2-z
-x,-y,-z
x,y,-z
-x,y,1/2+z
x,-y,1/2+z
1/2+x,1/2+y,z
1/2-x,1/2-y,z
1/2+x,1/2-y,1/2-z
1/2-x,1/2+y,1/2-z
1/2-x,1/2-y,-z
1/2+x,1/2+y,-z
1/2-x,1/2+y,1/2+z
1/2+x,1/2-y,1/2+z
loop_
_atom_site_type_symbol
_atom_site_label
_atom_site_fract_x
_atom_site_fract_y
_atom_site_fract_z
Si Si1 0.440450 0.130580 0.884247
Si Si2 0.024615 0.206718 0.381444
Si Si3 0.172643 0.582795 0.237447
Si Si4 0.000000 0.000000 0.406990
Si Si5 0.746643 0.906864 0.364105
Si Si6 0.291182 0.333501 0.187096
Si Si7 0.827118 0.129531 0.448964
O O1 0.509368 0.209388 0.876803
O O2 0.583843 0.080003 0.885276
O O3 0.328352 0.123944 0.843148
O O4 0.335198 0.127275 0.926193
O O5 0.182476 0.167030 0.382144
O O6 0.943095 0.168515 0.340418
O O7 0.923688 0.188767 0.423475
O O8 0.187895 0.500000 0.250000
O O9 0.210665 0.594469 0.187085
O O10 0.284237 0.629394 0.266758
O O11 0.000000 0.603588 0.250000
O O12 0.129191 0.035529 0.377580
O O13 0.917780 0.058156 0.436691
O O14 0.250000 0.250000 0.190956
O O15 0.818699 0.141121 0.500000
#
# Coordination Sequence:
#
# PCOD9497565 Si02
#       7
#    16  16  16   8  16  16  16
#     4  10  20  38  65  88 121 158 207 248 308 380
#     4   9  21  38  61  93 120 160 201 251 314 370
#     4  11  24  37  59  89 121 164 219 269 306 350
#     4  10  25  42  61  90 122 168 204 247 315 382
#     4  11  23  40  60  85 126 165 206 255 309 361
#     4   9  19  39  58  84 120 160 208 256 308 370
#     4  10  21  40  67  93 124 159 198 254 311 374
#
# _framework density 20.192402999999999
#
# number of rings (size 3 to 8) (size 9 to 14) (size 15 to 20)
#    0.000    2.000    1.538    2.077    6.462    3.692 
#    0.000    4.615    0.000    4.615    0.000    0.000 
#    0.000    0.000    0.000    0.000    0.000    0.000 
#
# Total GULP energy -290293.820777 kJ/mol
# GULP energy per Si atom -5582.573476 kJ/mol
# Density = 2.014644 g / cm^3
# Si number density = 20.192403 Si / 1000 Ang^3
#
#
#
# Elastic Constant Matrix: (Units=GPa)
#
#
# Indices 1 2 3 4 5 6 
#
# 1 120.7394 11.8586 39.8158 0.0000 0.0000 0.0000
# 2 11.8586 24.6553 -5.3586 0.0000 0.0000 0.0000
# 3 39.8158 -5.3586 130.5614 0.0000 0.0000 0.0000
# 4 0.0000 0.0000 0.0000 9.1317 0.0000 0.0000
# 5 0.0000 0.0000 0.0000 0.0000 14.4859 0.0000
# 6 0.0000 0.0000 0.0000 0.0000 0.0000 17.2314
#
#
#
# Elastic Compliance Matrix: (Units=1/GPa)
#
#
# Indices 1 2 3 4 5 6 
#
# 1 0.009887 -0.005459 -0.003239 0.000000 0.000000 0.000000
# 2 -0.005459 0.043939 0.003468 0.000000 0.000000 0.000000
# 3 -0.003239 0.003468 0.008789 0.000000 0.000000 0.000000
# 4 0.000000 0.000000 0.000000 0.109508 0.000000 0.000000
# 5 0.000000 0.000000 0.000000 0.000000 0.069032 0.000000
# 6 0.000000 0.000000 0.000000 0.000000 0.000000 0.058034
#
#
# Mechanical properties :
#
#
# Convention : Reuss Voigt Hill
#
# Bulk Modulus (GPa) = 19.17375 40.95418 30.06396
# Shear Modulus (GPa) = 15.28893 23.47917 19.38405
#
# Velocity S-wave (km/s) = 2.75464 3.41364 3.10170
# Velocity P-wave (km/s) = 4.43098 5.98860 5.26768
#
# Compressibility (1/GPa) = 0.05215465
#
# Stress axis : x y z
#
# Youngs Moduli (GPa) = 101.14679 22.75892 113.77396
#
# Poissons Ratio (x) = 0.12425 0.36852
# Poissons Ratio (y) = 0.55218 -0.39459
# Poissons Ratio (z) = 0.32762 -0.07893
#
# Static dielectric constant tensor:
#      x y z
#    x 1.737370 0.000000 0.000000 
#    y 0.000000 1.759950 0.000000 
#    z 0.000000 0.000000 1.666950 
# 
# From -- ./inp_files/68272.got.cif
#   From: 2010.05.17/outbox.cif.g08.bks.cpg/sg66_35_cif.got.tgz:68272.got - 2010.06.03 17:51:23.
