data_PCOD9497019
_publ_section_title
;
Structure prediction by ZEFSAII (Michael W. Deem and Ramdas Pophale) SiO2 
 PCOD9497019
Probable space group: C C C M
;
_chemical_formula_sum "Si O2"
_cell_formula_units_Z 80
_cell_length_a 16.629660
_cell_length_b 26.053137
_cell_length_c 9.069699
_cell_angle_alpha 90.000000
_cell_angle_beta 90.000000
_cell_angle_gamma 90.000000
_cell_volume 3929.490719
_symmetry_space_group_name_H-M "C C C M"
_symmetry_group_IT_number 66
_symmetry_cell_setting 'orthorhombic'
loop_
_space_group_symop_operation_xyz
x,y,z
-x,-y,z
x,-y,1/2-z
-x,y,1/2-z
-x,-y,-z
x,y,-z
-x,y,1/2+z
x,-y,1/2+z
1/2+x,1/2+y,z
1/2-x,1/2-y,z
1/2+x,1/2-y,1/2-z
1/2-x,1/2+y,1/2-z
1/2-x,1/2-y,-z
1/2+x,1/2+y,-z
1/2-x,1/2+y,1/2+z
1/2+x,1/2-y,1/2+z
loop_
_atom_site_type_symbol
_atom_site_label
_atom_site_fract_x
_atom_site_fract_y
_atom_site_fract_z
Si Si1 0.385031 0.447681 0.330717
Si Si2 0.383282 0.343128 0.830587
Si Si3 0.689099 0.156897 0.330601
Si Si4 0.919057 0.737224 0.324752
Si Si5 0.188898 0.552248 0.169473
O O1 0.409247 0.500000 0.250000
O O2 0.412731 0.445839 0.500000
O O3 0.408124 0.397198 0.239803
O O4 0.286895 0.447916 0.333133
O O5 0.285948 0.342019 0.831372
O O6 0.409910 0.295237 0.733026
O O7 0.411021 0.337974 0.000000
O O8 0.661911 0.161280 0.500000
O O9 0.654178 0.203347 0.235828
O O10 0.664068 0.102853 0.258562
O O11 0.923430 0.735644 0.500000
O O12 0.000000 0.715988 0.250000
O O13 0.163551 0.500000 0.250000
O O14 0.161853 0.554058 0.000000
#
# Coordination Sequence:
#
# PCOD9497019 Si02
#       5
#    16  16  16  16  16
#     4   9  16  27  46  75 109 142 176 216 263 312
#     4  10  20  35  56  82 111 142 178 221 267 316
#     4  10  20  35  56  82 111 142 178 221 267 316
#     4  12  25  40  57  77 105 141 181 224 271 322
#     4   9  16  27  46  75 109 142 176 216 263 312
#
# _framework density 20.358871000000001
#
# number of rings (size 3 to 8) (size 9 to 14) (size 15 to 20)
#    0.000    2.000    0.000    4.800    0.000    9.600 
#    0.000    0.000    0.000    1.200    0.000    8.400 
#    0.000    0.000    0.000    0.000    0.000    0.000 
#
# Total GULP energy -223649.195680 kJ/mol
# GULP energy per Si atom -5591.229892 kJ/mol
# Density = 2.031253 g / cm^3
# Si number density = 20.358871 Si / 1000 Ang^3
#
#
#
# Elastic Constant Matrix: (Units=GPa)
#
#
# Indices 1 2 3 4 5 6 
#
# 1 32.0503 28.3979 33.7303 0.0000 0.0000 0.0000
# 2 28.3979 141.1715 80.4604 0.0000 0.0000 0.0000
# 3 33.7303 80.4604 220.1459 0.0000 0.0000 0.0000
# 4 0.0000 0.0000 0.0000 39.1179 0.0000 0.0000
# 5 0.0000 0.0000 0.0000 0.0000 50.8246 0.0000
# 6 0.0000 0.0000 0.0000 0.0000 0.0000 -30.1916
#
#
#
# Elastic Compliance Matrix: (Units=1/GPa)
#
#
# Indices 1 2 3 4 5 6 
#
# 1 0.040697 -0.005852 -0.004097 0.000000 0.000000 0.000000
# 2 -0.005852 0.009789 -0.002681 0.000000 0.000000 0.000000
# 3 -0.004097 -0.002681 0.006150 0.000000 0.000000 0.000000
# 4 0.000000 0.000000 0.000000 0.025564 0.000000 0.000000
# 5 0.000000 0.000000 0.000000 0.000000 0.019675 0.000000
# 6 0.000000 0.000000 0.000000 0.000000 0.000000 -0.033122
#
#
# Mechanical properties :
#
#
# Convention : Reuss Voigt Hill
#
# Bulk Modulus (GPa) = 31.87045 75.39388 53.63217
# Shear Modulus (GPa) = 47.85974 28.66879 38.26427
#
# Velocity S-wave (km/s) = 4.85377 3.75663 4.34001
# Velocity P-wave (km/s) = 6.86298 7.47858 7.17738
#
# Compressibility (1/GPa) = 0.03137703
#
# Stress axis : x y z
#
# Youngs Moduli (GPa) = 24.57158 102.15776 162.59999
#
# Poissons Ratio (x) = 0.59779 0.66615
# Poissons Ratio (y) = 0.14378 0.43595
# Poissons Ratio (z) = 0.10067 0.27389
#
# Static dielectric constant tensor:
#      x y z
#    x 1.763390 0.000000 0.000000 
#    y 0.000000 1.686200 0.000000 
#    z 0.000000 0.000000 1.686640 
# 
# From -- ./inp_files/6645.got.cif
#   From: 2010.05.17/outbox.cif.g08.bks.cpg/sg66_4_cif.got.tgz:6645.got - 2010.06.03 17:51:23.
