data_PCOD9497206
_publ_section_title
;
Structure prediction by ZEFSAII (Michael W. Deem and Ramdas Pophale) SiO2 
 PCOD9497206
Probable space group: C C C M
;
_chemical_formula_sum "Si O2"
_cell_formula_units_Z 64
_cell_length_a 10.261425
_cell_length_b 10.699005
_cell_length_c 22.283355
_cell_angle_alpha 90.000000
_cell_angle_beta 90.000000
_cell_angle_gamma 90.000000
_cell_volume 2446.423528
_symmetry_space_group_name_H-M "C C C M"
_symmetry_group_IT_number 66
_symmetry_cell_setting 'orthorhombic'
loop_
_space_group_symop_operation_xyz
x,y,z
-x,-y,z
x,-y,1/2-z
-x,y,1/2-z
-x,-y,-z
x,y,-z
-x,y,1/2+z
x,-y,1/2+z
1/2+x,1/2+y,z
1/2-x,1/2-y,z
1/2+x,1/2-y,1/2-z
1/2-x,1/2+y,1/2-z
1/2-x,1/2-y,-z
1/2+x,1/2+y,-z
1/2-x,1/2+y,1/2+z
1/2+x,1/2-y,1/2+z
loop_
_atom_site_type_symbol
_atom_site_label
_atom_site_fract_x
_atom_site_fract_y
_atom_site_fract_z
Si Si1 0.165318 0.567469 0.313541
Si Si2 0.149201 0.629943 0.434990
Si Si3 0.896580 0.800235 0.566714
Si Si4 0.543055 0.665779 0.816029
O O1 0.148818 0.500000 0.250000
O O2 0.150285 0.525884 0.382860
O O3 0.313741 0.610078 0.317965
O O4 0.067459 0.684950 0.313930
O O5 0.182173 0.576697 0.500000
O O6 0.250000 0.750000 0.425516
O O7 0.008041 0.693757 0.437827
O O8 0.902452 0.863500 0.500000
O O9 0.750000 0.750000 0.574672
O O10 0.947129 0.865711 0.628682
O O11 0.500000 0.631237 0.750000
#
# Coordination Sequence:
#
# PCOD9497206 Si02
#       4
#    16  16  16  16
#     4  10  20  36  58  90 123 162 214 264 321 382
#     4   9  15  31  59  93 124 159 215 271 324 381
#     4   9  17  30  56  92 123 159 208 267 331 390
#     4  10  21  36  58  85 123 168 211 258 321 387
#
# _framework density 26.160639
#
# number of rings (size 3 to 8) (size 9 to 14) (size 15 to 20)
#    0.000    2.500    5.000    0.000    3.500    1.000 
#    0.000    0.000    0.000    4.500    0.000   10.500 
#    0.000    0.000    0.000    0.000    0.000   32.500 
#
# Total GULP energy -178406.986878 kJ/mol
# GULP energy per Si atom -5575.218340 kJ/mol
# Density = 2.610110 g / cm^3
# Si number density = 26.160639 Si / 1000 Ang^3
#
#
#
# Elastic Constant Matrix: (Units=GPa)
#
#
# Indices 1 2 3 4 5 6 
#
# 1 152.4766 16.0723 74.5711 0.0000 0.0000 0.0000
# 2 16.0723 68.7926 72.5810 0.0000 0.0000 0.0000
# 3 74.5711 72.5810 328.5261 0.0000 0.0000 0.0000
# 4 0.0000 0.0000 0.0000 8.3807 0.0000 0.0000
# 5 0.0000 0.0000 0.0000 0.0000 30.1371 0.0000
# 6 0.0000 0.0000 0.0000 0.0000 0.0000 30.0198
#
#
#
# Elastic Compliance Matrix: (Units=1/GPa)
#
#
# Indices 1 2 3 4 5 6 
#
# 1 0.007378 0.000056 -0.001687 0.000000 0.000000 0.000000
# 2 0.000056 0.018955 -0.004201 0.000000 0.000000 0.000000
# 3 -0.001687 -0.004201 0.004355 0.000000 0.000000 0.000000
# 4 0.000000 0.000000 0.000000 0.119322 0.000000 0.000000
# 5 0.000000 0.000000 0.000000 0.000000 0.033182 0.000000
# 6 0.000000 0.000000 0.000000 0.000000 0.000000 0.033311
#
#
# Mechanical properties :
#
#
# Convention : Reuss Voigt Hill
#
# Bulk Modulus (GPa) = 52.56240 97.36044 74.96142
# Shear Modulus (GPa) = 21.32131 39.47891 30.40011
#
# Velocity S-wave (km/s) = 2.85794 3.88892 3.41259
# Velocity P-wave (km/s) = 5.57012 7.58038 6.65163
#
# Compressibility (1/GPa) = 0.01902501
#
# Stress axis : x y z
#
# Youngs Moduli (GPa) = 135.54685 52.75612 229.62887
#
# Poissons Ratio (x) = -0.00297 0.38739
# Poissons Ratio (y) = -0.00763 0.96456
# Poissons Ratio (z) = 0.22867 0.22160
#
# Static dielectric constant tensor:
#      x y z
#    x 2.214390 0.000000 0.000000 
#    y 0.000000 2.151710 0.000000 
#    z 0.000000 0.000000 2.255620 
# 
# From -- ./inp_files/54976.got.cif
#   From: 2010.05.17/outbox.cif.g08.bks.cpg/sg66_28_cif.got.tgz:54976.got - 2010.06.03 17:51:23.
