data_PCOD9497926
_publ_section_title
;
Structure prediction by ZEFSAII (Michael W. Deem and Ramdas Pophale) SiO2 
 PCOD9497926
Probable space group: C C C M
;
_chemical_formula_sum "Si O2"
_cell_formula_units_Z 64
_cell_length_a 18.944576
_cell_length_b 7.771889
_cell_length_c 19.038254
_cell_angle_alpha 90.000000
_cell_angle_beta 90.000000
_cell_angle_gamma 90.000000
_cell_volume 2803.100028
_symmetry_space_group_name_H-M "C C C M"
_symmetry_group_IT_number 66
_symmetry_cell_setting 'orthorhombic'
loop_
_space_group_symop_operation_xyz
x,y,z
-x,-y,z
x,-y,1/2-z
-x,y,1/2-z
-x,-y,-z
x,y,-z
-x,y,1/2+z
x,-y,1/2+z
1/2+x,1/2+y,z
1/2-x,1/2-y,z
1/2+x,1/2-y,1/2-z
1/2-x,1/2+y,1/2-z
1/2-x,1/2-y,-z
1/2+x,1/2+y,-z
1/2-x,1/2+y,1/2+z
1/2+x,1/2-y,1/2+z
loop_
_atom_site_type_symbol
_atom_site_label
_atom_site_fract_x
_atom_site_fract_y
_atom_site_fract_z
Si Si1 0.656996 0.464781 0.167844
Si Si2 0.218931 0.557519 0.578520
Si Si3 0.588077 0.156341 0.916892
Si Si4 0.550867 0.330472 0.578977
O O1 0.654911 0.500000 0.250000
O O2 0.735922 0.465913 0.138160
O O3 0.622237 0.291545 0.137319
O O4 0.611832 0.618347 0.132090
O O5 0.236095 0.489520 0.500000
O O6 0.250000 0.750000 0.579391
O O7 0.136143 0.514909 0.589144
O O8 0.504276 0.178474 0.905007
O O9 0.595772 0.208720 0.000000
O O10 0.500000 0.500000 0.578118
O O11 0.579772 0.310395 0.500000
#
# Coordination Sequence:
#
# PCOD9497926 Si02
#       4
#    16  16  16  16
#     4  11  21  32  53  84 118 157 200 249 309 380
#     4  10  21  37  56  81 114 153 202 261 319 374
#     4   9  18  35  59  83 110 149 198 251 307 368
#     4   8  15  30  53  81 110 143 191 247 296 352
#
# _framework density 22.831863999999999
#
# number of rings (size 3 to 8) (size 9 to 14) (size 15 to 20)
#    0.000    2.500    0.000    4.500    0.000    8.500 
#    0.000    1.250    0.000    6.000    0.000   10.500 
#    0.000    0.000    0.000    0.000    0.000    1.500 
#
# Total GULP energy -178591.532332 kJ/mol
# GULP energy per Si atom -5580.985385 kJ/mol
# Density = 2.277990 g / cm^3
# Si number density = 22.831864 Si / 1000 Ang^3
#
#
#
# Elastic Constant Matrix: (Units=GPa)
#
#
# Indices 1 2 3 4 5 6 
#
# 1 179.0929 39.1603 84.5853 0.0000 0.0000 0.0000
# 2 39.1603 114.8004 37.9413 0.0000 0.0000 0.0000
# 3 84.5853 37.9413 140.6337 0.0000 0.0000 0.0000
# 4 0.0000 0.0000 0.0000 10.8134 0.0000 0.0000
# 5 0.0000 0.0000 0.0000 0.0000 -83.4823 0.0000
# 6 0.0000 0.0000 0.0000 0.0000 0.0000 44.9342
#
#
#
# Elastic Compliance Matrix: (Units=1/GPa)
#
#
# Indices 1 2 3 4 5 6 
#
# 1 0.007958 -0.001244 -0.004451 0.000000 0.000000 0.000000
# 2 -0.001244 0.009758 -0.001885 0.000000 0.000000 0.000000
# 3 -0.004451 -0.001885 0.010296 0.000000 0.000000 0.000000
# 4 0.000000 0.000000 0.000000 0.092478 0.000000 0.000000
# 5 0.000000 0.000000 0.000000 0.000000 -0.011979 0.000000
# 6 0.000000 0.000000 0.000000 0.000000 0.000000 0.022255
#
#
# Mechanical properties :
#
#
# Convention : Reuss Voigt Hill
#
# Bulk Modulus (GPa) = 77.79797 84.21119 81.00458
# Shear Modulus (GPa) = 33.28720 12.64241 22.96480
#
# Velocity S-wave (km/s) = 3.82242 2.35567 3.17491
# Velocity P-wave (km/s) = 7.32322 6.66049 6.99970
#
# Compressibility (1/GPa) = 0.01285381
#
# Stress axis : x y z
#
# Youngs Moduli (GPa) = 125.66485 102.48195 97.12479
#
# Poissons Ratio (x) = 0.12744 0.43228
# Poissons Ratio (y) = 0.15627 0.18304
# Poissons Ratio (z) = 0.55930 0.19314
#
# Static dielectric constant tensor:
#      x y z
#    x 1.868240 0.000000 0.000000 
#    y 0.000000 1.992680 0.000000 
#    z 0.000000 0.000000 1.746860 
# 
# From -- ./inp_files/42385.got.cif
#   From: 2010.05.17/outbox.cif.g08.bks.cpg/sg66_22_cif.got.tgz:42385.got - 2010.06.03 17:51:23.
