data_PCOD9497320
_publ_section_title
;
Structure prediction by ZEFSAII (Michael W. Deem and Ramdas Pophale) SiO2 
 PCOD9497320
Probable space group: C C C M
;
_chemical_formula_sum "Si O2"
_cell_formula_units_Z 104
_cell_length_a 26.260655
_cell_length_b 10.660265
_cell_length_c 16.502351
_cell_angle_alpha 90.000000
_cell_angle_beta 90.000000
_cell_angle_gamma 90.000000
_cell_volume 4619.759585
_symmetry_space_group_name_H-M "C C C M"
_symmetry_group_IT_number 66
_symmetry_cell_setting 'orthorhombic'
loop_
_space_group_symop_operation_xyz
x,y,z
-x,-y,z
x,-y,1/2-z
-x,y,1/2-z
-x,-y,-z
x,y,-z
-x,y,1/2+z
x,-y,1/2+z
1/2+x,1/2+y,z
1/2-x,1/2-y,z
1/2+x,1/2-y,1/2-z
1/2-x,1/2+y,1/2-z
1/2-x,1/2-y,-z
1/2+x,1/2+y,-z
1/2-x,1/2+y,1/2+z
1/2+x,1/2-y,1/2+z
loop_
_atom_site_type_symbol
_atom_site_label
_atom_site_fract_x
_atom_site_fract_y
_atom_site_fract_z
Si Si1 0.794206 0.352540 0.404760
Si Si2 0.787042 0.639710 0.357949
Si Si3 0.337053 0.517028 0.413525
Si Si4 0.900624 0.736756 0.091692
Si Si5 0.725046 0.500000 0.250000
Si Si6 0.502820 0.351312 0.099697
Si Si7 0.389216 0.248336 0.408465
O O1 0.802386 0.327635 0.500000
O O2 0.750000 0.250000 0.383826
O O3 0.762446 0.385702 0.229463
O O4 0.851380 0.330187 0.368625
O O5 0.750000 0.750000 0.394251
O O6 0.782480 0.500571 0.395815
O O7 0.846069 0.673832 0.359836
O O8 0.308367 0.532742 0.500000
O O9 0.379705 0.621891 0.414927
O O10 0.309195 0.523907 0.327873
O O11 0.362885 0.383234 0.415863
O O12 0.955950 0.763961 0.128788
O O13 0.908892 0.684991 0.000000
O O14 0.500000 0.500000 0.123945
O O15 0.555097 0.281600 0.123866
O O16 0.501992 0.353076 0.000000
O O17 0.393002 0.193679 0.500000
#
# Coordination Sequence:
#
# PCOD9497320 Si02
#       7
#    16  16  16  16   8  16  16
#     4  10  22  38  60  94 138 186 236 284 347 427
#     4  12  26  43  63  95 131 181 231 293 362 424
#     4  10  20  38  67 100 136 180 227 286 352 416
#     4   9  17  33  59  95 137 184 228 277 344 417
#     4  12  26  42  62  99 137 182 226 296 354 426
#     4   9  15  28  59 100 142 182 228 286 352 417
#     4  10  20  36  64 105 139 173 230 294 354 427
#
# _framework density 22.511994000000001
#
# number of rings (size 3 to 8) (size 9 to 14) (size 15 to 20)
#    0.000    1.846    3.077    1.385    0.000    5.538 
#    0.000    0.769    0.000    6.000    0.000    1.077 
#    0.000    0.000    0.000    0.000    0.000    0.462 
#
# Total GULP energy -289546.194347 kJ/mol
# GULP energy per Si atom -5568.196045 kJ/mol
# Density = 2.246076 g / cm^3
# Si number density = 22.511994 Si / 1000 Ang^3
#
#
#
# Elastic Constant Matrix: (Units=GPa)
#
#
# Indices 1 2 3 4 5 6 
#
# 1 212.2375 53.1735 52.7088 0.0000 0.0000 0.0000
# 2 53.1735 114.4689 15.4549 0.0000 0.0000 0.0000
# 3 52.7088 15.4549 72.2035 0.0000 0.0000 0.0000
# 4 0.0000 0.0000 0.0000 26.2936 0.0000 0.0000
# 5 0.0000 0.0000 0.0000 0.0000 8.7178 0.0000
# 6 0.0000 0.0000 0.0000 0.0000 0.0000 32.2222
#
#
#
# Elastic Compliance Matrix: (Units=1/GPa)
#
#
# Indices 1 2 3 4 5 6 
#
# 1 0.006330 -0.002386 -0.004110 0.000000 0.000000 0.000000
# 2 -0.002386 0.009895 -0.000377 0.000000 0.000000 0.000000
# 3 -0.004110 -0.000377 0.016931 0.000000 0.000000 0.000000
# 4 0.000000 0.000000 0.000000 0.038032 0.000000 0.000000
# 5 0.000000 0.000000 0.000000 0.000000 0.114708 0.000000
# 6 0.000000 0.000000 0.000000 0.000000 0.000000 0.031035
#
#
# Mechanical properties :
#
#
# Convention : Reuss Voigt Hill
#
# Bulk Modulus (GPa) = 51.51693 71.28717 61.40205
# Shear Modulus (GPa) = 21.08407 31.95155 26.51781
#
# Velocity S-wave (km/s) = 3.06366 3.77146 3.43584
# Velocity P-wave (km/s) = 5.95387 7.12041 6.56311
#
# Compressibility (1/GPa) = 0.01941109
#
# Stress axis : x y z
#
# Youngs Moduli (GPa) = 157.97299 101.06134 59.06336
#
# Poissons Ratio (x) = 0.24109 0.24278
# Poissons Ratio (y) = 0.37685 0.02224
# Poissons Ratio (z) = 0.64934 0.03805
#
# Static dielectric constant tensor:
#      x y z
#    x 1.907920 0.000000 0.000000 
#    y 0.000000 1.775090 0.000000 
#    z 0.000000 0.000000 1.915060 
# 
# From -- ./inp_files/43720.got.cif
#   From: 2010.05.17/outbox.cif.g08.bks.cpg/sg66_22_cif.got.tgz:43720.got - 2010.06.03 17:51:23.
