data_PCOD9497945
_publ_section_title
;
Structure prediction by ZEFSAII (Michael W. Deem and Ramdas Pophale) SiO2 
 PCOD9497945
Probable space group: C C C M
;
_chemical_formula_sum "Si O2"
_cell_formula_units_Z 112
_cell_length_a 11.136520
_cell_length_b 20.478076
_cell_length_c 25.550180
_cell_angle_alpha 90.000000
_cell_angle_beta 90.000000
_cell_angle_gamma 90.000000
_cell_volume 5826.833600
_symmetry_space_group_name_H-M "C C C M"
_symmetry_group_IT_number 66
_symmetry_cell_setting 'orthorhombic'
loop_
_space_group_symop_operation_xyz
x,y,z
-x,-y,z
x,-y,1/2-z
-x,y,1/2-z
-x,-y,-z
x,y,-z
-x,y,1/2+z
x,-y,1/2+z
1/2+x,1/2+y,z
1/2-x,1/2-y,z
1/2+x,1/2-y,1/2-z
1/2-x,1/2+y,1/2-z
1/2-x,1/2-y,-z
1/2+x,1/2+y,-z
1/2-x,1/2+y,1/2+z
1/2+x,1/2-y,1/2+z
loop_
_atom_site_type_symbol
_atom_site_label
_atom_site_fract_x
_atom_site_fract_y
_atom_site_fract_z
Si Si1 0.328746 0.684834 0.709476
Si Si2 0.338529 0.451227 0.938971
Si Si3 0.763361 0.465893 0.804227
Si Si4 0.596446 0.421406 0.889999
Si Si5 0.060969 0.344040 0.692768
Si Si6 0.836971 0.408541 0.643628
Si Si7 0.402352 0.299908 0.327497
O O1 0.250000 0.750000 0.704241
O O2 0.257713 0.626944 0.682022
O O3 0.453925 0.694447 0.680037
O O4 0.354019 0.675694 0.771035
O O5 0.458424 0.428523 0.907521
O O6 0.334340 0.530247 0.930169
O O7 0.225101 0.415331 0.912861
O O8 0.351944 0.437369 0.000000
O O9 0.737216 0.500000 0.750000
O O10 0.640009 0.453674 0.835402
O O11 0.844589 0.401795 0.799497
O O12 0.844401 0.517603 0.836125
O O13 0.628538 0.346067 0.876834
O O14 0.120541 0.277705 0.671475
O O15 0.000000 0.330182 0.750000
O O16 0.959284 0.369656 0.652989
#
# Coordination Sequence:
#
# PCOD9497945 Si02
#       7
#    16  16  16  16  16  16  16
#     4  11  20  35  52  79 128 165 197 225 284 356
#     4  10  22  43  66  87 112 148 201 267 329 358
#     4  11  23  35  55  84 126 167 203 237 279 354
#     4  10  21  37  57  86 115 153 196 254 307 361
#     4  12  22  37  55  83 127 179 200 226 277 361
#     4  11  21  37  60  86 116 156 203 252 293 347
#     4  11  22  32  53  83 121 165 196 229 287 365
#
# _framework density 19.221418
#
# number of rings (size 3 to 8) (size 9 to 14) (size 15 to 20)
#    0.000    1.143    5.714    2.143    2.000    0.000 
#    0.000    0.714    0.000   12.429    0.000    9.000 
#    0.000    0.000    0.000    0.000    0.000    0.000 
#
# Total GULP energy -312439.612321 kJ/mol
# GULP energy per Si atom -5579.278791 kJ/mol
# Density = 1.917767 g / cm^3
# Si number density = 19.221418 Si / 1000 Ang^3
#
#
#
# Elastic Constant Matrix: (Units=GPa)
#
#
# Indices 1 2 3 4 5 6 
#
# 1 73.1027 27.5371 43.7066 0.0000 0.0000 0.0000
# 2 27.5371 125.2356 45.6631 0.0000 0.0000 0.0000
# 3 43.7066 45.6631 101.5834 0.0000 0.0000 0.0000
# 4 0.0000 0.0000 0.0000 18.4081 0.0000 0.0000
# 5 0.0000 0.0000 0.0000 0.0000 13.2960 0.0000
# 6 0.0000 0.0000 0.0000 0.0000 0.0000 30.1786
#
#
#
# Elastic Compliance Matrix: (Units=1/GPa)
#
#
# Indices 1 2 3 4 5 6 
#
# 1 0.018621 -0.001403 -0.007381 0.000000 0.000000 0.000000
# 2 -0.001403 0.009656 -0.003737 0.000000 0.000000 0.000000
# 3 -0.007381 -0.003737 0.014700 0.000000 0.000000 0.000000
# 4 0.000000 0.000000 0.000000 0.054324 0.000000 0.000000
# 5 0.000000 0.000000 0.000000 0.000000 0.075211 0.000000
# 6 0.000000 0.000000 0.000000 0.000000 0.000000 0.033136
#
#
# Mechanical properties :
#
#
# Convention : Reuss Voigt Hill
#
# Bulk Modulus (GPa) = 55.75817 59.30393 57.53105
# Shear Modulus (GPa) = 21.12670 24.57751 22.85211
#
# Velocity S-wave (km/s) = 3.31890 3.57970 3.45177
# Velocity P-wave (km/s) = 6.61499 6.92862 6.77362
#
# Compressibility (1/GPa) = 0.01793459
#
# Stress axis : x y z
#
# Youngs Moduli (GPa) = 53.70314 103.56277 68.02931
#
# Poissons Ratio (x) = 0.14532 0.50212
# Poissons Ratio (y) = 0.07536 0.25421
# Poissons Ratio (z) = 0.39638 0.38699
#
# Static dielectric constant tensor:
#      x y z
#    x 1.722040 0.000000 0.000000 
#    y 0.000000 1.747860 0.000000 
#    z 0.000000 0.000000 1.636350 
# 
# From -- ./inp_files/57180.got.cif
#   From: 2010.05.17/outbox.cif.g08.bks.cpg/sg66_29_cif.got.tgz:57180.got - 2010.06.03 17:51:23.
