data_PCOD9497904
_publ_section_title
;
Structure prediction by ZEFSAII (Michael W. Deem and Ramdas Pophale) SiO2 
 PCOD9497904
Probable space group: C C C M
;
_chemical_formula_sum "Si O2"
_cell_formula_units_Z 80
_cell_length_a 11.975553
_cell_length_b 29.373484
_cell_length_c 10.977315
_cell_angle_alpha 90.000000
_cell_angle_beta 90.000000
_cell_angle_gamma 90.000000
_cell_volume 3861.421099
_symmetry_space_group_name_H-M "C C C M"
_symmetry_group_IT_number 66
_symmetry_cell_setting 'orthorhombic'
loop_
_space_group_symop_operation_xyz
x,y,z
-x,-y,z
x,-y,1/2-z
-x,y,1/2-z
-x,-y,-z
x,y,-z
-x,y,1/2+z
x,-y,1/2+z
1/2+x,1/2+y,z
1/2-x,1/2-y,z
1/2+x,1/2-y,1/2-z
1/2-x,1/2+y,1/2-z
1/2-x,1/2-y,-z
1/2+x,1/2+y,-z
1/2-x,1/2+y,1/2+z
1/2+x,1/2-y,1/2+z
loop_
_atom_site_type_symbol
_atom_site_label
_atom_site_fract_x
_atom_site_fract_y
_atom_site_fract_z
Si Si1 0.419277 0.775533 0.000000
Si Si2 0.571984 0.386468 0.639714
Si Si3 0.204211 0.626309 0.000000
Si Si4 0.000000 0.693275 0.750000
Si Si5 0.431493 0.325294 0.500000
Si Si6 0.875482 0.479575 0.369556
Si Si7 0.325298 0.886087 0.268808
O O1 0.350965 0.823096 0.000000
O O2 0.483874 0.778559 0.127462
O O3 0.374875 0.723876 0.000000
O O4 0.500000 0.408430 0.750000
O O5 0.571463 0.406721 0.500000
O O6 0.511165 0.337932 0.613070
O O7 0.698724 0.381561 0.684616
O O8 0.335188 0.636791 0.000000
O O9 0.172876 0.601795 0.124948
O O10 0.894871 0.660196 0.775680
O O11 0.817041 0.500000 0.250000
O O12 0.821092 0.488531 0.500000
O O13 0.882090 0.425766 0.346221
O O14 0.000000 0.500000 0.373286
#
# Coordination Sequence:
#
# PCOD9497904 Si02
#       7
#     8  16   8   8   8  16  16
#     4  10  23  35  56  84 128 165 209 267 323 379
#     4  10  21  36  63  89 118 160 215 262 312 363
#     4  10  21  38  61  89 122 174 209 258 318 370
#     4  10  24  36  55  84 126 170 210 258 327 366
#     4  10  21  39  60  89 121 159 222 265 316 372
#     4  10  22  38  60  90 123 158 190 241 307 373
#     4  11  21  41  61  90 125 164 213 257 304 388
#
# _framework density 20.717760999999999
#
# number of rings (size 3 to 8) (size 9 to 14) (size 15 to 20)
#    0.600    1.200    2.000    2.100    5.600    0.000 
#    3.600    2.000    0.000    0.600    0.000    4.200 
#    0.000    0.000    0.000    0.000    0.000    0.000 
#
# Total GULP energy -222705.476354 kJ/mol
# GULP energy per Si atom -5567.636909 kJ/mol
# Density = 2.067061 g / cm^3
# Si number density = 20.717761 Si / 1000 Ang^3
#
#
#
# Elastic Constant Matrix: (Units=GPa)
#
#
# Indices 1 2 3 4 5 6 
#
# 1 86.0936 -1.8457 19.3127 0.0000 0.0000 0.0000
# 2 -1.8457 35.5879 13.6372 0.0000 0.0000 0.0000
# 3 19.3127 13.6372 190.0154 0.0000 0.0000 0.0000
# 4 0.0000 0.0000 0.0000 7.0492 0.0000 0.0000
# 5 0.0000 0.0000 0.0000 0.0000 19.8390 0.0000
# 6 0.0000 0.0000 0.0000 0.0000 0.0000 4.3881
#
#
#
# Elastic Compliance Matrix: (Units=1/GPa)
#
#
# Indices 1 2 3 4 5 6 
#
# 1 0.011929 0.001114 -0.001292 0.000000 0.000000 0.000000
# 2 0.001114 0.028998 -0.002194 0.000000 0.000000 0.000000
# 3 -0.001292 -0.002194 0.005552 0.000000 0.000000 0.000000
# 4 0.000000 0.000000 0.000000 0.141860 0.000000 0.000000
# 5 0.000000 0.000000 0.000000 0.000000 0.050406 0.000000
# 6 0.000000 0.000000 0.000000 0.000000 0.000000 0.227888
#
#
# Mechanical properties :
#
#
# Convention : Reuss Voigt Hill
#
# Bulk Modulus (GPa) = 23.96182 41.54503 32.75342
# Shear Modulus (GPa) = 10.30313 24.96144 17.63229
#
# Velocity S-wave (km/s) = 2.23246 3.47484 2.92048
# Velocity P-wave (km/s) = 4.27038 6.01629 5.21689
#
# Compressibility (1/GPa) = 0.04173305
#
# Stress axis : x y z
#
# Youngs Moduli (GPa) = 83.82892 34.48503 180.12909
#
# Poissons Ratio (x) = -0.03841 0.23280
# Poissons Ratio (y) = -0.09338 0.39527
# Poissons Ratio (z) = 0.10834 0.07567
#
# Static dielectric constant tensor:
#      x y z
#    x 1.699980 0.000000 0.000000 
#    y 0.000000 1.725860 0.000000 
#    z 0.000000 0.000000 1.831720 
# 
# From -- ./inp_files/15046.got.cif
#   From: 2010.05.17/outbox.cif.g08.bks.cpg/sg66_8_cif.got.tgz:15046.got - 2010.06.03 17:51:23.
