data_PCOD9497053
_publ_section_title
;
Structure prediction by ZEFSAII (Michael W. Deem and Ramdas Pophale) SiO2 
 PCOD9497053
Probable space group: C C C M
;
_chemical_formula_sum "Si O2"
_cell_formula_units_Z 48
_cell_length_a 7.344508
_cell_length_b 14.012834
_cell_length_c 23.950850
_cell_angle_alpha 90.000000
_cell_angle_beta 90.000000
_cell_angle_gamma 90.000000
_cell_volume 2464.958525
_symmetry_space_group_name_H-M "C C C M"
_symmetry_group_IT_number 66
_symmetry_cell_setting 'orthorhombic'
loop_
_space_group_symop_operation_xyz
x,y,z
-x,-y,z
x,-y,1/2-z
-x,y,1/2-z
-x,-y,-z
x,y,-z
-x,y,1/2+z
x,-y,1/2+z
1/2+x,1/2+y,z
1/2-x,1/2-y,z
1/2+x,1/2-y,1/2-z
1/2-x,1/2+y,1/2-z
1/2-x,1/2-y,-z
1/2+x,1/2+y,-z
1/2-x,1/2+y,1/2+z
1/2+x,1/2-y,1/2+z
loop_
_atom_site_type_symbol
_atom_site_label
_atom_site_fract_x
_atom_site_fract_y
_atom_site_fract_z
Si Si1 0.000000 0.500000 0.598162
Si Si2 0.250000 0.250000 0.844762
Si Si3 0.954678 0.711411 0.561837
Si Si4 0.704262 0.540717 0.191080
O O1 0.969327 0.596634 0.564138
O O2 0.826987 0.490077 0.639048
O O3 0.421099 0.244481 0.886911
O O4 0.279900 0.344749 0.808738
O O5 0.016274 0.744249 0.500000
O O6 0.750000 0.750000 0.569208
O O7 0.500000 0.500000 0.184079
O O8 0.772163 0.500000 0.250000
#
# Coordination Sequence:
#
# PCOD9497053 Si02
#       4
#     8   8  16  16
#     4  10  20  36  56  80 116 148 188 238 286 340
#     4  10  21  38  58  82 114 154 185 240 288 338
#     4  10  20  35  57  85 113 149 190 232 285 343
#     4  10  21  39  55  82 113 149 194 237 288 347
#
# _framework density 19.472944999999999
#
# number of rings (size 3 to 8) (size 9 to 14) (size 15 to 20)
#    0.000    2.000    0.000    3.500    0.000    0.000 
#   27.000    0.000    0.000   16.000    0.000    0.000 
#    0.000    0.000    0.000    0.000    0.000    0.000 
#
# Total GULP energy -133942.526999 kJ/mol
# GULP energy per Si atom -5580.938625 kJ/mol
# Density = 1.942862 g / cm^3
# Si number density = 19.472945 Si / 1000 Ang^3
#
#
#
# Elastic Constant Matrix: (Units=GPa)
#
#
# Indices 1 2 3 4 5 6 
#
# 1 96.6156 27.8920 32.3879 0.0000 0.0000 0.0000
# 2 27.8920 117.1465 64.6243 0.0000 0.0000 0.0000
# 3 32.3879 64.6243 101.5043 0.0000 0.0000 0.0000
# 4 0.0000 0.0000 0.0000 -193.6608 0.0000 0.0000
# 5 0.0000 0.0000 0.0000 0.0000 -2.7437 0.0000
# 6 0.0000 0.0000 0.0000 0.0000 0.0000 22.6670
#
#
#
# Elastic Compliance Matrix: (Units=1/GPa)
#
#
# Indices 1 2 3 4 5 6 
#
# 1 0.011684 -0.001118 -0.003016 0.000000 0.000000 0.000000
# 2 -0.001118 0.013264 -0.008088 0.000000 0.000000 0.000000
# 3 -0.003016 -0.008088 0.015964 0.000000 0.000000 0.000000
# 4 0.000000 0.000000 0.000000 -0.005164 0.000000 0.000000
# 5 0.000000 0.000000 0.000000 0.000000 -0.364468 0.000000
# 6 0.000000 0.000000 0.000000 0.000000 0.000000 0.044117
#
#
# Mechanical properties :
#
#
# Convention : Reuss Voigt Hill
#
# Bulk Modulus (GPa) = 60.72700 62.78607 61.75654
# Shear Modulus (GPa) = -19.63344 -22.05671 -20.84508
#
# Velocity S-wave (km/s) = -3.17873 -3.36919 -3.27534
# Velocity P-wave (km/s) = 4.21671 4.14457 4.18079
#
# Compressibility (1/GPa) = 0.01646714
#
# Stress axis : x y z
#
# Youngs Moduli (GPa) = 85.58553 75.38951 62.64154
#
# Poissons Ratio (x) = 0.08428 0.18896
# Poissons Ratio (y) = 0.09568 0.50666
# Poissons Ratio (z) = 0.25817 0.60977
#
# Static dielectric constant tensor:
#      x y z
#    x 1.676460 0.000000 0.000000 
#    y 0.000000 1.675000 0.000000 
#    z 0.000000 0.000000 1.658950 
# 
# From -- ./inp_files/35771.got.cif
#   From: 2010.05.17/outbox.cif.g08.bks.cpg/sg66_18_cif.got.tgz:35771.got - 2010.06.03 17:51:23.
