data_PCOD9497155
_publ_section_title
;
Structure prediction by ZEFSAII (Michael W. Deem and Ramdas Pophale) SiO2 
 PCOD9497155
Probable space group: C C C M
;
_chemical_formula_sum "Si O2"
_cell_formula_units_Z 80
_cell_length_a 26.956396
_cell_length_b 19.363986
_cell_length_c 8.644855
_cell_angle_alpha 90.000000
_cell_angle_beta 90.000000
_cell_angle_gamma 90.000000
_cell_volume 4512.469723
_symmetry_space_group_name_H-M "C C C M"
_symmetry_group_IT_number 66
_symmetry_cell_setting 'orthorhombic'
loop_
_space_group_symop_operation_xyz
x,y,z
-x,-y,z
x,-y,1/2-z
-x,y,1/2-z
-x,-y,-z
x,y,-z
-x,y,1/2+z
x,-y,1/2+z
1/2+x,1/2+y,z
1/2-x,1/2-y,z
1/2+x,1/2-y,1/2-z
1/2-x,1/2+y,1/2-z
1/2-x,1/2-y,-z
1/2+x,1/2+y,-z
1/2-x,1/2+y,1/2+z
1/2+x,1/2-y,1/2+z
loop_
_atom_site_type_symbol
_atom_site_label
_atom_site_fract_x
_atom_site_fract_y
_atom_site_fract_z
Si Si1 0.253441 0.421811 0.814398
Si Si2 0.144086 0.577687 0.313219
Si Si3 0.143951 0.077973 0.315656
Si Si4 0.053236 0.327654 0.813649
Si Si5 0.446371 0.666664 0.685759
O O1 0.252129 0.500000 0.750000
O O2 0.198962 0.393336 0.772536
O O3 0.303531 0.391080 0.743459
O O4 0.258112 0.422797 0.000000
O O5 0.139286 0.500000 0.250000
O O6 0.142583 0.574113 0.500000
O O7 0.098977 0.625551 0.259578
O O8 0.144234 0.074917 0.500000
O O9 0.097911 0.121864 0.254609
O O10 0.140152 0.000000 0.250000
O O11 0.060130 0.247344 0.769851
O O12 0.000000 0.351021 0.750000
O O13 0.051681 0.330514 0.000000
O O14 0.500000 0.644360 0.750000
O O15 0.446211 0.661698 0.500000
#
# Coordination Sequence:
#
# PCOD9497155 Si02
#       5
#    16  16  16  16  16
#     4   9  16  29  49  72 100 132 165 202 247 294
#     4   9  18  32  51  76 103 133 169 208 249 294
#     4  11  21  34  53  77 103 130 164 204 247 296
#     4   9  19  35  53  73 100 134 170 207 250 299
#     4  10  20  36  55  74  99 132 168 206 250 297
#
# _framework density 17.728650999999999
#
# number of rings (size 3 to 8) (size 9 to 14) (size 15 to 20)
#    0.000    2.400    0.000    4.200    0.000    3.200 
#    0.000    5.000    0.000    6.000    0.000    0.000 
#    0.000    0.000    0.000    0.000    0.000    0.000 
#
# Total GULP energy -223018.223185 kJ/mol
# GULP energy per Si atom -5575.455580 kJ/mol
# Density = 1.768830 g / cm^3
# Si number density = 17.728651 Si / 1000 Ang^3
#
#
#
# Elastic Constant Matrix: (Units=GPa)
#
#
# Indices 1 2 3 4 5 6 
#
# 1 227.0087 79.9638 59.1809 0.0000 0.0000 0.0000
# 2 79.9638 48.6496 24.8468 0.0000 0.0000 0.0000
# 3 59.1809 24.8468 68.9684 0.0000 0.0000 0.0000
# 4 0.0000 0.0000 0.0000 12.7373 0.0000 0.0000
# 5 0.0000 0.0000 0.0000 0.0000 32.8650 0.0000
# 6 0.0000 0.0000 0.0000 0.0000 0.0000 29.2125
#
#
#
# Elastic Compliance Matrix: (Units=1/GPa)
#
#
# Indices 1 2 3 4 5 6 
#
# 1 0.011161 -0.016487 -0.003637 0.000000 0.000000 0.000000
# 2 -0.016487 0.049546 -0.003702 0.000000 0.000000 0.000000
# 3 -0.003637 -0.003702 0.018954 0.000000 0.000000 0.000000
# 4 0.000000 0.000000 0.000000 0.078509 0.000000 0.000000
# 5 0.000000 0.000000 0.000000 0.000000 0.030427 0.000000
# 6 0.000000 0.000000 0.000000 0.000000 0.000000 0.034232
#
#
# Mechanical properties :
#
#
# Convention : Reuss Voigt Hill
#
# Bulk Modulus (GPa) = 31.24256 74.73441 52.98849
# Shear Modulus (GPa) = 17.78398 27.00532 22.39465
#
# Velocity S-wave (km/s) = 3.17064 3.90713 3.55799
# Velocity P-wave (km/s) = 5.57359 7.91204 6.84343
#
# Compressibility (1/GPa) = 0.03200762
#
# Stress axis : x y z
#
# Youngs Moduli (GPa) = 89.59749 20.18345 52.75873
#
# Poissons Ratio (x) = 0.33277 0.19190
# Poissons Ratio (y) = 1.47722 0.19531
# Poissons Ratio (z) = 0.32590 0.07472
#
# Static dielectric constant tensor:
#      x y z
#    x 1.635240 0.000000 0.000000 
#    y 0.000000 1.673360 0.000000 
#    z 0.000000 0.000000 1.596360 
# 
# From -- ./inp_files/6714.got.cif
#   From: 2010.05.17/outbox.cif.g08.bks.cpg/sg66_4_cif.got.tgz:6714.got - 2010.06.03 17:51:23.
