data_PCOD9497209
_publ_section_title
;
Structure prediction by ZEFSAII (Michael W. Deem and Ramdas Pophale) SiO2 
 PCOD9497209
Probable space group: C C C M
;
_chemical_formula_sum "Si O2"
_cell_formula_units_Z 104
_cell_length_a 22.722357
_cell_length_b 16.754291
_cell_length_c 13.849738
_cell_angle_alpha 90.000000
_cell_angle_beta 90.000000
_cell_angle_gamma 90.000000
_cell_volume 5272.553450
_symmetry_space_group_name_H-M "C C C M"
_symmetry_group_IT_number 66
_symmetry_cell_setting 'orthorhombic'
loop_
_space_group_symop_operation_xyz
x,y,z
-x,-y,z
x,-y,1/2-z
-x,y,1/2-z
-x,-y,-z
x,y,-z
-x,y,1/2+z
x,-y,1/2+z
1/2+x,1/2+y,z
1/2-x,1/2-y,z
1/2+x,1/2-y,1/2-z
1/2-x,1/2+y,1/2-z
1/2-x,1/2-y,-z
1/2+x,1/2+y,-z
1/2-x,1/2+y,1/2+z
1/2+x,1/2-y,1/2+z
loop_
_atom_site_type_symbol
_atom_site_label
_atom_site_fract_x
_atom_site_fract_y
_atom_site_fract_z
Si Si1 0.652574 0.776843 0.788152
Si Si2 0.069152 0.980179 0.609311
Si Si3 0.178894 0.743866 0.500000
Si Si4 0.630600 0.388364 0.227478
Si Si5 0.238416 0.579660 0.702402
Si Si6 0.935318 0.454260 0.000000
Si Si7 0.566497 0.089678 0.217644
Si Si8 0.317931 0.936540 0.500000
O O1 0.658112 0.732045 0.892599
O O2 0.637420 0.706115 0.714315
O O3 0.709821 0.833599 0.775315
O O4 0.603390 0.844357 0.774355
O O5 0.082745 0.955726 0.500000
O O6 0.107239 0.058293 0.639043
O O7 0.085844 0.913092 0.687019
O O8 0.000000 0.000000 0.616166
O O9 0.250000 0.750000 0.500000
O O10 0.157463 0.652708 0.500000
O O11 0.694817 0.415251 0.263478
O O12 0.211981 0.500000 0.750000
O O13 0.224869 0.561478 0.591457
O O14 0.930957 0.406942 0.101185
O O15 0.000000 0.500000 0.000000
O O16 0.875458 0.508088 0.000000
O O17 0.500000 0.099639 0.250000
O O18 0.583561 0.000000 0.250000
#
# Coordination Sequence:
#
# PCOD9497209 Si02
#       8
#    16  16   8  16  16   8  16   8
#     4  11  23  37  60  94 138 163 210 271 330 377
#     4  10  23  45  71  91 121 161 212 269 328 395
#     4  10  20  36  58  92 124 165 207 264 328 380
#     4  11  22  39  66  97 123 160 206 265 325 398
#     4  11  21  37  62  91 129 170 208 256 319 383
#     4  12  22  40  66  87 124 183 238 269 310 395
#     4  11  23  39  62  88 125 178 229 266 322 384
#     4  10  22  34  58  87 124 158 221 263 308 366
#
# _framework density 19.724786999999999
#
# number of rings (size 3 to 8) (size 9 to 14) (size 15 to 20)
#    0.000    1.231    3.077    6.462    2.154    1.231 
#    1.385    0.000    0.000    0.923    0.000    0.000 
#    0.000    0.000    0.000    0.000    0.000    0.000 
#
# Total GULP energy -289711.799276 kJ/mol
# GULP energy per Si atom -5571.380755 kJ/mol
# Density = 1.967989 g / cm^3
# Si number density = 19.724787 Si / 1000 Ang^3
#
#
#
# Elastic Constant Matrix: (Units=GPa)
#
#
# Indices 1 2 3 4 5 6 
#
# 1 109.5380 14.1017 3.6269 0.0000 0.0000 0.0000
# 2 14.1017 88.8529 -0.1099 0.0000 0.0000 0.0000
# 3 3.6269 -0.1099 64.7132 0.0000 0.0000 0.0000
# 4 0.0000 0.0000 0.0000 19.2425 0.0000 0.0000
# 5 0.0000 0.0000 0.0000 0.0000 16.5802 0.0000
# 6 0.0000 0.0000 0.0000 0.0000 0.0000 19.4177
#
#
#
# Elastic Compliance Matrix: (Units=1/GPa)
#
#
# Indices 1 2 3 4 5 6 
#
# 1 0.009338 -0.001483 -0.000526 0.000000 0.000000 0.000000
# 2 -0.001483 0.011490 0.000103 0.000000 0.000000 0.000000
# 3 -0.000526 0.000103 0.015482 0.000000 0.000000 0.000000
# 4 0.000000 0.000000 0.000000 0.051968 0.000000 0.000000
# 5 0.000000 0.000000 0.000000 0.000000 0.060313 0.000000
# 6 0.000000 0.000000 0.000000 0.000000 0.000000 0.051499
#
#
# Mechanical properties :
#
#
# Convention : Reuss Voigt Hill
#
# Bulk Modulus (GPa) = 30.77084 33.14905 31.95995
# Shear Modulus (GPa) = 23.28453 27.41377 25.34915
#
# Velocity S-wave (km/s) = 3.43952 3.73206 3.58878
# Velocity P-wave (km/s) = 5.60426 5.95091 5.78018
#
# Compressibility (1/GPa) = 0.03249830
#
# Stress axis : x y z
#
# Youngs Moduli (GPa) = 107.09466 87.03229 64.58925
#
# Poissons Ratio (x) = 0.12903 0.03396
# Poissons Ratio (y) = 0.15878 -0.00663
# Poissons Ratio (z) = 0.05632 -0.00893
#
# Static dielectric constant tensor:
#      x y z
#    x 1.655210 0.000000 0.000000 
#    y 0.000000 2.055230 0.000000 
#    z 0.000000 0.000000 1.304050 
# 
# From -- ./inp_files/31399.got.cif
#   From: 2010.05.17/outbox.cif.g08.bks.cpg/sg66_16_cif.got.tgz:31399.got - 2010.06.03 17:51:23.
