data_PCOD9497529
_publ_section_title
;
Structure prediction by ZEFSAII (Michael W. Deem and Ramdas Pophale) SiO2 
 PCOD9497529
Probable space group: C C C M
;
_chemical_formula_sum "Si O2"
_cell_formula_units_Z 80
_cell_length_a 18.607885
_cell_length_b 26.281654
_cell_length_c 8.738489
_cell_angle_alpha 90.000000
_cell_angle_beta 90.000000
_cell_angle_gamma 90.000000
_cell_volume 4273.523050
_symmetry_space_group_name_H-M "C C C M"
_symmetry_group_IT_number 66
_symmetry_cell_setting 'orthorhombic'
loop_
_space_group_symop_operation_xyz
x,y,z
-x,-y,z
x,-y,1/2-z
-x,y,1/2-z
-x,-y,-z
x,y,-z
-x,y,1/2+z
x,-y,1/2+z
1/2+x,1/2+y,z
1/2-x,1/2-y,z
1/2+x,1/2-y,1/2-z
1/2-x,1/2+y,1/2-z
1/2-x,1/2-y,-z
1/2+x,1/2+y,-z
1/2-x,1/2+y,1/2+z
1/2+x,1/2-y,1/2+z
loop_
_atom_site_type_symbol
_atom_site_label
_atom_site_fract_x
_atom_site_fract_y
_atom_site_fract_z
Si Si1 0.420051 0.848238 0.315171
Si Si2 0.659831 0.444872 0.316240
Si Si3 0.827645 0.445241 0.315907
Si Si4 0.334064 0.746102 0.315501
Si Si5 0.079162 0.848135 0.817698
O O1 0.500000 0.846578 0.250000
O O2 0.423385 0.849406 0.500000
O O3 0.377462 0.898784 0.263915
O O4 0.375528 0.797808 0.272501
O O5 0.639754 0.500000 0.250000
O O6 0.654034 0.445019 0.500000
O O7 0.743965 0.436013 0.275092
O O8 0.612060 0.400327 0.247048
O O9 0.849190 0.500000 0.250000
O O10 0.830995 0.447701 0.500000
O O11 0.339495 0.739896 0.500000
O O12 0.250000 0.750000 0.277291
O O13 0.370754 0.698122 0.236598
O O14 0.000000 0.840168 0.750000
O O15 0.075687 0.850058 0.000000
#
# Coordination Sequence:
#
# PCOD9497529 Si02
#       5
#    16  16  16  16  16
#     4  10  21  36  55  81 113 149 187 229 281 337
#     4  10  20  38  62  87 115 149 191 238 288 342
#     4   9  19  36  58  83 112 148 189 232 279 333
#     4  10  21  40  64  86 112 149 191 238 293 349
#     4  12  25  40  59  86 119 154 193 237 287 343
#
# _framework density 18.719918
#
# number of rings (size 3 to 8) (size 9 to 14) (size 15 to 20)
#    0.000    1.800    0.000    4.200    0.000    8.400 
#    0.000    6.000    0.000    0.000    0.000    0.000 
#    0.000    0.000    0.000    0.000    0.000    0.000 
#
# Total GULP energy -223576.778274 kJ/mol
# GULP energy per Si atom -5589.419457 kJ/mol
# Density = 1.867731 g / cm^3
# Si number density = 18.719918 Si / 1000 Ang^3
#
#
#
# Elastic Constant Matrix: (Units=GPa)
#
#
# Indices 1 2 3 4 5 6 
#
# 1 139.5971 102.9598 61.5486 0.0000 0.0000 0.0000
# 2 102.9598 162.1745 67.9615 0.0000 0.0000 0.0000
# 3 61.5486 67.9615 61.6179 0.0000 0.0000 0.0000
# 4 0.0000 0.0000 0.0000 35.3605 0.0000 0.0000
# 5 0.0000 0.0000 0.0000 0.0000 26.9903 0.0000
# 6 0.0000 0.0000 0.0000 0.0000 0.0000 -63.6758
#
#
#
# Elastic Compliance Matrix: (Units=1/GPa)
#
#
# Indices 1 2 3 4 5 6 
#
# 1 0.015622 -0.006283 -0.008675 0.000000 0.000000 0.000000
# 2 -0.006283 0.013992 -0.009157 0.000000 0.000000 0.000000
# 3 -0.008675 -0.009157 0.034995 0.000000 0.000000 0.000000
# 4 0.000000 0.000000 0.000000 0.028280 0.000000 0.000000
# 5 0.000000 0.000000 0.000000 0.000000 0.037050 0.000000
# 6 0.000000 0.000000 0.000000 0.000000 0.000000 -0.015705
#
#
# Mechanical properties :
#
#
# Convention : Reuss Voigt Hill
#
# Bulk Modulus (GPa) = 61.05445 92.03659 76.54552
# Shear Modulus (GPa) = 29.77527 8.46296 19.11911
#
# Velocity S-wave (km/s) = 3.99252 2.12853 3.19928
# Velocity P-wave (km/s) = 7.34432 7.43725 7.39093
#
# Compressibility (1/GPa) = 0.01637882
#
# Stress axis : x y z
#
# Youngs Moduli (GPa) = 64.01213 71.46785 28.57585
#
# Poissons Ratio (x) = 0.44900 0.24790
# Poissons Ratio (y) = 0.40216 0.26168
# Poissons Ratio (z) = 0.55532 0.65446
#
# Static dielectric constant tensor:
#      x y z
#    x 1.621280 0.000000 0.000000 
#    y 0.000000 1.619990 0.000000 
#    z 0.000000 0.000000 1.627950 
# 
# From -- ./inp_files/6741.got.cif
#   From: 2010.05.17/outbox.cif.g08.bks.cpg/sg66_4_cif.got.tgz:6741.got - 2010.06.03 17:51:23.
