data_PCOD9497491
_publ_section_title
;
Structure prediction by ZEFSAII (Michael W. Deem and Ramdas Pophale) SiO2 
 PCOD9497491
Probable space group: C C C M
;
_chemical_formula_sum "Si O2"
_cell_formula_units_Z 84
_cell_length_a 12.091144
_cell_length_b 26.335353
_cell_length_c 14.027235
_cell_angle_alpha 90.000000
_cell_angle_beta 90.000000
_cell_angle_gamma 90.000000
_cell_volume 4466.615928
_symmetry_space_group_name_H-M "C C C M"
_symmetry_group_IT_number 66
_symmetry_cell_setting 'orthorhombic'
loop_
_space_group_symop_operation_xyz
x,y,z
-x,-y,z
x,-y,1/2-z
-x,y,1/2-z
-x,-y,-z
x,y,-z
-x,y,1/2+z
x,-y,1/2+z
1/2+x,1/2+y,z
1/2-x,1/2-y,z
1/2+x,1/2-y,1/2-z
1/2-x,1/2+y,1/2-z
1/2-x,1/2-y,-z
1/2+x,1/2+y,-z
1/2-x,1/2+y,1/2+z
1/2+x,1/2-y,1/2+z
loop_
_atom_site_type_symbol
_atom_site_label
_atom_site_fract_x
_atom_site_fract_y
_atom_site_fract_z
Si Si1 0.371567 0.068311 0.105624
Si Si2 0.338700 0.600895 0.713935
Si Si3 0.500000 0.000000 0.750000
Si Si4 0.454269 0.442167 0.387115
Si Si5 0.518799 0.179268 0.392140
Si Si6 0.191304 0.698049 0.762931
O O1 0.248139 0.077508 0.140338
O O2 0.426203 0.033624 0.182773
O O3 0.437462 0.121458 0.106116
O O4 0.374741 0.046430 0.000000
O O5 0.452886 0.596810 0.654266
O O6 0.355844 0.568697 0.811727
O O7 0.283624 0.654891 0.742331
O O8 0.500000 0.500000 0.375847
O O9 0.431350 0.434485 0.500000
O O10 0.512030 0.198301 0.500000
O O11 0.613728 0.206884 0.330275
O O12 0.400127 0.181217 0.340676
O O13 0.250000 0.750000 0.790925
#
# Coordination Sequence:
#
# PCOD9497491 Si02
#       6
#    16  16   4  16  16  16
#     4  10  21  37  56  80 112 151 187 226 282 340
#     4  10  20  38  58  78 115 155 186 233 293 346
#     4  12  22  32  56  88 112 136 186 240 272 324
#     4  10  22  38  57  85 117 152 197 244 291 350
#     4   9  20  40  57  77 115 152 183 231 288 340
#     4  10  21  37  59  87 112 148 193 243 290 346
#
# _framework density 18.806183999999998
#
# number of rings (size 3 to 8) (size 9 to 14) (size 15 to 20)
#    0.000    2.095    0.000    4.286    2.667    5.333 
#    0.000    2.857    0.000    0.000    0.000    0.000 
#    0.000    0.000    0.000    0.000    0.000    0.000 
#
# Total GULP energy -234106.496598 kJ/mol
# GULP energy per Si atom -5573.964205 kJ/mol
# Density = 1.876338 g / cm^3
# Si number density = 18.806184 Si / 1000 Ang^3
#
#
#
# Elastic Constant Matrix: (Units=GPa)
#
#
# Indices 1 2 3 4 5 6 
#
# 1 63.0816 25.0213 32.3579 0.0000 0.0000 0.0000
# 2 25.0213 23.3857 17.0112 0.0000 0.0000 0.0000
# 3 32.3579 17.0112 153.9572 0.0000 0.0000 0.0000
# 4 0.0000 0.0000 0.0000 18.6919 0.0000 0.0000
# 5 0.0000 0.0000 0.0000 0.0000 15.1754 0.0000
# 6 0.0000 0.0000 0.0000 0.0000 0.0000 16.6069
#
#
#
# Elastic Compliance Matrix: (Units=1/GPa)
#
#
# Indices 1 2 3 4 5 6 
#
# 1 0.028658 -0.028577 -0.002865 0.000000 0.000000 0.000000
# 2 -0.028577 0.074996 -0.002280 0.000000 0.000000 0.000000
# 3 -0.002865 -0.002280 0.007350 0.000000 0.000000 0.000000
# 4 0.000000 0.000000 0.000000 0.053499 0.000000 0.000000
# 5 0.000000 0.000000 0.000000 0.000000 0.065896 0.000000
# 6 0.000000 0.000000 0.000000 0.000000 0.000000 0.060216
#
#
# Mechanical properties :
#
#
# Convention : Reuss Voigt Hill
#
# Bulk Modulus (GPa) = 22.95858 43.24502 33.10180
# Shear Modulus (GPa) = 13.41994 21.16377 17.29186
#
# Velocity S-wave (km/s) = 2.67421 3.35828 3.03558
# Velocity P-wave (km/s) = 4.66580 6.17110 5.47047
#
# Compressibility (1/GPa) = 0.04355670
#
# Stress axis : x y z
#
# Youngs Moduli (GPa) = 34.89480 13.33403 136.06335
#
# Poissons Ratio (x) = 0.38105 0.38989
# Poissons Ratio (y) = 0.99720 0.31027
# Poissons Ratio (z) = 0.09999 0.03041
#
# Static dielectric constant tensor:
#      x y z
#    x 1.496390 0.000000 0.000000 
#    y 0.000000 1.624580 0.000000 
#    z 0.000000 0.000000 1.661740 
# 
# From -- ./inp_files/26546.got.cif
#   From: 2010.05.17/outbox.cif.g08.bks.cpg/sg66_14_cif.got.tgz:26546.got - 2010.06.03 17:51:23.
