data_PCOD9497459
_publ_section_title
;
Structure prediction by ZEFSAII (Michael W. Deem and Ramdas Pophale) SiO2 
 PCOD9497459
Probable space group: C C C M
;
_chemical_formula_sum "Si O2"
_cell_formula_units_Z 64
_cell_length_a 7.162469
_cell_length_b 23.521971
_cell_length_c 15.822587
_cell_angle_alpha 90.000000
_cell_angle_beta 90.000000
_cell_angle_gamma 90.000000
_cell_volume 2665.716486
_symmetry_space_group_name_H-M "C C C M"
_symmetry_group_IT_number 66
_symmetry_cell_setting 'orthorhombic'
loop_
_space_group_symop_operation_xyz
x,y,z
-x,-y,z
x,-y,1/2-z
-x,y,1/2-z
-x,-y,-z
x,y,-z
-x,y,1/2+z
x,-y,1/2+z
1/2+x,1/2+y,z
1/2-x,1/2-y,z
1/2+x,1/2-y,1/2-z
1/2-x,1/2+y,1/2-z
1/2-x,1/2-y,-z
1/2+x,1/2+y,-z
1/2-x,1/2+y,1/2+z
1/2+x,1/2-y,1/2+z
loop_
_atom_site_type_symbol
_atom_site_label
_atom_site_fract_x
_atom_site_fract_y
_atom_site_fract_z
Si Si1 0.692046 0.901854 0.273348
Si Si2 0.355568 0.382030 0.905894
Si Si3 0.725738 0.989262 0.407827
Si Si4 0.251224 0.816212 0.094646
O O1 0.500000 0.931425 0.250000
O O2 0.781999 0.874657 0.190521
O O3 0.636400 0.852216 0.338005
O O4 0.790985 0.949524 0.330783
O O5 0.330935 0.450741 0.908131
O O6 0.548242 0.346491 0.904613
O O7 0.272676 0.365865 0.000000
O O8 0.760367 0.961047 0.500000
O O9 0.500000 0.000000 0.405315
O O10 0.250000 0.750000 0.116576
O O11 0.327121 0.820736 0.000000
#
# Coordination Sequence:
#
# PCOD9497459 Si02
#       4
#    16  16  16  16
#     4  12  23  36  66 101 141 183 231 283 351 426
#     4  10  22  40  66  97 137 186 233 286 350 419
#     4  10  20  37  63  98 144 184 224 275 338 418
#     4  10  24  47  68  91 129 177 238 306 361 414
#
# _framework density 24.008555999999999
#
# number of rings (size 3 to 8) (size 9 to 14) (size 15 to 20)
#    0.000    1.500    2.500    2.250    0.000    4.000 
#    0.000    6.250    0.000    5.250    0.000    0.000 
#    0.000    0.000    0.000    0.000    0.000    0.000 
#
# Total GULP energy -178362.928840 kJ/mol
# GULP energy per Si atom -5573.841526 kJ/mol
# Density = 2.395391 g / cm^3
# Si number density = 24.008556 Si / 1000 Ang^3
#
#
#
# Elastic Constant Matrix: (Units=GPa)
#
#
# Indices 1 2 3 4 5 6 
#
# 1 94.9350 32.1552 17.7653 0.0000 0.0000 0.0000
# 2 32.1552 137.5151 40.0037 0.0000 0.0000 0.0000
# 3 17.7653 40.0037 142.7758 0.0000 0.0000 0.0000
# 4 0.0000 0.0000 0.0000 29.3558 0.0000 0.0000
# 5 0.0000 0.0000 0.0000 0.0000 3.7380 0.0000
# 6 0.0000 0.0000 0.0000 0.0000 0.0000 20.8805
#
#
#
# Elastic Compliance Matrix: (Units=1/GPa)
#
#
# Indices 1 2 3 4 5 6 
#
# 1 0.011511 -0.002477 -0.000738 0.000000 0.000000 0.000000
# 2 -0.002477 0.008450 -0.002059 0.000000 0.000000 0.000000
# 3 -0.000738 -0.002059 0.007673 0.000000 0.000000 0.000000
# 4 0.000000 0.000000 0.000000 0.034065 0.000000 0.000000
# 5 0.000000 0.000000 0.000000 0.000000 0.267524 0.000000
# 6 0.000000 0.000000 0.000000 0.000000 0.000000 0.047892
#
#
# Mechanical properties :
#
#
# Convention : Reuss Voigt Hill
#
# Bulk Modulus (GPa) = 58.53203 61.67493 60.10348
# Shear Modulus (GPa) = 12.71108 29.81497 21.26303
#
# Velocity S-wave (km/s) = 2.30345 3.52781 2.97921
# Velocity P-wave (km/s) = 5.61312 6.50680 6.07641
#
# Compressibility (1/GPa) = 0.01708466
#
# Stress axis : x y z
#
# Youngs Moduli (GPa) = 86.87668 118.34089 130.32923
#
# Poissons Ratio (x) = 0.29310 0.09622
# Poissons Ratio (y) = 0.21517 0.26840
# Poissons Ratio (z) = 0.06414 0.24372
#
# Static dielectric constant tensor:
#      x y z
#    x 2.039470 0.000000 0.000000 
#    y 0.000000 1.862740 0.000000 
#    z 0.000000 0.000000 2.020210 
# 
# From -- ./inp_files/24165.got.cif
#   From: 2010.05.17/outbox.cif.g08.bks.cpg/sg66_13_cif.got.tgz:24165.got - 2010.06.03 17:51:23.
