data_PCOD9497285
_publ_section_title
;
Structure prediction by ZEFSAII (Michael W. Deem and Ramdas Pophale) SiO2 
 PCOD9497285
Probable space group: C C C M
;
_chemical_formula_sum "Si O2"
_cell_formula_units_Z 116
_cell_length_a 28.540482
_cell_length_b 23.134115
_cell_length_c 9.190204
_cell_angle_alpha 90.000000
_cell_angle_beta 90.000000
_cell_angle_gamma 90.000000
_cell_volume 6067.912998
_symmetry_space_group_name_H-M "C C C M"
_symmetry_group_IT_number 66
_symmetry_cell_setting 'orthorhombic'
loop_
_space_group_symop_operation_xyz
x,y,z
-x,-y,z
x,-y,1/2-z
-x,y,1/2-z
-x,-y,-z
x,y,-z
-x,y,1/2+z
x,-y,1/2+z
1/2+x,1/2+y,z
1/2-x,1/2-y,z
1/2+x,1/2-y,1/2-z
1/2-x,1/2+y,1/2-z
1/2-x,1/2-y,-z
1/2+x,1/2+y,-z
1/2-x,1/2+y,1/2+z
1/2+x,1/2-y,1/2+z
loop_
_atom_site_type_symbol
_atom_site_label
_atom_site_fract_x
_atom_site_fract_y
_atom_site_fract_z
Si Si1 0.952403 0.235080 0.329210
Si Si2 0.225826 0.311066 0.658665
Si Si3 0.426191 0.601351 0.664476
Si Si4 0.615668 0.822535 0.330918
Si Si5 0.500000 0.500000 0.750000
Si Si6 0.843129 0.942901 0.671592
Si Si7 0.361085 0.940739 0.674677
Si Si8 0.251895 0.914789 0.332053
O O1 0.952873 0.249161 0.500000
O O2 0.948107 0.165234 0.318929
O O3 0.912320 0.272265 0.250607
O O4 0.000000 0.252220 0.250000
O O5 0.236019 0.340213 0.500000
O O6 0.250000 0.250000 0.657183
O O7 0.170328 0.305461 0.668347
O O8 0.244115 0.347462 0.793685
O O9 0.407208 0.596683 0.500000
O O10 0.463422 0.547966 0.681728
O O11 0.382672 0.601441 0.775959
O O12 0.600763 0.828729 0.500000
O O13 0.615348 0.884322 0.247442
O O14 0.842145 0.947655 0.500000
O O15 0.790938 0.934954 0.733110
O O16 0.861469 0.000000 0.750000
O O17 0.367572 0.941050 0.500000
O O18 0.304466 0.936761 0.701631
O O19 0.377336 0.000000 0.750000
O O20 0.241543 0.927165 0.500000
#
# Coordination Sequence:
#
# PCOD9497285 Si02
#       8
#    16  16  16  16   4  16  16  16
#     4  11  24  43  65  92 123 157 203 255 313 373
#     4   9  19  35  54  81 116 159 205 249 299 358
#     4  11  25  42  63  90 118 154 201 256 314 373
#     4  10  21  38  61  90 125 163 206 253 306 368
#     4  12  22  44  72  90 118 156 204 264 318 376
#     4  12  25  39  57  81 114 153 197 248 304 361
#     4  10  20  36  61  92 125 164 205 250 301 360
#     4  10  21  36  55  82 118 158 202 248 298 356
#
# _framework density 19.116952000000001
#
# number of rings (size 3 to 8) (size 9 to 14) (size 15 to 20)
#    0.000    1.517    1.379    3.517    1.931    5.241 
#    0.000    0.000    0.000    0.414    0.000    2.897 
#    0.000    0.000    0.000    0.000    0.000    0.000 
#
# Total GULP energy -323306.291445 kJ/mol
# GULP energy per Si atom -5574.246404 kJ/mol
# Density = 1.907344 g / cm^3
# Si number density = 19.116952 Si / 1000 Ang^3
#
#
#
# Elastic Constant Matrix: (Units=GPa)
#
#
# Indices 1 2 3 4 5 6 
#
# 1 41.7997 26.6161 44.2392 0.0000 0.0000 0.0000
# 2 26.6161 106.1815 50.7180 0.0000 0.0000 0.0000
# 3 44.2392 50.7180 133.7012 0.0000 0.0000 0.0000
# 4 0.0000 0.0000 0.0000 27.6834 0.0000 0.0000
# 5 0.0000 0.0000 0.0000 0.0000 29.2719 0.0000
# 6 0.0000 0.0000 0.0000 0.0000 0.0000 29.6759
#
#
#
# Elastic Compliance Matrix: (Units=1/GPa)
#
#
# Indices 1 2 3 4 5 6 
#
# 1 0.038389 -0.004342 -0.011055 0.000000 0.000000 0.000000
# 2 -0.004342 0.011993 -0.003113 0.000000 0.000000 0.000000
# 3 -0.011055 -0.003113 0.012318 0.000000 0.000000 0.000000
# 4 0.000000 0.000000 0.000000 0.036123 0.000000 0.000000
# 5 0.000000 0.000000 0.000000 0.000000 0.034162 0.000000
# 6 0.000000 0.000000 0.000000 0.000000 0.000000 0.033697
#
#
# Mechanical properties :
#
#
# Convention : Reuss Voigt Hill
#
# Bulk Modulus (GPa) = 38.94080 58.31432 48.62756
# Shear Modulus (GPa) = 23.55580 28.00018 25.77799
#
# Velocity S-wave (km/s) = 3.51407 3.83126 3.67609
# Velocity P-wave (km/s) = 6.07280 7.08108 6.59623
#
# Compressibility (1/GPa) = 0.02568001
#
# Stress axis : x y z
#
# Youngs Moduli (GPa) = 26.04936 83.38142 81.18229
#
# Poissons Ratio (x) = 0.36207 0.89746
# Poissons Ratio (y) = 0.11312 0.25269
# Poissons Ratio (z) = 0.28797 0.25954
#
# Static dielectric constant tensor:
#      x y z
#    x 1.660670 0.000000 0.000000 
#    y 0.000000 1.766650 0.000000 
#    z 0.000000 0.000000 1.670630 
# 
# From -- ./inp_files/10597.got.cif
#   From: 2010.05.17/outbox.cif.g08.bks.cpg/sg66_6_cif.got.tgz:10597.got - 2010.06.03 17:51:23.
