data_PCOD9497834
_publ_section_title
;
Structure prediction by ZEFSAII (Michael W. Deem and Ramdas Pophale) SiO2 
 PCOD9497834
Probable space group: C C C M
;
_chemical_formula_sum "Si O2"
_cell_formula_units_Z 64
_cell_length_a 37.135419
_cell_length_b 5.027228
_cell_length_c 18.290293
_cell_angle_alpha 90.000000
_cell_angle_beta 90.000000
_cell_angle_gamma 90.000000
_cell_volume 3414.582210
_symmetry_space_group_name_H-M "C C C M"
_symmetry_group_IT_number 66
_symmetry_cell_setting 'orthorhombic'
loop_
_space_group_symop_operation_xyz
x,y,z
-x,-y,z
x,-y,1/2-z
-x,y,1/2-z
-x,-y,-z
x,y,-z
-x,y,1/2+z
x,-y,1/2+z
1/2+x,1/2+y,z
1/2-x,1/2-y,z
1/2+x,1/2-y,1/2-z
1/2-x,1/2+y,1/2-z
1/2-x,1/2-y,-z
1/2+x,1/2+y,-z
1/2-x,1/2+y,1/2+z
1/2+x,1/2-y,1/2+z
loop_
_atom_site_type_symbol
_atom_site_label
_atom_site_fract_x
_atom_site_fract_y
_atom_site_fract_z
Si Si1 0.024925 0.741618 0.085131
Si Si2 0.169632 0.251549 0.301760
Si Si3 0.088110 0.258351 0.698538
Si Si4 0.724547 0.497711 0.418128
O O1 0.060598 0.772602 0.132528
O O2 0.000000 0.500000 0.111643
O O3 0.034107 0.692485 0.000000
O O4 0.000000 0.000000 0.089408
O O5 0.182896 0.500000 0.250000
O O6 0.129101 0.321134 0.327251
O O7 0.194252 0.124337 0.365459
O O8 0.165639 0.000000 0.250000
O O9 0.076400 0.500000 0.750000
O O10 0.087976 0.000000 0.750000
O O11 0.711139 0.419698 0.500000
O O12 0.750000 0.750000 0.426150
O O13 0.750000 0.250000 0.391388
#
# Coordination Sequence:
#
# PCOD9497834 Si02
#       4
#    16  16  16  16
#     4  10  21  36  54  79 110 143 183 229 275 328
#     4  10  21  37  56  81 112 144 183 229 276 332
#     4  10  21  36  55  80 109 143 184 228 274 328
#     4  10  21  37  57  82 111 143 182 227 275 331
#
# _framework density 18.743143
#
# number of rings (size 3 to 8) (size 9 to 14) (size 15 to 20)
#    0.000    2.000    0.000    3.000    0.000    6.000 
#    0.000    0.000    0.000   18.000    0.000    0.000 
#    0.000    0.000    0.000    0.000    0.000    0.000 
#
# Total GULP energy -178165.185788 kJ/mol
# GULP energy per Si atom -5567.662056 kJ/mol
# Density = 1.870048 g / cm^3
# Si number density = 18.743143 Si / 1000 Ang^3
#
#
#
# Elastic Constant Matrix: (Units=GPa)
#
#
# Indices 1 2 3 4 5 6 
#
# 1 104.7547 9.5621 82.9667 0.0000 0.0000 0.0000
# 2 9.5621 110.6451 14.1224 0.0000 0.0000 0.0000
# 3 82.9667 14.1224 93.7422 0.0000 0.0000 0.0000
# 4 0.0000 0.0000 0.0000 99.2045 0.0000 0.0000
# 5 0.0000 0.0000 0.0000 0.0000 -245.3221 0.0000
# 6 0.0000 0.0000 0.0000 0.0000 0.0000 31.8071
#
#
#
# Elastic Compliance Matrix: (Units=1/GPa)
#
#
# Indices 1 2 3 4 5 6 
#
# 1 0.032005 0.000866 -0.028456 0.000000 0.000000 0.000000
# 2 0.000866 0.009239 -0.002158 0.000000 0.000000 0.000000
# 3 -0.028456 -0.002158 0.036178 0.000000 0.000000 0.000000
# 4 0.000000 0.000000 0.000000 0.010080 0.000000 0.000000
# 5 0.000000 0.000000 0.000000 0.000000 -0.004076 0.000000
# 6 0.000000 0.000000 0.000000 0.000000 0.000000 0.031440
#
#
# Mechanical properties :
#
#
# Convention : Reuss Voigt Hill
#
# Bulk Modulus (GPa) = 55.79052 58.04936 56.91994
# Shear Modulus (GPa) = 27.72599 -9.36271 9.18164
#
# Velocity S-wave (km/s) = 3.85029 -2.23744 2.21569
# Velocity P-wave (km/s) = 7.04250 4.93593 6.08112
#
# Compressibility (1/GPa) = 0.01792419
#
# Stress axis : x y z
#
# Youngs Moduli (GPa) = 31.24547 108.24219 27.64116
#
# Poissons Ratio (x) = -0.09376 0.78656
# Poissons Ratio (y) = -0.02706 0.05966
# Poissons Ratio (z) = 0.88913 0.23363
#
# Static dielectric constant tensor:
#      x y z
#    x 1.685630 0.000000 0.000000 
#    y 0.000000 1.658970 0.000000 
#    z 0.000000 0.000000 1.703990 
# 
# From -- ./inp_files/35052.got.cif
#   From: 2010.05.17/outbox.cif.g08.bks.cpg/sg66_18_cif.got.tgz:35052.got - 2010.06.03 17:51:23.
