data_PCOD9497955
_publ_section_title
;
Structure prediction by ZEFSAII (Michael W. Deem and Ramdas Pophale) SiO2 
 PCOD9497955
Probable space group: C C C M
;
_chemical_formula_sum "Si O2"
_cell_formula_units_Z 64
_cell_length_a 15.840335
_cell_length_b 8.350227
_cell_length_c 24.051982
_cell_angle_alpha 90.000000
_cell_angle_beta 90.000000
_cell_angle_gamma 90.000000
_cell_volume 3181.365112
_symmetry_space_group_name_H-M "C C C M"
_symmetry_group_IT_number 66
_symmetry_cell_setting 'orthorhombic'
loop_
_space_group_symop_operation_xyz
x,y,z
-x,-y,z
x,-y,1/2-z
-x,y,1/2-z
-x,-y,-z
x,y,-z
-x,y,1/2+z
x,-y,1/2+z
1/2+x,1/2+y,z
1/2-x,1/2-y,z
1/2+x,1/2-y,1/2-z
1/2-x,1/2+y,1/2-z
1/2-x,1/2-y,-z
1/2+x,1/2+y,-z
1/2-x,1/2+y,1/2+z
1/2+x,1/2-y,1/2+z
loop_
_atom_site_type_symbol
_atom_site_label
_atom_site_fract_x
_atom_site_fract_y
_atom_site_fract_z
Si Si1 0.846263 0.812562 0.738610
Si Si2 0.081630 0.385559 0.839506
Si Si3 0.495636 0.691551 0.437515
Si Si4 0.656725 0.191305 0.119710
O O1 0.750000 0.750000 0.741682
O O2 0.896726 0.708074 0.783493
O O3 0.873748 0.783864 0.675314
O O4 0.851273 0.000000 0.750000
O O5 0.154536 0.506851 0.860315
O O6 0.000000 0.500000 0.832190
O O7 0.062410 0.264504 0.889507
O O8 0.500000 0.500000 0.432551
O O9 0.467002 0.731319 0.500000
O O10 0.587665 0.769987 0.426692
O O11 0.750000 0.250000 0.105222
#
# Coordination Sequence:
#
# PCOD9497955 Si02
#       4
#    16  16  16  16
#     4  11  21  36  59  87 119 151 187 232 284 338
#     4  10  22  38  59  84 116 150 190 233 281 339
#     4  10  22  40  59  81 111 148 192 238 282 331
#     4  10  21  37  58  85 114 147 188 231 281 336
#
# _framework density 20.117149999999999
#
# number of rings (size 3 to 8) (size 9 to 14) (size 15 to 20)
#    0.000    1.750    0.000    5.250    0.000   12.000 
#    0.000    6.250    0.000    3.750    0.000    0.000 
#    0.000    0.000    0.000    0.000    0.000    0.000 
#
# Total GULP energy -178863.211845 kJ/mol
# GULP energy per Si atom -5589.475370 kJ/mol
# Density = 2.007136 g / cm^3
# Si number density = 20.117150 Si / 1000 Ang^3
#
#
#
# Elastic Constant Matrix: (Units=GPa)
#
#
# Indices 1 2 3 4 5 6 
#
# 1 33.8700 -3.3531 -1.9963 0.0000 0.0000 0.0000
# 2 -3.3531 84.8035 4.3654 0.0000 0.0000 0.0000
# 3 -1.9963 4.3654 74.4914 0.0000 0.0000 0.0000
# 4 0.0000 0.0000 0.0000 115.0389 0.0000 0.0000
# 5 0.0000 0.0000 0.0000 0.0000 21.2616 0.0000
# 6 0.0000 0.0000 0.0000 0.0000 0.0000 30.5941
#
#
#
# Elastic Compliance Matrix: (Units=1/GPa)
#
#
# Indices 1 2 3 4 5 6 
#
# 1 0.029680 0.001136 0.000729 0.000000 0.000000 0.000000
# 2 0.001136 0.011871 -0.000665 0.000000 0.000000 0.000000
# 3 0.000729 -0.000665 0.013483 0.000000 0.000000 0.000000
# 4 0.000000 0.000000 0.000000 0.008693 0.000000 0.000000
# 5 0.000000 0.000000 0.000000 0.000000 0.047033 0.000000
# 6 0.000000 0.000000 0.000000 0.000000 0.000000 0.032686
#
#
# Mechanical properties :
#
#
# Convention : Reuss Voigt Hill
#
# Bulk Modulus (GPa) = 17.41149 21.24408 19.32778
# Shear Modulus (GPa) = 31.21268 46.32216 38.76742
#
# Velocity S-wave (km/s) = 3.94324 4.80377 4.39462
# Velocity P-wave (km/s) = 5.42273 6.43050 5.94800
#
# Compressibility (1/GPa) = 0.05743335
#
# Stress axis : x y z
#
# Youngs Moduli (GPa) = 33.69263 84.23796 74.16807
#
# Poissons Ratio (x) = -0.09570 -0.05406
# Poissons Ratio (y) = -0.03828 0.04934
# Poissons Ratio (z) = -0.02456 0.05604
#
# Static dielectric constant tensor:
#      x y z
#    x 1.743420 0.000000 0.000000 
#    y 0.000000 1.717940 0.000000 
#    z 0.000000 0.000000 1.686650 
# 
# From -- ./inp_files/50498.got.cif
#   From: 2010.05.17/outbox.cif.g08.bks.cpg/sg66_26_cif.got.tgz:50498.got - 2010.06.03 17:51:23.
