data_PCOD9497028
_publ_section_title
;
Structure prediction by ZEFSAII (Michael W. Deem and Ramdas Pophale) SiO2 
 PCOD9497028
Probable space group: C C C M
;
_chemical_formula_sum "Si O2"
_cell_formula_units_Z 80
_cell_length_a 11.930822
_cell_length_b 26.153487
_cell_length_c 14.295729
_cell_angle_alpha 90.000000
_cell_angle_beta 90.000000
_cell_angle_gamma 90.000000
_cell_volume 4460.733461
_symmetry_space_group_name_H-M "C C C M"
_symmetry_group_IT_number 66
_symmetry_cell_setting 'orthorhombic'
loop_
_space_group_symop_operation_xyz
x,y,z
-x,-y,z
x,-y,1/2-z
-x,y,1/2-z
-x,-y,-z
x,y,-z
-x,y,1/2+z
x,-y,1/2+z
1/2+x,1/2+y,z
1/2-x,1/2-y,z
1/2+x,1/2-y,1/2-z
1/2-x,1/2+y,1/2-z
1/2-x,1/2-y,-z
1/2+x,1/2+y,-z
1/2-x,1/2+y,1/2+z
1/2+x,1/2-y,1/2+z
loop_
_atom_site_type_symbol
_atom_site_label
_atom_site_fract_x
_atom_site_fract_y
_atom_site_fract_z
Si Si1 0.029285 0.160833 0.000000
Si Si2 0.738955 0.847705 0.298650
Si Si3 0.000000 0.303198 0.250000
Si Si4 0.858683 0.221980 0.654362
Si Si5 0.286758 0.691420 0.000000
Si Si6 0.871621 0.057273 0.714191
Si Si7 0.428453 0.448681 0.000000
O O1 0.100030 0.176226 0.090141
O O2 0.995574 0.102044 0.000000
O O3 0.919889 0.194044 0.000000
O O4 0.609471 0.836467 0.273202
O O5 0.814563 0.803172 0.250340
O O6 0.750046 0.839319 0.408459
O O7 0.789417 0.900529 0.259045
O O8 0.954839 0.263799 0.328985
O O9 0.750000 0.250000 0.612912
O O10 0.250000 0.750000 0.000000
O O11 0.866455 0.055324 0.600466
O O12 0.000000 0.068634 0.750000
O O13 0.846678 0.000000 0.750000
O O14 0.500000 0.500000 0.000000
#
# Coordination Sequence:
#
# PCOD9497028 Si02
#       7
#     8  16   8  16   8  16   8
#     4  12  21  34  60  87 126 155 201 255 318 381
#     4  11  23  40  60  89 123 171 211 264 322 375
#     4  10  22  40  59  82 129 166 214 254 304 384
#     4  10  20  35  56  84 121 162 204 251 308 369
#     4  12  24  35  58  90 124 169 214 251 317 391
#     4  11  23  39  64  90 125 160 206 269 327 380
#     4  12  22  39  60  95 122 159 206 262 333 383
#
# _framework density 17.934270999999999
#
# number of rings (size 3 to 8) (size 9 to 14) (size 15 to 20)
#    0.000    1.000    4.000    5.700    1.400    0.000 
#    0.000    2.500    0.000    0.000    0.000    2.800 
#    0.000    0.000    0.000    0.000    0.000    0.000 
#
# Total GULP energy -223152.982891 kJ/mol
# GULP energy per Si atom -5578.824572 kJ/mol
# Density = 1.789345 g / cm^3
# Si number density = 17.934271 Si / 1000 Ang^3
#
#
#
# Elastic Constant Matrix: (Units=GPa)
#
#
# Indices 1 2 3 4 5 6 
#
# 1 99.8718 67.2639 42.8486 0.0000 0.0000 0.0000
# 2 67.2639 147.4566 54.6927 0.0000 0.0000 0.0000
# 3 42.8486 54.6927 156.1545 0.0000 0.0000 0.0000
# 4 0.0000 0.0000 0.0000 30.0368 0.0000 0.0000
# 5 0.0000 0.0000 0.0000 0.0000 13.1729 0.0000
# 6 0.0000 0.0000 0.0000 0.0000 0.0000 37.8875
#
#
#
# Elastic Compliance Matrix: (Units=1/GPa)
#
#
# Indices 1 2 3 4 5 6 
#
# 1 0.014963 -0.006094 -0.001971 0.000000 0.000000 0.000000
# 2 -0.006094 0.010276 -0.001927 0.000000 0.000000 0.000000
# 3 -0.001971 -0.001927 0.007620 0.000000 0.000000 0.000000
# 4 0.000000 0.000000 0.000000 0.033293 0.000000 0.000000
# 5 0.000000 0.000000 0.000000 0.000000 0.075914 0.000000
# 6 0.000000 0.000000 0.000000 0.000000 0.000000 0.026394
#
#
# Mechanical properties :
#
#
# Convention : Reuss Voigt Hill
#
# Bulk Modulus (GPa) = 77.67655 81.45484 79.56569
# Shear Modulus (GPa) = 25.94217 32.13127 29.03672
#
# Velocity S-wave (km/s) = 3.80743 4.23734 4.02812
# Velocity P-wave (km/s) = 7.92051 8.33410 8.12994
#
# Compressibility (1/GPa) = 0.01287390
#
# Stress axis : x y z
#
# Youngs Moduli (GPa) = 66.83044 97.30989 131.23766
#
# Poissons Ratio (x) = 0.59305 0.25871
# Poissons Ratio (y) = 0.40730 0.25289
# Poissons Ratio (z) = 0.13174 0.18751
#
# Static dielectric constant tensor:
#      x y z
#    x 1.603070 0.000000 0.000000 
#    y 0.000000 1.610530 0.000000 
#    z 0.000000 0.000000 2.796040 
# 
# From -- ./inp_files/26473.got.cif
#   From: 2010.05.17/outbox.cif.g08.bks.cpg/sg66_14_cif.got.tgz:26473.got - 2010.06.03 17:51:23.
