data_PCOD9497845
_publ_section_title
;
Structure prediction by ZEFSAII (Michael W. Deem and Ramdas Pophale) SiO2 
 PCOD9497845
Probable space group: C C C M
;
_chemical_formula_sum "Si O2"
_cell_formula_units_Z 96
_cell_length_a 18.333130
_cell_length_b 9.001464
_cell_length_c 27.252158
_cell_angle_alpha 90.000000
_cell_angle_beta 90.000000
_cell_angle_gamma 90.000000
_cell_volume 4497.287638
_symmetry_space_group_name_H-M "C C C M"
_symmetry_group_IT_number 66
_symmetry_cell_setting 'orthorhombic'
loop_
_space_group_symop_operation_xyz
x,y,z
-x,-y,z
x,-y,1/2-z
-x,y,1/2-z
-x,-y,-z
x,y,-z
-x,y,1/2+z
x,-y,1/2+z
1/2+x,1/2+y,z
1/2-x,1/2-y,z
1/2+x,1/2-y,1/2-z
1/2-x,1/2+y,1/2-z
1/2-x,1/2-y,-z
1/2+x,1/2+y,-z
1/2-x,1/2+y,1/2+z
1/2+x,1/2-y,1/2+z
loop_
_atom_site_type_symbol
_atom_site_label
_atom_site_fract_x
_atom_site_fract_y
_atom_site_fract_z
Si Si1 0.449422 0.122021 0.654092
Si Si2 0.985638 0.826310 0.421827
Si Si3 0.802418 0.388350 0.795274
Si Si4 0.181584 0.142225 0.556653
Si Si5 0.257307 0.084883 0.887898
Si Si6 0.596627 0.067238 0.555632
O O1 0.487172 0.271065 0.634656
O O2 0.382119 0.163326 0.687734
O O3 0.500000 0.000000 0.679694
O O4 0.427086 0.032115 0.603185
O O5 0.900994 0.800824 0.437984
O O6 0.045960 0.715073 0.444686
O O7 0.000000 0.000000 0.429995
O O8 0.805567 0.500000 0.750000
O O9 0.750000 0.250000 0.785806
O O10 0.776657 0.480136 0.842780
O O11 0.195155 0.112465 0.500000
O O12 0.250000 0.250000 0.572447
O O13 0.187933 0.991389 0.587263
O O14 0.250000 0.250000 0.868868
O O15 0.319432 0.093681 0.930106
O O16 0.591512 0.004131 0.500000
#
# Coordination Sequence:
#
# PCOD9497845 Si02
#       6
#    16  16  16  16  16  16
#     4   9  21  40  61  85 118 162 199 235 292 361
#     4  11  22  36  57  88 123 158 204 255 298 340
#     4  11  23  42  67  92 117 148 193 247 304 364
#     4  11  23  38  57  84 124 173 215 252 300 354
#     4  11  22  37  58  86 121 159 201 249 303 359
#     4  10  21  36  55  83 121 165 209 245 284 346
#
# _framework density 21.3462
#
# number of rings (size 3 to 8) (size 9 to 14) (size 15 to 20)
#    0.000    1.500    0.000    6.000    0.000    9.333 
#    0.000    1.667    0.000    0.500    0.000    1.167 
#    0.000    0.000    0.000    0.000    0.000    0.000 
#
# Total GULP energy -267733.112265 kJ/mol
# GULP energy per Si atom -5577.773172 kJ/mol
# Density = 2.129762 g / cm^3
# Si number density = 21.346200 Si / 1000 Ang^3
#
#
#
# Elastic Constant Matrix: (Units=GPa)
#
#
# Indices 1 2 3 4 5 6 
#
# 1 77.4839 10.6167 26.6023 0.0000 0.0000 0.0000
# 2 10.6167 85.7128 27.5335 0.0000 0.0000 0.0000
# 3 26.6023 27.5335 83.0447 0.0000 0.0000 0.0000
# 4 0.0000 0.0000 0.0000 17.7050 0.0000 0.0000
# 5 0.0000 0.0000 0.0000 0.0000 73.3191 0.0000
# 6 0.0000 0.0000 0.0000 0.0000 0.0000 30.5676
#
#
#
# Elastic Compliance Matrix: (Units=1/GPa)
#
#
# Indices 1 2 3 4 5 6 
#
# 1 0.014510 -0.000340 -0.004535 0.000000 0.000000 0.000000
# 2 -0.000340 0.013066 -0.004223 0.000000 0.000000 0.000000
# 3 -0.004535 -0.004223 0.014895 0.000000 0.000000 0.000000
# 4 0.000000 0.000000 0.000000 0.056481 0.000000 0.000000
# 5 0.000000 0.000000 0.000000 0.000000 0.013639 0.000000
# 6 0.000000 0.000000 0.000000 0.000000 0.000000 0.032714
#
#
# Mechanical properties :
#
#
# Convention : Reuss Voigt Hill
#
# Bulk Modulus (GPa) = 41.19804 41.74958 41.47381
# Shear Modulus (GPa) = 29.13890 36.41760 32.77825
#
# Velocity S-wave (km/s) = 3.69868 4.13491 3.92287
# Velocity P-wave (km/s) = 6.13043 6.51133 6.32375
#
# Compressibility (1/GPa) = 0.02427300
#
# Stress axis : x y z
#
# Youngs Moduli (GPa) = 68.92003 76.53724 67.13860
#
# Poissons Ratio (x) = 0.02605 0.30448
# Poissons Ratio (y) = 0.02346 0.28352
# Poissons Ratio (z) = 0.31256 0.32321
#
# Static dielectric constant tensor:
#      x y z
#    x 1.847700 0.000000 0.000000 
#    y 0.000000 1.839130 0.000000 
#    z 0.000000 0.000000 1.744640 
# 
# From -- ./inp_files/65643.got.cif
#   From: 2010.05.17/outbox.cif.g08.bks.cpg/sg66_33_cif.got.tgz:65643.got - 2010.06.03 17:51:23.
