data_PCOD9497289
_publ_section_title
;
Structure prediction by ZEFSAII (Michael W. Deem and Ramdas Pophale) SiO2 
 PCOD9497289
Probable space group: C C C M
;
_chemical_formula_sum "Si O2"
_cell_formula_units_Z 64
_cell_length_a 14.977567
_cell_length_b 13.502383
_cell_length_c 15.131994
_cell_angle_alpha 90.000000
_cell_angle_beta 90.000000
_cell_angle_gamma 90.000000
_cell_volume 3060.186213
_symmetry_space_group_name_H-M "C C C M"
_symmetry_group_IT_number 66
_symmetry_cell_setting 'orthorhombic'
loop_
_space_group_symop_operation_xyz
x,y,z
-x,-y,z
x,-y,1/2-z
-x,y,1/2-z
-x,-y,-z
x,y,-z
-x,y,1/2+z
x,-y,1/2+z
1/2+x,1/2+y,z
1/2-x,1/2-y,z
1/2+x,1/2-y,1/2-z
1/2-x,1/2+y,1/2-z
1/2-x,1/2-y,-z
1/2+x,1/2+y,-z
1/2-x,1/2+y,1/2+z
1/2+x,1/2-y,1/2+z
loop_
_atom_site_type_symbol
_atom_site_label
_atom_site_fract_x
_atom_site_fract_y
_atom_site_fract_z
Si Si1 0.377355 0.730585 0.099877
Si Si2 0.209373 0.881954 0.264084
Si Si3 0.900350 0.616714 0.267621
Si Si4 0.051096 0.100155 0.101650
O O1 0.323087 0.668398 0.172935
O O2 0.379954 0.843625 0.133888
O O3 0.476543 0.684919 0.102131
O O4 0.345056 0.719568 0.000000
O O5 0.311284 0.848537 0.284979
O O6 0.133912 0.870671 0.337943
O O7 0.214885 0.000000 0.250000
O O8 0.905293 0.500000 0.250000
O O9 0.000000 0.656715 0.250000
O O10 0.079185 0.081220 0.000000
O O11 0.000000 0.000000 0.133086
#
# Coordination Sequence:
#
# PCOD9497289 Si02
#       4
#    16  16  16  16
#     4  11  23  39  65  98 132 169 212 263 325 396
#     4  11  21  35  64  96 129 170 207 266 330 383
#     4  10  23  43  61  84 123 176 230 269 308 366
#     4  10  20  36  62 100 136 161 199 261 336 405
#
# _framework density 20.913758999999999
#
# number of rings (size 3 to 8) (size 9 to 14) (size 15 to 20)
#    0.000    1.500    2.500    3.000    0.000    2.000 
#    0.000    7.500    0.000    7.500    0.000    0.000 
#    0.000    0.000    0.000    0.000    0.000    0.000 
#
# Total GULP energy -178436.402158 kJ/mol
# GULP energy per Si atom -5576.137567 kJ/mol
# Density = 2.086616 g / cm^3
# Si number density = 20.913759 Si / 1000 Ang^3
#
#
#
# Elastic Constant Matrix: (Units=GPa)
#
#
# Indices 1 2 3 4 5 6 
#
# 1 216.7739 12.0421 76.9558 0.0000 0.0000 0.0000
# 2 12.0421 100.1734 52.4227 0.0000 0.0000 0.0000
# 3 76.9558 52.4227 129.2144 0.0000 0.0000 0.0000
# 4 0.0000 0.0000 0.0000 30.8794 0.0000 0.0000
# 5 0.0000 0.0000 0.0000 0.0000 -3.5155 0.0000
# 6 0.0000 0.0000 0.0000 0.0000 0.0000 23.8019
#
#
#
# Elastic Compliance Matrix: (Units=1/GPa)
#
#
# Indices 1 2 3 4 5 6 
#
# 1 0.006014 0.001462 -0.004175 0.000000 0.000000 0.000000
# 2 0.001462 0.013029 -0.006156 0.000000 0.000000 0.000000
# 3 -0.004175 -0.006156 0.012723 0.000000 0.000000 0.000000
# 4 0.000000 0.000000 0.000000 0.032384 0.000000 0.000000
# 5 0.000000 0.000000 0.000000 0.000000 -0.284452 0.000000
# 6 0.000000 0.000000 0.000000 0.000000 0.000000 0.042013
#
#
# Mechanical properties :
#
#
# Convention : Reuss Voigt Hill
#
# Bulk Modulus (GPa) = 71.29086 81.00032 76.14559
# Shear Modulus (GPa) = -32.07707 30.54923 -0.76392
#
# Velocity S-wave (km/s) = -3.92060 3.82609 -0.60503
# Velocity P-wave (km/s) = 3.69692 7.63763 6.00002
#
# Compressibility (1/GPa) = 0.01402704
#
# Stress axis : x y z
#
# Youngs Moduli (GPa) = 166.27987 76.75350 78.59731
#
# Poissons Ratio (x) = -0.11220 0.32812
# Poissons Ratio (y) = -0.24306 0.48387
# Poissons Ratio (z) = 0.69418 0.47252
#
# Static dielectric constant tensor:
#      x y z
#    x 1.809210 0.000000 0.000000 
#    y 0.000000 1.801060 0.000000 
#    z 0.000000 0.000000 1.716840 
# 
# From -- ./inp_files/27710.got.cif
#   From: 2010.05.17/outbox.cif.g08.bks.cpg/sg66_14_cif.got.tgz:27710.got - 2010.06.03 17:51:23.
