data_PCOD9497986
_publ_section_title
;
Structure prediction by ZEFSAII (Michael W. Deem and Ramdas Pophale) SiO2 
 PCOD9497986
Probable space group: C C C M
;
_chemical_formula_sum "Si O2"
_cell_formula_units_Z 64
_cell_length_a 9.126459
_cell_length_b 21.245206
_cell_length_c 14.958375
_cell_angle_alpha 90.000000
_cell_angle_beta 90.000000
_cell_angle_gamma 90.000000
_cell_volume 2900.331706
_symmetry_space_group_name_H-M "C C C M"
_symmetry_group_IT_number 66
_symmetry_cell_setting 'orthorhombic'
loop_
_space_group_symop_operation_xyz
x,y,z
-x,-y,z
x,-y,1/2-z
-x,y,1/2-z
-x,-y,-z
x,y,-z
-x,y,1/2+z
x,-y,1/2+z
1/2+x,1/2+y,z
1/2-x,1/2-y,z
1/2+x,1/2-y,1/2-z
1/2-x,1/2+y,1/2-z
1/2-x,1/2-y,-z
1/2+x,1/2+y,-z
1/2-x,1/2+y,1/2+z
1/2+x,1/2-y,1/2+z
loop_
_atom_site_type_symbol
_atom_site_label
_atom_site_fract_x
_atom_site_fract_y
_atom_site_fract_z
Si Si1 0.098526 0.560401 0.108197
Si Si2 0.934662 0.188505 0.347931
Si Si3 0.111617 0.327652 0.897380
Si Si4 0.431944 0.437037 0.349928
O O1 0.257920 0.557505 0.151207
O O2 0.000000 0.500000 0.130587
O O3 0.009567 0.623095 0.133579
O O4 0.119078 0.560955 0.000000
O O5 0.942939 0.255789 0.395517
O O6 0.763074 0.170380 0.343418
O O7 0.000000 0.199024 0.250000
O O8 0.019059 0.129580 0.390903
O O9 0.149633 0.344254 0.000000
O O10 0.500000 0.500000 0.392291
O O11 0.500000 0.434390 0.250000
#
# Coordination Sequence:
#
# PCOD9497986 Si02
#       4
#    16  16  16  16
#     4  10  22  40  63  89 117 154 199 246 294 348
#     4  10  21  37  60  90 122 156 196 243 297 352
#     4  10  22  41  63  87 120 160 200 244 295 352
#     4  10  22  40  59  87 121 155 195 241 296 352
#
# _framework density 22.066441999999999
#
# number of rings (size 3 to 8) (size 9 to 14) (size 15 to 20)
#    0.000    2.000    0.000    3.000    0.000   11.500 
#    0.000   15.000    0.000    0.000    0.000    0.000 
#    0.000    0.000    0.000    0.000    0.000    0.000 
#
# Total GULP energy -178887.695485 kJ/mol
# GULP energy per Si atom -5590.240484 kJ/mol
# Density = 2.201622 g / cm^3
# Si number density = 22.066442 Si / 1000 Ang^3
#
#
#
# Elastic Constant Matrix: (Units=GPa)
#
#
# Indices 1 2 3 4 5 6 
#
# 1 217.6626 109.5466 47.4309 0.0000 0.0000 0.0000
# 2 109.5466 162.1180 -1.1906 0.0000 0.0000 0.0000
# 3 47.4309 -1.1906 78.8992 0.0000 0.0000 0.0000
# 4 0.0000 0.0000 0.0000 18.6125 0.0000 0.0000
# 5 0.0000 0.0000 0.0000 0.0000 62.0582 0.0000
# 6 0.0000 0.0000 0.0000 0.0000 0.0000 46.1164
#
#
#
# Elastic Compliance Matrix: (Units=1/GPa)
#
#
# Indices 1 2 3 4 5 6 
#
# 1 0.008761 -0.005959 -0.005356 0.000000 0.000000 0.000000
# 2 -0.005959 0.010222 0.003737 0.000000 0.000000 0.000000
# 3 -0.005356 0.003737 0.015951 0.000000 0.000000 0.000000
# 4 0.000000 0.000000 0.000000 0.053727 0.000000 0.000000
# 5 0.000000 0.000000 0.000000 0.000000 0.016114 0.000000
# 6 0.000000 0.000000 0.000000 0.000000 0.000000 0.021684
#
#
# Mechanical properties :
#
#
# Convention : Reuss Voigt Hill
#
# Bulk Modulus (GPa) = 50.56608 85.58373 68.07491
# Shear Modulus (GPa) = 33.73607 45.55028 39.64317
#
# Velocity S-wave (km/s) = 3.91428 4.54831 4.24316
# Velocity P-wave (km/s) = 6.58741 8.15179 7.41099
#
# Compressibility (1/GPa) = 0.01977610
#
# Stress axis : x y z
#
# Youngs Moduli (GPa) = 114.14745 97.82392 62.69262
#
# Poissons Ratio (x) = 0.58294 0.33581
# Poissons Ratio (y) = 0.68021 -0.23426
# Poissons Ratio (z) = 0.61142 -0.36553
#
# Static dielectric constant tensor:
#      x y z
#    x 1.746840 0.000000 0.000000 
#    y 0.000000 1.853280 0.000000 
#    z 0.000000 0.000000 1.867180 
# 
# From -- ./inp_files/24150.got.cif
#   From: 2010.05.17/outbox.cif.g08.bks.cpg/sg66_13_cif.got.tgz:24150.got - 2010.06.03 17:51:23.
