data_PCOD9497951
_publ_section_title
;
Structure prediction by ZEFSAII (Michael W. Deem and Ramdas Pophale) SiO2 
 PCOD9497951
Probable space group: C C C M
;
_chemical_formula_sum "Si O2"
_cell_formula_units_Z 96
_cell_length_a 23.587419
_cell_length_b 24.734761
_cell_length_c 8.756789
_cell_angle_alpha 90.000000
_cell_angle_beta 90.000000
_cell_angle_gamma 90.000000
_cell_volume 5108.966152
_symmetry_space_group_name_H-M "C C C M"
_symmetry_group_IT_number 66
_symmetry_cell_setting 'orthorhombic'
loop_
_space_group_symop_operation_xyz
x,y,z
-x,-y,z
x,-y,1/2-z
-x,y,1/2-z
-x,-y,-z
x,y,-z
-x,y,1/2+z
x,-y,1/2+z
1/2+x,1/2+y,z
1/2-x,1/2-y,z
1/2+x,1/2-y,1/2-z
1/2-x,1/2+y,1/2-z
1/2-x,1/2-y,-z
1/2+x,1/2+y,-z
1/2-x,1/2+y,1/2+z
1/2+x,1/2-y,1/2+z
loop_
_atom_site_type_symbol
_atom_site_label
_atom_site_fract_x
_atom_site_fract_y
_atom_site_fract_z
Si Si1 0.872644 0.222526 0.181629
Si Si2 0.766272 0.833998 0.816122
Si Si3 0.936715 0.442107 0.315938
Si Si4 0.133829 0.664823 0.316205
Si Si5 0.938323 0.120500 0.316647
Si Si6 0.669705 0.443304 0.317646
O O1 0.808728 0.208771 0.239493
O O2 0.890859 0.281629 0.238464
O O3 0.912194 0.176490 0.254877
O O4 0.874611 0.219114 0.000000
O O5 0.700445 0.834213 0.775161
O O6 0.790939 0.892885 0.775103
O O7 0.771063 0.826556 0.000000
O O8 0.916633 0.500000 0.250000
O O9 0.939340 0.445659 0.500000
O O10 0.897050 0.391174 0.274280
O O11 0.000000 0.433487 0.250000
O O12 0.129785 0.670155 0.500000
O O13 0.939890 0.122888 0.500000
O O14 0.893707 0.074047 0.270127
O O15 0.000000 0.111290 0.250000
O O16 0.687361 0.500000 0.250000
O O17 0.670686 0.447126 0.500000
#
# Coordination Sequence:
#
# PCOD9497951 Si02
#       6
#    16  16  16  16  16  16
#     4  11  22  35  54  82 113 143 178 223 272 320
#     4   9  19  37  56  76 108 147 182 220 271 325
#     4  10  21  38  59  81 108 142 178 219 269 320
#     4  10  21  37  58  81 107 144 184 220 267 327
#     4  10  21  38  57  78 107 144 184 225 272 322
#     4   9  19  34  53  77 106 141 179 220 268 320
#
# _framework density 18.790495
#
# number of rings (size 3 to 8) (size 9 to 14) (size 15 to 20)
#    0.000    2.167    0.000    4.500    0.000    9.000 
#    0.000    3.333    0.000    0.000    0.000    0.000 
#    0.000    0.000    0.000    0.000    0.000    0.000 
#
# Total GULP energy -267981.449128 kJ/mol
# GULP energy per Si atom -5582.946857 kJ/mol
# Density = 1.874773 g / cm^3
# Si number density = 18.790495 Si / 1000 Ang^3
#
#
#
# Elastic Constant Matrix: (Units=GPa)
#
#
# Indices 1 2 3 4 5 6 
#
# 1 22.0935 6.9761 5.5376 0.0000 0.0000 0.0000
# 2 6.9761 120.7940 25.0476 0.0000 0.0000 0.0000
# 3 5.5376 25.0476 36.3331 0.0000 0.0000 0.0000
# 4 0.0000 0.0000 0.0000 31.7217 0.0000 0.0000
# 5 0.0000 0.0000 0.0000 0.0000 19.7922 0.0000
# 6 0.0000 0.0000 0.0000 0.0000 0.0000 15.4277
#
#
#
# Elastic Compliance Matrix: (Units=1/GPa)
#
#
# Indices 1 2 3 4 5 6 
#
# 1 0.047274 -0.001442 -0.006211 0.000000 0.000000 0.000000
# 2 -0.001442 0.009703 -0.006470 0.000000 0.000000 0.000000
# 3 -0.006211 -0.006470 0.032930 0.000000 0.000000 0.000000
# 4 0.000000 0.000000 0.000000 0.031524 0.000000 0.000000
# 5 0.000000 0.000000 0.000000 0.000000 0.050525 0.000000
# 6 0.000000 0.000000 0.000000 0.000000 0.000000 0.064818
#
#
# Mechanical properties :
#
#
# Convention : Reuss Voigt Hill
#
# Bulk Modulus (GPa) = 16.21745 28.26037 22.23891
# Shear Modulus (GPa) = 17.50858 22.83229 20.17043
#
# Velocity S-wave (km/s) = 3.05582 3.48961 3.27989
# Velocity P-wave (km/s) = 4.59348 5.59543 5.11903
#
# Compressibility (1/GPa) = 0.06166197
#
# Stress axis : x y z
#
# Youngs Moduli (GPa) = 21.15312 103.05708 30.36772
#
# Poissons Ratio (x) = 0.14864 0.18861
# Poissons Ratio (y) = 0.03051 0.19647
# Poissons Ratio (z) = 0.13138 0.66673
#
# Static dielectric constant tensor:
#      x y z
#    x 1.648770 0.000000 0.000000 
#    y 0.000000 1.648000 0.000000 
#    z 0.000000 0.000000 1.630640 
# 
# From -- ./inp_files/9108.got.cif
#   From: 2010.05.17/outbox.cif.g08.bks.cpg/sg66_5_cif.got.tgz:9108.got - 2010.06.03 17:51:23.
