data_PCOD9497353
_publ_section_title
;
Structure prediction by ZEFSAII (Michael W. Deem and Ramdas Pophale) SiO2 
 PCOD9497353
Probable space group: C C C M
;
_chemical_formula_sum "Si O2"
_cell_formula_units_Z 112
_cell_length_a 15.040608
_cell_length_b 29.564906
_cell_length_c 14.486347
_cell_angle_alpha 90.000000
_cell_angle_beta 90.000000
_cell_angle_gamma 90.000000
_cell_volume 6441.704208
_symmetry_space_group_name_H-M "C C C M"
_symmetry_group_IT_number 66
_symmetry_cell_setting 'orthorhombic'
loop_
_space_group_symop_operation_xyz
x,y,z
-x,-y,z
x,-y,1/2-z
-x,y,1/2-z
-x,-y,-z
x,y,-z
-x,y,1/2+z
x,-y,1/2+z
1/2+x,1/2+y,z
1/2-x,1/2-y,z
1/2+x,1/2-y,1/2-z
1/2-x,1/2+y,1/2-z
1/2-x,1/2-y,-z
1/2+x,1/2+y,-z
1/2-x,1/2+y,1/2+z
1/2+x,1/2-y,1/2+z
loop_
_atom_site_type_symbol
_atom_site_label
_atom_site_fract_x
_atom_site_fract_y
_atom_site_fract_z
Si Si1 0.326180 0.118910 0.105927
Si Si2 0.972486 0.311102 0.389445
Si Si3 0.332004 0.679625 0.396319
Si Si4 0.021935 0.788997 0.108363
Si Si5 0.393166 0.053000 0.743539
Si Si6 0.789315 0.202482 0.196080
Si Si7 0.348746 0.868080 0.889038
O O1 0.385661 0.161490 0.141388
O O2 0.223664 0.133405 0.106685
O O3 0.349603 0.077459 0.169257
O O4 0.352839 0.110542 0.000000
O O5 0.963721 0.307348 0.500000
O O6 0.986695 0.259977 0.356980
O O7 0.059365 0.340963 0.369567
O O8 0.315400 0.699362 0.500000
O O9 0.437947 0.677713 0.385574
O O10 0.295453 0.704971 0.306874
O O11 0.110153 0.802878 0.160769
O O12 0.045073 0.784079 0.000000
O O13 0.500000 0.057833 0.750000
O O14 0.359497 0.082298 0.655909
O O15 0.372442 0.000000 0.750000
O O16 0.750000 0.250000 0.160201
O O17 0.728830 0.161393 0.158982
O O18 0.336744 0.869623 0.000000
#
# Coordination Sequence:
#
# PCOD9497353 Si02
#       7
#    16  16  16  16  16  16  16
#     4  10  20  37  58  79 108 150 191 235 289 341
#     4   9  18  32  52  76 113 154 190 232 275 327
#     4  10  23  38  53  76 110 150 194 241 283 327
#     4  10  21  36  53  81 115 151 197 240 278 329
#     4  11  23  38  59  86 115 148 189 237 291 353
#     4  12  23  35  56  83 114 157 199 234 280 339
#     4  11  22  38  57  82 117 155 191 234 287 340
#
# _framework density 17.386702
#
# number of rings (size 3 to 8) (size 9 to 14) (size 15 to 20)
#    0.000    1.571    4.286    0.857    2.000    1.429 
#    2.571    1.429    0.000    0.000    0.000    2.000 
#    0.000    4.571    0.000    0.000    0.000    0.000 
#
# Total GULP energy -312468.393699 kJ/mol
# GULP energy per Si atom -5579.792745 kJ/mol
# Density = 1.734713 g / cm^3
# Si number density = 17.386702 Si / 1000 Ang^3
#
#
#
# Elastic Constant Matrix: (Units=GPa)
#
#
# Indices 1 2 3 4 5 6 
#
# 1 115.5609 70.9675 50.0356 0.0000 0.0000 0.0000
# 2 70.9675 94.8401 41.3443 0.0000 0.0000 0.0000
# 3 50.0356 41.3443 111.9989 0.0000 0.0000 0.0000
# 4 0.0000 0.0000 0.0000 20.0581 0.0000 0.0000
# 5 0.0000 0.0000 0.0000 0.0000 24.6187 0.0000
# 6 0.0000 0.0000 0.0000 0.0000 0.0000 960.0123
#
#
#
# Elastic Compliance Matrix: (Units=1/GPa)
#
#
# Indices 1 2 3 4 5 6 
#
# 1 0.017072 -0.011262 -0.003469 0.000000 0.000000 0.000000
# 2 -0.011262 0.019996 -0.002350 0.000000 0.000000 0.000000
# 3 -0.003469 -0.002350 0.011346 0.000000 0.000000 0.000000
# 4 0.000000 0.000000 0.000000 0.049855 0.000000 0.000000
# 5 0.000000 0.000000 0.000000 0.000000 0.040619 0.000000
# 6 0.000000 0.000000 0.000000 0.000000 0.000000 0.001042
#
#
# Mechanical properties :
#
#
# Convention : Reuss Voigt Hill
#
# Bulk Modulus (GPa) = 70.17292 71.89943 71.03618
# Shear Modulus (GPa) = 27.95734 211.60799 119.78266
#
# Velocity S-wave (km/s) = 4.01430 11.04405 8.30920
# Velocity P-wave (km/s) = 7.86981 14.28534 11.53267
#
# Compressibility (1/GPa) = 0.01425051
#
# Stress axis : x y z
#
# Youngs Moduli (GPa) = 58.57561 50.01022 88.13550
#
# Poissons Ratio (x) = 0.56323 0.30578
# Poissons Ratio (y) = 0.65969 0.20712
# Poissons Ratio (z) = 0.20323 0.11753
#
# Static dielectric constant tensor:
#      x y z
#    x 1.590580 0.000000 0.000000 
#    y 0.000000 1.562370 0.000000 
#    z 0.000000 0.000000 1.648330 
# 
# From -- ./inp_files/28994.got.cif
#   From: 2010.05.17/outbox.cif.g08.bks.cpg/sg66_15_cif.got.tgz:28994.got - 2010.06.03 17:51:23.
