data_PCOD9497908
_publ_section_title
;
Structure prediction by ZEFSAII (Michael W. Deem and Ramdas Pophale) SiO2 
 PCOD9497908
Probable space group: C C C M
;
_chemical_formula_sum "Si O2"
_cell_formula_units_Z 96
_cell_length_a 10.786136
_cell_length_b 20.847383
_cell_length_c 19.096164
_cell_angle_alpha 90.000000
_cell_angle_beta 90.000000
_cell_angle_gamma 90.000000
_cell_volume 4294.015155
_symmetry_space_group_name_H-M "C C C M"
_symmetry_group_IT_number 66
_symmetry_cell_setting 'orthorhombic'
loop_
_space_group_symop_operation_xyz
x,y,z
-x,-y,z
x,-y,1/2-z
-x,y,1/2-z
-x,-y,-z
x,y,-z
-x,y,1/2+z
x,-y,1/2+z
1/2+x,1/2+y,z
1/2-x,1/2-y,z
1/2+x,1/2-y,1/2-z
1/2-x,1/2+y,1/2-z
1/2-x,1/2-y,-z
1/2+x,1/2+y,-z
1/2-x,1/2+y,1/2+z
1/2+x,1/2-y,1/2+z
loop_
_atom_site_type_symbol
_atom_site_label
_atom_site_fract_x
_atom_site_fract_y
_atom_site_fract_z
Si Si1 0.149696 0.303155 0.899452
Si Si2 0.733212 0.565571 0.078564
Si Si3 0.257311 0.460212 0.679123
Si Si4 0.134765 0.664465 0.760673
Si Si5 0.995174 0.889890 0.333621
Si Si6 0.109989 0.242150 0.613976
O O1 0.250000 0.250000 0.922559
O O2 0.174964 0.374244 0.926339
O O3 0.172458 0.312563 0.815850
O O4 0.010254 0.279545 0.915847
O O5 0.793034 0.503493 0.115939
O O6 0.624476 0.591006 0.130630
O O7 0.687560 0.550932 0.000000
O O8 0.241720 0.500000 0.750000
O O9 0.210003 0.389131 0.697537
O O10 0.400542 0.448496 0.661667
O O11 0.121691 0.726190 0.809233
O O12 0.000000 0.633814 0.750000
O O13 0.936593 0.830225 0.375824
O O14 0.000000 0.874184 0.250000
O O15 0.250000 0.250000 0.583454
#
# Coordination Sequence:
#
# PCOD9497908 Si02
#       6
#    16  16  16  16  16  16
#     4  11  21  40  68 101 141 184 231 290 352 423
#     4  12  28  46  68 102 143 191 240 288 354 433
#     4  12  23  40  67 102 140 186 239 290 349 415
#     4  10  21  36  66 107 141 177 231 301 358 411
#     4  12  22  40  71 102 142 177 233 294 356 418
#     4  11  22  38  66 108 144 175 231 302 363 413
#
# _framework density 22.356698000000002
#
# number of rings (size 3 to 8) (size 9 to 14) (size 15 to 20)
#    0.000    0.667    6.667    2.500    0.000    2.000 
#    0.000    0.000    0.000   11.000    0.000    0.000 
#    0.000    0.000    0.000    0.000    0.000    0.000 
#
# Total GULP energy -267993.570426 kJ/mol
# GULP energy per Si atom -5583.199384 kJ/mol
# Density = 2.230581 g / cm^3
# Si number density = 22.356698 Si / 1000 Ang^3
#
#
#
# Elastic Constant Matrix: (Units=GPa)
#
#
# Indices 1 2 3 4 5 6 
#
# 1 116.6568 19.2694 15.0131 0.0000 0.0000 0.0000
# 2 19.2694 81.4184 13.8350 0.0000 0.0000 0.0000
# 3 15.0131 13.8350 120.9091 0.0000 0.0000 0.0000
# 4 0.0000 0.0000 0.0000 -64.0007 0.0000 0.0000
# 5 0.0000 0.0000 0.0000 0.0000 -12.9521 0.0000
# 6 0.0000 0.0000 0.0000 0.0000 0.0000 25.9748
#
#
#
# Elastic Compliance Matrix: (Units=1/GPa)
#
#
# Indices 1 2 3 4 5 6 
#
# 1 0.009014 -0.001982 -0.000893 0.000000 0.000000 0.000000
# 2 -0.001982 0.012961 -0.001237 0.000000 0.000000 0.000000
# 3 -0.000893 -0.001237 0.008523 0.000000 0.000000 0.000000
# 4 0.000000 0.000000 0.000000 -0.015625 0.000000 0.000000
# 5 0.000000 0.000000 0.000000 0.000000 -0.077207 0.000000
# 6 0.000000 0.000000 0.000000 0.000000 0.000000 0.038499
#
#
# Mechanical properties :
#
#
# Convention : Reuss Voigt Hill
#
# Bulk Modulus (GPa) = 44.89100 46.13548 45.51324
# Shear Modulus (GPa) = -610.77487 7.86218 -301.45634
#
# Velocity S-wave (km/s) = -16.54656 1.87732 -11.62463
# Velocity P-wave (km/s) = 18.57225 5.03786 12.64018
#
# Compressibility (1/GPa) = 0.02227618
#
# Stress axis : x y z
#
# Youngs Moduli (GPa) = 110.93396 77.15171 117.32894
#
# Poissons Ratio (x) = 0.15290 0.10472
# Poissons Ratio (y) = 0.21985 0.14514
# Poissons Ratio (z) = 0.09901 0.09544
#
# Static dielectric constant tensor:
#      x y z
#    x 1.907490 0.000000 0.000000 
#    y 0.000000 1.811030 0.000000 
#    z 0.000000 0.000000 1.840030 
# 
# From -- ./inp_files/48829.got.cif
#   From: 2010.05.17/outbox.cif.g08.bks.cpg/sg66_25_cif.got.tgz:48829.got - 2010.06.03 17:51:23.
