data_PCOD9497722
_publ_section_title
;
Structure prediction by ZEFSAII (Michael W. Deem and Ramdas Pophale) SiO2 
 PCOD9497722
Probable space group: C C C M
;
_chemical_formula_sum "Si O2"
_cell_formula_units_Z 108
_cell_length_a 12.556926
_cell_length_b 25.779655
_cell_length_c 14.693998
_cell_angle_alpha 90.000000
_cell_angle_beta 90.000000
_cell_angle_gamma 90.000000
_cell_volume 4756.641409
_symmetry_space_group_name_H-M "C C C M"
_symmetry_group_IT_number 66
_symmetry_cell_setting 'orthorhombic'
loop_
_space_group_symop_operation_xyz
x,y,z
-x,-y,z
x,-y,1/2-z
-x,y,1/2-z
-x,-y,-z
x,y,-z
-x,y,1/2+z
x,-y,1/2+z
1/2+x,1/2+y,z
1/2-x,1/2-y,z
1/2+x,1/2-y,1/2-z
1/2-x,1/2+y,1/2-z
1/2-x,1/2-y,-z
1/2+x,1/2+y,-z
1/2-x,1/2+y,1/2+z
1/2+x,1/2-y,1/2+z
loop_
_atom_site_type_symbol
_atom_site_label
_atom_site_fract_x
_atom_site_fract_y
_atom_site_fract_z
Si Si1 0.663831 0.458679 0.603699
Si Si2 0.326681 0.661010 0.644213
Si Si3 0.096090 0.654284 0.610293
Si Si4 0.847689 0.824605 0.345984
Si Si5 0.377917 0.207595 0.391512
Si Si6 0.987720 0.174686 0.500000
Si Si7 0.401465 0.964924 0.389485
Si Si8 0.000000 0.000000 0.750000
O O1 0.636974 0.475901 0.500000
O O2 0.675767 0.396232 0.599162
O O3 0.779889 0.481540 0.630833
O O4 0.577282 0.470138 0.680054
O O5 0.204438 0.679173 0.647130
O O6 0.365487 0.654407 0.746307
O O7 0.403789 0.693377 0.580173
O O8 0.103353 0.654674 0.500000
O O9 0.088327 0.594519 0.641463
O O10 0.987573 0.681983 0.635636
O O11 0.723967 0.828851 0.375660
O O12 0.864534 0.762479 0.343586
O O13 0.928790 0.845024 0.420555
O O14 0.382523 0.221247 0.500000
O O15 0.406421 0.964137 0.500000
O O16 0.500000 0.000000 0.357918
#
# Coordination Sequence:
#
# PCOD9497722 Si02
#       8
#    16  16  16  16  16   8  16   4
#     4  10  22  44  68  93 134 175 212 272 332 388
#     4  11  23  42  68  94 127 172 223 271 333 392
#     4   9  18  38  67  95 128 172 213 269 337 394
#     4  11  23  41  64  93 125 173 223 268 333 400
#     4  10  20  45  64  87 134 175 217 280 339 391
#     4  12  22  43  63  91 125 171 215 272 332 388
#     4   8  15  34  66  99 129 161 206 263 329 393
#     4  12  26  40  66 102 128 180 226 254 316 406
#
# _framework density 22.705096999999999
#
# number of rings (size 3 to 8) (size 9 to 14) (size 15 to 20)
#    0.000    1.926    2.963    2.000    2.074    0.593 
#   13.333    1.111    3.259    0.000    0.000    0.000 
#    0.000    0.000    0.000    0.000    0.000    0.000 
#
# Total GULP energy -300760.035594 kJ/mol
# GULP energy per Si atom -5569.630289 kJ/mol
# Density = 2.265342 g / cm^3
# Si number density = 22.705097 Si / 1000 Ang^3
#
#
#
# Elastic Constant Matrix: (Units=GPa)
#
#
# Indices 1 2 3 4 5 6 
#
# 1 169.6041 17.8237 63.3924 0.0000 0.0000 0.0000
# 2 17.8237 12.3891 21.0092 0.0000 0.0000 0.0000
# 3 63.3924 21.0092 131.3084 0.0000 0.0000 0.0000
# 4 0.0000 0.0000 0.0000 16.6230 0.0000 0.0000
# 5 0.0000 0.0000 0.0000 0.0000 56.4746 0.0000
# 6 0.0000 0.0000 0.0000 0.0000 0.0000 18.8763
#
#
#
# Elastic Compliance Matrix: (Units=1/GPa)
#
#
# Indices 1 2 3 4 5 6 
#
# 1 0.007549 -0.006423 -0.002617 0.000000 0.000000 0.000000
# 2 -0.006423 0.116236 -0.015497 0.000000 0.000000 0.000000
# 3 -0.002617 -0.015497 0.011358 0.000000 0.000000 0.000000
# 4 0.000000 0.000000 0.000000 0.060158 0.000000 0.000000
# 5 0.000000 0.000000 0.000000 0.000000 0.017707 0.000000
# 6 0.000000 0.000000 0.000000 0.000000 0.000000 0.052977
#
#
# Mechanical properties :
#
#
# Convention : Reuss Voigt Hill
#
# Bulk Modulus (GPa) = 11.61838 57.52802 34.57320
# Shear Modulus (GPa) = 14.54549 32.46651 23.50600
#
# Velocity S-wave (km/s) = 2.53381 3.78553 3.22106
# Velocity P-wave (km/s) = 3.69979 6.67076 5.39386
#
# Compressibility (1/GPa) = 0.08607054
#
# Stress axis : x y z
#
# Youngs Moduli (GPa) = 132.46459 8.60316 88.03996
#
# Poissons Ratio (x) = 0.05526 0.23039
# Poissons Ratio (y) = 0.85084 1.36433
# Poissons Ratio (z) = 0.34664 0.13332
#
# Static dielectric constant tensor:
#      x y z
#    x 1.929510 0.000000 0.000000 
#    y 0.000000 1.924830 0.000000 
#    z 0.000000 0.000000 1.780220 
# 
# From -- ./inp_files/27046.got.cif
#   From: 2010.05.17/outbox.cif.g08.bks.cpg/sg66_14_cif.got.tgz:27046.got - 2010.06.03 17:51:23.
