data_PCOD9497733
_publ_section_title
;
Structure prediction by ZEFSAII (Michael W. Deem and Ramdas Pophale) SiO2 
 PCOD9497733
Probable space group: C C C M
;
_chemical_formula_sum "Si O2"
_cell_formula_units_Z 80
_cell_length_a 5.193248
_cell_length_b 24.619257
_cell_length_c 32.110773
_cell_angle_alpha 90.000000
_cell_angle_beta 90.000000
_cell_angle_gamma 90.000000
_cell_volume 4105.487791
_symmetry_space_group_name_H-M "C C C M"
_symmetry_group_IT_number 66
_symmetry_cell_setting 'orthorhombic'
loop_
_space_group_symop_operation_xyz
x,y,z
-x,-y,z
x,-y,1/2-z
-x,y,1/2-z
-x,-y,-z
x,y,-z
-x,y,1/2+z
x,-y,1/2+z
1/2+x,1/2+y,z
1/2-x,1/2-y,z
1/2+x,1/2-y,1/2-z
1/2-x,1/2+y,1/2-z
1/2-x,1/2-y,-z
1/2+x,1/2+y,-z
1/2-x,1/2+y,1/2+z
1/2+x,1/2-y,1/2+z
loop_
_atom_site_type_symbol
_atom_site_label
_atom_site_fract_x
_atom_site_fract_y
_atom_site_fract_z
Si Si1 0.845432 0.669187 0.952087
Si Si2 0.878327 0.920833 0.363984
Si Si3 0.146777 0.194003 0.398777
Si Si4 0.743186 0.438811 0.768896
Si Si5 0.876225 0.446092 0.581975
O O1 0.612269 0.696311 0.926417
O O2 0.809452 0.603708 0.948193
O O3 0.119307 0.680057 0.930387
O O4 0.844739 0.685584 0.000000
O O5 0.907381 0.855408 0.367081
O O6 0.809488 0.940704 0.317843
O O7 0.620392 0.931219 0.389810
O O8 0.128193 0.947578 0.386680
O O9 0.250000 0.250000 0.379164
O O10 0.746077 0.500000 0.750000
O O11 0.500000 0.408752 0.750000
O O12 0.000000 0.413497 0.750000
O O13 0.000000 0.500000 0.560982
#
# Coordination Sequence:
#
# PCOD9497733 Si02
#       5
#    16  16  16  16  16
#     4  10  21  36  53  82 112 137 184 236 274 323
#     4  10  21  36  52  78 112 139 183 225 264 331
#     4  10  21  37  57  79 104 145 185 226 282 324
#     4  10  21  32  50  79 107 138 168 215 267 319
#     4  10  21  33  54  76 107 153 181 214 268 333
#
# _framework density 19.486114000000001
#
# number of rings (size 3 to 8) (size 9 to 14) (size 15 to 20)
#    0.000    2.000    0.000    3.000    8.400    2.800 
#    0.000    0.000    0.000    8.400    0.000    0.000 
#    0.000    0.000    0.000    0.000    0.000    0.000 
#
# Total GULP energy -222684.682852 kJ/mol
# GULP energy per Si atom -5567.117071 kJ/mol
# Density = 1.944176 g / cm^3
# Si number density = 19.486114 Si / 1000 Ang^3
#
#
#
# Elastic Constant Matrix: (Units=GPa)
#
#
# Indices 1 2 3 4 5 6 
#
# 1 166.7472 15.2028 15.9836 0.0000 0.0000 0.0000
# 2 15.2028 104.2866 9.1143 0.0000 0.0000 0.0000
# 3 15.9836 9.1143 63.4795 0.0000 0.0000 0.0000
# 4 0.0000 0.0000 0.0000 13.1740 0.0000 0.0000
# 5 0.0000 0.0000 0.0000 0.0000 40.5706 0.0000
# 6 0.0000 0.0000 0.0000 0.0000 0.0000 29.3963
#
#
#
# Elastic Compliance Matrix: (Units=1/GPa)
#
#
# Indices 1 2 3 4 5 6 
#
# 1 0.006207 -0.000778 -0.001451 0.000000 0.000000 0.000000
# 2 -0.000778 0.009808 -0.001212 0.000000 0.000000 0.000000
# 3 -0.001451 -0.001212 0.016293 0.000000 0.000000 0.000000
# 4 0.000000 0.000000 0.000000 0.075907 0.000000 0.000000
# 5 0.000000 0.000000 0.000000 0.000000 0.024648 0.000000
# 6 0.000000 0.000000 0.000000 0.000000 0.000000 0.034018
#
#
# Mechanical properties :
#
#
# Convention : Reuss Voigt Hill
#
# Bulk Modulus (GPa) = 39.33156 46.12385 42.72770
# Shear Modulus (GPa) = 27.43643 36.24236 31.83939
#
# Velocity S-wave (km/s) = 3.75640 4.31734 4.04660
# Velocity P-wave (km/s) = 6.24838 6.96951 6.61878
#
# Compressibility (1/GPa) = 0.02542487
#
# Stress axis : x y z
#
# Youngs Moduli (GPa) = 161.10477 101.95409 61.37762
#
# Poissons Ratio (x) = 0.07932 0.08907
# Poissons Ratio (y) = 0.12535 0.07441
# Poissons Ratio (z) = 0.23379 0.12361
#
# Static dielectric constant tensor:
#      x y z
#    x 1.675710 0.000000 0.000000 
#    y 0.000000 1.818140 0.000000 
#    z 0.000000 0.000000 1.677610 
# 
# From -- ./inp_files/67204.got.cif
#   From: 2010.05.17/outbox.cif.g08.bks.cpg/sg66_34_cif.got.tgz:67204.got - 2010.06.03 17:51:23.
