data_PCOD9497368
_publ_section_title
;
Structure prediction by ZEFSAII (Michael W. Deem and Ramdas Pophale) SiO2 
 PCOD9497368
Probable space group: C C C M
;
_chemical_formula_sum "Si O2"
_cell_formula_units_Z 88
_cell_length_a 26.916631
_cell_length_b 5.552438
_cell_length_c 30.813420
_cell_angle_alpha 90.000000
_cell_angle_beta 90.000000
_cell_angle_gamma 90.000000
_cell_volume 4605.155742
_symmetry_space_group_name_H-M "C C C M"
_symmetry_group_IT_number 66
_symmetry_cell_setting 'orthorhombic'
loop_
_space_group_symop_operation_xyz
x,y,z
-x,-y,z
x,-y,1/2-z
-x,y,1/2-z
-x,-y,-z
x,y,-z
-x,y,1/2+z
x,-y,1/2+z
1/2+x,1/2+y,z
1/2-x,1/2-y,z
1/2+x,1/2-y,1/2-z
1/2-x,1/2+y,1/2-z
1/2-x,1/2-y,-z
1/2+x,1/2+y,-z
1/2-x,1/2+y,1/2+z
1/2+x,1/2-y,1/2+z
loop_
_atom_site_type_symbol
_atom_site_label
_atom_site_fract_x
_atom_site_fract_y
_atom_site_fract_z
Si Si1 0.626042 0.740163 0.163140
Si Si2 0.396544 0.500000 0.250000
Si Si3 0.858911 0.248839 0.948529
Si Si4 0.551041 0.129642 0.805771
Si Si5 0.191162 0.252372 0.084295
Si Si6 0.052449 0.924035 0.107689
O O1 0.631756 0.573530 0.205889
O O2 0.675398 0.765740 0.135041
O O3 0.586452 0.636161 0.127941
O O4 0.599456 0.976497 0.181048
O O5 0.432250 0.712795 0.234725
O O6 0.832317 0.501961 0.935979
O O7 0.911558 0.226398 0.923606
O O8 0.829580 0.003142 0.934465
O O9 0.865444 0.243266 0.000000
O O10 0.539140 0.281234 0.848818
O O11 0.500000 0.000000 0.797020
O O12 0.250000 0.250000 0.078240
O O13 0.000000 0.000000 0.087164
#
# Coordination Sequence:
#
# PCOD9497368 Si02
#       6
#    16   8  16  16  16  16
#     4  10  21  38  59  83 122 164 207 255 310 373
#     4  10  24  35  54  90 124 158 208 266 309 360
#     4  11  24  42  67 100 129 158 208 267 319 384
#     4  11  20  36  57  85 123 167 209 255 309 376
#     4  11  24  44  70  93 123 167 210 262 329 386
#     4  10  20  37  59  87 125 171 210 244 311 381
#
# _framework density 19.109017000000001
#
# number of rings (size 3 to 8) (size 9 to 14) (size 15 to 20)
#    0.000    1.455    3.636    1.636    0.000    4.727 
#    0.000    0.000    4.000    3.818    0.000    0.000 
#    0.000    0.000    0.000    0.000    0.000    0.000 
#
# Total GULP energy -245392.795131 kJ/mol
# GULP energy per Si atom -5577.108980 kJ/mol
# Density = 1.906552 g / cm^3
# Si number density = 19.109017 Si / 1000 Ang^3
#
#
#
# Elastic Constant Matrix: (Units=GPa)
#
#
# Indices 1 2 3 4 5 6 
#
# 1 97.2820 30.7369 45.4126 0.0000 0.0000 0.0000
# 2 30.7369 97.0269 33.7201 0.0000 0.0000 0.0000
# 3 45.4126 33.7201 114.0920 0.0000 0.0000 0.0000
# 4 0.0000 0.0000 0.0000 28.3528 0.0000 0.0000
# 5 0.0000 0.0000 0.0000 0.0000 2.2922 0.0000
# 6 0.0000 0.0000 0.0000 0.0000 0.0000 23.6033
#
#
#
# Elastic Compliance Matrix: (Units=1/GPa)
#
#
# Indices 1 2 3 4 5 6 
#
# 1 0.013199 -0.002625 -0.004478 0.000000 0.000000 0.000000
# 2 -0.002625 0.012008 -0.002504 0.000000 0.000000 0.000000
# 3 -0.004478 -0.002504 0.011287 0.000000 0.000000 0.000000
# 4 0.000000 0.000000 0.000000 0.035270 0.000000 0.000000
# 5 0.000000 0.000000 0.000000 0.000000 0.436263 0.000000
# 6 0.000000 0.000000 0.000000 0.000000 0.000000 0.042367
#
#
# Mechanical properties :
#
#
# Convention : Reuss Voigt Hill
#
# Bulk Modulus (GPa) = 57.86890 58.68224 58.27557
# Shear Modulus (GPa) = 8.69007 24.08508 16.38758
#
# Velocity S-wave (km/s) = 2.13483 3.55407 2.93163
# Velocity P-wave (km/s) = 6.03539 6.90056 6.48243
#
# Compressibility (1/GPa) = 0.01728044
#
# Stress axis : x y z
#
# Youngs Moduli (GPa) = 75.76245 83.27568 88.59492
#
# Poissons Ratio (x) = 0.21861 0.39672
# Poissons Ratio (y) = 0.19888 0.22186
# Poissons Ratio (z) = 0.33925 0.20854
#
# Static dielectric constant tensor:
#      x y z
#    x 1.658600 0.000000 0.000000 
#    y 0.000000 1.756130 0.000000 
#    z 0.000000 0.000000 1.659340 
# 
# From -- ./inp_files/70364.got.cif
#   From: 2010.05.17/outbox.cif.g08.bks.cpg/sg66_36_cif.got.tgz:70364.got - 2010.06.03 17:51:23.
