data_PCOD9497693
_publ_section_title
;
Structure prediction by ZEFSAII (Michael W. Deem and Ramdas Pophale) SiO2 
 PCOD9497693
Probable space group: C C C M
;
_chemical_formula_sum "Si O2"
_cell_formula_units_Z 96
_cell_length_a 8.767996
_cell_length_b 22.222005
_cell_length_c 26.288150
_cell_angle_alpha 90.000000
_cell_angle_beta 90.000000
_cell_angle_gamma 90.000000
_cell_volume 5122.047577
_symmetry_space_group_name_H-M "C C C M"
_symmetry_group_IT_number 66
_symmetry_cell_setting 'orthorhombic'
loop_
_space_group_symop_operation_xyz
x,y,z
-x,-y,z
x,-y,1/2-z
-x,y,1/2-z
-x,-y,-z
x,y,-z
-x,y,1/2+z
x,-y,1/2+z
1/2+x,1/2+y,z
1/2-x,1/2-y,z
1/2+x,1/2-y,1/2-z
1/2-x,1/2+y,1/2-z
1/2-x,1/2-y,-z
1/2+x,1/2+y,-z
1/2-x,1/2+y,1/2+z
1/2+x,1/2-y,1/2+z
loop_
_atom_site_type_symbol
_atom_site_label
_atom_site_fract_x
_atom_site_fract_y
_atom_site_fract_z
Si Si1 0.907815 0.383033 0.803030
Si Si2 0.337676 0.185983 0.940891
Si Si3 0.322142 0.516741 0.194327
Si Si4 0.414624 0.769381 0.866687
Si Si5 0.791364 0.404715 0.644135
Si Si6 0.878003 0.802612 0.204514
O O1 0.746702 0.416601 0.810326
O O2 0.890765 0.313817 0.818539
O O3 0.000000 0.389082 0.750000
O O4 0.029622 0.407936 0.843474
O O5 0.250000 0.250000 0.937157
O O6 0.495928 0.198577 0.912010
O O7 0.264532 0.132206 0.907557
O O8 0.351479 0.170690 0.000000
O O9 0.500000 0.500000 0.196652
O O10 0.256044 0.500000 0.250000
O O11 0.264959 0.472214 0.150567
O O12 0.250000 0.750000 0.884211
O O13 0.522867 0.717964 0.844042
O O14 0.711213 0.363227 0.688234
O O15 0.750000 0.750000 0.213213
O O16 0.000000 0.810232 0.250000
#
# Coordination Sequence:
#
# PCOD9497693 Si02
#       6
#    16  16  16  16  16  16
#     4  11  22  38  55  81 120 168 204 244 296 372
#     4  10  20  41  66  89 120 161 210 263 316 372
#     4  11  25  37  55  83 118 164 205 246 298 365
#     4  11  23  36  60  90 126 161 201 256 317 378
#     4  11  22  38  59  84 120 155 208 249 295 375
#     4  12  23  36  53  89 128 167 199 243 309 380
#
# _framework density 18.742505000000001
#
# number of rings (size 3 to 8) (size 9 to 14) (size 15 to 20)
#    0.000    1.000    6.667    1.500    7.000    0.333 
#    0.000    0.000    0.000    8.500    0.000    0.000 
#    0.000    0.000    0.000    0.000    0.000    0.000 
#
# Total GULP energy -267612.381614 kJ/mol
# GULP energy per Si atom -5575.257950 kJ/mol
# Density = 1.869985 g / cm^3
# Si number density = 18.742505 Si / 1000 Ang^3
#
#
#
# Elastic Constant Matrix: (Units=GPa)
#
#
# Indices 1 2 3 4 5 6 
#
# 1 86.3159 19.5278 24.7854 0.0000 0.0000 0.0000
# 2 19.5278 57.0080 22.8456 0.0000 0.0000 0.0000
# 3 24.7854 22.8456 114.4631 0.0000 0.0000 0.0000
# 4 0.0000 0.0000 0.0000 13.3977 0.0000 0.0000
# 5 0.0000 0.0000 0.0000 0.0000 17.6095 0.0000
# 6 0.0000 0.0000 0.0000 0.0000 0.0000 32.0508
#
#
#
# Elastic Compliance Matrix: (Units=1/GPa)
#
#
# Indices 1 2 3 4 5 6 
#
# 1 0.013005 -0.003615 -0.002094 0.000000 0.000000 0.000000
# 2 -0.003615 0.020072 -0.003223 0.000000 0.000000 0.000000
# 3 -0.002094 -0.003223 0.009833 0.000000 0.000000 0.000000
# 4 0.000000 0.000000 0.000000 0.074640 0.000000 0.000000
# 5 0.000000 0.000000 0.000000 0.000000 0.056787 0.000000
# 6 0.000000 0.000000 0.000000 0.000000 0.000000 0.031200
#
#
# Mechanical properties :
#
#
# Convention : Reuss Voigt Hill
#
# Bulk Modulus (GPa) = 39.93050 43.56720 41.74885
# Shear Modulus (GPa) = 21.57488 25.32015 23.44751
#
# Velocity S-wave (km/s) = 3.39650 3.67951 3.54083
# Velocity P-wave (km/s) = 6.06074 6.43019 6.24820
#
# Compressibility (1/GPa) = 0.02504351
#
# Stress axis : x y z
#
# Youngs Moduli (GPa) = 76.89540 49.82185 101.69561
#
# Poissons Ratio (x) = 0.18012 0.21299
# Poissons Ratio (y) = 0.27801 0.32779
# Poissons Ratio (z) = 0.16105 0.16059
#
# Static dielectric constant tensor:
#      x y z
#    x 1.696530 0.000000 0.000000 
#    y 0.000000 1.681610 0.000000 
#    z 0.000000 0.000000 1.644540 
# 
# From -- ./inp_files/55646.got.cif
#   From: 2010.05.17/outbox.cif.g08.bks.cpg/sg66_28_cif.got.tgz:55646.got - 2010.06.03 17:51:23.
