data_PCOD9497409
_publ_section_title
;
Structure prediction by ZEFSAII (Michael W. Deem and Ramdas Pophale) SiO2 
 PCOD9497409
Probable space group: C C C M
;
_chemical_formula_sum "Si O2"
_cell_formula_units_Z 88
_cell_length_a 21.586335
_cell_length_b 12.015883
_cell_length_c 16.257970
_cell_angle_alpha 90.000000
_cell_angle_beta 90.000000
_cell_angle_gamma 90.000000
_cell_volume 4216.973981
_symmetry_space_group_name_H-M "C C C M"
_symmetry_group_IT_number 66
_symmetry_cell_setting 'orthorhombic'
loop_
_space_group_symop_operation_xyz
x,y,z
-x,-y,z
x,-y,1/2-z
-x,y,1/2-z
-x,-y,-z
x,y,-z
-x,y,1/2+z
x,-y,1/2+z
1/2+x,1/2+y,z
1/2-x,1/2-y,z
1/2+x,1/2-y,1/2-z
1/2-x,1/2+y,1/2-z
1/2-x,1/2-y,-z
1/2+x,1/2+y,-z
1/2-x,1/2+y,1/2+z
1/2+x,1/2-y,1/2+z
loop_
_atom_site_type_symbol
_atom_site_label
_atom_site_fract_x
_atom_site_fract_y
_atom_site_fract_z
Si Si1 0.750000 0.250000 0.809346
Si Si2 0.661145 0.513135 0.901488
Si Si3 0.621200 0.241546 0.400631
Si Si4 0.007190 0.627991 0.899557
Si Si5 0.781874 0.422177 0.315345
Si Si6 0.374179 0.730122 0.900607
O O1 0.739449 0.350678 0.746658
O O2 0.690265 0.226776 0.863957
O O3 0.631177 0.630360 0.875602
O O4 0.733139 0.516189 0.874036
O O5 0.625741 0.400633 0.875562
O O6 0.660522 0.512115 0.000000
O O7 0.626366 0.236193 0.500000
O O8 0.554118 0.195921 0.376501
O O9 0.673172 0.160188 0.363435
O O10 0.068517 0.694234 0.872272
O O11 0.000000 0.500000 0.872146
O O12 0.009664 0.625486 0.000000
O O13 0.817351 0.500000 0.250000
O O14 0.372508 0.734690 0.000000
#
# Coordination Sequence:
#
# PCOD9497409 Si02
#       6
#     8  16  16  16  16  16
#     4  12  23  38  61  86 124 162 196 250 307 366
#     4  10  20  37  61  89 121 156 202 255 302 364
#     4  10  21  39  63  88 118 161 205 250 305 363
#     4   9  20  38  60  86 118 154 198 248 296 358
#     4  12  23  37  58  89 126 160 201 250 312 367
#     4  10  22  39  60  90 120 156 204 251 305 364
#
# _framework density 20.868044000000001
#
# number of rings (size 3 to 8) (size 9 to 14) (size 15 to 20)
#    0.000    1.636    3.636    0.818    2.545    2.182 
#    0.000    4.545    0.000    0.000    0.000    0.000 
#    0.000    0.000    0.000    0.000    0.000    0.000 
#
# Total GULP energy -245492.408188 kJ/mol
# GULP energy per Si atom -5579.372913 kJ/mol
# Density = 2.082055 g / cm^3
# Si number density = 20.868044 Si / 1000 Ang^3
#
#
#
# Elastic Constant Matrix: (Units=GPa)
#
#
# Indices 1 2 3 4 5 6 
#
# 1 166.5954 90.3254 32.1854 0.0000 0.0000 0.0000
# 2 90.3254 154.0826 34.6128 0.0000 0.0000 0.0000
# 3 32.1854 34.6128 21.5093 0.0000 0.0000 0.0000
# 4 0.0000 0.0000 0.0000 22.3968 0.0000 0.0000
# 5 0.0000 0.0000 0.0000 0.0000 1.6063 0.0000
# 6 0.0000 0.0000 0.0000 0.0000 0.0000 38.5601
#
#
#
# Elastic Compliance Matrix: (Units=1/GPa)
#
#
# Indices 1 2 3 4 5 6 
#
# 1 0.009676 -0.003790 -0.008381 0.000000 0.000000 0.000000
# 2 -0.003790 0.011649 -0.013074 0.000000 0.000000 0.000000
# 3 -0.008381 -0.013074 0.080071 0.000000 0.000000 0.000000
# 4 0.000000 0.000000 0.000000 0.044649 0.000000 0.000000
# 5 0.000000 0.000000 0.000000 0.000000 0.622567 0.000000
# 6 0.000000 0.000000 0.000000 0.000000 0.000000 0.025934
#
#
# Mechanical properties :
#
#
# Convention : Reuss Voigt Hill
#
# Bulk Modulus (GPa) = 19.64386 72.93718 46.29052
# Shear Modulus (GPa) = 5.80044 24.85021 15.32533
#
# Velocity S-wave (km/s) = 1.66902 3.45458 2.71291
# Velocity P-wave (km/s) = 3.62601 7.13720 5.66072
#
# Compressibility (1/GPa) = 0.05090650
#
# Stress axis : x y z
#
# Youngs Moduli (GPa) = 103.34332 85.84709 12.48899
#
# Poissons Ratio (x) = 0.32535 0.10467
# Poissons Ratio (y) = 0.39166 0.16328
# Poissons Ratio (z) = 0.86609 1.12236
#
# Static dielectric constant tensor:
#      x y z
#    x 1.704960 0.000000 0.000000 
#    y 0.000000 1.841560 0.000000 
#    z 0.000000 0.000000 1.739220 
# 
# From -- ./inp_files/42798.got.cif
#   From: 2010.05.17/outbox.cif.g08.bks.cpg/sg66_22_cif.got.tgz:42798.got - 2010.06.03 17:51:23.
