data_PCOD9497311
_publ_section_title
;
Structure prediction by ZEFSAII (Michael W. Deem and Ramdas Pophale) SiO2 
 PCOD9497311
Probable space group: C C C M
;
_chemical_formula_sum "Si O2"
_cell_formula_units_Z 116
_cell_length_a 22.743926
_cell_length_b 9.627826
_cell_length_c 28.687867
_cell_angle_alpha 90.000000
_cell_angle_beta 90.000000
_cell_angle_gamma 90.000000
_cell_volume 6281.913113
_symmetry_space_group_name_H-M "C C C M"
_symmetry_group_IT_number 66
_symmetry_cell_setting 'orthorhombic'
loop_
_space_group_symop_operation_xyz
x,y,z
-x,-y,z
x,-y,1/2-z
-x,y,1/2-z
-x,-y,-z
x,y,-z
-x,y,1/2+z
x,-y,1/2+z
1/2+x,1/2+y,z
1/2-x,1/2-y,z
1/2+x,1/2-y,1/2-z
1/2-x,1/2+y,1/2-z
1/2-x,1/2-y,-z
1/2+x,1/2+y,-z
1/2-x,1/2+y,1/2+z
1/2+x,1/2-y,1/2+z
loop_
_atom_site_type_symbol
_atom_site_label
_atom_site_fract_x
_atom_site_fract_y
_atom_site_fract_z
Si Si1 0.182309 0.717372 0.784477
Si Si2 0.378595 0.038726 0.554877
Si Si3 0.645199 0.216202 0.317024
Si Si4 0.500000 0.500000 0.000000
Si Si5 0.214278 0.506340 0.866107
Si Si6 0.460703 0.868733 0.619922
Si Si7 0.059425 0.827486 0.083719
Si Si8 0.151142 0.966354 0.846415
O O1 0.250000 0.750000 0.771580
O O2 0.151407 0.675831 0.736839
O O3 0.186238 0.609208 0.827073
O O4 0.152978 0.854887 0.805002
O O5 0.369785 0.022666 0.500000
O O6 0.319663 0.024986 0.585478
O O7 0.405880 0.189735 0.566302
O O8 0.424015 0.922172 0.574581
O O9 0.586242 0.159987 0.340389
O O10 0.644651 0.380608 0.325491
O O11 0.698215 0.143945 0.345478
O O12 0.537481 0.417750 0.040783
O O13 0.283315 0.537139 0.868941
O O14 0.502181 0.738146 0.609265
O O15 0.500000 0.000000 0.633466
O O16 0.101366 0.917613 0.117441
#
# Coordination Sequence:
#
# PCOD9497311 Si02
#       8
#    16  16  16   4  16  16  16  16
#     4  10  20  36  63  93 124 163 204 245 298 374
#     4  10  20  39  66  89 113 159 203 249 309 371
#     4  11  21  37  63  93 124 165 208 250 309 362
#     4  12  24  36  58  86 112 160 210 260 302 348
#     4  10  21  39  62  93 130 158 200 254 305 371
#     4   9  22  40  64  87 118 161 207 261 301 355
#     4  11  22  39  59  84 120 158 207 256 301 364
#     4  11  22  38  61  91 132 163 194 255 313 366
#
# _framework density 18.465712
#
# number of rings (size 3 to 8) (size 9 to 14) (size 15 to 20)
#    0.000    1.655    2.069    2.897    0.966    3.034 
#    1.241    1.379    3.034    3.310    0.000    0.000 
#    0.000    0.000    0.000    0.000    0.000    0.000 
#
# Total GULP energy -323298.812979 kJ/mol
# GULP energy per Si atom -5574.117465 kJ/mol
# Density = 1.842368 g / cm^3
# Si number density = 18.465712 Si / 1000 Ang^3
#
#
#
# Elastic Constant Matrix: (Units=GPa)
#
#
# Indices 1 2 3 4 5 6 
#
# 1 86.0891 24.8441 62.7922 0.0000 0.0000 0.0000
# 2 24.8441 66.7285 42.9262 0.0000 0.0000 0.0000
# 3 62.7922 42.9262 127.8050 0.0000 0.0000 0.0000
# 4 0.0000 0.0000 0.0000 16.7758 0.0000 0.0000
# 5 0.0000 0.0000 0.0000 0.0000 3.7441 0.0000
# 6 0.0000 0.0000 0.0000 0.0000 0.0000 28.2191
#
#
#
# Elastic Compliance Matrix: (Units=1/GPa)
#
#
# Indices 1 2 3 4 5 6 
#
# 1 0.018192 -0.001305 -0.008500 0.000000 0.000000 0.000000
# 2 -0.001305 0.019210 -0.005811 0.000000 0.000000 0.000000
# 3 -0.008500 -0.005811 0.013952 0.000000 0.000000 0.000000
# 4 0.000000 0.000000 0.000000 0.059610 0.000000 0.000000
# 5 0.000000 0.000000 0.000000 0.000000 0.267086 0.000000
# 6 0.000000 0.000000 0.000000 0.000000 0.000000 0.035437
#
#
# Mechanical properties :
#
#
# Convention : Reuss Voigt Hill
#
# Bulk Modulus (GPa) = 49.69508 60.19418 54.94463
# Shear Modulus (GPa) = 11.07602 19.75180 15.41391
#
# Velocity S-wave (km/s) = 2.45177 3.27409 2.89231
# Velocity P-wave (km/s) = 5.91485 6.85285 6.40105
#
# Compressibility (1/GPa) = 0.02012271
#
# Stress axis : x y z
#
# Youngs Moduli (GPa) = 54.96912 52.05569 71.67423
#
# Poissons Ratio (x) = 0.06796 0.60920
# Poissons Ratio (y) = 0.07176 0.41648
# Poissons Ratio (z) = 0.46721 0.30248
#
# Static dielectric constant tensor:
#      x y z
#    x 1.645910 0.000000 0.000000 
#    y 0.000000 1.667430 0.000000 
#    z 0.000000 0.000000 1.593370 
# 
# From -- ./inp_files/66113.got.cif
#   From: 2010.05.17/outbox.cif.g08.bks.cpg/sg66_34_cif.got.tgz:66113.got - 2010.06.03 17:51:23.
