data_PCOD9497925
_publ_section_title
;
Structure prediction by ZEFSAII (Michael W. Deem and Ramdas Pophale) SiO2 
 PCOD9497925
Probable space group: C C C M
;
_chemical_formula_sum "Si O2"
_cell_formula_units_Z 80
_cell_length_a 26.510893
_cell_length_b 8.904489
_cell_length_c 16.474371
_cell_angle_alpha 90.000000
_cell_angle_beta 90.000000
_cell_angle_gamma 90.000000
_cell_volume 3889.038125
_symmetry_space_group_name_H-M "C C C M"
_symmetry_group_IT_number 66
_symmetry_cell_setting 'orthorhombic'
loop_
_space_group_symop_operation_xyz
x,y,z
-x,-y,z
x,-y,1/2-z
-x,y,1/2-z
-x,-y,-z
x,y,-z
-x,y,1/2+z
x,-y,1/2+z
1/2+x,1/2+y,z
1/2-x,1/2-y,z
1/2+x,1/2-y,1/2-z
1/2-x,1/2+y,1/2-z
1/2-x,1/2-y,-z
1/2+x,1/2+y,-z
1/2-x,1/2+y,1/2+z
1/2+x,1/2-y,1/2+z
loop_
_atom_site_type_symbol
_atom_site_label
_atom_site_fract_x
_atom_site_fract_y
_atom_site_fract_z
Si Si1 0.092596 0.826571 0.406773
Si Si2 0.792097 0.122568 0.821880
Si Si3 0.202249 0.833062 0.405902
Si Si4 0.990389 0.676921 0.598089
Si Si5 0.907831 0.879546 0.675621
O O1 0.093568 0.778065 0.500000
O O2 0.147572 0.790691 0.369857
O O3 0.042277 0.754811 0.372747
O O4 0.088676 0.005416 0.399909
O O5 0.750000 0.250000 0.823095
O O6 0.850181 0.176329 0.816801
O O7 0.784855 0.000000 0.750000
O O8 0.789816 0.010842 0.898687
O O9 0.199823 0.790283 0.500000
O O10 0.250000 0.750000 0.368247
O O11 0.982076 0.706112 0.500000
O O12 0.946340 0.747491 0.653643
O O13 0.000000 0.500000 0.606494
O O14 0.917729 0.000000 0.750000
#
# Coordination Sequence:
#
# PCOD9497925 Si02
#       5
#    16  16  16  16  16
#     4   9  18  34  55  77 107 151 192 223 270 339
#     4  10  21  37  57  79 107 145 186 226 274 338
#     4   9  18  33  54  81 111 142 181 230 278 325
#     4  10  21  37  58  84 114 149 190 237 289 341
#     4  10  21  37  56  81 110 146 189 230 277 336
#
# _framework density 20.570637999999999
#
# number of rings (size 3 to 8) (size 9 to 14) (size 15 to 20)
#    0.000    2.400    0.000    1.800    0.000    6.000 
#    0.000    4.000    0.000    0.000    0.000    0.000 
#    0.000    0.000    0.000    0.000    0.000    0.000 
#
# Total GULP energy -222679.828779 kJ/mol
# GULP energy per Si atom -5566.995719 kJ/mol
# Density = 2.052382 g / cm^3
# Si number density = 20.570638 Si / 1000 Ang^3
#
#
#
# Elastic Constant Matrix: (Units=GPa)
#
#
# Indices 1 2 3 4 5 6 
#
# 1 214.2234 110.3855 36.2105 0.0000 0.0000 0.0000
# 2 110.3855 90.1542 15.7943 0.0000 0.0000 0.0000
# 3 36.2105 15.7943 47.8186 0.0000 0.0000 0.0000
# 4 0.0000 0.0000 0.0000 27.9151 0.0000 0.0000
# 5 0.0000 0.0000 0.0000 0.0000 13.8565 0.0000
# 6 0.0000 0.0000 0.0000 0.0000 0.0000 45.0097
#
#
#
# Elastic Compliance Matrix: (Units=1/GPa)
#
#
# Indices 1 2 3 4 5 6 
#
# 1 0.013746 -0.015929 -0.005148 0.000000 0.000000 0.000000
# 2 -0.015929 0.030232 0.002077 0.000000 0.000000 0.000000
# 3 -0.005148 0.002077 0.024125 0.000000 0.000000 0.000000
# 4 0.000000 0.000000 0.000000 0.035823 0.000000 0.000000
# 5 0.000000 0.000000 0.000000 0.000000 0.072169 0.000000
# 6 0.000000 0.000000 0.000000 0.000000 0.000000 0.022217
#
#
# Mechanical properties :
#
#
# Convention : Reuss Voigt Hill
#
# Bulk Modulus (GPa) = 33.22010 75.21964 54.21987
# Shear Modulus (GPa) = 20.29667 30.00998 25.15332
#
# Velocity S-wave (km/s) = 3.14456 3.82367 3.50062
# Velocity P-wave (km/s) = 5.41929 7.49265 6.53867
#
# Compressibility (1/GPa) = 0.03010226
#
# Stress axis : x y z
#
# Youngs Moduli (GPa) = 72.74809 33.07776 41.45130
#
# Poissons Ratio (x) = 0.52689 0.21339
# Poissons Ratio (y) = 1.15880 -0.08608
# Poissons Ratio (z) = 0.37450 -0.06869
#
# Static dielectric constant tensor:
#      x y z
#    x 1.784130 0.000000 0.000000 
#    y 0.000000 1.698910 0.000000 
#    z 0.000000 0.000000 1.868350 
# 
# From -- ./inp_files/44121.got.cif
#   From: 2010.05.17/outbox.cif.g08.bks.cpg/sg66_23_cif.got.tgz:44121.got - 2010.06.03 17:51:23.
