data_PCOD9497026
_publ_section_title
;
Structure prediction by ZEFSAII (Michael W. Deem and Ramdas Pophale) SiO2 
 PCOD9497026
Probable space group: C C C M
;
_chemical_formula_sum "Si O2"
_cell_formula_units_Z 116
_cell_length_a 27.432496
_cell_length_b 22.398491
_cell_length_c 9.812591
_cell_angle_alpha 90.000000
_cell_angle_beta 90.000000
_cell_angle_gamma 90.000000
_cell_volume 6029.312341
_symmetry_space_group_name_H-M "C C C M"
_symmetry_group_IT_number 66
_symmetry_cell_setting 'orthorhombic'
loop_
_space_group_symop_operation_xyz
x,y,z
-x,-y,z
x,-y,1/2-z
-x,y,1/2-z
-x,-y,-z
x,y,-z
-x,y,1/2+z
x,-y,1/2+z
1/2+x,1/2+y,z
1/2-x,1/2-y,z
1/2+x,1/2-y,1/2-z
1/2-x,1/2+y,1/2-z
1/2-x,1/2-y,-z
1/2+x,1/2+y,-z
1/2-x,1/2+y,1/2+z
1/2+x,1/2-y,1/2+z
loop_
_atom_site_type_symbol
_atom_site_label
_atom_site_fract_x
_atom_site_fract_y
_atom_site_fract_z
Si Si1 0.500000 0.000000 0.250000
Si Si2 0.124555 0.059377 0.337363
Si Si3 0.042827 0.271536 0.155118
Si Si4 0.376218 0.669317 0.341877
Si Si5 0.807568 0.238607 0.156399
Si Si6 0.078842 0.404146 0.842227
Si Si7 0.259192 0.555061 0.843160
Si Si8 0.165581 0.626530 0.158428
O O1 0.537582 0.954803 0.175026
O O2 0.112601 0.056313 0.500000
O O3 0.104406 0.116102 0.254275
O O4 0.183474 0.066840 0.327225
O O5 0.112276 0.000000 0.250000
O O6 0.086864 0.224987 0.159412
O O7 0.057651 0.338800 0.195598
O O8 0.000000 0.249595 0.250000
O O9 0.025209 0.275502 0.000000
O O10 0.368981 0.650638 0.500000
O O11 0.327560 0.694116 0.269716
O O12 0.750000 0.250000 0.166427
O O13 0.834857 0.302024 0.175097
O O14 0.817122 0.217104 0.000000
O O15 0.126820 0.408932 0.749213
O O16 0.093510 0.401935 0.000000
O O17 0.245738 0.500000 0.750000
O O18 0.221307 0.607472 0.813105
O O19 0.252012 0.538357 0.000000
O O20 0.155128 0.613778 0.000000
#
# Coordination Sequence:
#
# PCOD9497026 Si02
#       8
#     4  16  16  16  16  16  16  16
#     4  12  26  44  64  86 110 152 210 262 318 376
#     4  10  20  37  61  88 122 160 199 240 284 345
#     4  10  22  41  63  87 117 151 193 248 304 365
#     4  11  22  37  58  88 120 153 196 245 302 361
#     4  10  20  35  56  83 117 158 201 245 296 360
#     4  11  24  42  61  83 112 148 194 253 310 361
#     4   9  19  35  53  78 112 153 198 240 284 342
#     4  10  21  36  55  80 113 152 193 242 298 354
#
# _framework density 19.239341
#
# number of rings (size 3 to 8) (size 9 to 14) (size 15 to 20)
#    0.000    1.793    2.069    1.862    0.966    6.345 
#    0.000    1.379    0.000    0.414    0.000    2.897 
#    0.000    0.000    0.000    0.000    0.000    0.000 
#
# Total GULP energy -323482.781226 kJ/mol
# GULP energy per Si atom -5577.289331 kJ/mol
# Density = 1.919555 g / cm^3
# Si number density = 19.239341 Si / 1000 Ang^3
#
#
#
# Elastic Constant Matrix: (Units=GPa)
#
#
# Indices 1 2 3 4 5 6 
#
# 1 37.7571 5.0850 24.9412 0.0000 0.0000 0.0000
# 2 5.0850 87.7252 43.3831 0.0000 0.0000 0.0000
# 3 24.9412 43.3831 73.6028 0.0000 0.0000 0.0000
# 4 0.0000 0.0000 0.0000 51.7124 0.0000 0.0000
# 5 0.0000 0.0000 0.0000 0.0000 18.0237 0.0000
# 6 0.0000 0.0000 0.0000 0.0000 0.0000 20.2210
#
#
#
# Elastic Compliance Matrix: (Units=1/GPa)
#
#
# Indices 1 2 3 4 5 6 
#
# 1 0.035948 0.005562 -0.015460 0.000000 0.000000 0.000000
# 2 0.005562 0.016949 -0.011875 0.000000 0.000000 0.000000
# 3 -0.015460 -0.011875 0.025825 0.000000 0.000000 0.000000
# 4 0.000000 0.000000 0.000000 0.019338 0.000000 0.000000
# 5 0.000000 0.000000 0.000000 0.000000 0.055483 0.000000
# 6 0.000000 0.000000 0.000000 0.000000 0.000000 0.049454
#
#
# Mechanical properties :
#
#
# Convention : Reuss Voigt Hill
#
# Bulk Modulus (GPa) = 28.42840 38.43375 33.43108
# Shear Modulus (GPa) = 19.35977 26.36979 22.86478
#
# Velocity S-wave (km/s) = 3.17560 3.70620 3.45111
# Velocity P-wave (km/s) = 5.31547 6.19149 5.77013
#
# Compressibility (1/GPa) = 0.03517609
#
# Stress axis : x y z
#
# Youngs Moduli (GPa) = 27.81779 58.99903 38.72291
#
# Poissons Ratio (x) = -0.32813 0.59864
# Poissons Ratio (y) = -0.15471 0.45983
# Poissons Ratio (z) = 0.43005 0.70061
#
# Static dielectric constant tensor:
#      x y z
#    x 1.666020 0.000000 0.000000 
#    y 0.000000 1.699690 0.000000 
#    z 0.000000 0.000000 1.658540 
# 
# From -- ./inp_files/10606.got.cif
#   From: 2010.05.17/outbox.cif.g08.bks.cpg/sg66_6_cif.got.tgz:10606.got - 2010.06.03 17:51:23.
