data_PCOD9497293
_publ_section_title
;
Structure prediction by ZEFSAII (Michael W. Deem and Ramdas Pophale) SiO2 
 PCOD9497293
Probable space group: C C C M
;
_chemical_formula_sum "Si O2"
_cell_formula_units_Z 56
_cell_length_a 10.660754
_cell_length_b 9.329765
_cell_length_c 22.584887
_cell_angle_alpha 90.000000
_cell_angle_beta 90.000000
_cell_angle_gamma 90.000000
_cell_volume 2246.345473
_symmetry_space_group_name_H-M "C C C M"
_symmetry_group_IT_number 66
_symmetry_cell_setting 'orthorhombic'
loop_
_space_group_symop_operation_xyz
x,y,z
-x,-y,z
x,-y,1/2-z
-x,y,1/2-z
-x,-y,-z
x,y,-z
-x,y,1/2+z
x,-y,1/2+z
1/2+x,1/2+y,z
1/2-x,1/2-y,z
1/2+x,1/2-y,1/2-z
1/2-x,1/2+y,1/2-z
1/2-x,1/2-y,-z
1/2+x,1/2+y,-z
1/2-x,1/2+y,1/2+z
1/2+x,1/2-y,1/2+z
loop_
_atom_site_type_symbol
_atom_site_label
_atom_site_fract_x
_atom_site_fract_y
_atom_site_fract_z
Si Si1 0.265719 0.918177 0.695736
Si Si2 0.000000 0.000000 0.160649
Si Si3 0.447157 0.303712 0.436835
Si Si4 0.812272 0.487895 0.934522
O O1 0.250000 0.750000 0.709759
O O2 0.335208 0.000000 0.750000
O O3 0.317399 0.931958 0.628238
O O4 0.132698 0.004864 0.692169
O O5 0.018995 0.137752 0.118888
O O6 0.508975 0.334153 0.500000
O O7 0.318017 0.395858 0.435310
O O8 0.415474 0.137852 0.433334
O O9 0.819232 0.559641 0.000000
#
# Coordination Sequence:
#
# PCOD9497293 Si02
#       4
#    16   8  16  16
#     4  11  25  41  63  88 122 165 205 257 315 371
#     4  10  20  36  62  86 123 156 211 248 299 376
#     4   8  14  28  57  91 121 157 195 248 308 365
#     4   8  16  33  58  87 121 160 203 250 309 371
#
# _framework density 24.929379999999998
#
# number of rings (size 3 to 8) (size 9 to 14) (size 15 to 20)
#    0.000    2.857    0.000    2.571    8.000    1.714 
#    0.000    1.429    0.000    3.429    0.000    0.000 
#    0.000    0.000    0.000    0.000    0.000    0.000 
#
# Total GULP energy -156248.672230 kJ/mol
# GULP energy per Si atom -5580.309723 kJ/mol
# Density = 2.487264 g / cm^3
# Si number density = 24.929380 Si / 1000 Ang^3
#
#
#
# Elastic Constant Matrix: (Units=GPa)
#
#
# Indices 1 2 3 4 5 6 
#
# 1 49.1409 0.1779 8.4301 0.0000 0.0000 0.0000
# 2 0.1779 134.7993 63.7031 0.0000 0.0000 0.0000
# 3 8.4301 63.7031 230.1342 0.0000 0.0000 0.0000
# 4 0.0000 0.0000 0.0000 33.0271 0.0000 0.0000
# 5 0.0000 0.0000 0.0000 0.0000 -5.2569 0.0000
# 6 0.0000 0.0000 0.0000 0.0000 0.0000 32.4766
#
#
#
# Elastic Compliance Matrix: (Units=1/GPa)
#
#
# Indices 1 2 3 4 5 6 
#
# 1 0.020495 0.000377 -0.000855 0.000000 0.000000 0.000000
# 2 0.000377 0.008542 -0.002378 0.000000 0.000000 0.000000
# 3 -0.000855 -0.002378 0.005035 0.000000 0.000000 0.000000
# 4 0.000000 0.000000 0.000000 0.030278 0.000000 0.000000
# 5 0.000000 0.000000 0.000000 0.000000 -0.190225 0.000000
# 6 0.000000 0.000000 0.000000 0.000000 0.000000 0.030791
#
#
# Mechanical properties :
#
#
# Convention : Reuss Voigt Hill
#
# Bulk Modulus (GPa) = 35.26207 62.07743 48.66975
# Shear Modulus (GPa) = -62.56424 34.83356 -13.86534
#
# Velocity S-wave (km/s) = -5.01508 3.74209 -2.36092
# Velocity P-wave (km/s) = 4.39992 6.60502 3.48332
#
# Compressibility (1/GPa) = 0.02835909
#
# Stress axis : x y z
#
# Youngs Moduli (GPa) = 48.79245 117.07062 198.61210
#
# Poissons Ratio (x) = -0.04414 0.16984
# Poissons Ratio (y) = -0.01840 0.47235
# Poissons Ratio (z) = 0.04172 0.27843
#
# Static dielectric constant tensor:
#      x y z
#    x 2.018890 0.000000 0.000000 
#    y 0.000000 1.976520 0.000000 
#    z 0.000000 0.000000 2.023960 
# 
# From -- ./inp_files/46411.got.cif
#   From: 2010.05.17/outbox.cif.g08.bks.cpg/sg66_24_cif.got.tgz:46411.got - 2010.06.03 17:51:23.
