data_PCOD9497514
_publ_section_title
;
Structure prediction by ZEFSAII (Michael W. Deem and Ramdas Pophale) SiO2 
 PCOD9497514
Probable space group: C C C M
;
_chemical_formula_sum "Si O2"
_cell_formula_units_Z 72
_cell_length_a 7.403172
_cell_length_b 24.926711
_cell_length_c 16.733912
_cell_angle_alpha 90.000000
_cell_angle_beta 90.000000
_cell_angle_gamma 90.000000
_cell_volume 3088.021383
_symmetry_space_group_name_H-M "C C C M"
_symmetry_group_IT_number 66
_symmetry_cell_setting 'orthorhombic'
loop_
_space_group_symop_operation_xyz
x,y,z
-x,-y,z
x,-y,1/2-z
-x,y,1/2-z
-x,-y,-z
x,y,-z
-x,y,1/2+z
x,-y,1/2+z
1/2+x,1/2+y,z
1/2-x,1/2-y,z
1/2+x,1/2-y,1/2-z
1/2-x,1/2+y,1/2-z
1/2-x,1/2-y,-z
1/2+x,1/2+y,-z
1/2-x,1/2+y,1/2+z
1/2+x,1/2-y,1/2+z
loop_
_atom_site_type_symbol
_atom_site_label
_atom_site_fract_x
_atom_site_fract_y
_atom_site_fract_z
Si Si1 0.275182 0.314352 0.173035
Si Si2 0.219520 0.161229 0.000000
Si Si3 0.330029 0.462627 0.000000
Si Si4 0.210389 0.486337 0.336234
Si Si5 0.816514 0.191125 0.000000
Si Si6 0.688915 0.637941 0.662208
O O1 0.250000 0.250000 0.182515
O O2 0.189881 0.328586 0.086295
O O3 0.215505 0.341588 0.256523
O O4 0.480814 0.339304 0.166603
O O5 0.148043 0.100517 0.000000
O O6 0.035204 0.195290 0.000000
O O7 0.500000 0.500000 0.000000
O O8 0.248668 0.478599 0.085358
O O9 0.293992 0.500000 0.250000
O O10 0.277189 0.425332 0.347782
O O11 0.000000 0.500000 0.327668
O O12 0.750000 0.250000 0.000000
O O13 0.747404 0.162719 0.920598
#
# Coordination Sequence:
#
# PCOD9497514 Si02
#       6
#    16   8   8  16   8  16
#     4  10  20  38  62  91 127 168 214 275 338 402
#     4  10  21  37  57  92 124 159 209 265 324 392
#     4  12  23  41  72 103 134 175 225 287 348 410
#     4  11  25  46  68  98 137 182 228 279 339 411
#     4  10  20  38  60  87 122 166 209 260 325 394
#     4  10  21  40  63  92 126 168 218 272 330 401
#
# _framework density 23.315901
#
# number of rings (size 3 to 8) (size 9 to 14) (size 15 to 20)
#    0.000    1.556    0.000    6.000    0.000    2.222 
#    0.000   26.667    0.000    0.000    0.000    0.000 
#    0.000    0.000    0.000    0.000    0.000    0.000 
#
# Total GULP energy -200691.610879 kJ/mol
# GULP energy per Si atom -5574.766969 kJ/mol
# Density = 2.326283 g / cm^3
# Si number density = 23.315901 Si / 1000 Ang^3
#
#
#
# Elastic Constant Matrix: (Units=GPa)
#
#
# Indices 1 2 3 4 5 6 
#
# 1 87.2805 7.6759 3.5880 0.0000 0.0000 0.0000
# 2 7.6759 136.0567 4.8993 0.0000 0.0000 0.0000
# 3 3.5880 4.8993 212.6767 0.0000 0.0000 0.0000
# 4 0.0000 0.0000 0.0000 59.0332 0.0000 0.0000
# 5 0.0000 0.0000 0.0000 0.0000 -4.6950 0.0000
# 6 0.0000 0.0000 0.0000 0.0000 0.0000 34.7842
#
#
#
# Elastic Compliance Matrix: (Units=1/GPa)
#
#
# Indices 1 2 3 4 5 6 
#
# 1 0.011521 -0.000644 -0.000180 0.000000 0.000000 0.000000
# 2 -0.000644 0.007392 -0.000159 0.000000 0.000000 0.000000
# 3 -0.000180 -0.000159 0.004709 0.000000 0.000000 0.000000
# 4 0.000000 0.000000 0.000000 0.016940 0.000000 0.000000
# 5 0.000000 0.000000 0.000000 0.000000 -0.212991 0.000000
# 6 0.000000 0.000000 0.000000 0.000000 0.000000 0.028749
#
#
# Mechanical properties :
#
#
# Convention : Reuss Voigt Hill
#
# Bulk Modulus (GPa) = 46.17470 52.03781 49.10626
# Shear Modulus (GPa) = -37.17560 45.81450 4.31945
#
# Velocity S-wave (km/s) = -3.99737 4.43758 1.36257
# Velocity P-wave (km/s) = 1.20760 6.97303 4.85618
#
# Compressibility (1/GPa) = 0.02165688
#
# Stress axis : x y z
#
# Youngs Moduli (GPa) = 86.79582 135.28277 212.37401
#
# Poissons Ratio (x) = 0.08706 0.03813
# Poissons Ratio (y) = 0.05586 0.03386
# Poissons Ratio (z) = 0.01558 0.02157
#
# Static dielectric constant tensor:
#      x y z
#    x 2.042280 0.000000 0.000000 
#    y 0.000000 1.783840 0.000000 
#    z 0.000000 0.000000 2.290940 
# 
# From -- ./inp_files/36765.got.cif
#   From: 2010.05.17/outbox.cif.g08.bks.cpg/sg66_19_cif.got.tgz:36765.got - 2010.06.03 17:51:23.
