data_PCOD9497605
_publ_section_title
;
Structure prediction by ZEFSAII (Michael W. Deem and Ramdas Pophale) SiO2 
 PCOD9497605
Probable space group: C C C M
;
_chemical_formula_sum "Si O2"
_cell_formula_units_Z 96
_cell_length_a 11.166804
_cell_length_b 23.672845
_cell_length_c 17.495869
_cell_angle_alpha 90.000000
_cell_angle_beta 90.000000
_cell_angle_gamma 90.000000
_cell_volume 4625.033324
_symmetry_space_group_name_H-M "C C C M"
_symmetry_group_IT_number 66
_symmetry_cell_setting 'orthorhombic'
loop_
_space_group_symop_operation_xyz
x,y,z
-x,-y,z
x,-y,1/2-z
-x,y,1/2-z
-x,-y,-z
x,y,-z
-x,y,1/2+z
x,-y,1/2+z
1/2+x,1/2+y,z
1/2-x,1/2-y,z
1/2+x,1/2-y,1/2-z
1/2-x,1/2+y,1/2-z
1/2-x,1/2-y,-z
1/2+x,1/2+y,-z
1/2-x,1/2+y,1/2+z
1/2+x,1/2-y,1/2+z
loop_
_atom_site_type_symbol
_atom_site_label
_atom_site_fract_x
_atom_site_fract_y
_atom_site_fract_z
Si Si1 0.614647 0.734783 0.800147
Si Si2 0.715022 0.376849 0.643273
Si Si3 0.975051 0.641941 0.840138
Si Si4 0.109995 0.455989 0.589714
Si Si5 0.997888 0.932807 0.580216
Si Si6 0.177852 0.944480 0.794502
O O1 0.500000 0.714105 0.750000
O O2 0.750000 0.750000 0.764536
O O3 0.656662 0.685262 0.856337
O O4 0.555317 0.791120 0.837051
O O5 0.852613 0.380751 0.623556
O O6 0.632567 0.413820 0.590427
O O7 0.713352 0.399800 0.730264
O O8 0.000000 0.627604 0.750000
O O9 0.073498 0.608750 0.888719
O O10 0.141620 0.460752 0.500000
O O11 0.217746 0.466370 0.649053
O O12 0.000000 0.500000 0.604480
O O13 0.946688 0.912012 0.500000
O O14 0.921460 0.915784 0.652881
O O15 0.000000 0.000000 0.580186
O O16 0.133856 0.000000 0.750000
#
# Coordination Sequence:
#
# PCOD9497605 Si02
#       6
#    16  16  16  16  16  16
#     4   9  19  35  59  91 121 153 205 262 316 357
#     4  11  21  37  63  89 119 157 207 258 303 365
#     4  10  20  39  62  91 118 157 203 257 301 371
#     4  11  25  40  59  90 129 165 201 254 321 377
#     4  11  24  38  54  82 123 162 198 245 308 366
#     4  12  22  37  61  89 119 158 211 254 304 371
#
# _framework density 20.756606000000001
#
# number of rings (size 3 to 8) (size 9 to 14) (size 15 to 20)
#    0.000    1.333    3.333    3.000    0.000    0.667 
#    0.000    0.833    0.000    3.000    0.000    4.667 
#    0.000    0.000    0.000    0.000    0.000    0.000 
#
# Total GULP energy -267403.484073 kJ/mol
# GULP energy per Si atom -5570.905918 kJ/mol
# Density = 2.070936 g / cm^3
# Si number density = 20.756606 Si / 1000 Ang^3
#
#
#
# Elastic Constant Matrix: (Units=GPa)
#
#
# Indices 1 2 3 4 5 6 
#
# 1 84.2920 18.5535 16.2356 0.0000 0.0000 0.0000
# 2 18.5535 49.4996 10.5246 0.0000 0.0000 0.0000
# 3 16.2356 10.5246 78.7492 0.0000 0.0000 0.0000
# 4 0.0000 0.0000 0.0000 -0.6825 0.0000 0.0000
# 5 0.0000 0.0000 0.0000 0.0000 16.7373 0.0000
# 6 0.0000 0.0000 0.0000 0.0000 0.0000 31.8831
#
#
#
# Elastic Compliance Matrix: (Units=1/GPa)
#
#
# Indices 1 2 3 4 5 6 
#
# 1 0.013269 -0.004520 -0.002132 0.000000 0.000000 0.000000
# 2 -0.004520 0.022333 -0.002053 0.000000 0.000000 0.000000
# 3 -0.002132 -0.002053 0.013412 0.000000 0.000000 0.000000
# 4 0.000000 0.000000 0.000000 -1.465274 0.000000 0.000000
# 5 0.000000 0.000000 0.000000 0.000000 0.059747 0.000000
# 6 0.000000 0.000000 0.000000 0.000000 0.000000 0.031365
#
#
# Mechanical properties :
#
#
# Convention : Reuss Voigt Hill
#
# Bulk Modulus (GPa) = 31.64050 33.68537 32.66294
# Shear Modulus (GPa) = -3.85444 20.73605 8.44080
#
# Velocity S-wave (km/s) = -1.36419 3.16414 2.01876
# Velocity P-wave (km/s) = 3.57706 5.44178 4.60480
#
# Compressibility (1/GPa) = 0.03160506
#
# Stress axis : x y z
#
# Youngs Moduli (GPa) = 75.36341 44.77691 74.55814
#
# Poissons Ratio (x) = 0.20241 0.15892
# Poissons Ratio (y) = 0.34067 0.15305
# Poissons Ratio (z) = 0.16064 0.09192
#
# Static dielectric constant tensor:
#      x y z
#    x 1.825170 0.000000 0.000000 
#    y 0.000000 1.783390 0.000000 
#    z 0.000000 0.000000 1.758120 
# 
# From -- ./inp_files/39023.got.cif
#   From: 2010.05.17/outbox.cif.g08.bks.cpg/sg66_20_cif.got.tgz:39023.got - 2010.06.03 17:51:23.
