data_PCOD9497141
_publ_section_title
;
Structure prediction by ZEFSAII (Michael W. Deem and Ramdas Pophale) SiO2 
 PCOD9497141
Probable space group: C C C M
;
_chemical_formula_sum "Si O2"
_cell_formula_units_Z 44
_cell_length_a 7.564556
_cell_length_b 14.165026
_cell_length_c 18.386379
_cell_angle_alpha 90.000000
_cell_angle_beta 90.000000
_cell_angle_gamma 90.000000
_cell_volume 1970.139717
_symmetry_space_group_name_H-M "C C C M"
_symmetry_group_IT_number 66
_symmetry_cell_setting 'orthorhombic'
loop_
_space_group_symop_operation_xyz
x,y,z
-x,-y,z
x,-y,1/2-z
-x,y,1/2-z
-x,-y,-z
x,y,-z
-x,y,1/2+z
x,-y,1/2+z
1/2+x,1/2+y,z
1/2-x,1/2-y,z
1/2+x,1/2-y,1/2-z
1/2-x,1/2+y,1/2-z
1/2-x,1/2-y,-z
1/2+x,1/2+y,-z
1/2-x,1/2+y,1/2+z
1/2+x,1/2-y,1/2+z
loop_
_atom_site_type_symbol
_atom_site_label
_atom_site_fract_x
_atom_site_fract_y
_atom_site_fract_z
Si Si1 0.650112 0.610183 0.500000
Si Si2 0.613253 0.832770 0.156691
Si Si3 0.250000 0.250000 0.626688
Si Si4 0.224042 0.591968 0.500000
Si Si5 0.000000 0.500000 0.750000
O O1 0.687709 0.667669 0.572835
O O2 0.438214 0.598944 0.500000
O O3 0.784070 0.521561 0.500000
O O4 0.750000 0.750000 0.174847
O O5 0.418032 0.790175 0.168213
O O6 0.645053 0.859802 0.071837
O O7 0.618934 0.930697 0.200643
#
# Coordination Sequence:
#
# PCOD9497141 Si02
#       5
#     8  16   8   8   4
#     4  10  20  35  69 116 144 183 234 305 379 429
#     4  12  26  50  74 109 148 195 250 311 367 444
#     4  11  22  40  72 104 144 191 240 300 374 437
#     4  11  21  43  73 111 148 184 246 313 368 434
#     4  12  32  50  74 106 148 212 248 296 390 444
#
# _framework density 22.333441000000001
#
# number of rings (size 3 to 8) (size 9 to 14) (size 15 to 20)
#    0.000    0.727    3.636    4.909    2.545    2.182 
#    0.000    1.818    0.000    0.000    0.000    0.000 
#    0.000    0.000    0.000    0.000    0.000    0.000 
#
# Total GULP energy -123102.974084 kJ/mol
# GULP energy per Si atom -5595.589731 kJ/mol
# Density = 2.228261 g / cm^3
# Si number density = 22.333441 Si / 1000 Ang^3
#
#
#
# Elastic Constant Matrix: (Units=GPa)
#
#
# Indices 1 2 3 4 5 6 
#
# 1 106.8531 46.5007 42.8777 0.0000 0.0000 0.0000
# 2 46.5007 158.4811 65.5747 0.0000 0.0000 0.0000
# 3 42.8777 65.5747 124.1197 0.0000 0.0000 0.0000
# 4 0.0000 0.0000 0.0000 69.3490 0.0000 0.0000
# 5 0.0000 0.0000 0.0000 0.0000 16.5010 0.0000
# 6 0.0000 0.0000 0.0000 0.0000 0.0000 30.8374
#
#
#
# Elastic Compliance Matrix: (Units=1/GPa)
#
#
# Indices 1 2 3 4 5 6 
#
# 1 0.011435 -0.002202 -0.002787 0.000000 0.000000 0.000000
# 2 -0.002202 0.008499 -0.003730 0.000000 0.000000 0.000000
# 3 -0.002787 -0.003730 0.010990 0.000000 0.000000 0.000000
# 4 0.000000 0.000000 0.000000 0.014420 0.000000 0.000000
# 5 0.000000 0.000000 0.000000 0.000000 0.060602 0.000000
# 6 0.000000 0.000000 0.000000 0.000000 0.000000 0.032428
#
#
# Mechanical properties :
#
#
# Convention : Reuss Voigt Hill
#
# Bulk Modulus (GPa) = 74.14466 77.70667 75.92566
# Shear Modulus (GPa) = 31.18998 38.97087 35.08042
#
# Velocity S-wave (km/s) = 3.74111 4.18180 3.96758
# Velocity P-wave (km/s) = 7.20640 7.62797 7.42018
#
# Compressibility (1/GPa) = 0.01348715
#
# Stress axis : x y z
#
# Youngs Moduli (GPa) = 87.44842 117.65788 90.99267
#
# Poissons Ratio (x) = 0.25910 0.25359
# Poissons Ratio (y) = 0.19257 0.33936
# Poissons Ratio (z) = 0.24371 0.43881
#
# Static dielectric constant tensor:
#      x y z
#    x 1.817640 0.000000 0.000000 
#    y 0.000000 1.869390 0.000000 
#    z 0.000000 0.000000 1.829890 
# 
# From -- ./inp_files/35694.got.cif
#   From: 2010.05.17/outbox.cif.g08.bks.cpg/sg66_18_cif.got.tgz:35694.got - 2010.06.03 17:51:23.
