data_PCOD9497898
_publ_section_title
;
Structure prediction by ZEFSAII (Michael W. Deem and Ramdas Pophale) SiO2 
 PCOD9497898
Probable space group: C C C M
;
_chemical_formula_sum "Si O2"
_cell_formula_units_Z 88
_cell_length_a 8.637917
_cell_length_b 22.418045
_cell_length_c 23.650206
_cell_angle_alpha 90.000000
_cell_angle_beta 90.000000
_cell_angle_gamma 90.000000
_cell_volume 4579.749155
_symmetry_space_group_name_H-M "C C C M"
_symmetry_group_IT_number 66
_symmetry_cell_setting 'orthorhombic'
loop_
_space_group_symop_operation_xyz
x,y,z
-x,-y,z
x,-y,1/2-z
-x,y,1/2-z
-x,-y,-z
x,y,-z
-x,y,1/2+z
x,-y,1/2+z
1/2+x,1/2+y,z
1/2-x,1/2-y,z
1/2+x,1/2-y,1/2-z
1/2-x,1/2+y,1/2-z
1/2-x,1/2-y,-z
1/2+x,1/2+y,-z
1/2-x,1/2+y,1/2+z
1/2+x,1/2-y,1/2+z
loop_
_atom_site_type_symbol
_atom_site_label
_atom_site_fract_x
_atom_site_fract_y
_atom_site_fract_z
Si Si1 0.826637 0.925735 0.182435
Si Si2 0.825098 0.184398 0.000000
Si Si3 0.686740 0.655740 0.000000
Si Si4 0.063561 0.566590 0.500000
Si Si5 0.189044 0.937365 0.182433
Si Si6 0.682574 0.811153 0.878622
Si Si7 0.117130 0.636258 0.097131
O O1 0.801920 0.927228 0.250181
O O2 0.738003 0.870715 0.154162
O O3 0.010098 0.921445 0.168795
O O4 0.782038 0.993441 0.165736
O O5 0.750000 0.250000 0.000000
O O6 0.754932 0.155857 0.056496
O O7 0.006589 0.171412 0.000000
O O8 0.755291 0.683328 0.057248
O O9 0.755436 0.587290 0.000000
O O10 0.990319 0.596294 0.443941
O O11 0.000000 0.500000 0.500000
O O12 0.311537 0.898239 0.149385
O O13 0.750000 0.750000 0.853781
O O14 0.496702 0.811489 0.882329
#
# Coordination Sequence:
#
# PCOD9497898 Si02
#       7
#    16   8   8   8  16  16  16
#     4   9  20  38  61  82 116 153 192 244 296 350
#     4  11  21  39  58  83 115 153 200 242 289 364
#     4  10  21  36  61  79 114 162 195 235 303 357
#     4   9  21  37  52  84 125 148 188 250 300 353
#     4   9  19  39  60  85 112 150 199 243 291 351
#     4  11  22  38  57  85 119 156 192 238 299 358
#     4  10  22  35  57  86 115 148 195 243 289 353
#
# _framework density 19.215026999999999
#
# number of rings (size 3 to 8) (size 9 to 14) (size 15 to 20)
#    0.000    2.182    0.000    4.091    5.091    0.727 
#    0.000    7.273    0.000    0.000    0.000    0.000 
#    0.000    0.000    0.000    0.000    0.000    0.000 
#
# Total GULP energy -245313.058918 kJ/mol
# GULP energy per Si atom -5575.296794 kJ/mol
# Density = 1.917129 g / cm^3
# Si number density = 19.215027 Si / 1000 Ang^3
#
#
#
# Elastic Constant Matrix: (Units=GPa)
#
#
# Indices 1 2 3 4 5 6 
#
# 1 127.2311 45.8605 36.2829 0.0000 0.0000 0.0000
# 2 45.8605 84.5590 28.1387 0.0000 0.0000 0.0000
# 3 36.2829 28.1387 46.3120 0.0000 0.0000 0.0000
# 4 0.0000 0.0000 0.0000 24.2632 0.0000 0.0000
# 5 0.0000 0.0000 0.0000 0.0000 -4.1351 0.0000
# 6 0.0000 0.0000 0.0000 0.0000 0.0000 35.2836
#
#
#
# Elastic Compliance Matrix: (Units=1/GPa)
#
#
# Indices 1 2 3 4 5 6 
#
# 1 0.011062 -0.003905 -0.006294 0.000000 0.000000 0.000000
# 2 -0.003905 0.016202 -0.006785 0.000000 0.000000 0.000000
# 3 -0.006294 -0.006785 0.030646 0.000000 0.000000 0.000000
# 4 0.000000 0.000000 0.000000 0.041215 0.000000 0.000000
# 5 0.000000 0.000000 0.000000 0.000000 -0.241831 0.000000
# 6 0.000000 0.000000 0.000000 0.000000 0.000000 0.028342
#
#
# Mechanical properties :
#
#
# Convention : Reuss Voigt Hill
#
# Bulk Modulus (GPa) = 41.76658 53.18515 47.47587
# Shear Modulus (GPa) = -69.04440 20.93700 -24.05370
#
# Velocity S-wave (km/s) = -6.00088 3.30451 -3.54194
# Velocity P-wave (km/s) = 5.12156 6.50375 2.83446
#
# Compressibility (1/GPa) = 0.02394259
#
# Stress axis : x y z
#
# Youngs Moduli (GPa) = 90.39822 61.72196 32.63087
#
# Poissons Ratio (x) = 0.24103 0.20537
# Poissons Ratio (y) = 0.35302 0.22138
# Poissons Ratio (z) = 0.56896 0.41875
#
# Static dielectric constant tensor:
#      x y z
#    x 1.693360 0.000000 0.000000 
#    y 0.000000 1.824240 0.000000 
#    z 0.000000 0.000000 1.650700 
# 
# From -- ./inp_files/55513.got.cif
#   From: 2010.05.17/outbox.cif.g08.bks.cpg/sg66_28_cif.got.tgz:55513.got - 2010.06.03 17:51:23.
