data_PCOD9497057
_publ_section_title
;
Structure prediction by ZEFSAII (Michael W. Deem and Ramdas Pophale) SiO2 
 PCOD9497057
Probable space group: C C C M
;
_chemical_formula_sum "Si O2"
_cell_formula_units_Z 116
_cell_length_a 22.998170
_cell_length_b 28.624740
_cell_length_c 8.975222
_cell_angle_alpha 90.000000
_cell_angle_beta 90.000000
_cell_angle_gamma 90.000000
_cell_volume 5908.537961
_symmetry_space_group_name_H-M "C C C M"
_symmetry_group_IT_number 66
_symmetry_cell_setting 'orthorhombic'
loop_
_space_group_symop_operation_xyz
x,y,z
-x,-y,z
x,-y,1/2-z
-x,y,1/2-z
-x,-y,-z
x,y,-z
-x,y,1/2+z
x,-y,1/2+z
1/2+x,1/2+y,z
1/2-x,1/2-y,z
1/2+x,1/2-y,1/2-z
1/2-x,1/2+y,1/2-z
1/2-x,1/2-y,-z
1/2+x,1/2+y,-z
1/2-x,1/2+y,1/2+z
1/2+x,1/2-y,1/2+z
loop_
_atom_site_type_symbol
_atom_site_label
_atom_site_fract_x
_atom_site_fract_y
_atom_site_fract_z
Si Si1 0.374765 0.323054 0.676008
Si Si2 0.060335 0.739633 0.678237
Si Si3 0.500000 0.500000 0.250000
Si Si4 0.399842 0.573939 0.171146
Si Si5 0.060061 0.637353 0.177404
Si Si6 0.720526 0.451695 0.323070
Si Si7 0.826558 0.383704 0.675287
Si Si8 0.241771 0.804410 0.675630
O O1 0.380322 0.313300 0.500000
O O2 0.394586 0.278868 0.772379
O O3 0.409843 0.371156 0.708783
O O4 0.307489 0.328067 0.723203
O O5 0.057525 0.735015 0.500000
O O6 0.069292 0.689067 0.752356
O O7 0.000000 0.756769 0.750000
O O8 0.453707 0.537719 0.181509
O O9 0.344753 0.559197 0.268950
O O10 0.380070 0.573624 0.000000
O O11 0.116505 0.608641 0.227315
O O12 0.000000 0.619797 0.250000
O O13 0.054601 0.640543 0.000000
O O14 0.737962 0.500000 0.250000
O O15 0.718548 0.455106 0.500000
O O16 0.770715 0.414814 0.285173
O O17 0.840144 0.390473 0.500000
O O18 0.802358 0.331175 0.694161
O O19 0.225401 0.809350 0.500000
O O20 0.250000 0.750000 0.709890
#
# Coordination Sequence:
#
# PCOD9497057 Si02
#       8
#    16  16   4  16  16  16  16  16
#     4  11  23  38  56  84 119 157 204 262 319 373
#     4  11  22  38  58  82 117 163 210 255 305 369
#     4  12  26  44  68  94 118 168 216 276 338 396
#     4  11  25  43  63  89 121 157 208 268 325 385
#     4  11  22  38  63  93 127 165 204 252 300 360
#     4  11  23  41  67  93 125 162 204 258 316 375
#     4  10  21  38  60  91 125 163 206 251 311 377
#     4  10  20  35  57  85 119 161 203 249 308 375
#
# _framework density 19.632605999999999
#
# number of rings (size 3 to 8) (size 9 to 14) (size 15 to 20)
#    0.000    1.241    2.069    5.172    0.966    4.138 
#    0.000    0.000    0.000    0.414    0.000    2.897 
#    0.000    0.000    0.000    0.000    0.000    0.000 
#
# Total GULP energy -323688.257162 kJ/mol
# GULP energy per Si atom -5580.832020 kJ/mol
# Density = 1.958792 g / cm^3
# Si number density = 19.632606 Si / 1000 Ang^3
#
#
#
# Elastic Constant Matrix: (Units=GPa)
#
#
# Indices 1 2 3 4 5 6 
#
# 1 112.4444 25.2352 56.5905 0.0000 0.0000 0.0000
# 2 25.2352 55.6984 29.4512 0.0000 0.0000 0.0000
# 3 56.5905 29.4512 101.6294 0.0000 0.0000 0.0000
# 4 0.0000 0.0000 0.0000 21.6511 0.0000 0.0000
# 5 0.0000 0.0000 0.0000 0.0000 29.1380 0.0000
# 6 0.0000 0.0000 0.0000 0.0000 0.0000 35.4340
#
#
#
# Elastic Compliance Matrix: (Units=1/GPa)
#
#
# Indices 1 2 3 4 5 6 
#
# 1 0.012614 -0.002363 -0.006339 0.000000 0.000000 0.000000
# 2 -0.002363 0.021645 -0.004957 0.000000 0.000000 0.000000
# 3 -0.006339 -0.004957 0.014806 0.000000 0.000000 0.000000
# 4 0.000000 0.000000 0.000000 0.046187 0.000000 0.000000
# 5 0.000000 0.000000 0.000000 0.000000 0.034319 0.000000
# 6 0.000000 0.000000 0.000000 0.000000 0.000000 0.028221
#
#
# Mechanical properties :
#
#
# Convention : Reuss Voigt Hill
#
# Bulk Modulus (GPa) = 45.98253 54.70287 50.34270
# Shear Modulus (GPa) = 25.99292 27.81098 26.90195
#
# Velocity S-wave (km/s) = 3.64258 3.76782 3.70573
# Velocity P-wave (km/s) = 6.41588 6.84488 6.63385
#
# Compressibility (1/GPa) = 0.02174739
#
# Stress axis : x y z
#
# Youngs Moduli (GPa) = 79.27767 46.19908 67.54087
#
# Poissons Ratio (x) = 0.10918 0.42814
# Poissons Ratio (y) = 0.18734 0.33478
# Poissons Ratio (z) = 0.50254 0.22900
#
# Static dielectric constant tensor:
#      x y z
#    x 1.727500 0.000000 0.000000 
#    y 0.000000 1.716460 0.000000 
#    z 0.000000 0.000000 1.663610 
# 
# From -- ./inp_files/9433.got.cif
#   From: 2010.05.17/outbox.cif.g08.bks.cpg/sg66_5_cif.got.tgz:9433.got - 2010.06.03 17:51:23.
