data_PCOD9497316
_publ_section_title
;
Structure prediction by ZEFSAII (Michael W. Deem and Ramdas Pophale) SiO2 
 PCOD9497316
Probable space group: C C C M
;
_chemical_formula_sum "Si O2"
_cell_formula_units_Z 112
_cell_length_a 23.605986
_cell_length_b 13.666057
_cell_length_c 15.570819
_cell_angle_alpha 90.000000
_cell_angle_beta 90.000000
_cell_angle_gamma 90.000000
_cell_volume 5023.157891
_symmetry_space_group_name_H-M "C C C M"
_symmetry_group_IT_number 66
_symmetry_cell_setting 'orthorhombic'
loop_
_space_group_symop_operation_xyz
x,y,z
-x,-y,z
x,-y,1/2-z
-x,y,1/2-z
-x,-y,-z
x,y,-z
-x,y,1/2+z
x,-y,1/2+z
1/2+x,1/2+y,z
1/2-x,1/2-y,z
1/2+x,1/2-y,1/2-z
1/2-x,1/2+y,1/2-z
1/2-x,1/2-y,-z
1/2+x,1/2+y,-z
1/2-x,1/2+y,1/2+z
1/2+x,1/2-y,1/2+z
loop_
_atom_site_type_symbol
_atom_site_label
_atom_site_fract_x
_atom_site_fract_y
_atom_site_fract_z
Si Si1 0.707384 0.158122 0.903116
Si Si2 0.562073 0.530693 0.651241
Si Si3 0.863523 0.330634 0.598548
Si Si4 0.262173 0.867745 0.278504
Si Si5 0.835969 0.100998 0.595326
Si Si6 0.912159 0.244230 0.098121
Si Si7 0.009976 0.611221 0.647745
O O1 0.750000 0.250000 0.910295
O O2 0.728100 0.099084 0.819595
O O3 0.645636 0.200528 0.877815
O O4 0.704334 0.114289 0.000000
O O5 0.500000 0.500000 0.616761
O O6 0.563523 0.500000 0.750000
O O7 0.612075 0.472906 0.604406
O O8 0.573687 0.646110 0.648688
O O9 0.852304 0.360349 0.500000
O O10 0.818185 0.376497 0.663484
O O11 0.857570 0.212847 0.601978
O O12 0.926663 0.358626 0.624846
O O13 0.250000 0.750000 0.274368
O O14 0.208938 0.911224 0.328856
O O15 0.809850 0.089996 0.500000
O O16 0.964333 0.317651 0.105540
O O17 0.904005 0.212460 0.000000
O O18 0.000000 0.500000 0.620031
O O19 0.000000 0.617214 0.750000
#
# Coordination Sequence:
#
# PCOD9497316 Si02
#       7
#    16  16  16  16  16  16  16
#     4   9  19  36  61  92 126 173 227 280 343 415
#     4  11  26  40  63 100 138 187 231 282 341 424
#     4  10  20  36  63  95 130 172 217 274 345 403
#     4   9  18  33  63  93 128 169 216 277 333 405
#     4  10  21  39  64  98 136 174 221 276 334 408
#     4  11  24  42  67  95 134 180 230 287 354 426
#     4  11  25  42  66  94 127 173 229 287 345 410
#
# _framework density 22.29673
#
# number of rings (size 3 to 8) (size 9 to 14) (size 15 to 20)
#    0.000    1.857    0.000    3.000   10.000    5.143 
#    0.000    1.429    3.143    3.429    0.000    0.000 
#    0.000    0.000    0.000    0.000    0.000    0.000 
#
# Total GULP energy -313336.593376 kJ/mol
# GULP energy per Si atom -5595.296310 kJ/mol
# Density = 2.224598 g / cm^3
# Si number density = 22.296730 Si / 1000 Ang^3
#
#
#
# Elastic Constant Matrix: (Units=GPa)
#
#
# Indices 1 2 3 4 5 6 
#
# 1 161.1234 43.7992 62.6630 0.0000 0.0000 0.0000
# 2 43.7992 89.8564 46.9642 0.0000 0.0000 0.0000
# 3 62.6630 46.9642 155.0439 0.0000 0.0000 0.0000
# 4 0.0000 0.0000 0.0000 2.4826 0.0000 0.0000
# 5 0.0000 0.0000 0.0000 0.0000 35.6477 0.0000
# 6 0.0000 0.0000 0.0000 0.0000 0.0000 28.4391
#
#
#
# Elastic Compliance Matrix: (Units=1/GPa)
#
#
# Indices 1 2 3 4 5 6 
#
# 1 0.007834 -0.002571 -0.002387 0.000000 0.000000 0.000000
# 2 -0.002571 0.014066 -0.003222 0.000000 0.000000 0.000000
# 3 -0.002387 -0.003222 0.008391 0.000000 0.000000 0.000000
# 4 0.000000 0.000000 0.000000 0.402806 0.000000 0.000000
# 5 0.000000 0.000000 0.000000 0.000000 0.028052 0.000000
# 6 0.000000 0.000000 0.000000 0.000000 0.000000 0.035163
#
#
# Mechanical properties :
#
#
# Convention : Reuss Voigt Hill
#
# Bulk Modulus (GPa) = 71.78475 79.20849 75.49662
# Shear Modulus (GPa) = 9.66530 30.15369 19.90950
#
# Velocity S-wave (km/s) = 2.08429 3.68146 2.99144
# Velocity P-wave (km/s) = 6.16907 7.32617 6.77238
#
# Compressibility (1/GPa) = 0.01393054
#
# Stress axis : x y z
#
# Youngs Moduli (GPa) = 127.65334 71.09479 119.18126
#
# Poissons Ratio (x) = 0.18276 0.28454
# Poissons Ratio (y) = 0.32815 0.38397
# Poissons Ratio (z) = 0.30476 0.22905
#
# Static dielectric constant tensor:
#      x y z
#    x 1.794800 0.000000 0.000000 
#    y 0.000000 1.881770 0.000000 
#    z 0.000000 0.000000 1.850110 
# 
# From -- ./inp_files/32455.got.cif
#   From: 2010.05.17/outbox.cif.g08.bks.cpg/sg66_17_cif.got.tgz:32455.got - 2010.06.03 17:51:23.
