data_PCOD9497003
_publ_section_title
;
Structure prediction by ZEFSAII (Michael W. Deem and Ramdas Pophale) SiO2 
 PCOD9497003
Probable space group: C C C M
;
_chemical_formula_sum "Si O2"
_cell_formula_units_Z 112
_cell_length_a 21.873721
_cell_length_b 15.656219
_cell_length_c 15.635713
_cell_angle_alpha 90.000000
_cell_angle_beta 90.000000
_cell_angle_gamma 90.000000
_cell_volume 5354.602620
_symmetry_space_group_name_H-M "C C C M"
_symmetry_group_IT_number 66
_symmetry_cell_setting 'orthorhombic'
loop_
_space_group_symop_operation_xyz
x,y,z
-x,-y,z
x,-y,1/2-z
-x,y,1/2-z
-x,-y,-z
x,y,-z
-x,y,1/2+z
x,-y,1/2+z
1/2+x,1/2+y,z
1/2-x,1/2-y,z
1/2+x,1/2-y,1/2-z
1/2-x,1/2+y,1/2-z
1/2-x,1/2-y,-z
1/2+x,1/2+y,-z
1/2-x,1/2+y,1/2+z
1/2+x,1/2-y,1/2+z
loop_
_atom_site_type_symbol
_atom_site_label
_atom_site_fract_x
_atom_site_fract_y
_atom_site_fract_z
Si Si1 0.545291 0.826741 0.852174
Si Si2 0.992756 0.860261 0.103382
Si Si3 0.420202 0.111693 0.662843
Si Si4 0.796679 0.682656 0.400886
Si Si5 0.642596 0.943658 0.098324
Si Si6 0.732880 0.502258 0.900507
Si Si7 0.903064 0.981223 0.603795
O O1 0.528907 0.727465 0.855131
O O2 0.561997 0.861414 0.758218
O O3 0.483971 0.873468 0.886065
O O4 0.605395 0.856226 0.902046
O O5 0.058446 0.898073 0.132589
O O6 0.944460 0.935883 0.120639
O O7 0.994844 0.847694 0.000000
O O8 0.363818 0.171551 0.636721
O O9 0.395737 0.016213 0.647893
O O10 0.805821 0.707368 0.500000
O O11 0.750000 0.750000 0.360550
O O12 0.762733 0.591667 0.398095
O O13 0.711680 0.939448 0.134725
O O14 0.647256 0.974743 0.000000
O O15 0.665276 0.495604 0.862354
O O16 0.724015 0.528247 0.000000
O O17 0.899483 0.972307 0.500000
#
# Coordination Sequence:
#
# PCOD9497003 Si02
#       7
#    16  16  16  16  16  16  16
#     4  11  22  35  53  77 112 154 191 229 279 352
#     4   9  18  31  53  85 112 141 190 237 278 336
#     4  10  22  37  51  74 112 154 181 222 291 358
#     4   9  18  32  54  84 108 135 187 249 294 340
#     4  10  20  35  55  81 109 142 191 241 286 344
#     4   8  15  29  50  76 107 139 173 226 294 339
#     4   8  15  31  53  80 113 143 177 233 294 340
#
# _framework density 20.916585000000001
#
# number of rings (size 3 to 8) (size 9 to 14) (size 15 to 20)
#    0.000    2.714    0.000    3.429    2.000    4.000 
#    0.000    2.143    0.000   10.286    0.000    0.000 
#    0.000    0.000    0.000    0.000    0.000    0.000 
#
# Total GULP energy -312132.404542 kJ/mol
# GULP energy per Si atom -5573.792938 kJ/mol
# Density = 2.086898 g / cm^3
# Si number density = 20.916585 Si / 1000 Ang^3
#
#
#
# Elastic Constant Matrix: (Units=GPa)
#
#
# Indices 1 2 3 4 5 6 
#
# 1 208.6183 61.9150 20.1535 0.0000 0.0000 0.0000
# 2 61.9150 87.3711 10.5665 0.0000 0.0000 0.0000
# 3 20.1535 10.5665 37.5256 0.0000 0.0000 0.0000
# 4 0.0000 0.0000 0.0000 11.3591 0.0000 0.0000
# 5 0.0000 0.0000 0.0000 0.0000 26.5377 0.0000
# 6 0.0000 0.0000 0.0000 0.0000 0.0000 30.1857
#
#
#
# Elastic Compliance Matrix: (Units=1/GPa)
#
#
# Indices 1 2 3 4 5 6 
#
# 1 0.006238 -0.004157 -0.002180 0.000000 0.000000 0.000000
# 2 -0.004157 0.014619 -0.001884 0.000000 0.000000 0.000000
# 3 -0.002180 -0.001884 0.028350 0.000000 0.000000 0.000000
# 4 0.000000 0.000000 0.000000 0.088035 0.000000 0.000000
# 5 0.000000 0.000000 0.000000 0.000000 0.037682 0.000000
# 6 0.000000 0.000000 0.000000 0.000000 0.000000 0.033128
#
#
# Mechanical properties :
#
#
# Convention : Reuss Voigt Hill
#
# Bulk Modulus (GPa) = 30.51986 57.64278 44.08132
# Shear Modulus (GPa) = 21.23917 29.67516 25.45717
#
# Velocity S-wave (km/s) = 3.19003 3.77070 3.49245
# Velocity P-wave (km/s) = 5.30954 6.82465 6.11421
#
# Compressibility (1/GPa) = 0.03276555
#
# Stress axis : x y z
#
# Youngs Moduli (GPa) = 160.31705 68.40464 35.27396
#
# Poissons Ratio (x) = 0.28434 0.07688
# Poissons Ratio (y) = 0.66639 0.06646
# Poissons Ratio (z) = 0.34942 0.12888
#
# Static dielectric constant tensor:
#      x y z
#    x 1.819640 0.000000 0.000000 
#    y 0.000000 1.742180 0.000000 
#    z 0.000000 0.000000 1.858020 
# 
# From -- ./inp_files/43061.got.cif
#   From: 2010.05.17/outbox.cif.g08.bks.cpg/sg66_22_cif.got.tgz:43061.got - 2010.06.03 17:51:23.
