data_PCOD9497290
_publ_section_title
;
Structure prediction by ZEFSAII (Michael W. Deem and Ramdas Pophale) SiO2 
 PCOD9497290
Probable space group: C C C M
;
_chemical_formula_sum "Si O2"
_cell_formula_units_Z 56
_cell_length_a 5.442772
_cell_length_b 23.745985
_cell_length_c 19.821341
_cell_angle_alpha 90.000000
_cell_angle_beta 90.000000
_cell_angle_gamma 90.000000
_cell_volume 2561.789045
_symmetry_space_group_name_H-M "C C C M"
_symmetry_group_IT_number 66
_symmetry_cell_setting 'orthorhombic'
loop_
_space_group_symop_operation_xyz
x,y,z
-x,-y,z
x,-y,1/2-z
-x,y,1/2-z
-x,-y,-z
x,y,-z
-x,y,1/2+z
x,-y,1/2+z
1/2+x,1/2+y,z
1/2-x,1/2-y,z
1/2+x,1/2-y,1/2-z
1/2-x,1/2+y,1/2-z
1/2-x,1/2-y,-z
1/2+x,1/2+y,-z
1/2-x,1/2+y,1/2+z
1/2+x,1/2-y,1/2+z
loop_
_atom_site_type_symbol
_atom_site_label
_atom_site_fract_x
_atom_site_fract_y
_atom_site_fract_z
Si Si1 0.003075 0.288742 0.500000
Si Si2 0.000000 0.380361 0.250000
Si Si3 0.895572 0.799331 0.682089
Si Si4 0.308525 0.127858 0.111414
Si Si5 0.254912 0.463895 0.000000
O O1 0.250000 0.250000 0.500000
O O2 0.750000 0.250000 0.500000
O O3 0.515918 0.168033 0.435100
O O4 0.782665 0.344797 0.215314
O O5 0.891638 0.403867 0.319412
O O6 0.750000 0.750000 0.645996
O O7 0.000000 0.770298 0.750000
O O8 0.097730 0.829209 0.636780
O O9 0.231695 0.077971 0.063123
O O10 0.500000 0.500000 0.000000
O O11 0.000000 0.500000 0.000000
#
# Coordination Sequence:
#
# PCOD9497290 Si02
#       5
#     8   8  16  16   8
#     4  11  28  43  62 102 154 200 242 288 345 440
#     4  10  22  38  71 100 156 184 245 294 370 428
#     4  10  20  36  62 105 154 202 234 279 357 443
#     4  10  26  44  71 106 146 193 252 308 366 442
#     4  11  28  55  85 100 135 192 254 320 392 436
#
# _framework density 21.859724
#
# number of rings (size 3 to 8) (size 9 to 14) (size 15 to 20)
#    0.000    1.714    1.429    0.000   12.000    2.286 
#    5.143    2.857    0.000    0.000    0.000    0.000 
#    0.000    0.000    0.000    0.000    0.000    0.000 
#
# Total GULP energy -155972.086445 kJ/mol
# GULP energy per Si atom -5570.431659 kJ/mol
# Density = 2.180997 g / cm^3
# Si number density = 21.859724 Si / 1000 Ang^3
#
#
#
# Elastic Constant Matrix: (Units=GPa)
#
#
# Indices 1 2 3 4 5 6 
#
# 1 117.9960 53.3595 54.0913 0.0000 0.0000 0.0000
# 2 53.3595 102.1257 75.2691 0.0000 0.0000 0.0000
# 3 54.0913 75.2691 218.9573 0.0000 0.0000 0.0000
# 4 0.0000 0.0000 0.0000 -60.3584 0.0000 0.0000
# 5 0.0000 0.0000 0.0000 0.0000 22.7401 0.0000
# 6 0.0000 0.0000 0.0000 0.0000 0.0000 30.0735
#
#
#
# Elastic Compliance Matrix: (Units=1/GPa)
#
#
# Indices 1 2 3 4 5 6 
#
# 1 0.011263 -0.005135 -0.001017 0.000000 0.000000 0.000000
# 2 -0.005135 0.015456 -0.004045 0.000000 0.000000 0.000000
# 3 -0.001017 -0.004045 0.006209 0.000000 0.000000 0.000000
# 4 0.000000 0.000000 0.000000 -0.016568 0.000000 0.000000
# 5 0.000000 0.000000 0.000000 0.000000 0.043975 0.000000
# 6 0.000000 0.000000 0.000000 0.000000 0.000000 0.033252
#
#
# Mechanical properties :
#
#
# Convention : Reuss Voigt Hill
#
# Bulk Modulus (GPa) = 79.78289 89.39098 84.58693
# Shear Modulus (GPa) = 42.31574 15.58166 28.94870
#
# Velocity S-wave (km/s) = 4.40453 2.67273 3.64303
# Velocity P-wave (km/s) = 7.90211 7.10679 7.51498
#
# Compressibility (1/GPa) = 0.01253402
#
# Stress axis : x y z
#
# Youngs Moduli (GPa) = 88.78303 64.70031 161.06339
#
# Poissons Ratio (x) = 0.33226 0.16383
# Poissons Ratio (y) = 0.45593 0.65142
# Poissons Ratio (z) = 0.09031 0.26168
#
# Static dielectric constant tensor:
#      x y z
#    x 1.989740 0.000000 0.000000 
#    y 0.000000 1.866400 0.000000 
#    z 0.000000 0.000000 1.912210 
# 
# From -- ./inp_files/45507.got.cif
#   From: 2010.05.17/outbox.cif.g08.bks.cpg/sg66_23_cif.got.tgz:45507.got - 2010.06.03 17:51:23.
