data_PCOD9497163
_publ_section_title
;
Structure prediction by ZEFSAII (Michael W. Deem and Ramdas Pophale) SiO2 
 PCOD9497163
Probable space group: C C C M
;
_chemical_formula_sum "Si O2"
_cell_formula_units_Z 96
_cell_length_a 24.712505
_cell_length_b 23.377839
_cell_length_c 8.691693
_cell_angle_alpha 90.000000
_cell_angle_beta 90.000000
_cell_angle_gamma 90.000000
_cell_volume 5021.408018
_symmetry_space_group_name_H-M "C C C M"
_symmetry_group_IT_number 66
_symmetry_cell_setting 'orthorhombic'
loop_
_space_group_symop_operation_xyz
x,y,z
-x,-y,z
x,-y,1/2-z
-x,y,1/2-z
-x,-y,-z
x,y,-z
-x,y,1/2+z
x,-y,1/2+z
1/2+x,1/2+y,z
1/2-x,1/2-y,z
1/2+x,1/2-y,1/2-z
1/2-x,1/2+y,1/2-z
1/2-x,1/2-y,-z
1/2+x,1/2+y,-z
1/2-x,1/2+y,1/2+z
1/2+x,1/2-y,1/2+z
loop_
_atom_site_type_symbol
_atom_site_label
_atom_site_fract_x
_atom_site_fract_y
_atom_site_fract_z
Si Si1 0.613566 0.438282 0.184162
Si Si2 0.165608 0.632959 0.685328
Si Si3 0.057893 0.435752 0.814498
Si Si4 0.557665 0.677016 0.315362
Si Si5 0.335967 0.265457 0.184278
Si Si6 0.722020 0.373725 0.184206
O O1 0.601522 0.500000 0.250000
O O2 0.570873 0.389004 0.225830
O O3 0.672514 0.414632 0.234714
O O4 0.614766 0.441849 0.000000
O O5 0.168295 0.630575 0.500000
O O6 0.109568 0.602603 0.731317
O O7 0.168038 0.699539 0.732562
O O8 0.220187 0.606271 0.753746
O O9 0.065167 0.500000 0.750000
O O10 0.000000 0.414574 0.750000
O O11 0.055048 0.437632 0.000000
O O12 0.500000 0.694136 0.250000
O O13 0.559896 0.682549 0.500000
O O14 0.605688 0.712824 0.239805
O O15 0.293333 0.310422 0.254125
O O16 0.331194 0.268128 0.000000
O O17 0.722437 0.371782 0.000000
#
# Coordination Sequence:
#
# PCOD9497163 Si02
#       6
#    16  16  16  16  16  16
#     4   9  20  36  53  76 106 140 180 223 267 315
#     4  10  22  37  56  83 110 140 179 219 263 320
#     4  10  21  39  59  80 108 140 176 219 268 318
#     4  10  21  37  55  79 109 142 182 225 271 320
#     4  10  20  36  56  79 110 145 179 220 270 318
#     4  10  21  36  54  80 112 144 179 221 268 317
#
# _framework density 19.118144000000001
#
# number of rings (size 3 to 8) (size 9 to 14) (size 15 to 20)
#    0.000    2.167    0.000    4.000    0.000   10.333 
#    0.000    6.667    0.000    0.000    0.000    0.000 
#    0.000    0.000    0.000    0.000    0.000    0.000 
#
# Total GULP energy -267989.953610 kJ/mol
# GULP energy per Si atom -5583.124034 kJ/mol
# Density = 1.907463 g / cm^3
# Si number density = 19.118144 Si / 1000 Ang^3
#
#
#
# Elastic Constant Matrix: (Units=GPa)
#
#
# Indices 1 2 3 4 5 6 
#
# 1 120.1037 -2.2907 10.3841 0.0000 0.0000 0.0000
# 2 -2.2907 14.5701 -2.0025 0.0000 0.0000 0.0000
# 3 10.3841 -2.0025 15.7705 0.0000 0.0000 0.0000
# 4 0.0000 0.0000 0.0000 12.0752 0.0000 0.0000
# 5 0.0000 0.0000 0.0000 0.0000 -98.5305 0.0000
# 6 0.0000 0.0000 0.0000 0.0000 0.0000 14.8171
#
#
#
# Elastic Compliance Matrix: (Units=1/GPa)
#
#
# Indices 1 2 3 4 5 6 
#
# 1 0.008834 0.000600 -0.005741 0.000000 0.000000 0.000000
# 2 0.000600 0.069894 0.008480 0.000000 0.000000 0.000000
# 3 -0.005741 0.008480 0.068266 0.000000 0.000000 0.000000
# 4 0.000000 0.000000 0.000000 0.082814 0.000000 0.000000
# 5 0.000000 0.000000 0.000000 0.000000 -0.010149 0.000000
# 6 0.000000 0.000000 0.000000 0.000000 0.000000 0.067489
#
#
# Mechanical properties :
#
#
# Convention : Reuss Voigt Hill
#
# Bulk Modulus (GPa) = 6.50738 18.06957 12.28848
# Shear Modulus (GPa) = 15.07416 -4.70407 5.18505
#
# Velocity S-wave (km/s) = 2.81102 -1.57031 1.64863
# Velocity P-wave (km/s) = 3.73456 2.48681 3.17263
#
# Compressibility (1/GPa) = 0.15367159
#
# Stress axis : x y z
#
# Youngs Moduli (GPa) = 113.20025 14.30747 14.64858
#
# Poissons Ratio (x) = -0.00858 0.08409
# Poissons Ratio (y) = -0.06791 -0.12422
# Poissons Ratio (z) = 0.64983 -0.12132
#
# Static dielectric constant tensor:
#      x y z
#    x 3.205140 0.000000 0.000000 
#    y 0.000000 1.662660 0.000000 
#    z 0.000000 0.000000 1.641570 
# 
# From -- ./inp_files/9120.got.cif
#   From: 2010.05.17/outbox.cif.g08.bks.cpg/sg66_5_cif.got.tgz:9120.got - 2010.06.03 17:51:23.
