data_PCOD9497210
_publ_section_title
;
Structure prediction by ZEFSAII (Michael W. Deem and Ramdas Pophale) SiO2 
 PCOD9497210
Probable space group: C C C M
;
_chemical_formula_sum "Si O2"
_cell_formula_units_Z 64
_cell_length_a 13.374470
_cell_length_b 12.956115
_cell_length_c 18.097835
_cell_angle_alpha 90.000000
_cell_angle_beta 90.000000
_cell_angle_gamma 90.000000
_cell_volume 3136.014048
_symmetry_space_group_name_H-M "C C C M"
_symmetry_group_IT_number 66
_symmetry_cell_setting 'orthorhombic'
loop_
_space_group_symop_operation_xyz
x,y,z
-x,-y,z
x,-y,1/2-z
-x,y,1/2-z
-x,-y,-z
x,y,-z
-x,y,1/2+z
x,-y,1/2+z
1/2+x,1/2+y,z
1/2-x,1/2-y,z
1/2+x,1/2-y,1/2-z
1/2-x,1/2+y,1/2-z
1/2-x,1/2-y,-z
1/2+x,1/2+y,-z
1/2-x,1/2+y,1/2+z
1/2+x,1/2-y,1/2+z
loop_
_atom_site_type_symbol
_atom_site_label
_atom_site_fract_x
_atom_site_fract_y
_atom_site_fract_z
Si Si1 0.647900 0.306343 0.412065
Si Si2 0.601419 0.951564 0.668128
Si Si3 0.677126 0.479610 0.161262
Si Si4 0.045148 0.780164 0.170007
O O1 0.652120 0.309885 0.500000
O O2 0.750000 0.250000 0.385067
O O3 0.634461 0.420225 0.378542
O O4 0.547147 0.253549 0.383700
O O5 0.708284 0.976188 0.633308
O O6 0.600407 0.828564 0.677572
O O7 0.500000 0.000000 0.633818
O O8 0.604229 0.000000 0.750000
O O9 0.675697 0.500000 0.250000
O O10 0.615858 0.374806 0.146393
O O11 0.000000 0.807889 0.250000
#
# Coordination Sequence:
#
# PCOD9497210 Si02
#       4
#    16  16  16  16
#     4  11  26  45  65  93 136 183 222 268 343 422
#     4  10  20  36  58  94 129 170 215 276 334 393
#     4  11  23  36  64  97 129 168 220 279 332 397
#     4  12  22  37  63  98 131 169 221 280 335 395
#
# _framework density 20.408072000000001
#
# number of rings (size 3 to 8) (size 9 to 14) (size 15 to 20)
#    0.000    1.000    5.000    3.000    3.500    2.000 
#    0.000    1.250    0.000    7.500    0.000    0.000 
#    0.000    0.000    0.000    0.000    0.000    0.000 
#
# Total GULP energy -178595.490065 kJ/mol
# GULP energy per Si atom -5581.109065 kJ/mol
# Density = 2.036162 g / cm^3
# Si number density = 20.408072 Si / 1000 Ang^3
#
#
#
# Elastic Constant Matrix: (Units=GPa)
#
#
# Indices 1 2 3 4 5 6 
#
# 1 69.5344 3.8640 0.7371 0.0000 0.0000 0.0000
# 2 3.8640 111.7860 1.8904 0.0000 0.0000 0.0000
# 3 0.7371 1.8904 42.2923 0.0000 0.0000 0.0000
# 4 0.0000 0.0000 0.0000 -1.3307 0.0000 0.0000
# 5 0.0000 0.0000 0.0000 0.0000 0.6912 0.0000
# 6 0.0000 0.0000 0.0000 0.0000 0.0000 5.6922
#
#
#
# Elastic Compliance Matrix: (Units=1/GPa)
#
#
# Indices 1 2 3 4 5 6 
#
# 1 0.014411 -0.000494 -0.000229 0.000000 0.000000 0.000000
# 2 -0.000494 0.008969 -0.000392 0.000000 0.000000 0.000000
# 3 -0.000229 -0.000392 0.023667 0.000000 0.000000 0.000000
# 4 0.000000 0.000000 0.000000 -0.751498 0.000000 0.000000
# 5 0.000000 0.000000 0.000000 0.000000 1.446832 0.000000
# 6 0.000000 0.000000 0.000000 0.000000 0.000000 0.175679
#
#
# Mechanical properties :
#
#
# Convention : Reuss Voigt Hill
#
# Bulk Modulus (GPa) = 22.31352 26.28840 24.30096
# Shear Modulus (GPa) = 5.34627 15.48528 10.41577
#
# Velocity S-wave (km/s) = 1.62030 2.75759 2.26160
# Velocity P-wave (km/s) = 3.80235 4.80087 4.33049
#
# Compressibility (1/GPa) = 0.04481589
#
# Stress axis : x y z
#
# Youngs Moduli (GPa) = 69.39011 111.49037 42.25379
#
# Poissons Ratio (x) = 0.05511 0.00968
# Poissons Ratio (y) = 0.03430 0.01658
# Poissons Ratio (z) = 0.01590 0.04374
#
# Static dielectric constant tensor:
#      x y z
#    x 1.793130 0.000000 0.000000 
#    y 0.000000 1.832140 0.000000 
#    z 0.000000 0.000000 1.684150 
# 
# From -- ./inp_files/37997.got.cif
#   From: 2010.05.17/outbox.cif.g08.bks.cpg/sg66_19_cif.got.tgz:37997.got - 2010.06.03 17:51:23.
