data_PCOD9497007
_publ_section_title
;
Structure prediction by ZEFSAII (Michael W. Deem and Ramdas Pophale) SiO2 
 PCOD9497007
Probable space group: C C C M
;
_chemical_formula_sum "Si O2"
_cell_formula_units_Z 116
_cell_length_a 27.608068
_cell_length_b 25.559527
_cell_length_c 7.657548
_cell_angle_alpha 90.000000
_cell_angle_beta 90.000000
_cell_angle_gamma 90.000000
_cell_volume 5403.542310
_symmetry_space_group_name_H-M "C C C M"
_symmetry_group_IT_number 66
_symmetry_cell_setting 'orthorhombic'
loop_
_space_group_symop_operation_xyz
x,y,z
-x,-y,z
x,-y,1/2-z
-x,y,1/2-z
-x,-y,-z
x,y,-z
-x,y,1/2+z
x,-y,1/2+z
1/2+x,1/2+y,z
1/2-x,1/2-y,z
1/2+x,1/2-y,1/2-z
1/2-x,1/2+y,1/2-z
1/2-x,1/2-y,-z
1/2+x,1/2+y,-z
1/2-x,1/2+y,1/2+z
1/2+x,1/2-y,1/2+z
loop_
_atom_site_type_symbol
_atom_site_label
_atom_site_fract_x
_atom_site_fract_y
_atom_site_fract_z
Si Si1 0.652715 0.849680 0.296215
Si Si2 0.673515 0.438559 0.208172
Si Si3 0.432256 0.590166 0.297914
Si Si4 0.500000 0.500000 0.750000
Si Si5 0.095790 0.200222 0.214012
Si Si6 0.945131 0.311578 0.292926
Si Si7 0.778423 0.561019 0.290532
Si Si8 0.803593 0.759213 0.800413
O O1 0.665212 0.842466 0.500000
O O2 0.595079 0.850619 0.280092
O O3 0.679381 0.901099 0.228387
O O4 0.671799 0.797980 0.200659
O O5 0.675243 0.500000 0.250000
O O6 0.625303 0.418128 0.295586
O O7 0.725772 0.418587 0.271011
O O8 0.668939 0.430768 0.000000
O O9 0.459991 0.544374 0.194911
O O10 0.434852 0.649476 0.230524
O O11 0.448860 0.414563 0.000000
O O12 0.069338 0.253321 0.271222
O O13 0.152538 0.204396 0.273182
O O14 0.097070 0.198595 0.000000
O O15 0.939357 0.310857 0.500000
O O16 0.000000 0.324044 0.250000
O O17 0.784935 0.500000 0.250000
O O18 0.776688 0.563756 0.500000
O O19 0.750000 0.750000 0.720025
O O20 0.795457 0.777159 0.000000
#
# Coordination Sequence:
#
# PCOD9497007 Si02
#       8
#    16  16  16   4  16  16  16  16
#     4  10  20  35  55  83 118 150 185 229 281 335
#     4  10  20  36  55  77 105 138 180 225 273 331
#     4  11  23  39  56  75 104 141 185 237 293 341
#     4  12  26  36  56  78 110 140 194 248 302 332
#     4   8  18  35  53  76 106 142 183 228 277 339
#     4  10  20  37  60  84 112 145 188 232 279 338
#     4   9  20  36  56  84 117 151 187 227 271 331
#     4   9  18  33  53  80 112 145 186 229 281 347
#
# _framework density 21.467397999999999
#
# number of rings (size 3 to 8) (size 9 to 14) (size 15 to 20)
#    0.000    2.345    0.690    2.276    2.897    2.483 
#    0.000    3.448    0.000    0.414    0.000    2.897 
#    0.000    0.000    0.000    0.000    0.000    0.000 
#
# Total GULP energy -323309.522065 kJ/mol
# GULP energy per Si atom -5574.302105 kJ/mol
# Density = 2.141854 g / cm^3
# Si number density = 21.467398 Si / 1000 Ang^3
#
#
#
# Elastic Constant Matrix: (Units=GPa)
#
#
# Indices 1 2 3 4 5 6 
#
# 1 156.4644 59.6254 3.7557 0.0000 0.0000 0.0000
# 2 59.6254 83.5094 4.9717 0.0000 0.0000 0.0000
# 3 3.7557 4.9717 61.6598 0.0000 0.0000 0.0000
# 4 0.0000 0.0000 0.0000 -3.1905 0.0000 0.0000
# 5 0.0000 0.0000 0.0000 0.0000 23.3361 0.0000
# 6 0.0000 0.0000 0.0000 0.0000 0.0000 21.3710
#
#
#
# Elastic Compliance Matrix: (Units=1/GPa)
#
#
# Indices 1 2 3 4 5 6 
#
# 1 0.008780 -0.006267 -0.000029 0.000000 0.000000 0.000000
# 2 -0.006267 0.016506 -0.000949 0.000000 0.000000 0.000000
# 3 -0.000029 -0.000949 0.016296 0.000000 0.000000 0.000000
# 4 0.000000 0.000000 0.000000 -0.313432 0.000000 0.000000
# 5 0.000000 0.000000 0.000000 0.000000 0.042852 0.000000
# 6 0.000000 0.000000 0.000000 0.000000 0.000000 0.046792
#
#
# Mechanical properties :
#
#
# Convention : Reuss Voigt Hill
#
# Bulk Modulus (GPa) = 36.91291 48.70436 42.80864
# Shear Modulus (GPa) = -31.50952 23.85536 -3.82708
#
# Velocity S-wave (km/s) = -3.83532 3.33714 -1.33664
# Velocity P-wave (km/s) = 1.54297 6.13070 4.19552
#
# Compressibility (1/GPa) = 0.02709079
#
# Stress axis : x y z
#
# Youngs Moduli (GPa) = 113.89135 60.58376 61.36342
#
# Poissons Ratio (x) = 0.37970 0.00181
# Poissons Ratio (y) = 0.71380 0.05824
# Poissons Ratio (z) = 0.00336 0.05750
#
# Static dielectric constant tensor:
#      x y z
#    x 1.819350 0.000000 0.000000 
#    y 0.000000 1.757020 0.000000 
#    z 0.000000 0.000000 1.805160 
# 
# From -- ./inp_files/10591.got.cif
#   From: 2010.05.17/outbox.cif.g08.bks.cpg/sg66_6_cif.got.tgz:10591.got - 2010.06.03 17:51:23.
