data_PCOD9497712
_publ_section_title
;
Structure prediction by ZEFSAII (Michael W. Deem and Ramdas Pophale) SiO2 
 PCOD9497712
Probable space group: C C C M
;
_chemical_formula_sum "Si O2"
_cell_formula_units_Z 80
_cell_length_a 24.796617
_cell_length_b 14.630612
_cell_length_c 10.347709
_cell_angle_alpha 90.000000
_cell_angle_beta 90.000000
_cell_angle_gamma 90.000000
_cell_volume 3754.042060
_symmetry_space_group_name_H-M "C C C M"
_symmetry_group_IT_number 66
_symmetry_cell_setting 'orthorhombic'
loop_
_space_group_symop_operation_xyz
x,y,z
-x,-y,z
x,-y,1/2-z
-x,y,1/2-z
-x,-y,-z
x,y,-z
-x,y,1/2+z
x,-y,1/2+z
1/2+x,1/2+y,z
1/2-x,1/2-y,z
1/2+x,1/2-y,1/2-z
1/2-x,1/2+y,1/2-z
1/2-x,1/2-y,-z
1/2+x,1/2+y,-z
1/2-x,1/2+y,1/2+z
1/2+x,1/2-y,1/2+z
loop_
_atom_site_type_symbol
_atom_site_label
_atom_site_fract_x
_atom_site_fract_y
_atom_site_fract_z
Si Si1 0.558471 0.160367 0.500000
Si Si2 0.403054 0.348380 0.275175
Si Si3 0.161887 0.573738 0.500000
Si Si4 0.153605 0.042788 0.500000
Si Si5 0.305152 0.792941 0.728542
Si Si6 0.275999 0.114776 0.500000
Si Si7 0.602318 0.364779 0.500000
Si Si8 0.500000 0.223020 0.750000
O O1 0.597329 0.074071 0.500000
O O2 0.595656 0.254149 0.500000
O O3 0.525508 0.166985 0.632217
O O4 0.379526 0.418750 0.377567
O O5 0.352134 0.282316 0.242022
O O6 0.422679 0.389724 0.138168
O O7 0.453103 0.285236 0.314523
O O8 0.178260 0.628175 0.629537
O O9 0.189442 0.476870 0.500000
O O10 0.213043 0.086283 0.500000
O O11 0.154750 0.931700 0.500000
O O12 0.250000 0.750000 0.676557
O O13 0.291304 0.830593 0.870914
#
# Coordination Sequence:
#
# PCOD9497712 Si02
#       8
#     8  16   8   8  16   8   8   8
#     4  10  21  43  66  99 120 172 225 271 329 396
#     4  11  22  41  67  93 128 174 222 274 327 395
#     4  12  25  43  67 101 132 173 226 272 324 395
#     4  12  24  40  58  99 138 174 216 273 334 391
#     4  12  23  44  67  95 133 176 223 268 329 396
#     4  12  28  40  64 100 140 174 220 271 337 390
#     4  10  22  39  59  91 130 162 218 268 316 398
#     4  10  20  42  71  95 126 172 234 268 324 393
#
# _framework density 21.310365000000001
#
# number of rings (size 3 to 8) (size 9 to 14) (size 15 to 20)
#    0.000    0.800    6.000    3.000    2.800    1.600 
#    0.000   12.000    0.000    3.600    0.000    0.000 
#    0.000    0.000    0.000    0.000    0.000    0.000 
#
# Total GULP energy -223220.407800 kJ/mol
# GULP energy per Si atom -5580.510195 kJ/mol
# Density = 2.126186 g / cm^3
# Si number density = 21.310365 Si / 1000 Ang^3
#
#
#
# Elastic Constant Matrix: (Units=GPa)
#
#
# Indices 1 2 3 4 5 6 
#
# 1 106.0764 10.0415 11.9902 0.0000 0.0000 0.0000
# 2 10.0415 41.0594 12.5392 0.0000 0.0000 0.0000
# 3 11.9902 12.5392 141.3090 0.0000 0.0000 0.0000
# 4 0.0000 0.0000 0.0000 7.2288 0.0000 0.0000
# 5 0.0000 0.0000 0.0000 0.0000 34.7070 0.0000
# 6 0.0000 0.0000 0.0000 0.0000 0.0000 38.6277
#
#
#
# Elastic Compliance Matrix: (Units=1/GPa)
#
#
# Indices 1 2 3 4 5 6 
#
# 1 0.009705 -0.002181 -0.000630 0.000000 0.000000 0.000000
# 2 -0.002181 0.025524 -0.002080 0.000000 0.000000 0.000000
# 3 -0.000630 -0.002080 0.007315 0.000000 0.000000 0.000000
# 4 0.000000 0.000000 0.000000 0.138336 0.000000 0.000000
# 5 0.000000 0.000000 0.000000 0.000000 0.028813 0.000000
# 6 0.000000 0.000000 0.000000 0.000000 0.000000 0.025888
#
#
# Mechanical properties :
#
#
# Convention : Reuss Voigt Hill
#
# Bulk Modulus (GPa) = 30.52361 39.73184 35.12772
# Shear Modulus (GPa) = 19.50974 33.03764 26.27369
#
# Velocity S-wave (km/s) = 3.02901 3.94167 3.51509
# Velocity P-wave (km/s) = 5.15632 6.27698 5.74405
#
# Compressibility (1/GPa) = 0.03276153
#
# Stress axis : x y z
#
# Youngs Moduli (GPa) = 103.04143 39.17955 136.71122
#
# Poissons Ratio (x) = 0.08545 0.08612
# Poissons Ratio (y) = 0.22474 0.28433
# Poissons Ratio (z) = 0.06491 0.08148
#
# Static dielectric constant tensor:
#      x y z
#    x 1.771880 0.000000 0.000000 
#    y 0.000000 1.782720 0.000000 
#    z 0.000000 0.000000 1.780530 
# 
# From -- ./inp_files/19707.got.cif
#   From: 2010.05.17/outbox.cif.g08.bks.cpg/sg66_10_cif.got.tgz:19707.got - 2010.06.03 17:51:23.
