data_PCOD9497511
_publ_section_title
;
Structure prediction by ZEFSAII (Michael W. Deem and Ramdas Pophale) SiO2 
 PCOD9497511
Probable space group: C C C M
;
_chemical_formula_sum "Si O2"
_cell_formula_units_Z 96
_cell_length_a 11.279811
_cell_length_b 21.350592
_cell_length_c 16.361671
_cell_angle_alpha 90.000000
_cell_angle_beta 90.000000
_cell_angle_gamma 90.000000
_cell_volume 3940.391739
_symmetry_space_group_name_H-M "C C C M"
_symmetry_group_IT_number 66
_symmetry_cell_setting 'orthorhombic'
loop_
_space_group_symop_operation_xyz
x,y,z
-x,-y,z
x,-y,1/2-z
-x,y,1/2-z
-x,-y,-z
x,y,-z
-x,y,1/2+z
x,-y,1/2+z
1/2+x,1/2+y,z
1/2-x,1/2-y,z
1/2+x,1/2-y,1/2-z
1/2-x,1/2+y,1/2-z
1/2-x,1/2-y,-z
1/2+x,1/2+y,-z
1/2-x,1/2+y,1/2+z
1/2+x,1/2-y,1/2+z
loop_
_atom_site_type_symbol
_atom_site_label
_atom_site_fract_x
_atom_site_fract_y
_atom_site_fract_z
Si Si1 0.132500 0.321138 0.908851
Si Si2 0.037204 0.583690 0.156551
Si Si3 0.305083 0.812852 0.771812
Si Si4 0.592350 0.396523 0.809853
Si Si5 0.751015 0.995563 0.597042
Si Si6 0.379731 0.623973 0.407784
O O1 0.125095 0.298240 0.813271
O O2 0.275023 0.325934 0.913491
O O3 0.069450 0.390183 0.899491
O O4 0.093570 0.297320 0.000000
O O5 0.117268 0.646853 0.165781
O O6 0.121773 0.527025 0.128772
O O7 0.000000 0.571807 0.250000
O O8 0.250000 0.750000 0.806473
O O9 0.189705 0.857167 0.760599
O O10 0.500000 0.429786 0.750000
O O11 0.660337 0.443501 0.867891
O O12 0.498663 0.355834 0.861781
O O13 0.745100 0.994339 0.500000
O O14 0.810899 0.061071 0.622246
O O15 0.417995 0.608207 0.500000
#
# Coordination Sequence:
#
# PCOD9497511 Si02
#       6
#    16  16  16  16  16  16
#     4  10  20  38  60  84 120 153 193 249 298 353
#     4   9  20  39  59  89 120 156 200 251 296 349
#     4  10  22  41  64  83 111 155 201 251 312 360
#     4  11  21  37  57  87 120 154 198 249 295 347
#     4  10  21  37  60  87 123 167 200 233 293 363
#     4  10  21  37  58  88 124 160 194 235 292 354
#
# _framework density 24.363061999999999
#
# number of rings (size 3 to 8) (size 9 to 14) (size 15 to 20)
#    0.000    2.000    1.667    1.500    0.000    5.667 
#    0.000    5.000    0.000   17.000    0.000    0.000 
#    0.000    0.000    0.000    0.000    0.000    0.000 
#
# Total GULP energy -267630.997926 kJ/mol
# GULP energy per Si atom -5575.645790 kJ/mol
# Density = 2.430761 g / cm^3
# Si number density = 24.363062 Si / 1000 Ang^3
#
#
#
# Elastic Constant Matrix: (Units=GPa)
#
#
# Indices 1 2 3 4 5 6 
#
# 1 108.5207 -5.8408 32.3390 0.0000 0.0000 0.0000
# 2 -5.8408 68.3871 15.2527 0.0000 0.0000 0.0000
# 3 32.3390 15.2527 94.4555 0.0000 0.0000 0.0000
# 4 0.0000 0.0000 0.0000 15.1618 0.0000 0.0000
# 5 0.0000 0.0000 0.0000 0.0000 27.2773 0.0000
# 6 0.0000 0.0000 0.0000 0.0000 0.0000 16.4002
#
#
#
# Elastic Compliance Matrix: (Units=1/GPa)
#
#
# Indices 1 2 3 4 5 6 
#
# 1 0.010461 0.001756 -0.003865 0.000000 0.000000 0.000000
# 2 0.001756 0.015464 -0.003098 0.000000 0.000000 0.000000
# 3 -0.003865 -0.003098 0.012411 0.000000 0.000000 0.000000
# 4 0.000000 0.000000 0.000000 0.065955 0.000000 0.000000
# 5 0.000000 0.000000 0.000000 0.000000 0.036661 0.000000
# 6 0.000000 0.000000 0.000000 0.000000 0.000000 0.060975
#
#
# Mechanical properties :
#
#
# Convention : Reuss Voigt Hill
#
# Bulk Modulus (GPa) = 35.81673 39.42946 37.62309
# Shear Modulus (GPa) = 22.55828 27.07533 24.81681
#
# Velocity S-wave (km/s) = 3.04620 3.33727 3.19505
# Velocity P-wave (km/s) = 5.20630 5.57397 5.39327
#
# Compressibility (1/GPa) = 0.02791991
#
# Stress axis : x y z
#
# Youngs Moduli (GPa) = 95.59217 64.66810 80.57642
#
# Poissons Ratio (x) = -0.11353 0.31143
# Poissons Ratio (y) = -0.16781 0.24963
# Poissons Ratio (z) = 0.36947 0.20035
#
# Static dielectric constant tensor:
#      x y z
#    x 1.983220 0.000000 0.000000 
#    y 0.000000 1.973190 0.000000 
#    z 0.000000 0.000000 2.038380 
# 
# From -- ./inp_files/38870.got.cif
#   From: 2010.05.17/outbox.cif.g08.bks.cpg/sg66_20_cif.got.tgz:38870.got - 2010.06.03 17:51:23.
