data_PCOD9497414
_publ_section_title
;
Structure prediction by ZEFSAII (Michael W. Deem and Ramdas Pophale) SiO2 
 PCOD9497414
Probable space group: C C C M
;
_chemical_formula_sum "Si O2"
_cell_formula_units_Z 112
_cell_length_a 12.154971
_cell_length_b 28.437321
_cell_length_c 16.280424
_cell_angle_alpha 90.000000
_cell_angle_beta 90.000000
_cell_angle_gamma 90.000000
_cell_volume 5627.406898
_symmetry_space_group_name_H-M "C C C M"
_symmetry_group_IT_number 66
_symmetry_cell_setting 'orthorhombic'
loop_
_space_group_symop_operation_xyz
x,y,z
-x,-y,z
x,-y,1/2-z
-x,y,1/2-z
-x,-y,-z
x,y,-z
-x,y,1/2+z
x,-y,1/2+z
1/2+x,1/2+y,z
1/2-x,1/2-y,z
1/2+x,1/2-y,1/2-z
1/2-x,1/2+y,1/2-z
1/2-x,1/2-y,-z
1/2+x,1/2+y,-z
1/2-x,1/2+y,1/2+z
1/2+x,1/2-y,1/2+z
loop_
_atom_site_type_symbol
_atom_site_label
_atom_site_fract_x
_atom_site_fract_y
_atom_site_fract_z
Si Si1 0.584039 0.713120 0.904601
Si Si2 0.959008 0.553274 0.412417
Si Si3 0.724279 0.439777 0.160278
Si Si4 0.345715 0.089190 0.827273
Si Si5 0.156929 0.311461 0.096513
Si Si6 0.157357 0.036976 0.905104
Si Si7 0.978415 0.116589 0.900150
O O1 0.713264 0.700562 0.904215
O O2 0.585002 0.766799 0.873165
O O3 0.518506 0.668100 0.870294
O O4 0.549757 0.716640 0.000000
O O5 0.986407 0.576276 0.500000
O O6 0.829344 0.556411 0.399309
O O7 0.000000 0.500000 0.415361
O O8 0.028917 0.574140 0.338626
O O9 0.780936 0.427998 0.247004
O O10 0.663378 0.490025 0.149557
O O11 0.637501 0.399969 0.135670
O O12 0.349077 0.144137 0.844744
O O13 0.274379 0.063296 0.898193
O O14 0.129042 0.321012 0.000000
O O15 0.067724 0.076006 0.879208
O O16 0.135758 0.023360 0.000000
O O17 0.973783 0.117437 0.000000
#
# Coordination Sequence:
#
# PCOD9497414 Si02
#       7
#    16  16  16  16  16  16  16
#     4   8  15  30  59  92 115 146 199 259 305 348
#     4  11  23  40  63  82 107 157 218 264 303 361
#     4  12  25  37  55  86 129 169 200 246 319 384
#     4  12  23  36  58  88 123 158 199 258 317 363
#     4   9  16  32  59  90 117 147 200 258 301 348
#     4  11  21  37  59  86 120 167 215 250 291 362
#     4  10  20  37  61  90 126 166 208 255 308 373
#
# _framework density 19.902594000000001
#
# number of rings (size 3 to 8) (size 9 to 14) (size 15 to 20)
#    0.000    1.571    2.857    4.714    0.000    2.286 
#    0.000    1.429    0.000    7.714    0.000    4.000 
#    0.000    0.000    0.000    0.000    0.000    0.000 
#
# Total GULP energy -312273.286836 kJ/mol
# GULP energy per Si atom -5576.308694 kJ/mol
# Density = 1.985730 g / cm^3
# Si number density = 19.902594 Si / 1000 Ang^3
#
#
#
# Elastic Constant Matrix: (Units=GPa)
#
#
# Indices 1 2 3 4 5 6 
#
# 1 76.9117 30.6699 13.4195 0.0000 0.0000 0.0000
# 2 30.6699 157.4716 42.2357 0.0000 0.0000 0.0000
# 3 13.4195 42.2357 75.2870 0.0000 0.0000 0.0000
# 4 0.0000 0.0000 0.0000 0.5058 0.0000 0.0000
# 5 0.0000 0.0000 0.0000 0.0000 11.1242 0.0000
# 6 0.0000 0.0000 0.0000 0.0000 0.0000 34.7297
#
#
#
# Elastic Compliance Matrix: (Units=1/GPa)
#
#
# Indices 1 2 3 4 5 6 
#
# 1 0.014181 -0.002453 -0.001151 0.000000 0.000000 0.000000
# 2 -0.002453 0.007899 -0.003994 0.000000 0.000000 0.000000
# 3 -0.001151 -0.003994 0.015729 0.000000 0.000000 0.000000
# 4 0.000000 0.000000 0.000000 1.976924 0.000000 0.000000
# 5 0.000000 0.000000 0.000000 0.000000 0.089894 0.000000
# 6 0.000000 0.000000 0.000000 0.000000 0.000000 0.028794
#
#
# Mechanical properties :
#
#
# Convention : Reuss Voigt Hill
#
# Bulk Modulus (GPa) = 44.22587 53.59116 48.90852
# Shear Modulus (GPa) = 2.31894 24.16165 13.24030
#
# Velocity S-wave (km/s) = 1.08059 3.48802 2.58205
# Velocity P-wave (km/s) = 4.88122 6.57320 5.78935
#
# Compressibility (1/GPa) = 0.02261120
#
# Stress axis : x y z
#
# Youngs Moduli (GPa) = 70.51660 126.59109 63.57868
#
# Poissons Ratio (x) = 0.31054 0.07321
# Poissons Ratio (y) = 0.17299 0.25395
# Poissons Ratio (z) = 0.08120 0.50564
#
# Static dielectric constant tensor:
#      x y z
#    x 1.636380 0.000000 0.000000 
#    y 0.000000 1.759900 0.000000 
#    z 0.000000 0.000000 1.789740 
# 
# From -- ./inp_files/27009.got.cif
#   From: 2010.05.17/outbox.cif.g08.bks.cpg/sg66_14_cif.got.tgz:27009.got - 2010.06.03 17:51:23.
