data_PCOD9497088
_publ_section_title
;
Structure prediction by ZEFSAII (Michael W. Deem and Ramdas Pophale) SiO2 
 PCOD9497088
Probable space group: C C C M
;
_chemical_formula_sum "Si O2"
_cell_formula_units_Z 116
_cell_length_a 27.650828
_cell_length_b 25.480249
_cell_length_c 8.303049
_cell_angle_alpha 90.000000
_cell_angle_beta 90.000000
_cell_angle_gamma 90.000000
_cell_volume 5849.913028
_symmetry_space_group_name_H-M "C C C M"
_symmetry_group_IT_number 66
_symmetry_cell_setting 'orthorhombic'
loop_
_space_group_symop_operation_xyz
x,y,z
-x,-y,z
x,-y,1/2-z
-x,y,1/2-z
-x,-y,-z
x,y,-z
-x,y,1/2+z
x,-y,1/2+z
1/2+x,1/2+y,z
1/2-x,1/2-y,z
1/2+x,1/2-y,1/2-z
1/2-x,1/2+y,1/2-z
1/2-x,1/2-y,-z
1/2+x,1/2+y,-z
1/2-x,1/2+y,1/2+z
1/2+x,1/2-y,1/2+z
loop_
_atom_site_type_symbol
_atom_site_label
_atom_site_fract_x
_atom_site_fract_y
_atom_site_fract_z
Si Si1 0.306409 0.752943 0.195003
Si Si2 0.854506 0.143709 0.191287
Si Si3 0.176022 0.439963 0.806129
Si Si4 0.000000 0.500000 0.750000
Si Si5 0.928483 0.588084 0.688381
Si Si6 0.719449 0.559616 0.191682
Si Si7 0.902247 0.302216 0.693313
Si Si8 0.446412 0.691293 0.691222
O O1 0.250000 0.750000 0.244924
O O2 0.328594 0.697162 0.249080
O O3 0.345155 0.796150 0.258770
O O4 0.307191 0.756850 0.000000
O O5 0.824163 0.094604 0.248981
O O6 0.909034 0.147490 0.251210
O O7 0.854058 0.144974 0.000000
O O8 0.179599 0.500000 0.750000
O O9 0.128279 0.419915 0.720544
O O10 0.228173 0.416858 0.756993
O O11 0.170005 0.435918 0.000000
O O12 0.959325 0.545630 0.791629
O O13 0.940488 0.577975 0.500000
O O14 0.932366 0.649112 0.734175
O O15 0.715152 0.500000 0.250000
O O16 0.720371 0.558750 0.000000
O O17 0.904075 0.306769 0.500000
O O18 0.927005 0.248055 0.750335
O O19 0.500000 0.682015 0.750000
O O20 0.445355 0.693622 0.500000
#
# Coordination Sequence:
#
# PCOD9497088 Si02
#       8
#    16  16  16   4  16  16  16  16
#     4   9  19  36  57  87 122 159 200 243 300 368
#     4  10  20  35  58  88 123 160 200 245 296 358
#     4  10  21  38  59  84 114 150 195 243 296 358
#     4  12  30  48  64  90 114 156 214 276 334 384
#     4  12  26  43  64  84 113 153 200 259 319 375
#     4  10  21  37  59  89 124 161 201 245 293 353
#     4  10  23  40  59  87 119 154 200 250 304 369
#     4  10  21  39  62  88 119 156 198 247 299 357
#
# _framework density 19.829355
#
# number of rings (size 3 to 8) (size 9 to 14) (size 15 to 20)
#    0.000    1.793    0.690    2.690    2.897    5.793 
#    0.000    0.000    0.000    0.414    0.000    2.897 
#    0.000    0.000    0.000    0.000    0.000    0.000 
#
# Total GULP energy -323337.041790 kJ/mol
# GULP energy per Si atom -5574.776583 kJ/mol
# Density = 1.978422 g / cm^3
# Si number density = 19.829355 Si / 1000 Ang^3
#
#
#
# Elastic Constant Matrix: (Units=GPa)
#
#
# Indices 1 2 3 4 5 6 
#
# 1 157.0764 54.3864 18.8600 0.0000 0.0000 0.0000
# 2 54.3864 68.4252 6.8445 0.0000 0.0000 0.0000
# 3 18.8600 6.8445 36.6948 0.0000 0.0000 0.0000
# 4 0.0000 0.0000 0.0000 10.6048 0.0000 0.0000
# 5 0.0000 0.0000 0.0000 0.0000 14.2005 0.0000
# 6 0.0000 0.0000 0.0000 0.0000 0.0000 17.9485
#
#
#
# Elastic Compliance Matrix: (Units=1/GPa)
#
#
# Indices 1 2 3 4 5 6 
#
# 1 0.009187 -0.006960 -0.003424 0.000000 0.000000 0.000000
# 2 -0.006960 0.020165 -0.000184 0.000000 0.000000 0.000000
# 3 -0.003424 -0.000184 0.029046 0.000000 0.000000 0.000000
# 4 0.000000 0.000000 0.000000 0.094296 0.000000 0.000000
# 5 0.000000 0.000000 0.000000 0.000000 0.070420 0.000000
# 6 0.000000 0.000000 0.000000 0.000000 0.000000 0.055715
#
#
# Mechanical properties :
#
#
# Convention : Reuss Voigt Hill
#
# Bulk Modulus (GPa) = 26.83664 46.93093 36.88378
# Shear Modulus (GPa) = 16.00586 20.69113 18.34850
#
# Velocity S-wave (km/s) = 2.84417 3.23377 3.04521
# Velocity P-wave (km/s) = 4.93446 6.13692 5.56825
#
# Compressibility (1/GPa) = 0.03726250
#
# Stress axis : x y z
#
# Youngs Moduli (GPa) = 108.84732 49.59151 34.42829
#
# Poissons Ratio (x) = 0.34515 0.11787
# Poissons Ratio (y) = 0.75755 0.00634
# Poissons Ratio (z) = 0.37267 0.00913
#
# Static dielectric constant tensor:
#      x y z
#    x 1.718340 0.000000 0.000000 
#    y 0.000000 1.665010 0.000000 
#    z 0.000000 0.000000 1.703280 
# 
# From -- ./inp_files/10618.got.cif
#   From: 2010.05.17/outbox.cif.g08.bks.cpg/sg66_6_cif.got.tgz:10618.got - 2010.06.03 17:51:23.
