data_PCOD9497032
_publ_section_title
;
Structure prediction by ZEFSAII (Michael W. Deem and Ramdas Pophale) SiO2 
 PCOD9497032
Probable space group: C C C M
;
_chemical_formula_sum "Si O2"
_cell_formula_units_Z 108
_cell_length_a 6.581393
_cell_length_b 29.859124
_cell_length_c 27.214779
_cell_angle_alpha 90.000000
_cell_angle_beta 90.000000
_cell_angle_gamma 90.000000
_cell_volume 5348.102217
_symmetry_space_group_name_H-M "C C C M"
_symmetry_group_IT_number 66
_symmetry_cell_setting 'orthorhombic'
loop_
_space_group_symop_operation_xyz
x,y,z
-x,-y,z
x,-y,1/2-z
-x,y,1/2-z
-x,-y,-z
x,y,-z
-x,y,1/2+z
x,-y,1/2+z
1/2+x,1/2+y,z
1/2-x,1/2-y,z
1/2+x,1/2-y,1/2-z
1/2-x,1/2+y,1/2-z
1/2-x,1/2-y,-z
1/2+x,1/2+y,-z
1/2-x,1/2+y,1/2+z
1/2+x,1/2-y,1/2+z
loop_
_atom_site_type_symbol
_atom_site_label
_atom_site_fract_x
_atom_site_fract_y
_atom_site_fract_z
Si Si1 0.194729 0.528560 0.172379
Si Si2 0.206650 0.842761 0.622072
Si Si3 0.950431 0.375733 0.192795
Si Si4 0.431281 0.597826 0.945350
Si Si5 0.818303 0.201986 0.149447
Si Si6 0.000000 0.000000 0.090929
Si Si7 0.408120 0.167051 0.443438
Si Si8 0.000000 0.000000 0.250000
O O1 0.126325 0.579348 0.165927
O O2 0.304391 0.503535 0.127059
O O3 0.358565 0.529404 0.215598
O O4 0.000000 0.500000 0.187099
O O5 0.343347 0.861134 0.665941
O O6 0.367217 0.831460 0.579177
O O7 0.057098 0.879254 0.598162
O O8 0.058503 0.804428 0.642546
O O9 0.783962 0.337110 0.182223
O O10 0.000000 0.383510 0.250000
O O11 0.471767 0.545170 0.939909
O O12 0.201683 0.617769 0.941744
O O13 0.501760 0.612060 0.000000
O O14 0.750000 0.250000 0.168621
O O15 0.724874 0.195746 0.094636
O O16 0.402936 0.181559 0.500000
#
# Coordination Sequence:
#
# PCOD9497032 Si02
#       8
#    16  16  16  16  16   8  16   4
#     4  11  22  37  58  84 118 153 200 253 306 366
#     4  10  20  39  63  82 117 157 196 249 307 363
#     4  11  24  41  61  89 117 157 206 254 311 375
#     4  10  20  35  56  85 121 160 202 244 294 361
#     4  10  23  42  60  88 122 155 198 258 310 369
#     4  11  21  33  53  84 118 160 197 247 305 357
#     4   9  19  36  60  89 119 157 201 243 295 367
#     4  10  22  36  58  86 118 152 192 252 312 360
#
# _framework density 20.194081000000001
#
# number of rings (size 3 to 8) (size 9 to 14) (size 15 to 20)
#    0.000    1.778    0.000    5.333    0.000    7.407 
#    2.667    0.741    0.000    4.444    0.000    0.000 
#    0.000    0.000    0.000    0.000    0.000    0.000 
#
# Total GULP energy -301245.123963 kJ/mol
# GULP energy per Si atom -5578.613407 kJ/mol
# Density = 2.014812 g / cm^3
# Si number density = 20.194081 Si / 1000 Ang^3
#
#
#
# Elastic Constant Matrix: (Units=GPa)
#
#
# Indices 1 2 3 4 5 6 
#
# 1 116.1201 22.3966 8.7411 0.0000 0.0000 0.0000
# 2 22.3966 86.3038 -23.0684 0.0000 0.0000 0.0000
# 3 8.7411 -23.0684 66.9538 0.0000 0.0000 0.0000
# 4 0.0000 0.0000 0.0000 -0.6641 0.0000 0.0000
# 5 0.0000 0.0000 0.0000 0.0000 16.3130 0.0000
# 6 0.0000 0.0000 0.0000 0.0000 0.0000 20.5744
#
#
#
# Elastic Compliance Matrix: (Units=1/GPa)
#
#
# Indices 1 2 3 4 5 6 
#
# 1 0.009369 -0.003038 -0.002270 0.000000 0.000000 0.000000
# 2 -0.003038 0.013747 0.005133 0.000000 0.000000 0.000000
# 3 -0.002270 0.005133 0.017001 0.000000 0.000000 0.000000
# 4 0.000000 0.000000 0.000000 -1.505757 0.000000 0.000000
# 5 0.000000 0.000000 0.000000 0.000000 0.061301 0.000000
# 6 0.000000 0.000000 0.000000 0.000000 0.000000 0.048604
#
#
# Mechanical properties :
#
#
# Convention : Reuss Voigt Hill
#
# Bulk Modulus (GPa) = 25.14620 31.72404 28.43512
# Shear Modulus (GPa) = -3.72542 24.66520 10.46989
#
# Velocity S-wave (km/s) = -1.35971 3.49866 2.27945
# Velocity P-wave (km/s) = 3.16452 5.66255 4.58687
#
# Compressibility (1/GPa) = 0.03976744
#
# Stress axis : x y z
#
# Youngs Moduli (GPa) = 106.73986 72.74101 58.82150
#
# Poissons Ratio (x) = 0.22098 0.13351
# Poissons Ratio (y) = 0.32427 -0.30194
# Poissons Ratio (z) = 0.24228 -0.37339
#
# Static dielectric constant tensor:
#      x y z
#    x 1.729340 0.000000 0.000000 
#    y 0.000000 1.654490 0.000000 
#    z 0.000000 0.000000 1.726170 
# 
# From -- ./inp_files/67551.got.cif
#   From: 2010.05.17/outbox.cif.g08.bks.cpg/sg66_34_cif.got.tgz:67551.got - 2010.06.03 17:51:23.
