data_PCOD9497808
_publ_section_title
;
Structure prediction by ZEFSAII (Michael W. Deem and Ramdas Pophale) SiO2 
 PCOD9497808
Probable space group: C C C M
;
_chemical_formula_sum "Si O2"
_cell_formula_units_Z 64
_cell_length_a 16.951594
_cell_length_b 6.975612
_cell_length_c 21.738988
_cell_angle_alpha 90.000000
_cell_angle_beta 90.000000
_cell_angle_gamma 90.000000
_cell_volume 2570.586256
_symmetry_space_group_name_H-M "C C C M"
_symmetry_group_IT_number 66
_symmetry_cell_setting 'orthorhombic'
loop_
_space_group_symop_operation_xyz
x,y,z
-x,-y,z
x,-y,1/2-z
-x,y,1/2-z
-x,-y,-z
x,y,-z
-x,y,1/2+z
x,-y,1/2+z
1/2+x,1/2+y,z
1/2-x,1/2-y,z
1/2+x,1/2-y,1/2-z
1/2-x,1/2+y,1/2-z
1/2-x,1/2-y,-z
1/2+x,1/2+y,-z
1/2-x,1/2+y,1/2+z
1/2+x,1/2-y,1/2+z
loop_
_atom_site_type_symbol
_atom_site_label
_atom_site_fract_x
_atom_site_fract_y
_atom_site_fract_z
Si Si1 0.741902 0.481680 0.432317
Si Si2 0.431651 0.336145 0.433125
Si Si3 0.179958 0.598476 0.684646
Si Si4 0.513901 0.727767 0.180977
O O1 0.771214 0.543964 0.500000
O O2 0.750000 0.250000 0.432942
O O3 0.652618 0.558165 0.426926
O O4 0.790551 0.535077 0.371492
O O5 0.500000 0.500000 0.435519
O O6 0.434440 0.237770 0.500000
O O7 0.454922 0.211574 0.373513
O O8 0.166093 0.500000 0.750000
O O9 0.250000 0.750000 0.695913
O O10 0.102364 0.714229 0.664967
O O11 0.500000 0.500000 0.185177
O O12 0.500000 0.798708 0.250000
#
# Coordination Sequence:
#
# PCOD9497808 Si02
#       4
#    16  16  16  16
#     4   9  17  31  55  88 125 163 208 259 314 380
#     4   9  16  28  51  83 119 160 207 256 309 371
#     4  11  24  37  61  94 129 171 214 264 321 382
#     4  10  21  35  59  85 122 168 211 259 316 370
#
# _framework density 24.897044000000001
#
# number of rings (size 3 to 8) (size 9 to 14) (size 15 to 20)
#    0.000    2.250    0.000    6.000    7.000    3.500 
#    0.000    0.000    0.000    2.250    0.000    3.500 
#    0.000    0.000    0.000    0.000    0.000    0.500 
#
# Total GULP energy -178854.158776 kJ/mol
# GULP energy per Si atom -5589.192462 kJ/mol
# Density = 2.484038 g / cm^3
# Si number density = 24.897044 Si / 1000 Ang^3
#
#
#
# Elastic Constant Matrix: (Units=GPa)
#
#
# Indices 1 2 3 4 5 6 
#
# 1 202.0718 46.8813 78.9412 0.0000 0.0000 0.0000
# 2 46.8813 100.8545 22.1281 0.0000 0.0000 0.0000
# 3 78.9412 22.1281 280.5195 0.0000 0.0000 0.0000
# 4 0.0000 0.0000 0.0000 -10.5888 0.0000 0.0000
# 5 0.0000 0.0000 0.0000 0.0000 45.3728 0.0000
# 6 0.0000 0.0000 0.0000 0.0000 0.0000 45.7556
#
#
#
# Elastic Compliance Matrix: (Units=1/GPa)
#
#
# Indices 1 2 3 4 5 6 
#
# 1 0.006128 -0.002514 -0.001526 0.000000 0.000000 0.000000
# 2 -0.002514 0.011121 -0.000170 0.000000 0.000000 0.000000
# 3 -0.001526 -0.000170 0.004008 0.000000 0.000000 0.000000
# 4 0.000000 0.000000 0.000000 -0.094439 0.000000 0.000000
# 5 0.000000 0.000000 0.000000 0.000000 0.022040 0.000000
# 6 0.000000 0.000000 0.000000 0.000000 0.000000 0.021855
#
#
# Mechanical properties :
#
#
# Convention : Reuss Voigt Hill
#
# Bulk Modulus (GPa) = 77.89853 97.70522 87.80188
# Shear Modulus (GPa) = -301.41485 45.14092 -128.13696
#
# Velocity S-wave (km/s) = -11.01487 4.26268 -7.18182
# Velocity P-wave (km/s) = 11.41988 7.97221 5.78176
#
# Compressibility (1/GPa) = 0.01283721
#
# Stress axis : x y z
#
# Youngs Moduli (GPa) = 163.18072 89.91963 249.51880
#
# Poissons Ratio (x) = 0.22604 0.38083
# Poissons Ratio (y) = 0.41020 0.04238
# Poissons Ratio (z) = 0.24905 0.01527
#
# Static dielectric constant tensor:
#      x y z
#    x 1.913540 0.000000 0.000000 
#    y 0.000000 1.990640 0.000000 
#    z 0.000000 0.000000 2.077350 
# 
# From -- ./inp_files/57654.got.cif
#   From: 2010.05.17/outbox.cif.g08.bks.cpg/sg66_29_cif.got.tgz:57654.got - 2010.06.03 17:51:23.
