data_PCOD9497817
_publ_section_title
;
Structure prediction by ZEFSAII (Michael W. Deem and Ramdas Pophale) SiO2 
 PCOD9497817
Probable space group: C C C M
;
_chemical_formula_sum "Si O2"
_cell_formula_units_Z 72
_cell_length_a 5.260915
_cell_length_b 24.904293
_cell_length_c 29.471309
_cell_angle_alpha 90.000000
_cell_angle_beta 90.000000
_cell_angle_gamma 90.000000
_cell_volume 3861.312297
_symmetry_space_group_name_H-M "C C C M"
_symmetry_group_IT_number 66
_symmetry_cell_setting 'orthorhombic'
loop_
_space_group_symop_operation_xyz
x,y,z
-x,-y,z
x,-y,1/2-z
-x,y,1/2-z
-x,-y,-z
x,y,-z
-x,y,1/2+z
x,-y,1/2+z
1/2+x,1/2+y,z
1/2-x,1/2-y,z
1/2+x,1/2-y,1/2-z
1/2-x,1/2+y,1/2-z
1/2-x,1/2-y,-z
1/2+x,1/2+y,-z
1/2-x,1/2+y,1/2+z
1/2+x,1/2-y,1/2+z
loop_
_atom_site_type_symbol
_atom_site_label
_atom_site_fract_x
_atom_site_fract_y
_atom_site_fract_z
Si Si1 0.995617 0.625601 0.872214
Si Si2 0.016164 0.063546 0.154278
Si Si3 0.379878 0.800427 0.794649
Si Si4 0.000000 0.886145 0.750000
Si Si5 0.496467 0.785090 0.446429
O O1 0.253860 0.592965 0.860576
O O2 0.951454 0.668228 0.830903
O O3 0.752595 0.587449 0.873355
O O4 0.018660 0.661359 0.916895
O O5 0.075943 0.077396 0.207223
O O6 0.000000 0.000000 0.148756
O O7 0.500000 0.774272 0.750000
O O8 0.250000 0.750000 0.819261
O O9 0.207000 0.846388 0.771876
O O10 0.470426 0.797255 0.500000
O O11 0.250000 0.750000 0.432692
O O12 0.750000 0.750000 0.440212
#
# Coordination Sequence:
#
# PCOD9497817 Si02
#       5
#    16  16  16   8  16
#     4  11  23  38  59  86 115 153 193 237 292 341
#     4  11  23  39  59  80 112 154 204 251 285 327
#     4  11  20  32  51  79 119 152 182 226 277 355
#     4  10  21  36  50  78 110 156 199 240 282 328
#     4  10  21  39  64  93 121 150 185 228 284 352
#
# _framework density 18.646509999999999
#
# number of rings (size 3 to 8) (size 9 to 14) (size 15 to 20)
#    0.000    1.333    3.333    3.000    0.000    2.667 
#    0.000    2.222    0.000    4.000    0.000    0.000 
#    0.000    0.000    0.000    0.000    0.000    0.000 
#
# Total GULP energy -200874.170291 kJ/mol
# GULP energy per Si atom -5579.838064 kJ/mol
# Density = 1.860407 g / cm^3
# Si number density = 18.646510 Si / 1000 Ang^3
#
#
#
# Elastic Constant Matrix: (Units=GPa)
#
#
# Indices 1 2 3 4 5 6 
#
# 1 100.4773 49.6278 26.2571 0.0000 0.0000 0.0000
# 2 49.6278 144.2208 54.8919 0.0000 0.0000 0.0000
# 3 26.2571 54.8919 74.1109 0.0000 0.0000 0.0000
# 4 0.0000 0.0000 0.0000 92.2456 0.0000 0.0000
# 5 0.0000 0.0000 0.0000 0.0000 5.6854 0.0000
# 6 0.0000 0.0000 0.0000 0.0000 0.0000 31.0114
#
#
#
# Elastic Compliance Matrix: (Units=1/GPa)
#
#
# Indices 1 2 3 4 5 6 
#
# 1 0.012139 -0.003537 -0.001681 0.000000 0.000000 0.000000
# 2 -0.003537 0.010687 -0.006662 0.000000 0.000000 0.000000
# 3 -0.001681 -0.006662 0.019023 0.000000 0.000000 0.000000
# 4 0.000000 0.000000 0.000000 0.010841 0.000000 0.000000
# 5 0.000000 0.000000 0.000000 0.000000 0.175889 0.000000
# 6 0.000000 0.000000 0.000000 0.000000 0.000000 0.032246
#
#
# Mechanical properties :
#
#
# Convention : Reuss Voigt Hill
#
# Bulk Modulus (GPa) = 55.28394 64.48475 59.88434
# Shear Modulus (GPa) = 17.20492 38.32396 27.76444
#
# Velocity S-wave (km/s) = 3.04087 4.53845 3.86293
# Velocity P-wave (km/s) = 6.48398 7.88170 7.21676
#
# Compressibility (1/GPa) = 0.01808844
#
# Stress axis : x y z
#
# Youngs Moduli (GPa) = 82.37979 93.57400 52.56746
#
# Poissons Ratio (x) = 0.33101 0.08835
# Poissons Ratio (y) = 0.29141 0.35021
# Poissons Ratio (z) = 0.13845 0.62340
#
# Static dielectric constant tensor:
#      x y z
#    x 1.778710 0.000000 0.000000 
#    y 0.000000 1.627770 0.000000 
#    z 0.000000 0.000000 1.642270 
# 
# From -- ./inp_files/61456.got.cif
#   From: 2010.05.17/outbox.cif.g08.bks.cpg/sg66_31_cif.got.tgz:61456.got - 2010.06.03 17:51:23.
