data_PCOD9497329
_publ_section_title
;
Structure prediction by ZEFSAII (Michael W. Deem and Ramdas Pophale) SiO2 
 PCOD9497329
Probable space group: C C C M
;
_chemical_formula_sum "Si O2"
_cell_formula_units_Z 88
_cell_length_a 10.778649
_cell_length_b 21.564467
_cell_length_c 18.994204
_cell_angle_alpha 90.000000
_cell_angle_beta 90.000000
_cell_angle_gamma 90.000000
_cell_volume 4414.933395
_symmetry_space_group_name_H-M "C C C M"
_symmetry_group_IT_number 66
_symmetry_cell_setting 'orthorhombic'
loop_
_space_group_symop_operation_xyz
x,y,z
-x,-y,z
x,-y,1/2-z
-x,y,1/2-z
-x,-y,-z
x,y,-z
-x,y,1/2+z
x,-y,1/2+z
1/2+x,1/2+y,z
1/2-x,1/2-y,z
1/2+x,1/2-y,1/2-z
1/2-x,1/2+y,1/2-z
1/2-x,1/2-y,-z
1/2+x,1/2+y,-z
1/2-x,1/2+y,1/2+z
1/2+x,1/2-y,1/2+z
loop_
_atom_site_type_symbol
_atom_site_label
_atom_site_fract_x
_atom_site_fract_y
_atom_site_fract_z
Si Si1 0.500000 0.500000 0.864484
Si Si2 0.764112 0.468108 0.178501
Si Si3 0.049948 0.636665 0.829088
Si Si4 0.168331 0.578964 0.584447
Si Si5 0.399418 0.256583 0.416488
Si Si6 0.421860 0.369017 0.081657
O O1 0.383642 0.524986 0.820414
O O2 0.533812 0.560272 0.909816
O O3 0.814638 0.500000 0.250000
O O4 0.819349 0.399810 0.172141
O O5 0.801193 0.510091 0.111772
O O6 0.053038 0.702738 0.866116
O O7 0.000000 0.640182 0.750000
O O8 0.957128 0.597101 0.877176
O O9 0.160138 0.581471 0.500000
O O10 0.280444 0.625033 0.610646
O O11 0.426297 0.245874 0.500000
O O12 0.250000 0.250000 0.410628
O O13 0.473044 0.319825 0.394729
O O14 0.405076 0.354545 0.000000
#
# Coordination Sequence:
#
# PCOD9497329 Si02
#       6
#     8  16  16  16  16  16
#     4  10  20  36  66  92 119 164 211 254 323 388
#     4  11  22  39  60  90 128 163 206 263 321 371
#     4  12  24  40  61  89 129 170 208 263 324 382
#     4  10  22  39  64  94 121 163 213 256 315 381
#     4  10  22  42  65  91 126 170 216 266 320 382
#     4   9  19  38  62  94 129 158 206 268 315 372
#
# _framework density 19.93235
#
# number of rings (size 3 to 8) (size 9 to 14) (size 15 to 20)
#    0.000    1.636    1.818    2.727    0.000    3.636 
#    3.273    4.545    0.000    0.000    0.000    0.000 
#    0.000    0.000    0.000    0.000    0.000    0.000 
#
# Total GULP energy -245122.343854 kJ/mol
# GULP energy per Si atom -5570.962360 kJ/mol
# Density = 1.988698 g / cm^3
# Si number density = 19.932350 Si / 1000 Ang^3
#
#
#
# Elastic Constant Matrix: (Units=GPa)
#
#
# Indices 1 2 3 4 5 6 
#
# 1 90.2120 36.9602 22.4648 0.0000 0.0000 0.0000
# 2 36.9602 94.0012 6.4178 0.0000 0.0000 0.0000
# 3 22.4648 6.4178 63.1382 0.0000 0.0000 0.0000
# 4 0.0000 0.0000 0.0000 68.7512 0.0000 0.0000
# 5 0.0000 0.0000 0.0000 0.0000 22.9988 0.0000
# 6 0.0000 0.0000 0.0000 0.0000 0.0000 27.5073
#
#
#
# Elastic Compliance Matrix: (Units=1/GPa)
#
#
# Indices 1 2 3 4 5 6 
#
# 1 0.014422 -0.005357 -0.004587 0.000000 0.000000 0.000000
# 2 -0.005357 0.012703 0.000615 0.000000 0.000000 0.000000
# 3 -0.004587 0.000615 0.017408 0.000000 0.000000 0.000000
# 4 0.000000 0.000000 0.000000 0.014545 0.000000 0.000000
# 5 0.000000 0.000000 0.000000 0.000000 0.043480 0.000000
# 6 0.000000 0.000000 0.000000 0.000000 0.000000 0.036354
#
#
# Mechanical properties :
#
#
# Convention : Reuss Voigt Hill
#
# Bulk Modulus (GPa) = 38.64889 42.11522 40.38205
# Shear Modulus (GPa) = 30.08501 35.95205 33.01853
#
# Velocity S-wave (km/s) = 3.88926 4.25161 4.07446
# Velocity P-wave (km/s) = 6.29290 6.72878 6.51449
#
# Compressibility (1/GPa) = 0.02587396
#
# Stress axis : x y z
#
# Youngs Moduli (GPa) = 69.33747 78.72357 57.44547
#
# Poissons Ratio (x) = 0.42176 0.26350
# Poissons Ratio (y) = 0.37147 -0.03533
# Poissons Ratio (z) = 0.31804 -0.04842
#
# Static dielectric constant tensor:
#      x y z
#    x 1.785300 0.000000 0.000000 
#    y 0.000000 1.700300 0.000000 
#    z 0.000000 0.000000 1.681680 
# 
# From -- ./inp_files/38671.got.cif
#   From: 2010.05.17/outbox.cif.g08.bks.cpg/sg66_20_cif.got.tgz:38671.got - 2010.06.03 17:51:23.
