data_PCOD9497068
_publ_section_title
;
Structure prediction by ZEFSAII (Michael W. Deem and Ramdas Pophale) SiO2 
 PCOD9497068
Probable space group: C C C M
;
_chemical_formula_sum "Si O2"
_cell_formula_units_Z 112
_cell_length_a 23.978945
_cell_length_b 16.360638
_cell_length_c 14.010414
_cell_angle_alpha 90.000000
_cell_angle_beta 90.000000
_cell_angle_gamma 90.000000
_cell_volume 5496.437268
_symmetry_space_group_name_H-M "C C C M"
_symmetry_group_IT_number 66
_symmetry_cell_setting 'orthorhombic'
loop_
_space_group_symop_operation_xyz
x,y,z
-x,-y,z
x,-y,1/2-z
-x,y,1/2-z
-x,-y,-z
x,y,-z
-x,y,1/2+z
x,-y,1/2+z
1/2+x,1/2+y,z
1/2-x,1/2-y,z
1/2+x,1/2-y,1/2-z
1/2-x,1/2+y,1/2-z
1/2-x,1/2-y,-z
1/2+x,1/2+y,-z
1/2-x,1/2+y,1/2+z
1/2+x,1/2-y,1/2+z
loop_
_atom_site_type_symbol
_atom_site_label
_atom_site_fract_x
_atom_site_fract_y
_atom_site_fract_z
Si Si1 0.111068 0.530694 0.111346
Si Si2 0.338203 0.544537 0.851806
Si Si3 0.552740 0.453917 0.607587
Si Si4 0.769567 0.552991 0.104325
Si Si5 0.063801 0.623517 0.717214
Si Si6 0.890749 0.785586 0.115709
Si Si7 0.213351 0.176856 0.241617
O O1 0.174523 0.498418 0.120229
O O2 0.098883 0.602442 0.186839
O O3 0.073654 0.454050 0.147313
O O4 0.100584 0.550170 0.000000
O O5 0.341487 0.500000 0.750000
O O6 0.396166 0.517947 0.896608
O O7 0.284396 0.505040 0.900140
O O8 0.323533 0.636532 0.824774
O O9 0.500000 0.500000 0.650971
O O10 0.535786 0.431637 0.500000
O O11 0.575945 0.368136 0.647430
O O12 0.755725 0.613082 0.191250
O O13 0.775439 0.594714 0.000000
O O14 0.083461 0.704789 0.662851
O O15 0.000000 0.629426 0.750000
O O16 0.828713 0.796470 0.157557
O O17 0.889941 0.781407 0.000000
O O18 0.250000 0.250000 0.279073
#
# Coordination Sequence:
#
# PCOD9497068 Si02
#       7
#    16  16  16  16  16  16  16
#     4  10  22  40  66  93 125 171 216 262 320 389
#     4  10  20  35  57  90 120 162 199 255 305 374
#     4  10  21  40  66  91 121 165 212 259 314 381
#     4  10  20  36  61  88 119 158 202 256 314 373
#     4  11  25  40  62  95 127 169 213 267 323 377
#     4  11  23  41  62  94 130 163 211 271 322 371
#     4  11  23  35  58  92 125 163 201 260 323 377
#
# _framework density 20.376836000000001
#
# number of rings (size 3 to 8) (size 9 to 14) (size 15 to 20)
#    0.000    1.571    2.857    3.000    8.000    5.429 
#    0.000    0.000    0.000    3.429    0.000    0.000 
#    0.000    0.571    0.000    0.000    0.000    0.000 
#
# Total GULP energy -312483.268658 kJ/mol
# GULP energy per Si atom -5580.058369 kJ/mol
# Density = 2.033046 g / cm^3
# Si number density = 20.376836 Si / 1000 Ang^3
#
#
#
# Elastic Constant Matrix: (Units=GPa)
#
#
# Indices 1 2 3 4 5 6 
#
# 1 82.6908 47.2444 3.5448 0.0000 0.0000 0.0000
# 2 47.2444 111.8816 27.7175 0.0000 0.0000 0.0000
# 3 3.5448 27.7175 75.5936 0.0000 0.0000 0.0000
# 4 0.0000 0.0000 0.0000 25.5083 0.0000 0.0000
# 5 0.0000 0.0000 0.0000 0.0000 18.4122 0.0000
# 6 0.0000 0.0000 0.0000 0.0000 0.0000 17.7410
#
#
#
# Elastic Compliance Matrix: (Units=1/GPa)
#
#
# Indices 1 2 3 4 5 6 
#
# 1 0.016189 -0.007312 0.001922 0.000000 0.000000 0.000000
# 2 -0.007312 0.013134 -0.004473 0.000000 0.000000 0.000000
# 3 0.001922 -0.004473 0.014779 0.000000 0.000000 0.000000
# 4 0.000000 0.000000 0.000000 0.039203 0.000000 0.000000
# 5 0.000000 0.000000 0.000000 0.000000 0.054312 0.000000
# 6 0.000000 0.000000 0.000000 0.000000 0.000000 0.056366
#
#
# Mechanical properties :
#
#
# Convention : Reuss Voigt Hill
#
# Bulk Modulus (GPa) = 41.02572 47.46439 44.24506
# Shear Modulus (GPa) = 22.53947 25.10959 23.82453
#
# Velocity S-wave (km/s) = 3.32946 3.51417 3.42306
# Velocity P-wave (km/s) = 5.91250 6.30949 6.11422
#
# Compressibility (1/GPa) = 0.02437495
#
# Stress axis : x y z
#
# Youngs Moduli (GPa) = 61.77214 76.13939 67.66575
#
# Poissons Ratio (x) = 0.55674 -0.13005
# Poissons Ratio (y) = 0.45168 0.30266
# Poissons Ratio (z) = -0.11872 0.34056
#
# Static dielectric constant tensor:
#      x y z
#    x 1.735360 0.000000 0.000000 
#    y 0.000000 1.752170 0.000000 
#    z 0.000000 0.000000 1.755210 
# 
# From -- ./inp_files/32470.got.cif
#   From: 2010.05.17/outbox.cif.g08.bks.cpg/sg66_17_cif.got.tgz:32470.got - 2010.06.03 17:51:23.
