data_PCOD9497750
_publ_section_title
;
Structure prediction by ZEFSAII (Michael W. Deem and Ramdas Pophale) SiO2 
 PCOD9497750
Probable space group: C C C M
;
_chemical_formula_sum "Si O2"
_cell_formula_units_Z 72
_cell_length_a 13.299081
_cell_length_b 32.328793
_cell_length_c 9.002229
_cell_angle_alpha 90.000000
_cell_angle_beta 90.000000
_cell_angle_gamma 90.000000
_cell_volume 3870.447474
_symmetry_space_group_name_H-M "C C C M"
_symmetry_group_IT_number 66
_symmetry_cell_setting 'orthorhombic'
loop_
_space_group_symop_operation_xyz
x,y,z
-x,-y,z
x,-y,1/2-z
-x,y,1/2-z
-x,-y,-z
x,y,-z
-x,y,1/2+z
x,-y,1/2+z
1/2+x,1/2+y,z
1/2-x,1/2-y,z
1/2+x,1/2-y,1/2-z
1/2-x,1/2+y,1/2-z
1/2-x,1/2-y,-z
1/2+x,1/2+y,-z
1/2-x,1/2+y,1/2+z
1/2+x,1/2-y,1/2+z
loop_
_atom_site_type_symbol
_atom_site_label
_atom_site_fract_x
_atom_site_fract_y
_atom_site_fract_z
Si Si1 0.106987 0.954154 0.819252
Si Si2 0.750000 0.250000 0.252653
Si Si3 0.234890 0.884530 0.681064
Si Si4 0.893253 0.675546 0.328976
Si Si5 0.091796 0.187071 0.839734
O O1 0.199622 0.926675 0.758415
O O2 0.000000 0.938655 0.750000
O O3 0.118102 0.000000 0.750000
O O4 0.102394 0.954720 0.000000
O O5 0.821961 0.283460 0.172158
O O6 0.823672 0.221463 0.345363
O O7 0.238965 0.887335 0.500000
O O8 0.333640 0.861225 0.743015
O O9 0.144780 0.853092 0.725217
O O10 0.909795 0.663786 0.500000
O O11 0.000000 0.683698 0.250000
O O12 0.000000 0.203994 0.750000
O O13 0.052836 0.175357 0.000000
#
# Coordination Sequence:
#
# PCOD9497750 Si02
#       5
#    16   8  16  16  16
#     4  11  21  35  57  87 121 155 189 229 277 334
#     4  10  22  36  54  76 106 142 186 232 278 330
#     4  10  21  38  57  80 110 146 185 229 279 334
#     4  11  23  39  58  82 110 146 189 236 286 339
#     4  10  21  34  51  73 102 138 178 223 273 325
#
# _framework density 18.602501
#
# number of rings (size 3 to 8) (size 9 to 14) (size 15 to 20)
#    0.000    1.556    0.000    6.000    0.000   11.556 
#    0.000    0.000    0.000    0.667    0.000    4.667 
#    0.000    0.000    0.000    0.000    0.000    0.000 
#
# Total GULP energy -200616.155329 kJ/mol
# GULP energy per Si atom -5572.670981 kJ/mol
# Density = 1.856016 g / cm^3
# Si number density = 18.602501 Si / 1000 Ang^3
#
#
#
# Elastic Constant Matrix: (Units=GPa)
#
#
# Indices 1 2 3 4 5 6 
#
# 1 118.9920 42.1644 58.3701 0.0000 0.0000 0.0000
# 2 42.1644 84.6911 34.4795 0.0000 0.0000 0.0000
# 3 58.3701 34.4795 127.5412 0.0000 0.0000 0.0000
# 4 0.0000 0.0000 0.0000 -409.4136 0.0000 0.0000
# 5 0.0000 0.0000 0.0000 0.0000 19.5994 0.0000
# 6 0.0000 0.0000 0.0000 0.0000 0.0000 9.4295
#
#
#
# Elastic Compliance Matrix: (Units=1/GPa)
#
#
# Indices 1 2 3 4 5 6 
#
# 1 0.012042 -0.004216 -0.004372 0.000000 0.000000 0.000000
# 2 -0.004216 0.014744 -0.002057 0.000000 0.000000 0.000000
# 3 -0.004372 -0.002057 0.010397 0.000000 0.000000 0.000000
# 4 0.000000 0.000000 0.000000 -0.002443 0.000000 0.000000
# 5 0.000000 0.000000 0.000000 0.000000 0.051022 0.000000
# 6 0.000000 0.000000 0.000000 0.000000 0.000000 0.106050
#
#
# Mechanical properties :
#
#
# Convention : Reuss Voigt Hill
#
# Bulk Modulus (GPa) = 62.90982 66.80580 64.85781
# Shear Modulus (GPa) = 22.89392 -62.99625 -20.05117
#
# Velocity S-wave (km/s) = 3.51193 -5.82563 -3.28666
# Velocity P-wave (km/s) = 7.09480 3.04308 4.53188
#
# Compressibility (1/GPa) = 0.01589577
#
# Stress axis : x y z
#
# Youngs Moduli (GPa) = 83.04210 67.82596 96.17959
#
# Poissons Ratio (x) = 0.28592 0.42045
# Poissons Ratio (y) = 0.35007 0.19779
# Poissons Ratio (z) = 0.36302 0.13949
#
# Static dielectric constant tensor:
#      x y z
#    x 1.698910 0.000000 0.000000 
#    y 0.000000 1.657130 0.000000 
#    z 0.000000 0.000000 1.687190 
# 
# From -- ./inp_files/5540.got.cif
#   From: 2010.05.17/outbox.cif.g08.bks.cpg/sg66_3_cif.got.tgz:5540.got - 2010.06.03 17:51:23.
