data_PCOD9497700
_publ_section_title
;
Structure prediction by ZEFSAII (Michael W. Deem and Ramdas Pophale) SiO2 
 PCOD9497700
Probable space group: C C C M
;
_chemical_formula_sum "Si O2"
_cell_formula_units_Z 56
_cell_length_a 9.542275
_cell_length_b 11.266018
_cell_length_c 20.120209
_cell_angle_alpha 90.000000
_cell_angle_beta 90.000000
_cell_angle_gamma 90.000000
_cell_volume 2162.991719
_symmetry_space_group_name_H-M "C C C M"
_symmetry_group_IT_number 66
_symmetry_cell_setting 'orthorhombic'
loop_
_space_group_symop_operation_xyz
x,y,z
-x,-y,z
x,-y,1/2-z
-x,y,1/2-z
-x,-y,-z
x,y,-z
-x,y,1/2+z
x,-y,1/2+z
1/2+x,1/2+y,z
1/2-x,1/2-y,z
1/2+x,1/2-y,1/2-z
1/2-x,1/2+y,1/2-z
1/2-x,1/2-y,-z
1/2+x,1/2+y,-z
1/2-x,1/2+y,1/2+z
1/2+x,1/2-y,1/2+z
loop_
_atom_site_type_symbol
_atom_site_label
_atom_site_fract_x
_atom_site_fract_y
_atom_site_fract_z
Si Si1 0.383778 0.104485 0.145887
Si Si2 0.174291 0.000000 0.250000
Si Si3 0.394246 0.311521 0.352997
Si Si4 0.050965 0.135780 0.500000
Si Si5 0.888186 0.610911 0.000000
O O1 0.473453 0.224418 0.152202
O O2 0.315404 0.100825 0.071837
O O3 0.500000 0.000000 0.148750
O O4 0.274461 0.081371 0.203491
O O5 0.095814 0.917473 0.197814
O O6 0.250000 0.250000 0.334027
O O7 0.373334 0.350849 0.429351
O O8 0.954427 0.256129 0.500000
O O9 0.000000 0.000000 0.500000
O O10 0.000000 0.500000 0.000000
#
# Coordination Sequence:
#
# PCOD9497700 Si02
#       5
#    16   8  16   8   8
#     4  10  20  41  69 100 140 177 240 301 348 423
#     4  12  25  44  69 110 148 189 236 302 373 440
#     4  11  24  44  73 103 137 194 247 288 365 450
#     4  10  23  48  68 104 148 187 240 319 365 419
#     4   8  18  38  70  97 120 193 241 285 353 417
#
# _framework density 25.890066999999998
#
# number of rings (size 3 to 8) (size 9 to 14) (size 15 to 20)
#    0.000    1.714    2.857    0.857    0.000    1.143 
#   15.429    0.000    0.000    6.857    0.000    0.000 
#    0.000    0.000    0.000    0.000    0.000    0.000 
#
# Total GULP energy -156879.363248 kJ/mol
# GULP energy per Si atom -5602.834402 kJ/mol
# Density = 2.583114 g / cm^3
# Si number density = 25.890067 Si / 1000 Ang^3
#
#
#
# Elastic Constant Matrix: (Units=GPa)
#
#
# Indices 1 2 3 4 5 6 
#
# 1 58.0591 71.0497 59.0256 0.0000 0.0000 0.0000
# 2 71.0497 191.5095 93.2352 0.0000 0.0000 0.0000
# 3 59.0256 93.2352 256.2157 0.0000 0.0000 0.0000
# 4 0.0000 0.0000 0.0000 51.3207 0.0000 0.0000
# 5 0.0000 0.0000 0.0000 0.0000 36.7386 0.0000
# 6 0.0000 0.0000 0.0000 0.0000 0.0000 59.3901
#
#
#
# Elastic Compliance Matrix: (Units=1/GPa)
#
#
# Indices 1 2 3 4 5 6 
#
# 1 0.034641 -0.010897 -0.004015 0.000000 0.000000 0.000000
# 2 -0.010897 0.009774 -0.001046 0.000000 0.000000 0.000000
# 3 -0.004015 -0.001046 0.005209 0.000000 0.000000 0.000000
# 4 0.000000 0.000000 0.000000 0.019485 0.000000 0.000000
# 5 0.000000 0.000000 0.000000 0.000000 0.027219 0.000000
# 6 0.000000 0.000000 0.000000 0.000000 0.000000 0.016838
#
#
# Mechanical properties :
#
#
# Convention : Reuss Voigt Hill
#
# Bulk Modulus (GPa) = 56.47549 105.82279 81.14914
# Shear Modulus (GPa) = 33.11594 48.32146 40.71870
#
# Velocity S-wave (km/s) = 3.58033 4.32488 3.97010
# Velocity P-wave (km/s) = 6.24120 8.11801 7.24067
#
# Compressibility (1/GPa) = 0.01770680
#
# Stress axis : x y z
#
# Youngs Moduli (GPa) = 28.86758 102.31435 191.98880
#
# Poissons Ratio (x) = 1.11492 0.77084
# Poissons Ratio (y) = 0.31457 0.20086
# Poissons Ratio (z) = 0.11590 0.10704
#
# Static dielectric constant tensor:
#      x y z
#    x -0.339100 0.000000 0.000000 
#    y 0.000000 2.016050 0.000000 
#    z 0.000000 0.000000 2.016380 
# 
# From -- ./inp_files/47949.got.cif
#   From: 2010.05.17/outbox.cif.g08.bks.cpg/sg66_24_cif.got.tgz:47949.got - 2010.06.03 17:51:23.
