data_PCOD9497850
_publ_section_title
;
Structure prediction by ZEFSAII (Michael W. Deem and Ramdas Pophale) SiO2 
 PCOD9497850
Probable space group: C C C M
;
_chemical_formula_sum "Si O2"
_cell_formula_units_Z 104
_cell_length_a 24.107292
_cell_length_b 25.812133
_cell_length_c 8.946505
_cell_angle_alpha 90.000000
_cell_angle_beta 90.000000
_cell_angle_gamma 90.000000
_cell_volume 5567.057814
_symmetry_space_group_name_H-M "C C C M"
_symmetry_group_IT_number 66
_symmetry_cell_setting 'orthorhombic'
loop_
_space_group_symop_operation_xyz
x,y,z
-x,-y,z
x,-y,1/2-z
-x,y,1/2-z
-x,-y,-z
x,y,-z
-x,y,1/2+z
x,-y,1/2+z
1/2+x,1/2+y,z
1/2-x,1/2-y,z
1/2+x,1/2-y,1/2-z
1/2-x,1/2+y,1/2-z
1/2-x,1/2-y,-z
1/2+x,1/2+y,-z
1/2-x,1/2+y,1/2+z
1/2+x,1/2-y,1/2+z
loop_
_atom_site_type_symbol
_atom_site_label
_atom_site_fract_x
_atom_site_fract_y
_atom_site_fract_z
Si Si1 0.810368 0.230368 0.681202
Si Si2 0.227102 0.411146 0.330420
Si Si3 0.441842 0.442630 0.319593
Si Si4 0.645504 0.000000 0.250000
Si Si5 0.163371 0.887595 0.319898
Si Si6 0.360063 0.164754 0.181382
Si Si7 0.944509 0.417658 0.667846
O O1 0.807784 0.229370 0.500000
O O2 0.750000 0.250000 0.733796
O O3 0.825139 0.172214 0.725390
O O4 0.854132 0.275183 0.722198
O O5 0.241270 0.396857 0.500000
O O6 0.186889 0.460979 0.333160
O O7 0.282750 0.419164 0.235662
O O8 0.191872 0.366128 0.249720
O O9 0.434075 0.500000 0.250000
O O10 0.500000 0.423336 0.250000
O O11 0.444380 0.445021 0.500000
O O12 0.390971 0.408536 0.261421
O O13 0.603001 0.038474 0.333011
O O14 0.158077 0.890874 0.500000
O O15 0.414594 0.133622 0.232559
O O16 0.357178 0.160219 0.000000
O O17 0.961198 0.405819 0.500000
O O18 0.000000 0.434136 0.750000
#
# Coordination Sequence:
#
# PCOD9497850 Si02
#       7
#    16  16  16   8  16  16  16
#     4   9  16  32  59  85 111 153 197 231 276 345
#     4  11  22  35  53  82 116 148 188 240 294 342
#     4  11  23  43  67  91 120 154 195 237 290 347
#     4  10  23  38  54  74 109 152 196 234 282 338
#     4  11  22  37  60  89 121 155 195 235 282 343
#     4   9  18  36  57  79 109 148 191 234 287 347
#     4  10  21  36  56  78 105 144 189 237 282 334
#
# _framework density 18.681322000000002
#
# number of rings (size 3 to 8) (size 9 to 14) (size 15 to 20)
#    0.000    1.846    1.538    3.462    1.077    5.538 
#    0.000    3.077    0.000    1.846    0.000    0.000 
#    0.000    0.000    0.000    0.000    0.000    0.000 
#
# Total GULP energy -289959.528489 kJ/mol
# GULP energy per Si atom -5576.144779 kJ/mol
# Density = 1.863880 g / cm^3
# Si number density = 18.681322 Si / 1000 Ang^3
#
#
#
# Elastic Constant Matrix: (Units=GPa)
#
#
# Indices 1 2 3 4 5 6 
#
# 1 137.5521 61.2561 49.8549 0.0000 0.0000 0.0000
# 2 61.2561 87.6178 23.9595 0.0000 0.0000 0.0000
# 3 49.8549 23.9595 89.5609 0.0000 0.0000 0.0000
# 4 0.0000 0.0000 0.0000 17.8595 0.0000 0.0000
# 5 0.0000 0.0000 0.0000 0.0000 13.6425 0.0000
# 6 0.0000 0.0000 0.0000 0.0000 0.0000 24.9363
#
#
#
# Elastic Compliance Matrix: (Units=1/GPa)
#
#
# Indices 1 2 3 4 5 6 
#
# 1 0.012266 -0.007238 -0.004892 0.000000 0.000000 0.000000
# 2 -0.007238 0.016585 -0.000408 0.000000 0.000000 0.000000
# 3 -0.004892 -0.000408 0.013998 0.000000 0.000000 0.000000
# 4 0.000000 0.000000 0.000000 0.055993 0.000000 0.000000
# 5 0.000000 0.000000 0.000000 0.000000 0.073300 0.000000
# 6 0.000000 0.000000 0.000000 0.000000 0.000000 0.040102
#
#
# Mechanical properties :
#
#
# Convention : Reuss Voigt Hill
#
# Bulk Modulus (GPa) = 56.26230 64.98576 60.62403
# Shear Modulus (GPa) = 20.55550 23.26500 21.91025
#
# Velocity S-wave (km/s) = 3.32071 3.53280 3.42839
# Velocity P-wave (km/s) = 6.69963 7.17655 6.94219
#
# Compressibility (1/GPa) = 0.01777389
#
# Stress axis : x y z
#
# Youngs Moduli (GPa) = 81.52411 60.29533 71.44002
#
# Poissons Ratio (x) = 0.43642 0.34947
# Poissons Ratio (y) = 0.59007 0.02913
# Poissons Ratio (z) = 0.39880 0.02458
#
# Static dielectric constant tensor:
#      x y z
#    x 1.651900 0.000000 0.000000 
#    y 0.000000 1.670900 0.000000 
#    z 0.000000 0.000000 1.640900 
# 
# From -- ./inp_files/8132.got.cif
#   From: 2010.05.17/outbox.cif.g08.bks.cpg/sg66_5_cif.got.tgz:8132.got - 2010.06.03 17:51:23.
