data_PCOD9497327
_publ_section_title
;
Structure prediction by ZEFSAII (Michael W. Deem and Ramdas Pophale) SiO2 
 PCOD9497327
Probable space group: C C C M
;
_chemical_formula_sum "Si O2"
_cell_formula_units_Z 64
_cell_length_a 14.020264
_cell_length_b 7.640163
_cell_length_c 26.783236
_cell_angle_alpha 90.000000
_cell_angle_beta 90.000000
_cell_angle_gamma 90.000000
_cell_volume 2868.942630
_symmetry_space_group_name_H-M "C C C M"
_symmetry_group_IT_number 66
_symmetry_cell_setting 'orthorhombic'
loop_
_space_group_symop_operation_xyz
x,y,z
-x,-y,z
x,-y,1/2-z
-x,y,1/2-z
-x,-y,-z
x,y,-z
-x,y,1/2+z
x,-y,1/2+z
1/2+x,1/2+y,z
1/2-x,1/2-y,z
1/2+x,1/2-y,1/2-z
1/2-x,1/2+y,1/2-z
1/2-x,1/2-y,-z
1/2+x,1/2+y,-z
1/2-x,1/2+y,1/2+z
1/2+x,1/2-y,1/2+z
loop_
_atom_site_type_symbol
_atom_site_label
_atom_site_fract_x
_atom_site_fract_y
_atom_site_fract_z
Si Si1 0.395661 0.183725 0.442061
Si Si2 0.830592 0.395466 0.299556
Si Si3 0.446494 0.312605 0.872012
Si Si4 0.736405 0.504288 0.399079
O O1 0.415896 0.212367 0.500000
O O2 0.489818 0.199955 0.409341
O O3 0.331164 0.339801 0.418993
O O4 0.327835 0.015919 0.434925
O O5 0.852519 0.500000 0.250000
O O6 0.750000 0.250000 0.288000
O O7 0.921822 0.296205 0.322603
O O8 0.783591 0.514502 0.343740
O O9 0.500000 0.500000 0.863107
O O10 0.341367 0.351110 0.894713
#
# Coordination Sequence:
#
# PCOD9497327 Si02
#       4
#    16  16  16  16
#     4  10  20  36  65  94 131 178 215 270 333 391
#     4  10  22  41  71  96 125 174 220 274 338 393
#     4   9  20  40  64  93 135 170 216 278 332 403
#     4   9  19  36  61  90 129 163 217 269 324 390
#
# _framework density 22.307870999999999
#
# number of rings (size 3 to 8) (size 9 to 14) (size 15 to 20)
#    0.000    2.500    0.000    1.500    3.500    6.500 
#    0.000    6.250   22.000   18.750    0.000    0.000 
#    0.000    0.000    0.000    0.000    0.000    0.000 
#
# Total GULP energy -178471.359138 kJ/mol
# GULP energy per Si atom -5577.229973 kJ/mol
# Density = 2.225710 g / cm^3
# Si number density = 22.307871 Si / 1000 Ang^3
#
#
#
# Elastic Constant Matrix: (Units=GPa)
#
#
# Indices 1 2 3 4 5 6 
#
# 1 159.5992 43.5274 79.3682 0.0000 0.0000 0.0000
# 2 43.5274 88.7989 77.3753 0.0000 0.0000 0.0000
# 3 79.3682 77.3753 164.8729 0.0000 0.0000 0.0000
# 4 0.0000 0.0000 0.0000 60.6947 0.0000 0.0000
# 5 0.0000 0.0000 0.0000 0.0000 62.9330 0.0000
# 6 0.0000 0.0000 0.0000 0.0000 0.0000 31.4450
#
#
#
# Elastic Compliance Matrix: (Units=1/GPa)
#
#
# Indices 1 2 3 4 5 6 
#
# 1 0.008289 -0.000992 -0.003525 0.000000 0.000000 0.000000
# 2 -0.000992 0.019171 -0.008520 0.000000 0.000000 0.000000
# 3 -0.003525 -0.008520 0.011760 0.000000 0.000000 0.000000
# 4 0.000000 0.000000 0.000000 0.016476 0.000000 0.000000
# 5 0.000000 0.000000 0.000000 0.000000 0.015890 0.000000
# 6 0.000000 0.000000 0.000000 0.000000 0.000000 0.031802
#
#
# Mechanical properties :
#
#
# Convention : Reuss Voigt Hill
#
# Bulk Modulus (GPa) = 76.05637 90.42364 83.24000
# Shear Modulus (GPa) = 37.35710 45.21456 41.28583
#
# Velocity S-wave (km/s) = 4.09665 4.50693 4.30668
# Velocity P-wave (km/s) = 7.51962 8.22834 7.88195
#
# Compressibility (1/GPa) = 0.01314814
#
# Stress axis : x y z
#
# Youngs Moduli (GPa) = 120.64080 52.16154 85.03094
#
# Poissons Ratio (x) = 0.05173 0.29972
# Poissons Ratio (y) = 0.11964 0.72444
# Poissons Ratio (z) = 0.42524 0.44440
#
# Static dielectric constant tensor:
#      x y z
#    x 1.855180 0.000000 0.000000 
#    y 0.000000 2.278780 0.000000 
#    z 0.000000 0.000000 1.757100 
# 
# From -- ./inp_files/57680.got.cif
#   From: 2010.05.17/outbox.cif.g08.bks.cpg/sg66_29_cif.got.tgz:57680.got - 2010.06.03 17:51:23.
