data_PCOD9497147
_publ_section_title
;
Structure prediction by ZEFSAII (Michael W. Deem and Ramdas Pophale) SiO2 
 PCOD9497147
Probable space group: C C C M
;
_chemical_formula_sum "Si O2"
_cell_formula_units_Z 116
_cell_length_a 27.853223
_cell_length_b 28.102312
_cell_length_c 7.720244
_cell_angle_alpha 90.000000
_cell_angle_beta 90.000000
_cell_angle_gamma 90.000000
_cell_volume 6042.943503
_symmetry_space_group_name_H-M "C C C M"
_symmetry_group_IT_number 66
_symmetry_cell_setting 'orthorhombic'
loop_
_space_group_symop_operation_xyz
x,y,z
-x,-y,z
x,-y,1/2-z
-x,y,1/2-z
-x,-y,-z
x,y,-z
-x,y,1/2+z
x,-y,1/2+z
1/2+x,1/2+y,z
1/2-x,1/2-y,z
1/2+x,1/2-y,1/2-z
1/2-x,1/2+y,1/2-z
1/2-x,1/2-y,-z
1/2+x,1/2+y,-z
1/2-x,1/2+y,1/2+z
1/2+x,1/2-y,1/2+z
loop_
_atom_site_type_symbol
_atom_site_label
_atom_site_fract_x
_atom_site_fract_y
_atom_site_fract_z
Si Si1 0.000000 0.500000 0.750000
Si Si2 0.255624 0.366534 0.711002
Si Si3 0.677598 0.209619 0.789979
Si Si4 0.572832 0.925497 0.296665
Si Si5 0.052027 0.216018 0.795279
Si Si6 0.318281 0.945162 0.207763
Si Si7 0.154750 0.815370 0.207035
Si Si8 0.926718 0.679109 0.798933
O O1 0.961122 0.539496 0.810835
O O2 0.256644 0.370313 0.500000
O O3 0.224997 0.319339 0.754520
O O4 0.224008 0.410875 0.774722
O O5 0.309972 0.356863 0.771593
O O6 0.673966 0.263967 0.729556
O O7 0.630877 0.183045 0.718813
O O8 0.674104 0.209256 0.000000
O O9 0.569350 0.940133 0.500000
O O10 0.627906 0.931060 0.235169
O O11 0.558420 0.870284 0.285948
O O12 0.098071 0.185288 0.742046
O O13 0.055869 0.270228 0.721668
O O14 0.000000 0.196129 0.750000
O O15 0.055609 0.221310 0.000000
O O16 0.309568 0.000000 0.250000
O O17 0.319423 0.939345 0.000000
O O18 0.159894 0.814655 0.000000
O O19 0.940423 0.676513 0.000000
#
# Coordination Sequence:
#
# PCOD9497147 Si02
#       8
#     4  16  16  16  16  16  16  16
#     4  12  26  40  52  74  90 120 172 238 280 308
#     4   9  16  29  50  75  99 128 164 204 250 304
#     4   9  15  28  49  73  99 129 162 199 245 301
#     4  11  23  39  55  69  91 125 167 219 273 317
#     4  10  21  36  51  72 102 136 169 203 243 290
#     4  10  20  36  54  72  96 128 168 212 259 311
#     4   9  17  29  50  76 101 129 164 203 245 298
#     4  10  21  34  50  72  96 125 165 210 253 302
#
# _framework density 19.195941999999999
#
# number of rings (size 3 to 8) (size 9 to 14) (size 15 to 20)
#    0.000    2.207    2.069    1.448    0.966    4.966 
#    0.000    1.379    0.000    3.310    0.000    0.000 
#    0.000    0.552    0.000    6.345    0.000    1.931 
#
# Total GULP energy -323402.243945 kJ/mol
# GULP energy per Si atom -5575.900758 kJ/mol
# Density = 1.915225 g / cm^3
# Si number density = 19.195942 Si / 1000 Ang^3
#
#
#
# Elastic Constant Matrix: (Units=GPa)
#
#
# Indices 1 2 3 4 5 6 
#
# 1 156.1162 72.3599 6.1203 0.0000 0.0000 0.0000
# 2 72.3599 69.7000 10.2008 0.0000 0.0000 0.0000
# 3 6.1203 10.2008 39.4699 0.0000 0.0000 0.0000
# 4 0.0000 0.0000 0.0000 15.2384 0.0000 0.0000
# 5 0.0000 0.0000 0.0000 0.0000 -28.0044 0.0000
# 6 0.0000 0.0000 0.0000 0.0000 0.0000 -14.9598
#
#
#
# Elastic Compliance Matrix: (Units=1/GPa)
#
#
# Indices 1 2 3 4 5 6 
#
# 1 0.012427 -0.013115 0.001463 0.000000 0.000000 0.000000
# 2 -0.013115 0.028753 -0.005397 0.000000 0.000000 0.000000
# 3 0.001463 -0.005397 0.026504 0.000000 0.000000 0.000000
# 4 0.000000 0.000000 0.000000 0.065624 0.000000 0.000000
# 5 0.000000 0.000000 0.000000 0.000000 -0.035709 0.000000
# 6 0.000000 0.000000 0.000000 0.000000 0.000000 -0.066846
#
#
# Mechanical properties :
#
#
# Convention : Reuss Voigt Hill
#
# Bulk Modulus (GPa) = 29.77635 49.18315 39.47975
# Shear Modulus (GPa) = 65.74745 6.22850 35.98797
#
# Velocity S-wave (km/s) = 5.85876 1.80326 4.33456
# Velocity P-wave (km/s) = 7.83021 5.47840 6.75741
#
# Compressibility (1/GPa) = 0.03358370
#
# Stress axis : x y z
#
# Youngs Moduli (GPa) = 80.46895 34.77889 37.73032
#
# Poissons Ratio (x) = 0.45614 -0.05519
# Poissons Ratio (y) = 1.05539 0.20365
# Poissons Ratio (z) = -0.11770 0.18772
#
# Static dielectric constant tensor:
#      x y z
#    x 1.736130 0.000000 0.000000 
#    y 0.000000 1.664300 0.000000 
#    z 0.000000 0.000000 1.737030 
# 
# From -- ./inp_files/9661.got.cif
#   From: 2010.05.17/outbox.cif.g08.bks.cpg/sg66_5_cif.got.tgz:9661.got - 2010.06.03 17:51:23.
