data_PCOD9497331
_publ_section_title
;
Structure prediction by ZEFSAII (Michael W. Deem and Ramdas Pophale) SiO2 
 PCOD9497331
Probable space group: C C C M
;
_chemical_formula_sum "Si O2"
_cell_formula_units_Z 116
_cell_length_a 9.998236
_cell_length_b 22.210387
_cell_length_c 26.115976
_cell_angle_alpha 90.000000
_cell_angle_beta 90.000000
_cell_angle_gamma 90.000000
_cell_volume 5799.436137
_symmetry_space_group_name_H-M "C C C M"
_symmetry_group_IT_number 66
_symmetry_cell_setting 'orthorhombic'
loop_
_space_group_symop_operation_xyz
x,y,z
-x,-y,z
x,-y,1/2-z
-x,y,1/2-z
-x,-y,-z
x,y,-z
-x,y,1/2+z
x,-y,1/2+z
1/2+x,1/2+y,z
1/2-x,1/2-y,z
1/2+x,1/2-y,1/2-z
1/2-x,1/2+y,1/2-z
1/2-x,1/2-y,-z
1/2+x,1/2+y,-z
1/2-x,1/2+y,1/2+z
1/2+x,1/2-y,1/2+z
loop_
_atom_site_type_symbol
_atom_site_label
_atom_site_fract_x
_atom_site_fract_y
_atom_site_fract_z
Si Si1 0.874750 0.875039 0.787771
Si Si2 0.947859 0.181431 0.608389
Si Si3 0.197158 0.591738 0.800984
Si Si4 0.646525 0.491085 0.358988
Si Si5 0.736328 0.091883 0.560249
Si Si6 0.000000 0.500000 0.750000
Si Si7 0.519622 0.190262 0.440810
Si Si8 0.259573 0.818543 0.114835
O O1 0.894114 0.828193 0.833855
O O2 0.748744 0.874881 0.749967
O O3 0.867258 0.939165 0.816335
O O4 0.000000 0.871020 0.750000
O O5 0.859359 0.137104 0.573412
O O6 0.938644 0.250580 0.590883
O O7 0.105392 0.163403 0.605667
O O8 0.308560 0.550410 0.829049
O O9 0.086756 0.543958 0.785076
O O10 0.166851 0.641547 0.842877
O O11 0.500000 0.500000 0.382519
O O12 0.744816 0.465386 0.402558
O O13 0.734982 0.076809 0.500000
O O14 0.604623 0.131164 0.573150
O O15 0.548977 0.202993 0.500000
O O16 0.360933 0.181204 0.432713
O O17 0.250000 0.750000 0.133574
#
# Coordination Sequence:
#
# PCOD9497331 Si02
#       8
#    16  16  16  16  16   4  16  16
#     4  11  19  36  63  88 119 154 209 261 320 374
#     4  10  20  36  66  95 117 168 219 266 321 390
#     4  12  23  40  59  90 126 165 219 262 314 393
#     4  11  21  36  63  90 114 164 208 269 323 384
#     4  10  22  39  60  92 126 158 209 270 332 386
#     4  12  28  36  62  96 126 188 216 260 324 396
#     4  10  22  41  64  89 131 178 213 268 338 399
#     4  10  23  41  62  91 127 169 216 269 323 390
#
# _framework density 20.001944999999999
#
# number of rings (size 3 to 8) (size 9 to 14) (size 15 to 20)
#    0.000    1.379    4.138    1.655    1.931    4.414 
#    0.000    6.207    0.000    1.655    0.000    0.000 
#    0.000    0.000    0.000    0.000    0.000    0.000 
#
# Total GULP energy -323669.752521 kJ/mol
# GULP energy per Si atom -5580.512975 kJ/mol
# Density = 1.995642 g / cm^3
# Si number density = 20.001945 Si / 1000 Ang^3
#
#
#
# Elastic Constant Matrix: (Units=GPa)
#
#
# Indices 1 2 3 4 5 6 
#
# 1 63.8219 15.4621 11.1863 0.0000 0.0000 0.0000
# 2 15.4621 41.8918 28.1703 0.0000 0.0000 0.0000
# 3 11.1863 28.1703 87.0536 0.0000 0.0000 0.0000
# 4 0.0000 0.0000 0.0000 24.8237 0.0000 0.0000
# 5 0.0000 0.0000 0.0000 0.0000 15.3655 0.0000
# 6 0.0000 0.0000 0.0000 0.0000 0.0000 9.2525
#
#
#
# Elastic Compliance Matrix: (Units=1/GPa)
#
#
# Indices 1 2 3 4 5 6 
#
# 1 0.017210 -0.006218 -0.000199 0.000000 0.000000 0.000000
# 2 -0.006218 0.032757 -0.009801 0.000000 0.000000 0.000000
# 3 -0.000199 -0.009801 0.014684 0.000000 0.000000 0.000000
# 4 0.000000 0.000000 0.000000 0.040284 0.000000 0.000000
# 5 0.000000 0.000000 0.000000 0.000000 0.065081 0.000000
# 6 0.000000 0.000000 0.000000 0.000000 0.000000 0.108079
#
#
# Mechanical properties :
#
#
# Convention : Reuss Voigt Hill
#
# Bulk Modulus (GPa) = 31.04206 33.60052 32.32129
# Shear Modulus (GPa) = 15.56325 19.08492 17.32408
#
# Velocity S-wave (km/s) = 2.79245 3.09229 2.94618
# Velocity P-wave (km/s) = 5.09414 5.43919 5.26949
#
# Compressibility (1/GPa) = 0.03221436
#
# Stress axis : x y z
#
# Youngs Moduli (GPa) = 58.10581 30.52803 68.09974
#
# Poissons Ratio (x) = 0.18983 0.01357
# Poissons Ratio (y) = 0.36131 0.66744
# Poissons Ratio (z) = 0.01158 0.29920
#
# Static dielectric constant tensor:
#      x y z
#    x 1.817990 0.000000 0.000000 
#    y 0.000000 1.707370 0.000000 
#    z 0.000000 0.000000 1.694440 
# 
# From -- ./inp_files/62888.got.cif
#   From: 2010.05.17/outbox.cif.g08.bks.cpg/sg66_32_cif.got.tgz:62888.got - 2010.06.03 17:51:23.
