data_PCOD9497918
_publ_section_title
;
Structure prediction by ZEFSAII (Michael W. Deem and Ramdas Pophale) SiO2 
 PCOD9497918
Probable space group: C C C M
;
_chemical_formula_sum "Si O2"
_cell_formula_units_Z 104
_cell_length_a 24.116560
_cell_length_b 9.134280
_cell_length_c 25.717435
_cell_angle_alpha 90.000000
_cell_angle_beta 90.000000
_cell_angle_gamma 90.000000
_cell_volume 5665.227191
_symmetry_space_group_name_H-M "C C C M"
_symmetry_group_IT_number 66
_symmetry_cell_setting 'orthorhombic'
loop_
_space_group_symop_operation_xyz
x,y,z
-x,-y,z
x,-y,1/2-z
-x,y,1/2-z
-x,-y,-z
x,y,-z
-x,y,1/2+z
x,-y,1/2+z
1/2+x,1/2+y,z
1/2-x,1/2-y,z
1/2+x,1/2-y,1/2-z
1/2-x,1/2+y,1/2-z
1/2-x,1/2-y,-z
1/2+x,1/2+y,-z
1/2-x,1/2+y,1/2+z
1/2+x,1/2-y,1/2+z
loop_
_atom_site_type_symbol
_atom_site_label
_atom_site_fract_x
_atom_site_fract_y
_atom_site_fract_z
Si Si1 0.371709 0.274657 0.830246
Si Si2 0.961546 0.139786 0.939979
Si Si3 0.400213 0.268313 0.287218
Si Si4 0.648686 0.564194 0.386837
Si Si5 0.750000 0.750000 0.376813
Si Si6 0.684969 0.021352 0.194363
Si Si7 0.502912 0.174531 0.653388
O O1 0.382635 0.321988 0.769937
O O2 0.346840 0.396465 0.868577
O O3 0.433673 0.227022 0.846728
O O4 0.331570 0.134336 0.828754
O O5 0.899386 0.087444 0.928548
O O6 0.976036 0.270130 0.900558
O O7 0.969828 0.179130 0.000000
O O8 0.000000 0.000000 0.927148
O O9 0.373224 0.363042 0.332977
O O10 0.371839 0.108919 0.293305
O O11 0.464813 0.249087 0.301724
O O12 0.702441 0.655201 0.404485
O O13 0.720250 0.872805 0.341600
O O14 0.714290 0.000000 0.250000
O O15 0.500000 0.000000 0.659158
#
# Coordination Sequence:
#
# PCOD9497918 Si02
#       7
#    16  16  16  16   8  16  16
#     4  11  19  31  51  83 112 154 190 223 268 330
#     4  10  21  40  62  85 110 141 181 232 294 353
#     4   9  19  31  48  77 120 152 184 223 267 326
#     4  10  21  37  55  81 108 148 190 233 280 334
#     4  10  22  38  53  74 110 148 190 246 281 322
#     4   9  19  32  49  73 106 151 195 226 265 312
#     4  11  20  32  54  83 119 150 185 223 280 339
#
# _framework density 18.357603999999998
#
# number of rings (size 3 to 8) (size 9 to 14) (size 15 to 20)
#    0.000    2.000    3.077    0.923    0.000    5.231 
#    0.000    1.923    0.000    0.000    0.000    1.077 
#    0.000    0.000    0.000    0.000    0.000    0.000 
#
# Total GULP energy -289905.034757 kJ/mol
# GULP energy per Si atom -5575.096822 kJ/mol
# Density = 1.831582 g / cm^3
# Si number density = 18.357604 Si / 1000 Ang^3
#
#
#
# Elastic Constant Matrix: (Units=GPa)
#
#
# Indices 1 2 3 4 5 6 
#
# 1 86.0228 17.4572 -1.4514 0.0000 0.0000 0.0000
# 2 17.4572 61.2699 -9.4940 0.0000 0.0000 0.0000
# 3 -1.4514 -9.4940 18.5024 0.0000 0.0000 0.0000
# 4 0.0000 0.0000 0.0000 12.0726 0.0000 0.0000
# 5 0.0000 0.0000 0.0000 0.0000 -6.6761 0.0000
# 6 0.0000 0.0000 0.0000 0.0000 0.0000 23.9562
#
#
#
# Elastic Compliance Matrix: (Units=1/GPa)
#
#
# Indices 1 2 3 4 5 6 
#
# 1 0.012352 -0.003660 -0.000909 0.000000 0.000000 0.000000
# 2 -0.003660 0.018816 0.009368 0.000000 0.000000 0.000000
# 3 -0.000909 0.009368 0.058782 0.000000 0.000000 0.000000
# 4 0.000000 0.000000 0.000000 0.082832 0.000000 0.000000
# 5 0.000000 0.000000 0.000000 0.000000 -0.149788 0.000000
# 6 0.000000 0.000000 0.000000 0.000000 0.000000 0.041743
#
#
# Mechanical properties :
#
#
# Convention : Reuss Voigt Hill
#
# Bulk Modulus (GPa) = 10.04557 19.86875 14.95716
# Shear Modulus (GPa) = 56.61039 16.48943 36.54991
#
# Velocity S-wave (km/s) = 5.55918 3.00031 4.46690
# Velocity P-wave (km/s) = 6.83301 4.78008 5.89657
#
# Compressibility (1/GPa) = 0.09954635
#
# Stress axis : x y z
#
# Youngs Moduli (GPa) = 80.95654 53.14712 17.01192
#
# Poissons Ratio (x) = 0.19454 0.01547
# Poissons Ratio (y) = 0.29633 -0.15936
# Poissons Ratio (z) = 0.07361 -0.49786
#
# Static dielectric constant tensor:
#      x y z
#    x 1.666760 0.000000 0.000000 
#    y 0.000000 1.663880 0.000000 
#    z 0.000000 0.000000 1.609320 
# 
# From -- ./inp_files/62672.got.cif
#   From: 2010.05.17/outbox.cif.g08.bks.cpg/sg66_32_cif.got.tgz:62672.got - 2010.06.03 17:51:23.
