data_PCOD9497608
_publ_section_title
;
Structure prediction by ZEFSAII (Michael W. Deem and Ramdas Pophale) SiO2 
 PCOD9497608
Probable space group: C C C M
;
_chemical_formula_sum "Si O2"
_cell_formula_units_Z 80
_cell_length_a 13.096753
_cell_length_b 14.491914
_cell_length_c 22.298235
_cell_angle_alpha 90.000000
_cell_angle_beta 90.000000
_cell_angle_gamma 90.000000
_cell_volume 4232.138513
_symmetry_space_group_name_H-M "C C C M"
_symmetry_group_IT_number 66
_symmetry_cell_setting 'orthorhombic'
loop_
_space_group_symop_operation_xyz
x,y,z
-x,-y,z
x,-y,1/2-z
-x,y,1/2-z
-x,-y,-z
x,y,-z
-x,y,1/2+z
x,-y,1/2+z
1/2+x,1/2+y,z
1/2-x,1/2-y,z
1/2+x,1/2-y,1/2-z
1/2-x,1/2+y,1/2-z
1/2-x,1/2-y,-z
1/2+x,1/2+y,-z
1/2-x,1/2+y,1/2+z
1/2+x,1/2-y,1/2+z
loop_
_atom_site_type_symbol
_atom_site_label
_atom_site_fract_x
_atom_site_fract_y
_atom_site_fract_z
Si Si1 0.510381 0.791520 0.168985
Si Si2 0.177046 0.165499 0.339490
Si Si3 0.142533 0.394516 0.266911
Si Si4 0.122803 0.004001 0.430278
Si Si5 0.140568 0.202855 0.068308
O O1 0.433509 0.704911 0.179489
O O2 0.596065 0.825303 0.216656
O O3 0.428419 0.874433 0.174778
O O4 0.565838 0.764096 0.108261
O O5 0.250000 0.250000 0.361917
O O6 0.241651 0.128083 0.283281
O O7 0.162681 0.085874 0.388452
O O8 0.130898 0.500000 0.250000
O O9 0.154021 0.016819 0.500000
O O10 0.154861 0.901838 0.408937
O O11 0.000000 0.000000 0.428411
O O12 0.250000 0.250000 0.067488
O O13 0.100961 0.195040 0.000000
#
# Coordination Sequence:
#
# PCOD9497608 Si02
#       5
#    16  16  16  16  16
#     4  10  20  39  63  82 123 158 201 254 300 360
#     4  10  22  40  60  92 122 153 210 250 303 370
#     4  10  23  42  61  86 120 169 211 249 311 365
#     4  10  20  39  64  91 125 161 201 252 309 365
#     4  10  22  38  63  96 125 161 204 251 313 370
#
# _framework density 18.902974
#
# number of rings (size 3 to 8) (size 9 to 14) (size 15 to 20)
#    0.000    2.000    2.000    1.200    2.800    4.400 
#    0.000    3.000    0.000    2.400    0.000    0.000 
#    0.000    0.000    0.000    0.000    0.000    0.000 
#
# Total GULP energy -222717.859317 kJ/mol
# GULP energy per Si atom -5567.946483 kJ/mol
# Density = 1.885995 g / cm^3
# Si number density = 18.902974 Si / 1000 Ang^3
#
#
#
# Elastic Constant Matrix: (Units=GPa)
#
#
# Indices 1 2 3 4 5 6 
#
# 1 86.4544 36.6076 43.8802 0.0000 0.0000 0.0000
# 2 36.6076 146.3683 64.0355 0.0000 0.0000 0.0000
# 3 43.8802 64.0355 76.7279 0.0000 0.0000 0.0000
# 4 0.0000 0.0000 0.0000 38.9977 0.0000 0.0000
# 5 0.0000 0.0000 0.0000 0.0000 6.6115 0.0000
# 6 0.0000 0.0000 0.0000 0.0000 0.0000 22.2066
#
#
#
# Elastic Compliance Matrix: (Units=1/GPa)
#
#
# Indices 1 2 3 4 5 6 
#
# 1 0.016297 0.000002 -0.009322 0.000000 0.000000 0.000000
# 2 0.000002 0.010761 -0.008983 0.000000 0.000000 0.000000
# 3 -0.009322 -0.008983 0.025861 0.000000 0.000000 0.000000
# 4 0.000000 0.000000 0.000000 0.025643 0.000000 0.000000
# 5 0.000000 0.000000 0.000000 0.000000 0.151252 0.000000
# 6 0.000000 0.000000 0.000000 0.000000 0.000000 0.045032
#
#
# Mechanical properties :
#
#
# Convention : Reuss Voigt Hill
#
# Bulk Modulus (GPa) = 61.29408 66.51081 63.90244
# Shear Modulus (GPa) = 15.77841 24.56498 20.17169
#
# Velocity S-wave (km/s) = 2.89226 3.60881 3.27022
# Velocity P-wave (km/s) = 6.60678 7.25441 6.93816
#
# Compressibility (1/GPa) = 0.01631479
#
# Stress axis : x y z
#
# Youngs Moduli (GPa) = 61.35963 92.92560 38.66805
#
# Poissons Ratio (x) = -0.00023 0.36048
# Poissons Ratio (y) = -0.00015 0.34734
# Poissons Ratio (z) = 0.57202 0.83471
#
# Static dielectric constant tensor:
#      x y z
#    x 1.679140 0.000000 0.000000 
#    y 0.000000 1.674370 0.000000 
#    z 0.000000 0.000000 1.686000 
# 
# From -- ./inp_files/56613.got.cif
#   From: 2010.05.17/outbox.cif.g08.bks.cpg/sg66_29_cif.got.tgz:56613.got - 2010.06.03 17:51:23.
