data_PCOD9497900
_publ_section_title
;
Structure prediction by ZEFSAII (Michael W. Deem and Ramdas Pophale) SiO2 
 PCOD9497900
Probable space group: C C C M
;
_chemical_formula_sum "Si O2"
_cell_formula_units_Z 112
_cell_length_a 14.509717
_cell_length_b 16.419906
_cell_length_c 24.505102
_cell_angle_alpha 90.000000
_cell_angle_beta 90.000000
_cell_angle_gamma 90.000000
_cell_volume 5838.296178
_symmetry_space_group_name_H-M "C C C M"
_symmetry_group_IT_number 66
_symmetry_cell_setting 'orthorhombic'
loop_
_space_group_symop_operation_xyz
x,y,z
-x,-y,z
x,-y,1/2-z
-x,y,1/2-z
-x,-y,-z
x,y,-z
-x,y,1/2+z
x,-y,1/2+z
1/2+x,1/2+y,z
1/2-x,1/2-y,z
1/2+x,1/2-y,1/2-z
1/2-x,1/2+y,1/2-z
1/2-x,1/2-y,-z
1/2+x,1/2+y,-z
1/2-x,1/2+y,1/2+z
1/2+x,1/2-y,1/2+z
loop_
_atom_site_type_symbol
_atom_site_label
_atom_site_fract_x
_atom_site_fract_y
_atom_site_fract_z
Si Si1 0.595029 0.050896 0.560346
Si Si2 0.857298 0.226816 0.696787
Si Si3 0.084340 0.630691 0.782374
Si Si4 0.216056 0.458537 0.355959
Si Si5 0.988665 0.299293 0.610429
Si Si6 0.670781 0.185078 0.939978
Si Si7 0.899147 0.033950 0.689655
O O1 0.636839 0.039735 0.500000
O O2 0.564176 0.142796 0.569176
O O3 0.500000 0.000000 0.562650
O O4 0.655555 0.025832 0.612408
O O5 0.750000 0.250000 0.690427
O O6 0.889235 0.287191 0.747362
O O7 0.914593 0.247744 0.642541
O O8 0.880512 0.130668 0.700234
O O9 0.170177 0.574244 0.799411
O O10 0.000000 0.590895 0.750000
O O11 0.037973 0.651971 0.840154
O O12 0.206184 0.383011 0.397869
O O13 0.316901 0.494428 0.345665
O O14 0.078543 0.268226 0.579265
O O15 0.750000 0.250000 0.943368
O O16 0.652758 0.148746 0.000000
O O17 0.890896 0.000000 0.750000
O O18 0.000000 0.000000 0.669969
#
# Coordination Sequence:
#
# PCOD9497900 Si02
#       7
#    16  16  16  16  16  16  16
#     4  11  20  36  62  95 127 151 191 256 328 390
#     4  11  23  42  61  85 128 171 216 260 305 372
#     4   9  20  35  59  89 122 160 200 256 308 372
#     4  11  22  40  63  92 122 164 202 256 318 376
#     4  10  21  36  62  88 118 160 204 248 313 379
#     4  10  21  36  61  93 119 149 197 258 317 371
#     4  11  27  42  63  90 128 175 223 260 306 374
#
# _framework density 19.183679000000001
#
# number of rings (size 3 to 8) (size 9 to 14) (size 15 to 20)
#    0.000    1.571    2.857    2.571    8.000    4.571 
#    0.000    2.143    0.000   11.143    0.000    0.000 
#    0.000    0.000    0.000    0.000    0.000    0.000 
#
# Total GULP energy -311748.016980 kJ/mol
# GULP energy per Si atom -5566.928875 kJ/mol
# Density = 1.914002 g / cm^3
# Si number density = 19.183679 Si / 1000 Ang^3
#
#
#
# Elastic Constant Matrix: (Units=GPa)
#
#
# Indices 1 2 3 4 5 6 
#
# 1 135.5923 47.5363 51.8102 0.0000 0.0000 0.0000
# 2 47.5363 89.2564 33.9933 0.0000 0.0000 0.0000
# 3 51.8102 33.9933 91.1215 0.0000 0.0000 0.0000
# 4 0.0000 0.0000 0.0000 2.9533 0.0000 0.0000
# 5 0.0000 0.0000 0.0000 0.0000 22.7445 0.0000
# 6 0.0000 0.0000 0.0000 0.0000 0.0000 27.5803
#
#
#
# Elastic Compliance Matrix: (Units=1/GPa)
#
#
# Indices 1 2 3 4 5 6 
#
# 1 0.010445 -0.003848 -0.004503 0.000000 0.000000 0.000000
# 2 -0.003848 0.014476 -0.003213 0.000000 0.000000 0.000000
# 3 -0.004503 -0.003213 0.014733 0.000000 0.000000 0.000000
# 4 0.000000 0.000000 0.000000 0.338600 0.000000 0.000000
# 5 0.000000 0.000000 0.000000 0.000000 0.043967 0.000000
# 6 0.000000 0.000000 0.000000 0.000000 0.000000 0.036258
#
#
# Mechanical properties :
#
#
# Convention : Reuss Voigt Hill
#
# Bulk Modulus (GPa) = 60.50667 64.73887 62.62277
# Shear Modulus (GPa) = 10.26450 22.83097 16.54774
#
# Velocity S-wave (km/s) = 2.31566 3.45356 2.94018
# Velocity P-wave (km/s) = 6.22566 7.05145 6.65138
#
# Compressibility (1/GPa) = 0.01652710
#
# Stress axis : x y z
#
# Youngs Moduli (GPa) = 95.74258 69.07779 67.87281
#
# Poissons Ratio (x) = 0.26578 0.30565
# Poissons Ratio (y) = 0.36837 0.21806
# Poissons Ratio (z) = 0.43116 0.22194
#
# Static dielectric constant tensor:
#      x y z
#    x 1.769260 0.000000 0.000000 
#    y 0.000000 1.690870 0.000000 
#    z 0.000000 0.000000 1.688390 
# 
# From -- ./inp_files/58221.got.cif
#   From: 2010.05.17/outbox.cif.g08.bks.cpg/sg66_30_cif.got.tgz:58221.got - 2010.06.03 17:51:23.
