data_PCOD9497782
_publ_section_title
;
Structure prediction by ZEFSAII (Michael W. Deem and Ramdas Pophale) SiO2 
 PCOD9497782
Probable space group: C C C M
;
_chemical_formula_sum "Si O2"
_cell_formula_units_Z 116
_cell_length_a 23.321902
_cell_length_b 29.467912
_cell_length_c 9.248542
_cell_angle_alpha 90.000000
_cell_angle_beta 90.000000
_cell_angle_gamma 90.000000
_cell_volume 6356.039734
_symmetry_space_group_name_H-M "C C C M"
_symmetry_group_IT_number 66
_symmetry_cell_setting 'orthorhombic'
loop_
_space_group_symop_operation_xyz
x,y,z
-x,-y,z
x,-y,1/2-z
-x,y,1/2-z
-x,-y,-z
x,y,-z
-x,y,1/2+z
x,-y,1/2+z
1/2+x,1/2+y,z
1/2-x,1/2-y,z
1/2+x,1/2-y,1/2-z
1/2-x,1/2+y,1/2-z
1/2-x,1/2-y,-z
1/2+x,1/2+y,-z
1/2-x,1/2+y,1/2+z
1/2+x,1/2-y,1/2+z
loop_
_atom_site_type_symbol
_atom_site_label
_atom_site_fract_x
_atom_site_fract_y
_atom_site_fract_z
Si Si1 0.943570 0.149200 0.328904
Si Si2 0.942366 0.345841 0.172338
Si Si3 0.000000 0.500000 0.750000
Si Si4 0.193970 0.779548 0.837462
Si Si5 0.411161 0.246930 0.828903
Si Si6 0.898653 0.571313 0.166999
Si Si7 0.232778 0.455338 0.170296
Si Si8 0.186630 0.870478 0.674105
O O1 0.951492 0.145075 0.500000
O O2 0.937947 0.203454 0.297054
O O3 0.881931 0.126545 0.293682
O O4 0.000000 0.131436 0.250000
O O5 0.932060 0.295826 0.236839
O O6 0.900647 0.385440 0.226602
O O7 0.000000 0.361723 0.250000
O O8 0.946111 0.344135 0.000000
O O9 0.952351 0.535736 0.816791
O O10 0.250000 0.750000 0.850369
O O11 0.153348 0.754709 0.723091
O O12 0.206858 0.828203 0.769423
O O13 0.167849 0.783446 0.000000
O O14 0.417179 0.237993 0.000000
O O15 0.835620 0.550569 0.194910
O O16 0.900126 0.587203 0.000000
O O17 0.252926 0.500000 0.250000
O O18 0.272735 0.412687 0.209414
O O19 0.239535 0.461477 0.000000
O O20 0.190831 0.861439 0.500000
#
# Coordination Sequence:
#
# PCOD9497782 Si02
#       8
#    16  16   4  16  16  16  16  16
#     4   9  18  33  56  85 114 149 190 232 281 338
#     4  12  25  39  56  81 114 150 192 243 295 348
#     4  12  22  40  68  86 114 144 196 252 306 360
#     4  10  21  35  52  81 116 152 195 243 290 341
#     4  10  21  37  56  79 113 155 196 237 288 348
#     4  11  24  40  60  86 113 149 193 243 302 360
#     4  10  22  41  63  88 115 149 194 242 299 361
#     4   9  20  38  58  83 116 155 196 239 290 359
#
# _framework density 18.250359
#
# number of rings (size 3 to 8) (size 9 to 14) (size 15 to 20)
#    0.000    1.793    1.379    3.517    1.931    6.621 
#    0.000    0.000    0.000    0.414    0.000    2.897 
#    0.000    0.000    0.000    0.000    0.000    0.000 
#
# Total GULP energy -323044.852551 kJ/mol
# GULP energy per Si atom -5569.738837 kJ/mol
# Density = 1.820882 g / cm^3
# Si number density = 18.250359 Si / 1000 Ang^3
#
#
#
# Elastic Constant Matrix: (Units=GPa)
#
#
# Indices 1 2 3 4 5 6 
#
# 1 100.9572 46.6599 40.7810 0.0000 0.0000 0.0000
# 2 46.6599 72.0761 41.5130 0.0000 0.0000 0.0000
# 3 40.7810 41.5130 62.0392 0.0000 0.0000 0.0000
# 4 0.0000 0.0000 0.0000 10.9744 0.0000 0.0000
# 5 0.0000 0.0000 0.0000 0.0000 28.4916 0.0000
# 6 0.0000 0.0000 0.0000 0.0000 0.0000 15.9813
#
#
#
# Elastic Compliance Matrix: (Units=1/GPa)
#
#
# Indices 1 2 3 4 5 6 
#
# 1 0.015226 -0.006658 -0.005553 0.000000 0.000000 0.000000
# 2 -0.006658 0.025486 -0.012677 0.000000 0.000000 0.000000
# 3 -0.005553 -0.012677 0.028252 0.000000 0.000000 0.000000
# 4 0.000000 0.000000 0.000000 0.091121 0.000000 0.000000
# 5 0.000000 0.000000 0.000000 0.000000 0.035098 0.000000
# 6 0.000000 0.000000 0.000000 0.000000 0.000000 0.062573
#
#
# Mechanical properties :
#
#
# Convention : Reuss Voigt Hill
#
# Bulk Modulus (GPa) = 52.11936 54.77561 53.44748
# Shear Modulus (GPa) = 15.92720 18.16402 17.04561
#
# Velocity S-wave (km/s) = 2.95737 3.15821 3.05944
# Velocity P-wave (km/s) = 6.34676 6.58617 6.46757
#
# Compressibility (1/GPa) = 0.01918673
#
# Stress axis : x y z
#
# Youngs Moduli (GPa) = 65.67882 39.23715 35.39581
#
# Poissons Ratio (x) = 0.26125 0.19656
# Poissons Ratio (y) = 0.43730 0.44871
# Poissons Ratio (z) = 0.36473 0.49741
#
# Static dielectric constant tensor:
#      x y z
#    x 1.438960 0.000000 0.000000 
#    y 0.000000 1.647470 0.000000 
#    z 0.000000 0.000000 1.627100 
# 
# From -- ./inp_files/9594.got.cif
#   From: 2010.05.17/outbox.cif.g08.bks.cpg/sg66_5_cif.got.tgz:9594.got - 2010.06.03 17:51:23.
