data_PCOD9497334
_publ_section_title
;
Structure prediction by ZEFSAII (Michael W. Deem and Ramdas Pophale) SiO2 
 PCOD9497334
Probable space group: C C C M
;
_chemical_formula_sum "Si O2"
_cell_formula_units_Z 44
_cell_length_a 7.701010
_cell_length_b 18.959968
_cell_length_c 12.819371
_cell_angle_alpha 90.000000
_cell_angle_beta 90.000000
_cell_angle_gamma 90.000000
_cell_volume 1871.767938
_symmetry_space_group_name_H-M "C C C M"
_symmetry_group_IT_number 66
_symmetry_cell_setting 'orthorhombic'
loop_
_space_group_symop_operation_xyz
x,y,z
-x,-y,z
x,-y,1/2-z
-x,y,1/2-z
-x,-y,-z
x,y,-z
-x,y,1/2+z
x,-y,1/2+z
1/2+x,1/2+y,z
1/2-x,1/2-y,z
1/2+x,1/2-y,1/2-z
1/2-x,1/2+y,1/2-z
1/2-x,1/2-y,-z
1/2+x,1/2+y,-z
1/2-x,1/2+y,1/2+z
1/2+x,1/2-y,1/2+z
loop_
_atom_site_type_symbol
_atom_site_label
_atom_site_fract_x
_atom_site_fract_y
_atom_site_fract_z
Si Si1 0.996455 0.252440 0.500000
Si Si2 0.750000 0.750000 0.688667
Si Si3 0.000000 0.500000 0.250000
Si Si4 0.718315 0.623481 0.000000
Si Si5 0.700942 0.596019 0.771561
O O1 0.095624 0.264998 0.607937
O O2 0.848984 0.310927 0.500000
O O3 0.960221 0.168202 0.500000
O O4 0.717421 0.679986 0.754519
O O5 0.852993 0.555978 0.292102
O O6 0.736792 0.581420 0.893578
O O7 0.500000 0.577643 0.750000
#
# Coordination Sequence:
#
# PCOD9497334 Si02
#       5
#     8   8   4   8  16
#     4  10  20  36  67 111 144 176 226 296 351 412
#     4  11  22  41  72 108 144 179 238 291 350 408
#     4  12  30  50  72  98 144 192 234 286 372 414
#     4  11  22  39  68 104 139 183 235 282 359 414
#     4  12  26  47  72 105 144 188 233 297 348 427
#
# _framework density 23.507187999999999
#
# number of rings (size 3 to 8) (size 9 to 14) (size 15 to 20)
#    0.000    0.727    3.636    4.909    2.545    0.727 
#    0.000    7.273    0.000    0.000    0.000    0.000 
#    0.000    0.000    0.000    0.000    0.000    0.000 
#
# Total GULP energy -122704.606437 kJ/mol
# GULP energy per Si atom -5577.482111 kJ/mol
# Density = 2.345368 g / cm^3
# Si number density = 23.507188 Si / 1000 Ang^3
#
#
#
# Elastic Constant Matrix: (Units=GPa)
#
#
# Indices 1 2 3 4 5 6 
#
# 1 132.4253 53.7710 12.6988 0.0000 0.0000 0.0000
# 2 53.7710 136.7908 24.4625 0.0000 0.0000 0.0000
# 3 12.6988 24.4625 122.6920 0.0000 0.0000 0.0000
# 4 0.0000 0.0000 0.0000 14.9079 0.0000 0.0000
# 5 0.0000 0.0000 0.0000 0.0000 34.4989 0.0000
# 6 0.0000 0.0000 0.0000 0.0000 0.0000 20.9008
#
#
#
# Elastic Compliance Matrix: (Units=1/GPa)
#
#
# Indices 1 2 3 4 5 6 
#
# 1 0.008992 -0.003493 -0.000234 0.000000 0.000000 0.000000
# 2 -0.003493 0.008937 -0.001420 0.000000 0.000000 0.000000
# 3 -0.000234 -0.001420 0.008458 0.000000 0.000000 0.000000
# 4 0.000000 0.000000 0.000000 0.067079 0.000000 0.000000
# 5 0.000000 0.000000 0.000000 0.000000 0.028986 0.000000
# 6 0.000000 0.000000 0.000000 0.000000 0.000000 0.047845
#
#
# Mechanical properties :
#
#
# Convention : Reuss Voigt Hill
#
# Bulk Modulus (GPa) = 62.14105 63.75250 62.94678
# Shear Modulus (GPa) = 26.88795 34.12658 30.50727
#
# Velocity S-wave (km/s) = 3.38571 3.81432 3.60639
# Velocity P-wave (km/s) = 6.46346 6.82481 6.64659
#
# Compressibility (1/GPa) = 0.01609242
#
# Stress axis : x y z
#
# Youngs Moduli (GPa) = 111.20815 111.88887 118.23199
#
# Poissons Ratio (x) = 0.39081 0.02770
# Poissons Ratio (y) = 0.38843 0.16794
# Poissons Ratio (z) = 0.02606 0.15893
#
# Static dielectric constant tensor:
#      x y z
#    x 2.042780 0.000000 0.000000 
#    y 0.000000 1.883980 0.000000 
#    z 0.000000 0.000000 1.927660 
# 
# From -- ./inp_files/23473.got.cif
#   From: 2010.05.17/outbox.cif.g08.bks.cpg/sg66_12_cif.got.tgz:23473.got - 2010.06.03 17:51:23.
