data_PCOD9497020
_publ_section_title
;
Structure prediction by ZEFSAII (Michael W. Deem and Ramdas Pophale) SiO2 
 PCOD9497020
Probable space group: C C C M
;
_chemical_formula_sum "Si O2"
_cell_formula_units_Z 72
_cell_length_a 21.533446
_cell_length_b 16.716688
_cell_length_c 10.677633
_cell_angle_alpha 90.000000
_cell_angle_beta 90.000000
_cell_angle_gamma 90.000000
_cell_volume 3843.605110
_symmetry_space_group_name_H-M "C C C M"
_symmetry_group_IT_number 66
_symmetry_cell_setting 'orthorhombic'
loop_
_space_group_symop_operation_xyz
x,y,z
-x,-y,z
x,-y,1/2-z
-x,y,1/2-z
-x,-y,-z
x,y,-z
-x,y,1/2+z
x,-y,1/2+z
1/2+x,1/2+y,z
1/2-x,1/2-y,z
1/2+x,1/2-y,1/2-z
1/2-x,1/2+y,1/2-z
1/2-x,1/2-y,-z
1/2+x,1/2+y,-z
1/2-x,1/2+y,1/2+z
1/2+x,1/2-y,1/2+z
loop_
_atom_site_type_symbol
_atom_site_label
_atom_site_fract_x
_atom_site_fract_y
_atom_site_fract_z
Si Si1 0.710850 0.676612 0.753842
Si Si2 0.500000 0.663244 0.750000
Si Si3 0.107217 0.935805 0.360858
Si Si4 0.894424 0.275585 0.141313
Si Si5 0.677840 0.072358 0.152044
O O1 0.750000 0.750000 0.815138
O O2 0.663332 0.627873 0.841789
O O3 0.667259 0.722021 0.654771
O O4 0.757260 0.616255 0.684894
O O5 0.459632 0.607167 0.657926
O O6 0.448402 0.722786 0.802337
O O7 0.111122 0.971055 0.500000
O O8 0.113262 0.000000 0.250000
O O9 0.875043 0.362770 0.189646
O O10 0.911649 0.289217 0.000000
O O11 0.672862 0.000000 0.250000
O O12 0.675081 0.055772 0.000000
#
# Coordination Sequence:
#
# PCOD9497020 Si02
#       5
#    16   8  16  16  16
#     4   9  19  35  56  82 110 143 183 224 266 317
#     4  10  21  38  59  78 104 142 188 232 271 316
#     4  11  24  38  56  84 115 147 181 222 273 324
#     4   9  18  35  57  79 105 141 185 227 268 321
#     4  10  20  35  56  82 111 143 179 222 273 325
#
# _framework density 18.732413000000001
#
# number of rings (size 3 to 8) (size 9 to 14) (size 15 to 20)
#    0.000    2.222    0.000    2.333    0.000   12.000 
#    0.000   10.556    0.000    2.667    0.000    0.000 
#    0.000    0.000    0.000    0.000    0.000    0.000 
#
# Total GULP energy -200412.691142 kJ/mol
# GULP energy per Si atom -5567.019198 kJ/mol
# Density = 1.868978 g / cm^3
# Si number density = 18.732413 Si / 1000 Ang^3
#
#
#
# Elastic Constant Matrix: (Units=GPa)
#
#
# Indices 1 2 3 4 5 6 
#
# 1 78.5534 35.9028 26.4625 0.0000 0.0000 0.0000
# 2 35.9028 118.4873 61.5974 0.0000 0.0000 0.0000
# 3 26.4625 61.5974 100.9982 0.0000 0.0000 0.0000
# 4 0.0000 0.0000 0.0000 23.3036 0.0000 0.0000
# 5 0.0000 0.0000 0.0000 0.0000 -0.5833 0.0000
# 6 0.0000 0.0000 0.0000 0.0000 0.0000 21.8412
#
#
#
# Elastic Compliance Matrix: (Units=1/GPa)
#
#
# Indices 1 2 3 4 5 6 
#
# 1 0.014972 -0.003657 -0.001693 0.000000 0.000000 0.000000
# 2 -0.003657 0.013251 -0.007124 0.000000 0.000000 0.000000
# 3 -0.001693 -0.007124 0.014689 0.000000 0.000000 0.000000
# 4 0.000000 0.000000 0.000000 0.042912 0.000000 0.000000
# 5 0.000000 0.000000 0.000000 0.000000 -1.714434 0.000000
# 6 0.000000 0.000000 0.000000 0.000000 0.000000 0.045785
#
#
# Mechanical properties :
#
#
# Convention : Reuss Voigt Hill
#
# Bulk Modulus (GPa) = 55.65965 60.66268 58.16117
# Shear Modulus (GPa) = -3.22188 20.51738 8.64775
#
# Velocity S-wave (km/s) = -1.31289 3.31310 2.15093
# Velocity P-wave (km/s) = 5.24207 6.86219 6.10610
#
# Compressibility (1/GPa) = 0.01796634
#
# Stress axis : x y z
#
# Youngs Moduli (GPa) = 66.79292 75.46603 68.07734
#
# Poissons Ratio (x) = 0.27595 0.11523
# Poissons Ratio (y) = 0.24424 0.48495
# Poissons Ratio (z) = 0.11305 0.53758
#
# Static dielectric constant tensor:
#      x y z
#    x 1.749240 0.000000 0.000000 
#    y 0.000000 1.713550 0.000000 
#    z 0.000000 0.000000 1.643820 
# 
# From -- ./inp_files/19626.got.cif
#   From: 2010.05.17/outbox.cif.g08.bks.cpg/sg66_10_cif.got.tgz:19626.got - 2010.06.03 17:51:23.
