data_PCOD9497806
_publ_section_title
;
Structure prediction by ZEFSAII (Michael W. Deem and Ramdas Pophale) SiO2 
 PCOD9497806
Probable space group: C C C M
;
_chemical_formula_sum "Si O2"
_cell_formula_units_Z 96
_cell_length_a 23.452757
_cell_length_b 14.404897
_cell_length_c 14.365380
_cell_angle_alpha 90.000000
_cell_angle_beta 90.000000
_cell_angle_gamma 90.000000
_cell_volume 4853.121673
_symmetry_space_group_name_H-M "C C C M"
_symmetry_group_IT_number 66
_symmetry_cell_setting 'orthorhombic'
loop_
_space_group_symop_operation_xyz
x,y,z
-x,-y,z
x,-y,1/2-z
-x,y,1/2-z
-x,-y,-z
x,y,-z
-x,y,1/2+z
x,-y,1/2+z
1/2+x,1/2+y,z
1/2-x,1/2-y,z
1/2+x,1/2-y,1/2-z
1/2-x,1/2+y,1/2-z
1/2-x,1/2-y,-z
1/2+x,1/2+y,-z
1/2-x,1/2+y,1/2+z
1/2+x,1/2-y,1/2+z
loop_
_atom_site_type_symbol
_atom_site_label
_atom_site_fract_x
_atom_site_fract_y
_atom_site_fract_z
Si Si1 0.159231 0.099506 0.792274
Si Si2 0.238415 0.645621 0.163217
Si Si3 0.415634 0.786791 0.500000
Si Si4 0.322686 0.358329 0.000000
Si Si5 0.597632 0.005727 0.000000
Si Si6 0.392517 0.093057 0.691448
Si Si7 0.442297 0.735556 0.292746
Si Si8 0.734592 0.002964 0.000000
O O1 0.221220 0.130945 0.753268
O O2 0.111454 0.173097 0.763949
O O3 0.147007 0.000000 0.750000
O O4 0.156213 0.098340 0.903658
O O5 0.250000 0.750000 0.127600
O O6 0.171261 0.634720 0.182096
O O7 0.253071 0.564320 0.089443
O O8 0.349985 0.745306 0.500000
O O9 0.442549 0.748561 0.404335
O O10 0.420219 0.898240 0.500000
O O11 0.258003 0.397729 0.000000
O O12 0.582102 0.062800 0.907880
O O13 0.666565 0.001553 0.000000
O O14 0.431277 0.164903 0.746050
O O15 0.385765 0.000000 0.750000
O O16 0.500000 0.695996 0.250000
#
# Coordination Sequence:
#
# PCOD9497806 Si02
#       8
#    16  16   8   8   8  16  16   8
#     4  11  22  42  65  91 127 165 209 258 316 381
#     4  11  21  37  61  91 128 168 199 255 315 373
#     4  10  22  44  62  86 126 158 210 265 310 364
#     4  10  22  36  58  93 122 164 202 256 308 372
#     4  10  22  37  60  92 129 166 207 259 302 380
#     4  11  22  39  60  90 128 164 206 251 317 378
#     4  11  25  44  66  91 121 165 215 264 311 369
#     4  10  21  35  58  95 128 159 210 247 310 382
#
# _framework density 19.781084
#
# number of rings (size 3 to 8) (size 9 to 14) (size 15 to 20)
#    0.000    1.333    5.000    0.750    2.333    1.667 
#    0.000    3.333    0.000    3.000    0.000    0.000 
#    0.000    0.000    0.000    0.000    0.000    0.000 
#
# Total GULP energy -267820.839625 kJ/mol
# GULP energy per Si atom -5579.600826 kJ/mol
# Density = 1.973606 g / cm^3
# Si number density = 19.781084 Si / 1000 Ang^3
#
#
#
# Elastic Constant Matrix: (Units=GPa)
#
#
# Indices 1 2 3 4 5 6 
#
# 1 37.3464 8.2988 26.3591 0.0000 0.0000 0.0000
# 2 8.2988 53.3986 16.8805 0.0000 0.0000 0.0000
# 3 26.3591 16.8805 118.2778 0.0000 0.0000 0.0000
# 4 0.0000 0.0000 0.0000 18.8197 0.0000 0.0000
# 5 0.0000 0.0000 0.0000 0.0000 32.2367 0.0000
# 6 0.0000 0.0000 0.0000 0.0000 0.0000 -2.8653
#
#
#
# Elastic Compliance Matrix: (Units=1/GPa)
#
#
# Indices 1 2 3 4 5 6 
#
# 1 0.032187 -0.002864 -0.006764 0.000000 0.000000 0.000000
# 2 -0.002864 0.019867 -0.002197 0.000000 0.000000 0.000000
# 3 -0.006764 -0.002197 0.010276 0.000000 0.000000 0.000000
# 4 0.000000 0.000000 0.000000 0.053136 0.000000 0.000000
# 5 0.000000 0.000000 0.000000 0.000000 0.031021 0.000000
# 6 0.000000 0.000000 0.000000 0.000000 0.000000 -0.349003
#
#
# Mechanical properties :
#
#
# Convention : Reuss Voigt Hill
#
# Bulk Modulus (GPa) = 25.85402 34.67775 30.26588
# Shear Modulus (GPa) = -30.12536 20.13717 -4.99409
#
# Velocity S-wave (km/s) = -3.90672 3.19408 -1.59065
# Velocity P-wave (km/s) = 2.69286 5.58316 3.45834
#
# Compressibility (1/GPa) = 0.03867871
#
# Stress axis : x y z
#
# Youngs Moduli (GPa) = 31.06843 50.33541 97.31657
#
# Poissons Ratio (x) = 0.14415 0.65829
# Poissons Ratio (y) = 0.08898 0.21382
# Poissons Ratio (z) = 0.21016 0.11059
#
# Static dielectric constant tensor:
#      x y z
#    x 1.712000 0.000000 0.000000 
#    y 0.000000 1.683510 0.000000 
#    z 0.000000 0.000000 4.079900 
# 
# From -- ./inp_files/28489.got.cif
#   From: 2010.05.17/outbox.cif.g08.bks.cpg/sg66_15_cif.got.tgz:28489.got - 2010.06.03 17:51:23.
