data_PCOD9497431
_publ_section_title
;
Structure prediction by ZEFSAII (Michael W. Deem and Ramdas Pophale) SiO2 
 PCOD9497431
Probable space group: C C C M
;
_chemical_formula_sum "Si O2"
_cell_formula_units_Z 112
_cell_length_a 12.219824
_cell_length_b 24.927975
_cell_length_c 19.265956
_cell_angle_alpha 90.000000
_cell_angle_beta 90.000000
_cell_angle_gamma 90.000000
_cell_volume 5868.708188
_symmetry_space_group_name_H-M "C C C M"
_symmetry_group_IT_number 66
_symmetry_cell_setting 'orthorhombic'
loop_
_space_group_symop_operation_xyz
x,y,z
-x,-y,z
x,-y,1/2-z
-x,y,1/2-z
-x,-y,-z
x,y,-z
-x,y,1/2+z
x,-y,1/2+z
1/2+x,1/2+y,z
1/2-x,1/2-y,z
1/2+x,1/2-y,1/2-z
1/2-x,1/2+y,1/2-z
1/2-x,1/2-y,-z
1/2+x,1/2+y,-z
1/2-x,1/2+y,1/2+z
1/2+x,1/2-y,1/2+z
loop_
_atom_site_type_symbol
_atom_site_label
_atom_site_fract_x
_atom_site_fract_y
_atom_site_fract_z
Si Si1 0.183493 0.522274 0.917643
Si Si2 0.565287 0.555123 0.422615
Si Si3 0.254204 0.812936 0.199993
Si Si4 0.847094 0.396092 0.419673
Si Si5 0.521808 0.650625 0.668169
Si Si6 0.548979 0.894459 0.325549
Si Si7 0.698861 0.693253 0.136783
O O1 0.307816 0.542368 0.907638
O O2 0.177348 0.458568 0.903189
O O3 0.105975 0.556304 0.866733
O O4 0.155168 0.529968 0.000000
O O5 0.500000 0.500000 0.423728
O O6 0.559754 0.579451 0.500000
O O7 0.508756 0.593788 0.368059
O O8 0.250000 0.750000 0.184019
O O9 0.148871 0.835784 0.160417
O O10 0.362242 0.846784 0.182584
O O11 0.235209 0.816607 0.283111
O O12 0.878285 0.393876 0.500000
O O13 0.746043 0.356586 0.406019
O O14 0.946483 0.376849 0.371939
O O15 0.500000 0.647675 0.750000
O O16 0.432904 0.691650 0.637423
O O17 0.500000 0.909104 0.250000
O O18 0.750000 0.750000 0.114660
#
# Coordination Sequence:
#
# PCOD9497431 Si02
#       7
#    16  16  16  16  16  16  16
#     4  10  22  41  63  90 129 169 208 259 321 379
#     4  10  20  37  62  88 119 164 208 246 300 373
#     4  10  22  40  65  92 120 159 207 257 314 366
#     4  11  24  41  62  92 130 169 207 255 319 381
#     4  10  21  38  62  90 121 155 200 256 308 359
#     4  12  23  40  66  95 124 166 212 261 308 378
#     4  10  22  40  63  91 124 164 208 258 314 374
#
# _framework density 19.084267000000001
#
# number of rings (size 3 to 8) (size 9 to 14) (size 15 to 20)
#    0.000    1.571    2.857    1.714    2.000    5.143 
#    0.000    1.429    0.000    2.143    0.000    0.000 
#    0.000    0.000    0.000    0.000    0.000    0.000 
#
# Total GULP energy -312563.520219 kJ/mol
# GULP energy per Si atom -5581.491432 kJ/mol
# Density = 1.904083 g / cm^3
# Si number density = 19.084267 Si / 1000 Ang^3
#
#
#
# Elastic Constant Matrix: (Units=GPa)
#
#
# Indices 1 2 3 4 5 6 
#
# 1 96.6155 28.0621 36.8903 0.0000 0.0000 0.0000
# 2 28.0621 92.5254 31.8883 0.0000 0.0000 0.0000
# 3 36.8903 31.8883 49.5456 0.0000 0.0000 0.0000
# 4 0.0000 0.0000 0.0000 30.2029 0.0000 0.0000
# 5 0.0000 0.0000 0.0000 0.0000 8.6865 0.0000
# 6 0.0000 0.0000 0.0000 0.0000 0.0000 30.6789
#
#
#
# Elastic Compliance Matrix: (Units=1/GPa)
#
#
# Indices 1 2 3 4 5 6 
#
# 1 0.014516 -0.000871 -0.010248 0.000000 0.000000 0.000000
# 2 -0.000871 0.013941 -0.008324 0.000000 0.000000 0.000000
# 3 -0.010248 -0.008324 0.033171 0.000000 0.000000 0.000000
# 4 0.000000 0.000000 0.000000 0.033109 0.000000 0.000000
# 5 0.000000 0.000000 0.000000 0.000000 0.115121 0.000000
# 6 0.000000 0.000000 0.000000 0.000000 0.000000 0.032596
#
#
# Mechanical properties :
#
#
# Convention : Reuss Voigt Hill
#
# Bulk Modulus (GPa) = 43.97036 48.04089 46.00562
# Shear Modulus (GPa) = 17.30576 23.37006 20.33791
#
# Velocity S-wave (km/s) = 3.01459 3.50318 3.26803
# Velocity P-wave (km/s) = 5.93356 6.44909 6.19669
#
# Compressibility (1/GPa) = 0.02274259
#
# Stress axis : x y z
#
# Youngs Moduli (GPa) = 68.88901 71.73186 30.14656
#
# Poissons Ratio (x) = 0.06246 0.30894
# Poissons Ratio (y) = 0.05998 0.25095
# Poissons Ratio (z) = 0.70597 0.59711
#
# Static dielectric constant tensor:
#      x y z
#    x 1.683410 0.000000 0.000000 
#    y 0.000000 1.672380 0.000000 
#    z 0.000000 0.000000 1.657320 
# 
# From -- ./inp_files/48994.got.cif
#   From: 2010.05.17/outbox.cif.g08.bks.cpg/sg66_25_cif.got.tgz:48994.got - 2010.06.03 17:51:23.
