data_PCOD9497008
_publ_section_title
;
Structure prediction by ZEFSAII (Michael W. Deem and Ramdas Pophale) SiO2 
 PCOD9497008
Probable space group: C C C M
;
_chemical_formula_sum "Si O2"
_cell_formula_units_Z 64
_cell_length_a 22.127485
_cell_length_b 11.500378
_cell_length_c 11.188290
_cell_angle_alpha 90.000000
_cell_angle_beta 90.000000
_cell_angle_gamma 90.000000
_cell_volume 2847.133851
_symmetry_space_group_name_H-M "C C C M"
_symmetry_group_IT_number 66
_symmetry_cell_setting 'orthorhombic'
loop_
_space_group_symop_operation_xyz
x,y,z
-x,-y,z
x,-y,1/2-z
-x,y,1/2-z
-x,-y,-z
x,y,-z
-x,y,1/2+z
x,-y,1/2+z
1/2+x,1/2+y,z
1/2-x,1/2-y,z
1/2+x,1/2-y,1/2-z
1/2-x,1/2+y,1/2-z
1/2-x,1/2-y,-z
1/2+x,1/2+y,-z
1/2-x,1/2+y,1/2+z
1/2+x,1/2-y,1/2+z
loop_
_atom_site_type_symbol
_atom_site_label
_atom_site_fract_x
_atom_site_fract_y
_atom_site_fract_z
Si Si1 0.977244 0.866283 0.372627
Si Si2 0.728823 0.617037 0.872007
Si Si3 0.664307 0.679677 0.632375
Si Si4 0.348257 0.044163 0.631565
O O1 0.997615 0.814228 0.500000
O O2 0.905083 0.860012 0.370097
O O3 0.000000 0.810334 0.250000
O O4 0.000000 0.000000 0.372628
O O5 0.750000 0.750000 0.878875
O O6 0.693661 0.619219 0.746612
O O7 0.787355 0.534037 0.870901
O O8 0.695385 0.595065 0.000000
O O9 0.691226 0.656344 0.500000
O O10 0.666381 0.819407 0.646759
O O11 0.377088 0.031276 0.500000
O O12 0.382345 0.000000 0.750000
#
# Coordination Sequence:
#
# PCOD9497008 Si02
#       4
#    16  16  16  16
#     4   9  19  39  63  87 114 145 189 247 305 359
#     4  10  20  35  55  86 126 164 200 236 279 340
#     4  10  21  37  60  87 117 158 200 242 296 351
#     4  10  20  35  55  83 122 160 199 239 281 340
#
# _framework density 22.478746000000001
#
# number of rings (size 3 to 8) (size 9 to 14) (size 15 to 20)
#    0.000    2.250    2.500    0.000    0.000    2.500 
#    4.500    0.000    0.000    0.750    0.000    5.250 
#    0.000    0.000    0.000    0.000    0.000    0.000 
#
# Total GULP energy -178515.544043 kJ/mol
# GULP energy per Si atom -5578.610751 kJ/mol
# Density = 2.242758 g / cm^3
# Si number density = 22.478746 Si / 1000 Ang^3
#
#
#
# Elastic Constant Matrix: (Units=GPa)
#
#
# Indices 1 2 3 4 5 6 
#
# 1 51.1342 25.6823 20.3360 0.0000 0.0000 0.0000
# 2 25.6823 156.4060 13.4205 0.0000 0.0000 0.0000
# 3 20.3360 13.4205 265.8390 0.0000 0.0000 0.0000
# 4 0.0000 0.0000 0.0000 -66.4060 0.0000 0.0000
# 5 0.0000 0.0000 0.0000 0.0000 27.9212 0.0000
# 6 0.0000 0.0000 0.0000 0.0000 0.0000 12.1118
#
#
#
# Elastic Compliance Matrix: (Units=1/GPa)
#
#
# Indices 1 2 3 4 5 6 
#
# 1 0.021894 -0.003466 -0.001500 0.000000 0.000000 0.000000
# 2 -0.003466 0.006970 -0.000087 0.000000 0.000000 0.000000
# 3 -0.001500 -0.000087 0.003881 0.000000 0.000000 0.000000
# 4 0.000000 0.000000 0.000000 -0.015059 0.000000 0.000000
# 5 0.000000 0.000000 0.000000 0.000000 0.035815 0.000000
# 6 0.000000 0.000000 0.000000 0.000000 0.000000 0.082564
#
#
# Mechanical properties :
#
#
# Convention : Reuss Voigt Hill
#
# Bulk Modulus (GPa) = 44.17137 65.80632 54.98885
# Shear Modulus (GPa) = 32.52721 22.32141 27.42431
#
# Velocity S-wave (km/s) = 3.80810 3.15461 3.49665
# Velocity P-wave (km/s) = 6.24727 6.52742 6.38888
#
# Compressibility (1/GPa) = 0.02263910
#
# Stress axis : x y z
#
# Youngs Moduli (GPa) = 45.67492 143.46702 257.67973
#
# Poissons Ratio (x) = 0.49731 0.38648
# Poissons Ratio (y) = 0.15832 0.02234
# Poissons Ratio (z) = 0.06850 0.01244
#
# Static dielectric constant tensor:
#      x y z
#    x 1.793590 0.000000 0.000000 
#    y 0.000000 1.823160 0.000000 
#    z 0.000000 0.000000 2.020250 
# 
# From -- ./inp_files/14467.got.cif
#   From: 2010.05.17/outbox.cif.g08.bks.cpg/sg66_8_cif.got.tgz:14467.got - 2010.06.03 17:51:23.
