data_PCOD9497394
_publ_section_title
;
Structure prediction by ZEFSAII (Michael W. Deem and Ramdas Pophale) SiO2 
 PCOD9497394
Probable space group: C C C M
;
_chemical_formula_sum "Si O2"
_cell_formula_units_Z 96
_cell_length_a 28.629780
_cell_length_b 8.295215
_cell_length_c 19.320477
_cell_angle_alpha 90.000000
_cell_angle_beta 90.000000
_cell_angle_gamma 90.000000
_cell_volume 4588.423570
_symmetry_space_group_name_H-M "C C C M"
_symmetry_group_IT_number 66
_symmetry_cell_setting 'orthorhombic'
loop_
_space_group_symop_operation_xyz
x,y,z
-x,-y,z
x,-y,1/2-z
-x,y,1/2-z
-x,-y,-z
x,y,-z
-x,y,1/2+z
x,-y,1/2+z
1/2+x,1/2+y,z
1/2-x,1/2-y,z
1/2+x,1/2-y,1/2-z
1/2-x,1/2+y,1/2-z
1/2-x,1/2-y,-z
1/2+x,1/2+y,-z
1/2-x,1/2+y,1/2+z
1/2+x,1/2-y,1/2+z
loop_
_atom_site_type_symbol
_atom_site_label
_atom_site_fract_x
_atom_site_fract_y
_atom_site_fract_z
Si Si1 0.805740 0.250000 0.731336
Si Si2 0.448677 0.940151 0.916827
Si Si3 0.805327 0.250000 0.895215
Si Si4 0.351520 0.073170 0.112765
Si Si5 0.551323 0.440151 0.916827
Si Si6 0.351520 0.573170 0.387235
O O1 0.750000 0.250000 0.722532
O O2 0.815248 0.250000 0.812425
O O3 0.827394 0.396912 0.687152
O O4 0.827394 0.103088 0.687152
O O5 0.443969 0.750000 0.903224
O O6 0.500000 0.000000 0.896220
O O7 0.406278 0.035416 0.882357
O O8 0.444485 0.964920 0.000000
O O9 0.750000 0.250000 0.906754
O O10 0.828127 0.416263 0.920881
O O11 0.828127 0.083737 0.920882
O O12 0.345184 0.250000 0.078804
O O13 0.500000 0.500000 0.896220
O O14 0.593722 0.535416 0.882357
O O15 0.555515 0.464920 0.000000
#
# Coordination Sequence:
#
# PCOD9497394 Si02
#       6
#    16  16  16  16  16  16
#     4   9  20  36  56  83 112 148 190 227 268 318
#     4  10  20  37  61  85 109 141 182 228 277 331
#     4  11  20  36  58  81 114 150 188 231 268 318
#     4  10  21  33  55  86 114 142 181 232 275 320
#     4  10  20  37  61  85 109 141 182 228 277 331
#     4  10  21  33  55  86 114 142 181 232 275 320
#
# _framework density 20.922218000000001
#
# number of rings (size 3 to 8) (size 9 to 14) (size 15 to 20)
#    1.000    1.000    1.667    3.000    0.000    4.667 
#    0.000    0.000    0.000   12.000    0.000    0.000 
#    0.000    0.000    0.000    0.000    0.000    0.000 
#
# Total GULP energy -267686.493188 kJ/mol
# GULP energy per Si atom -5576.801941 kJ/mol
# Density = 2.087460 g / cm^3
# Si number density = 20.922218 Si / 1000 Ang^3
#
#
#
# Elastic Constant Matrix: (Units=GPa)
#
#
# Indices 1 2 3 4 5 6 
#
# 1 127.2620 70.5345 36.8258 0.0000 0.0000 0.0000
# 2 70.5345 184.7266 23.1531 0.0000 0.0000 0.0000
# 3 36.8258 23.1531 78.5205 0.0000 0.0000 0.0000
# 4 0.0000 0.0000 0.0000 -13.5244 0.0000 0.0000
# 5 0.0000 0.0000 0.0000 0.0000 796.8762 0.0000
# 6 0.0000 0.0000 0.0000 0.0000 0.0000 34.2644
#
#
#
# Elastic Compliance Matrix: (Units=1/GPa)
#
#
# Indices 1 2 3 4 5 6 
#
# 1 0.011114 -0.003728 -0.004113 0.000000 0.000000 0.000000
# 2 -0.003728 0.006872 -0.000278 0.000000 0.000000 0.000000
# 3 -0.004113 -0.000278 0.014747 0.000000 0.000000 0.000000
# 4 0.000000 0.000000 0.000000 -0.073940 0.000000 0.000000
# 5 0.000000 0.000000 0.000000 0.000000 0.001255 0.000000
# 6 0.000000 0.000000 0.000000 0.000000 0.000000 0.029185
#
#
# Mechanical properties :
#
#
# Convention : Reuss Voigt Hill
#
# Bulk Modulus (GPa) = 60.62737 72.39287 66.51012
# Shear Modulus (GPa) = 455.83798 180.85628 318.34713
#
# Velocity S-wave (km/s) = 14.77652 9.30752 12.34859
# Velocity P-wave (km/s) = 17.89324 12.25490 15.33543
#
# Compressibility (1/GPa) = 0.01649420
#
# Stress axis : x y z
#
# Youngs Moduli (GPa) = 89.97282 145.52227 67.81252
#
# Poissons Ratio (x) = 0.54255 0.27893
# Poissons Ratio (y) = 0.33545 0.01883
# Poissons Ratio (z) = 0.37008 0.04041
#
# Static dielectric constant tensor:
#      x y z
#    x 1.706920 0.000000 0.000000 
#    y 0.000000 1.799840 0.000000 
#    z 0.000000 0.000000 1.747110 
# 
# From -- ./inp_files/60080.got.cif
#   From: 2010.05.17/outbox.cif.g08.bks.cpg/sg66_31_cif.got.tgz:60080.got - 2010.06.03 17:51:23.
