data_PCOD9497921
_publ_section_title
;
Structure prediction by ZEFSAII (Michael W. Deem and Ramdas Pophale) SiO2 
 PCOD9497921
Probable space group: C C C M
;
_chemical_formula_sum "Si O2"
_cell_formula_units_Z 80
_cell_length_a 8.593881
_cell_length_b 16.924533
_cell_length_c 28.713630
_cell_angle_alpha 90.000000
_cell_angle_beta 90.000000
_cell_angle_gamma 90.000000
_cell_volume 4176.323476
_symmetry_space_group_name_H-M "C C C M"
_symmetry_group_IT_number 66
_symmetry_cell_setting 'orthorhombic'
loop_
_space_group_symop_operation_xyz
x,y,z
-x,-y,z
x,-y,1/2-z
-x,y,1/2-z
-x,-y,-z
x,y,-z
-x,y,1/2+z
x,-y,1/2+z
1/2+x,1/2+y,z
1/2-x,1/2-y,z
1/2+x,1/2-y,1/2-z
1/2-x,1/2+y,1/2-z
1/2-x,1/2-y,-z
1/2+x,1/2+y,-z
1/2-x,1/2+y,1/2+z
1/2+x,1/2-y,1/2+z
loop_
_atom_site_type_symbol
_atom_site_label
_atom_site_fract_x
_atom_site_fract_y
_atom_site_fract_z
Si Si1 0.586005 0.162895 0.553761
Si Si2 0.091873 0.297985 0.295997
Si Si3 0.989398 0.803772 0.121682
Si Si4 0.307929 0.890516 0.116955
Si Si5 0.347277 0.546771 0.413121
O O1 0.560721 0.182822 0.500000
O O2 0.584841 0.244186 0.583992
O O3 0.439994 0.120251 0.578243
O O4 0.731311 0.101554 0.556508
O O5 0.250000 0.250000 0.284659
O O6 0.131436 0.368629 0.331724
O O7 0.000000 0.320418 0.250000
O O8 0.992318 0.239508 0.329071
O O9 0.906928 0.887771 0.122976
O O10 0.166252 0.828638 0.108279
O O11 0.246609 0.978381 0.112101
O O12 0.500000 0.500000 0.433941
#
# Coordination Sequence:
#
# PCOD9497921 Si02
#       5
#    16  16  16  16  16
#     4  11  22  36  56  82 111 146 187 228 275 333
#     4   9  18  34  59  86 110 141 181 222 269 327
#     4   9  20  38  59  81 109 145 185 230 274 325
#     4   9  20  38  58  82 113 145 183 229 278 330
#     4  10  21  37  56  78 111 148 183 230 279 322
#
# _framework density 19.155604
#
# number of rings (size 3 to 8) (size 9 to 14) (size 15 to 20)
#    0.000    2.400    0.000    3.000    0.000    8.400 
#    0.000    4.000    0.000   48.600    0.000    0.000 
#    0.000    0.000    0.000    0.000    0.000    0.000 
#
# Total GULP energy -222736.637215 kJ/mol
# GULP energy per Si atom -5568.415930 kJ/mol
# Density = 1.911200 g / cm^3
# Si number density = 19.155604 Si / 1000 Ang^3
#
#
#
# Elastic Constant Matrix: (Units=GPa)
#
#
# Indices 1 2 3 4 5 6 
#
# 1 79.4210 40.3479 45.8263 0.0000 0.0000 0.0000
# 2 40.3479 139.4055 34.3942 0.0000 0.0000 0.0000
# 3 45.8263 34.3942 102.9987 0.0000 0.0000 0.0000
# 4 0.0000 0.0000 0.0000 -41.6987 0.0000 0.0000
# 5 0.0000 0.0000 0.0000 0.000014036.9624 0.0000
# 6 0.0000 0.0000 0.0000 0.0000 0.0000 40.7724
#
#
#
# Elastic Compliance Matrix: (Units=1/GPa)
#
#
# Indices 1 2 3 4 5 6 
#
# 1 0.018475 -0.003617 -0.007012 0.000000 0.000000 0.000000
# 2 -0.003617 0.008526 -0.001238 0.000000 0.000000 0.000000
# 3 -0.007012 -0.001238 0.013242 0.000000 0.000000 0.000000
# 4 0.000000 0.000000 0.000000 -0.023982 0.000000 0.000000
# 5 0.000000 0.000000 0.000000 0.000000 0.000071 0.000000
# 6 0.000000 0.000000 0.000000 0.000000 0.000000 0.024526
#
#
# Mechanical properties :
#
#
# Convention : Reuss Voigt Hill
#
# Bulk Modulus (GPa) = 60.57361 62.55136 61.56248
# Shear Modulus (GPa) = 71.33257 2820.62434 1445.97846
#
# Velocity S-wave (km/s) = 6.10895 38.41454 27.50451
# Velocity P-wave (km/s) = 9.02494 44.72465 32.26255
#
# Compressibility (1/GPa) = 0.01650884
#
# Stress axis : x y z
#
# Youngs Moduli (GPa) = 54.12835 117.29450 75.51804
#
# Poissons Ratio (x) = 0.42427 0.52952
# Poissons Ratio (y) = 0.19579 0.09346
# Poissons Ratio (z) = 0.37954 0.14516
#
# Static dielectric constant tensor:
#      x y z
#    x 1.773390 0.000000 0.000000 
#    y 0.000000 1.671180 0.000000 
#    z 0.000000 0.000000 1.605370 
# 
# From -- ./inp_files/62350.got.cif
#   From: 2010.05.17/outbox.cif.g08.bks.cpg/sg66_32_cif.got.tgz:62350.got - 2010.06.03 17:51:23.
