data_PCOD9497740
_publ_section_title
;
Structure prediction by ZEFSAII (Michael W. Deem and Ramdas Pophale) SiO2 
 PCOD9497740
Probable space group: C C C M
;
_chemical_formula_sum "Si O2"
_cell_formula_units_Z 64
_cell_length_a 7.623813
_cell_length_b 19.253454
_cell_length_c 18.094343
_cell_angle_alpha 90.000000
_cell_angle_beta 90.000000
_cell_angle_gamma 90.000000
_cell_volume 2655.973304
_symmetry_space_group_name_H-M "C C C M"
_symmetry_group_IT_number 66
_symmetry_cell_setting 'orthorhombic'
loop_
_space_group_symop_operation_xyz
x,y,z
-x,-y,z
x,-y,1/2-z
-x,y,1/2-z
-x,-y,-z
x,y,-z
-x,y,1/2+z
x,-y,1/2+z
1/2+x,1/2+y,z
1/2-x,1/2-y,z
1/2+x,1/2-y,1/2-z
1/2-x,1/2+y,1/2-z
1/2-x,1/2-y,-z
1/2+x,1/2+y,-z
1/2-x,1/2+y,1/2+z
1/2+x,1/2-y,1/2+z
loop_
_atom_site_type_symbol
_atom_site_label
_atom_site_fract_x
_atom_site_fract_y
_atom_site_fract_z
Si Si1 0.917818 0.345568 0.084763
Si Si2 0.182799 0.907309 0.582219
Si Si3 0.055804 0.781945 0.665721
Si Si4 0.799400 0.471977 0.829267
O O1 0.116615 0.377439 0.082847
O O2 0.939891 0.267310 0.113511
O O3 0.816687 0.392030 0.146107
O O4 0.852053 0.350102 0.000000
O O5 0.114159 0.899787 0.500000
O O6 0.072759 0.860027 0.637309
O O7 0.198197 0.985960 0.608126
O O8 0.250000 0.750000 0.660835
O O9 0.000000 0.778074 0.750000
O O10 0.731745 0.500000 0.750000
O O11 0.000000 0.500000 0.830398
#
# Coordination Sequence:
#
# PCOD9497740 Si02
#       4
#    16  16  16  16
#     4   9  17  29  49  79 114 150 190 242 293 340
#     4   9  17  31  50  78 113 150 191 240 291 345
#     4  10  21  33  55  83 117 154 195 241 291 348
#     4   9  17  26  48  81 117 146 183 240 292 335
#
# _framework density 24.096627999999999
#
# number of rings (size 3 to 8) (size 9 to 14) (size 15 to 20)
#    0.000    2.750    0.000    1.500   10.500    6.000 
#    0.000    0.000    0.000    3.750    0.000    1.750 
#    0.000    0.000    0.000    0.000    0.000    0.000 
#
# Total GULP energy -178924.222519 kJ/mol
# GULP energy per Si atom -5591.381954 kJ/mol
# Density = 2.404178 g / cm^3
# Si number density = 24.096628 Si / 1000 Ang^3
#
#
#
# Elastic Constant Matrix: (Units=GPa)
#
#
# Indices 1 2 3 4 5 6 
#
# 1 88.0276 0.2082 11.8552 0.0000 0.0000 0.0000
# 2 0.2082 70.4352 12.8943 0.0000 0.0000 0.0000
# 3 11.8552 12.8943 123.1563 0.0000 0.0000 0.0000
# 4 0.0000 0.0000 0.0000 9.8131 0.0000 0.0000
# 5 0.0000 0.0000 0.0000 0.0000 8.8779 0.0000
# 6 0.0000 0.0000 0.0000 0.0000 0.0000 3.5753
#
#
#
# Elastic Compliance Matrix: (Units=1/GPa)
#
#
# Indices 1 2 3 4 5 6 
#
# 1 0.011511 0.000172 -0.001126 0.000000 0.000000 0.000000
# 2 0.000172 0.014477 -0.001532 0.000000 0.000000 0.000000
# 3 -0.001126 -0.001532 0.008389 0.000000 0.000000 0.000000
# 4 0.000000 0.000000 0.000000 0.101905 0.000000 0.000000
# 5 0.000000 0.000000 0.000000 0.000000 0.112639 0.000000
# 6 0.000000 0.000000 0.000000 0.000000 0.000000 0.279698
#
#
# Mechanical properties :
#
#
# Convention : Reuss Voigt Hill
#
# Bulk Modulus (GPa) = 34.00815 36.83717 35.42266
# Shear Modulus (GPa) = 9.20143 21.56401 15.38272
#
# Velocity S-wave (km/s) = 1.95623 2.99473 2.52935
# Velocity P-wave (km/s) = 4.38706 5.22287 4.82310
#
# Compressibility (1/GPa) = 0.02940472
#
# Stress axis : x y z
#
# Youngs Moduli (GPa) = 86.87094 69.07287 119.20943
#
# Poissons Ratio (x) = -0.01189 0.13424
# Poissons Ratio (y) = -0.01495 0.18267
# Poissons Ratio (z) = 0.09783 0.10584
#
# Static dielectric constant tensor:
#      x y z
#    x 1.994260 0.000000 0.000000 
#    y 0.000000 1.853040 0.000000 
#    z 0.000000 0.000000 1.862370 
# 
# From -- ./inp_files/25820.got.cif
#   From: 2010.05.17/outbox.cif.g08.bks.cpg/sg66_13_cif.got.tgz:25820.got - 2010.06.03 17:51:23.
