data_PCOD9497673
_publ_section_title
;
Structure prediction by ZEFSAII (Michael W. Deem and Ramdas Pophale) SiO2 
 PCOD9497673
Probable space group: C C C M
;
_chemical_formula_sum "Si O2"
_cell_formula_units_Z 44
_cell_length_a 4.838577
_cell_length_b 25.726200
_cell_length_c 16.050584
_cell_angle_alpha 90.000000
_cell_angle_beta 90.000000
_cell_angle_gamma 90.000000
_cell_volume 1997.947799
_symmetry_space_group_name_H-M "C C C M"
_symmetry_group_IT_number 66
_symmetry_cell_setting 'orthorhombic'
loop_
_space_group_symop_operation_xyz
x,y,z
-x,-y,z
x,-y,1/2-z
-x,y,1/2-z
-x,-y,-z
x,y,-z
-x,y,1/2+z
x,-y,1/2+z
1/2+x,1/2+y,z
1/2-x,1/2-y,z
1/2+x,1/2-y,1/2-z
1/2-x,1/2+y,1/2-z
1/2-x,1/2-y,-z
1/2+x,1/2+y,-z
1/2-x,1/2+y,1/2+z
1/2+x,1/2-y,1/2+z
loop_
_atom_site_type_symbol
_atom_site_label
_atom_site_fract_x
_atom_site_fract_y
_atom_site_fract_z
Si Si1 0.000000 0.500000 0.138122
Si Si2 0.183391 0.144799 0.500000
Si Si3 0.496726 0.289522 0.660035
Si Si4 0.500000 0.500000 0.250000
Si Si5 0.805368 0.578454 0.000000
O O1 0.263490 0.523794 0.188898
O O2 0.119437 0.454704 0.080748
O O3 0.081971 0.175120 0.581951
O O4 0.506807 0.130706 0.500000
O O5 0.016291 0.091105 0.500000
O O6 0.500000 0.318647 0.750000
O O7 0.250000 0.250000 0.673108
O O8 0.750000 0.250000 0.642881
#
# Coordination Sequence:
#
# PCOD9497673 Si02
#       5
#     8   8  16   4   8
#     4  10  22  44  64  88 124 172 198 254 304 392
#     4  12  22  38  62  97 120 169 202 268 302 372
#     4  10  21  39  61  86 123 166 207 251 310 373
#     4  10  20  40  68  90 108 160 224 234 312 364
#     4  11  24  41  62  89 132 159 210 249 320 359
#
# _framework density 22.022596
#
# number of rings (size 3 to 8) (size 9 to 14) (size 15 to 20)
#    0.000    1.455    0.000    5.455    0.000    2.909 
#   19.636    0.000    0.000    0.000    0.000    0.000 
#    0.000    0.000    0.000    0.000    0.000    0.000 
#
# Total GULP energy -122566.431666 kJ/mol
# GULP energy per Si atom -5571.201439 kJ/mol
# Density = 2.197247 g / cm^3
# Si number density = 22.022596 Si / 1000 Ang^3
#
#
#
# Elastic Constant Matrix: (Units=GPa)
#
#
# Indices 1 2 3 4 5 6 
#
# 1 83.8002 -24.3118 -12.3994 0.0000 0.0000 0.0000
# 2 -24.3118 20.5844 19.0122 0.0000 0.0000 0.0000
# 3 -12.3994 19.0122 136.0321 0.0000 0.0000 0.0000
# 4 0.0000 0.0000 0.0000 -18.8529 0.0000 0.0000
# 5 0.0000 0.0000 0.0000 0.0000 69.0221 0.0000
# 6 0.0000 0.0000 0.0000 0.0000 0.0000 30.4314
#
#
#
# Elastic Compliance Matrix: (Units=1/GPa)
#
#
# Indices 1 2 3 4 5 6 
#
# 1 0.018439 0.023224 -0.001565 0.000000 0.000000 0.000000
# 2 0.023224 0.085031 -0.009767 0.000000 0.000000 0.000000
# 3 -0.001565 -0.009767 0.008574 0.000000 0.000000 0.000000
# 4 0.000000 0.000000 0.000000 -0.053042 0.000000 0.000000
# 5 0.000000 0.000000 0.000000 0.000000 0.014488 0.000000
# 6 0.000000 0.000000 0.000000 0.000000 0.000000 0.032861
#
#
# Mechanical properties :
#
#
# Convention : Reuss Voigt Hill
#
# Bulk Modulus (GPa) = 7.36235 22.77984 15.07110
# Shear Modulus (GPa) = 39.11046 33.32785 36.21915
#
# Velocity S-wave (km/s) = 4.21874 3.89440 4.05981
# Velocity P-wave (km/s) = 5.20392 5.53065 5.36977
#
# Compressibility (1/GPa) = 0.13582618
#
# Stress axis : x y z
#
# Youngs Moduli (GPa) = 54.23243 11.76045 116.63637
#
# Poissons Ratio (x) = -0.27312 0.18254
# Poissons Ratio (y) = -1.25948 1.13922
# Poissons Ratio (z) = 0.08488 0.11487
#
# Static dielectric constant tensor:
#      x y z
#    x 1.755210 0.000000 0.000000 
#    y 0.000000 1.778310 0.000000 
#    z 0.000000 0.000000 1.955790 
# 
# From -- ./inp_files/34649.got.cif
#   From: 2010.05.17/outbox.cif.g08.bks.cpg/sg66_18_cif.got.tgz:34649.got - 2010.06.03 17:51:23.
