data_PCOD9497978
_publ_section_title
;
Structure prediction by ZEFSAII (Michael W. Deem and Ramdas Pophale) SiO2 
 PCOD9497978
Probable space group: C C C M
;
_chemical_formula_sum "Si O2"
_cell_formula_units_Z 56
_cell_length_a 5.012490
_cell_length_b 32.164662
_cell_length_c 15.701577
_cell_angle_alpha 90.000000
_cell_angle_beta 90.000000
_cell_angle_gamma 90.000000
_cell_volume 2531.487484
_symmetry_space_group_name_H-M "C C C M"
_symmetry_group_IT_number 66
_symmetry_cell_setting 'orthorhombic'
loop_
_space_group_symop_operation_xyz
x,y,z
-x,-y,z
x,-y,1/2-z
-x,y,1/2-z
-x,-y,-z
x,y,-z
-x,y,1/2+z
x,-y,1/2+z
1/2+x,1/2+y,z
1/2-x,1/2-y,z
1/2+x,1/2-y,1/2-z
1/2-x,1/2+y,1/2-z
1/2-x,1/2-y,-z
1/2+x,1/2+y,-z
1/2-x,1/2+y,1/2+z
1/2+x,1/2-y,1/2+z
loop_
_atom_site_type_symbol
_atom_site_label
_atom_site_fract_x
_atom_site_fract_y
_atom_site_fract_z
Si Si1 0.760763 0.971602 0.901973
Si Si2 0.542882 0.115655 0.651477
Si Si3 0.000000 0.222315 0.750000
Si Si4 0.554904 0.337914 0.094779
O O1 0.672414 0.929855 0.855074
O O2 0.500000 0.000000 0.904286
O O3 0.833871 0.960259 0.000000
O O4 0.000000 0.000000 0.866453
O O5 0.500000 0.125922 0.750000
O O6 0.258612 0.123412 0.607279
O O7 0.755327 0.145978 0.608018
O O8 0.250000 0.250000 0.778493
O O9 0.099787 0.194339 0.671091
O O10 0.591231 0.320825 0.000000
#
# Coordination Sequence:
#
# PCOD9497978 Si02
#       4
#    16  16   8  16
#     4  10  21  37  59  91 130 172 221 277 334 391
#     4  12  23  43  68  98 137 182 237 290 337 404
#     4  12  26  46  72 104 143 172 221 288 350 416
#     4  12  25  45  72 102 136 184 232 277 346 418
#
# _framework density 22.121381
#
# number of rings (size 3 to 8) (size 9 to 14) (size 15 to 20)
#    0.000    0.571    2.857    6.000    0.000    4.000 
#    0.000    1.429    0.000    0.000    0.000    0.000 
#    0.000    0.000    0.000    0.000    0.000    0.000 
#
# Total GULP energy -156644.444072 kJ/mol
# GULP energy per Si atom -5594.444431 kJ/mol
# Density = 2.207103 g / cm^3
# Si number density = 22.121381 Si / 1000 Ang^3
#
#
#
# Elastic Constant Matrix: (Units=GPa)
#
#
# Indices 1 2 3 4 5 6 
#
# 1 117.1757 23.0070 21.7231 0.0000 0.0000 0.0000
# 2 23.0070 78.6656 32.6126 0.0000 0.0000 0.0000
# 3 21.7231 32.6126 135.0174 0.0000 0.0000 0.0000
# 4 0.0000 0.0000 0.0000 18.4080 0.0000 0.0000
# 5 0.0000 0.0000 0.0000 0.0000 31.5569 0.0000
# 6 0.0000 0.0000 0.0000 0.0000 0.0000 40.9710
#
#
#
# Elastic Compliance Matrix: (Units=1/GPa)
#
#
# Indices 1 2 3 4 5 6 
#
# 1 0.009155 -0.002297 -0.000918 0.000000 0.000000 0.000000
# 2 -0.002297 0.014703 -0.003182 0.000000 0.000000 0.000000
# 3 -0.000918 -0.003182 0.008323 0.000000 0.000000 0.000000
# 4 0.000000 0.000000 0.000000 0.054324 0.000000 0.000000
# 5 0.000000 0.000000 0.000000 0.000000 0.031689 0.000000
# 6 0.000000 0.000000 0.000000 0.000000 0.000000 0.024408
#
#
# Mechanical properties :
#
#
# Convention : Reuss Voigt Hill
#
# Bulk Modulus (GPa) = 51.58086 53.94935 52.76510
# Shear Modulus (GPa) = 30.89129 35.08824 32.98977
#
# Velocity S-wave (km/s) = 3.74096 3.98699 3.86593
# Velocity P-wave (km/s) = 6.48286 6.75542 6.62054
#
# Compressibility (1/GPa) = 0.01938704
#
# Stress axis : x y z
#
# Youngs Moduli (GPa) = 109.22490 68.01365 120.15275
#
# Poissons Ratio (x) = 0.15623 0.11032
# Poissons Ratio (y) = 0.25089 0.38231
# Poissons Ratio (z) = 0.10029 0.21641
#
# Static dielectric constant tensor:
#      x y z
#    x 1.781430 0.000000 0.000000 
#    y 0.000000 1.789710 0.000000 
#    z 0.000000 0.000000 1.828540 
# 
# From -- ./inp_files/22507.got.cif
#   From: 2010.05.17/outbox.cif.g08.bks.cpg/sg66_12_cif.got.tgz:22507.got - 2010.06.03 17:51:23.
