data_PCOD9497548
_publ_section_title
;
Structure prediction by ZEFSAII (Michael W. Deem and Ramdas Pophale) SiO2 
 PCOD9497548
Probable space group: C C C M
;
_chemical_formula_sum "Si O2"
_cell_formula_units_Z 80
_cell_length_a 8.786427
_cell_length_b 26.272862
_cell_length_c 15.650017
_cell_angle_alpha 90.000000
_cell_angle_beta 90.000000
_cell_angle_gamma 90.000000
_cell_volume 3612.721665
_symmetry_space_group_name_H-M "C C C M"
_symmetry_group_IT_number 66
_symmetry_cell_setting 'orthorhombic'
loop_
_space_group_symop_operation_xyz
x,y,z
-x,-y,z
x,-y,1/2-z
-x,y,1/2-z
-x,-y,-z
x,y,-z
-x,y,1/2+z
x,-y,1/2+z
1/2+x,1/2+y,z
1/2-x,1/2-y,z
1/2+x,1/2-y,1/2-z
1/2-x,1/2+y,1/2-z
1/2-x,1/2-y,-z
1/2+x,1/2+y,-z
1/2-x,1/2+y,1/2+z
1/2+x,1/2-y,1/2+z
loop_
_atom_site_type_symbol
_atom_site_label
_atom_site_fract_x
_atom_site_fract_y
_atom_site_fract_z
Si Si1 0.820535 0.008725 0.103617
Si Si2 0.836488 0.799560 0.852915
Si Si3 0.688607 0.096931 0.594506
Si Si4 0.116878 0.400690 0.666788
Si Si5 0.676942 0.699011 0.650632
O O1 0.745761 0.955727 0.132951
O O2 0.739049 0.054043 0.155516
O O3 0.797068 0.016272 0.000000
O O4 0.000000 0.000000 0.117184
O O5 0.750000 0.750000 0.889536
O O6 0.741577 0.851065 0.863010
O O7 0.846759 0.790992 0.751543
O O8 0.007632 0.808637 0.886152
O O9 0.755721 0.098614 0.500000
O O10 0.508053 0.094076 0.593382
O O11 0.209898 0.348814 0.650998
O O12 0.000000 0.400736 0.750000
O O13 0.750000 0.750000 0.612811
#
# Coordination Sequence:
#
# PCOD9497548 Si02
#       5
#    16  16  16  16  16
#     4  10  23  44  67  90 127 175 216 264 328 390
#     4  10  20  38  63  91 124 162 208 261 316 376
#     4  11  23  40  62  90 126 170 210 255 322 386
#     4  12  23  40  63  96 126 165 211 268 316 376
#     4  10  21  37  63  91 124 161 206 260 322 378
#
# _framework density 22.143971000000001
#
# number of rings (size 3 to 8) (size 9 to 14) (size 15 to 20)
#    0.000    1.400    2.000    3.600    2.800    3.600 
#    0.000    2.000    0.000    4.200    0.000    0.000 
#    0.000    0.000    0.000    0.000    0.000    0.000 
#
# Total GULP energy -223088.708946 kJ/mol
# GULP energy per Si atom -5577.217724 kJ/mol
# Density = 2.209357 g / cm^3
# Si number density = 22.143971 Si / 1000 Ang^3
#
#
#
# Elastic Constant Matrix: (Units=GPa)
#
#
# Indices 1 2 3 4 5 6 
#
# 1 191.9199 112.7591 16.1518 0.0000 0.0000 0.0000
# 2 112.7591 204.6290 20.7889 0.0000 0.0000 0.0000
# 3 16.1518 20.7889 52.3561 0.0000 0.0000 0.0000
# 4 0.0000 0.0000 0.0000 -83.3185 0.0000 0.0000
# 5 0.0000 0.0000 0.0000 0.0000 33.8809 0.0000
# 6 0.0000 0.0000 0.0000 0.0000 0.0000 28.2306
#
#
#
# Elastic Compliance Matrix: (Units=1/GPa)
#
#
# Indices 1 2 3 4 5 6 
#
# 1 0.007731 -0.004187 -0.000723 0.000000 0.000000 0.000000
# 2 -0.004187 0.007360 -0.001631 0.000000 0.000000 0.000000
# 3 -0.000723 -0.001631 0.019970 0.000000 0.000000 0.000000
# 4 0.000000 0.000000 0.000000 -0.012002 0.000000 0.000000
# 5 0.000000 0.000000 0.000000 0.000000 0.029515 0.000000
# 6 0.000000 0.000000 0.000000 0.000000 0.000000 0.035423
#
#
# Mechanical properties :
#
#
# Convention : Reuss Voigt Hill
#
# Bulk Modulus (GPa) = 45.49370 83.14496 64.31933
# Shear Modulus (GPa) = 46.12376 15.70561 30.91469
#
# Velocity S-wave (km/s) = 4.56884 2.66606 3.74046
# Velocity P-wave (km/s) = 6.95855 6.86339 6.91114
#
# Compressibility (1/GPa) = 0.02198107
#
# Stress axis : x y z
#
# Youngs Moduli (GPa) = 129.34592 135.87582 50.07419
#
# Poissons Ratio (x) = 0.56889 0.03618
# Poissons Ratio (y) = 0.54155 0.08165
# Poissons Ratio (z) = 0.09347 0.22157
#
# Static dielectric constant tensor:
#      x y z
#    x 1.842830 0.000000 0.000000 
#    y 0.000000 1.814170 0.000000 
#    z 0.000000 0.000000 1.928100 
# 
# From -- ./inp_files/36976.got.cif
#   From: 2010.05.17/outbox.cif.g08.bks.cpg/sg66_19_cif.got.tgz:36976.got - 2010.06.03 17:51:23.
