data_PCOD9497486
_publ_section_title
;
Structure prediction by ZEFSAII (Michael W. Deem and Ramdas Pophale) SiO2 
 PCOD9497486
Probable space group: C C C M
;
_chemical_formula_sum "Si O2"
_cell_formula_units_Z 72
_cell_length_a 5.294044
_cell_length_b 24.779598
_cell_length_c 28.153198
_cell_angle_alpha 90.000000
_cell_angle_beta 90.000000
_cell_angle_gamma 90.000000
_cell_volume 3693.257069
_symmetry_space_group_name_H-M "C C C M"
_symmetry_group_IT_number 66
_symmetry_cell_setting 'orthorhombic'
loop_
_space_group_symop_operation_xyz
x,y,z
-x,-y,z
x,-y,1/2-z
-x,y,1/2-z
-x,-y,-z
x,y,-z
-x,y,1/2+z
x,-y,1/2+z
1/2+x,1/2+y,z
1/2-x,1/2-y,z
1/2+x,1/2-y,1/2-z
1/2-x,1/2+y,1/2-z
1/2-x,1/2-y,-z
1/2+x,1/2+y,-z
1/2-x,1/2+y,1/2+z
1/2+x,1/2-y,1/2+z
loop_
_atom_site_type_symbol
_atom_site_label
_atom_site_fract_x
_atom_site_fract_y
_atom_site_fract_z
Si Si1 0.750110 0.975556 0.303946
Si Si2 0.749440 0.963659 0.553585
Si Si3 0.308075 0.187451 0.848928
Si Si4 0.500000 0.217384 0.750000
Si Si5 0.294087 0.623143 0.863291
O O1 0.755561 0.912137 0.314547
O O2 0.500000 0.000000 0.326329
O O3 0.750462 0.000000 0.250000
O O4 0.000000 0.000000 0.326713
O O5 0.730962 0.940317 0.500000
O O6 0.500000 0.000000 0.560639
O O7 0.776236 0.918988 0.593912
O O8 0.000000 0.000000 0.554961
O O9 0.250000 0.250000 0.859831
O O10 0.371539 0.185700 0.792732
O O11 0.565119 0.164633 0.870678
O O12 0.063715 0.152067 0.860482
O O13 0.250000 0.250000 0.730486
#
# Coordination Sequence:
#
# PCOD9497486 Si02
#       5
#    16  16  16   8  16
#     4  10  21  35  50  79 115 144 179 227 286 356
#     4  10  21  39  63  92 124 156 196 249 309 381
#     4  11  24  40  58  84 117 158 207 251 287 343
#     4  10  20  38  56  76 111 154 201 248 290 334
#     4  12  22  37  62  86 116 158 198 244 306 358
#
# _framework density 19.494987999999999
#
# number of rings (size 3 to 8) (size 9 to 14) (size 15 to 20)
#    0.000    1.333    0.000    7.333    0.000    5.333 
#    0.000    0.000    0.000    4.000    0.000    0.000 
#    0.000    0.000    0.000    0.000    0.000    0.000 
#
# Total GULP energy -200822.970487 kJ/mol
# GULP energy per Si atom -5578.415847 kJ/mol
# Density = 1.945062 g / cm^3
# Si number density = 19.494988 Si / 1000 Ang^3
#
#
#
# Elastic Constant Matrix: (Units=GPa)
#
#
# Indices 1 2 3 4 5 6 
#
# 1 197.8493 46.9105 29.3144 0.0000 0.0000 0.0000
# 2 46.9105 80.5343 46.9170 0.0000 0.0000 0.0000
# 3 29.3144 46.9170 113.6071 0.0000 0.0000 0.0000
# 4 0.0000 0.0000 0.0000 24.6130 0.0000 0.0000
# 5 0.0000 0.0000 0.0000 0.0000 20.9836 0.0000
# 6 0.0000 0.0000 0.0000 0.0000 0.0000 47.4155
#
#
#
# Elastic Compliance Matrix: (Units=1/GPa)
#
#
# Indices 1 2 3 4 5 6 
#
# 1 0.005866 -0.003338 -0.000135 0.000000 0.000000 0.000000
# 2 -0.003338 0.018251 -0.006676 0.000000 0.000000 0.000000
# 3 -0.000135 -0.006676 0.011594 0.000000 0.000000 0.000000
# 4 0.000000 0.000000 0.000000 0.040629 0.000000 0.000000
# 5 0.000000 0.000000 0.000000 0.000000 0.047656 0.000000
# 6 0.000000 0.000000 0.000000 0.000000 0.000000 0.021090
#
#
# Mechanical properties :
#
#
# Convention : Reuss Voigt Hill
#
# Bulk Modulus (GPa) = 64.88146 70.91938 67.90042
# Shear Modulus (GPa) = 29.32187 36.52566 32.92377
#
# Velocity S-wave (km/s) = 3.88244 4.33320 4.11400
# Velocity P-wave (km/s) = 7.31103 7.84173 7.58103
#
# Compressibility (1/GPa) = 0.01541272
#
# Stress axis : x y z
#
# Youngs Moduli (GPa) = 170.47865 54.79276 86.25141
#
# Poissons Ratio (x) = 0.18291 0.01164
# Poissons Ratio (y) = 0.56908 0.57579
# Poissons Ratio (z) = 0.02302 0.36578
#
# Static dielectric constant tensor:
#      x y z
#    x 1.701530 0.000000 0.000000 
#    y 0.000000 1.716080 0.000000 
#    z 0.000000 0.000000 1.327470 
# 
# From -- ./inp_files/67159.got.cif
#   From: 2010.05.17/outbox.cif.g08.bks.cpg/sg66_34_cif.got.tgz:67159.got - 2010.06.03 17:51:23.
