data_PCOD9497690
_publ_section_title
;
Structure prediction by ZEFSAII (Michael W. Deem and Ramdas Pophale) SiO2 
 PCOD9497690
Probable space group: C C C M
;
_chemical_formula_sum "Si O2"
_cell_formula_units_Z 96
_cell_length_a 11.982719
_cell_length_b 25.916356
_cell_length_c 17.605102
_cell_angle_alpha 90.000000
_cell_angle_beta 90.000000
_cell_angle_gamma 90.000000
_cell_volume 5467.236460
_symmetry_space_group_name_H-M "C C C M"
_symmetry_group_IT_number 66
_symmetry_cell_setting 'orthorhombic'
loop_
_space_group_symop_operation_xyz
x,y,z
-x,-y,z
x,-y,1/2-z
-x,y,1/2-z
-x,-y,-z
x,y,-z
-x,y,1/2+z
x,-y,1/2+z
1/2+x,1/2+y,z
1/2-x,1/2-y,z
1/2+x,1/2-y,1/2-z
1/2-x,1/2+y,1/2-z
1/2-x,1/2-y,-z
1/2+x,1/2+y,-z
1/2-x,1/2+y,1/2+z
1/2+x,1/2-y,1/2+z
loop_
_atom_site_type_symbol
_atom_site_label
_atom_site_fract_x
_atom_site_fract_y
_atom_site_fract_z
Si Si1 0.441720 0.687951 0.913413
Si Si2 0.897149 0.622371 0.914337
Si Si3 0.714735 0.353195 0.790510
Si Si4 0.060377 0.703252 0.831474
Si Si5 0.126821 0.559335 0.272492
Si Si6 0.805661 0.192875 0.626761
O O1 0.379784 0.648942 0.855204
O O2 0.424531 0.744949 0.879059
O O3 0.575847 0.685687 0.912476
O O4 0.401027 0.682638 0.000000
O O5 0.874334 0.572940 0.861605
O O6 0.784376 0.655503 0.910624
O O7 0.987008 0.660756 0.875785
O O8 0.928800 0.609808 0.000000
O O9 0.818227 0.319208 0.818176
O O10 0.776021 0.406660 0.766818
O O11 0.674846 0.325417 0.713459
O O12 0.000000 0.713101 0.750000
O O13 0.139655 0.500000 0.250000
O O14 0.000000 0.575544 0.250000
O O15 0.750000 0.250000 0.625307
#
# Coordination Sequence:
#
# PCOD9497690 Si02
#       6
#    16  16  16  16  16  16
#     4  12  25  34  50  84 124 160 198 239 284 343
#     4  11  21  34  59  89 118 147 189 246 296 335
#     4  11  21  37  57  82 112 158 191 238 298 358
#     4  12  19  36  56  82 117 163 191 224 286 364
#     4  10  20  41  65  85 111 151 201 250 296 359
#     4  11  20  36  58  79 113 160 205 232 273 348
#
# _framework density 17.559145000000001
#
# number of rings (size 3 to 8) (size 9 to 14) (size 15 to 20)
#    0.000    0.833    6.667    4.000    0.000    2.667 
#    0.000    2.500    0.000    8.000    0.000    5.833 
#    0.000    0.000    0.000    0.000    0.000    0.000 
#
# Total GULP energy -267842.628853 kJ/mol
# GULP energy per Si atom -5580.054768 kJ/mol
# Density = 1.751918 g / cm^3
# Si number density = 17.559145 Si / 1000 Ang^3
#
#
#
# Elastic Constant Matrix: (Units=GPa)
#
#
# Indices 1 2 3 4 5 6 
#
# 1 59.4965 13.5602 31.0788 0.0000 0.0000 0.0000
# 2 13.5602 79.8596 45.6679 0.0000 0.0000 0.0000
# 3 31.0788 45.6679 145.6949 0.0000 0.0000 0.0000
# 4 0.0000 0.0000 0.0000 10.9027 0.0000 0.0000
# 5 0.0000 0.0000 0.0000 0.0000 50.9512 0.0000
# 6 0.0000 0.0000 0.0000 0.0000 0.0000 16.0279
#
#
#
# Elastic Compliance Matrix: (Units=1/GPa)
#
#
# Indices 1 2 3 4 5 6 
#
# 1 0.018995 -0.001107 -0.003705 0.000000 0.000000 0.000000
# 2 -0.001107 0.015321 -0.004566 0.000000 0.000000 0.000000
# 3 -0.003705 -0.004566 0.009085 0.000000 0.000000 0.000000
# 4 0.000000 0.000000 0.000000 0.091721 0.000000 0.000000
# 5 0.000000 0.000000 0.000000 0.000000 0.019627 0.000000
# 6 0.000000 0.000000 0.000000 0.000000 0.000000 0.062391
#
#
# Mechanical properties :
#
#
# Convention : Reuss Voigt Hill
#
# Bulk Modulus (GPa) = 40.57509 51.74052 46.15780
# Shear Modulus (GPa) = 20.48241 28.55929 24.52085
#
# Velocity S-wave (km/s) = 3.41908 4.03732 3.74099
# Velocity P-wave (km/s) = 6.22452 7.15986 6.70851
#
# Compressibility (1/GPa) = 0.02464567
#
# Stress axis : x y z
#
# Youngs Moduli (GPa) = 52.64447 65.26922 110.06761
#
# Poissons Ratio (x) = 0.07223 0.40781
# Poissons Ratio (y) = 0.05826 0.50261
# Poissons Ratio (z) = 0.19505 0.29804
#
# Static dielectric constant tensor:
#      x y z
#    x 1.626300 0.000000 0.000000 
#    y 0.000000 1.586140 0.000000 
#    z 0.000000 0.000000 1.650180 
# 
# From -- ./inp_files/39004.got.cif
#   From: 2010.05.17/outbox.cif.g08.bks.cpg/sg66_20_cif.got.tgz:39004.got - 2010.06.03 17:51:23.
