data_PCOD9497229
_publ_section_title
;
Structure prediction by ZEFSAII (Michael W. Deem and Ramdas Pophale) SiO2 
 PCOD9497229
Probable space group: C C C M
;
_chemical_formula_sum "Si O2"
_cell_formula_units_Z 96
_cell_length_a 21.361344
_cell_length_b 11.392109
_cell_length_c 15.915873
_cell_angle_alpha 90.000000
_cell_angle_beta 90.000000
_cell_angle_gamma 90.000000
_cell_volume 3873.139778
_symmetry_space_group_name_H-M "C C C M"
_symmetry_group_IT_number 66
_symmetry_cell_setting 'orthorhombic'
loop_
_space_group_symop_operation_xyz
x,y,z
-x,-y,z
x,-y,1/2-z
-x,y,1/2-z
-x,-y,-z
x,y,-z
-x,y,1/2+z
x,-y,1/2+z
1/2+x,1/2+y,z
1/2-x,1/2-y,z
1/2+x,1/2-y,1/2-z
1/2-x,1/2+y,1/2-z
1/2-x,1/2-y,-z
1/2+x,1/2+y,-z
1/2-x,1/2+y,1/2+z
1/2+x,1/2-y,1/2+z
loop_
_atom_site_type_symbol
_atom_site_label
_atom_site_fract_x
_atom_site_fract_y
_atom_site_fract_z
Si Si1 0.501058 0.749712 0.099799
Si Si2 0.817762 0.861017 0.406091
Si Si3 0.311907 0.693795 0.278296
Si Si4 0.124116 0.620751 0.094674
Si Si5 0.102744 0.593672 0.688558
Si Si6 0.904658 0.937913 0.901833
O O1 0.437346 0.810619 0.129928
O O2 0.555086 0.839707 0.128550
O O3 0.530265 0.622872 0.127182
O O4 0.494567 0.741612 0.000000
O O5 0.794023 0.900710 0.500000
O O6 0.794818 0.871685 0.309265
O O7 0.823899 0.720807 0.411419
O O8 0.886962 0.924372 0.401342
O O9 0.250000 0.750000 0.316517
O O10 0.356370 0.807807 0.265708
O O11 0.350504 0.615287 0.343194
O O12 0.144372 0.500023 0.137451
O O13 0.106061 0.586406 0.000000
O O14 0.070452 0.500000 0.750000
O O15 0.897962 0.902918 0.000000
#
# Coordination Sequence:
#
# PCOD9497229 Si02
#       6
#    16  16  16  16  16  16
#     4   9  19  35  58  87 120 162 199 234 293 368
#     4  10  21  40  62  87 123 159 200 257 308 361
#     4  11  24  42  65  84 115 160 212 262 317 371
#     4  10  20  36  59  88 124 161 198 242 301 370
#     4  11  21  36  54  84 120 154 197 251 305 355
#     4   9  20  40  63  91 123 155 199 253 305 367
#
# _framework density 24.786092
#
# number of rings (size 3 to 8) (size 9 to 14) (size 15 to 20)
#    0.000    2.000    1.667    1.500    0.000    6.000 
#    0.000    3.333    0.000    2.000    0.000    0.000 
#    0.000    0.000    0.000    0.000    0.000    0.000 
#
# Total GULP energy -267310.133401 kJ/mol
# GULP energy per Si atom -5568.961113 kJ/mol
# Density = 2.472968 g / cm^3
# Si number density = 24.786092 Si / 1000 Ang^3
#
#
#
# Elastic Constant Matrix: (Units=GPa)
#
#
# Indices 1 2 3 4 5 6 
#
# 1 63.6966 -0.0914 22.9963 0.0000 0.0000 0.0000
# 2 -0.0914 120.6522 35.4812 0.0000 0.0000 0.0000
# 3 22.9963 35.4812 78.3971 0.0000 0.0000 0.0000
# 4 0.0000 0.0000 0.0000 27.9544 0.0000 0.0000
# 5 0.0000 0.0000 0.0000 0.0000 26.1276 0.0000
# 6 0.0000 0.0000 0.0000 0.0000 0.0000 17.6766
#
#
#
# Elastic Compliance Matrix: (Units=1/GPa)
#
#
# Indices 1 2 3 4 5 6 
#
# 1 0.017890 0.001796 -0.006060 0.000000 0.000000 0.000000
# 2 0.001796 0.009741 -0.004935 0.000000 0.000000 0.000000
# 3 -0.006060 -0.004935 0.016767 0.000000 0.000000 0.000000
# 4 0.000000 0.000000 0.000000 0.035773 0.000000 0.000000
# 5 0.000000 0.000000 0.000000 0.000000 0.038274 0.000000
# 6 0.000000 0.000000 0.000000 0.000000 0.000000 0.056572
#
#
# Mechanical properties :
#
#
# Convention : Reuss Voigt Hill
#
# Bulk Modulus (GPa) = 38.46461 42.16869 40.31665
# Shear Modulus (GPa) = 24.74239 27.97570 26.35905
#
# Velocity S-wave (km/s) = 3.16292 3.36324 3.26461
# Velocity P-wave (km/s) = 5.37504 5.66849 5.52371
#
# Compressibility (1/GPa) = 0.02599792
#
# Stress axis : x y z
#
# Youngs Moduli (GPa) = 55.89714 102.65843 59.64104
#
# Poissons Ratio (x) = -0.18435 0.36145
# Poissons Ratio (y) = -0.10038 0.29435
# Poissons Ratio (z) = 0.33876 0.50666
#
# Static dielectric constant tensor:
#      x y z
#    x 1.993040 0.000000 0.000000 
#    y 0.000000 1.996120 0.000000 
#    z 0.000000 0.000000 2.062550 
# 
# From -- ./inp_files/43554.got.cif
#   From: 2010.05.17/outbox.cif.g08.bks.cpg/sg66_22_cif.got.tgz:43554.got - 2010.06.03 17:51:23.
