data_PCOD9497971
_publ_section_title
;
Structure prediction by ZEFSAII (Michael W. Deem and Ramdas Pophale) SiO2 
 PCOD9497971
Probable space group: C C C M
;
_chemical_formula_sum "Si O2"
_cell_formula_units_Z 80
_cell_length_a 31.747822
_cell_length_b 9.365052
_cell_length_c 11.239073
_cell_angle_alpha 90.000000
_cell_angle_beta 90.000000
_cell_angle_gamma 90.000000
_cell_volume 3341.601228
_symmetry_space_group_name_H-M "C C C M"
_symmetry_group_IT_number 66
_symmetry_cell_setting 'orthorhombic'
loop_
_space_group_symop_operation_xyz
x,y,z
-x,-y,z
x,-y,1/2-z
-x,y,1/2-z
-x,-y,-z
x,y,-z
-x,y,1/2+z
x,-y,1/2+z
1/2+x,1/2+y,z
1/2-x,1/2-y,z
1/2+x,1/2-y,1/2-z
1/2-x,1/2+y,1/2-z
1/2-x,1/2-y,-z
1/2+x,1/2+y,-z
1/2-x,1/2+y,1/2+z
1/2+x,1/2-y,1/2+z
loop_
_atom_site_type_symbol
_atom_site_label
_atom_site_fract_x
_atom_site_fract_y
_atom_site_fract_z
Si Si1 0.230015 0.092118 0.366268
Si Si2 0.573191 0.483855 0.125859
Si Si3 0.883522 0.712713 0.129895
Si Si4 0.856259 0.244312 0.871483
Si Si5 0.018960 0.341995 0.869785
O O1 0.240314 0.034673 0.500000
O O2 0.250000 0.250000 0.357714
O O3 0.180153 0.125769 0.364448
O O4 0.241277 0.000000 0.250000
O O5 0.549915 0.500000 0.250000
O O6 0.606755 0.616104 0.128932
O O7 0.599062 0.336988 0.125304
O O8 0.550919 0.496772 0.000000
O O9 0.856933 0.674428 0.246281
O O10 0.930579 0.649071 0.139702
O O11 0.865730 0.675934 0.000000
O O12 0.850903 0.319206 0.000000
O O13 0.000000 0.500000 0.873342
O O14 0.000000 0.275113 0.750000
O O15 0.009173 0.277652 0.000000
#
# Coordination Sequence:
#
# PCOD9497971 Si02
#       5
#    16  16  16  16  16
#     4  10  21  37  59  88 124 166 210 256 309 375
#     4   8  13  22  39  65  94 119 150 199 256 310
#     4   9  16  27  47  73  98 127 169 221 270 327
#     4   9  17  30  51  80 109 139 181 233 288 345
#     4   9  18  32  49  68  93 127 171 218 267 329
#
# _framework density 23.940617
#
# number of rings (size 3 to 8) (size 9 to 14) (size 15 to 20)
#    0.000    3.000    0.000    1.800    0.000    3.600 
#    0.000    0.000    4.400    5.400    0.000   32.200 
#    0.000    0.000    0.000    0.000    0.000    0.000 
#
# Total GULP energy -222923.358615 kJ/mol
# GULP energy per Si atom -5573.083965 kJ/mol
# Density = 2.388613 g / cm^3
# Si number density = 23.940617 Si / 1000 Ang^3
#
#
#
# Elastic Constant Matrix: (Units=GPa)
#
#
# Indices 1 2 3 4 5 6 
#
# 1 30.8924 10.4579 19.3147 0.0000 0.0000 0.0000
# 2 10.4579 61.8859 23.9990 0.0000 0.0000 0.0000
# 3 19.3147 23.9990 345.5718 0.0000 0.0000 0.0000
# 4 0.0000 0.0000 0.0000 -4.0818 0.0000 0.0000
# 5 0.0000 0.0000 0.0000 0.0000 9.3062 0.0000
# 6 0.0000 0.0000 0.0000 0.0000 0.0000 10.6313
#
#
#
# Elastic Compliance Matrix: (Units=1/GPa)
#
#
# Indices 1 2 3 4 5 6 
#
# 1 0.035171 -0.005324 -0.001596 0.000000 0.000000 0.000000
# 2 -0.005324 0.017412 -0.000912 0.000000 0.000000 0.000000
# 3 -0.001596 -0.000912 0.003046 0.000000 0.000000 0.000000
# 4 0.000000 0.000000 0.000000 -0.244992 0.000000 0.000000
# 5 0.000000 0.000000 0.000000 0.000000 0.107456 0.000000
# 6 0.000000 0.000000 0.000000 0.000000 0.000000 0.094062
#
#
# Mechanical properties :
#
#
# Convention : Reuss Voigt Hill
#
# Bulk Modulus (GPa) = 25.02197 60.65482 42.83839
# Shear Modulus (GPa) = 121.53712 28.80971 75.17342
#
# Velocity S-wave (km/s) = 7.13276 3.47274 5.60964
# Velocity P-wave (km/s) = 8.84926 6.43976 7.73886
#
# Compressibility (1/GPa) = 0.03996488
#
# Stress axis : x y z
#
# Youngs Moduli (GPa) = 28.43272 57.43144 328.27055
#
# Poissons Ratio (x) = 0.30579 0.52392
# Poissons Ratio (y) = 0.15139 0.29926
# Poissons Ratio (z) = 0.04538 0.05236
#
# Static dielectric constant tensor:
#      x y z
#    x 1.877260 0.000000 0.000000 
#    y 0.000000 1.896890 0.000000 
#    z 0.000000 0.000000 2.054040 
# 
# From -- ./inp_files/21249.got.cif
#   From: 2010.05.17/outbox.cif.g08.bks.cpg/sg66_11_cif.got.tgz:21249.got - 2010.06.03 17:51:23.
