data_PCOD9497205
_publ_section_title
;
Structure prediction by ZEFSAII (Michael W. Deem and Ramdas Pophale) SiO2 
 PCOD9497205
Probable space group: C C C M
;
_chemical_formula_sum "Si O2"
_cell_formula_units_Z 104
_cell_length_a 22.316697
_cell_length_b 10.295998
_cell_length_c 23.923982
_cell_angle_alpha 90.000000
_cell_angle_beta 90.000000
_cell_angle_gamma 90.000000
_cell_volume 5497.077166
_symmetry_space_group_name_H-M "C C C M"
_symmetry_group_IT_number 66
_symmetry_cell_setting 'orthorhombic'
loop_
_space_group_symop_operation_xyz
x,y,z
-x,-y,z
x,-y,1/2-z
-x,y,1/2-z
-x,-y,-z
x,y,-z
-x,y,1/2+z
x,-y,1/2+z
1/2+x,1/2+y,z
1/2-x,1/2-y,z
1/2+x,1/2-y,1/2-z
1/2-x,1/2+y,1/2-z
1/2-x,1/2-y,-z
1/2+x,1/2+y,-z
1/2-x,1/2+y,1/2+z
1/2+x,1/2-y,1/2+z
loop_
_atom_site_type_symbol
_atom_site_label
_atom_site_fract_x
_atom_site_fract_y
_atom_site_fract_z
Si Si1 0.815686 0.804731 0.066752
Si Si2 0.796153 0.356624 0.744926
Si Si3 0.000000 0.000000 0.876093
Si Si4 0.626235 0.426106 0.933313
Si Si5 0.615201 0.108978 0.357875
Si Si6 0.501432 0.229682 0.816562
Si Si7 0.635393 0.180366 0.858623
O O1 0.750000 0.750000 0.081203
O O2 0.863176 0.717405 0.099243
O O3 0.829041 0.954840 0.080815
O O4 0.823209 0.791883 0.000000
O O5 0.768076 0.500000 0.750000
O O6 0.750000 0.250000 0.724101
O O7 0.850040 0.371305 0.700892
O O8 0.820818 0.314361 0.805364
O O9 0.014207 0.125400 0.838048
O O10 0.940715 0.034791 0.912118
O O11 0.646343 0.294112 0.902812
O O12 0.624982 0.409553 0.000000
O O13 0.545829 0.130853 0.343903
O O14 0.634139 0.967560 0.380164
O O15 0.500000 0.221569 0.750000
O O16 0.568450 0.201954 0.835872
#
# Coordination Sequence:
#
# PCOD9497205 Si02
#       7
#    16  16   8  16  16  16  16
#     4  10  22  41  64  88 116 158 208 250 295 353
#     4  10  22  39  56  83 115 156 195 243 300 358
#     4  10  20  36  58  90 120 156 196 246 300 360
#     4  10  21  39  61  86 119 157 198 248 302 354
#     4  11  21  38  60  87 120 157 197 246 302 361
#     4  11  20  36  59  89 124 156 197 242 299 365
#     4  10  23  36  58  88 120 155 195 241 306 362
#
# _framework density 18.919145
#
# number of rings (size 3 to 8) (size 9 to 14) (size 15 to 20)
#    0.000    1.692    3.077    1.385    0.000    4.923 
#    0.000    0.000    0.000    6.000    0.000    0.000 
#    0.000    0.000    0.000    0.000    0.000    0.000 
#
# Total GULP energy -290371.162437 kJ/mol
# GULP energy per Si atom -5584.060816 kJ/mol
# Density = 1.887608 g / cm^3
# Si number density = 18.919145 Si / 1000 Ang^3
#
#
#
# Elastic Constant Matrix: (Units=GPa)
#
#
# Indices 1 2 3 4 5 6 
#
# 1 56.4194 37.1798 24.6279 0.0000 0.0000 0.0000
# 2 37.1798 136.0634 51.1236 0.0000 0.0000 0.0000
# 3 24.6279 51.1236 62.9885 0.0000 0.0000 0.0000
# 4 0.0000 0.0000 0.0000 30.1806 0.0000 0.0000
# 5 0.0000 0.0000 0.0000 0.0000 8.3799 0.0000
# 6 0.0000 0.0000 0.0000 0.0000 0.0000 28.3915
#
#
#
# Elastic Compliance Matrix: (Units=1/GPa)
#
#
# Indices 1 2 3 4 5 6 
#
# 1 0.022902 -0.004163 -0.005575 0.000000 0.000000 0.000000
# 2 -0.004163 0.011331 -0.007569 0.000000 0.000000 0.000000
# 3 -0.005575 -0.007569 0.024199 0.000000 0.000000 0.000000
# 4 0.000000 0.000000 0.000000 0.033134 0.000000 0.000000
# 5 0.000000 0.000000 0.000000 0.000000 0.119333 0.000000
# 6 0.000000 0.000000 0.000000 0.000000 0.000000 0.035222
#
#
# Mechanical properties :
#
#
# Convention : Reuss Voigt Hill
#
# Bulk Modulus (GPa) = 41.98709 53.48153 47.73431
# Shear Modulus (GPa) = 17.32060 22.89307 20.10684
#
# Velocity S-wave (km/s) = 3.02902 3.48235 3.26356
# Velocity P-wave (km/s) = 5.87149 6.67074 6.28384
#
# Compressibility (1/GPa) = 0.02381684
#
# Stress axis : x y z
#
# Youngs Moduli (GPa) = 43.66511 88.25366 41.32398
#
# Poissons Ratio (x) = 0.36741 0.23040
# Poissons Ratio (y) = 0.18178 0.31278
# Poissons Ratio (z) = 0.24345 0.66798
#
# Static dielectric constant tensor:
#      x y z
#    x 1.658380 0.000000 0.000000 
#    y 0.000000 1.676740 0.000000 
#    z 0.000000 0.000000 1.620910 
# 
# From -- ./inp_files/66062.got.cif
#   From: 2010.05.17/outbox.cif.g08.bks.cpg/sg66_34_cif.got.tgz:66062.got - 2010.06.03 17:51:23.
