data_PCOD9497999
_publ_section_title
;
Structure prediction by ZEFSAII (Michael W. Deem and Ramdas Pophale) SiO2 
 PCOD9497999
Probable space group: C C C M
;
_chemical_formula_sum "Si O2"
_cell_formula_units_Z 80
_cell_length_a 18.352571
_cell_length_b 7.800163
_cell_length_c 26.599820
_cell_angle_alpha 90.000000
_cell_angle_beta 90.000000
_cell_angle_gamma 90.000000
_cell_volume 3807.845237
_symmetry_space_group_name_H-M "C C C M"
_symmetry_group_IT_number 66
_symmetry_cell_setting 'orthorhombic'
loop_
_space_group_symop_operation_xyz
x,y,z
-x,-y,z
x,-y,1/2-z
-x,y,1/2-z
-x,-y,-z
x,y,-z
-x,y,1/2+z
x,-y,1/2+z
1/2+x,1/2+y,z
1/2-x,1/2-y,z
1/2+x,1/2-y,1/2-z
1/2-x,1/2+y,1/2-z
1/2-x,1/2-y,-z
1/2+x,1/2+y,-z
1/2-x,1/2+y,1/2+z
1/2+x,1/2-y,1/2+z
loop_
_atom_site_type_symbol
_atom_site_label
_atom_site_fract_x
_atom_site_fract_y
_atom_site_fract_z
Si Si1 0.026800 0.197037 0.697640
Si Si2 0.229176 0.949433 0.500000
Si Si3 0.577870 0.753660 0.109341
Si Si4 0.655891 0.398525 0.859400
Si Si5 0.061850 0.859013 0.500000
Si Si6 0.306174 0.051499 0.602819
O O1 0.112926 0.176870 0.688593
O O2 0.000000 0.275800 0.750000
O O3 0.987096 0.277611 0.649186
O O4 0.000000 0.000000 0.698294
O O5 0.250000 0.750000 0.500000
O O6 0.141754 0.948460 0.500000
O O7 0.265489 0.024499 0.549926
O O8 0.613682 0.566660 0.121156
O O9 0.638525 0.899547 0.114013
O O10 0.554868 0.748265 0.051230
O O11 0.655308 0.235852 0.896790
O O12 0.740867 0.445288 0.856177
O O13 0.000000 0.000000 0.500000
#
# Coordination Sequence:
#
# PCOD9497999 Si02
#       6
#    16   8  16  16   8  16
#     4   9  20  41  69  89 120 170 215 264 322 378
#     4  12  20  38  61  89 130 177 211 248 326 391
#     4  11  21  39  63  88 125 165 210 259 315 379
#     4  10  21  37  61  90 121 158 213 259 309 380
#     4  12  22  35  62  94 125 168 213 254 311 381
#     4  11  22  36  60  92 128 163 204 260 319 378
#
# _framework density 21.009257000000002
#
# number of rings (size 3 to 8) (size 9 to 14) (size 15 to 20)
#    0.000    1.400    4.000    2.400    0.000    3.200 
#    0.000    3.000   35.200    3.600    0.000    0.000 
#    0.000    0.000    0.000    0.000    0.000    0.000 
#
# Total GULP energy -223275.405482 kJ/mol
# GULP energy per Si atom -5581.885137 kJ/mol
# Density = 2.096144 g / cm^3
# Si number density = 21.009257 Si / 1000 Ang^3
#
#
#
# Elastic Constant Matrix: (Units=GPa)
#
#
# Indices 1 2 3 4 5 6 
#
# 1 118.1429 41.7862 40.4878 0.0000 0.0000 0.0000
# 2 41.7862 101.0737 31.9137 0.0000 0.0000 0.0000
# 3 40.4878 31.9137 87.8888 0.0000 0.0000 0.0000
# 4 0.0000 0.0000 0.0000 -8.9240 0.0000 0.0000
# 5 0.0000 0.0000 0.0000 0.0000 27.0974 0.0000
# 6 0.0000 0.0000 0.0000 0.0000 0.0000 4.6987
#
#
#
# Elastic Compliance Matrix: (Units=1/GPa)
#
#
# Indices 1 2 3 4 5 6 
#
# 1 0.010954 -0.003315 -0.003842 0.000000 0.000000 0.000000
# 2 -0.003315 0.012178 -0.002895 0.000000 0.000000 0.000000
# 3 -0.003842 -0.002895 0.014199 0.000000 0.000000 0.000000
# 4 0.000000 0.000000 0.000000 -0.112057 0.000000 0.000000
# 5 0.000000 0.000000 0.000000 0.000000 0.036904 0.000000
# 6 0.000000 0.000000 0.000000 0.000000 0.000000 0.212825
#
#
# Mechanical properties :
#
#
# Convention : Reuss Voigt Hill
#
# Bulk Modulus (GPa) = 58.05025 59.49788 58.77406
# Shear Modulus (GPa) = 24.89413 17.43559 21.16486
#
# Velocity S-wave (km/s) = 3.44599 2.88392 3.17741
# Velocity P-wave (km/s) = 6.59727 6.28257 6.44184
#
# Compressibility (1/GPa) = 0.01722646
#
# Stress axis : x y z
#
# Youngs Moduli (GPa) = 91.29374 82.11216 70.42668
#
# Poissons Ratio (x) = 0.27223 0.27059
# Poissons Ratio (y) = 0.30267 0.20388
# Poissons Ratio (z) = 0.35077 0.23771
#
# Static dielectric constant tensor:
#      x y z
#    x 1.746600 0.000000 0.000000 
#    y 0.000000 1.748680 0.000000 
#    z 0.000000 0.000000 1.848900 
# 
# From -- ./inp_files/65118.got.cif
#   From: 2010.05.17/outbox.cif.g08.bks.cpg/sg66_33_cif.got.tgz:65118.got - 2010.06.03 17:51:23.
