data_PCOD9497143
_publ_section_title
;
Structure prediction by ZEFSAII (Michael W. Deem and Ramdas Pophale) SiO2 
 PCOD9497143
Probable space group: C C C M
;
_chemical_formula_sum "Si O2"
_cell_formula_units_Z 104
_cell_length_a 16.227713
_cell_length_b 22.256464
_cell_length_c 16.429380
_cell_angle_alpha 90.000000
_cell_angle_beta 90.000000
_cell_angle_gamma 90.000000
_cell_volume 5933.823986
_symmetry_space_group_name_H-M "C C C M"
_symmetry_group_IT_number 66
_symmetry_cell_setting 'orthorhombic'
loop_
_space_group_symop_operation_xyz
x,y,z
-x,-y,z
x,-y,1/2-z
-x,y,1/2-z
-x,-y,-z
x,y,-z
-x,y,1/2+z
x,-y,1/2+z
1/2+x,1/2+y,z
1/2-x,1/2-y,z
1/2+x,1/2-y,1/2-z
1/2-x,1/2+y,1/2-z
1/2-x,1/2-y,-z
1/2+x,1/2+y,-z
1/2-x,1/2+y,1/2+z
1/2+x,1/2-y,1/2+z
loop_
_atom_site_type_symbol
_atom_site_label
_atom_site_fract_x
_atom_site_fract_y
_atom_site_fract_z
Si Si1 0.588703 0.775377 0.903422
Si Si2 0.637159 0.933900 0.746373
Si Si3 0.967912 0.068091 0.092741
Si Si4 0.707510 0.886524 0.912373
Si Si5 0.500000 0.836466 0.250000
Si Si6 0.621432 0.359932 0.349258
Si Si7 0.817068 0.935885 0.295657
O O1 0.667695 0.820075 0.903686
O O2 0.527632 0.800619 0.831992
O O3 0.612668 0.709404 0.872375
O O4 0.561011 0.773571 0.000000
O O5 0.672359 0.922672 0.836937
O O6 0.575004 0.880788 0.726796
O O7 0.719234 0.933689 0.691002
O O8 0.599138 0.000000 0.750000
O O9 0.876446 0.067950 0.127926
O O10 0.033372 0.108597 0.140607
O O11 0.969448 0.088649 0.000000
O O12 0.000000 0.000000 0.097401
O O13 0.806109 0.885314 0.906950
O O14 0.681140 0.910460 0.000000
O O15 0.656274 0.380090 0.261695
O O16 0.833451 0.000000 0.250000
#
# Coordination Sequence:
#
# PCOD9497143 Si02
#       7
#    16  16  16  16   8  16  16
#     4  10  21  36  55  81 108 137 179 227 274 321
#     4   9  19  36  57  80 104 139 174 216 271 327
#     4  11  22  33  49  76 109 144 181 218 253 307
#     4   9  18  34  55  81 109 131 170 231 277 312
#     4  10  21  38  58  80 107 138 176 224 276 322
#     4  11  20  32  55  78 105 143 178 215 272 317
#     4  10  20  36  52  75 109 140 177 220 267 315
#
# _framework density 17.526641000000001
#
# number of rings (size 3 to 8) (size 9 to 14) (size 15 to 20)
#    0.000    2.000    1.538    2.538    2.154    1.231 
#    0.000    1.538    0.000    3.692    0.000    2.154 
#    0.000    0.000    0.000    0.000    0.000    0.000 
#
# Total GULP energy -289628.878205 kJ/mol
# GULP energy per Si atom -5569.786119 kJ/mol
# Density = 1.748675 g / cm^3
# Si number density = 17.526641 Si / 1000 Ang^3
#
#
#
# Elastic Constant Matrix: (Units=GPa)
#
#
# Indices 1 2 3 4 5 6 
#
# 1 74.7665 5.8512 15.3944 0.0000 0.0000 0.0000
# 2 5.8512 66.0635 15.8714 0.0000 0.0000 0.0000
# 3 15.3944 15.8714 40.9841 0.0000 0.0000 0.0000
# 4 0.0000 0.0000 0.0000 14.0903 0.0000 0.0000
# 5 0.0000 0.0000 0.0000 0.0000 19.1083 0.0000
# 6 0.0000 0.0000 0.0000 0.0000 0.0000 16.2011
#
#
#
# Elastic Compliance Matrix: (Units=1/GPa)
#
#
# Indices 1 2 3 4 5 6 
#
# 1 0.014496 0.000027 -0.005455 0.000000 0.000000 0.000000
# 2 0.000027 0.016690 -0.006473 0.000000 0.000000 0.000000
# 3 -0.005455 -0.006473 0.028956 0.000000 0.000000 0.000000
# 4 0.000000 0.000000 0.000000 0.070971 0.000000 0.000000
# 5 0.000000 0.000000 0.000000 0.000000 0.052333 0.000000
# 6 0.000000 0.000000 0.000000 0.000000 0.000000 0.061724
#
#
# Mechanical properties :
#
#
# Convention : Reuss Voigt Hill
#
# Bulk Modulus (GPa) = 27.51962 28.44979 27.98470
# Shear Modulus (GPa) = 17.78817 19.52644 18.65730
#
# Velocity S-wave (km/s) = 3.18924 3.34144 3.26622
# Velocity P-wave (km/s) = 5.41270 5.58162 5.49781
#
# Compressibility (1/GPa) = 0.03633772
#
# Stress axis : x y z
#
# Youngs Moduli (GPa) = 68.98386 59.91708 34.53560
#
# Poissons Ratio (x) = -0.00160 0.18840
# Poissons Ratio (y) = -0.00184 0.22356
# Poissons Ratio (z) = 0.37633 0.38786
#
# Static dielectric constant tensor:
#      x y z
#    x 1.602620 0.000000 0.000000 
#    y 0.000000 1.600980 0.000000 
#    z 0.000000 0.000000 1.628480 
# 
# From -- ./inp_files/30344.got.cif
#   From: 2010.05.17/outbox.cif.g08.bks.cpg/sg66_16_cif.got.tgz:30344.got - 2010.06.03 17:51:23.
