data_PCOD9497560
_publ_section_title
;
Structure prediction by ZEFSAII (Michael W. Deem and Ramdas Pophale) SiO2 
 PCOD9497560
Probable space group: C C C M
;
_chemical_formula_sum "Si O2"
_cell_formula_units_Z 104
_cell_length_a 18.985164
_cell_length_b 28.525967
_cell_length_c 8.509510
_cell_angle_alpha 90.000000
_cell_angle_beta 90.000000
_cell_angle_gamma 90.000000
_cell_volume 4608.496707
_symmetry_space_group_name_H-M "C C C M"
_symmetry_group_IT_number 66
_symmetry_cell_setting 'orthorhombic'
loop_
_space_group_symop_operation_xyz
x,y,z
-x,-y,z
x,-y,1/2-z
-x,y,1/2-z
-x,-y,-z
x,y,-z
-x,y,1/2+z
x,-y,1/2+z
1/2+x,1/2+y,z
1/2-x,1/2-y,z
1/2+x,1/2-y,1/2-z
1/2-x,1/2+y,1/2-z
1/2-x,1/2-y,-z
1/2+x,1/2+y,-z
1/2-x,1/2+y,1/2+z
1/2+x,1/2-y,1/2+z
loop_
_atom_site_type_symbol
_atom_site_label
_atom_site_fract_x
_atom_site_fract_y
_atom_site_fract_z
Si Si1 0.071115 0.403220 0.675406
Si Si2 0.500000 0.726104 0.250000
Si Si3 0.112718 0.155113 0.808106
Si Si4 0.259543 0.194268 0.680735
Si Si5 0.797210 0.450124 0.686402
Si Si6 0.590550 0.813967 0.829692
Si Si7 0.635826 0.550505 0.811131
O O1 0.077182 0.419925 0.500000
O O2 0.143930 0.414144 0.760784
O O3 0.064513 0.347035 0.689078
O O4 0.000000 0.423346 0.750000
O O5 0.560736 0.688366 0.292596
O O6 0.550769 0.764363 0.166796
O O7 0.191921 0.169677 0.759206
O O8 0.100028 0.100118 0.771469
O O9 0.103397 0.161901 0.000000
O O10 0.270569 0.176530 0.500000
O O11 0.250000 0.250000 0.667783
O O12 0.327304 0.190618 0.791924
O O13 0.822072 0.500000 0.750000
O O14 0.793511 0.450303 0.500000
O O15 0.717268 0.443848 0.745922
O O16 0.580433 0.837220 0.000000
O O17 0.609384 0.500000 0.750000
O O18 0.636370 0.547638 0.000000
#
# Coordination Sequence:
#
# PCOD9497560 Si02
#       7
#    16   8  16  16  16  16  16
#     4  12  25  40  60  87 123 168 217 268 325 387
#     4  12  26  40  65  94 131 174 224 270 324 390
#     4  11  24  44  69  98 133 176 222 270 329 394
#     4  11  24  40  63  95 131 167 215 270 322 385
#     4  10  20  38  64  95 128 163 210 266 327 393
#     4  12  25  43  66  90 126 175 223 272 326 389
#     4   9  20  40  68  97 125 161 207 262 324 389
#
# _framework density 22.567012999999999
#
# number of rings (size 3 to 8) (size 9 to 14) (size 15 to 20)
#    0.000    1.077    2.308    4.154    0.000    6.462 
#    0.000    1.923    0.000    1.846    0.000    0.000 
#    0.000    0.000    0.000    0.000    0.000    0.000 
#
# Total GULP energy -289937.188502 kJ/mol
# GULP energy per Si atom -5575.715164 kJ/mol
# Density = 2.251565 g / cm^3
# Si number density = 22.567013 Si / 1000 Ang^3
#
#
#
# Elastic Constant Matrix: (Units=GPa)
#
#
# Indices 1 2 3 4 5 6 
#
# 1 80.6518 11.4845 11.4518 0.0000 0.0000 0.0000
# 2 11.4845 122.3735 5.2278 0.0000 0.0000 0.0000
# 3 11.4518 5.2278 66.9627 0.0000 0.0000 0.0000
# 4 0.0000 0.0000 0.0000 22.7418 0.0000 0.0000
# 5 0.0000 0.0000 0.0000 0.0000 5.0542 0.0000
# 6 0.0000 0.0000 0.0000 0.0000 0.0000 32.0783
#
#
#
# Elastic Compliance Matrix: (Units=1/GPa)
#
#
# Indices 1 2 3 4 5 6 
#
# 1 0.012858 -0.001116 -0.002112 0.000000 0.000000 0.000000
# 2 -0.001116 0.008296 -0.000457 0.000000 0.000000 0.000000
# 3 -0.002112 -0.000457 0.015330 0.000000 0.000000 0.000000
# 4 0.000000 0.000000 0.000000 0.043972 0.000000 0.000000
# 5 0.000000 0.000000 0.000000 0.000000 0.197856 0.000000
# 6 0.000000 0.000000 0.000000 0.000000 0.000000 0.031174
#
#
# Mechanical properties :
#
#
# Convention : Reuss Voigt Hill
#
# Bulk Modulus (GPa) = 34.34729 36.25736 35.30232
# Shear Modulus (GPa) = 15.31112 28.09647 21.70379
#
# Velocity S-wave (km/s) = 2.60758 3.53232 3.10457
# Velocity P-wave (km/s) = 4.93144 5.72169 5.34120
#
# Compressibility (1/GPa) = 0.02911438
#
# Stress axis : x y z
#
# Youngs Moduli (GPa) = 77.77376 120.54013 65.22952
#
# Poissons Ratio (x) = 0.13458 0.13775
# Poissons Ratio (y) = 0.08683 0.02979
# Poissons Ratio (z) = 0.16424 0.05505
#
# Static dielectric constant tensor:
#      x y z
#    x 1.891000 0.000000 0.000000 
#    y 0.000000 1.851580 0.000000 
#    z 0.000000 0.000000 1.857540 
# 
# From -- ./inp_files/8140.got.cif
#   From: 2010.05.17/outbox.cif.g08.bks.cpg/sg66_5_cif.got.tgz:8140.got - 2010.06.03 17:51:23.
