data_PCOD9497452
_publ_section_title
;
Structure prediction by ZEFSAII (Michael W. Deem and Ramdas Pophale) SiO2 
 PCOD9497452
Probable space group: C C C M
;
_chemical_formula_sum "Si O2"
_cell_formula_units_Z 88
_cell_length_a 11.563701
_cell_length_b 16.374845
_cell_length_c 23.804235
_cell_angle_alpha 90.000000
_cell_angle_beta 90.000000
_cell_angle_gamma 90.000000
_cell_volume 4507.422627
_symmetry_space_group_name_H-M "C C C M"
_symmetry_group_IT_number 66
_symmetry_cell_setting 'orthorhombic'
loop_
_space_group_symop_operation_xyz
x,y,z
-x,-y,z
x,-y,1/2-z
-x,y,1/2-z
-x,-y,-z
x,y,-z
-x,y,1/2+z
x,-y,1/2+z
1/2+x,1/2+y,z
1/2-x,1/2-y,z
1/2+x,1/2-y,1/2-z
1/2-x,1/2+y,1/2-z
1/2-x,1/2-y,-z
1/2+x,1/2+y,-z
1/2-x,1/2+y,1/2+z
1/2+x,1/2-y,1/2+z
loop_
_atom_site_type_symbol
_atom_site_label
_atom_site_fract_x
_atom_site_fract_y
_atom_site_fract_z
Si Si1 0.750000 0.250000 0.292673
Si Si2 0.607272 0.359032 0.787876
Si Si3 0.529259 0.768072 0.133659
Si Si4 0.436084 0.613819 0.435904
Si Si5 0.328984 0.461704 0.608029
Si Si6 0.924845 0.417771 0.065677
O O1 0.701756 0.321581 0.253260
O O2 0.643807 0.217639 0.329855
O O3 0.500000 0.388142 0.750000
O O4 0.558019 0.284570 0.826837
O O5 0.655043 0.427466 0.829433
O O6 0.564790 0.706228 0.084062
O O7 0.472917 0.847521 0.106524
O O8 0.400598 0.603470 0.500000
O O9 0.566487 0.580323 0.427058
O O10 0.355127 0.557696 0.397006
O O11 0.206544 0.437893 0.582653
O O12 0.000000 0.500000 0.071584
O O13 0.929827 0.392368 0.000000
#
# Coordination Sequence:
#
# PCOD9497452 Si02
#       6
#     8  16  16  16  16  16
#     4  10  20  38  61  84 121 164 204 262 300 364
#     4   9  19  38  64  90 117 155 201 256 304 357
#     4  10  22  38  62  89 121 160 212 250 315 374
#     4  10  20  37  63  94 122 155 201 258 312 369
#     4  10  20  38  63  90 124 158 200 256 313 369
#     4  11  24  40  59  87 126 167 204 250 310 377
#
# _framework density 19.523353
#
# number of rings (size 3 to 8) (size 9 to 14) (size 15 to 20)
#    0.000    2.000    0.000    3.818    2.545    2.182 
#    0.000   20.909    4.000    3.818    0.000    0.000 
#    0.000    0.000    0.000    0.000    0.000    0.000 
#
# Total GULP energy -245882.615871 kJ/mol
# GULP energy per Si atom -5588.241270 kJ/mol
# Density = 1.947892 g / cm^3
# Si number density = 19.523353 Si / 1000 Ang^3
#
#
#
# Elastic Constant Matrix: (Units=GPa)
#
#
# Indices 1 2 3 4 5 6 
#
# 1 108.5567 51.9896 56.7223 0.0000 0.0000 0.0000
# 2 51.9896 84.9282 40.8388 0.0000 0.0000 0.0000
# 3 56.7223 40.8388 88.2024 0.0000 0.0000 0.0000
# 4 0.0000 0.0000 0.0000 19.1948 0.0000 0.0000
# 5 0.0000 0.0000 0.0000 0.0000 21.0269 0.0000
# 6 0.0000 0.0000 0.0000 0.0000 0.0000 17.8576
#
#
#
# Elastic Compliance Matrix: (Units=1/GPa)
#
#
# Indices 1 2 3 4 5 6 
#
# 1 0.016115 -0.006280 -0.007456 0.000000 0.000000 0.000000
# 2 -0.006280 0.017594 -0.004108 0.000000 0.000000 0.000000
# 3 -0.007456 -0.004108 0.018034 0.000000 0.000000 0.000000
# 4 0.000000 0.000000 0.000000 0.052097 0.000000 0.000000
# 5 0.000000 0.000000 0.000000 0.000000 0.047558 0.000000
# 6 0.000000 0.000000 0.000000 0.000000 0.000000 0.055999
#
#
# Mechanical properties :
#
#
# Convention : Reuss Voigt Hill
#
# Bulk Modulus (GPa) = 62.27952 64.53207 63.40580
# Shear Modulus (GPa) = 20.12584 20.42497 20.27540
#
# Velocity S-wave (km/s) = 3.21418 3.23798 3.22610
# Velocity P-wave (km/s) = 6.76342 6.86330 6.81355
#
# Compressibility (1/GPa) = 0.01605664
#
# Stress axis : x y z
#
# Youngs Moduli (GPa) = 62.05389 56.83710 55.44965
#
# Poissons Ratio (x) = 0.35692 0.41343
# Poissons Ratio (y) = 0.38968 0.22778
# Poissons Ratio (z) = 0.46267 0.23348
#
# Static dielectric constant tensor:
#      x y z
#    x 1.663060 0.000000 0.000000 
#    y 0.000000 1.676260 0.000000 
#    z 0.000000 0.000000 1.678180 
# 
# From -- ./inp_files/56743.got.cif
#   From: 2010.05.17/outbox.cif.g08.bks.cpg/sg66_29_cif.got.tgz:56743.got - 2010.06.03 17:51:23.
