data_PCOD9497563
_publ_section_title
;
Structure prediction by ZEFSAII (Michael W. Deem and Ramdas Pophale) SiO2 
 PCOD9497563
Probable space group: C C C M
;
_chemical_formula_sum "Si O2"
_cell_formula_units_Z 112
_cell_length_a 19.472225
_cell_length_b 13.516903
_cell_length_c 26.126431
_cell_angle_alpha 90.000000
_cell_angle_beta 90.000000
_cell_angle_gamma 90.000000
_cell_volume 6876.585757
_symmetry_space_group_name_H-M "C C C M"
_symmetry_group_IT_number 66
_symmetry_cell_setting 'orthorhombic'
loop_
_space_group_symop_operation_xyz
x,y,z
-x,-y,z
x,-y,1/2-z
-x,y,1/2-z
-x,-y,-z
x,y,-z
-x,y,1/2+z
x,-y,1/2+z
1/2+x,1/2+y,z
1/2-x,1/2-y,z
1/2+x,1/2-y,1/2-z
1/2-x,1/2+y,1/2-z
1/2-x,1/2-y,-z
1/2+x,1/2+y,-z
1/2-x,1/2+y,1/2+z
1/2+x,1/2-y,1/2+z
loop_
_atom_site_type_symbol
_atom_site_label
_atom_site_fract_x
_atom_site_fract_y
_atom_site_fract_z
Si Si1 0.958171 0.794499 0.696833
Si Si2 0.197240 0.158477 0.059392
Si Si3 0.304501 0.839510 0.705761
Si Si4 0.092452 0.798363 0.648957
Si Si5 0.684053 0.822749 0.679936
Si Si6 0.752807 0.493283 0.128953
Si Si7 0.374176 0.488898 0.694215
O O1 0.888474 0.733905 0.685373
O O2 0.933646 0.908385 0.699266
O O3 0.000000 0.771491 0.750000
O O4 0.011737 0.779115 0.650680
O O5 0.250000 0.250000 0.065485
O O6 0.133058 0.184534 0.096153
O O7 0.233719 0.057029 0.078847
O O8 0.178279 0.150576 0.000000
O O9 0.250000 0.750000 0.705779
O O10 0.371337 0.788378 0.681305
O O11 0.311180 0.873690 0.764051
O O12 0.278307 0.923309 0.668347
O O13 0.101827 0.902425 0.678407
O O14 0.750000 0.750000 0.676440
O O15 0.693936 0.903022 0.634696
O O16 0.681063 0.454673 0.152556
O O17 0.340701 0.500000 0.750000
#
# Coordination Sequence:
#
# PCOD9497563 Si02
#       7
#    16  16  16  16  16  16  16
#     4  12  22  33  48  78 121 157 190 218 263 344
#     4  10  20  38  65  88 105 136 189 252 299 328
#     4  11  17  31  50  80 116 147 177 223 279 333
#     4  11  20  32  53  81 120 140 177 236 290 331
#     4  11  22  33  50  77 115 158 194 214 257 341
#     4  11  20  33  55  80 108 146 192 235 279 327
#     4  11  18  29  49  81 110 149 185 221 263 333
#
# _framework density 16.287151999999999
#
# number of rings (size 3 to 8) (size 9 to 14) (size 15 to 20)
#    0.000    1.000    8.571    1.714    0.000    0.000 
#    0.000    0.714    0.000    8.143    0.000    2.000 
#    0.000    0.000    0.000    0.000    0.000    0.000 
#
# Total GULP energy -312033.213903 kJ/mol
# GULP energy per Si atom -5572.021677 kJ/mol
# Density = 1.625008 g / cm^3
# Si number density = 16.287152 Si / 1000 Ang^3
#
#
#
# Elastic Constant Matrix: (Units=GPa)
#
#
# Indices 1 2 3 4 5 6 
#
# 1 103.0860 31.2959 35.0679 0.0000 0.0000 0.0000
# 2 31.2959 53.5886 26.8161 0.0000 0.0000 0.0000
# 3 35.0679 26.8161 88.8760 0.0000 0.0000 0.0000
# 4 0.0000 0.0000 0.0000 17.1562 0.0000 0.0000
# 5 0.0000 0.0000 0.0000 0.0000 15.7858 0.0000
# 6 0.0000 0.0000 0.0000 0.0000 0.0000 29.9205
#
#
#
# Elastic Compliance Matrix: (Units=1/GPa)
#
#
# Indices 1 2 3 4 5 6 
#
# 1 0.012529 -0.005704 -0.003222 0.000000 0.000000 0.000000
# 2 -0.005704 0.024576 -0.005165 0.000000 0.000000 0.000000
# 3 -0.003222 -0.005165 0.014081 0.000000 0.000000 0.000000
# 4 0.000000 0.000000 0.000000 0.058288 0.000000 0.000000
# 5 0.000000 0.000000 0.000000 0.000000 0.063348 0.000000
# 6 0.000000 0.000000 0.000000 0.000000 0.000000 0.033422
#
#
# Mechanical properties :
#
#
# Convention : Reuss Voigt Hill
#
# Bulk Modulus (GPa) = 43.47062 47.99003 45.73033
# Shear Modulus (GPa) = 20.65309 22.73056 21.69183
#
# Velocity S-wave (km/s) = 3.56485 3.73984 3.65339
# Velocity P-wave (km/s) = 6.61001 6.94100 6.77753
#
# Compressibility (1/GPa) = 0.02300404
#
# Stress axis : x y z
#
# Youngs Moduli (GPa) = 79.81774 40.68946 71.01599
#
# Poissons Ratio (x) = 0.23210 0.22883
# Poissons Ratio (y) = 0.45530 0.36677
# Poissons Ratio (z) = 0.25720 0.21014
#
# Static dielectric constant tensor:
#      x y z
#    x 1.599630 0.000000 0.000000 
#    y 0.000000 1.586010 0.000000 
#    z 0.000000 0.000000 1.539590 
# 
# From -- ./inp_files/65850.got.cif
#   From: 2010.05.17/outbox.cif.g08.bks.cpg/sg66_33_cif.got.tgz:65850.got - 2010.06.03 17:51:23.
