data_PCOD9497796
_publ_section_title
;
Structure prediction by ZEFSAII (Michael W. Deem and Ramdas Pophale) SiO2 
 PCOD9497796
Probable space group: C C C M
;
_chemical_formula_sum "Si O2"
_cell_formula_units_Z 80
_cell_length_a 18.249567
_cell_length_b 17.176054
_cell_length_c 14.028314
_cell_angle_alpha 90.000000
_cell_angle_beta 90.000000
_cell_angle_gamma 90.000000
_cell_volume 4397.252856
_symmetry_space_group_name_H-M "C C C M"
_symmetry_group_IT_number 66
_symmetry_cell_setting 'orthorhombic'
loop_
_space_group_symop_operation_xyz
x,y,z
-x,-y,z
x,-y,1/2-z
-x,y,1/2-z
-x,-y,-z
x,y,-z
-x,y,1/2+z
x,-y,1/2+z
1/2+x,1/2+y,z
1/2-x,1/2-y,z
1/2+x,1/2-y,1/2-z
1/2-x,1/2+y,1/2-z
1/2-x,1/2-y,-z
1/2+x,1/2+y,-z
1/2-x,1/2+y,1/2+z
1/2+x,1/2-y,1/2+z
loop_
_atom_site_type_symbol
_atom_site_label
_atom_site_fract_x
_atom_site_fract_y
_atom_site_fract_z
Si Si1 0.346052 0.121125 0.228601
Si Si2 0.080010 0.226758 0.705353
Si Si3 0.688679 0.582434 0.704558
Si Si4 0.626597 0.766761 0.500000
Si Si5 0.236737 0.119612 0.500000
Si Si6 0.586523 0.991821 0.388849
O O1 0.374940 0.208299 0.236115
O O2 0.258971 0.115948 0.239154
O O3 0.380461 0.072631 0.317930
O O4 0.374571 0.072802 0.138542
O O5 0.123992 0.145533 0.705595
O O6 0.080202 0.259595 0.596644
O O7 0.000000 0.219114 0.750000
O O8 0.668081 0.500000 0.750000
O O9 0.718948 0.573429 0.596316
O O10 0.684236 0.838148 0.500000
O O11 0.679987 0.691765 0.500000
O O12 0.595925 0.974616 0.500000
O O13 0.500000 0.000000 0.369948
#
# Coordination Sequence:
#
# PCOD9497796 Si02
#       6
#    16  16  16   8   8  16
#     4  11  20  36  58  87 116 154 198 241 296 352
#     4  11  23  39  61  89 122 154 200 249 301 352
#     4  11  22  38  63  90 118 155 199 252 298 350
#     4   9  18  36  65  88 111 148 201 257 292 333
#     4   9  18  36  63  92 109 144 207 255 288 339
#     4  10  21  35  55  86 123 157 190 237 300 363
#
# _framework density 18.193176999999999
#
# number of rings (size 3 to 8) (size 9 to 14) (size 15 to 20)
#    0.000    1.600    4.000    3.000    2.800    0.400 
#    1.800    1.000    0.000    4.800    0.000    0.000 
#    0.000    0.000    0.000    0.000    0.000    0.000 
#
# Total GULP energy -223353.166199 kJ/mol
# GULP energy per Si atom -5583.829155 kJ/mol
# Density = 1.815177 g / cm^3
# Si number density = 18.193177 Si / 1000 Ang^3
#
#
#
# Elastic Constant Matrix: (Units=GPa)
#
#
# Indices 1 2 3 4 5 6 
#
# 1 79.6346 31.0907 27.9140 0.0000 0.0000 0.0000
# 2 31.0907 109.6532 25.9780 0.0000 0.0000 0.0000
# 3 27.9140 25.9780 60.5209 0.0000 0.0000 0.0000
# 4 0.0000 0.0000 0.0000 27.1080 0.0000 0.0000
# 5 0.0000 0.0000 0.0000 0.0000 26.3885 0.0000
# 6 0.0000 0.0000 0.0000 0.0000 0.0000 17.2150
#
#
#
# Elastic Compliance Matrix: (Units=1/GPa)
#
#
# Indices 1 2 3 4 5 6 
#
# 1 0.015860 -0.003077 -0.005994 0.000000 0.000000 0.000000
# 2 -0.003077 0.010749 -0.003195 0.000000 0.000000 0.000000
# 3 -0.005994 -0.003195 0.020659 0.000000 0.000000 0.000000
# 4 0.000000 0.000000 0.000000 0.036889 0.000000 0.000000
# 5 0.000000 0.000000 0.000000 0.000000 0.037895 0.000000
# 6 0.000000 0.000000 0.000000 0.000000 0.000000 0.058089
#
#
# Mechanical properties :
#
#
# Convention : Reuss Voigt Hill
#
# Bulk Modulus (GPa) = 43.98254 46.64158 45.31206
# Shear Modulus (GPa) = 23.55689 25.13068 24.34378
#
# Velocity S-wave (km/s) = 3.60226 3.72065 3.66194
# Velocity P-wave (km/s) = 6.44434 6.64456 6.54521
#
# Compressibility (1/GPa) = 0.02273630
#
# Stress axis : x y z
#
# Youngs Moduli (GPa) = 63.05287 93.03275 48.40432
#
# Poissons Ratio (x) = 0.28623 0.29015
# Poissons Ratio (y) = 0.19399 0.15464
# Poissons Ratio (z) = 0.37796 0.29722
#
# Static dielectric constant tensor:
#      x y z
#    x 1.614590 0.000000 0.000000 
#    y 0.000000 1.629770 0.000000 
#    z 0.000000 0.000000 1.656520 
# 
# From -- ./inp_files/29994.got.cif
#   From: 2010.05.17/outbox.cif.g08.bks.cpg/sg66_15_cif.got.tgz:29994.got - 2010.06.03 17:51:23.
