data_PCOD9497993
_publ_section_title
;
Structure prediction by ZEFSAII (Michael W. Deem and Ramdas Pophale) SiO2 
 PCOD9497993
Probable space group: C C C M
;
_chemical_formula_sum "Si O2"
_cell_formula_units_Z 88
_cell_length_a 31.638454
_cell_length_b 7.728213
_cell_length_c 17.174113
_cell_angle_alpha 90.000000
_cell_angle_beta 90.000000
_cell_angle_gamma 90.000000
_cell_volume 4199.220241
_symmetry_space_group_name_H-M "C C C M"
_symmetry_group_IT_number 66
_symmetry_cell_setting 'orthorhombic'
loop_
_space_group_symop_operation_xyz
x,y,z
-x,-y,z
x,-y,1/2-z
-x,y,1/2-z
-x,-y,-z
x,y,-z
-x,y,1/2+z
x,-y,1/2+z
1/2+x,1/2+y,z
1/2-x,1/2-y,z
1/2+x,1/2-y,1/2-z
1/2-x,1/2+y,1/2-z
1/2-x,1/2-y,-z
1/2+x,1/2+y,-z
1/2-x,1/2+y,1/2+z
1/2+x,1/2-y,1/2+z
loop_
_atom_site_type_symbol
_atom_site_label
_atom_site_fract_x
_atom_site_fract_y
_atom_site_fract_z
Si Si1 0.864045 0.509594 0.589681
Si Si2 0.953390 0.455489 0.840195
Si Si3 0.210583 0.656167 0.306248
Si Si4 0.324771 0.500000 0.750000
Si Si5 0.042250 0.106011 0.413310
Si Si6 0.864659 0.067602 0.914062
O O1 0.859109 0.457503 0.500000
O O2 0.911711 0.468601 0.618898
O O3 0.827573 0.420492 0.641596
O O4 0.862069 0.721307 0.591744
O O5 0.951840 0.500000 0.750000
O O6 0.951918 0.249882 0.848908
O O7 0.000000 0.500000 0.872568
O O8 0.224606 0.500000 0.250000
O O9 0.250000 0.750000 0.350144
O O10 0.196106 0.811020 0.249988
O O11 0.346480 0.493408 0.834805
O O12 0.039250 0.189593 0.500000
O O13 0.086436 0.007372 0.414871
O O14 0.000000 0.000000 0.401119
O O15 0.846491 0.022393 0.000000
#
# Coordination Sequence:
#
# PCOD9497993 Si02
#       6
#    16  16  16   8  16  16
#     4  10  22  42  69  97 137 183 229 293 353 420
#     4  10  21  37  60  95 134 179 228 276 337 411
#     4  12  25  45  71 102 136 175 233 286 358 428
#     4  12  24  40  73  98 128 182 223 284 354 426
#     4   9  19  38  60  85 124 174 225 280 340 405
#     4   9  20  40  64  97 133 175 232 289 351 416
#
# _framework density 20.956271999999998
#
# number of rings (size 3 to 8) (size 9 to 14) (size 15 to 20)
#    0.000    1.818    2.727    2.182    2.545    4.000 
#    6.545    1.818    0.000    3.273    0.000    0.000 
#    0.000    0.000    0.000    0.000    0.000    0.000 
#
# Total GULP energy -245018.974647 kJ/mol
# GULP energy per Si atom -5568.613060 kJ/mol
# Density = 2.090857 g / cm^3
# Si number density = 20.956272 Si / 1000 Ang^3
#
#
#
# Elastic Constant Matrix: (Units=GPa)
#
#
# Indices 1 2 3 4 5 6 
#
# 1 119.0815 37.4297 46.3856 0.0000 0.0000 0.0000
# 2 37.4297 78.9809 43.2688 0.0000 0.0000 0.0000
# 3 46.3856 43.2688 114.2579 0.0000 0.0000 0.0000
# 4 0.0000 0.0000 0.0000 52.2395 0.0000 0.0000
# 5 0.0000 0.0000 0.0000 0.0000 0.1727 0.0000
# 6 0.0000 0.0000 0.0000 0.0000 0.0000 70.7938
#
#
#
# Elastic Compliance Matrix: (Units=1/GPa)
#
#
# Indices 1 2 3 4 5 6 
#
# 1 0.010644 -0.003378 -0.003042 0.000000 0.000000 0.000000
# 2 -0.003378 0.017048 -0.005085 0.000000 0.000000 0.000000
# 3 -0.003042 -0.005085 0.011913 0.000000 0.000000 0.000000
# 4 0.000000 0.000000 0.000000 0.019143 0.000000 0.000000
# 5 0.000000 0.000000 0.000000 0.000000 5.791209 0.000000
# 6 0.000000 0.000000 0.000000 0.000000 0.000000 0.014126
#
#
# Mechanical properties :
#
#
# Convention : Reuss Voigt Hill
#
# Bulk Modulus (GPa) = 60.25707 62.94317 61.60012
# Shear Modulus (GPa) = 0.84852 36.99026 18.91939
#
# Velocity S-wave (km/s) = 0.63701 4.20589 3.00793
# Velocity P-wave (km/s) = 5.41823 7.32712 6.44375
#
# Compressibility (1/GPa) = 0.01659556
#
# Stress axis : x y z
#
# Youngs Moduli (GPa) = 93.94669 58.65936 83.94442
#
# Poissons Ratio (x) = 0.19814 0.25537
# Poissons Ratio (y) = 0.31734 0.42682
# Poissons Ratio (z) = 0.28580 0.29825
#
# Static dielectric constant tensor:
#      x y z
#    x 1.855560 0.000000 0.000000 
#    y 0.000000 1.770540 0.000000 
#    z 0.000000 0.000000 1.781630 
# 
# From -- ./inp_files/44673.got.cif
#   From: 2010.05.17/outbox.cif.g08.bks.cpg/sg66_23_cif.got.tgz:44673.got - 2010.06.03 17:51:23.
