data_PCOD9497924
_publ_section_title
;
Structure prediction by ZEFSAII (Michael W. Deem and Ramdas Pophale) SiO2 
 PCOD9497924
Probable space group: C C C M
;
_chemical_formula_sum "Si O2"
_cell_formula_units_Z 112
_cell_length_a 16.541960
_cell_length_b 24.273365
_cell_length_c 15.037474
_cell_angle_alpha 90.000000
_cell_angle_beta 90.000000
_cell_angle_gamma 90.000000
_cell_volume 6037.982392
_symmetry_space_group_name_H-M "C C C M"
_symmetry_group_IT_number 66
_symmetry_cell_setting 'orthorhombic'
loop_
_space_group_symop_operation_xyz
x,y,z
-x,-y,z
x,-y,1/2-z
-x,y,1/2-z
-x,-y,-z
x,y,-z
-x,y,1/2+z
x,-y,1/2+z
1/2+x,1/2+y,z
1/2-x,1/2-y,z
1/2+x,1/2-y,1/2-z
1/2-x,1/2+y,1/2-z
1/2-x,1/2-y,-z
1/2+x,1/2+y,-z
1/2-x,1/2+y,1/2+z
1/2+x,1/2-y,1/2+z
loop_
_atom_site_type_symbol
_atom_site_label
_atom_site_fract_x
_atom_site_fract_y
_atom_site_fract_z
Si Si1 0.295602 0.697588 0.601620
Si Si2 0.004682 0.435191 0.856404
Si Si3 0.714435 0.439641 0.233837
Si Si4 0.153779 0.257369 0.603470
Si Si5 0.904808 0.163719 0.758844
Si Si6 0.684880 0.090319 0.402739
Si Si7 0.662258 0.117746 0.898932
O O1 0.320895 0.708508 0.500000
O O2 0.250000 0.750000 0.639811
O O3 0.369601 0.684119 0.664600
O O4 0.229042 0.649310 0.599327
O O5 0.925640 0.408937 0.898019
O O6 0.000000 0.500000 0.876073
O O7 0.000000 0.428255 0.750000
O O8 0.089010 0.409839 0.889117
O O9 0.676660 0.500000 0.250000
O O10 0.645729 0.392731 0.227229
O O11 0.772814 0.438792 0.320437
O O12 0.776304 0.421013 0.155619
O O13 0.124204 0.254241 0.500000
O O14 0.250000 0.250000 0.601549
O O15 0.115713 0.210052 0.666164
O O16 0.147106 0.320399 0.638371
O O17 0.000000 0.154868 0.750000
O O18 0.702003 0.065273 0.500000
O O19 0.692588 0.124471 0.000000
#
# Coordination Sequence:
#
# PCOD9497924 Si02
#       7
#    16  16  16  16  16  16  16
#     4   9  20  38  61  86 115 153 196 237 287 356
#     4  11  22  35  53  84 124 159 194 242 294 356
#     4  11  23  40  61  84 115 158 210 255 297 359
#     4  10  21  40  64  91 120 153 200 250 299 365
#     4  11  24  39  62  91 122 160 197 253 314 354
#     4  10  21  37  56  80 115 154 192 240 293 347
#     4  11  23  38  62  91 121 162 204 246 304 363
#
# _framework density 18.549244000000002
#
# number of rings (size 3 to 8) (size 9 to 14) (size 15 to 20)
#    0.000    1.571    2.857    1.714    2.000    5.429 
#    0.000    2.857    0.000    0.000    0.000    6.000 
#    0.000    0.000    0.000    0.000    0.000    0.000 
#
# Total GULP energy -312145.253452 kJ/mol
# GULP energy per Si atom -5574.022383 kJ/mol
# Density = 1.850702 g / cm^3
# Si number density = 18.549244 Si / 1000 Ang^3
#
#
#
# Elastic Constant Matrix: (Units=GPa)
#
#
# Indices 1 2 3 4 5 6 
#
# 1 124.1107 28.3568 38.0885 0.0000 0.0000 0.0000
# 2 28.3568 83.9929 33.2210 0.0000 0.0000 0.0000
# 3 38.0885 33.2210 76.4890 0.0000 0.0000 0.0000
# 4 0.0000 0.0000 0.0000 -33.6768 0.0000 0.0000
# 5 0.0000 0.0000 0.0000 0.0000 7.9877 0.0000
# 6 0.0000 0.0000 0.0000 0.0000 0.0000 6.4365
#
#
#
# Elastic Compliance Matrix: (Units=1/GPa)
#
#
# Indices 1 2 3 4 5 6 
#
# 1 0.009696 -0.001647 -0.004113 0.000000 0.000000 0.000000
# 2 -0.001647 0.014655 -0.005545 0.000000 0.000000 0.000000
# 3 -0.004113 -0.005545 0.017530 0.000000 0.000000 0.000000
# 4 0.000000 0.000000 0.000000 -0.029694 0.000000 0.000000
# 5 0.000000 0.000000 0.000000 0.000000 0.125193 0.000000
# 6 0.000000 0.000000 0.000000 0.000000 0.000000 0.155363
#
#
# Mechanical properties :
#
#
# Convention : Reuss Voigt Hill
#
# Bulk Modulus (GPa) = 51.88961 53.76945 52.82953
# Shear Modulus (GPa) = 15.53878 8.47790 12.00834
#
# Velocity S-wave (km/s) = 2.89745 2.14019 2.54712
# Velocity P-wave (km/s) = 6.26325 5.92938 6.09860
#
# Compressibility (1/GPa) = 0.01927168
#
# Stress axis : x y z
#
# Youngs Moduli (GPa) = 103.13777 68.23679 57.04444
#
# Poissons Ratio (x) = 0.11236 0.23462
# Poissons Ratio (y) = 0.16983 0.31631
# Poissons Ratio (z) = 0.42420 0.37837
#
# Static dielectric constant tensor:
#      x y z
#    x 1.604300 0.000000 0.000000 
#    y 0.000000 1.746630 0.000000 
#    z 0.000000 0.000000 1.686670 
# 
# From -- ./inp_files/28690.got.cif
#   From: 2010.05.17/outbox.cif.g08.bks.cpg/sg66_15_cif.got.tgz:28690.got - 2010.06.03 17:51:23.
