data_PCOD9497816
_publ_section_title
;
Structure prediction by ZEFSAII (Michael W. Deem and Ramdas Pophale) SiO2 
 PCOD9497816
Probable space group: C C C M
;
_chemical_formula_sum "Si O2"
_cell_formula_units_Z 52
_cell_length_a 27.991850
_cell_length_b 4.971226
_cell_length_c 14.520831
_cell_angle_alpha 90.000000
_cell_angle_beta 90.000000
_cell_angle_gamma 90.000000
_cell_volume 2020.628994
_symmetry_space_group_name_H-M "C C C M"
_symmetry_group_IT_number 66
_symmetry_cell_setting 'orthorhombic'
loop_
_space_group_symop_operation_xyz
x,y,z
-x,-y,z
x,-y,1/2-z
-x,y,1/2-z
-x,-y,-z
x,y,-z
-x,y,1/2+z
x,-y,1/2+z
1/2+x,1/2+y,z
1/2-x,1/2-y,z
1/2+x,1/2-y,1/2-z
1/2-x,1/2+y,1/2-z
1/2-x,1/2-y,-z
1/2+x,1/2+y,-z
1/2-x,1/2+y,1/2+z
1/2+x,1/2-y,1/2+z
loop_
_atom_site_type_symbol
_atom_site_label
_atom_site_fract_x
_atom_site_fract_y
_atom_site_fract_z
Si Si1 0.552660 0.954383 0.107313
Si Si2 0.201544 0.375646 0.338621
Si Si3 0.750000 0.250000 0.500000
Si Si4 0.883831 0.986584 0.395675
O O1 0.587158 0.729043 0.151374
O O2 0.500000 0.000000 0.146665
O O3 0.580924 0.232550 0.105274
O O4 0.544362 0.866933 0.000000
O O5 0.176501 0.500000 0.250000
O O6 0.250000 0.250000 0.301879
O O7 0.219432 0.575642 0.419425
O O8 0.167113 0.133986 0.368974
O O9 0.875003 0.082563 0.500000
#
# Coordination Sequence:
#
# PCOD9497816 Si02
#       4
#    16  16   4  16
#     4   9  18  34  59  95 135 180 235 293 363 452
#     4  12  27  44  70 103 147 203 262 327 393 467
#     4  12  26  48  72  96 150 206 266 334 394 466
#     4  10  21  35  62  94 137 187 239 303 376 446
#
# _framework density 25.734559999999998
#
# number of rings (size 3 to 8) (size 9 to 14) (size 15 to 20)
#    0.000    1.538    3.077    1.385    4.308    3.692 
#    0.000    0.000    0.000    0.923    0.000    4.308 
#    0.000    0.000    0.000    1.385    0.000    0.000 
#
# Total GULP energy -144868.568078 kJ/mol
# GULP energy per Si atom -5571.868003 kJ/mol
# Density = 2.567599 g / cm^3
# Si number density = 25.734560 Si / 1000 Ang^3
#
#
#
# Elastic Constant Matrix: (Units=GPa)
#
#
# Indices 1 2 3 4 5 6 
#
# 1 194.4335 70.2604 16.5702 0.0000 0.0000 0.0000
# 2 70.2604 142.5152 28.9544 0.0000 0.0000 0.0000
# 3 16.5702 28.9544 110.9259 0.0000 0.0000 0.0000
# 4 0.0000 0.0000 0.0000 3.8104 0.0000 0.0000
# 5 0.0000 0.0000 0.0000 0.0000 17.1095 0.0000
# 6 0.0000 0.0000 0.0000 0.0000 0.0000 37.2789
#
#
#
# Elastic Compliance Matrix: (Units=1/GPa)
#
#
# Indices 1 2 3 4 5 6 
#
# 1 0.006260 -0.003058 -0.000137 0.000000 0.000000 0.000000
# 2 -0.003058 0.008904 -0.001867 0.000000 0.000000 0.000000
# 3 -0.000137 -0.001867 0.009523 0.000000 0.000000 0.000000
# 4 0.000000 0.000000 0.000000 0.262440 0.000000 0.000000
# 5 0.000000 0.000000 0.000000 0.000000 0.058447 0.000000
# 6 0.000000 0.000000 0.000000 0.000000 0.000000 0.026825
#
#
# Mechanical properties :
#
#
# Convention : Reuss Voigt Hill
#
# Bulk Modulus (GPa) = 68.67261 75.49384 72.08323
# Shear Modulus (GPa) = 12.90730 33.77907 23.34319
#
# Velocity S-wave (km/s) = 2.24197 3.62691 3.01504
# Velocity P-wave (km/s) = 5.78315 6.85117 6.33969
#
# Compressibility (1/GPa) = 0.01456185
#
# Stress axis : x y z
#
# Youngs Moduli (GPa) = 159.74474 112.30952 105.01030
#
# Poissons Ratio (x) = 0.34349 0.01437
# Poissons Ratio (y) = 0.48856 0.19608
# Poissons Ratio (z) = 0.02185 0.20971
#
# Static dielectric constant tensor:
#      x y z
#    x 2.052100 0.000000 0.000000 
#    y 0.000000 1.995970 0.000000 
#    z 0.000000 0.000000 2.028960 
# 
# From -- ./inp_files/43895.got.cif
#   From: 2010.05.17/outbox.cif.g08.bks.cpg/sg66_22_cif.got.tgz:43895.got - 2010.06.03 17:51:23.
