data_PCOD9497342
_publ_section_title
;
Structure prediction by ZEFSAII (Michael W. Deem and Ramdas Pophale) SiO2 
 PCOD9497342
Probable space group: C C C M
;
_chemical_formula_sum "Si O2"
_cell_formula_units_Z 64
_cell_length_a 29.088704
_cell_length_b 8.367146
_cell_length_c 13.617855
_cell_angle_alpha 90.000000
_cell_angle_beta 90.000000
_cell_angle_gamma 90.000000
_cell_volume 3314.442011
_symmetry_space_group_name_H-M "C C C M"
_symmetry_group_IT_number 66
_symmetry_cell_setting 'orthorhombic'
loop_
_space_group_symop_operation_xyz
x,y,z
-x,-y,z
x,-y,1/2-z
-x,y,1/2-z
-x,-y,-z
x,y,-z
-x,y,1/2+z
x,-y,1/2+z
1/2+x,1/2+y,z
1/2-x,1/2-y,z
1/2+x,1/2-y,1/2-z
1/2-x,1/2+y,1/2-z
1/2-x,1/2-y,-z
1/2+x,1/2+y,-z
1/2-x,1/2+y,1/2+z
1/2+x,1/2-y,1/2+z
loop_
_atom_site_type_symbol
_atom_site_label
_atom_site_fract_x
_atom_site_fract_y
_atom_site_fract_z
Si Si1 0.195873 0.229021 0.500000
Si Si2 0.068747 0.123088 0.668095
Si Si3 0.906872 0.382222 0.500000
Si Si4 0.365142 0.104708 0.336342
Si Si5 0.129014 0.954796 0.500000
Si Si6 0.996855 0.806789 0.500000
O O1 0.250000 0.250000 0.500000
O O2 0.172290 0.313453 0.406177
O O3 0.177270 0.046973 0.500000
O O4 0.102622 0.257730 0.709551
O O5 0.031567 0.215063 0.600690
O O6 0.051473 0.000000 0.750000
O O7 0.099684 0.019316 0.592660
O O8 0.896663 0.493679 0.406508
O O9 0.871039 0.234961 0.500000
O O10 0.956726 0.295893 0.500000
O O11 0.344442 0.000000 0.250000
O O12 0.000000 0.000000 0.500000
#
# Coordination Sequence:
#
# PCOD9497342 Si02
#       6
#     8  16   8  16   8   8
#     4   9  20  42  65  85 118 152 193 246 303 368
#     4  10  20  37  56  81 115 158 205 241 289 349
#     4  11  20  39  58  83 125 157 198 254 301 347
#     4  10  22  38  60  87 119 156 196 245 307 364
#     4   9  18  36  57  81 110 155 188 234 296 365
#     4  11  22  36  56  82 116 155 211 251 283 343
#
# _framework density 19.309435000000001
#
# number of rings (size 3 to 8) (size 9 to 14) (size 15 to 20)
#    0.000    2.000    2.500    3.750    0.000    2.500 
#    0.000   11.250    0.000    0.000    0.000    0.000 
#    0.000    0.000    0.000    0.000    0.000    0.000 
#
# Total GULP energy -178532.925622 kJ/mol
# GULP energy per Si atom -5579.153926 kJ/mol
# Density = 1.926549 g / cm^3
# Si number density = 19.309435 Si / 1000 Ang^3
#
#
#
# Elastic Constant Matrix: (Units=GPa)
#
#
# Indices 1 2 3 4 5 6 
#
# 1 128.9711 44.1144 27.9748 0.0000 0.0000 0.0000
# 2 44.1144 106.2617 25.1751 0.0000 0.0000 0.0000
# 3 27.9748 25.1751 80.3913 0.0000 0.0000 0.0000
# 4 0.0000 0.0000 0.0000 27.7592 0.0000 0.0000
# 5 0.0000 0.0000 0.0000 0.0000 -1.0875 0.0000
# 6 0.0000 0.0000 0.0000 0.0000 0.0000 19.8698
#
#
#
# Elastic Compliance Matrix: (Units=1/GPa)
#
#
# Indices 1 2 3 4 5 6 
#
# 1 0.009387 -0.003373 -0.002210 0.000000 0.000000 0.000000
# 2 -0.003373 0.011377 -0.002389 0.000000 0.000000 0.000000
# 3 -0.002210 -0.002389 0.013956 0.000000 0.000000 0.000000
# 4 0.000000 0.000000 0.000000 0.036024 0.000000 0.000000
# 5 0.000000 0.000000 0.000000 0.000000 -0.919538 0.000000
# 6 0.000000 0.000000 0.000000 0.000000 0.000000 0.050328
#
#
# Mechanical properties :
#
#
# Convention : Reuss Voigt Hill
#
# Bulk Modulus (GPa) = 53.26065 56.68364 54.97215
# Shear Modulus (GPa) = -6.44112 23.86562 8.71225
#
# Velocity S-wave (km/s) = -1.82838 3.51943 2.12643
# Velocity P-wave (km/s) = 4.81511 6.77749 5.87876
#
# Compressibility (1/GPa) = 0.01877559
#
# Stress axis : x y z
#
# Youngs Moduli (GPa) = 106.53126 87.89539 71.65192
#
# Poissons Ratio (x) = 0.29650 0.15836
# Poissons Ratio (y) = 0.35937 0.17117
# Poissons Ratio (z) = 0.23544 0.20998
#
# Static dielectric constant tensor:
#      x y z
#    x 1.670990 0.000000 0.000000 
#    y 0.000000 1.696690 0.000000 
#    z 0.000000 0.000000 1.751310 
# 
# From -- ./inp_files/24419.got.cif
#   From: 2010.05.17/outbox.cif.g08.bks.cpg/sg66_13_cif.got.tgz:24419.got - 2010.06.03 17:51:23.
