data_PCOD9497629
_publ_section_title
;
Structure prediction by ZEFSAII (Michael W. Deem and Ramdas Pophale) SiO2 
 PCOD9497629
Probable space group: C C C M
;
_chemical_formula_sum "Si O2"
_cell_formula_units_Z 88
_cell_length_a 7.719692
_cell_length_b 21.921313
_cell_length_c 23.935884
_cell_angle_alpha 90.000000
_cell_angle_beta 90.000000
_cell_angle_gamma 90.000000
_cell_volume 4050.568750
_symmetry_space_group_name_H-M "C C C M"
_symmetry_group_IT_number 66
_symmetry_cell_setting 'orthorhombic'
loop_
_space_group_symop_operation_xyz
x,y,z
-x,-y,z
x,-y,1/2-z
-x,y,1/2-z
-x,-y,-z
x,y,-z
-x,y,1/2+z
x,-y,1/2+z
1/2+x,1/2+y,z
1/2-x,1/2-y,z
1/2+x,1/2-y,1/2-z
1/2-x,1/2+y,1/2-z
1/2-x,1/2-y,-z
1/2+x,1/2+y,-z
1/2-x,1/2+y,1/2+z
1/2+x,1/2-y,1/2+z
loop_
_atom_site_type_symbol
_atom_site_label
_atom_site_fract_x
_atom_site_fract_y
_atom_site_fract_z
Si Si1 0.692316 0.507815 0.372538
Si Si2 0.750000 0.750000 0.638513
Si Si3 0.300967 0.622894 0.191784
Si Si4 0.746928 0.510477 0.500000
Si Si5 0.400380 0.206562 0.094784
Si Si6 0.057497 0.392065 0.000000
Si Si7 0.718394 0.617978 0.178106
O O1 0.500000 0.500000 0.347408
O O2 0.773721 0.567132 0.344356
O O3 0.672638 0.520755 0.438237
O O4 0.773255 0.442859 0.356235
O O5 0.763019 0.689118 0.674768
O O6 0.572172 0.753278 0.603976
O O7 0.508107 0.625997 0.177577
O O8 0.253425 0.610833 0.255894
O O9 0.779498 0.437540 0.500000
O O10 0.906189 0.557892 0.500000
O O11 0.250000 0.250000 0.071486
O O12 0.444992 0.151827 0.053023
O O13 0.317294 0.174906 0.150155
#
# Coordination Sequence:
#
# PCOD9497629 Si02
#       7
#    16   8  16   8  16   8  16
#     4  10  20  39  66 102 133 176 230 281 341 404
#     4  12  26  41  68 100 136 177 232 278 344 418
#     4  10  22  39  64 101 138 180 224 282 340 410
#     4  11  21  40  66  94 136 174 224 287 341 404
#     4  12  25  47  69  98 137 183 228 284 343 409
#     4  11  25  43  68  95 131 183 230 287 343 410
#     4  10  21  40  68  94 138 181 227 281 342 402
#
# _framework density 21.725345000000001
#
# number of rings (size 3 to 8) (size 9 to 14) (size 15 to 20)
#    0.000    1.273    3.636    2.182    1.273    3.273 
#    0.000    0.909    0.000    2.182    0.000    0.000 
#    0.000    0.000    0.000    0.000    0.000    0.000 
#
# Total GULP energy -245417.212758 kJ/mol
# GULP energy per Si atom -5577.663926 kJ/mol
# Density = 2.167590 g / cm^3
# Si number density = 21.725345 Si / 1000 Ang^3
#
#
#
# Elastic Constant Matrix: (Units=GPa)
#
#
# Indices 1 2 3 4 5 6 
#
# 1 68.5358 13.7197 19.1644 0.0000 0.0000 0.0000
# 2 13.7197 108.9356 20.6432 0.0000 0.0000 0.0000
# 3 19.1644 20.6432 88.5627 0.0000 0.0000 0.0000
# 4 0.0000 0.0000 0.0000 53.1060 0.0000 0.0000
# 5 0.0000 0.0000 0.0000 0.0000 -4.5245 0.0000
# 6 0.0000 0.0000 0.0000 0.0000 0.0000 19.8511
#
#
#
# Elastic Compliance Matrix: (Units=1/GPa)
#
#
# Indices 1 2 3 4 5 6 
#
# 1 0.015732 -0.001398 -0.003078 0.000000 0.000000 0.000000
# 2 -0.001398 0.009728 -0.001965 0.000000 0.000000 0.000000
# 3 -0.003078 -0.001965 0.012416 0.000000 0.000000 0.000000
# 4 0.000000 0.000000 0.000000 0.018830 0.000000 0.000000
# 5 0.000000 0.000000 0.000000 0.000000 -0.221020 0.000000
# 6 0.000000 0.000000 0.000000 0.000000 0.000000 0.050375
#
#
# Mechanical properties :
#
#
# Convention : Reuss Voigt Hill
#
# Bulk Modulus (GPa) = 40.01178 41.45430 40.73304
# Shear Modulus (GPa) = -53.92232 27.85366 -13.03433
#
# Velocity S-wave (km/s) = -4.98737 3.58450 -2.45206
# Velocity P-wave (km/s) = 3.83511 6.02113 3.28222
#
# Compressibility (1/GPa) = 0.02499264
#
# Stress axis : x y z
#
# Youngs Moduli (GPa) = 63.56649 102.79431 80.54377
#
# Poissons Ratio (x) = 0.14370 0.24794
# Poissons Ratio (y) = 0.08886 0.15827
# Poissons Ratio (z) = 0.19568 0.20199
#
# Static dielectric constant tensor:
#      x y z
#    x 1.892040 0.000000 0.000000 
#    y 0.000000 1.775000 0.000000 
#    z 0.000000 0.000000 1.779610 
# 
# From -- ./inp_files/55510.got.cif
#   From: 2010.05.17/outbox.cif.g08.bks.cpg/sg66_28_cif.got.tgz:55510.got - 2010.06.03 17:51:23.
