data_PCOD9497678
_publ_section_title
;
Structure prediction by ZEFSAII (Michael W. Deem and Ramdas Pophale) SiO2 
 PCOD9497678
Probable space group: C C C M
;
_chemical_formula_sum "Si O2"
_cell_formula_units_Z 88
_cell_length_a 18.786241
_cell_length_b 14.139836
_cell_length_c 14.775594
_cell_angle_alpha 90.000000
_cell_angle_beta 90.000000
_cell_angle_gamma 90.000000
_cell_volume 3924.905556
_symmetry_space_group_name_H-M "C C C M"
_symmetry_group_IT_number 66
_symmetry_cell_setting 'orthorhombic'
loop_
_space_group_symop_operation_xyz
x,y,z
-x,-y,z
x,-y,1/2-z
-x,y,1/2-z
-x,-y,-z
x,y,-z
-x,y,1/2+z
x,-y,1/2+z
1/2+x,1/2+y,z
1/2-x,1/2-y,z
1/2+x,1/2-y,1/2-z
1/2-x,1/2+y,1/2-z
1/2-x,1/2-y,-z
1/2+x,1/2+y,-z
1/2-x,1/2+y,1/2+z
1/2+x,1/2-y,1/2+z
loop_
_atom_site_type_symbol
_atom_site_label
_atom_site_fract_x
_atom_site_fract_y
_atom_site_fract_z
Si Si1 0.824051 0.461146 0.849381
Si Si2 0.918005 0.298182 0.854939
Si Si3 0.333756 0.881490 0.500000
Si Si4 0.183869 0.123090 0.606166
Si Si5 0.420993 0.241621 0.144685
Si Si6 0.576288 0.457423 0.609460
O O1 0.839167 0.500000 0.750000
O O2 0.890566 0.400194 0.885505
O O3 0.807894 0.543947 0.920046
O O4 0.757953 0.388361 0.842645
O O5 0.863254 0.216272 0.882251
O O6 0.917458 0.298325 0.745853
O O7 0.997430 0.274706 0.887227
O O8 0.366606 0.809837 0.421357
O O9 0.200972 0.116731 0.500000
O O10 0.135410 0.033969 0.633243
O O11 0.409678 0.354231 0.148678
O O12 0.500000 0.500000 0.636852
O O13 0.575389 0.447331 0.500000
#
# Coordination Sequence:
#
# PCOD9497678 Si02
#       6
#    16  16   8  16  16  16
#     4  12  27  49  68 100 145 192 240 285 343 420
#     4  11  26  44  70 105 142 174 240 299 349 416
#     4  12  26  51  73 100 142 197 238 285 347 425
#     4  11  25  45  72 103 136 185 234 292 356 423
#     4  11  24  45  71 107 137 183 232 293 358 418
#     4  10  20  40  70 102 135 170 225 286 351 420
#
# _framework density 22.420921
#
# number of rings (size 3 to 8) (size 9 to 14) (size 15 to 20)
#    0.000    0.909    5.455    0.545    5.091    2.182 
#    0.000    1.818    0.000    0.000    0.000    0.000 
#    0.000    0.000    0.000    0.000    0.000    0.000 
#
# Total GULP energy -245217.750761 kJ/mol
# GULP energy per Si atom -5573.130699 kJ/mol
# Density = 2.236989 g / cm^3
# Si number density = 22.420921 Si / 1000 Ang^3
#
#
#
# Elastic Constant Matrix: (Units=GPa)
#
#
# Indices 1 2 3 4 5 6 
#
# 1 29.7695 43.1638 -12.1562 0.0000 0.0000 0.0000
# 2 43.1638 32.3136 5.5895 0.0000 0.0000 0.0000
# 3 -12.1562 5.5895 76.2509 0.0000 0.0000 0.0000
# 4 0.0000 0.0000 0.0000 1.1950 0.0000 0.0000
# 5 0.0000 0.0000 0.0000 0.0000 -22.9389 0.0000
# 6 0.0000 0.0000 0.0000 0.0000 0.0000 22.6852
#
#
#
# Elastic Compliance Matrix: (Units=1/GPa)
#
#
# Indices 1 2 3 4 5 6 
#
# 1 -0.030301 0.041841 -0.007898 0.000000 0.000000 0.000000
# 2 0.041841 -0.026433 0.008608 0.000000 0.000000 0.000000
# 3 -0.007898 0.008608 0.011224 0.000000 0.000000 0.000000
# 4 0.000000 0.000000 0.000000 0.836853 0.000000 0.000000
# 5 0.000000 0.000000 0.000000 0.000000 -0.043594 0.000000
# 6 0.000000 0.000000 0.000000 0.000000 0.000000 0.044082
#
#
# Mechanical properties :
#
#
# Convention : Reuss Voigt Hill
#
# Bulk Modulus (GPa) = 25.25634 23.50311 24.37973
# Shear Modulus (GPa) = 6.94516 6.97072 6.95794
#
# Velocity S-wave (km/s) = 1.76192 1.76516 1.76354
# Velocity P-wave (km/s) = 3.92788 3.82881 3.87866
#
# Compressibility (1/GPa) = 0.03959401
#
# Stress axis : x y z
#
# Youngs Moduli (GPa) = -33.00237 -37.83135 89.09096
#
# Poissons Ratio (x) = 1.58292 0.70362
# Poissons Ratio (y) = 1.38086 -0.76691
# Poissons Ratio (z) = -0.26065 0.32566
#
# Static dielectric constant tensor:
#      x y z
#    x 1.843100 0.000000 0.000000 
#    y 0.000000 1.810510 0.000000 
#    z 0.000000 0.000000 1.822720 
# 
# From -- ./inp_files/31076.got.cif
#   From: 2010.05.17/outbox.cif.g08.bks.cpg/sg66_16_cif.got.tgz:31076.got - 2010.06.03 17:51:23.
