data_PCOD9497325
_publ_section_title
;
Structure prediction by ZEFSAII (Michael W. Deem and Ramdas Pophale) SiO2 
 PCOD9497325
Probable space group: C C C M
;
_chemical_formula_sum "Si O2"
_cell_formula_units_Z 64
_cell_length_a 16.249915
_cell_length_b 11.305167
_cell_length_c 18.170501
_cell_angle_alpha 90.000000
_cell_angle_beta 90.000000
_cell_angle_gamma 90.000000
_cell_volume 3338.066449
_symmetry_space_group_name_H-M "C C C M"
_symmetry_group_IT_number 66
_symmetry_cell_setting 'orthorhombic'
loop_
_space_group_symop_operation_xyz
x,y,z
-x,-y,z
x,-y,1/2-z
-x,y,1/2-z
-x,-y,-z
x,y,-z
-x,y,1/2+z
x,-y,1/2+z
1/2+x,1/2+y,z
1/2-x,1/2-y,z
1/2+x,1/2-y,1/2-z
1/2-x,1/2+y,1/2-z
1/2-x,1/2-y,-z
1/2+x,1/2+y,-z
1/2-x,1/2+y,1/2+z
1/2+x,1/2-y,1/2+z
loop_
_atom_site_type_symbol
_atom_site_label
_atom_site_fract_x
_atom_site_fract_y
_atom_site_fract_z
Si Si1 0.471738 0.337600 0.413788
Si Si2 0.717150 0.877529 0.797803
Si Si3 0.120908 0.978252 0.337851
Si Si4 0.028964 0.365632 0.829055
O O1 0.476412 0.360318 0.500000
O O2 0.548557 0.397649 0.370817
O O3 0.391310 0.397505 0.378878
O O4 0.482155 0.202159 0.393244
O O5 0.750000 0.750000 0.764906
O O6 0.627491 0.856237 0.831531
O O7 0.707167 0.000000 0.750000
O O8 0.791929 0.916144 0.850505
O O9 0.111278 0.000000 0.250000
O O10 0.000000 0.500000 0.829723
O O11 0.000000 0.313657 0.750000
#
# Coordination Sequence:
#
# PCOD9497325 Si02
#       4
#    16  16  16  16
#     4  11  22  38  59  90 130 166 204 252 313 377
#     4  11  22  38  62  99 126 156 208 270 316 362
#     4  10  20  36  65  90 119 153 213 262 305 355
#     4  11  22  40  63  91 125 163 210 257 318 371
#
# _framework density 19.172777
#
# number of rings (size 3 to 8) (size 9 to 14) (size 15 to 20)
#    0.000    1.250    5.000    4.500    3.500    0.500 
#    0.000    3.750    0.000    1.500    0.000    0.000 
#    0.000    0.000    0.000    0.000    0.000    0.000 
#
# Total GULP energy -178240.457052 kJ/mol
# GULP energy per Si atom -5570.014283 kJ/mol
# Density = 1.912914 g / cm^3
# Si number density = 19.172777 Si / 1000 Ang^3
#
#
#
# Elastic Constant Matrix: (Units=GPa)
#
#
# Indices 1 2 3 4 5 6 
#
# 1 112.5995 29.0652 30.9176 0.0000 0.0000 0.0000
# 2 29.0652 113.9741 28.9811 0.0000 0.0000 0.0000
# 3 30.9176 28.9811 106.9243 0.0000 0.0000 0.0000
# 4 0.0000 0.0000 0.0000 8.9443 0.0000 0.0000
# 5 0.0000 0.0000 0.0000 0.0000 3.2590 0.0000
# 6 0.0000 0.0000 0.0000 0.0000 0.0000 25.1024
#
#
#
# Elastic Compliance Matrix: (Units=1/GPa)
#
#
# Indices 1 2 3 4 5 6 
#
# 1 0.010037 -0.001957 -0.002372 0.000000 0.000000 0.000000
# 2 -0.001957 0.009805 -0.002092 0.000000 0.000000 0.000000
# 3 -0.002372 -0.002092 0.010605 0.000000 0.000000 0.000000
# 4 0.000000 0.000000 0.000000 0.111803 0.000000 0.000000
# 5 0.000000 0.000000 0.000000 0.000000 0.306842 0.000000
# 6 0.000000 0.000000 0.000000 0.000000 0.000000 0.039837
#
#
# Mechanical properties :
#
#
# Convention : Reuss Voigt Hill
#
# Bulk Modulus (GPa) = 56.79655 56.82507 56.81081
# Shear Modulus (GPa) = 9.84952 23.76341 16.80646
#
# Velocity S-wave (km/s) = 2.26901 3.52438 2.96392
# Velocity P-wave (km/s) = 6.04586 6.80180 6.43494
#
# Compressibility (1/GPa) = 0.01760670
#
# Stress axis : x y z
#
# Youngs Moduli (GPa) = 99.62747 101.99121 94.29279
#
# Poissons Ratio (x) = 0.19955 0.22367
# Poissons Ratio (y) = 0.19492 0.19724
# Poissons Ratio (z) = 0.23632 0.21334
#
# Static dielectric constant tensor:
#      x y z
#    x 1.680390 0.000000 0.000000 
#    y 0.000000 1.814230 0.000000 
#    z 0.000000 0.000000 1.664880 
# 
# From -- ./inp_files/41212.got.cif
#   From: 2010.05.17/outbox.cif.g08.bks.cpg/sg66_21_cif.got.tgz:41212.got - 2010.06.03 17:51:23.
