data_PCOD9497089
_publ_section_title
;
Structure prediction by ZEFSAII (Michael W. Deem and Ramdas Pophale) SiO2 
 PCOD9497089
Probable space group: C C C M
;
_chemical_formula_sum "Si O2"
_cell_formula_units_Z 80
_cell_length_a 9.394498
_cell_length_b 24.670453
_cell_length_c 18.398279
_cell_angle_alpha 90.000000
_cell_angle_beta 90.000000
_cell_angle_gamma 90.000000
_cell_volume 4264.105123
_symmetry_space_group_name_H-M "C C C M"
_symmetry_group_IT_number 66
_symmetry_cell_setting 'orthorhombic'
loop_
_space_group_symop_operation_xyz
x,y,z
-x,-y,z
x,-y,1/2-z
-x,y,1/2-z
-x,-y,-z
x,y,-z
-x,y,1/2+z
x,-y,1/2+z
1/2+x,1/2+y,z
1/2-x,1/2-y,z
1/2+x,1/2-y,1/2-z
1/2-x,1/2+y,1/2-z
1/2-x,1/2-y,-z
1/2+x,1/2+y,-z
1/2-x,1/2+y,1/2+z
1/2+x,1/2-y,1/2+z
loop_
_atom_site_type_symbol
_atom_site_label
_atom_site_fract_x
_atom_site_fract_y
_atom_site_fract_z
Si Si1 0.665625 0.694529 0.271377
Si Si2 0.815938 0.129616 0.081320
Si Si3 0.196474 0.591049 0.300723
Si Si4 0.583981 0.943342 0.351313
Si Si5 0.411626 0.445033 0.080861
O O1 0.500000 0.700407 0.250000
O O2 0.750000 0.750000 0.260863
O O3 0.689568 0.672708 0.353684
O O4 0.731514 0.646878 0.222052
O O5 0.699428 0.081572 0.094295
O O6 0.971440 0.102225 0.086120
O O7 0.796250 0.151548 0.000000
O O8 0.162872 0.557926 0.226932
O O9 0.299011 0.559709 0.355348
O O10 0.045536 0.598843 0.340206
O O11 0.500000 0.000000 0.365812
O O12 0.500000 0.500000 0.087101
O O13 0.345366 0.443333 0.000000
#
# Coordination Sequence:
#
# PCOD9497089 Si02
#       5
#    16  16  16  16  16
#     4  11  24  41  65  87 113 153 203 263 312 355
#     4  10  22  40  61  90 125 159 199 245 302 367
#     4  10  20  37  56  85 120 155 203 250 295 351
#     4  10  21  35  56  90 126 162 200 242 282 353
#     4  10  20  35  58  88 124 162 196 237 296 366
#
# _framework density 18.761264000000001
#
# number of rings (size 3 to 8) (size 9 to 14) (size 15 to 20)
#    0.000    1.800    2.000    2.400    5.600    3.200 
#    0.000    2.000    0.000    3.000    0.000    0.000 
#    0.000    0.000    0.000    0.000    0.000    0.000 
#
# Total GULP energy -223202.159584 kJ/mol
# GULP energy per Si atom -5580.053990 kJ/mol
# Density = 1.871856 g / cm^3
# Si number density = 18.761264 Si / 1000 Ang^3
#
#
#
# Elastic Constant Matrix: (Units=GPa)
#
#
# Indices 1 2 3 4 5 6 
#
# 1 111.7694 38.3184 51.8594 0.0000 0.0000 0.0000
# 2 38.3184 91.1303 27.3616 0.0000 0.0000 0.0000
# 3 51.8594 27.3616 103.3020 0.0000 0.0000 0.0000
# 4 0.0000 0.0000 0.0000 16.9803 0.0000 0.0000
# 5 0.0000 0.0000 0.0000 0.0000 6.7192 0.0000
# 6 0.0000 0.0000 0.0000 0.0000 0.0000 31.8084
#
#
#
# Elastic Compliance Matrix: (Units=1/GPa)
#
#
# Indices 1 2 3 4 5 6 
#
# 1 0.012734 -0.003732 -0.005404 0.000000 0.000000 0.000000
# 2 -0.003732 0.013015 -0.001574 0.000000 0.000000 0.000000
# 3 -0.005404 -0.001574 0.012810 0.000000 0.000000 0.000000
# 4 0.000000 0.000000 0.000000 0.058892 0.000000 0.000000
# 5 0.000000 0.000000 0.000000 0.000000 0.148827 0.000000
# 6 0.000000 0.000000 0.000000 0.000000 0.000000 0.031438
#
#
# Mechanical properties :
#
#
# Convention : Reuss Voigt Hill
#
# Bulk Modulus (GPa) = 58.34498 60.14229 59.24363
# Shear Modulus (GPa) = 16.40155 23.67906 20.04031
#
# Velocity S-wave (km/s) = 2.95994 3.55649 3.27184
# Velocity P-wave (km/s) = 6.54582 6.99936 6.77639
#
# Compressibility (1/GPa) = 0.01713944
#
# Stress axis : x y z
#
# Youngs Moduli (GPa) = 78.53110 76.83464 78.06267
#
# Poissons Ratio (x) = 0.28672 0.42186
# Poissons Ratio (y) = 0.29306 0.12286
# Poissons Ratio (z) = 0.42440 0.12093
#
# Static dielectric constant tensor:
#      x y z
#    x 1.662080 0.000000 0.000000 
#    y 0.000000 1.646130 0.000000 
#    z 0.000000 0.000000 1.664350 
# 
# From -- ./inp_files/36917.got.cif
#   From: 2010.05.17/outbox.cif.g08.bks.cpg/sg66_19_cif.got.tgz:36917.got - 2010.06.03 17:51:23.
