data_PCOD9497154
_publ_section_title
;
Structure prediction by ZEFSAII (Michael W. Deem and Ramdas Pophale) SiO2 
 PCOD9497154
Probable space group: C C C M
;
_chemical_formula_sum "Si O2"
_cell_formula_units_Z 96
_cell_length_a 31.892837
_cell_length_b 19.889936
_cell_length_c 8.920080
_cell_angle_alpha 90.000000
_cell_angle_beta 90.000000
_cell_angle_gamma 90.000000
_cell_volume 5658.421410
_symmetry_space_group_name_H-M "C C C M"
_symmetry_group_IT_number 66
_symmetry_cell_setting 'orthorhombic'
loop_
_space_group_symop_operation_xyz
x,y,z
-x,-y,z
x,-y,1/2-z
-x,y,1/2-z
-x,-y,-z
x,y,-z
-x,y,1/2+z
x,-y,1/2+z
1/2+x,1/2+y,z
1/2-x,1/2-y,z
1/2+x,1/2-y,1/2-z
1/2-x,1/2+y,1/2-z
1/2-x,1/2-y,-z
1/2+x,1/2+y,-z
1/2-x,1/2+y,1/2+z
1/2+x,1/2-y,1/2+z
loop_
_atom_site_type_symbol
_atom_site_label
_atom_site_fract_x
_atom_site_fract_y
_atom_site_fract_z
Si Si1 0.705961 0.072523 0.679534
Si Si2 0.043079 0.827246 0.326587
Si Si3 0.366033 0.176514 0.182819
Si Si4 0.802540 0.926403 0.180416
Si Si5 0.869001 0.824587 0.320542
Si Si6 0.957669 0.336517 0.328750
O O1 0.703624 0.066143 0.500000
O O2 0.672079 0.128079 0.724806
O O3 0.754018 0.091478 0.716321
O O4 0.697137 0.000000 0.750000
O O5 0.045678 0.848150 0.500000
O O6 0.084831 0.846354 0.236985
O O7 0.041850 0.745339 0.325549
O O8 0.000000 0.850527 0.250000
O O9 0.361634 0.249729 0.255537
O O10 0.411347 0.146536 0.231055
O O11 0.367205 0.183962 0.000000
O O12 0.834316 0.873786 0.252322
O O13 0.810093 0.000000 0.250000
O O14 0.807164 0.928089 0.000000
O O15 0.867835 0.824010 0.500000
O O16 0.959640 0.358611 0.500000
O O17 0.000000 0.360095 0.250000
#
# Coordination Sequence:
#
# PCOD9497154 Si02
#       6
#    16  16  16  16  16  16
#     4   9  19  35  55  74  96 128 167 207 254 308
#     4   9  16  28  46  70 100 133 166 203 245 293
#     4   9  18  33  50  72 101 133 165 205 255 303
#     4  10  20  36  55  74  97 129 166 206 251 305
#     4  11  21  32  49  76 105 134 168 208 249 292
#     4   8  14  24  41  64  93 125 159 195 236 285
#
# _framework density 16.965862000000001
#
# number of rings (size 3 to 8) (size 9 to 14) (size 15 to 20)
#    0.000    2.667    0.000    3.500    0.000    6.000 
#    0.000    3.333    0.000    1.000    0.000    7.000 
#    0.000    0.000    0.000    0.000    0.000    0.000 
#
# Total GULP energy -267487.757754 kJ/mol
# GULP energy per Si atom -5572.661620 kJ/mol
# Density = 1.692725 g / cm^3
# Si number density = 16.965862 Si / 1000 Ang^3
#
#
#
# Elastic Constant Matrix: (Units=GPa)
#
#
# Indices 1 2 3 4 5 6 
#
# 1 186.1340 90.8566 73.5139 0.0000 0.0000 0.0000
# 2 90.8566 60.5510 40.4871 0.0000 0.0000 0.0000
# 3 73.5139 40.4871 81.4102 0.0000 0.0000 0.0000
# 4 0.0000 0.0000 0.0000 19.1268 0.0000 0.0000
# 5 0.0000 0.0000 0.0000 0.0000 27.7855 0.0000
# 6 0.0000 0.0000 0.0000 0.0000 0.0000 -10.2232
#
#
#
# Elastic Compliance Matrix: (Units=1/GPa)
#
#
# Indices 1 2 3 4 5 6 
#
# 1 0.021365 -0.028702 -0.005018 0.000000 0.000000 0.000000
# 2 -0.028702 0.063303 -0.005563 0.000000 0.000000 0.000000
# 3 -0.005018 -0.005563 0.019582 0.000000 0.000000 0.000000
# 4 0.000000 0.000000 0.000000 0.052283 0.000000 0.000000
# 5 0.000000 0.000000 0.000000 0.000000 0.035990 0.000000
# 6 0.000000 0.000000 0.000000 0.000000 0.000000 -0.097817
#
#
# Mechanical properties :
#
#
# Convention : Reuss Voigt Hill
#
# Bulk Modulus (GPa) = 38.93885 81.97890 60.45888
# Shear Modulus (GPa) = 27.49769 15.55367 21.52568
#
# Velocity S-wave (km/s) = 4.03024 3.03109 3.56584
# Velocity P-wave (km/s) = 6.68268 7.78941 7.25717
#
# Compressibility (1/GPa) = 0.02568129
#
# Stress axis : x y z
#
# Youngs Moduli (GPa) = 46.80616 15.79709 51.06794
#
# Poissons Ratio (x) = 0.45341 0.25627
# Poissons Ratio (y) = 1.34345 0.28412
# Poissons Ratio (z) = 0.23488 0.08789
#
# Static dielectric constant tensor:
#      x y z
#    x 1.596230 0.000000 0.000000 
#    y 0.000000 1.539870 0.000000 
#    z 0.000000 0.000000 1.573420 
# 
# From -- ./inp_files/7994.got.cif
#   From: 2010.05.17/outbox.cif.g08.bks.cpg/sg66_4_cif.got.tgz:7994.got - 2010.06.03 17:51:23.
