data_PCOD9497164
_publ_section_title
;
Structure prediction by ZEFSAII (Michael W. Deem and Ramdas Pophale) SiO2 
 PCOD9497164
Probable space group: C C C M
;
_chemical_formula_sum "Si O2"
_cell_formula_units_Z 80
_cell_length_a 27.647987
_cell_length_b 18.046645
_cell_length_c 8.790524
_cell_angle_alpha 90.000000
_cell_angle_beta 90.000000
_cell_angle_gamma 90.000000
_cell_volume 4386.061893
_symmetry_space_group_name_H-M "C C C M"
_symmetry_group_IT_number 66
_symmetry_cell_setting 'orthorhombic'
loop_
_space_group_symop_operation_xyz
x,y,z
-x,-y,z
x,-y,1/2-z
-x,y,1/2-z
-x,-y,-z
x,y,-z
-x,y,1/2+z
x,-y,1/2+z
1/2+x,1/2+y,z
1/2-x,1/2-y,z
1/2+x,1/2-y,1/2-z
1/2-x,1/2+y,1/2-z
1/2-x,1/2-y,-z
1/2+x,1/2+y,-z
1/2-x,1/2+y,1/2+z
1/2+x,1/2-y,1/2+z
loop_
_atom_site_type_symbol
_atom_site_label
_atom_site_fract_x
_atom_site_fract_y
_atom_site_fract_z
Si Si1 0.583031 0.422977 0.318979
Si Si2 0.815617 0.122487 0.819044
Si Si3 0.713185 0.077002 0.680394
Si Si4 0.549182 0.269253 0.181767
Si Si5 0.345841 0.790672 0.179971
O O1 0.564692 0.500000 0.250000
O O2 0.579492 0.423756 0.500000
O O3 0.638833 0.413134 0.266415
O O4 0.556790 0.350952 0.251594
O O5 0.765327 0.093131 0.755625
O O6 0.819802 0.211287 0.796354
O O7 0.820018 0.108331 0.000000
O O8 0.718386 0.070842 0.500000
O O9 0.678644 0.144939 0.724725
O O10 0.694654 0.000000 0.750000
O O11 0.500000 0.237175 0.250000
O O12 0.597828 0.223454 0.217172
O O13 0.546100 0.275652 0.000000
O O14 0.341687 0.808050 0.000000
#
# Coordination Sequence:
#
# PCOD9497164 Si02
#       5
#    16  16  16  16  16
#     4  11  21  34  52  77 111 147 185 225 266 314
#     4  10  20  36  56  79 111 148 183 219 263 315
#     4  12  24  36  54  80 111 145 182 222 266 317
#     4  10  21  38  59  82 107 138 177 222 272 323
#     4   9  20  38  58  80 109 142 176 219 268 317
#
# _framework density 18.239595999999999
#
# number of rings (size 3 to 8) (size 9 to 14) (size 15 to 20)
#    0.000    1.600    0.000    7.200    0.000    7.600 
#    0.000    2.000    0.000    0.600    0.000    4.200 
#    0.000    0.000    0.000    0.000    0.000    0.000 
#
# Total GULP energy -223660.813493 kJ/mol
# GULP energy per Si atom -5591.520337 kJ/mol
# Density = 1.819808 g / cm^3
# Si number density = 18.239596 Si / 1000 Ang^3
#
#
#
# Elastic Constant Matrix: (Units=GPa)
#
#
# Indices 1 2 3 4 5 6 
#
# 1 63.9873 16.1815 28.3887 0.0000 0.0000 0.0000
# 2 16.1815 46.6137 24.8905 0.0000 0.0000 0.0000
# 3 28.3887 24.8905 89.0133 0.0000 0.0000 0.0000
# 4 0.0000 0.0000 0.0000 30.5393 0.0000 0.0000
# 5 0.0000 0.0000 0.0000 0.0000 33.5202 0.0000
# 6 0.0000 0.0000 0.0000 0.0000 0.0000 -1.1064
#
#
#
# Elastic Compliance Matrix: (Units=1/GPa)
#
#
# Indices 1 2 3 4 5 6 
#
# 1 0.018790 -0.003906 -0.004900 0.000000 0.000000 0.000000
# 2 -0.003906 0.026030 -0.006033 0.000000 0.000000 0.000000
# 3 -0.004900 -0.006033 0.014484 0.000000 0.000000 0.000000
# 4 0.000000 0.000000 0.000000 0.032745 0.000000 0.000000
# 5 0.000000 0.000000 0.000000 0.000000 0.029833 0.000000
# 6 0.000000 0.000000 0.000000 0.000000 0.000000 -0.903809
#
#
# Mechanical properties :
#
#
# Convention : Reuss Voigt Hill
#
# Bulk Modulus (GPa) = 33.75469 37.61506 35.68488
# Shear Modulus (GPa) = -6.73516 21.26753 7.26619
#
# Velocity S-wave (km/s) = -1.92370 3.41839 1.99810
# Velocity P-wave (km/s) = 3.68948 6.02064 4.99301
#
# Compressibility (1/GPa) = 0.02962551
#
# Stress axis : x y z
#
# Youngs Moduli (GPa) = 53.21981 38.41667 69.04110
#
# Poissons Ratio (x) = 0.15006 0.33833
# Poissons Ratio (y) = 0.20788 0.41653
# Poissons Ratio (z) = 0.26080 0.23177
#
# Static dielectric constant tensor:
#      x y z
#    x 1.635500 0.000000 0.000000 
#    y 0.000000 1.617500 0.000000 
#    z 0.000000 0.000000 1.600090 
# 
# From -- ./inp_files/6709.got.cif
#   From: 2010.05.17/outbox.cif.g08.bks.cpg/sg66_4_cif.got.tgz:6709.got - 2010.06.03 17:51:23.
