data_PCOD9497208
_publ_section_title
;
Structure prediction by ZEFSAII (Michael W. Deem and Ramdas Pophale) SiO2 
 PCOD9497208
Probable space group: C C C M
;
_chemical_formula_sum "Si O2"
_cell_formula_units_Z 56
_cell_length_a 14.076997
_cell_length_b 11.461535
_cell_length_c 16.676734
_cell_angle_alpha 90.000000
_cell_angle_beta 90.000000
_cell_angle_gamma 90.000000
_cell_volume 2690.690867
_symmetry_space_group_name_H-M "C C C M"
_symmetry_group_IT_number 66
_symmetry_cell_setting 'orthorhombic'
loop_
_space_group_symop_operation_xyz
x,y,z
-x,-y,z
x,-y,1/2-z
-x,y,1/2-z
-x,-y,-z
x,y,-z
-x,y,1/2+z
x,-y,1/2+z
1/2+x,1/2+y,z
1/2-x,1/2-y,z
1/2+x,1/2-y,1/2-z
1/2-x,1/2+y,1/2-z
1/2-x,1/2-y,-z
1/2+x,1/2+y,-z
1/2-x,1/2+y,1/2+z
1/2+x,1/2-y,1/2+z
loop_
_atom_site_type_symbol
_atom_site_label
_atom_site_fract_x
_atom_site_fract_y
_atom_site_fract_z
Si Si1 0.249225 0.004719 0.154654
Si Si2 0.913038 0.171417 0.301589
Si Si3 0.250000 0.750000 0.180213
Si Si4 0.937995 0.390521 0.593573
O O1 0.148988 0.072347 0.154084
O O2 0.328253 0.075298 0.107259
O O3 0.274650 0.000000 0.250000
O O4 0.250970 0.869394 0.130315
O O5 0.839655 0.233752 0.239858
O O6 0.952986 0.270620 0.359942
O O7 0.000000 0.125134 0.250000
O O8 0.959112 0.376199 0.500000
O O9 0.000000 0.500000 0.624674
#
# Coordination Sequence:
#
# PCOD9497208 Si02
#       4
#    16  16   8  16
#     4  10  20  37  58  91 124 162 214 262 318 375
#     4  11  21  36  62  93 125 167 211 270 318 382
#     4  10  20  36  58  92 122 162 216 256 320 372
#     4  11  23  38  61  94 127 167 216 265 321 381
#
# _framework density 20.812497
#
# number of rings (size 3 to 8) (size 9 to 14) (size 15 to 20)
#    0.000    1.429    5.714    1.714    0.000    7.429 
#    0.000    0.714    0.000    6.857    0.000   30.000 
#    0.000    0.000    0.000    0.000    0.000    0.000 
#
# Total GULP energy -156366.060014 kJ/mol
# GULP energy per Si atom -5584.502143 kJ/mol
# Density = 2.076513 g / cm^3
# Si number density = 20.812497 Si / 1000 Ang^3
#
#
#
# Elastic Constant Matrix: (Units=GPa)
#
#
# Indices 1 2 3 4 5 6 
#
# 1 112.4859 41.7793 8.2273 0.0000 0.0000 0.0000
# 2 41.7793 168.9411 21.5068 0.0000 0.0000 0.0000
# 3 8.2273 21.5068 24.4609 0.0000 0.0000 0.0000
# 4 0.0000 0.0000 0.0000 12.1418 0.0000 0.0000
# 5 0.0000 0.0000 0.0000 0.0000 15.1463 0.0000
# 6 0.0000 0.0000 0.0000 0.0000 0.0000 39.5100
#
#
#
# Elastic Compliance Matrix: (Units=1/GPa)
#
#
# Indices 1 2 3 4 5 6 
#
# 1 0.009827 -0.002263 -0.001316 0.000000 0.000000 0.000000
# 2 -0.002263 0.007186 -0.005557 0.000000 0.000000 0.000000
# 3 -0.001316 -0.005557 0.046210 0.000000 0.000000 0.000000
# 4 0.000000 0.000000 0.000000 0.082360 0.000000 0.000000
# 5 0.000000 0.000000 0.000000 0.000000 0.066023 0.000000
# 6 0.000000 0.000000 0.000000 0.000000 0.000000 0.025310
#
#
# Mechanical properties :
#
#
# Convention : Reuss Voigt Hill
#
# Bulk Modulus (GPa) = 22.24609 49.87939 36.06274
# Shear Modulus (GPa) = 18.50677 28.98459 23.74568
#
# Velocity S-wave (km/s) = 2.98521 3.73588 3.38144
# Velocity P-wave (km/s) = 4.75331 6.52895 5.71056
#
# Compressibility (1/GPa) = 0.04495171
#
# Stress axis : x y z
#
# Youngs Moduli (GPa) = 101.76436 139.15475 21.64021
#
# Poissons Ratio (x) = 0.31486 0.02847
# Poissons Ratio (y) = 0.23026 0.12026
# Poissons Ratio (z) = 0.13390 0.77333
#
# Static dielectric constant tensor:
#      x y z
#    x 1.759770 0.000000 0.000000 
#    y 0.000000 1.833960 0.000000 
#    z 0.000000 0.000000 1.713890 
# 
# From -- ./inp_files/27532.got.cif
#   From: 2010.05.17/outbox.cif.g08.bks.cpg/sg66_14_cif.got.tgz:27532.got - 2010.06.03 17:51:23.
