data_PCOD9497885
_publ_section_title
;
Structure prediction by ZEFSAII (Michael W. Deem and Ramdas Pophale) SiO2 
 PCOD9497885
Probable space group: C C C M
;
_chemical_formula_sum "Si O2"
_cell_formula_units_Z 96
_cell_length_a 22.797351
_cell_length_b 7.226947
_cell_length_c 26.601666
_cell_angle_alpha 90.000000
_cell_angle_beta 90.000000
_cell_angle_gamma 90.000000
_cell_volume 4382.764064
_symmetry_space_group_name_H-M "C C C M"
_symmetry_group_IT_number 66
_symmetry_cell_setting 'orthorhombic'
loop_
_space_group_symop_operation_xyz
x,y,z
-x,-y,z
x,-y,1/2-z
-x,y,1/2-z
-x,-y,-z
x,y,-z
-x,y,1/2+z
x,-y,1/2+z
1/2+x,1/2+y,z
1/2-x,1/2-y,z
1/2+x,1/2-y,1/2-z
1/2-x,1/2+y,1/2-z
1/2-x,1/2-y,-z
1/2+x,1/2+y,-z
1/2-x,1/2+y,1/2+z
1/2+x,1/2-y,1/2+z
loop_
_atom_site_type_symbol
_atom_site_label
_atom_site_fract_x
_atom_site_fract_y
_atom_site_fract_z
Si Si1 0.860168 0.937209 0.821096
Si Si2 0.358095 0.182124 0.725074
Si Si3 0.439007 0.707690 0.942178
Si Si4 0.562200 0.706939 0.908205
Si Si5 0.265104 0.049588 0.642293
Si Si6 0.652792 0.996314 0.056647
O O1 0.845114 0.811858 0.772831
O O2 0.907731 0.831106 0.854610
O O3 0.882948 0.149030 0.809974
O O4 0.796765 0.959393 0.846086
O O5 0.304405 0.095236 0.692177
O O6 0.388669 0.000000 0.750000
O O7 0.494014 0.761804 0.907553
O O8 0.433139 0.488915 0.936357
O O9 0.378226 0.808414 0.930681
O O10 0.453834 0.754483 0.000000
O O11 0.599239 0.855094 0.938468
O O12 0.250000 0.250000 0.619936
O O13 0.302066 0.947185 0.600136
O O14 0.676410 0.998699 0.000000
#
# Coordination Sequence:
#
# PCOD9497885 Si02
#       6
#    16  16  16  16  16  16
#     4  10  23  37  57  92 124 158 203 257 314 375
#     4  10  21  36  60  84 120 158 205 251 297 361
#     4  10  21  39  65  89 115 161 220 275 315 370
#     4  11  21  38  60  91 124 154 206 264 323 376
#     4  10  22  38  60  90 125 162 205 256 314 372
#     4  11  23  40  62  89 124 167 213 260 315 383
#
# _framework density 21.903984999999999
#
# number of rings (size 3 to 8) (size 9 to 14) (size 15 to 20)
#    0.000    1.667    0.000    5.500    7.000    3.667 
#    0.000    3.333    0.000   17.000    0.000   22.167 
#    0.000    0.000    0.000    0.000    0.000    0.000 
#
# Total GULP energy -267726.865668 kJ/mol
# GULP energy per Si atom -5577.643035 kJ/mol
# Density = 2.185413 g / cm^3
# Si number density = 21.903985 Si / 1000 Ang^3
#
#
#
# Elastic Constant Matrix: (Units=GPa)
#
#
# Indices 1 2 3 4 5 6 
#
# 1 31.7661 -16.7101 42.5993 0.0000 0.0000 0.0000
# 2 -16.7101 71.7404 6.3131 0.0000 0.0000 0.0000
# 3 42.5993 6.3131 100.4476 0.0000 0.0000 0.0000
# 4 0.0000 0.0000 0.0000 33.9747 0.0000 0.0000
# 5 0.0000 0.0000 0.0000 0.0000 6.3009 0.0000
# 6 0.0000 0.0000 0.0000 0.0000 0.0000 23.3079
#
#
#
# Elastic Compliance Matrix: (Units=1/GPa)
#
#
# Indices 1 2 3 4 5 6 
#
# 1 0.118603 0.032230 -0.052325 0.000000 0.000000 0.000000
# 2 0.032230 0.022775 -0.015100 0.000000 0.000000 0.000000
# 3 -0.052325 -0.015100 0.033095 0.000000 0.000000 0.000000
# 4 0.000000 0.000000 0.000000 0.029434 0.000000 0.000000
# 5 0.000000 0.000000 0.000000 0.000000 0.158707 0.000000
# 6 0.000000 0.000000 0.000000 0.000000 0.000000 0.042904
#
#
# Mechanical properties :
#
#
# Convention : Reuss Voigt Hill
#
# Bulk Modulus (GPa) = 9.60761 29.81764 19.71263
# Shear Modulus (GPa) = 9.79236 24.16682 16.97959
#
# Velocity S-wave (km/s) = 2.11667 3.32521 2.78723
# Velocity P-wave (km/s) = 3.22017 5.32777 4.40197
#
# Compressibility (1/GPa) = 0.10408419
#
# Stress axis : x y z
#
# Youngs Moduli (GPa) = 8.43148 43.90753 30.21594
#
# Poissons Ratio (x) = -1.41515 1.58104
# Poissons Ratio (y) = -0.27175 0.45626
# Poissons Ratio (z) = 0.44117 0.66301
#
# Static dielectric constant tensor:
#      x y z
#    x 1.810530 0.000000 0.000000 
#    y 0.000000 1.843230 0.000000 
#    z 0.000000 0.000000 1.850650 
# 
# From -- ./inp_files/66014.got.cif
#   From: 2010.05.17/outbox.cif.g08.bks.cpg/sg66_34_cif.got.tgz:66014.got - 2010.06.03 17:51:23.
