data_PCOD9497822
_publ_section_title
;
Structure prediction by ZEFSAII (Michael W. Deem and Ramdas Pophale) SiO2 
 PCOD9497822
Probable space group: C C C M
;
_chemical_formula_sum "Si O2"
_cell_formula_units_Z 64
_cell_length_a 5.024263
_cell_length_b 25.238754
_cell_length_c 27.445987
_cell_angle_alpha 90.000000
_cell_angle_beta 90.000000
_cell_angle_gamma 90.000000
_cell_volume 3480.319612
_symmetry_space_group_name_H-M "C C C M"
_symmetry_group_IT_number 66
_symmetry_cell_setting 'orthorhombic'
loop_
_space_group_symop_operation_xyz
x,y,z
-x,-y,z
x,-y,1/2-z
-x,y,1/2-z
-x,-y,-z
x,y,-z
-x,y,1/2+z
x,-y,1/2+z
1/2+x,1/2+y,z
1/2-x,1/2-y,z
1/2+x,1/2-y,1/2-z
1/2-x,1/2+y,1/2-z
1/2-x,1/2-y,-z
1/2+x,1/2+y,-z
1/2-x,1/2+y,1/2+z
1/2+x,1/2-y,1/2+z
loop_
_atom_site_type_symbol
_atom_site_label
_atom_site_fract_x
_atom_site_fract_y
_atom_site_fract_z
Si Si1 0.108569 0.894554 0.352820
Si Si2 0.591712 0.058206 0.806110
Si Si3 0.000703 0.211647 0.305466
Si Si4 0.251594 0.038277 0.054631
O O1 0.401483 0.898339 0.329843
O O2 0.007042 0.835311 0.344425
O O3 0.162328 0.917632 0.406438
O O4 0.894754 0.930547 0.322306
O O5 0.500000 0.059745 0.750000
O O6 0.500000 0.000000 0.823447
O O7 0.750000 0.250000 0.309623
O O8 0.000000 0.188160 0.250000
O O9 0.250000 0.250000 0.310133
O O10 0.500000 0.000000 0.068280
O O11 0.308428 0.059395 0.000000
O O12 0.000000 0.000000 0.051959
#
# Coordination Sequence:
#
# PCOD9497822 Si02
#       4
#    16  16  16  16
#     4  12  21  35  57  77 106 147 186 222 274 329
#     4  11  22  33  49  79 114 143 174 214 267 337
#     4  10  21  36  53  75 104 140 185 232 274 321
#     4  10  21  37  57  83 113 144 183 230 279 335
#
# _framework density 18.389115
#
# number of rings (size 3 to 8) (size 9 to 14) (size 15 to 20)
#    0.000    1.250    0.000    8.250    0.000    4.000 
#    0.000    0.000    0.000    1.500    0.000    0.000 
#    0.000    0.000    0.000    0.000    0.000    0.000 
#
# Total GULP energy -178471.795465 kJ/mol
# GULP energy per Si atom -5577.243608 kJ/mol
# Density = 1.834726 g / cm^3
# Si number density = 18.389115 Si / 1000 Ang^3
#
#
#
# Elastic Constant Matrix: (Units=GPa)
#
#
# Indices 1 2 3 4 5 6 
#
# 1 117.3435 22.5430 25.4768 0.0000 0.0000 0.0000
# 2 22.5430 92.0169 54.5561 0.0000 0.0000 0.0000
# 3 25.4768 54.5561 153.9566 0.0000 0.0000 0.0000
# 4 0.0000 0.0000 0.0000 -57.3509 0.0000 0.0000
# 5 0.0000 0.0000 0.0000 0.0000 20.7488 0.0000
# 6 0.0000 0.0000 0.0000 0.0000 0.0000 13.2750
#
#
#
# Elastic Compliance Matrix: (Units=1/GPa)
#
#
# Indices 1 2 3 4 5 6 
#
# 1 0.009040 -0.001681 -0.000900 0.000000 0.000000 0.000000
# 2 -0.001681 0.014071 -0.004708 0.000000 0.000000 0.000000
# 3 -0.000900 -0.004708 0.008313 0.000000 0.000000 0.000000
# 4 0.000000 0.000000 0.000000 -0.017437 0.000000 0.000000
# 5 0.000000 0.000000 0.000000 0.000000 0.048196 0.000000
# 6 0.000000 0.000000 0.000000 0.000000 0.000000 0.075330
#
#
# Mechanical properties :
#
#
# Convention : Reuss Voigt Hill
#
# Bulk Modulus (GPa) = 59.36401 63.16320 61.26361
# Shear Modulus (GPa) = 31.70460 12.71733 22.21097
#
# Velocity S-wave (km/s) = 4.15673 2.63262 3.47916
# Velocity P-wave (km/s) = 7.44245 6.60785 7.03753
#
# Compressibility (1/GPa) = 0.01684522
#
# Stress axis : x y z
#
# Youngs Moduli (GPa) = 110.61454 71.06982 120.29901
#
# Poissons Ratio (x) = 0.11947 0.10831
# Poissons Ratio (y) = 0.18594 0.56636
# Poissons Ratio (z) = 0.09959 0.33459
#
# Static dielectric constant tensor:
#      x y z
#    x 1.660980 0.000000 0.000000 
#    y 0.000000 1.643080 0.000000 
#    z 0.000000 0.000000 1.727310 
# 
# From -- ./inp_files/61220.got.cif
#   From: 2010.05.17/outbox.cif.g08.bks.cpg/sg66_31_cif.got.tgz:61220.got - 2010.06.03 17:51:23.
