data_PCOD9497350
_publ_section_title
;
Structure prediction by ZEFSAII (Michael W. Deem and Ramdas Pophale) SiO2 
 PCOD9497350
Probable space group: C C C M
;
_chemical_formula_sum "Si O2"
_cell_formula_units_Z 68
_cell_length_a 19.528926
_cell_length_b 23.268165
_cell_length_c 7.848047
_cell_angle_alpha 90.000000
_cell_angle_beta 90.000000
_cell_angle_gamma 90.000000
_cell_volume 3566.170391
_symmetry_space_group_name_H-M "C C C M"
_symmetry_group_IT_number 66
_symmetry_cell_setting 'orthorhombic'
loop_
_space_group_symop_operation_xyz
x,y,z
-x,-y,z
x,-y,1/2-z
-x,y,1/2-z
-x,-y,-z
x,y,-z
-x,y,1/2+z
x,-y,1/2+z
1/2+x,1/2+y,z
1/2-x,1/2-y,z
1/2+x,1/2-y,1/2-z
1/2-x,1/2+y,1/2-z
1/2-x,1/2-y,-z
1/2+x,1/2+y,-z
1/2-x,1/2+y,1/2+z
1/2+x,1/2-y,1/2+z
loop_
_atom_site_type_symbol
_atom_site_label
_atom_site_fract_x
_atom_site_fract_y
_atom_site_fract_z
Si Si1 0.250000 0.250000 0.500000
Si Si2 0.923064 0.139329 0.704396
Si Si3 0.207795 0.934029 0.196826
Si Si4 0.784000 0.670613 0.198021
Si Si5 0.075538 0.270786 0.202792
O O1 0.259609 0.298284 0.345471
O O2 0.915643 0.140731 0.500000
O O3 0.864848 0.097587 0.773117
O O4 0.916666 0.205432 0.770359
O O5 0.000000 0.120467 0.750000
O O6 0.264282 0.895922 0.293794
O O7 0.203795 0.000000 0.250000
O O8 0.225539 0.931960 0.000000
O O9 0.861086 0.688940 0.251447
O O10 0.772263 0.688804 0.000000
O O11 0.000000 0.291909 0.250000
O O12 0.077726 0.266682 0.000000
#
# Coordination Sequence:
#
# PCOD9497350 Si02
#       5
#     4  16  16  16  16
#     4  12  22  36  64  94 124 164 202 256 324 370
#     4  10  20  37  57  86 121 160 203 257 307 366
#     4  12  25  42  62  86 118 168 214 261 310 368
#     4  11  23  40  60  95 128 160 207 260 313 376
#     4   9  20  35  60  89 127 161 194 252 314 369
#
# _framework density 19.068073999999999
#
# number of rings (size 3 to 8) (size 9 to 14) (size 15 to 20)
#    0.000    1.412    1.176    4.588    1.647    3.294 
#    0.000    2.353    0.000    0.706    0.000    4.941 
#    0.000    0.000    0.000    0.000    0.000    0.000 
#
# Total GULP energy -189286.389887 kJ/mol
# GULP energy per Si atom -5567.246761 kJ/mol
# Density = 1.902467 g / cm^3
# Si number density = 19.068074 Si / 1000 Ang^3
#
#
#
# Elastic Constant Matrix: (Units=GPa)
#
#
# Indices 1 2 3 4 5 6 
#
# 1 97.9943 73.4169 11.9909 0.0000 0.0000 0.0000
# 2 73.4169 127.7764 13.5286 0.0000 0.0000 0.0000
# 3 11.9909 13.5286 97.9405 0.0000 0.0000 0.0000
# 4 0.0000 0.0000 0.0000 28.6746 0.0000 0.0000
# 5 0.0000 0.0000 0.0000 0.0000 19.0624 0.0000
# 6 0.0000 0.0000 0.0000 0.0000 0.0000 24.1828
#
#
#
# Elastic Compliance Matrix: (Units=1/GPa)
#
#
# Indices 1 2 3 4 5 6 
#
# 1 0.017977 -0.010246 -0.000786 0.000000 0.000000 0.000000
# 2 -0.010246 0.013782 -0.000649 0.000000 0.000000 0.000000
# 3 -0.000786 -0.000649 0.010396 0.000000 0.000000 0.000000
# 4 0.000000 0.000000 0.000000 0.034874 0.000000 0.000000
# 5 0.000000 0.000000 0.000000 0.000000 0.052459 0.000000
# 6 0.000000 0.000000 0.000000 0.000000 0.000000 0.041352
#
#
# Mechanical properties :
#
#
# Convention : Reuss Voigt Hill
#
# Bulk Modulus (GPa) = 53.21030 57.95380 55.58205
# Shear Modulus (GPa) = 24.94184 29.36895 27.15539
#
# Velocity S-wave (km/s) = 3.62061 3.92882 3.77786
# Velocity P-wave (km/s) = 6.74125 7.14422 6.94566
#
# Compressibility (1/GPa) = 0.01879335
#
# Stress axis : x y z
#
# Youngs Moduli (GPa) = 55.62659 72.55863 96.18943
#
# Poissons Ratio (x) = 0.74343 0.07557
# Poissons Ratio (y) = 0.56995 0.06246
# Poissons Ratio (z) = 0.04370 0.04711
#
# Static dielectric constant tensor:
#      x y z
#    x 1.715750 0.000000 0.000000 
#    y 0.000000 1.689800 0.000000 
#    z 0.000000 0.000000 1.690280 
# 
# From -- ./inp_files/6270.got.cif
#   From: 2010.05.17/outbox.cif.g08.bks.cpg/sg66_4_cif.got.tgz:6270.got - 2010.06.03 17:51:23.
