data_PCOD9497781
_publ_section_title
;
Structure prediction by ZEFSAII (Michael W. Deem and Ramdas Pophale) SiO2 
 PCOD9497781
Probable space group: C C C M
;
_chemical_formula_sum "Si O2"
_cell_formula_units_Z 80
_cell_length_a 5.092390
_cell_length_b 25.097907
_cell_length_c 28.277570
_cell_angle_alpha 90.000000
_cell_angle_beta 90.000000
_cell_angle_gamma 90.000000
_cell_volume 3614.109016
_symmetry_space_group_name_H-M "C C C M"
_symmetry_group_IT_number 66
_symmetry_cell_setting 'orthorhombic'
loop_
_space_group_symop_operation_xyz
x,y,z
-x,-y,z
x,-y,1/2-z
-x,y,1/2-z
-x,-y,-z
x,y,-z
-x,y,1/2+z
x,-y,1/2+z
1/2+x,1/2+y,z
1/2-x,1/2-y,z
1/2+x,1/2-y,1/2-z
1/2-x,1/2+y,1/2-z
1/2-x,1/2-y,-z
1/2+x,1/2+y,-z
1/2-x,1/2+y,1/2+z
1/2+x,1/2-y,1/2+z
loop_
_atom_site_type_symbol
_atom_site_label
_atom_site_fract_x
_atom_site_fract_y
_atom_site_fract_z
Si Si1 0.763505 0.922363 0.718776
Si Si2 0.754782 0.465652 0.115115
Si Si3 0.431094 0.152071 0.401072
Si Si4 0.360583 0.191246 0.698914
Si Si5 0.414237 0.302662 0.944092
O O1 0.500000 0.922472 0.750000
O O2 0.735937 0.956441 0.671767
O O3 0.826835 0.860420 0.704823
O O4 0.000000 0.941759 0.750000
O O5 0.500000 0.500000 0.103133
O O6 0.797108 0.405838 0.097049
O O7 0.000000 0.500000 0.099578
O O8 0.513377 0.171265 0.348021
O O9 0.696907 0.152957 0.431286
O O10 0.192607 0.189393 0.418887
O O11 0.500000 0.195933 0.750000
O O12 0.250000 0.250000 0.689289
O O13 0.250000 0.250000 0.929938
O O14 0.463524 0.300377 0.000000
#
# Coordination Sequence:
#
# PCOD9497781 Si02
#       5
#    16  16  16  16  16
#     4  10  21  35  52  79 112 152 208 261 303 354
#     4  11  23  39  60  84 116 163 211 260 315 362
#     4  11  24  42  65  94 130 167 210 261 312 372
#     4  10  21  35  56  86 127 170 206 243 298 374
#     4  11  23  42  70 101 129 160 202 255 318 381
#
# _framework density 22.135470999999999
#
# number of rings (size 3 to 8) (size 9 to 14) (size 15 to 20)
#    0.000    1.400    0.000    5.400    0.000   14.400 
#    0.000    0.000    0.000   12.000    0.000    0.000 
#    0.000    0.000    0.000    0.000    0.000    0.000 
#
# Total GULP energy -223371.279795 kJ/mol
# GULP energy per Si atom -5584.281995 kJ/mol
# Density = 2.208509 g / cm^3
# Si number density = 22.135471 Si / 1000 Ang^3
#
#
#
# Elastic Constant Matrix: (Units=GPa)
#
#
# Indices 1 2 3 4 5 6 
#
# 1 118.3723 24.9147 11.2867 0.0000 0.0000 0.0000
# 2 24.9147 127.0858 7.6382 0.0000 0.0000 0.0000
# 3 11.2867 7.6382 43.8845 0.0000 0.0000 0.0000
# 4 0.0000 0.0000 0.0000 8.4579 0.0000 0.0000
# 5 0.0000 0.0000 0.0000 0.0000 28.4943 0.0000
# 6 0.0000 0.0000 0.0000 0.0000 0.0000 28.9383
#
#
#
# Elastic Compliance Matrix: (Units=1/GPa)
#
#
# Indices 1 2 3 4 5 6 
#
# 1 0.008986 -0.001640 -0.002026 0.000000 0.000000 0.000000
# 2 -0.001640 0.008251 -0.001014 0.000000 0.000000 0.000000
# 3 -0.002026 -0.001014 0.023485 0.000000 0.000000 0.000000
# 4 0.000000 0.000000 0.000000 0.118233 0.000000 0.000000
# 5 0.000000 0.000000 0.000000 0.000000 0.035095 0.000000
# 6 0.000000 0.000000 0.000000 0.000000 0.000000 0.034556
#
#
# Mechanical properties :
#
#
# Convention : Reuss Voigt Hill
#
# Bulk Modulus (GPa) = 31.88579 41.89130 36.88855
# Shear Modulus (GPa) = 20.12717 29.54497 24.83607
#
# Velocity S-wave (km/s) = 3.01869 3.65736 3.35327
# Velocity P-wave (km/s) = 5.15617 6.06639 5.62971
#
# Compressibility (1/GPa) = 0.03136193
#
# Stress axis : x y z
#
# Youngs Moduli (GPa) = 111.28108 121.19492 42.58105
#
# Poissons Ratio (x) = 0.19876 0.08626
# Poissons Ratio (y) = 0.18250 0.04319
# Poissons Ratio (z) = 0.22543 0.12293
#
# Static dielectric constant tensor:
#      x y z
#    x 1.789050 0.000000 0.000000 
#    y 0.000000 1.835860 0.000000 
#    z 0.000000 0.000000 1.791320 
# 
# From -- ./inp_files/67211.got.cif
#   From: 2010.05.17/outbox.cif.g08.bks.cpg/sg66_34_cif.got.tgz:67211.got - 2010.06.03 17:51:23.
