data_PCOD9497887
_publ_section_title
;
Structure prediction by ZEFSAII (Michael W. Deem and Ramdas Pophale) SiO2 
 PCOD9497887
Probable space group: C C C M
;
_chemical_formula_sum "Si O2"
_cell_formula_units_Z 72
_cell_length_a 7.110824
_cell_length_b 21.403451
_cell_length_c 19.534793
_cell_angle_alpha 90.000000
_cell_angle_beta 90.000000
_cell_angle_gamma 90.000000
_cell_volume 2973.120736
_symmetry_space_group_name_H-M "C C C M"
_symmetry_group_IT_number 66
_symmetry_cell_setting 'orthorhombic'
loop_
_space_group_symop_operation_xyz
x,y,z
-x,-y,z
x,-y,1/2-z
-x,y,1/2-z
-x,-y,-z
x,y,-z
-x,y,1/2+z
x,-y,1/2+z
1/2+x,1/2+y,z
1/2-x,1/2-y,z
1/2+x,1/2-y,1/2-z
1/2-x,1/2+y,1/2-z
1/2-x,1/2-y,-z
1/2+x,1/2+y,-z
1/2-x,1/2+y,1/2+z
1/2+x,1/2-y,1/2+z
loop_
_atom_site_type_symbol
_atom_site_label
_atom_site_fract_x
_atom_site_fract_y
_atom_site_fract_z
Si Si1 0.110453 0.198888 0.189555
Si Si2 0.740175 0.389173 0.072325
Si Si3 0.271994 0.507865 0.828134
Si Si4 0.713479 0.394076 0.577898
Si Si5 0.250000 0.250000 0.611727
O O1 0.250000 0.250000 0.220398
O O2 0.230231 0.159998 0.134774
O O3 0.000000 0.161682 0.250000
O O4 0.941876 0.233438 0.150788
O O5 0.793000 0.426296 0.140365
O O6 0.513802 0.397044 0.071676
O O7 0.787202 0.316040 0.074631
O O8 0.807675 0.416542 0.000000
O O9 0.500000 0.500000 0.826352
O O10 0.209569 0.500000 0.750000
O O11 0.214514 0.456063 0.884431
O O12 0.781617 0.383382 0.500000
#
# Coordination Sequence:
#
# PCOD9497887 Si02
#       5
#    16  16  16  16   8
#     4  11  23  38  62  88 120 158 200 251 301 360
#     4   9  17  31  52  81 118 159 200 245 301 359
#     4   9  17  26  49  81 118 157 200 251 298 353
#     4   9  19  33  52  80 119 159 202 248 297 357
#     4  10  21  36  60  88 123 156 200 244 303 358
#
# _framework density 24.216977
#
# number of rings (size 3 to 8) (size 9 to 14) (size 15 to 20)
#    0.000    2.444    1.111    1.000    9.333    4.000 
#    0.000    0.000    0.000    1.333    0.000    6.222 
#    0.000    0.000    0.000    0.000    0.000    0.000 
#
# Total GULP energy -200762.835138 kJ/mol
# GULP energy per Si atom -5576.745420 kJ/mol
# Density = 2.416186 g / cm^3
# Si number density = 24.216977 Si / 1000 Ang^3
#
#
#
# Elastic Constant Matrix: (Units=GPa)
#
#
# Indices 1 2 3 4 5 6 
#
# 1 71.7252 -2.4858 -12.0818 0.0000 0.0000 0.0000
# 2 -2.4858 129.5279 98.1989 0.0000 0.0000 0.0000
# 3 -12.0818 98.1989 207.5435 0.0000 0.0000 0.0000
# 4 0.0000 0.0000 0.0000 24.5749 0.0000 0.0000
# 5 0.0000 0.0000 0.0000 0.0000 -55.9006 0.0000
# 6 0.0000 0.0000 0.0000 0.0000 0.0000 -0.1523
#
#
#
# Elastic Compliance Matrix: (Units=1/GPa)
#
#
# Indices 1 2 3 4 5 6 
#
# 1 0.014105 -0.000549 0.001081 0.000000 0.000000 0.000000
# 2 -0.000549 0.012060 -0.005738 0.000000 0.000000 0.000000
# 3 0.001081 -0.005738 0.007596 0.000000 0.000000 0.000000
# 4 0.000000 0.000000 0.000000 0.040692 0.000000 0.000000
# 5 0.000000 0.000000 0.000000 0.000000 -0.017889 0.000000
# 6 0.000000 0.000000 0.000000 0.000000 0.000000 -6.565744
#
#
# Mechanical properties :
#
#
# Convention : Reuss Voigt Hill
#
# Bulk Modulus (GPa) = 42.82794 64.00657 53.41725
# Shear Modulus (GPa) = -0.77030 15.38208 7.30589
#
# Velocity S-wave (km/s) = -0.56460 2.52301 1.73879
# Velocity P-wave (km/s) = 4.15914 5.91399 5.11242
#
# Compressibility (1/GPa) = 0.02334924
#
# Stress axis : x y z
#
# Youngs Moduli (GPa) = 70.89619 82.91825 131.64523
#
# Poissons Ratio (x) = 0.04549 -0.14227
# Poissons Ratio (y) = 0.03889 0.75540
# Poissons Ratio (z) = -0.07662 0.47580
#
# Static dielectric constant tensor:
#      x y z
#    x 1.960110 0.000000 0.000000 
#    y 0.000000 1.956150 0.000000 
#    z 0.000000 0.000000 1.961320 
# 
# From -- ./inp_files/36704.got.cif
#   From: 2010.05.17/outbox.cif.g08.bks.cpg/sg66_19_cif.got.tgz:36704.got - 2010.06.03 17:51:23.
