data_PCOD9497839
_publ_section_title
;
Structure prediction by ZEFSAII (Michael W. Deem and Ramdas Pophale) SiO2 
 PCOD9497839
Probable space group: C C C M
;
_chemical_formula_sum "Si O2"
_cell_formula_units_Z 96
_cell_length_a 22.453660
_cell_length_b 16.575671
_cell_length_c 15.622443
_cell_angle_alpha 90.000000
_cell_angle_beta 90.000000
_cell_angle_gamma 90.000000
_cell_volume 5814.430838
_symmetry_space_group_name_H-M "C C C M"
_symmetry_group_IT_number 66
_symmetry_cell_setting 'orthorhombic'
loop_
_space_group_symop_operation_xyz
x,y,z
-x,-y,z
x,-y,1/2-z
-x,y,1/2-z
-x,-y,-z
x,y,-z
-x,y,1/2+z
x,-y,1/2+z
1/2+x,1/2+y,z
1/2-x,1/2-y,z
1/2+x,1/2-y,1/2-z
1/2-x,1/2+y,1/2-z
1/2-x,1/2-y,-z
1/2+x,1/2+y,-z
1/2-x,1/2+y,1/2+z
1/2+x,1/2-y,1/2+z
loop_
_atom_site_type_symbol
_atom_site_label
_atom_site_fract_x
_atom_site_fract_y
_atom_site_fract_z
Si Si1 0.295650 0.816241 0.601847
Si Si2 0.761250 0.113964 0.000000
Si Si3 0.401068 0.993480 0.900095
Si Si4 0.926986 0.332972 0.333568
Si Si5 0.269601 0.998829 0.651967
Si Si6 0.350606 0.763133 0.000000
Si Si7 0.054275 0.320416 0.632020
O O1 0.298575 0.808694 0.500000
O O2 0.250000 0.750000 0.636727
O O3 0.362306 0.805046 0.636313
O O4 0.272577 0.905867 0.622905
O O5 0.698457 0.164226 0.000000
O O6 0.813053 0.180828 0.000000
O O7 0.762776 0.056588 0.083768
O O8 0.439919 0.913519 0.897055
O O9 0.427675 0.071194 0.853772
O O10 0.338767 0.973568 0.853780
O O11 0.388925 0.014317 0.000000
O O12 0.932942 0.318745 0.232820
O O13 0.985249 0.295861 0.379206
O O14 0.248701 0.000000 0.750000
O O15 0.395258 0.773147 0.080136
#
# Coordination Sequence:
#
# PCOD9497839 Si02
#       7
#    16   8  16  16  16   8  16
#     4  10  21  36  55  80 105 135 176 226 271 316
#     4  11  22  40  50  83 110 145 190 220 262 329
#     4  11  18  29  48  73 105 146 185 218 256 310
#     4  10  22  31  51  73 106 138 182 222 261 319
#     4  11  19  34  56  75 109 147 179 222 267 311
#     4  11  24  34  56  72 116 150 177 220 264 316
#     4  11  20  35  46  75 105 145 182 216 258 315
#
# _framework density 16.510643000000002
#
# number of rings (size 3 to 8) (size 9 to 14) (size 15 to 20)
#    0.000    1.333    4.167    4.500    2.333    3.333 
#    0.000    0.000    0.000    0.000    0.000    2.333 
#    0.000    4.000    0.000    0.000    0.000    0.000 
#
# Total GULP energy -267803.609466 kJ/mol
# GULP energy per Si atom -5579.241864 kJ/mol
# Density = 1.647306 g / cm^3
# Si number density = 16.510643 Si / 1000 Ang^3
#
#
#
# Elastic Constant Matrix: (Units=GPa)
#
#
# Indices 1 2 3 4 5 6 
#
# 1 119.7414 66.7953 44.9806 0.0000 0.0000 0.0000
# 2 66.7953 69.1464 34.6478 0.0000 0.0000 0.0000
# 3 44.9806 34.6478 107.2854 0.0000 0.0000 0.0000
# 4 0.0000 0.0000 0.0000 9.7962 0.0000 0.0000
# 5 0.0000 0.0000 0.0000 0.0000 21.4816 0.0000
# 6 0.0000 0.0000 0.0000 0.0000 0.0000 20.5230
#
#
#
# Elastic Compliance Matrix: (Units=1/GPa)
#
#
# Indices 1 2 3 4 5 6 
#
# 1 0.018607 -0.016781 -0.002382 0.000000 0.000000 0.000000
# 2 -0.016781 0.032388 -0.003424 0.000000 0.000000 0.000000
# 3 -0.002382 -0.003424 0.011425 0.000000 0.000000 0.000000
# 4 0.000000 0.000000 0.000000 0.102080 0.000000 0.000000
# 5 0.000000 0.000000 0.000000 0.000000 0.046551 0.000000
# 6 0.000000 0.000000 0.000000 0.000000 0.000000 0.048726
#
#
# Mechanical properties :
#
#
# Convention : Reuss Voigt Hill
#
# Bulk Modulus (GPa) = 57.98179 65.44674 61.71427
# Shear Modulus (GPa) = 16.09272 20.34348 18.21810
#
# Velocity S-wave (km/s) = 3.12539 3.51400 3.32537
# Velocity P-wave (km/s) = 6.94393 7.49596 7.22522
#
# Compressibility (1/GPa) = 0.01724679
#
# Stress axis : x y z
#
# Youngs Moduli (GPa) = 53.74387 30.87572 87.52450
#
# Poissons Ratio (x) = 0.51811 0.20847
# Poissons Ratio (y) = 0.90186 0.29970
# Poissons Ratio (z) = 0.12801 0.10572
#
# Static dielectric constant tensor:
#      x y z
#    x 1.573220 0.000000 0.000000 
#    y 0.000000 1.537960 0.000000 
#    z 0.000000 0.000000 1.586020 
# 
# From -- ./inp_files/32399.got.cif
#   From: 2010.05.17/outbox.cif.g08.bks.cpg/sg66_17_cif.got.tgz:32399.got - 2010.06.03 17:51:23.
