data_PCOD9497100
_publ_section_title
;
Structure prediction by ZEFSAII (Michael W. Deem and Ramdas Pophale) SiO2 
 PCOD9497100
Probable space group: C C C M
;
_chemical_formula_sum "Si O2"
_cell_formula_units_Z 64
_cell_length_a 7.868128
_cell_length_b 14.815859
_cell_length_c 28.357264
_cell_angle_alpha 90.000000
_cell_angle_beta 90.000000
_cell_angle_gamma 90.000000
_cell_volume 3305.693464
_symmetry_space_group_name_H-M "C C C M"
_symmetry_group_IT_number 66
_symmetry_cell_setting 'orthorhombic'
loop_
_space_group_symop_operation_xyz
x,y,z
-x,-y,z
x,-y,1/2-z
-x,y,1/2-z
-x,-y,-z
x,y,-z
-x,y,1/2+z
x,-y,1/2+z
1/2+x,1/2+y,z
1/2-x,1/2-y,z
1/2+x,1/2-y,1/2-z
1/2-x,1/2+y,1/2-z
1/2-x,1/2-y,-z
1/2+x,1/2+y,-z
1/2-x,1/2+y,1/2+z
1/2+x,1/2-y,1/2+z
loop_
_atom_site_type_symbol
_atom_site_label
_atom_site_fract_x
_atom_site_fract_y
_atom_site_fract_z
Si Si1 0.872425 0.416354 0.447216
Si Si2 0.551535 0.763569 0.386042
Si Si3 0.118319 0.333769 0.205986
Si Si4 0.632752 0.575719 0.137392
O O1 0.807830 0.396651 0.500000
O O2 0.735433 0.449488 0.409401
O O3 0.000000 0.500000 0.450402
O O4 0.962179 0.327680 0.424778
O O5 0.750000 0.750000 0.395455
O O6 0.513786 0.809202 0.335623
O O7 0.458572 0.668154 0.378682
O O8 0.250000 0.250000 0.216411
O O9 0.240701 0.406378 0.181003
O O10 0.000000 0.357758 0.250000
O O11 0.500000 0.500000 0.150434
#
# Coordination Sequence:
#
# PCOD9497100 Si02
#       4
#    16  16  16  16
#     4  10  21  37  58  85 116 152 195 241 289 343
#     4  10  20  35  59  85 113 152 188 233 291 344
#     4   9  18  34  60  85 109 145 189 237 290 345
#     4  10  21  37  59  86 118 154 193 237 287 343
#
# _framework density 19.360537000000001
#
# number of rings (size 3 to 8) (size 9 to 14) (size 15 to 20)
#    0.000    2.250    0.000    4.500    0.000    3.000 
#    0.000    0.000    0.000  118.500    0.000    0.000 
#    0.000    0.000    0.000    0.000    0.000    0.000 
#
# Total GULP energy -178441.195076 kJ/mol
# GULP energy per Si atom -5576.287346 kJ/mol
# Density = 1.931647 g / cm^3
# Si number density = 19.360537 Si / 1000 Ang^3
#
#
#
# Elastic Constant Matrix: (Units=GPa)
#
#
# Indices 1 2 3 4 5 6 
#
# 1 71.3455 4.6830 48.1366 0.0000 0.0000 0.0000
# 2 4.6830 61.6287 33.6841 0.0000 0.0000 0.0000
# 3 48.1366 33.6841 145.5472 0.0000 0.0000 0.0000
# 4 0.0000 0.0000 0.0000 3.0644 0.0000 0.0000
# 5 0.0000 0.0000 0.0000 0.0000 146.5811 0.0000
# 6 0.0000 0.0000 0.0000 0.0000 0.0000 23.9181
#
#
#
# Elastic Compliance Matrix: (Units=1/GPa)
#
#
# Indices 1 2 3 4 5 6 
#
# 1 0.018298 0.002195 -0.006560 0.000000 0.000000 0.000000
# 2 0.002195 0.018839 -0.005086 0.000000 0.000000 0.000000
# 3 -0.006560 -0.005086 0.010217 0.000000 0.000000 0.000000
# 4 0.000000 0.000000 0.000000 0.326330 0.000000 0.000000
# 5 0.000000 0.000000 0.000000 0.000000 0.006822 0.000000
# 6 0.000000 0.000000 0.000000 0.000000 0.000000 0.041809
#
#
# Mechanical properties :
#
#
# Convention : Reuss Voigt Hill
#
# Bulk Modulus (GPa) = 35.14566 50.16985 42.65775
# Shear Modulus (GPa) = 11.09382 47.51390 29.30386
#
# Velocity S-wave (km/s) = 2.39636 4.95932 3.89471
# Velocity P-wave (km/s) = 5.08423 7.66570 6.50432
#
# Compressibility (1/GPa) = 0.02845301
#
# Stress axis : x y z
#
# Youngs Moduli (GPa) = 54.65084 53.08086 97.87520
#
# Poissons Ratio (x) = -0.11650 0.64202
# Poissons Ratio (y) = -0.11995 0.49778
# Poissons Ratio (z) = 0.35849 0.26996
#
# Static dielectric constant tensor:
#      x y z
#    x 1.701300 0.000000 0.000000 
#    y 0.000000 1.713190 0.000000 
#    z 0.000000 0.000000 1.680640 
# 
# From -- ./inp_files/54931.got.cif
#   From: 2010.05.17/outbox.cif.g08.bks.cpg/sg66_28_cif.got.tgz:54931.got - 2010.06.03 17:51:23.
