data_PCOD9497833
_publ_section_title
;
Structure prediction by ZEFSAII (Michael W. Deem and Ramdas Pophale) SiO2 
 PCOD9497833
Probable space group: C C C M
;
_chemical_formula_sum "Si O2"
_cell_formula_units_Z 64
_cell_length_a 35.895997
_cell_length_b 5.256702
_cell_length_c 15.091018
_cell_angle_alpha 90.000000
_cell_angle_beta 90.000000
_cell_angle_gamma 90.000000
_cell_volume 2847.592990
_symmetry_space_group_name_H-M "C C C M"
_symmetry_group_IT_number 66
_symmetry_cell_setting 'orthorhombic'
loop_
_space_group_symop_operation_xyz
x,y,z
-x,-y,z
x,-y,1/2-z
-x,y,1/2-z
-x,-y,-z
x,y,-z
-x,y,1/2+z
x,-y,1/2+z
1/2+x,1/2+y,z
1/2-x,1/2-y,z
1/2+x,1/2-y,1/2-z
1/2-x,1/2+y,1/2-z
1/2-x,1/2-y,-z
1/2+x,1/2+y,-z
1/2-x,1/2+y,1/2+z
1/2+x,1/2-y,1/2+z
loop_
_atom_site_type_symbol
_atom_site_label
_atom_site_fract_x
_atom_site_fract_y
_atom_site_fract_z
Si Si1 0.395735 0.464563 0.855156
Si Si2 0.358633 0.023224 0.354816
Si Si3 0.772102 0.497333 0.892911
Si Si4 0.477661 0.252368 0.107008
O O1 0.390968 0.500000 0.750000
O O2 0.384212 0.744315 0.890719
O O3 0.435658 0.327971 0.867713
O O4 0.368274 0.252574 0.893300
O O5 0.314635 0.049628 0.365112
O O6 0.366889 0.000000 0.250000
O O7 0.750000 0.250000 0.863158
O O8 0.750000 0.750000 0.862242
O O9 0.772197 0.506991 0.000000
O O10 0.500000 0.500000 0.136260
O O11 0.500000 0.000000 0.138696
O O12 0.478019 0.237644 0.000000
#
# Coordination Sequence:
#
# PCOD9497833 Si02
#       4
#    16  16  16  16
#     4  10  21  37  55  80 111 142 181 226 271 326
#     4  10  21  36  55  79 108 142 181 224 270 324
#     4  10  21  36  54  79 109 140 179 225 271 324
#     4  10  21  37  57  82 111 143 182 227 274 328
#
# _framework density 22.475123
#
# number of rings (size 3 to 8) (size 9 to 14) (size 15 to 20)
#    0.000    2.000    0.000    3.000    0.000    3.500 
#    0.000    1.250    0.000    0.000    0.000    0.000 
#    0.000    0.000    0.000    0.000    0.000    0.000 
#
# Total GULP energy -178408.494979 kJ/mol
# GULP energy per Si atom -5575.265468 kJ/mol
# Density = 2.242397 g / cm^3
# Si number density = 22.475123 Si / 1000 Ang^3
#
#
#
# Elastic Constant Matrix: (Units=GPa)
#
#
# Indices 1 2 3 4 5 6 
#
# 1 123.1241 89.1879 -12.8078 0.0000 0.0000 0.0000
# 2 89.1879 236.5170 23.1495 0.0000 0.0000 0.0000
# 3 -12.8078 23.1495 52.6804 0.0000 0.0000 0.0000
# 4 0.0000 0.0000 0.0000 -23.5191 0.0000 0.0000
# 5 0.0000 0.0000 0.0000 0.0000 49.4510 0.0000
# 6 0.0000 0.0000 0.0000 0.0000 0.0000 17.3245
#
#
#
# Elastic Compliance Matrix: (Units=1/GPa)
#
#
# Indices 1 2 3 4 5 6 
#
# 1 0.012455 -0.005217 0.005321 0.000000 0.000000 0.000000
# 2 -0.005217 0.006604 -0.004170 0.000000 0.000000 0.000000
# 3 0.005321 -0.004170 0.022109 0.000000 0.000000 0.000000
# 4 0.000000 0.000000 0.000000 -0.042519 0.000000 0.000000
# 5 0.000000 0.000000 0.000000 0.000000 0.020222 0.000000
# 6 0.000000 0.000000 0.000000 0.000000 0.000000 0.057722
#
#
# Mechanical properties :
#
#
# Convention : Reuss Voigt Hill
#
# Bulk Modulus (GPa) = 30.27281 67.93118 49.10200
# Shear Modulus (GPa) = 52.22668 29.50408 40.86538
#
# Velocity S-wave (km/s) = 4.82576 3.62711 4.26872
# Velocity P-wave (km/s) = 6.67453 6.91606 6.79637
#
# Compressibility (1/GPa) = 0.03303294
#
# Stress axis : x y z
#
# Youngs Moduli (GPa) = 80.29152 151.43319 45.23142
#
# Poissons Ratio (x) = 0.79007 -0.24066
# Poissons Ratio (y) = 0.41890 0.18863
# Poissons Ratio (z) = -0.42720 0.63152
#
# Static dielectric constant tensor:
#      x y z
#    x 1.873980 0.000000 0.000000 
#    y 0.000000 1.852930 0.000000 
#    z 0.000000 0.000000 1.831510 
# 
# From -- ./inp_files/35034.got.cif
#   From: 2010.05.17/outbox.cif.g08.bks.cpg/sg66_18_cif.got.tgz:35034.got - 2010.06.03 17:51:23.
