data_PCOD9497982
_publ_section_title
;
Structure prediction by ZEFSAII (Michael W. Deem and Ramdas Pophale) SiO2 
 PCOD9497982
Probable space group: C C C M
;
_chemical_formula_sum "Si O2"
_cell_formula_units_Z 80
_cell_length_a 8.960196
_cell_length_b 16.002432
_cell_length_c 26.242533
_cell_angle_alpha 90.000000
_cell_angle_beta 90.000000
_cell_angle_gamma 90.000000
_cell_volume 3762.783684
_symmetry_space_group_name_H-M "C C C M"
_symmetry_group_IT_number 66
_symmetry_cell_setting 'orthorhombic'
loop_
_space_group_symop_operation_xyz
x,y,z
-x,-y,z
x,-y,1/2-z
-x,y,1/2-z
-x,-y,-z
x,y,-z
-x,y,1/2+z
x,-y,1/2+z
1/2+x,1/2+y,z
1/2-x,1/2-y,z
1/2+x,1/2-y,1/2-z
1/2-x,1/2+y,1/2-z
1/2-x,1/2-y,-z
1/2+x,1/2+y,-z
1/2-x,1/2+y,1/2+z
1/2+x,1/2-y,1/2+z
loop_
_atom_site_type_symbol
_atom_site_label
_atom_site_fract_x
_atom_site_fract_y
_atom_site_fract_z
Si Si1 0.686711 0.951130 0.301201
Si Si2 0.553979 0.822694 0.635069
Si Si3 0.665843 0.957799 0.557796
Si Si4 0.022727 0.844748 0.190290
Si Si5 0.242173 0.592689 0.374916
O O1 0.583978 0.872424 0.312285
O O2 0.855184 0.917439 0.305962
O O3 0.666445 0.000000 0.250000
O O4 0.660088 0.019888 0.343664
O O5 0.652174 0.874731 0.593657
O O6 0.580363 0.728243 0.652546
O O7 0.381876 0.835764 0.617742
O O8 0.700982 0.933073 0.500000
O O9 0.500000 0.000000 0.557891
O O10 0.774262 0.034580 0.575830
O O11 0.000000 0.818302 0.250000
O O12 0.874488 0.876771 0.161540
#
# Coordination Sequence:
#
# PCOD9497982 Si02
#       5
#    16  16  16  16  16
#     4  11  22  38  55  77 112 163 200 234 284 353
#     4  10  23  37  58  89 114 153 202 253 291 354
#     4   8  16  37  65  90 116 152 201 261 309 345
#     4  12  24  37  53  82 128 164 189 240 309 356
#     4  10  21  37  60  86 115 152 206 245 288 363
#
# _framework density 21.260854999999999
#
# number of rings (size 3 to 8) (size 9 to 14) (size 15 to 20)
#    0.000    1.800    2.000    3.600    2.800    2.400 
#    0.000    1.000    0.000   24.000    0.000    0.000 
#    0.000    0.000    0.000    0.000    0.000    0.000 
#
# Total GULP energy -222763.381841 kJ/mol
# GULP energy per Si atom -5569.084546 kJ/mol
# Density = 2.121246 g / cm^3
# Si number density = 21.260855 Si / 1000 Ang^3
#
#
#
# Elastic Constant Matrix: (Units=GPa)
#
#
# Indices 1 2 3 4 5 6 
#
# 1 71.8632 18.2352 21.8791 0.0000 0.0000 0.0000
# 2 18.2352 76.5922 42.9082 0.0000 0.0000 0.0000
# 3 21.8791 42.9082 132.5788 0.0000 0.0000 0.0000
# 4 0.0000 0.0000 0.0000 22.9807 0.0000 0.0000
# 5 0.0000 0.0000 0.0000 0.0000 20.3395 0.0000
# 6 0.0000 0.0000 0.0000 0.0000 0.0000 26.4734
#
#
#
# Elastic Compliance Matrix: (Units=1/GPa)
#
#
# Indices 1 2 3 4 5 6 
#
# 1 0.015090 -0.002684 -0.001622 0.000000 0.000000 0.000000
# 2 -0.002684 0.016425 -0.004873 0.000000 0.000000 0.000000
# 3 -0.001622 -0.004873 0.009387 0.000000 0.000000 0.000000
# 4 0.000000 0.000000 0.000000 0.043515 0.000000 0.000000
# 5 0.000000 0.000000 0.000000 0.000000 0.049165 0.000000
# 6 0.000000 0.000000 0.000000 0.000000 0.000000 0.037774
#
#
# Mechanical properties :
#
#
# Convention : Reuss Voigt Hill
#
# Bulk Modulus (GPa) = 44.35533 49.67547 47.01540
# Shear Modulus (GPa) = 25.35124 27.15950 26.25537
#
# Velocity S-wave (km/s) = 3.45685 3.57801 3.51795
# Velocity P-wave (km/s) = 6.06966 6.36278 6.21795
#
# Compressibility (1/GPa) = 0.02254520
#
# Stress axis : x y z
#
# Youngs Moduli (GPa) = 66.26837 60.88232 106.52623
#
# Poissons Ratio (x) = 0.16343 0.17274
# Poissons Ratio (y) = 0.17788 0.51909
# Poissons Ratio (z) = 0.10746 0.29667
#
# Static dielectric constant tensor:
#      x y z
#    x 1.863390 0.000000 0.000000 
#    y 0.000000 1.877100 0.000000 
#    z 0.000000 0.000000 2.016340 
# 
# From -- ./inp_files/62405.got.cif
#   From: 2010.05.17/outbox.cif.g08.bks.cpg/sg66_32_cif.got.tgz:62405.got - 2010.06.03 17:51:23.
