data_PCOD9497550
_publ_section_title
;
Structure prediction by ZEFSAII (Michael W. Deem and Ramdas Pophale) SiO2 
 PCOD9497550
Probable space group: C C C M
;
_chemical_formula_sum "Si O2"
_cell_formula_units_Z 64
_cell_length_a 12.672454
_cell_length_b 9.937512
_cell_length_c 23.095335
_cell_angle_alpha 90.000000
_cell_angle_beta 90.000000
_cell_angle_gamma 90.000000
_cell_volume 2908.457055
_symmetry_space_group_name_H-M "C C C M"
_symmetry_group_IT_number 66
_symmetry_cell_setting 'orthorhombic'
loop_
_space_group_symop_operation_xyz
x,y,z
-x,-y,z
x,-y,1/2-z
-x,y,1/2-z
-x,-y,-z
x,y,-z
-x,y,1/2+z
x,-y,1/2+z
1/2+x,1/2+y,z
1/2-x,1/2-y,z
1/2+x,1/2-y,1/2-z
1/2-x,1/2+y,1/2-z
1/2-x,1/2-y,-z
1/2+x,1/2+y,-z
1/2-x,1/2+y,1/2+z
1/2+x,1/2-y,1/2+z
loop_
_atom_site_type_symbol
_atom_site_label
_atom_site_fract_x
_atom_site_fract_y
_atom_site_fract_z
Si Si1 0.645633 0.152960 0.000000
Si Si2 0.993471 0.693268 0.181902
Si Si3 0.160327 0.137328 0.123914
Si Si4 0.447063 0.645933 0.500000
Si Si5 0.343224 0.961848 0.125238
O O1 0.750000 0.250000 0.000000
O O2 0.644743 0.060081 0.943175
O O3 0.540428 0.244224 0.000000
O O4 0.938692 0.831990 0.164416
O O5 0.916522 0.581669 0.151404
O O6 0.000000 0.671936 0.250000
O O7 0.108435 0.669676 0.155010
O O8 0.250000 0.250000 0.134091
O O9 0.121794 0.153959 0.058056
O O10 0.222029 0.999471 0.135303
O O11 0.500000 0.500000 0.500000
#
# Coordination Sequence:
#
# PCOD9497550 Si02
#       5
#     8  16  16   8  16
#     4  12  24  39  60 101 131 177 217 280 348 423
#     4  10  21  40  66  92 126 174 227 276 327 396
#     4  10  21  39  65  96 126 168 213 269 331 401
#     4  12  23  40  64  91 141 169 205 276 344 414
#     4  10  20  38  63  94 128 162 223 268 337 397
#
# _framework density 22.004794
#
# number of rings (size 3 to 8) (size 9 to 14) (size 15 to 20)
#    0.000    1.500    2.500    4.125    0.000    5.000 
#    0.000    6.250    5.500    0.000    0.000    0.000 
#    0.000    0.000    0.000    0.000    0.000    0.000 
#
# Total GULP energy -178702.165343 kJ/mol
# GULP energy per Si atom -5584.442667 kJ/mol
# Density = 2.195471 g / cm^3
# Si number density = 22.004794 Si / 1000 Ang^3
#
#
#
# Elastic Constant Matrix: (Units=GPa)
#
#
# Indices 1 2 3 4 5 6 
#
# 1 138.5681 59.3275 50.7737 0.0000 0.0000 0.0000
# 2 59.3275 62.6326 35.8774 0.0000 0.0000 0.0000
# 3 50.7737 35.8774 172.9280 0.0000 0.0000 0.0000
# 4 0.0000 0.0000 0.0000 -31.4952 0.0000 0.0000
# 5 0.0000 0.0000 0.0000 0.0000 -8.8347 0.0000
# 6 0.0000 0.0000 0.0000 0.0000 0.0000 60.0138
#
#
#
# Elastic Compliance Matrix: (Units=1/GPa)
#
#
# Indices 1 2 3 4 5 6 
#
# 1 0.012419 -0.010980 -0.001368 0.000000 0.000000 0.000000
# 2 -0.010980 0.027827 -0.002549 0.000000 0.000000 0.000000
# 3 -0.001368 -0.002549 0.006713 0.000000 0.000000 0.000000
# 4 0.000000 0.000000 0.000000 -0.031751 0.000000 0.000000
# 5 0.000000 0.000000 0.000000 0.000000 -0.113190 0.000000
# 6 0.000000 0.000000 0.000000 0.000000 0.000000 0.016663
#
#
# Mechanical properties :
#
#
# Convention : Reuss Voigt Hill
#
# Bulk Modulus (GPa) = 58.26120 74.00955 66.13537
# Shear Modulus (GPa) = -109.16569 19.14680 -45.00944
#
# Velocity S-wave (km/s) = -7.05107 2.95298 -4.52756
# Velocity P-wave (km/s) = 6.30525 6.73299 1.66989
#
# Compressibility (1/GPa) = 0.01716408
#
# Stress axis : x y z
#
# Youngs Moduli (GPa) = 80.52139 35.93641 148.95447
#
# Poissons Ratio (x) = 0.39458 0.20383
# Poissons Ratio (y) = 0.88411 0.37975
# Poissons Ratio (z) = 0.11018 0.09162
#
# Static dielectric constant tensor:
#      x y z
#    x 1.848460 0.000000 0.000000 
#    y 0.000000 1.898000 0.000000 
#    z 0.000000 0.000000 1.730720 
# 
# From -- ./inp_files/63334.got.cif
#   From: 2010.05.17/outbox.cif.g08.bks.cpg/sg66_32_cif.got.tgz:63334.got - 2010.06.03 17:51:23.
