data_PCOD9497309
_publ_section_title
;
Structure prediction by ZEFSAII (Michael W. Deem and Ramdas Pophale) SiO2 
 PCOD9497309
Probable space group: C C C M
;
_chemical_formula_sum "Si O2"
_cell_formula_units_Z 116
_cell_length_a 11.618700
_cell_length_b 27.447473
_cell_length_c 19.973995
_cell_angle_alpha 90.000000
_cell_angle_beta 90.000000
_cell_angle_gamma 90.000000
_cell_volume 6369.785994
_symmetry_space_group_name_H-M "C C C M"
_symmetry_group_IT_number 66
_symmetry_cell_setting 'orthorhombic'
loop_
_space_group_symop_operation_xyz
x,y,z
-x,-y,z
x,-y,1/2-z
-x,y,1/2-z
-x,-y,-z
x,y,-z
-x,y,1/2+z
x,-y,1/2+z
1/2+x,1/2+y,z
1/2-x,1/2-y,z
1/2+x,1/2-y,1/2-z
1/2-x,1/2+y,1/2-z
1/2-x,1/2-y,-z
1/2+x,1/2+y,-z
1/2-x,1/2+y,1/2+z
1/2+x,1/2-y,1/2+z
loop_
_atom_site_type_symbol
_atom_site_label
_atom_site_fract_x
_atom_site_fract_y
_atom_site_fract_z
Si Si1 0.380817 0.473991 0.319862
Si Si2 0.597479 0.641264 0.303929
Si Si3 0.965988 0.191604 0.579182
Si Si4 0.268741 0.977387 0.425963
Si Si5 0.231000 0.632464 0.420116
Si Si6 0.500000 0.000000 0.500000
Si Si7 0.317683 0.202277 0.286062
Si Si8 0.944611 0.703960 0.146082
O O1 0.500000 0.500000 0.340691
O O2 0.348071 0.500000 0.250000
O O3 0.401112 0.416848 0.310107
O O4 0.287311 0.484530 0.376218
O O5 0.500000 0.655975 0.250000
O O6 0.561205 0.666658 0.373646
O O7 0.722135 0.660496 0.281564
O O8 0.991250 0.188520 0.500000
O O9 0.846697 0.162953 0.592453
O O10 0.948479 0.247423 0.601538
O O11 0.210160 0.978501 0.500000
O O12 0.255916 0.923039 0.396565
O O13 0.401089 0.988173 0.442870
O O14 0.213770 0.629678 0.500000
O O15 0.123339 0.660562 0.389339
O O16 0.250000 0.250000 0.310468
O O17 0.373827 0.214398 0.214205
O O18 0.425391 0.190485 0.333438
#
# Coordination Sequence:
#
# PCOD9497309 Si02
#       8
#    16  16  16  16  16   4  16  16
#     4  11  23  40  64 101 129 161 212 272 329 376
#     4  12  23  41  66  89 132 172 202 263 323 387
#     4  11  23  39  63  96 130 164 211 262 320 373
#     4   9  21  41  66  86 126 166 214 261 321 391
#     4  10  20  36  63  91 114 162 206 257 315 365
#     4   8  20  44  64  84 122 170 214 264 314 384
#     4  11  23  39  59  90 119 171 213 240 320 381
#     4  11  22  38  60  88 127 157 214 265 294 381
#
# _framework density 18.210972000000002
#
# number of rings (size 3 to 8) (size 9 to 14) (size 15 to 20)
#    0.414    0.966    2.759    4.138    1.931    3.034 
#    0.000    2.414    0.000    0.000    0.000    0.000 
#    0.000    0.000    0.000    0.000    0.000    0.000 
#
# Total GULP energy -323252.433542 kJ/mol
# GULP energy per Si atom -5573.317820 kJ/mol
# Density = 1.816952 g / cm^3
# Si number density = 18.210972 Si / 1000 Ang^3
#
#
#
# Elastic Constant Matrix: (Units=GPa)
#
#
# Indices 1 2 3 4 5 6 
#
# 1 99.2292 27.5246 35.9019 0.0000 0.0000 0.0000
# 2 27.5246 58.6793 16.6913 0.0000 0.0000 0.0000
# 3 35.9019 16.6913 68.3689 0.0000 0.0000 0.0000
# 4 0.0000 0.0000 0.0000 17.6565 0.0000 0.0000
# 5 0.0000 0.0000 0.0000 0.0000 3738.9863 0.0000
# 6 0.0000 0.0000 0.0000 0.0000 0.0000 14.4948
#
#
#
# Elastic Compliance Matrix: (Units=1/GPa)
#
#
# Indices 1 2 3 4 5 6 
#
# 1 0.013526 -0.004647 -0.005968 0.000000 0.000000 0.000000
# 2 -0.004647 0.019910 -0.002421 0.000000 0.000000 0.000000
# 3 -0.005968 -0.002421 0.018352 0.000000 0.000000 0.000000
# 4 0.000000 0.000000 0.000000 0.056636 0.000000 0.000000
# 5 0.000000 0.000000 0.000000 0.000000 0.000267 0.000000
# 6 0.000000 0.000000 0.000000 0.000000 0.000000 0.068990
#
#
# Mechanical properties :
#
#
# Convention : Reuss Voigt Hill
#
# Bulk Modulus (GPa) = 38.88623 42.94588 40.91606
# Shear Modulus (GPa) = 23.54878 763.97150 393.76014
#
# Velocity S-wave (km/s) = 3.59988 20.50420 14.72042
# Velocity P-wave (km/s) = 6.21920 24.17016 17.64759
#
# Compressibility (1/GPa) = 0.02571604
#
# Stress axis : x y z
#
# Youngs Moduli (GPa) = 73.93142 50.22586 54.49129
#
# Poissons Ratio (x) = 0.23340 0.32522
# Poissons Ratio (y) = 0.34356 0.13190
# Poissons Ratio (z) = 0.44125 0.12157
#
# Static dielectric constant tensor:
#      x y z
#    x 1.607950 0.000000 0.000000 
#    y 0.000000 1.616340 0.000000 
#    z 0.000000 0.000000 1.646610 
# 
# From -- ./inp_files/39121.got.cif
#   From: 2010.05.17/outbox.cif.g08.bks.cpg/sg66_20_cif.got.tgz:39121.got - 2010.06.03 17:51:23.
