data_PCOD9497033
_publ_section_title
;
Structure prediction by ZEFSAII (Michael W. Deem and Ramdas Pophale) SiO2 
 PCOD9497033
Probable space group: C C C M
;
_chemical_formula_sum "Si O2"
_cell_formula_units_Z 116
_cell_length_a 14.035904
_cell_length_b 24.923010
_cell_length_c 17.903122
_cell_angle_alpha 90.000000
_cell_angle_beta 90.000000
_cell_angle_gamma 90.000000
_cell_volume 6262.815995
_symmetry_space_group_name_H-M "C C C M"
_symmetry_group_IT_number 66
_symmetry_cell_setting 'orthorhombic'
loop_
_space_group_symop_operation_xyz
x,y,z
-x,-y,z
x,-y,1/2-z
-x,y,1/2-z
-x,-y,-z
x,y,-z
-x,y,1/2+z
x,-y,1/2+z
1/2+x,1/2+y,z
1/2-x,1/2-y,z
1/2+x,1/2-y,1/2-z
1/2-x,1/2+y,1/2-z
1/2-x,1/2-y,-z
1/2+x,1/2+y,-z
1/2-x,1/2+y,1/2+z
1/2+x,1/2-y,1/2+z
loop_
_atom_site_type_symbol
_atom_site_label
_atom_site_fract_x
_atom_site_fract_y
_atom_site_fract_z
Si Si1 0.192246 0.993229 0.831162
Si Si2 0.486593 0.131701 0.090102
Si Si3 0.219855 0.407051 0.912759
Si Si4 0.500000 0.500000 0.750000
Si Si5 0.310159 0.304730 0.153728
Si Si6 0.802423 0.398293 0.910861
Si Si7 0.804071 0.194198 0.823860
Si Si8 0.003529 0.249287 0.340512
O O1 0.244019 0.947824 0.878106
O O2 0.239462 0.000000 0.750000
O O3 0.213712 0.049326 0.872088
O O4 0.081768 0.978354 0.808831
O O5 0.389994 0.101009 0.114566
O O6 0.585000 0.101119 0.107879
O O7 0.496796 0.191349 0.124862
O O8 0.480461 0.137487 0.000000
O O9 0.266070 0.349018 0.899212
O O10 0.215821 0.420919 0.000000
O O11 0.250000 0.250000 0.153005
O O12 0.186730 0.172658 0.238958
O O13 0.414794 0.285701 0.133496
O O14 0.755171 0.345913 0.874273
O O15 0.794353 0.396493 0.000000
O O16 0.750000 0.250000 0.815881
O O17 0.904237 0.213425 0.856801
O O18 0.000000 0.255570 0.250000
#
# Coordination Sequence:
#
# PCOD9497033 Si02
#       8
#    16  16  16   4  16  16  16  16
#     4  10  23  46  70  90 116 158 201 252 306 362
#     4  10  22  37  58  89 131 169 195 244 310 367
#     4  11  23  40  63  92 127 163 204 253 307 369
#     4   8  24  48  74  86 116 156 202 260 308 352
#     4  10  20  35  57  87 123 167 211 257 303 358
#     4  11  23  40  63  92 127 163 204 253 307 369
#     4  10  20  35  57  87 123 167 211 257 303 358
#     4  10  20  35  56  85 123 166 215 255 304 362
#
# _framework density 18.522019
#
# number of rings (size 3 to 8) (size 9 to 14) (size 15 to 20)
#    0.414    1.379    2.759    1.241    0.000    4.414 
#    2.483    5.517    0.000    0.000    0.000    0.000 
#    0.000    0.000    0.000    0.000    0.000    0.000 
#
# Total GULP energy -322991.239046 kJ/mol
# GULP energy per Si atom -5568.814466 kJ/mol
# Density = 1.847986 g / cm^3
# Si number density = 18.522019 Si / 1000 Ang^3
#
#
#
# Elastic Constant Matrix: (Units=GPa)
#
#
# Indices 1 2 3 4 5 6 
#
# 1 111.1788 7.1404 0.3892 0.0000 0.0000 0.0000
# 2 7.1404 55.5738 8.8252 0.0000 0.0000 0.0000
# 3 0.3892 8.8252 27.2963 0.0000 0.0000 0.0000
# 4 0.0000 0.0000 0.0000 38.9427 0.0000 0.0000
# 5 0.0000 0.0000 0.0000 0.0000 29.8489 0.0000
# 6 0.0000 0.0000 0.0000 0.0000 0.0000 21.9355
#
#
#
# Elastic Compliance Matrix: (Units=1/GPa)
#
#
# Indices 1 2 3 4 5 6 
#
# 1 0.009071 -0.001207 0.000261 0.000000 0.000000 0.000000
# 2 -0.001207 0.019129 -0.006167 0.000000 0.000000 0.000000
# 3 0.000261 -0.006167 0.038625 0.000000 0.000000 0.000000
# 4 0.000000 0.000000 0.000000 0.025679 0.000000 0.000000
# 5 0.000000 0.000000 0.000000 0.000000 0.033502 0.000000
# 6 0.000000 0.000000 0.000000 0.000000 0.000000 0.045588
#
#
# Mechanical properties :
#
#
# Convention : Reuss Voigt Hill
#
# Bulk Modulus (GPa) = 19.01207 25.19540 22.10373
# Shear Modulus (GPa) = 24.58776 29.99169 27.28972
#
# Velocity S-wave (km/s) = 3.64742 4.02835 3.84261
# Velocity P-wave (km/s) = 5.29388 5.93879 5.62558
#
# Compressibility (1/GPa) = 0.05259818
#
# Stress axis : x y z
#
# Youngs Moduli (GPa) = 110.23991 52.27788 25.88984
#
# Poissons Ratio (x) = 0.06310 -0.00675
# Poissons Ratio (y) = 0.13305 0.15967
# Poissons Ratio (z) = -0.02876 0.32241
#
# Static dielectric constant tensor:
#      x y z
#    x 2.389490 0.000000 0.000000 
#    y 0.000000 1.616540 0.000000 
#    z 0.000000 0.000000 1.651760 
# 
# From -- ./inp_files/40713.got.cif
#   From: 2010.05.17/outbox.cif.g08.bks.cpg/sg66_21_cif.got.tgz:40713.got - 2010.06.03 17:51:23.
