data_PCOD9497264
_publ_section_title
;
Structure prediction by ZEFSAII (Michael W. Deem and Ramdas Pophale) SiO2 
 PCOD9497264
Probable space group: C C C M
;
_chemical_formula_sum "Si O2"
_cell_formula_units_Z 96
_cell_length_a 14.883878
_cell_length_b 17.209972
_cell_length_c 15.337643
_cell_angle_alpha 90.000000
_cell_angle_beta 90.000000
_cell_angle_gamma 90.000000
_cell_volume 3928.754488
_symmetry_space_group_name_H-M "C C C M"
_symmetry_group_IT_number 66
_symmetry_cell_setting 'orthorhombic'
loop_
_space_group_symop_operation_xyz
x,y,z
-x,-y,z
x,-y,1/2-z
-x,y,1/2-z
-x,-y,-z
x,y,-z
-x,y,1/2+z
x,-y,1/2+z
1/2+x,1/2+y,z
1/2-x,1/2-y,z
1/2+x,1/2-y,1/2-z
1/2-x,1/2+y,1/2-z
1/2-x,1/2-y,-z
1/2+x,1/2+y,-z
1/2-x,1/2+y,1/2+z
1/2+x,1/2-y,1/2+z
loop_
_atom_site_type_symbol
_atom_site_label
_atom_site_fract_x
_atom_site_fract_y
_atom_site_fract_z
Si Si1 0.736045 0.918432 0.097629
Si Si2 0.105296 0.624906 0.269771
Si Si3 0.673658 0.183710 0.098119
Si Si4 0.135660 0.773763 0.395361
Si Si5 0.399935 0.478782 0.350012
Si Si6 0.553208 0.675374 0.599284
O O1 0.656935 0.933290 0.165774
O O2 0.779346 0.831495 0.112575
O O3 0.818476 0.977727 0.104508
O O4 0.699959 0.919908 0.000000
O O5 0.162620 0.629263 0.180616
O O6 0.117392 0.706266 0.324438
O O7 0.000000 0.611031 0.250000
O O8 0.750000 0.250000 0.106686
O O9 0.583391 0.236070 0.104402
O O10 0.681566 0.150401 0.000000
O O11 0.129244 0.751675 0.500000
O O12 0.050367 0.829574 0.378242
O O13 0.500000 0.500000 0.385549
O O14 0.398953 0.500000 0.250000
O O15 0.388730 0.385835 0.349474
O O16 0.566650 0.651068 0.500000
#
# Coordination Sequence:
#
# PCOD9497264 Si02
#       6
#    16  16  16  16  16  16
#     4  11  24  41  63  96 137 183 230 275 336 413
#     4  12  24  37  62  91 133 176 220 278 337 397
#     4  10  22  38  59  87 121 164 217 271 329 394
#     4  10  20  36  60  92 134 179 220 269 330 403
#     4  11  24  37  61  95 135 177 218 267 329 400
#     4  10  20  36  60  90 128 173 219 268 327 394
#
# _framework density 24.435224999999999
#
# number of rings (size 3 to 8) (size 9 to 14) (size 15 to 20)
#    0.000    1.333    3.333    2.500    4.667    2.667 
#    0.000    0.000    0.000    0.500    0.000    1.167 
#    0.000    0.000    0.000    0.000    0.000    0.000 
#
# Total GULP energy -268344.241547 kJ/mol
# GULP energy per Si atom -5590.505032 kJ/mol
# Density = 2.437961 g / cm^3
# Si number density = 24.435225 Si / 1000 Ang^3
#
#
#
# Elastic Constant Matrix: (Units=GPa)
#
#
# Indices 1 2 3 4 5 6 
#
# 1 141.9037 -1.5682 67.4408 0.0000 0.0000 0.0000
# 2 -1.5682 49.2051 31.7828 0.0000 0.0000 0.0000
# 3 67.4408 31.7828 131.3250 0.0000 0.0000 0.0000
# 4 0.0000 0.0000 0.0000 9.8590 0.0000 0.0000
# 5 0.0000 0.0000 0.0000 0.0000 49.3930 0.0000
# 6 0.0000 0.0000 0.0000 0.0000 0.0000 25.0476
#
#
#
# Elastic Compliance Matrix: (Units=1/GPa)
#
#
# Indices 1 2 3 4 5 6 
#
# 1 0.010044 0.004329 -0.006206 0.000000 0.000000 0.000000
# 2 0.004329 0.025954 -0.008504 0.000000 0.000000 0.000000
# 3 -0.006206 -0.008504 0.012860 0.000000 0.000000 0.000000
# 4 0.000000 0.000000 0.000000 0.101430 0.000000 0.000000
# 5 0.000000 0.000000 0.000000 0.000000 0.020246 0.000000
# 6 0.000000 0.000000 0.000000 0.000000 0.000000 0.039924
#
#
# Mechanical properties :
#
#
# Convention : Reuss Voigt Hill
#
# Bulk Modulus (GPa) = 35.59313 57.52716 46.56015
# Shear Modulus (GPa) = 20.78265 31.84516 26.31390
#
# Velocity S-wave (km/s) = 2.91953 3.61397 3.28515
# Velocity P-wave (km/s) = 5.09537 6.40376 5.78667
#
# Compressibility (1/GPa) = 0.02809531
#
# Stress axis : x y z
#
# Youngs Moduli (GPa) = 99.56040 38.52954 77.76230
#
# Poissons Ratio (x) = -0.16678 0.48257
# Poissons Ratio (y) = -0.43095 0.66130
# Poissons Ratio (z) = 0.61784 0.32766
#
# Static dielectric constant tensor:
#      x y z
#    x 1.994260 0.000000 0.000000 
#    y 0.000000 2.045150 0.000000 
#    z 0.000000 0.000000 1.917230 
# 
# From -- ./inp_files/28363.got.cif
#   From: 2010.05.17/outbox.cif.g08.bks.cpg/sg66_15_cif.got.tgz:28363.got - 2010.06.03 17:51:23.
