data_PCOD9497756
_publ_section_title
;
Structure prediction by ZEFSAII (Michael W. Deem and Ramdas Pophale) SiO2 
 PCOD9497756
Probable space group: C C C M
;
_chemical_formula_sum "Si O2"
_cell_formula_units_Z 88
_cell_length_a 14.226701
_cell_length_b 12.576680
_cell_length_c 25.476564
_cell_angle_alpha 90.000000
_cell_angle_beta 90.000000
_cell_angle_gamma 90.000000
_cell_volume 4558.385703
_symmetry_space_group_name_H-M "C C C M"
_symmetry_group_IT_number 66
_symmetry_cell_setting 'orthorhombic'
loop_
_space_group_symop_operation_xyz
x,y,z
-x,-y,z
x,-y,1/2-z
-x,y,1/2-z
-x,-y,-z
x,y,-z
-x,y,1/2+z
x,-y,1/2+z
1/2+x,1/2+y,z
1/2-x,1/2-y,z
1/2+x,1/2-y,1/2-z
1/2-x,1/2+y,1/2-z
1/2-x,1/2-y,-z
1/2+x,1/2+y,-z
1/2-x,1/2+y,1/2+z
1/2+x,1/2-y,1/2+z
loop_
_atom_site_type_symbol
_atom_site_label
_atom_site_fract_x
_atom_site_fract_y
_atom_site_fract_z
Si Si1 0.442100 0.250699 0.629714
Si Si2 0.609470 0.307736 0.243751
Si Si3 0.147063 0.703059 0.654384
Si Si4 0.334355 0.036346 0.362162
Si Si5 0.307338 0.638602 0.940808
Si Si6 0.745280 0.500000 0.250000
O O1 0.383661 0.284734 0.682053
O O2 0.553431 0.264266 0.636203
O O3 0.412101 0.126383 0.625532
O O4 0.405871 0.323900 0.582918
O O5 0.500000 0.335399 0.250000
O O6 0.633655 0.209148 0.281999
O O7 0.675860 0.402090 0.262877
O O8 0.250000 0.750000 0.642016
O O9 0.137234 0.585704 0.631139
O O10 0.247413 0.063755 0.400254
O O11 0.302806 0.035876 0.301151
O O12 0.250000 0.750000 0.941614
O O13 0.311606 0.596931 0.000000
#
# Coordination Sequence:
#
# PCOD9497756 Si02
#       6
#    16  16  16  16  16   8
#     4  10  21  37  58  84 116 151 196 238 288 342
#     4  10  21  34  52  83 118 157 191 228 283 352
#     4  11  22  37  54  84 119 154 189 234 292 353
#     4  11  21  33  60  87 118 149 187 242 293 347
#     4   9  19  38  63  89 114 150 199 247 290 342
#     4  12  19  32  57  88 118 154 188 235 289 352
#
# _framework density 19.30508
#
# number of rings (size 3 to 8) (size 9 to 14) (size 15 to 20)
#    0.000    1.636    3.636    1.909    0.000    0.000 
#    0.000    5.455    0.000    7.636    0.000    0.000 
#    0.000    0.000    0.000    0.000    0.000    0.000 
#
# Total GULP energy -245295.571913 kJ/mol
# GULP energy per Si atom -5574.899362 kJ/mol
# Density = 1.926114 g / cm^3
# Si number density = 19.305080 Si / 1000 Ang^3
#
#
#
# Elastic Constant Matrix: (Units=GPa)
#
#
# Indices 1 2 3 4 5 6 
#
# 1 122.5933 11.2619 32.7430 0.0000 0.0000 0.0000
# 2 11.2619 36.6418 15.1695 0.0000 0.0000 0.0000
# 3 32.7430 15.1695 99.3625 0.0000 0.0000 0.0000
# 4 0.0000 0.0000 0.0000 18.3704 0.0000 0.0000
# 5 0.0000 0.0000 0.0000 0.0000 15.1613 0.0000
# 6 0.0000 0.0000 0.0000 0.0000 0.0000 21.3384
#
#
#
# Elastic Compliance Matrix: (Units=1/GPa)
#
#
# Indices 1 2 3 4 5 6 
#
# 1 0.009037 -0.001649 -0.002726 0.000000 0.000000 0.000000
# 2 -0.001649 0.029433 -0.003950 0.000000 0.000000 0.000000
# 3 -0.002726 -0.003950 0.011566 0.000000 0.000000 0.000000
# 4 0.000000 0.000000 0.000000 0.054435 0.000000 0.000000
# 5 0.000000 0.000000 0.000000 0.000000 0.065957 0.000000
# 6 0.000000 0.000000 0.000000 0.000000 0.000000 0.046864
#
#
# Mechanical properties :
#
#
# Convention : Reuss Voigt Hill
#
# Bulk Modulus (GPa) = 29.95334 41.88292 35.91813
# Shear Modulus (GPa) = 20.40226 24.26890 22.33558
#
# Velocity S-wave (km/s) = 3.25442 3.54944 3.40513
# Velocity P-wave (km/s) = 5.44712 6.20809 5.84002
#
# Compressibility (1/GPa) = 0.03338526
#
# Stress axis : x y z
#
# Youngs Moduli (GPa) = 110.66067 33.97507 86.46355
#
# Poissons Ratio (x) = 0.05602 0.23571
# Poissons Ratio (y) = 0.18246 0.34155
# Poissons Ratio (z) = 0.30167 0.13421
#
# Static dielectric constant tensor:
#      x y z
#    x 1.695420 0.000000 0.000000 
#    y 0.000000 1.721380 0.000000 
#    z 0.000000 0.000000 1.690840 
# 
# From -- ./inp_files/58121.got.cif
#   From: 2010.05.17/outbox.cif.g08.bks.cpg/sg66_30_cif.got.tgz:58121.got - 2010.06.03 17:51:23.
