data_PCOD9497506
_publ_section_title
;
Structure prediction by ZEFSAII (Michael W. Deem and Ramdas Pophale) SiO2 
 PCOD9497506
Probable space group: C C C M
;
_chemical_formula_sum "Si O2"
_cell_formula_units_Z 88
_cell_length_a 30.801595
_cell_length_b 5.561465
_cell_length_c 26.980022
_cell_angle_alpha 90.000000
_cell_angle_beta 90.000000
_cell_angle_gamma 90.000000
_cell_volume 4621.731527
_symmetry_space_group_name_H-M "C C C M"
_symmetry_group_IT_number 66
_symmetry_cell_setting 'orthorhombic'
loop_
_space_group_symop_operation_xyz
x,y,z
-x,-y,z
x,-y,1/2-z
-x,y,1/2-z
-x,-y,-z
x,y,-z
-x,y,1/2+z
x,-y,1/2+z
1/2+x,1/2+y,z
1/2-x,1/2-y,z
1/2+x,1/2-y,1/2-z
1/2-x,1/2+y,1/2-z
1/2-x,1/2-y,-z
1/2+x,1/2+y,-z
1/2-x,1/2+y,1/2+z
1/2+x,1/2-y,1/2+z
loop_
_atom_site_type_symbol
_atom_site_label
_atom_site_fract_x
_atom_site_fract_y
_atom_site_fract_z
Si Si1 0.086604 0.241309 0.375662
Si Si2 0.801557 0.757515 0.891893
Si Si3 0.142537 0.928185 0.697371
Si Si4 0.834852 0.740987 0.558709
Si Si5 0.056066 0.630370 0.300984
Si Si6 0.500000 0.500000 0.647633
O O1 0.114463 0.263709 0.425132
O O2 0.068559 0.478235 0.349636
O O3 0.121998 0.141449 0.335925
O O4 0.044041 0.073221 0.380723
O O5 0.750000 0.750000 0.886190
O O6 0.825819 0.783642 0.839061
O O7 0.815538 0.505532 0.917612
O O8 0.814972 0.004457 0.921260
O O9 0.099234 0.782264 0.710106
O O10 0.162893 0.000000 0.750000
O O11 0.829025 0.733024 0.500000
O O12 0.047892 0.500000 0.250000
O O13 0.015268 0.787505 0.316778
#
# Coordination Sequence:
#
# PCOD9497506 Si02
#       6
#    16  16  16  16  16   8
#     4  10  21  38  58  85 123 165 209 258 315 375
#     4  11  24  43  68 100 131 163 210 267 324 388
#     4  10  20  38  59  88 125 171 207 247 307 384
#     4  11  24  44  70  95 125 167 215 270 331 384
#     4  11  20  36  57  84 122 167 211 256 313 374
#     4  10  24  35  53  88 126 160 209 268 317 368
#
# _framework density 19.040482999999998
#
# number of rings (size 3 to 8) (size 9 to 14) (size 15 to 20)
#    0.000    1.455    3.636    1.636    0.000    4.364 
#    0.000    5.000    0.000    2.182    0.000    0.000 
#    0.000    0.000    0.000    0.000    0.000    0.000 
#
# Total GULP energy -245396.562838 kJ/mol
# GULP energy per Si atom -5577.194610 kJ/mol
# Density = 1.899715 g / cm^3
# Si number density = 19.040483 Si / 1000 Ang^3
#
#
#
# Elastic Constant Matrix: (Units=GPa)
#
#
# Indices 1 2 3 4 5 6 
#
# 1 116.2963 35.0959 46.7044 0.0000 0.0000 0.0000
# 2 35.0959 94.5510 27.4345 0.0000 0.0000 0.0000
# 3 46.7044 27.4345 94.3616 0.0000 0.0000 0.0000
# 4 0.0000 0.0000 0.0000 22.3294 0.0000 0.0000
# 5 0.0000 0.0000 0.0000 0.0000 2.0603 0.0000
# 6 0.0000 0.0000 0.0000 0.0000 0.0000 25.5595
#
#
#
# Elastic Compliance Matrix: (Units=1/GPa)
#
#
# Indices 1 2 3 4 5 6 
#
# 1 0.011385 -0.002830 -0.004813 0.000000 0.000000 0.000000
# 2 -0.002830 0.012254 -0.002162 0.000000 0.000000 0.000000
# 3 -0.004813 -0.002162 0.013608 0.000000 0.000000 0.000000
# 4 0.000000 0.000000 0.000000 0.044784 0.000000 0.000000
# 5 0.000000 0.000000 0.000000 0.000000 0.485364 0.000000
# 6 0.000000 0.000000 0.000000 0.000000 0.000000 0.039124
#
#
# Mechanical properties :
#
#
# Convention : Reuss Voigt Hill
#
# Bulk Modulus (GPa) = 56.69323 58.18649 57.43986
# Shear Modulus (GPa) = 7.91129 23.05477 15.48303
#
# Velocity S-wave (km/s) = 2.04059 3.48347 2.85470
# Velocity P-wave (km/s) = 5.94910 6.84143 6.41081
#
# Compressibility (1/GPa) = 0.01763879
#
# Stress axis : x y z
#
# Youngs Moduli (GPa) = 87.83203 81.60597 73.48560
#
# Poissons Ratio (x) = 0.23092 0.35365
# Poissons Ratio (y) = 0.24854 0.15889
# Poissons Ratio (z) = 0.42269 0.17644
#
# Static dielectric constant tensor:
#      x y z
#    x 1.655940 0.000000 0.000000 
#    y 0.000000 1.754690 0.000000 
#    z 0.000000 0.000000 1.652390 
# 
# From -- ./inp_files/54447.got.cif
#   From: 2010.05.17/outbox.cif.g08.bks.cpg/sg66_28_cif.got.tgz:54447.got - 2010.06.03 17:51:23.
