data_PCOD9497434
_publ_section_title
;
Structure prediction by ZEFSAII (Michael W. Deem and Ramdas Pophale) SiO2 
 PCOD9497434
Probable space group: C C C M
;
_chemical_formula_sum "Si O2"
_cell_formula_units_Z 64
_cell_length_a 15.255901
_cell_length_b 10.658489
_cell_length_c 15.499239
_cell_angle_alpha 90.000000
_cell_angle_beta 90.000000
_cell_angle_gamma 90.000000
_cell_volume 2520.251479
_symmetry_space_group_name_H-M "C C C M"
_symmetry_group_IT_number 66
_symmetry_cell_setting 'orthorhombic'
loop_
_space_group_symop_operation_xyz
x,y,z
-x,-y,z
x,-y,1/2-z
-x,y,1/2-z
-x,-y,-z
x,y,-z
-x,y,1/2+z
x,-y,1/2+z
1/2+x,1/2+y,z
1/2-x,1/2-y,z
1/2+x,1/2-y,1/2-z
1/2-x,1/2+y,1/2-z
1/2-x,1/2-y,-z
1/2+x,1/2+y,-z
1/2-x,1/2+y,1/2+z
1/2+x,1/2-y,1/2+z
loop_
_atom_site_type_symbol
_atom_site_label
_atom_site_fract_x
_atom_site_fract_y
_atom_site_fract_z
Si Si1 0.153576 0.744950 0.668720
Si Si2 0.477952 0.761005 0.903575
Si Si3 0.363157 0.486891 0.395383
Si Si4 0.808073 0.639834 0.641192
O O1 0.250000 0.750000 0.624180
O O2 0.115858 0.887116 0.657127
O O3 0.173519 0.683876 0.761189
O O4 0.064567 0.680311 0.637836
O O5 0.424757 0.633500 0.872187
O O6 0.401295 0.864022 0.902016
O O7 0.504229 0.727006 0.000000
O O8 0.367559 0.500981 0.500000
O O9 0.261615 0.468749 0.367419
O O10 0.750000 0.750000 0.598255
#
# Coordination Sequence:
#
# PCOD9497434 Si02
#       4
#    16  16  16  16
#     4  11  23  37  59  92 128 158 197 255 311 358
#     4  10  20  37  62  90 120 158 203 250 304 367
#     4  10  21  40  65  90 119 160 207 251 303 369
#     4   9  20  37  59  86 119 158 202 248 299 358
#
# _framework density 25.394292
#
# number of rings (size 3 to 8) (size 9 to 14) (size 15 to 20)
#    0.000    2.000    0.000    3.000    0.000   16.000 
#    0.000    8.750    0.000   12.000    0.000    0.000 
#    0.000    0.000    0.000    0.000    0.000    0.000 
#
# Total GULP energy -178249.331046 kJ/mol
# GULP energy per Si atom -5570.291595 kJ/mol
# Density = 2.533649 g / cm^3
# Si number density = 25.394292 Si / 1000 Ang^3
#
#
#
# Elastic Constant Matrix: (Units=GPa)
#
#
# Indices 1 2 3 4 5 6 
#
# 1 257.6813 -2.1372 49.6291 0.0000 0.0000 0.0000
# 2 -2.1372 63.7512 15.2389 0.0000 0.0000 0.0000
# 3 49.6291 15.2389 102.0549 0.0000 0.0000 0.0000
# 4 0.0000 0.0000 0.0000 11.3510 0.0000 0.0000
# 5 0.0000 0.0000 0.0000 0.0000 17.7889 0.0000
# 6 0.0000 0.0000 0.0000 0.0000 0.0000 30.6296
#
#
#
# Elastic Compliance Matrix: (Units=1/GPa)
#
#
# Indices 1 2 3 4 5 6 
#
# 1 0.004309 0.000669 -0.002195 0.000000 0.000000 0.000000
# 2 0.000669 0.016371 -0.002770 0.000000 0.000000 0.000000
# 3 -0.002195 -0.002770 0.011280 0.000000 0.000000 0.000000
# 4 0.000000 0.000000 0.000000 0.088098 0.000000 0.000000
# 5 0.000000 0.000000 0.000000 0.000000 0.056215 0.000000
# 6 0.000000 0.000000 0.000000 0.000000 0.000000 0.032648
#
#
# Mechanical properties :
#
#
# Convention : Reuss Voigt Hill
#
# Bulk Modulus (GPa) = 42.79478 60.99433 51.89456
# Shear Modulus (GPa) = 22.19244 36.00434 29.09839
#
# Velocity S-wave (km/s) = 2.95941 3.76947 3.38873
# Velocity P-wave (km/s) = 5.34474 6.55868 5.98258
#
# Compressibility (1/GPa) = 0.02336734
#
# Stress axis : x y z
#
# Youngs Moduli (GPa) = 232.06386 61.08542 88.65319
#
# Poissons Ratio (x) = -0.04088 0.19464
# Poissons Ratio (y) = -0.15531 0.24556
# Poissons Ratio (z) = 0.50949 0.16920
#
# Static dielectric constant tensor:
#      x y z
#    x 2.106610 0.000000 0.000000 
#    y 0.000000 2.193410 0.000000 
#    z 0.000000 0.000000 2.032050 
# 
# From -- ./inp_files/37994.got.cif
#   From: 2010.05.17/outbox.cif.g08.bks.cpg/sg66_19_cif.got.tgz:37994.got - 2010.06.03 17:51:23.
