data_PCOD9497428
_publ_section_title
;
Structure prediction by ZEFSAII (Michael W. Deem and Ramdas Pophale) SiO2 
 PCOD9497428
Probable space group: C C C M
;
_chemical_formula_sum "Si O2"
_cell_formula_units_Z 88
_cell_length_a 21.634360
_cell_length_b 12.395405
_cell_length_c 14.697350
_cell_angle_alpha 90.000000
_cell_angle_beta 90.000000
_cell_angle_gamma 90.000000
_cell_volume 3941.339174
_symmetry_space_group_name_H-M "C C C M"
_symmetry_group_IT_number 66
_symmetry_cell_setting 'orthorhombic'
loop_
_space_group_symop_operation_xyz
x,y,z
-x,-y,z
x,-y,1/2-z
-x,y,1/2-z
-x,-y,-z
x,y,-z
-x,y,1/2+z
x,-y,1/2+z
1/2+x,1/2+y,z
1/2-x,1/2-y,z
1/2+x,1/2-y,1/2-z
1/2-x,1/2+y,1/2-z
1/2-x,1/2-y,-z
1/2+x,1/2+y,-z
1/2-x,1/2+y,1/2+z
1/2+x,1/2-y,1/2+z
loop_
_atom_site_type_symbol
_atom_site_label
_atom_site_fract_x
_atom_site_fract_y
_atom_site_fract_z
Si Si1 0.523620 0.385875 0.609529
Si Si2 0.228599 0.534174 0.105440
Si Si3 0.481325 0.165960 0.388959
Si Si4 0.099211 0.467695 0.889405
Si Si5 0.659093 0.596826 0.821263
Si Si6 0.750000 0.250000 0.779490
O O1 0.500000 0.500000 0.643567
O O2 0.519161 0.386416 0.500000
O O3 0.480263 0.288444 0.642486
O O4 0.595111 0.370371 0.633358
O O5 0.170089 0.463585 0.138992
O O6 0.289982 0.462804 0.115985
O O7 0.231846 0.646025 0.159920
O O8 0.218902 0.560622 0.000000
O O9 0.480608 0.164699 0.500000
O O10 0.427366 0.084960 0.361907
O O11 0.547121 0.116091 0.358871
O O12 0.098236 0.460241 0.000000
O O13 0.645397 0.500000 0.750000
O O14 0.693596 0.700181 0.778617
#
# Coordination Sequence:
#
# PCOD9497428 Si02
#       6
#    16  16  16  16  16   8
#     4  10  21  37  59  86 116 153 200 249 293 358
#     4  10  20  37  62  88 114 155 211 258 296 363
#     4   8  15  29  50  82 117 141 178 240 300 346
#     4   8  15  29  52  83 112 141 183 243 301 339
#     4  10  23  40  56  84 120 161 197 245 308 365
#     4  10  23  40  57  84 122 164 194 250 319 374
#
# _framework density 22.327435000000001
#
# number of rings (size 3 to 8) (size 9 to 14) (size 15 to 20)
#    0.000    2.727    0.000    1.909    2.545    3.273 
#    0.000    6.364    0.000    0.000    0.000    0.000 
#    0.000    0.000    0.000    0.000    0.000    0.000 
#
# Total GULP energy -245727.409274 kJ/mol
# GULP energy per Si atom -5584.713847 kJ/mol
# Density = 2.227662 g / cm^3
# Si number density = 22.327435 Si / 1000 Ang^3
#
#
#
# Elastic Constant Matrix: (Units=GPa)
#
#
# Indices 1 2 3 4 5 6 
#
# 1 60.2276 1.9198 -11.9360 0.0000 0.0000 0.0000
# 2 1.9198 101.3631 0.9710 0.0000 0.0000 0.0000
# 3 -11.9360 0.9710 50.0503 0.0000 0.0000 0.0000
# 4 0.0000 0.0000 0.0000 -0.4743 0.0000 0.0000
# 5 0.0000 0.0000 0.0000 0.0000 17.5076 0.0000
# 6 0.0000 0.0000 0.0000 0.0000 0.0000 23.8868
#
#
#
# Elastic Compliance Matrix: (Units=1/GPa)
#
#
# Indices 1 2 3 4 5 6 
#
# 1 0.017441 -0.000370 0.004167 0.000000 0.000000 0.000000
# 2 -0.000370 0.009875 -0.000280 0.000000 0.000000 0.000000
# 3 0.004167 -0.000280 0.020979 0.000000 0.000000 0.000000
# 4 0.000000 0.000000 0.000000 -2.108201 0.000000 0.000000
# 5 0.000000 0.000000 0.000000 0.000000 0.057118 0.000000
# 6 0.000000 0.000000 0.000000 0.000000 0.000000 0.041864
#
#
# Mechanical properties :
#
#
# Convention : Reuss Voigt Hill
#
# Bulk Modulus (GPa) = 18.07393 21.50562 19.78977
# Shear Modulus (GPa) = -2.56474 22.89644 10.16585
#
# Velocity S-wave (km/s) = -1.07293 3.20579 2.13611
# Velocity P-wave (km/s) = 2.56468 4.83277 3.86867
#
# Compressibility (1/GPa) = 0.05532831
#
# Stress axis : x y z
#
# Youngs Moduli (GPa) = 57.33542 101.26360 47.66673
#
# Poissons Ratio (x) = 0.03749 -0.19861
# Poissons Ratio (y) = 0.02123 0.01334
# Poissons Ratio (z) = -0.23889 0.02834
#
# Static dielectric constant tensor:
#      x y z
#    x 1.798170 0.000000 0.000000 
#    y 0.000000 1.803880 0.000000 
#    z 0.000000 0.000000 1.857310 
# 
# From -- ./inp_files/33184.got.cif
#   From: 2010.05.17/outbox.cif.g08.bks.cpg/sg66_17_cif.got.tgz:33184.got - 2010.06.03 17:51:23.
