data_PCOD9497474
_publ_section_title
;
Structure prediction by ZEFSAII (Michael W. Deem and Ramdas Pophale) SiO2 
 PCOD9497474
Probable space group: C C C M
;
_chemical_formula_sum "Si O2"
_cell_formula_units_Z 96
_cell_length_a 8.858157
_cell_length_b 30.076587
_cell_length_c 19.402132
_cell_angle_alpha 90.000000
_cell_angle_beta 90.000000
_cell_angle_gamma 90.000000
_cell_volume 5169.176730
_symmetry_space_group_name_H-M "C C C M"
_symmetry_group_IT_number 66
_symmetry_cell_setting 'orthorhombic'
loop_
_space_group_symop_operation_xyz
x,y,z
-x,-y,z
x,-y,1/2-z
-x,y,1/2-z
-x,-y,-z
x,y,-z
-x,y,1/2+z
x,-y,1/2+z
1/2+x,1/2+y,z
1/2-x,1/2-y,z
1/2+x,1/2-y,1/2-z
1/2-x,1/2+y,1/2-z
1/2-x,1/2-y,-z
1/2+x,1/2+y,-z
1/2-x,1/2+y,1/2+z
1/2+x,1/2-y,1/2+z
loop_
_atom_site_type_symbol
_atom_site_label
_atom_site_fract_x
_atom_site_fract_y
_atom_site_fract_z
Si Si1 0.714216 0.878459 0.677664
Si Si2 0.151296 0.115617 0.075506
Si Si3 0.433968 0.246298 0.177180
Si Si4 0.974492 0.050929 0.831315
Si Si5 0.387503 0.688310 0.920856
Si Si6 0.391099 0.855816 0.326557
O O1 0.818276 0.921101 0.659909
O O2 0.769643 0.837380 0.629385
O O3 0.536354 0.887402 0.668644
O O4 0.714113 0.864946 0.759294
O O5 0.296432 0.139593 0.104942
O O6 0.099794 0.078682 0.128741
O O7 0.020619 0.152161 0.073423
O O8 0.173798 0.096669 0.000000
O O9 0.500000 0.264374 0.250000
O O10 0.250000 0.250000 0.171817
O O11 0.532286 0.270222 0.117783
O O12 0.456818 0.193582 0.177788
O O13 0.000000 0.052079 0.750000
O O14 0.000000 0.000000 0.853541
O O15 0.335588 0.697683 0.000000
#
# Coordination Sequence:
#
# PCOD9497474 Si02
#       6
#    16  16  16  16  16  16
#     4  10  21  39  61  83 121 153 200 246 289 360
#     4  10  21  38  60  87 120 157 192 235 303 356
#     4  12  23  35  58  83 117 157 208 253 286 346
#     4  10  20  37  66  92 113 147 196 244 290 353
#     4  10  23  38  57  85 118 163 206 249 296 342
#     4  11  21  37  58  87 117 160 200 240 302 342
#
# _framework density 18.571622000000001
#
# number of rings (size 3 to 8) (size 9 to 14) (size 15 to 20)
#    0.000    1.500    5.000    1.000    0.000    2.000 
#    0.000    1.667    0.000    1.000    0.000    0.000 
#    0.000    0.000    0.000    0.000    0.000    0.000 
#
# Total GULP energy -267301.182637 kJ/mol
# GULP energy per Si atom -5568.774638 kJ/mol
# Density = 1.852935 g / cm^3
# Si number density = 18.571622 Si / 1000 Ang^3
#
#
#
# Elastic Constant Matrix: (Units=GPa)
#
#
# Indices 1 2 3 4 5 6 
#
# 1 78.3184 17.4518 34.0470 0.0000 0.0000 0.0000
# 2 17.4518 93.9696 35.4399 0.0000 0.0000 0.0000
# 3 34.0470 35.4399 101.2426 0.0000 0.0000 0.0000
# 4 0.0000 0.0000 0.0000 -5.3235 0.0000 0.0000
# 5 0.0000 0.0000 0.0000 0.0000 11.9250 0.0000
# 6 0.0000 0.0000 0.0000 0.0000 0.0000 17.1194
#
#
#
# Elastic Compliance Matrix: (Units=1/GPa)
#
#
# Indices 1 2 3 4 5 6 
#
# 1 0.015039 -0.001020 -0.004700 0.000000 0.000000 0.000000
# 2 -0.001020 0.012330 -0.003973 0.000000 0.000000 0.000000
# 3 -0.004700 -0.003973 0.012849 0.000000 0.000000 0.000000
# 4 0.000000 0.000000 0.000000 -0.187845 0.000000 0.000000
# 5 0.000000 0.000000 0.000000 0.000000 0.083857 0.000000
# 6 0.000000 0.000000 0.000000 0.000000 0.000000 0.058413
#
#
# Mechanical properties :
#
#
# Convention : Reuss Voigt Hill
#
# Bulk Modulus (GPa) = 48.00700 49.71200 48.85950
# Shear Modulus (GPa) = 238.40123 17.18363 127.79243
#
# Velocity S-wave (km/s) = 11.34228 3.04511 8.30421
# Velocity P-wave (km/s) = 14.05117 6.26015 10.87715
#
# Compressibility (1/GPa) = 0.02083030
#
# Stress axis : x y z
#
# Youngs Moduli (GPa) = 66.49323 81.10590 77.82922
#
# Poissons Ratio (x) = 0.08275 0.36583
# Poissons Ratio (y) = 0.06784 0.30920
# Poissons Ratio (z) = 0.31254 0.32222
#
# Static dielectric constant tensor:
#      x y z
#    x 1.661300 0.000000 0.000000 
#    y 0.000000 1.647660 0.000000 
#    z 0.000000 0.000000 1.684120 
# 
# From -- ./inp_files/47338.got.cif
#   From: 2010.05.17/outbox.cif.g08.bks.cpg/sg66_24_cif.got.tgz:47338.got - 2010.06.03 17:51:23.
