data_PCOD9497650
_publ_section_title
;
Structure prediction by ZEFSAII (Michael W. Deem and Ramdas Pophale) SiO2 
 PCOD9497650
Probable space group: C C C M
;
_chemical_formula_sum "Si O2"
_cell_formula_units_Z 100
_cell_length_a 21.220298
_cell_length_b 14.084171
_cell_length_c 17.060548
_cell_angle_alpha 90.000000
_cell_angle_beta 90.000000
_cell_angle_gamma 90.000000
_cell_volume 5098.891196
_symmetry_space_group_name_H-M "C C C M"
_symmetry_group_IT_number 66
_symmetry_cell_setting 'orthorhombic'
loop_
_space_group_symop_operation_xyz
x,y,z
-x,-y,z
x,-y,1/2-z
-x,y,1/2-z
-x,-y,-z
x,y,-z
-x,y,1/2+z
x,-y,1/2+z
1/2+x,1/2+y,z
1/2-x,1/2-y,z
1/2+x,1/2-y,1/2-z
1/2-x,1/2+y,1/2-z
1/2-x,1/2-y,-z
1/2+x,1/2+y,-z
1/2-x,1/2+y,1/2+z
1/2+x,1/2-y,1/2+z
loop_
_atom_site_type_symbol
_atom_site_label
_atom_site_fract_x
_atom_site_fract_y
_atom_site_fract_z
Si Si1 0.293794 0.870794 0.141743
Si Si2 0.928100 0.896763 0.721837
Si Si3 0.702686 0.360817 0.584244
Si Si4 0.854055 0.277064 0.707431
Si Si5 0.250000 0.750000 0.000000
Si Si6 0.341443 0.430955 0.409517
Si Si7 0.153186 0.567118 0.410277
O O1 0.184825 0.675198 0.222510
O O2 0.294291 0.798595 0.069537
O O3 0.220025 0.903109 0.141525
O O4 0.337959 0.960898 0.122474
O O5 0.902258 0.799059 0.757310
O O6 0.905078 0.895698 0.631128
O O7 0.000000 0.900223 0.750000
O O8 0.900639 0.000000 0.750000
O O9 0.690769 0.313530 0.500000
O O10 0.687433 0.290725 0.652851
O O11 0.660024 0.455090 0.587367
O O12 0.774002 0.397211 0.586615
O O13 0.879387 0.360796 0.650492
O O14 0.328732 0.396406 0.500000
O O15 0.129392 0.567850 0.500000
#
# Coordination Sequence:
#
# PCOD9497650 Si02
#       7
#    16  16  16  16   4  16  16
#     4  11  23  36  59  95 132 160 205 250 315 390
#     4  11  25  44  61  89 124 161 213 274 311 368
#     4   9  19  34  54  87 125 162 199 238 304 378
#     4  12  23  35  62  90 121 167 208 254 322 383
#     4  12  20  36  52  84 124 172 188 246 300 370
#     4  10  20  40  62  87 126 170 202 255 315 376
#     4  10  21  39  54  86 132 164 195 250 308 384
#
# _framework density 19.612106000000001
#
# number of rings (size 3 to 8) (size 9 to 14) (size 15 to 20)
#    0.000    1.440    3.200    3.360    6.720    1.280 
#    0.000    3.200    0.000    1.920    0.000    1.120 
#    0.000    0.000    0.000    0.000    0.000    0.000 
#
# Total GULP energy -278428.132472 kJ/mol
# GULP energy per Si atom -5568.562649 kJ/mol
# Density = 1.956747 g / cm^3
# Si number density = 19.612106 Si / 1000 Ang^3
#
#
#
# Elastic Constant Matrix: (Units=GPa)
#
#
# Indices 1 2 3 4 5 6 
#
# 1 46.7484 22.7456 35.2421 0.0000 0.0000 0.0000
# 2 22.7456 139.9678 72.0874 0.0000 0.0000 0.0000
# 3 35.2421 72.0874 158.5446 0.0000 0.0000 0.0000
# 4 0.0000 0.0000 0.0000 44.9321 0.0000 0.0000
# 5 0.0000 0.0000 0.0000 0.0000 14.2203 0.0000
# 6 0.0000 0.0000 0.0000 0.0000 0.0000 20.3818
#
#
#
# Elastic Compliance Matrix: (Units=1/GPa)
#
#
# Indices 1 2 3 4 5 6 
#
# 1 0.025979 -0.001629 -0.005034 0.000000 0.000000 0.000000
# 2 -0.001629 0.009431 -0.003926 0.000000 0.000000 0.000000
# 3 -0.005034 -0.003926 0.009211 0.000000 0.000000 0.000000
# 4 0.000000 0.000000 0.000000 0.022256 0.000000 0.000000
# 5 0.000000 0.000000 0.000000 0.000000 0.070322 0.000000
# 6 0.000000 0.000000 0.000000 0.000000 0.000000 0.049063
#
#
# Mechanical properties :
#
#
# Convention : Reuss Voigt Hill
#
# Bulk Modulus (GPa) = 42.65636 67.26789 54.96213
# Shear Modulus (GPa) = 23.22820 30.25255 26.74037
#
# Velocity S-wave (km/s) = 3.44522 3.93178 3.69652
# Velocity P-wave (km/s) = 6.13378 7.41522 6.80473
#
# Compressibility (1/GPa) = 0.02344316
#
# Stress axis : x y z
#
# Youngs Moduli (GPa) = 38.49310 106.02985 108.56007
#
# Poissons Ratio (x) = 0.17273 0.54649
# Poissons Ratio (y) = 0.06271 0.42622
# Poissons Ratio (z) = 0.19377 0.41629
#
# Static dielectric constant tensor:
#      x y z
#    x 1.636340 0.000000 0.000000 
#    y 0.000000 1.374220 0.000000 
#    z 0.000000 0.000000 1.695350 
# 
# From -- ./inp_files/33287.got.cif
#   From: 2010.05.17/outbox.cif.g08.bks.cpg/sg66_17_cif.got.tgz:33287.got - 2010.06.03 17:51:23.
