data_PCOD9497577
_publ_section_title
;
Structure prediction by ZEFSAII (Michael W. Deem and Ramdas Pophale) SiO2 
 PCOD9497577
Probable space group: C C C M
;
_chemical_formula_sum "Si O2"
_cell_formula_units_Z 64
_cell_length_a 13.598439
_cell_length_b 10.897354
_cell_length_c 18.875144
_cell_angle_alpha 90.000000
_cell_angle_beta 90.000000
_cell_angle_gamma 90.000000
_cell_volume 2797.051032
_symmetry_space_group_name_H-M "C C C M"
_symmetry_group_IT_number 66
_symmetry_cell_setting 'orthorhombic'
loop_
_space_group_symop_operation_xyz
x,y,z
-x,-y,z
x,-y,1/2-z
-x,y,1/2-z
-x,-y,-z
x,y,-z
-x,y,1/2+z
x,-y,1/2+z
1/2+x,1/2+y,z
1/2-x,1/2-y,z
1/2+x,1/2-y,1/2-z
1/2-x,1/2+y,1/2-z
1/2-x,1/2-y,-z
1/2+x,1/2+y,-z
1/2-x,1/2+y,1/2+z
1/2+x,1/2-y,1/2+z
loop_
_atom_site_type_symbol
_atom_site_label
_atom_site_fract_x
_atom_site_fract_y
_atom_site_fract_z
Si Si1 0.770166 0.894767 0.000000
Si Si2 0.579299 0.774449 0.352834
Si Si3 0.388760 0.495876 0.867580
Si Si4 0.336995 0.856629 0.000000
Si Si5 0.635914 0.741896 0.200884
O O1 0.750000 0.750000 0.000000
O O2 0.828440 0.931781 0.070663
O O3 0.687125 0.998831 0.000000
O O4 0.630053 0.638799 0.357011
O O5 0.607790 0.835790 0.425962
O O6 0.620844 0.812115 0.275562
O O7 0.459995 0.779729 0.345474
O O8 0.500000 0.500000 0.893499
O O9 0.382786 0.405021 0.800757
O O10 0.250000 0.750000 0.000000
O O11 0.750000 0.750000 0.179065
#
# Coordination Sequence:
#
# PCOD9497577 Si02
#       5
#     8  16  16   8  16
#     4  12  25  40  68 108 145 188 247 302 380 439
#     4  10  21  40  67 108 140 190 252 299 364 443
#     4  10  20  38  66  99 138 186 244 299 352 430
#     4  12  22  42  74 105 148 194 242 309 374 444
#     4  10  21  37  66 105 150 188 240 307 366 435
#
# _framework density 22.881242
#
# number of rings (size 3 to 8) (size 9 to 14) (size 15 to 20)
#    0.000    1.500    2.500    2.625    0.000    6.000 
#    0.000    1.875    0.000   33.000    0.000   14.000 
#    0.000    0.000    0.000    0.000    0.000    0.000 
#
# Total GULP energy -178142.951104 kJ/mol
# GULP energy per Si atom -5566.967222 kJ/mol
# Density = 2.282916 g / cm^3
# Si number density = 22.881242 Si / 1000 Ang^3
#
#
#
# Elastic Constant Matrix: (Units=GPa)
#
#
# Indices 1 2 3 4 5 6 
#
# 1 152.9192 51.5282 73.0533 0.0000 0.0000 0.0000
# 2 51.5282 92.8058 56.0745 0.0000 0.0000 0.0000
# 3 73.0533 56.0745 162.0987 0.0000 0.0000 0.0000
# 4 0.0000 0.0000 0.0000 2.0125 0.0000 0.0000
# 5 0.0000 0.0000 0.0000 0.0000 78.2555 0.0000
# 6 0.0000 0.0000 0.0000 0.0000 0.0000 -1.7680
#
#
#
# Elastic Compliance Matrix: (Units=1/GPa)
#
#
# Indices 1 2 3 4 5 6 
#
# 1 0.009041 -0.003234 -0.002956 0.000000 0.000000 0.000000
# 2 -0.003234 0.014779 -0.003655 0.000000 0.000000 0.000000
# 3 -0.002956 -0.003655 0.008766 0.000000 0.000000 0.000000
# 4 0.000000 0.000000 0.000000 0.496888 0.000000 0.000000
# 5 0.000000 0.000000 0.000000 0.000000 0.012779 0.000000
# 6 0.000000 0.000000 0.000000 0.000000 0.000000 -0.565608
#
#
# Mechanical properties :
#
#
# Convention : Reuss Voigt Hill
#
# Bulk Modulus (GPa) = 77.54238 85.45953 81.50096
# Shear Modulus (GPa) = 7898.70689 30.84452 3964.77570
#
# Velocity S-wave (km/s) = 58.81784 3.67553 41.67162
# Velocity P-wave (km/s) = 68.16657 7.44600 48.48775
#
# Compressibility (1/GPa) = 0.01289617
#
# Stress axis : x y z
#
# Youngs Moduli (GPa) = 110.60439 67.66261 114.08182
#
# Poissons Ratio (x) = 0.21882 0.33722
# Poissons Ratio (y) = 0.35769 0.41698
# Poissons Ratio (z) = 0.32694 0.24731
#
# Static dielectric constant tensor:
#      x y z
#    x 2.134800 0.000000 0.000000 
#    y 0.000000 2.005950 0.000000 
#    z 0.000000 0.000000 2.014060 
# 
# From -- ./inp_files/39818.got.cif
#   From: 2010.05.17/outbox.cif.g08.bks.cpg/sg66_20_cif.got.tgz:39818.got - 2010.06.03 17:51:23.
