data_PCOD9497427
_publ_section_title
;
Structure prediction by ZEFSAII (Michael W. Deem and Ramdas Pophale) SiO2 
 PCOD9497427
Probable space group: C C C M
;
_chemical_formula_sum "Si O2"
_cell_formula_units_Z 120
_cell_length_a 14.936125
_cell_length_b 29.317955
_cell_length_c 14.595284
_cell_angle_alpha 90.000000
_cell_angle_beta 90.000000
_cell_angle_gamma 90.000000
_cell_volume 6391.225833
_symmetry_space_group_name_H-M "C C C M"
_symmetry_group_IT_number 66
_symmetry_cell_setting 'orthorhombic'
loop_
_space_group_symop_operation_xyz
x,y,z
-x,-y,z
x,-y,1/2-z
-x,y,1/2-z
-x,-y,-z
x,y,-z
-x,y,1/2+z
x,-y,1/2+z
1/2+x,1/2+y,z
1/2-x,1/2-y,z
1/2+x,1/2-y,1/2-z
1/2-x,1/2+y,1/2-z
1/2-x,1/2-y,-z
1/2+x,1/2+y,-z
1/2-x,1/2+y,1/2+z
1/2+x,1/2-y,1/2+z
loop_
_atom_site_type_symbol
_atom_site_label
_atom_site_fract_x
_atom_site_fract_y
_atom_site_fract_z
Si Si1 0.988157 0.602845 0.110484
Si Si2 0.802490 0.103163 0.736737
Si Si3 0.438260 0.803828 0.110408
Si Si4 0.683309 0.046173 0.609776
Si Si5 0.437201 0.298560 0.392126
Si Si6 0.000000 0.869989 0.250000
Si Si7 0.750486 0.198889 0.212937
Si Si8 0.818462 0.438760 0.890681
O O1 0.905516 0.572786 0.144004
O O2 0.994378 0.655812 0.138111
O O3 0.083893 0.581034 0.132788
O O4 0.981531 0.601948 0.000000
O O5 0.765398 0.070870 0.657977
O O6 0.908911 0.102116 0.744095
O O7 0.771624 0.155793 0.722983
O O8 0.755729 0.086540 0.830671
O O9 0.471160 0.752630 0.129049
O O10 0.343136 0.809170 0.160934
O O11 0.423332 0.807349 0.000000
O O12 0.687857 0.050324 0.500000
O O13 0.680751 0.992570 0.630364
O O14 0.441290 0.305878 0.500000
O O15 0.490757 0.336344 0.336677
O O16 0.333861 0.300506 0.358411
O O17 0.750000 0.250000 0.254504
O O18 0.804467 0.432525 0.000000
#
# Coordination Sequence:
#
# PCOD9497427 Si02
#       8
#    16  16  16  16  16   8  16  16
#     4   9  17  32  55  85 119 149 179 218 270 336
#     4  11  22  39  59  81 110 149 192 238 289 337
#     4   9  15  28  52  84 115 145 181 226 277 329
#     4  10  22  39  57  82 118 155 187 222 274 345
#     4   9  18  33  54  78 111 151 188 236 289 332
#     4  10  24  40  55  80 108 146 195 244 286 340
#     4   9  17  31  52  84 113 143 186 239 285 328
#     4  10  20  37  62  88 114 143 182 236 291 344
#
# _framework density 18.775741
#
# number of rings (size 3 to 8) (size 9 to 14) (size 15 to 20)
#    0.000    2.400    1.333    1.200    0.000    6.400 
#    7.200    2.667    0.000    2.000    0.000    0.000 
#    0.000    0.000    0.000    0.000    0.000    0.000 
#
# Total GULP energy -334913.339704 kJ/mol
# GULP energy per Si atom -5581.888995 kJ/mol
# Density = 1.873301 g / cm^3
# Si number density = 18.775741 Si / 1000 Ang^3
#
#
#
# Elastic Constant Matrix: (Units=GPa)
#
#
# Indices 1 2 3 4 5 6 
#
# 1 100.5033 47.1576 5.5644 0.0000 0.0000 0.0000
# 2 47.1576 102.5101 17.2524 0.0000 0.0000 0.0000
# 3 5.5644 17.2524 38.2218 0.0000 0.0000 0.0000
# 4 0.0000 0.0000 0.0000 17.9059 0.0000 0.0000
# 5 0.0000 0.0000 0.0000 0.0000 14.2090 0.0000
# 6 0.0000 0.0000 0.0000 0.0000 0.0000 23.4806
#
#
#
# Elastic Compliance Matrix: (Units=1/GPa)
#
#
# Indices 1 2 3 4 5 6 
#
# 1 0.012715 -0.005993 0.000854 0.000000 0.000000 0.000000
# 2 -0.005993 0.013382 -0.005168 0.000000 0.000000 0.000000
# 3 0.000854 -0.005168 0.028371 0.000000 0.000000 0.000000
# 4 0.000000 0.000000 0.000000 0.055847 0.000000 0.000000
# 5 0.000000 0.000000 0.000000 0.000000 0.070378 0.000000
# 6 0.000000 0.000000 0.000000 0.000000 0.000000 0.042588
#
#
# Mechanical properties :
#
#
# Convention : Reuss Voigt Hill
#
# Bulk Modulus (GPa) = 29.53813 42.35377 35.94595
# Shear Modulus (GPa) = 19.59408 22.53649 21.06528
#
# Velocity S-wave (km/s) = 3.23396 3.46829 3.35317
# Velocity P-wave (km/s) = 5.45077 6.21654 5.84621
#
# Compressibility (1/GPa) = 0.03385455
#
# Stress axis : x y z
#
# Youngs Moduli (GPa) = 78.65005 74.72877 35.24681
#
# Poissons Ratio (x) = 0.44783 -0.03010
# Poissons Ratio (y) = 0.47133 0.18215
# Poissons Ratio (z) = -0.06717 0.38618
#
# Static dielectric constant tensor:
#      x y z
#    x 1.623630 0.000000 0.000000 
#    y 0.000000 1.674330 0.000000 
#    z 0.000000 0.000000 1.659980 
# 
# From -- ./inp_files/29056.got.cif
#   From: 2010.05.17/outbox.cif.g08.bks.cpg/sg66_15_cif.got.tgz:29056.got - 2010.06.03 17:51:23.
