data_PCOD9497980
_publ_section_title
;
Structure prediction by ZEFSAII (Michael W. Deem and Ramdas Pophale) SiO2 
 PCOD9497980
Probable space group: C C C M
;
_chemical_formula_sum "Si O2"
_cell_formula_units_Z 72
_cell_length_a 20.555065
_cell_length_b 8.867020
_cell_length_c 19.673173
_cell_angle_alpha 90.000000
_cell_angle_beta 90.000000
_cell_angle_gamma 90.000000
_cell_volume 3585.675250
_symmetry_space_group_name_H-M "C C C M"
_symmetry_group_IT_number 66
_symmetry_cell_setting 'orthorhombic'
loop_
_space_group_symop_operation_xyz
x,y,z
-x,-y,z
x,-y,1/2-z
-x,y,1/2-z
-x,-y,-z
x,y,-z
-x,y,1/2+z
x,-y,1/2+z
1/2+x,1/2+y,z
1/2-x,1/2-y,z
1/2+x,1/2-y,1/2-z
1/2-x,1/2+y,1/2-z
1/2-x,1/2-y,-z
1/2+x,1/2+y,-z
1/2-x,1/2+y,1/2+z
1/2+x,1/2-y,1/2+z
loop_
_atom_site_type_symbol
_atom_site_label
_atom_site_fract_x
_atom_site_fract_y
_atom_site_fract_z
Si Si1 0.563253 0.223762 0.792248
Si Si2 0.077325 0.526401 0.924495
Si Si3 0.500000 0.500000 0.868980
Si Si4 0.120228 0.817866 0.424321
Si Si5 0.815527 0.158042 0.712105
O O1 0.500000 0.166919 0.750000
O O2 0.586362 0.125606 0.856889
O O3 0.540241 0.383875 0.822908
O O4 0.622550 0.250888 0.741385
O O5 0.109470 0.362005 0.918093
O O6 0.000000 0.500000 0.926507
O O7 0.095426 0.590092 0.000000
O O8 0.448796 0.400655 0.911197
O O9 0.142591 0.852589 0.500000
O O10 0.169770 0.868774 0.366897
O O11 0.750000 0.250000 0.721905
O O12 0.811795 0.000000 0.750000
#
# Coordination Sequence:
#
# PCOD9497980 Si02
#       5
#    16  16   8  16  16
#     4  12  22  41  68  96 130 168 219 275 326 382
#     4  10  21  37  59  97 136 166 206 262 328 391
#     4  12  20  40  66  98 132 164 218 276 322 384
#     4  11  24  42  67  96 131 175 217 268 333 390
#     4  12  27  46  67  95 133 172 221 269 326 394
#
# _framework density 20.079899000000001
#
# number of rings (size 3 to 8) (size 9 to 14) (size 15 to 20)
#    0.000    0.667    6.667    0.667    3.111    3.556 
#    0.000    0.000    0.000    1.333    0.000    0.000 
#    0.000    0.000    0.000    0.000    0.000    0.000 
#
# Total GULP energy -201287.453425 kJ/mol
# GULP energy per Si atom -5591.318151 kJ/mol
# Density = 2.003420 g / cm^3
# Si number density = 20.079899 Si / 1000 Ang^3
#
#
#
# Elastic Constant Matrix: (Units=GPa)
#
#
# Indices 1 2 3 4 5 6 
#
# 1 97.5653 30.8540 48.2793 0.0000 0.0000 0.0000
# 2 30.8540 77.5250 64.1024 0.0000 0.0000 0.0000
# 3 48.2793 64.1024 190.0392 0.0000 0.0000 0.0000
# 4 0.0000 0.0000 0.0000 21.3156 0.0000 0.0000
# 5 0.0000 0.0000 0.0000 0.0000 -2.2727 0.0000
# 6 0.0000 0.0000 0.0000 0.0000 0.0000 7.3682
#
#
#
# Elastic Compliance Matrix: (Units=1/GPa)
#
#
# Indices 1 2 3 4 5 6 
#
# 1 0.012269 -0.003198 -0.002038 0.000000 0.000000 0.000000
# 2 -0.003198 0.018722 -0.005503 0.000000 0.000000 0.000000
# 3 -0.002038 -0.005503 0.007636 0.000000 0.000000 0.000000
# 4 0.000000 0.000000 0.000000 0.046914 0.000000 0.000000
# 5 0.000000 0.000000 0.000000 0.000000 -0.440002 0.000000
# 6 0.000000 0.000000 0.000000 0.000000 0.000000 0.135719
#
#
# Mechanical properties :
#
#
# Convention : Reuss Voigt Hill
#
# Bulk Modulus (GPa) = 58.31002 72.40011 65.35506
# Shear Modulus (GPa) = -26.10318 20.07513 -3.01402
#
# Velocity S-wave (km/s) = -3.60942 3.16533 -1.22649
# Velocity P-wave (km/s) = 3.42513 7.03515 5.53285
#
# Compressibility (1/GPa) = 0.01714971
#
# Stress axis : x y z
#
# Youngs Moduli (GPa) = 81.50318 53.41416 130.95755
#
# Poissons Ratio (x) = 0.17080 0.26695
# Poissons Ratio (y) = 0.26061 0.72062
# Poissons Ratio (z) = 0.16614 0.29392
#
# Static dielectric constant tensor:
#      x y z
#    x 1.677280 0.000000 0.000000 
#    y 0.000000 1.739540 0.000000 
#    z 0.000000 0.000000 1.751450 
# 
# From -- ./inp_files/36729.got.cif
#   From: 2010.05.17/outbox.cif.g08.bks.cpg/sg66_19_cif.got.tgz:36729.got - 2010.06.03 17:51:23.
