data_PCOD9497829
_publ_section_title
;
Structure prediction by ZEFSAII (Michael W. Deem and Ramdas Pophale) SiO2 
 PCOD9497829
Probable space group: C C C M
;
_chemical_formula_sum "Si O2"
_cell_formula_units_Z 64
_cell_length_a 15.070386
_cell_length_b 27.914941
_cell_length_c 8.650654
_cell_angle_alpha 90.000000
_cell_angle_beta 90.000000
_cell_angle_gamma 90.000000
_cell_volume 3639.234427
_symmetry_space_group_name_H-M "C C C M"
_symmetry_group_IT_number 66
_symmetry_cell_setting 'orthorhombic'
loop_
_space_group_symop_operation_xyz
x,y,z
-x,-y,z
x,-y,1/2-z
-x,y,1/2-z
-x,-y,-z
x,y,-z
-x,y,1/2+z
x,-y,1/2+z
1/2+x,1/2+y,z
1/2-x,1/2-y,z
1/2+x,1/2-y,1/2-z
1/2-x,1/2+y,1/2-z
1/2-x,1/2-y,-z
1/2+x,1/2+y,-z
1/2-x,1/2+y,1/2+z
1/2+x,1/2-y,1/2+z
loop_
_atom_site_type_symbol
_atom_site_label
_atom_site_fract_x
_atom_site_fract_y
_atom_site_fract_z
Si Si1 0.404317 0.053263 0.815606
Si Si2 0.905200 0.824776 0.314889
Si Si3 0.097082 0.281668 0.814893
Si Si4 0.781458 0.365085 0.184839
O O1 0.500000 0.069596 0.750000
O O2 0.328884 0.089610 0.761120
O O3 0.389012 0.000000 0.750000
O O4 0.409307 0.051562 0.000000
O O5 0.911302 0.818793 0.500000
O O6 0.886858 0.772625 0.241029
O O7 0.822622 0.859055 0.279460
O O8 0.000000 0.841256 0.250000
O O9 0.168739 0.317863 0.746479
O O10 0.000000 0.295278 0.750000
O O11 0.096878 0.283773 0.000000
O O12 0.791774 0.367670 0.000000
#
# Coordination Sequence:
#
# PCOD9497829 Si02
#       4
#    16  16  16  16
#     4  11  22  38  59  83 111 140 171 211 260 314
#     4  10  21  36  54  75 105 142 179 221 264 309
#     4  11  21  33  51  76 108 143 179 219 262 312
#     4  11  22  36  54  78 107 140 178 218 263 313
#
# _framework density 17.586116000000001
#
# number of rings (size 3 to 8) (size 9 to 14) (size 15 to 20)
#    0.000    1.250    0.000    9.750    0.000    7.000 
#    0.000    0.000    0.000    0.750    0.000    5.250 
#    0.000    0.000    0.000    0.000    0.000    0.000 
#
# Total GULP energy -178928.324557 kJ/mol
# GULP energy per Si atom -5591.510142 kJ/mol
# Density = 1.754609 g / cm^3
# Si number density = 17.586116 Si / 1000 Ang^3
#
#
#
# Elastic Constant Matrix: (Units=GPa)
#
#
# Indices 1 2 3 4 5 6 
#
# 1 142.9310 78.9336 73.9328 0.0000 0.0000 0.0000
# 2 78.9336 68.2464 49.0596 0.0000 0.0000 0.0000
# 3 73.9328 49.0596 141.0237 0.0000 0.0000 0.0000
# 4 0.0000 0.0000 0.0000 40.0403 0.0000 0.0000
# 5 0.0000 0.0000 0.0000 0.0000 37.3890 0.0000
# 6 0.0000 0.0000 0.0000 0.0000 0.0000 27.0436
#
#
#
# Elastic Compliance Matrix: (Units=1/GPa)
#
#
# Indices 1 2 3 4 5 6 
#
# 1 0.020474 -0.021288 -0.003328 0.000000 0.000000 0.000000
# 2 -0.021288 0.041673 -0.003337 0.000000 0.000000 0.000000
# 3 -0.003328 -0.003337 0.009997 0.000000 0.000000 0.000000
# 4 0.000000 0.000000 0.000000 0.024975 0.000000 0.000000
# 5 0.000000 0.000000 0.000000 0.000000 0.026746 0.000000
# 6 0.000000 0.000000 0.000000 0.000000 0.000000 0.036977
#
#
# Mechanical properties :
#
#
# Convention : Reuss Voigt Hill
#
# Bulk Modulus (GPa) = 61.58385 84.00590 72.79487
# Shear Modulus (GPa) = 22.50631 30.91294 26.70962
#
# Velocity S-wave (km/s) = 3.58128 4.19717 3.90139
# Velocity P-wave (km/s) = 7.22463 8.44750 7.85988
#
# Compressibility (1/GPa) = 0.01623802
#
# Stress axis : x y z
#
# Youngs Moduli (GPa) = 48.84241 23.99633 100.03366
#
# Poissons Ratio (x) = 0.51083 0.33291
# Poissons Ratio (y) = 1.03975 0.33381
# Poissons Ratio (z) = 0.16255 0.08008
#
# Static dielectric constant tensor:
#      x y z
#    x 1.609400 0.000000 0.000000 
#    y 0.000000 1.572610 0.000000 
#    z 0.000000 0.000000 1.585980 
# 
# From -- ./inp_files/5067.got.cif
#   From: 2010.05.17/outbox.cif.g08.bks.cpg/sg66_3_cif.got.tgz:5067.got - 2010.06.03 17:51:23.
