data_PCOD9497500
_publ_section_title
;
Structure prediction by ZEFSAII (Michael W. Deem and Ramdas Pophale) SiO2 
 PCOD9497500
Probable space group: C C C M
;
_chemical_formula_sum "Si O2"
_cell_formula_units_Z 112
_cell_length_a 29.488257
_cell_length_b 12.053227
_cell_length_c 16.283320
_cell_angle_alpha 90.000000
_cell_angle_beta 90.000000
_cell_angle_gamma 90.000000
_cell_volume 5787.558534
_symmetry_space_group_name_H-M "C C C M"
_symmetry_group_IT_number 66
_symmetry_cell_setting 'orthorhombic'
loop_
_space_group_symop_operation_xyz
x,y,z
-x,-y,z
x,-y,1/2-z
-x,y,1/2-z
-x,-y,-z
x,y,-z
-x,y,1/2+z
x,-y,1/2+z
1/2+x,1/2+y,z
1/2-x,1/2-y,z
1/2+x,1/2-y,1/2-z
1/2-x,1/2+y,1/2-z
1/2-x,1/2-y,-z
1/2+x,1/2+y,-z
1/2-x,1/2+y,1/2+z
1/2+x,1/2-y,1/2+z
loop_
_atom_site_type_symbol
_atom_site_label
_atom_site_fract_x
_atom_site_fract_y
_atom_site_fract_z
Si Si1 0.042854 0.325998 0.401413
Si Si2 0.308428 0.352169 0.900714
Si Si3 0.441089 0.202426 0.097673
Si Si4 0.962131 0.079719 0.093638
Si Si5 0.382098 0.999535 0.846744
Si Si6 0.098366 0.074830 0.168389
Si Si7 0.291483 0.908572 0.597787
O O1 0.045251 0.328792 0.500000
O O2 0.046502 0.199742 0.369620
O O3 0.084787 0.400190 0.373856
O O4 0.990096 0.352069 0.381256
O O5 0.349808 0.395331 0.847148
O O6 0.303846 0.220193 0.884306
O O7 0.261532 0.414654 0.879241
O O8 0.315984 0.362932 0.000000
O O9 0.429850 0.311176 0.152018
O O10 0.403411 0.110013 0.113207
O O11 0.441075 0.231647 0.000000
O O12 0.917342 0.007837 0.096609
O O13 0.977342 0.100162 0.000000
O O14 0.000000 0.000000 0.133426
O O15 0.386363 0.000000 0.750000
O O16 0.328634 0.006618 0.867181
O O17 0.090690 0.000000 0.250000
O O18 0.293529 0.920474 0.500000
#
# Coordination Sequence:
#
# PCOD9497500 Si02
#       7
#    16  16  16  16  16  16  16
#     4  10  22  39  61  85 116 162 216 254 298 370
#     4   9  18  36  64  93 117 154 211 263 306 374
#     4  11  22  42  65  85 118 168 216 257 306 374
#     4  10  20  38  59  82 113 158 208 252 298 364
#     4  12  25  37  58  91 131 162 201 257 328 376
#     4  12  24  35  59  92 126 156 200 258 323 371
#     4   9  18  36  65  92 116 157 212 259 307 375
#
# _framework density 19.351856000000002
#
# number of rings (size 3 to 8) (size 9 to 14) (size 15 to 20)
#    0.000    1.571    2.857    3.857    2.000    3.143 
#    0.000    0.000    0.000    0.857    0.000    4.000 
#    0.000    0.000    0.000    0.000    0.000    0.000 
#
# Total GULP energy -312064.328109 kJ/mol
# GULP energy per Si atom -5572.577288 kJ/mol
# Density = 1.930781 g / cm^3
# Si number density = 19.351856 Si / 1000 Ang^3
#
#
#
# Elastic Constant Matrix: (Units=GPa)
#
#
# Indices 1 2 3 4 5 6 
#
# 1 128.2516 47.6700 34.2864 0.0000 0.0000 0.0000
# 2 47.6700 74.6326 24.0633 0.0000 0.0000 0.0000
# 3 34.2864 24.0633 61.8202 0.0000 0.0000 0.0000
# 4 0.0000 0.0000 0.0000 17.9005 0.0000 0.0000
# 5 0.0000 0.0000 0.0000 0.0000 -0.3320 0.0000
# 6 0.0000 0.0000 0.0000 0.0000 0.0000 38.2814
#
#
#
# Elastic Compliance Matrix: (Units=1/GPa)
#
#
# Indices 1 2 3 4 5 6 
#
# 1 0.010967 -0.005768 -0.003837 0.000000 0.000000 0.000000
# 2 -0.005768 0.018355 -0.003946 0.000000 0.000000 0.000000
# 3 -0.003837 -0.003946 0.019840 0.000000 0.000000 0.000000
# 4 0.000000 0.000000 0.000000 0.055864 0.000000 0.000000
# 5 0.000000 0.000000 0.000000 0.000000 -3.012319 0.000000
# 6 0.000000 0.000000 0.000000 0.000000 0.000000 0.026122
#
#
# Mechanical properties :
#
#
# Convention : Reuss Voigt Hill
#
# Bulk Modulus (GPa) = 45.33001 52.97153 49.15077
# Shear Modulus (GPa) = -1.75641 21.74895 9.99627
#
# Velocity S-wave (km/s) = -0.95372 3.35605 2.27525
# Velocity P-wave (km/s) = 4.71828 6.51534 5.68823
#
# Compressibility (1/GPa) = 0.02206044
#
# Stress axis : x y z
#
# Youngs Moduli (GPa) = 91.18434 54.48063 50.40288
#
# Poissons Ratio (x) = 0.31422 0.19341
# Poissons Ratio (y) = 0.52591 0.19889
# Poissons Ratio (z) = 0.34991 0.21498
#
# Static dielectric constant tensor:
#      x y z
#    x 1.741900 0.000000 0.000000 
#    y 0.000000 1.715370 0.000000 
#    z 0.000000 0.000000 1.708870 
# 
# From -- ./inp_files/33826.got.cif
#   From: 2010.05.17/outbox.cif.g08.bks.cpg/sg66_17_cif.got.tgz:33826.got - 2010.06.03 17:51:23.
