data_PCOD9497874
_publ_section_title
;
Structure prediction by ZEFSAII (Michael W. Deem and Ramdas Pophale) SiO2 
 PCOD9497874
Probable space group: C C C M
;
_chemical_formula_sum "Si O2"
_cell_formula_units_Z 116
_cell_length_a 10.343397
_cell_length_b 26.765956
_cell_length_c 17.876572
_cell_angle_alpha 90.000000
_cell_angle_beta 90.000000
_cell_angle_gamma 90.000000
_cell_volume 4949.145208
_symmetry_space_group_name_H-M "C C C M"
_symmetry_group_IT_number 66
_symmetry_cell_setting 'orthorhombic'
loop_
_space_group_symop_operation_xyz
x,y,z
-x,-y,z
x,-y,1/2-z
-x,y,1/2-z
-x,-y,-z
x,y,-z
-x,y,1/2+z
x,-y,1/2+z
1/2+x,1/2+y,z
1/2-x,1/2-y,z
1/2+x,1/2-y,1/2-z
1/2-x,1/2+y,1/2-z
1/2-x,1/2-y,-z
1/2+x,1/2+y,-z
1/2-x,1/2+y,1/2+z
1/2+x,1/2-y,1/2+z
loop_
_atom_site_type_symbol
_atom_site_label
_atom_site_fract_x
_atom_site_fract_y
_atom_site_fract_z
Si Si1 0.497512 0.184866 0.337320
Si Si2 0.474912 0.718147 0.089029
Si Si3 0.210923 0.068322 0.918790
Si Si4 0.286580 0.331184 0.837549
Si Si5 0.622921 0.633657 0.691565
Si Si6 0.219608 0.045220 0.412238
Si Si7 0.500000 0.000000 0.750000
Si Si8 0.006607 0.427534 0.874314
O O1 0.500000 0.198598 0.250000
O O2 0.427069 0.227427 0.384722
O O3 0.645868 0.182811 0.365958
O O4 0.460031 0.127169 0.348988
O O5 0.610544 0.708188 0.132622
O O6 0.394353 0.673033 0.124574
O O7 0.487310 0.715128 0.000000
O O8 0.171662 0.114442 0.868309
O O9 0.366673 0.073871 0.924160
O O10 0.179242 0.011919 0.895757
O O11 0.151356 0.076197 0.000000
O O12 0.276836 0.340245 0.748797
O O13 0.500000 0.630286 0.750000
O O14 0.662122 0.582452 0.650386
O O15 0.187544 0.056339 0.500000
O O16 0.376790 0.047691 0.405840
O O17 0.563838 0.960263 0.805270
#
# Coordination Sequence:
#
# PCOD9497874 Si02
#       8
#    16  16  16  16  16  16   4  16
#     4  11  22  37  61  92 122 156 194 249 302 362
#     4  11  24  43  62  83 117 157 204 259 309 359
#     4  10  21  36  58  93 131 160 195 249 307 365
#     4  10  22  39  65  89 115 156 204 255 306 365
#     4  10  23  43  63  86 117 160 211 263 310 358
#     4  11  22  38  62  89 126 168 203 245 310 377
#     4  12  20  36  58  96 134 176 194 248 282 348
#     4  11  22  35  62  94 134 163 203 241 297 364
#
# _framework density 23.438390999999999
#
# number of rings (size 3 to 8) (size 9 to 14) (size 15 to 20)
#    0.000    1.379    2.069    3.724    1.931    5.517 
#    0.000    6.897    0.000   11.586    0.000    0.000 
#    0.000    0.000    0.000    0.000    0.000    0.000 
#
# Total GULP energy -323605.921211 kJ/mol
# GULP energy per Si atom -5579.412435 kJ/mol
# Density = 2.338504 g / cm^3
# Si number density = 23.438391 Si / 1000 Ang^3
#
#
#
# Elastic Constant Matrix: (Units=GPa)
#
#
# Indices 1 2 3 4 5 6 
#
# 1 28.4016 11.7153 -1.8324 0.0000 0.0000 0.0000
# 2 11.7153 159.4619 73.2720 0.0000 0.0000 0.0000
# 3 -1.8324 73.2720 139.2855 0.0000 0.0000 0.0000
# 4 0.0000 0.0000 0.0000 24.2181 0.0000 0.0000
# 5 0.0000 0.0000 0.0000 0.0000 0.0324 0.0000
# 6 0.0000 0.0000 0.0000 0.0000 0.0000 25.0538
#
#
#
# Elastic Compliance Matrix: (Units=1/GPa)
#
#
# Indices 1 2 3 4 5 6 
#
# 1 0.036971 -0.003877 0.002526 0.000000 0.000000 0.000000
# 2 -0.003877 0.008677 -0.004615 0.000000 0.000000 0.000000
# 3 0.002526 -0.004615 0.009641 0.000000 0.000000 0.000000
# 4 0.000000 0.000000 0.000000 0.041291 0.000000 0.000000
# 5 0.000000 0.000000 0.000000 0.000000 30.904707 0.000000
# 6 0.000000 0.000000 0.000000 0.000000 0.000000 0.039914
#
#
# Mechanical properties :
#
#
# Convention : Reuss Voigt Hill
#
# Bulk Modulus (GPa) = 23.06491 54.82876 38.94684
# Shear Modulus (GPa) = 0.16094 26.12712 13.14403
#
# Velocity S-wave (km/s) = 0.26232 3.34236 2.37067
# Velocity P-wave (km/s) = 3.15496 6.19182 4.91388
#
# Compressibility (1/GPa) = 0.04335590
#
# Stress axis : x y z
#
# Youngs Moduli (GPa) = 27.04796 115.25143 103.72686
#
# Poissons Ratio (x) = 0.44681 -0.26199
# Poissons Ratio (y) = 0.10486 0.47874
# Poissons Ratio (z) = -0.06832 0.53193
#
# Static dielectric constant tensor:
#      x y z
#    x 1.962590 0.000000 0.000000 
#    y 0.000000 1.874160 0.000000 
#    z 0.000000 0.000000 1.878700 
# 
# From -- ./inp_files/39109.got.cif
#   From: 2010.05.17/outbox.cif.g08.bks.cpg/sg66_20_cif.got.tgz:39109.got - 2010.06.03 17:51:23.
