data_PCOD9497989
_publ_section_title
;
Structure prediction by ZEFSAII (Michael W. Deem and Ramdas Pophale) SiO2 
 PCOD9497989
Probable space group: C C C M
;
_chemical_formula_sum "Si O2"
_cell_formula_units_Z 88
_cell_length_a 33.924679
_cell_length_b 7.001457
_cell_length_c 20.486646
_cell_angle_alpha 90.000000
_cell_angle_beta 90.000000
_cell_angle_gamma 90.000000
_cell_volume 4866.032845
_symmetry_space_group_name_H-M "C C C M"
_symmetry_group_IT_number 66
_symmetry_cell_setting 'orthorhombic'
loop_
_space_group_symop_operation_xyz
x,y,z
-x,-y,z
x,-y,1/2-z
-x,y,1/2-z
-x,-y,-z
x,y,-z
-x,y,1/2+z
x,-y,1/2+z
1/2+x,1/2+y,z
1/2-x,1/2-y,z
1/2+x,1/2-y,1/2-z
1/2-x,1/2+y,1/2-z
1/2-x,1/2-y,-z
1/2+x,1/2+y,-z
1/2-x,1/2+y,1/2+z
1/2+x,1/2-y,1/2+z
loop_
_atom_site_type_symbol
_atom_site_label
_atom_site_fract_x
_atom_site_fract_y
_atom_site_fract_z
Si Si1 0.453412 0.481152 0.578908
Si Si2 0.388771 0.213435 0.638315
Si Si3 0.793748 0.826375 0.800296
Si Si4 0.828976 0.989761 0.074627
Si Si5 0.399786 0.812070 0.426823
Si Si6 0.850516 0.500000 0.250000
O O1 0.500000 0.500000 0.587104
O O2 0.445245 0.453459 0.500000
O O3 0.429003 0.324535 0.619933
O O4 0.434275 0.680897 0.600743
O O5 0.353248 0.332413 0.604848
O O6 0.391711 0.005802 0.608043
O O7 0.376998 0.156272 0.711711
O O8 0.750000 0.750000 0.787170
O O9 0.797493 0.917827 0.872550
O O10 0.822365 0.641865 0.792150
O O11 0.803501 0.000000 0.750000
O O12 0.861541 0.821954 0.071878
O O13 0.815713 0.026689 0.000000
O O14 0.411692 0.860979 0.500000
#
# Coordination Sequence:
#
# PCOD9497989 Si02
#       6
#    16  16  16  16  16   8
#     4   9  19  35  56  88 124 156 197 255 313 360
#     4  11  20  35  60  87 119 157 210 249 302 361
#     4  12  24  42  65  89 124 161 208 251 306 375
#     4  10  21  37  60  92 125 154 197 258 309 362
#     4   9  17  31  55  84 115 153 194 243 300 356
#     4  12  24  38  62  91 112 172 212 252 295 372
#
# _framework density 18.084547000000001
#
# number of rings (size 3 to 8) (size 9 to 14) (size 15 to 20)
#    0.000    1.636    4.545    2.727    0.000    1.091 
#    0.000    2.727    0.000    4.909    0.000    0.000 
#    0.000    0.000    0.000    0.000    0.000    0.000 
#
# Total GULP energy -245000.278212 kJ/mol
# GULP energy per Si atom -5568.188141 kJ/mol
# Density = 1.804339 g / cm^3
# Si number density = 18.084547 Si / 1000 Ang^3
#
#
#
# Elastic Constant Matrix: (Units=GPa)
#
#
# Indices 1 2 3 4 5 6 
#
# 1 49.2338 32.9786 20.3094 0.0000 0.0000 0.0000
# 2 32.9786 78.0204 26.1638 0.0000 0.0000 0.0000
# 3 20.3094 26.1638 78.6511 0.0000 0.0000 0.0000
# 4 0.0000 0.0000 0.0000 39.0827 0.0000 0.0000
# 5 0.0000 0.0000 0.0000 0.0000 22.7712 0.0000
# 6 0.0000 0.0000 0.0000 0.0000 0.0000 14.2774
#
#
#
# Elastic Compliance Matrix: (Units=1/GPa)
#
#
# Indices 1 2 3 4 5 6 
#
# 1 0.029352 -0.011104 -0.003886 0.000000 0.000000 0.000000
# 2 -0.011104 0.018627 -0.003329 0.000000 0.000000 0.000000
# 3 -0.003886 -0.003329 0.014825 0.000000 0.000000 0.000000
# 4 0.000000 0.000000 0.000000 0.025587 0.000000 0.000000
# 5 0.000000 0.000000 0.000000 0.000000 0.043915 0.000000
# 6 0.000000 0.000000 0.000000 0.000000 0.000000 0.070041
#
#
# Mechanical properties :
#
#
# Convention : Reuss Voigt Hill
#
# Bulk Modulus (GPa) = 38.21597 40.53433 39.37515
# Shear Modulus (GPa) = 20.18522 23.65649 21.92086
#
# Velocity S-wave (km/s) = 3.34452 3.62070 3.48535
# Velocity P-wave (km/s) = 6.00767 6.31995 6.16579
#
# Compressibility (1/GPa) = 0.02616707
#
# Stress axis : x y z
#
# Youngs Moduli (GPa) = 34.06948 53.68535 67.45274
#
# Poissons Ratio (x) = 0.59611 0.26209
# Poissons Ratio (y) = 0.37830 0.22456
# Poissons Ratio (z) = 0.13238 0.17873
#
# Static dielectric constant tensor:
#      x y z
#    x 1.615130 0.000000 0.000000 
#    y 0.000000 1.624940 0.000000 
#    z 0.000000 0.000000 1.772280 
# 
# From -- ./inp_files/60425.got.cif
#   From: 2010.05.17/outbox.cif.g08.bks.cpg/sg66_31_cif.got.tgz:60425.got - 2010.06.03 17:51:23.
