data_PCOD9497031
_publ_section_title
;
Structure prediction by ZEFSAII (Michael W. Deem and Ramdas Pophale) SiO2 
 PCOD9497031
Probable space group: C C C M
;
_chemical_formula_sum "Si O2"
_cell_formula_units_Z 96
_cell_length_a 24.290882
_cell_length_b 11.331568
_cell_length_c 18.752871
_cell_angle_alpha 90.000000
_cell_angle_beta 90.000000
_cell_angle_gamma 90.000000
_cell_volume 5161.798650
_symmetry_space_group_name_H-M "C C C M"
_symmetry_group_IT_number 66
_symmetry_cell_setting 'orthorhombic'
loop_
_space_group_symop_operation_xyz
x,y,z
-x,-y,z
x,-y,1/2-z
-x,y,1/2-z
-x,-y,-z
x,y,-z
-x,y,1/2+z
x,-y,1/2+z
1/2+x,1/2+y,z
1/2-x,1/2-y,z
1/2+x,1/2-y,1/2-z
1/2-x,1/2+y,1/2-z
1/2-x,1/2-y,-z
1/2+x,1/2+y,-z
1/2-x,1/2+y,1/2+z
1/2+x,1/2-y,1/2+z
loop_
_atom_site_type_symbol
_atom_site_label
_atom_site_fract_x
_atom_site_fract_y
_atom_site_fract_z
Si Si1 0.687488 0.697397 0.321724
Si Si2 0.327921 0.536273 0.583616
Si Si3 0.138809 0.395284 0.580111
Si Si4 0.708049 0.116949 0.421223
Si Si5 0.370948 0.730082 0.327543
Si Si6 0.062306 0.453018 0.175443
O O1 0.750000 0.750000 0.313434
O O2 0.684820 0.576258 0.366751
O O3 0.652141 0.790084 0.367508
O O4 0.655862 0.686836 0.246401
O O5 0.337098 0.506879 0.500000
O O6 0.273130 0.618143 0.586629
O O7 0.374352 0.618824 0.619307
O O8 0.126711 0.355357 0.500000
O O9 0.192242 0.479047 0.578628
O O10 0.092079 0.481459 0.610436
O O11 0.691456 0.161800 0.500000
O O12 0.673469 0.177959 0.360087
O O13 0.425366 0.812733 0.323930
O O14 0.087643 0.500000 0.250000
O O15 0.000000 0.500000 0.174314
#
# Coordination Sequence:
#
# PCOD9497031 Si02
#       6
#    16  16  16  16  16  16
#     4  12  22  34  54  83 124 167 208 240 281 348
#     4  11  22  35  52  78 120 168 202 233 286 354
#     4  10  20  35  56  85 118 154 198 243 290 347
#     4   9  18  33  52  76 114 160 197 234 287 351
#     4  11  22  35  55  86 116 149 196 254 302 351
#     4  10  21  41  66  88 112 143 190 253 319 366
#
# _framework density 18.598168999999999
#
# number of rings (size 3 to 8) (size 9 to 14) (size 15 to 20)
#    0.000    1.500    3.333    3.000    0.000    3.000 
#    0.000    0.000    0.000    1.000    0.000    2.333 
#    0.000    0.000    0.000    0.000    0.000    0.000 
#
# Total GULP energy -267557.490762 kJ/mol
# GULP energy per Si atom -5574.114391 kJ/mol
# Density = 1.855584 g / cm^3
# Si number density = 18.598169 Si / 1000 Ang^3
#
#
#
# Elastic Constant Matrix: (Units=GPa)
#
#
# Indices 1 2 3 4 5 6 
#
# 1 53.4593 22.0682 20.0335 0.0000 0.0000 0.0000
# 2 22.0682 73.5676 26.4287 0.0000 0.0000 0.0000
# 3 20.0335 26.4287 113.7919 0.0000 0.0000 0.0000
# 4 0.0000 0.0000 0.0000 28.9276 0.0000 0.0000
# 5 0.0000 0.0000 0.0000 0.0000 12.7226 0.0000
# 6 0.0000 0.0000 0.0000 0.0000 0.0000 23.4360
#
#
#
# Elastic Compliance Matrix: (Units=1/GPa)
#
#
# Indices 1 2 3 4 5 6 
#
# 1 0.022010 -0.005685 -0.002555 0.000000 0.000000 0.000000
# 2 -0.005685 0.016299 -0.002785 0.000000 0.000000 0.000000
# 3 -0.002555 -0.002785 0.009884 0.000000 0.000000 0.000000
# 4 0.000000 0.000000 0.000000 0.034569 0.000000 0.000000
# 5 0.000000 0.000000 0.000000 0.000000 0.078601 0.000000
# 6 0.000000 0.000000 0.000000 0.000000 0.000000 0.042669
#
#
# Mechanical properties :
#
#
# Convention : Reuss Voigt Hill
#
# Bulk Modulus (GPa) = 38.24808 41.98662 40.11735
# Shear Modulus (GPa) = 21.29522 24.50311 22.89917
#
# Velocity S-wave (km/s) = 3.38748 3.63368 3.51274
# Velocity P-wave (km/s) = 5.99251 6.34267 6.17008
#
# Compressibility (1/GPa) = 0.02614510
#
# Stress axis : x y z
#
# Youngs Moduli (GPa) = 45.43436 61.35529 101.16889
#
# Poissons Ratio (x) = 0.34878 0.25845
# Poissons Ratio (y) = 0.25827 0.28172
# Poissons Ratio (z) = 0.11607 0.17085
#
# Static dielectric constant tensor:
#      x y z
#    x 1.661200 0.000000 0.000000 
#    y 0.000000 1.689470 0.000000 
#    z 0.000000 0.000000 1.676310 
# 
# From -- ./inp_files/38886.got.cif
#   From: 2010.05.17/outbox.cif.g08.bks.cpg/sg66_20_cif.got.tgz:38886.got - 2010.06.03 17:51:23.
