data_PCOD9497555
_publ_section_title
;
Structure prediction by ZEFSAII (Michael W. Deem and Ramdas Pophale) SiO2 
 PCOD9497555
Probable space group: C C C M
;
_chemical_formula_sum "Si O2"
_cell_formula_units_Z 96
_cell_length_a 21.214988
_cell_length_b 12.987849
_cell_length_c 14.735078
_cell_angle_alpha 90.000000
_cell_angle_beta 90.000000
_cell_angle_gamma 90.000000
_cell_volume 4060.060081
_symmetry_space_group_name_H-M "C C C M"
_symmetry_group_IT_number 66
_symmetry_cell_setting 'orthorhombic'
loop_
_space_group_symop_operation_xyz
x,y,z
-x,-y,z
x,-y,1/2-z
-x,y,1/2-z
-x,-y,-z
x,y,-z
-x,y,1/2+z
x,-y,1/2+z
1/2+x,1/2+y,z
1/2-x,1/2-y,z
1/2+x,1/2-y,1/2-z
1/2-x,1/2+y,1/2-z
1/2-x,1/2-y,-z
1/2+x,1/2+y,-z
1/2-x,1/2+y,1/2+z
1/2+x,1/2-y,1/2+z
loop_
_atom_site_type_symbol
_atom_site_label
_atom_site_fract_x
_atom_site_fract_y
_atom_site_fract_z
Si Si1 0.338618 0.311674 0.294308
Si Si2 0.476441 0.169779 0.109861
Si Si3 0.714838 0.087476 0.174354
Si Si4 0.122043 0.157713 0.102356
Si Si5 0.062140 0.059929 0.603717
Si Si6 0.588705 0.035357 0.104416
O O1 0.322081 0.192230 0.300090
O O2 0.284321 0.373341 0.349241
O O3 0.331767 0.333040 0.187148
O O4 0.404395 0.354936 0.334279
O O5 0.440232 0.275672 0.132330
O O6 0.546047 0.131147 0.139847
O O7 0.433544 0.073965 0.143847
O O8 0.477559 0.175501 0.000000
O O9 0.663516 0.042380 0.106422
O O10 0.720763 0.000000 0.250000
O O11 0.108165 0.037338 0.096597
O O12 0.140395 0.192699 0.000000
O O13 0.049485 0.098839 0.500000
O O14 0.000000 0.000000 0.637751
O O15 0.570196 0.029468 0.000000
#
# Coordination Sequence:
#
# PCOD9497555 Si02
#       6
#    16  16  16  16  16  16
#     4  11  25  43  64  94 133 176 232 288 339 409
#     4   8  16  33  60  95 128 160 213 275 338 414
#     4  11  24  42  61  90 135 177 221 283 342 414
#     4  10  20  38  64  90 122 168 221 280 338 399
#     4  10  23  42  65  95 132 175 225 279 335 405
#     4   9  18  35  60  90 127 168 209 272 348 413
#
# _framework density 23.644971000000002
#
# number of rings (size 3 to 8) (size 9 to 14) (size 15 to 20)
#    0.000    2.167    0.000    3.500    2.333    2.667 
#    0.000    9.167    0.000    0.000    0.000    0.000 
#    0.000    0.000    0.000    0.000    0.000    0.000 
#
# Total GULP energy -267409.338398 kJ/mol
# GULP energy per Si atom -5571.027883 kJ/mol
# Density = 2.359115 g / cm^3
# Si number density = 23.644971 Si / 1000 Ang^3
#
#
#
# Elastic Constant Matrix: (Units=GPa)
#
#
# Indices 1 2 3 4 5 6 
#
# 1 88.3158 21.7880 24.1985 0.0000 0.0000 0.0000
# 2 21.7880 140.0489 19.4020 0.0000 0.0000 0.0000
# 3 24.1985 19.4020 61.0069 0.0000 0.0000 0.0000
# 4 0.0000 0.0000 0.0000 18.0980 0.0000 0.0000
# 5 0.0000 0.0000 0.0000 0.0000 21.3177 0.0000
# 6 0.0000 0.0000 0.0000 0.0000 0.0000 38.6617
#
#
#
# Elastic Compliance Matrix: (Units=1/GPa)
#
#
# Indices 1 2 3 4 5 6 
#
# 1 0.012948 -0.001363 -0.004702 0.000000 0.000000 0.000000
# 2 -0.001363 0.007613 -0.001881 0.000000 0.000000 0.000000
# 3 -0.004702 -0.001881 0.018855 0.000000 0.000000 0.000000
# 4 0.000000 0.000000 0.000000 0.055255 0.000000 0.000000
# 5 0.000000 0.000000 0.000000 0.000000 0.046909 0.000000
# 6 0.000000 0.000000 0.000000 0.000000 0.000000 0.025865
#
#
# Mechanical properties :
#
#
# Convention : Reuss Voigt Hill
#
# Bulk Modulus (GPa) = 42.50979 46.68318 44.59648
# Shear Modulus (GPa) = 26.15367 30.54767 28.35067
#
# Velocity S-wave (km/s) = 3.32941 3.59824 3.46644
# Velocity P-wave (km/s) = 5.72690 6.08682 5.90960
#
# Compressibility (1/GPa) = 0.02352399
#
# Stress axis : x y z
#
# Youngs Moduli (GPa) = 77.23409 131.35571 53.03680
#
# Poissons Ratio (x) = 0.17902 0.24939
# Poissons Ratio (y) = 0.10526 0.09974
# Poissons Ratio (z) = 0.36318 0.24702
#
# Static dielectric constant tensor:
#      x y z
#    x 1.986720 0.000000 0.000000 
#    y 0.000000 1.924600 0.000000 
#    z 0.000000 0.000000 1.909840 
# 
# From -- ./inp_files/31177.got.cif
#   From: 2010.05.17/outbox.cif.g08.bks.cpg/sg66_16_cif.got.tgz:31177.got - 2010.06.03 17:51:23.
