data_PCOD9497146
_publ_section_title
;
Structure prediction by ZEFSAII (Michael W. Deem and Ramdas Pophale) SiO2 
 PCOD9497146
Probable space group: C C C M
;
_chemical_formula_sum "Si O2"
_cell_formula_units_Z 96
_cell_length_a 32.889223
_cell_length_b 19.170946
_cell_length_c 8.554111
_cell_angle_alpha 90.000000
_cell_angle_beta 90.000000
_cell_angle_gamma 90.000000
_cell_volume 5393.516837
_symmetry_space_group_name_H-M "C C C M"
_symmetry_group_IT_number 66
_symmetry_cell_setting 'orthorhombic'
loop_
_space_group_symop_operation_xyz
x,y,z
-x,-y,z
x,-y,1/2-z
-x,y,1/2-z
-x,-y,-z
x,y,-z
-x,y,1/2+z
x,-y,1/2+z
1/2+x,1/2+y,z
1/2-x,1/2-y,z
1/2+x,1/2-y,1/2-z
1/2-x,1/2+y,1/2-z
1/2-x,1/2-y,-z
1/2+x,1/2+y,-z
1/2-x,1/2+y,1/2+z
1/2+x,1/2-y,1/2+z
loop_
_atom_site_type_symbol
_atom_site_label
_atom_site_fract_x
_atom_site_fract_y
_atom_site_fract_z
Si Si1 0.456401 0.828909 0.311531
Si Si2 0.796137 0.079758 0.312075
Si Si3 0.880509 0.420953 0.310639
Si Si4 0.880918 0.921012 0.685882
Si Si5 0.708277 0.079406 0.688540
Si Si6 0.456179 0.666711 0.312507
O O1 0.500000 0.854212 0.250000
O O2 0.457219 0.830952 0.500000
O O3 0.418295 0.874538 0.256457
O O4 0.451731 0.747941 0.264416
O O5 0.798819 0.079130 0.500000
O O6 0.837853 0.110173 0.245119
O O7 0.752083 0.110942 0.264430
O O8 0.795398 0.000000 0.250000
O O9 0.884130 0.500000 0.250000
O O10 0.881332 0.422590 0.500000
O O11 0.835838 0.391791 0.262774
O O12 0.880478 0.923613 0.500000
O O13 0.919069 0.877468 0.746250
O O14 0.883950 0.000000 0.750000
O O15 0.708619 0.077875 0.500000
O O16 0.708208 0.000000 0.750000
O O17 0.500000 0.642212 0.250000
O O18 0.456005 0.663111 0.500000
#
# Coordination Sequence:
#
# PCOD9497146 Si02
#       6
#    16  16  16  16  16  16
#     4   9  19  34  52  70  94 126 162 199 239 286
#     4   9  15  25  42  66  94 125 156 191 231 276
#     4   9  17  30  47  72 100 128 160 199 241 281
#     4  11  21  33  50  74 100 126 155 193 235 280
#     4   8  14  24  41  64  93 124 157 192 231 276
#     4  10  20  36  54  72  93 123 160 198 238 285
#
# _framework density 17.799147999999999
#
# number of rings (size 3 to 8) (size 9 to 14) (size 15 to 20)
#    0.000    2.667    0.000    3.500    0.000    2.667 
#    0.000    3.333    0.000    1.000    0.000    7.000 
#    0.000    0.000    0.000    0.000    0.000    0.000 
#
# Total GULP energy -267311.191527 kJ/mol
# GULP energy per Si atom -5568.983157 kJ/mol
# Density = 1.775864 g / cm^3
# Si number density = 17.799148 Si / 1000 Ang^3
#
#
#
# Elastic Constant Matrix: (Units=GPa)
#
#
# Indices 1 2 3 4 5 6 
#
# 1 242.3427 64.2027 45.7730 0.0000 0.0000 0.0000
# 2 64.2027 32.0239 14.6997 0.0000 0.0000 0.0000
# 3 45.7730 14.6997 49.6451 0.0000 0.0000 0.0000
# 4 0.0000 0.0000 0.0000 12.9150 0.0000 0.0000
# 5 0.0000 0.0000 0.0000 0.0000 27.6302 0.0000
# 6 0.0000 0.0000 0.0000 0.0000 0.0000 -14.1885
#
#
#
# Elastic Compliance Matrix: (Units=1/GPa)
#
#
# Indices 1 2 3 4 5 6 
#
# 1 0.009308 -0.017038 -0.003537 0.000000 0.000000 0.000000
# 2 -0.017038 0.067324 -0.004225 0.000000 0.000000 0.000000
# 3 -0.003537 -0.004225 0.024656 0.000000 0.000000 0.000000
# 4 0.000000 0.000000 0.000000 0.077429 0.000000 0.000000
# 5 0.000000 0.000000 0.000000 0.000000 0.036192 0.000000
# 6 0.000000 0.000000 0.000000 0.000000 0.000000 -0.070479
#
#
# Mechanical properties :
#
#
# Convention : Reuss Voigt Hill
#
# Bulk Modulus (GPa) = 19.34732 63.70696 41.52714
# Shear Modulus (GPa) = 23.66742 18.56041 21.11392
#
# Velocity S-wave (km/s) = 3.65045 3.23270 3.44791
# Velocity P-wave (km/s) = 5.35361 7.05717 6.26358
#
# Compressibility (1/GPa) = 0.05168674
#
# Stress axis : x y z
#
# Youngs Moduli (GPa) = 107.43115 14.85348 40.55865
#
# Poissons Ratio (x) = 0.25307 0.14347
# Poissons Ratio (y) = 1.83039 0.17138
# Poissons Ratio (z) = 0.38003 0.06276
#
# Static dielectric constant tensor:
#      x y z
#    x 1.668840 0.000000 0.000000 
#    y 0.000000 1.580030 0.000000 
#    z 0.000000 0.000000 1.603130 
# 
# From -- ./inp_files/10476.got.cif
#   From: 2010.05.17/outbox.cif.g08.bks.cpg/sg66_6_cif.got.tgz:10476.got - 2010.06.03 17:51:23.
