data_PCOD9497718
_publ_section_title
;
Structure prediction by ZEFSAII (Michael W. Deem and Ramdas Pophale) SiO2 
 PCOD9497718
Probable space group: C C C M
;
_chemical_formula_sum "Si O2"
_cell_formula_units_Z 80
_cell_length_a 21.276696
_cell_length_b 11.967676
_cell_length_c 14.054328
_cell_angle_alpha 90.000000
_cell_angle_beta 90.000000
_cell_angle_gamma 90.000000
_cell_volume 3578.690137
_symmetry_space_group_name_H-M "C C C M"
_symmetry_group_IT_number 66
_symmetry_cell_setting 'orthorhombic'
loop_
_space_group_symop_operation_xyz
x,y,z
-x,-y,z
x,-y,1/2-z
-x,y,1/2-z
-x,-y,-z
x,y,-z
-x,y,1/2+z
x,-y,1/2+z
1/2+x,1/2+y,z
1/2-x,1/2-y,z
1/2+x,1/2-y,1/2-z
1/2-x,1/2+y,1/2-z
1/2-x,1/2-y,-z
1/2+x,1/2+y,-z
1/2-x,1/2+y,1/2+z
1/2+x,1/2-y,1/2+z
loop_
_atom_site_type_symbol
_atom_site_label
_atom_site_fract_x
_atom_site_fract_y
_atom_site_fract_z
Si Si1 0.872799 0.340944 0.000000
Si Si2 0.023724 0.675223 0.500000
Si Si3 0.680117 0.409136 0.000000
Si Si4 0.937168 0.376707 0.707335
Si Si5 0.183764 0.274120 0.837278
Si Si6 0.710850 0.983806 0.364252
Si Si7 0.877716 0.134408 0.500000
O O1 0.844009 0.408491 0.089913
O O2 0.948332 0.332101 0.000000
O O3 0.844122 0.216487 0.000000
O O4 0.050640 0.617707 0.594623
O O5 0.055945 0.799169 0.500000
O O6 0.725599 0.435577 0.909995
O O7 0.624745 0.501149 0.000000
O O8 0.930518 0.500000 0.750000
O O9 0.876375 0.302312 0.725765
O O10 0.000000 0.324377 0.750000
O O11 0.250000 0.250000 0.787472
O O12 0.197176 0.388509 0.894451
O O13 0.161268 0.178933 0.908942
O O14 0.713691 0.000000 0.250000
#
# Coordination Sequence:
#
# PCOD9497718 Si02
#       7
#     8   8   8  16  16  16   8
#     4  11  27  44  69 105 144 191 238 296 361 427
#     4  10  25  43  67  99 138 186 239 287 357 434
#     4  11  23  49  65  98 148 182 242 301 348 423
#     4  10  24  42  65 103 141 181 225 295 364 426
#     4  11  21  38  68 101 134 177 233 288 348 431
#     4  11  24  41  69 103 142 181 230 299 371 420
#     4  10  20  44  67  97 130 183 231 291 342 418
#
# _framework density 22.354548000000001
#
# number of rings (size 3 to 8) (size 9 to 14) (size 15 to 20)
#    0.000    1.400    2.000    3.300    8.400    3.600 
#    0.000    0.000    0.000    0.000    0.000    3.500 
#    0.000    0.000    0.000    0.000    0.000    3.200 
#
# Total GULP energy -223605.914359 kJ/mol
# GULP energy per Si atom -5590.147859 kJ/mol
# Density = 2.230367 g / cm^3
# Si number density = 22.354548 Si / 1000 Ang^3
#
#
#
# Elastic Constant Matrix: (Units=GPa)
#
#
# Indices 1 2 3 4 5 6 
#
# 1 206.1944 56.1334 37.2783 0.0000 0.0000 0.0000
# 2 56.1334 138.2527 25.2176 0.0000 0.0000 0.0000
# 3 37.2783 25.2176 154.8716 0.0000 0.0000 0.0000
# 4 0.0000 0.0000 0.0000 -145.8138 0.0000 0.0000
# 5 0.0000 0.0000 0.0000 0.0000 19.5359 0.0000
# 6 0.0000 0.0000 0.0000 0.0000 0.0000 44.8074
#
#
#
# Elastic Compliance Matrix: (Units=1/GPa)
#
#
# Indices 1 2 3 4 5 6 
#
# 1 0.005601 -0.002090 -0.001008 0.000000 0.000000 0.000000
# 2 -0.002090 0.008235 -0.000838 0.000000 0.000000 0.000000
# 3 -0.001008 -0.000838 0.006836 0.000000 0.000000 0.000000
# 4 0.000000 0.000000 0.000000 -0.006858 0.000000 0.000000
# 5 0.000000 0.000000 0.000000 0.000000 0.051188 0.000000
# 6 0.000000 0.000000 0.000000 0.000000 0.000000 0.022318
#
#
# Mechanical properties :
#
#
# Convention : Reuss Voigt Hill
#
# Bulk Modulus (GPa) = 78.12516 81.84190 79.98353
# Shear Modulus (GPa) = 50.27268 9.08518 29.67893
#
# Velocity S-wave (km/s) = 4.74738 2.01816 3.64764
# Velocity P-wave (km/s) = 8.06686 6.49006 7.32104
#
# Compressibility (1/GPa) = 0.01279997
#
# Stress axis : x y z
#
# Youngs Moduli (GPa) = 178.53774 121.43831 146.28539
#
# Poissons Ratio (x) = 0.25384 0.14743
# Poissons Ratio (y) = 0.37320 0.12254
# Poissons Ratio (z) = 0.17994 0.10173
#
# Static dielectric constant tensor:
#      x y z
#    x 1.886780 0.000000 0.000000 
#    y 0.000000 1.826950 0.000000 
#    z 0.000000 0.000000 1.883800 
# 
# From -- ./inp_files/32168.got.cif
#   From: 2010.05.17/outbox.cif.g08.bks.cpg/sg66_17_cif.got.tgz:32168.got - 2010.06.03 17:51:23.
