data_PCOD9497122
_publ_section_title
;
Structure prediction by ZEFSAII (Michael W. Deem and Ramdas Pophale) SiO2 
 PCOD9497122
Probable space group: C C C M
;
_chemical_formula_sum "Si O2"
_cell_formula_units_Z 116
_cell_length_a 27.023056
_cell_length_b 12.143922
_cell_length_c 15.630168
_cell_angle_alpha 90.000000
_cell_angle_beta 90.000000
_cell_angle_gamma 90.000000
_cell_volume 5129.287903
_symmetry_space_group_name_H-M "C C C M"
_symmetry_group_IT_number 66
_symmetry_cell_setting 'orthorhombic'
loop_
_space_group_symop_operation_xyz
x,y,z
-x,-y,z
x,-y,1/2-z
-x,y,1/2-z
-x,-y,-z
x,y,-z
-x,y,1/2+z
x,-y,1/2+z
1/2+x,1/2+y,z
1/2-x,1/2-y,z
1/2+x,1/2-y,1/2-z
1/2-x,1/2+y,1/2-z
1/2-x,1/2-y,-z
1/2+x,1/2+y,-z
1/2-x,1/2+y,1/2+z
1/2+x,1/2-y,1/2+z
loop_
_atom_site_type_symbol
_atom_site_label
_atom_site_fract_x
_atom_site_fract_y
_atom_site_fract_z
Si Si1 0.009215 0.287136 0.349146
Si Si2 0.660275 0.213510 0.902348
Si Si3 0.899070 0.704540 0.096399
Si Si4 0.584733 0.037971 0.152890
Si Si5 0.750000 0.250000 0.000000
Si Si6 0.157905 0.036480 0.604178
Si Si7 0.799295 0.812661 0.894520
Si Si8 0.048984 0.940278 0.896895
O O1 0.036966 0.396098 0.382051
O O2 0.045233 0.184877 0.365654
O O3 0.000000 0.304963 0.250000
O O4 0.954603 0.259223 0.381420
O O5 0.629455 0.125246 0.850782
O O6 0.662617 0.337612 0.866528
O O7 0.637028 0.220568 0.000000
O O8 0.716739 0.186746 0.926364
O O9 0.901029 0.572561 0.103977
O O10 0.849307 0.751872 0.138234
O O11 0.893285 0.741472 0.000000
O O12 0.575206 0.000000 0.250000
O O13 0.163436 0.044428 0.500000
O O14 0.101149 0.004679 0.625332
O O15 0.194413 0.940233 0.632138
O O16 0.750000 0.750000 0.865676
O O17 0.797542 0.811847 0.000000
O O18 0.046691 0.938433 0.000000
O O19 0.000000 0.000000 0.863623
#
# Coordination Sequence:
#
# PCOD9497122 Si02
#       8
#    16  16  16  16   4  16  16  16
#     4  12  24  40  61  89 133 182 227 271 344 413
#     4   9  19  37  63 100 129 167 220 284 338 398
#     4  11  24  39  62  96 126 169 232 288 337 417
#     4  12  24  41  63  89 137 188 222 276 350 419
#     4   8  20  36  64 108 130 152 230 292 334 394
#     4   9  16  31  56  85 122 160 197 260 337 392
#     4   9  19  37  61  94 131 164 204 271 348 407
#     4  10  20  35  60  92 126 165 213 278 337 393
#
# _framework density 22.615226
#
# number of rings (size 3 to 8) (size 9 to 14) (size 15 to 20)
#    0.414    1.379    2.759    2.069    0.000    5.793 
#    2.483    0.000    1.517    0.828    0.000    0.000 
#    0.000    0.000    0.000    0.000    0.000    0.000 
#
# Total GULP energy -322904.101878 kJ/mol
# GULP energy per Si atom -5567.312101 kJ/mol
# Density = 2.256375 g / cm^3
# Si number density = 22.615226 Si / 1000 Ang^3
#
#
#
# Elastic Constant Matrix: (Units=GPa)
#
#
# Indices 1 2 3 4 5 6 
#
# 1 88.0273 33.5458 7.9020 0.0000 0.0000 0.0000
# 2 33.5458 97.4084 -4.6008 0.0000 0.0000 0.0000
# 3 7.9020 -4.6008 12.6963 0.0000 0.0000 0.0000
# 4 0.0000 0.0000 0.0000 17.0988 0.0000 0.0000
# 5 0.0000 0.0000 0.0000 0.0000 8.2130 0.0000
# 6 0.0000 0.0000 0.0000 0.0000 0.0000 43.1220
#
#
#
# Elastic Compliance Matrix: (Units=1/GPa)
#
#
# Indices 1 2 3 4 5 6 
#
# 1 0.014438 -0.005490 -0.010975 0.000000 0.000000 0.000000
# 2 -0.005490 0.012533 0.007959 0.000000 0.000000 0.000000
# 3 -0.010975 0.007959 0.088478 0.000000 0.000000 0.000000
# 4 0.000000 0.000000 0.000000 0.058484 0.000000 0.000000
# 5 0.000000 0.000000 0.000000 0.000000 0.121759 0.000000
# 6 0.000000 0.000000 0.000000 0.000000 0.000000 0.023190
#
#
# Mechanical properties :
#
#
# Convention : Reuss Voigt Hill
#
# Bulk Modulus (GPa) = 10.15908 30.20288 20.18098
# Shear Modulus (GPa) = 13.56092 24.43908 19.00000
#
# Velocity S-wave (km/s) = 2.45140 3.29089 2.90166
# Velocity P-wave (km/s) = 3.53757 5.27485 4.49101
#
# Compressibility (1/GPa) = 0.09843415
#
# Stress axis : x y z
#
# Youngs Moduli (GPa) = 69.26328 79.79073 11.30226
#
# Poissons Ratio (x) = 0.43809 0.12405
# Poissons Ratio (y) = 0.38029 -0.08995
# Poissons Ratio (z) = 0.76019 -0.63503
#
# Static dielectric constant tensor:
#      x y z
#    x 2.011860 0.000000 0.000000 
#    y 0.000000 1.867420 0.000000 
#    z 0.000000 0.000000 1.836080 
# 
# From -- ./inp_files/44786.got.cif
#   From: 2010.05.17/outbox.cif.g08.bks.cpg/sg66_23_cif.got.tgz:44786.got - 2010.06.03 17:51:23.
