data_PCOD9497544
_publ_section_title
;
Structure prediction by ZEFSAII (Michael W. Deem and Ramdas Pophale) SiO2 
 PCOD9497544
Probable space group: C C C M
;
_chemical_formula_sum "Si O2"
_cell_formula_units_Z 68
_cell_length_a 17.470000
_cell_length_b 19.121436
_cell_length_c 9.802139
_cell_angle_alpha 90.000000
_cell_angle_beta 90.000000
_cell_angle_gamma 90.000000
_cell_volume 3274.419108
_symmetry_space_group_name_H-M "C C C M"
_symmetry_group_IT_number 66
_symmetry_cell_setting 'orthorhombic'
loop_
_space_group_symop_operation_xyz
x,y,z
-x,-y,z
x,-y,1/2-z
-x,y,1/2-z
-x,-y,-z
x,y,-z
-x,y,1/2+z
x,-y,1/2+z
1/2+x,1/2+y,z
1/2-x,1/2-y,z
1/2+x,1/2-y,1/2-z
1/2-x,1/2+y,1/2-z
1/2-x,1/2-y,-z
1/2+x,1/2+y,-z
1/2-x,1/2+y,1/2+z
1/2+x,1/2-y,1/2+z
loop_
_atom_site_type_symbol
_atom_site_label
_atom_site_fract_x
_atom_site_fract_y
_atom_site_fract_z
Si Si1 0.789979 0.673797 0.000000
Si Si2 0.265022 0.865061 0.198513
Si Si3 0.811002 0.000000 0.250000
Si Si4 0.500000 0.000000 0.250000
Si Si5 0.590220 0.491069 0.000000
Si Si6 0.897046 0.677579 0.500000
Si Si7 0.361652 0.328398 0.500000
Si Si8 0.552964 0.907326 0.000000
O O1 0.750000 0.750000 0.000000
O O2 0.762823 0.641924 0.858785
O O3 0.880060 0.650949 0.000000
O O4 0.195761 0.823188 0.128466
O O5 0.243460 0.945323 0.174069
O O6 0.343386 0.842084 0.128744
O O7 0.868986 0.024416 0.368156
O O8 0.550528 0.045937 0.359357
O O9 0.500000 0.500000 0.000000
O O10 0.603568 0.406181 0.000000
O O11 0.914032 0.760348 0.500000
O O12 0.972310 0.632243 0.500000
#
# Coordination Sequence:
#
# PCOD9497544 Si02
#       8
#     8  16   8   4   8   8   8   8
#     4  12  24  39  59  90 128 163 199 264 325 366
#     4  10  21  37  62  87 125 162 213 262 311 381
#     4  10  21  37  58  93 117 160 212 258 318 366
#     4  10  24  44  64  94 130 174 214 272 332 372
#     4  10  20  38  63  87 129 160 210 267 316 373
#     4  11  21  40  64  88 122 168 216 256 317 394
#     4   9  20  40  63  87 116 176 211 251 315 389
#     4  11  25  43  65  96 130 167 219 272 323 399
#
# _framework density 20.767040999999999
#
# number of rings (size 3 to 8) (size 9 to 14) (size 15 to 20)
#    0.000    1.647    0.000    6.000    0.000    5.647 
#    4.235    0.000    5.176    0.000    0.000    0.000 
#    0.000    0.000    0.000    0.000    0.000    0.000 
#
# Total GULP energy -189527.520931 kJ/mol
# GULP energy per Si atom -5574.338851 kJ/mol
# Density = 2.071977 g / cm^3
# Si number density = 20.767041 Si / 1000 Ang^3
#
#
#
# Elastic Constant Matrix: (Units=GPa)
#
#
# Indices 1 2 3 4 5 6 
#
# 1 98.4525 54.5301 29.9067 0.0000 0.0000 0.0000
# 2 54.5301 87.7074 4.7711 0.0000 0.0000 0.0000
# 3 29.9067 4.7711 144.4198 0.0000 0.0000 0.0000
# 4 0.0000 0.0000 0.0000 7.8131 0.0000 0.0000
# 5 0.0000 0.0000 0.0000 0.0000 12.1143 0.0000
# 6 0.0000 0.0000 0.0000 0.0000 0.0000 28.1552
#
#
#
# Elastic Compliance Matrix: (Units=1/GPa)
#
#
# Indices 1 2 3 4 5 6 
#
# 1 0.016802 -0.010276 -0.003140 0.000000 0.000000 0.000000
# 2 -0.010276 0.017706 0.001543 0.000000 0.000000 0.000000
# 3 -0.003140 0.001543 0.007524 0.000000 0.000000 0.000000
# 4 0.000000 0.000000 0.000000 0.127989 0.000000 0.000000
# 5 0.000000 0.000000 0.000000 0.000000 0.082547 0.000000
# 6 0.000000 0.000000 0.000000 0.000000 0.000000 0.035517
#
#
# Mechanical properties :
#
#
# Convention : Reuss Voigt Hill
#
# Bulk Modulus (GPa) = 54.68444 56.55506 55.61975
# Shear Modulus (GPa) = 15.72686 25.70799 20.71742
#
# Velocity S-wave (km/s) = 2.75489 3.52223 3.16192
# Velocity P-wave (km/s) = 6.04225 6.62070 6.33808
#
# Compressibility (1/GPa) = 0.01828674
#
# Stress axis : x y z
#
# Youngs Moduli (GPa) = 59.51509 56.47699 132.91647
#
# Poissons Ratio (x) = 0.58034 0.41736
# Poissons Ratio (y) = 0.61156 -0.20509
# Poissons Ratio (z) = 0.18688 -0.08714
#
# Static dielectric constant tensor:
#      x y z
#    x 1.727610 0.000000 0.000000 
#    y 0.000000 1.853430 0.000000 
#    z 0.000000 0.000000 1.740950 
# 
# From -- ./inp_files/7502.got.cif
#   From: 2010.05.17/outbox.cif.g08.bks.cpg/sg66_4_cif.got.tgz:7502.got - 2010.06.03 17:51:23.
