data_PCOD9497727
_publ_section_title
;
Structure prediction by ZEFSAII (Michael W. Deem and Ramdas Pophale) SiO2 
 PCOD9497727
Probable space group: C C C M
;
_chemical_formula_sum "Si O2"
_cell_formula_units_Z 108
_cell_length_a 14.737852
_cell_length_b 20.802790
_cell_length_c 14.419291
_cell_angle_alpha 90.000000
_cell_angle_beta 90.000000
_cell_angle_gamma 90.000000
_cell_volume 4420.787937
_symmetry_space_group_name_H-M "C C C M"
_symmetry_group_IT_number 66
_symmetry_cell_setting 'orthorhombic'
loop_
_space_group_symop_operation_xyz
x,y,z
-x,-y,z
x,-y,1/2-z
-x,y,1/2-z
-x,-y,-z
x,y,-z
-x,y,1/2+z
x,-y,1/2+z
1/2+x,1/2+y,z
1/2-x,1/2-y,z
1/2+x,1/2-y,1/2-z
1/2-x,1/2+y,1/2-z
1/2-x,1/2-y,-z
1/2+x,1/2+y,-z
1/2-x,1/2+y,1/2+z
1/2+x,1/2-y,1/2+z
loop_
_atom_site_type_symbol
_atom_site_label
_atom_site_fract_x
_atom_site_fract_y
_atom_site_fract_z
Si Si1 0.904532 0.722289 0.645891
Si Si2 0.365199 0.352203 0.253704
Si Si3 0.429265 0.556683 0.394390
Si Si4 0.333468 0.158264 0.174956
Si Si5 0.780222 0.952596 0.393710
Si Si6 0.929781 0.293162 0.500000
Si Si7 0.398550 0.018410 0.112261
Si Si8 0.250000 0.750000 0.000000
O O1 0.906056 0.793400 0.690226
O O2 0.890358 0.677677 0.734414
O O3 0.816174 0.719558 0.580897
O O4 0.990294 0.709431 0.581461
O O5 0.427894 0.385591 0.176677
O O6 0.271712 0.333779 0.202303
O O7 0.334078 0.405842 0.327421
O O8 0.500000 0.500000 0.371877
O O9 0.448077 0.577836 0.500000
O O10 0.331808 0.521210 0.391338
O O11 0.362693 0.085503 0.150521
O O12 0.354946 0.198444 0.083189
O O13 0.784879 0.929076 0.500000
O O14 0.676606 0.964483 0.365813
O O15 0.500000 0.000000 0.140971
O O16 0.399360 0.024870 0.000000
#
# Coordination Sequence:
#
# PCOD9497727 Si02
#       8
#    16  16  16  16  16   8  16   4
#     4  11  26  50  75 117 150 215 279 327 415 486
#     4  12  25  45  81 112 156 206 273 335 394 494
#     4  10  23  47  74 111 155 207 259 330 406 476
#     4  12  24  49  79 113 158 210 267 334 406 485
#     4  10  23  42  72 112 156 201 253 323 397 475
#     4  11  28  49  78 107 166 204 257 351 412 472
#     4  10  22  44  73 115 160 209 261 316 411 490
#     4  10  20  48  76 104 156 196 268 338 384 494
#
# _framework density 24.430033999999999
#
# number of rings (size 3 to 8) (size 9 to 14) (size 15 to 20)
#    0.000    1.185    3.704    0.889    3.111    3.556 
#    9.333    1.481    0.000    0.000    0.000    0.519 
#    0.000    0.000    0.000    0.000    0.000    0.000 
#
# Total GULP energy -301302.293769 kJ/mol
# GULP energy per Si atom -5579.672107 kJ/mol
# Density = 2.437443 g / cm^3
# Si number density = 24.430034 Si / 1000 Ang^3
#
#
#
# Elastic Constant Matrix: (Units=GPa)
#
#
# Indices 1 2 3 4 5 6 
#
# 1 97.8916 7.5163 47.3206 0.0000 0.0000 0.0000
# 2 7.5163 55.7657 52.5046 0.0000 0.0000 0.0000
# 3 47.3206 52.5046 111.2422 0.0000 0.0000 0.0000
# 4 0.0000 0.0000 0.0000 -10.2210 0.0000 0.0000
# 5 0.0000 0.0000 0.0000 0.0000 36.7284 0.0000
# 6 0.0000 0.0000 0.0000 0.0000 0.0000 14.0824
#
#
#
# Elastic Compliance Matrix: (Units=1/GPa)
#
#
# Indices 1 2 3 4 5 6 
#
# 1 0.014149 0.006767 -0.009213 0.000000 0.000000 0.000000
# 2 0.006767 0.035511 -0.019639 0.000000 0.000000 0.000000
# 3 -0.009213 -0.019639 0.022178 0.000000 0.000000 0.000000
# 4 0.000000 0.000000 0.000000 -0.097838 0.000000 0.000000
# 5 0.000000 0.000000 0.000000 0.000000 0.027227 0.000000
# 6 0.000000 0.000000 0.000000 0.000000 0.000000 0.071011
#
#
# Mechanical properties :
#
#
# Convention : Reuss Voigt Hill
#
# Bulk Modulus (GPa) = 36.14302 53.28695 44.71499
# Shear Modulus (GPa) = 39.79948 18.62182 29.21065
#
# Velocity S-wave (km/s) = 4.04062 2.76389 3.46162
# Velocity P-wave (km/s) = 6.04941 5.66082 5.85834
#
# Compressibility (1/GPa) = 0.02766786
#
# Stress axis : x y z
#
# Youngs Moduli (GPa) = 70.67530 28.16056 45.09047
#
# Poissons Ratio (x) = -0.19056 0.41541
# Poissons Ratio (y) = -0.47825 0.88553
# Poissons Ratio (z) = 0.65111 0.55305
#
# Static dielectric constant tensor:
#      x y z
#    x 1.958280 0.000000 0.000000 
#    y 0.000000 1.991210 0.000000 
#    z 0.000000 0.000000 1.891740 
# 
# From -- ./inp_files/28756.got.cif
#   From: 2010.05.17/outbox.cif.g08.bks.cpg/sg66_15_cif.got.tgz:28756.got - 2010.06.03 17:51:23.
