data_PCOD9497535
_publ_section_title
;
Structure prediction by ZEFSAII (Michael W. Deem and Ramdas Pophale) SiO2 
 PCOD9497535
Probable space group: C C C M
;
_chemical_formula_sum "Si O2"
_cell_formula_units_Z 116
_cell_length_a 25.630676
_cell_length_b 13.472117
_cell_length_c 14.341784
_cell_angle_alpha 90.000000
_cell_angle_beta 90.000000
_cell_angle_gamma 90.000000
_cell_volume 4952.210355
_symmetry_space_group_name_H-M "C C C M"
_symmetry_group_IT_number 66
_symmetry_cell_setting 'orthorhombic'
loop_
_space_group_symop_operation_xyz
x,y,z
-x,-y,z
x,-y,1/2-z
-x,y,1/2-z
-x,-y,-z
x,y,-z
-x,y,1/2+z
x,-y,1/2+z
1/2+x,1/2+y,z
1/2-x,1/2-y,z
1/2+x,1/2-y,1/2-z
1/2-x,1/2+y,1/2-z
1/2-x,1/2-y,-z
1/2+x,1/2+y,-z
1/2-x,1/2+y,1/2+z
1/2+x,1/2-y,1/2+z
loop_
_atom_site_type_symbol
_atom_site_label
_atom_site_fract_x
_atom_site_fract_y
_atom_site_fract_z
Si Si1 0.770132 0.361640 0.108375
Si Si2 0.669507 0.506235 0.638177
Si Si3 0.899336 0.185312 0.151736
Si Si4 0.000000 0.500000 0.000000
Si Si5 0.120656 0.806709 0.362457
Si Si6 0.995186 0.114425 0.609142
Si Si7 0.920080 0.402356 0.368451
Si Si8 0.880238 0.607625 0.660749
O O1 0.750000 0.250000 0.129907
O O2 0.723790 0.441306 0.115324
O O3 0.817991 0.390016 0.175136
O O4 0.787467 0.360071 0.000000
O O5 0.664803 0.500000 0.750000
O O6 0.625314 0.586405 0.607922
O O7 0.659142 0.394064 0.603479
O O8 0.871092 0.199551 0.251227
O O9 0.891744 0.291535 0.105576
O O10 0.960463 0.170670 0.165174
O O11 0.975674 0.577737 0.082002
O O12 0.063186 0.851321 0.376902
O O13 0.113021 0.694694 0.398633
O O14 0.008650 0.126344 0.500000
O O15 0.000000 0.000000 0.634281
O O16 0.892663 0.506558 0.391695
O O17 0.915272 0.393596 0.255365
#
# Coordination Sequence:
#
# PCOD9497535 Si02
#       8
#    16  16  16   4  16  16  16  16
#     4  11  24  42  70 106 142 186 244 306 369 427
#     4  10  21  39  65  97 131 181 235 295 360 433
#     4  10  20  38  62  90 126 175 230 281 349 420
#     4  12  28  50  72 100 140 188 246 288 358 446
#     4  10  22  41  61  90 134 175 230 282 349 432
#     4  11  23  34  54  90 129 174 216 276 350 419
#     4  10  26  45  68  99 132 185 227 287 357 431
#     4  10  23  46  67  97 140 178 237 296 354 433
#
# _framework density 23.423884000000001
#
# number of rings (size 3 to 8) (size 9 to 14) (size 15 to 20)
#    0.000    1.655    2.759    0.414    5.793    3.310 
#    2.483    0.690    0.000    0.828    0.000    0.000 
#    0.000    0.000    0.000    0.000    0.000    0.000 
#
# Total GULP energy -323011.374817 kJ/mol
# GULP energy per Si atom -5569.161635 kJ/mol
# Density = 2.337057 g / cm^3
# Si number density = 23.423884 Si / 1000 Ang^3
#
#
#
# Elastic Constant Matrix: (Units=GPa)
#
#
# Indices 1 2 3 4 5 6 
#
# 1 84.8611 32.5747 6.4967 0.0000 0.0000 0.0000
# 2 32.5747 207.1958 19.3096 0.0000 0.0000 0.0000
# 3 6.4967 19.3096 117.2018 0.0000 0.0000 0.0000
# 4 0.0000 0.0000 0.0000 -1.5842 0.0000 0.0000
# 5 0.0000 0.0000 0.0000 0.0000 14.8413 0.0000
# 6 0.0000 0.0000 0.0000 0.0000 0.0000 73.8357
#
#
#
# Elastic Compliance Matrix: (Units=1/GPa)
#
#
# Indices 1 2 3 4 5 6 
#
# 1 0.012557 -0.001939 -0.000377 0.000000 0.000000 0.000000
# 2 -0.001939 0.005201 -0.000749 0.000000 0.000000 0.000000
# 3 -0.000377 -0.000749 0.008677 0.000000 0.000000 0.000000
# 4 0.000000 0.000000 0.000000 -0.631219 0.000000 0.000000
# 5 0.000000 0.000000 0.000000 0.000000 0.067380 0.000000
# 6 0.000000 0.000000 0.000000 0.000000 0.000000 0.013544
#
#
# Mechanical properties :
#
#
# Convention : Reuss Voigt Hill
#
# Bulk Modulus (GPa) = 49.24988 58.44676 53.84832
# Shear Modulus (GPa) = -9.78545 40.81039 15.51247
#
# Velocity S-wave (km/s) = -2.04612 4.17856 2.57621
# Velocity P-wave (km/s) = 3.93560 6.94885 5.64692
#
# Compressibility (1/GPa) = 0.02030462
#
# Stress axis : x y z
#
# Youngs Moduli (GPa) = 79.63602 192.26878 115.25205
#
# Poissons Ratio (x) = 0.37283 0.04340
# Poissons Ratio (y) = 0.15442 0.08637
# Poissons Ratio (z) = 0.02999 0.14409
#
# Static dielectric constant tensor:
#      x y z
#    x 1.949760 0.000000 0.000000 
#    y 0.000000 1.939110 0.000000 
#    z 0.000000 0.000000 1.945880 
# 
# From -- ./inp_files/44357.got.cif
#   From: 2010.05.17/outbox.cif.g08.bks.cpg/sg66_23_cif.got.tgz:44357.got - 2010.06.03 17:51:23.
