data_PCOD9497462
_publ_section_title
;
Structure prediction by ZEFSAII (Michael W. Deem and Ramdas Pophale) SiO2 
 PCOD9497462
Probable space group: C C C M
;
_chemical_formula_sum "Si O2"
_cell_formula_units_Z 72
_cell_length_a 9.424288
_cell_length_b 12.363346
_cell_length_c 28.561279
_cell_angle_alpha 90.000000
_cell_angle_beta 90.000000
_cell_angle_gamma 90.000000
_cell_volume 3327.838368
_symmetry_space_group_name_H-M "C C C M"
_symmetry_group_IT_number 66
_symmetry_cell_setting 'orthorhombic'
loop_
_space_group_symop_operation_xyz
x,y,z
-x,-y,z
x,-y,1/2-z
-x,y,1/2-z
-x,-y,-z
x,y,-z
-x,y,1/2+z
x,-y,1/2+z
1/2+x,1/2+y,z
1/2-x,1/2-y,z
1/2+x,1/2-y,1/2-z
1/2-x,1/2+y,1/2-z
1/2-x,1/2-y,-z
1/2+x,1/2+y,-z
1/2-x,1/2+y,1/2+z
1/2+x,1/2-y,1/2+z
loop_
_atom_site_type_symbol
_atom_site_label
_atom_site_fract_x
_atom_site_fract_y
_atom_site_fract_z
Si Si1 0.435105 0.346832 0.448032
Si Si2 0.146431 0.333921 0.231649
Si Si3 0.702638 0.041602 0.823241
Si Si4 0.500000 0.500000 0.869409
Si Si5 0.610384 0.097805 0.074325
O O1 0.489810 0.370811 0.500000
O O2 0.516546 0.399845 0.404987
O O3 0.438319 0.217462 0.440811
O O4 0.274458 0.397898 0.444379
O O5 0.250000 0.250000 0.208202
O O6 0.126774 0.435087 0.197509
O O7 0.214267 0.378187 0.279574
O O8 0.000000 0.285665 0.250000
O O9 0.629609 0.089596 0.869454
O O10 0.860732 0.011526 0.838791
O O11 0.500000 0.000000 0.060900
#
# Coordination Sequence:
#
# PCOD9497462 Si02
#       5
#    16  16  16   8  16
#     4  10  22  39  61  94 128 165 216 277 337 390
#     4  11  25  40  64  92 129 168 205 273 318 382
#     4  10  23  40  60  89 128 162 224 255 326 383
#     4  10  23  39  66  90 124 178 208 279 323 400
#     4  10  20  37  64  90 120 170 218 268 324 401
#
# _framework density 21.635664999999999
#
# number of rings (size 3 to 8) (size 9 to 14) (size 15 to 20)
#    0.000    1.778    0.000    4.333    9.333    4.444 
#    0.000    3.333    0.000    6.667    0.000    0.000 
#    0.000    0.000    0.000    0.000    0.000    0.000 
#
# Total GULP energy -200896.646740 kJ/mol
# GULP energy per Si atom -5580.462409 kJ/mol
# Density = 2.158642 g / cm^3
# Si number density = 21.635665 Si / 1000 Ang^3
#
#
#
# Elastic Constant Matrix: (Units=GPa)
#
#
# Indices 1 2 3 4 5 6 
#
# 1 80.7165 35.9377 21.6185 0.0000 0.0000 0.0000
# 2 35.9377 101.0196 7.5895 0.0000 0.0000 0.0000
# 3 21.6185 7.5895 96.3631 0.0000 0.0000 0.0000
# 4 0.0000 0.0000 0.0000 534.8582 0.0000 0.0000
# 5 0.0000 0.0000 0.0000 0.0000 41.1336 0.0000
# 6 0.0000 0.0000 0.0000 0.0000 0.0000 41.6385
#
#
#
# Elastic Compliance Matrix: (Units=1/GPa)
#
#
# Indices 1 2 3 4 5 6 
#
# 1 0.015577 -0.005311 -0.003076 0.000000 0.000000 0.000000
# 2 -0.005311 0.011768 0.000265 0.000000 0.000000 0.000000
# 3 -0.003076 0.000265 0.011047 0.000000 0.000000 0.000000
# 4 0.000000 0.000000 0.000000 0.001870 0.000000 0.000000
# 5 0.000000 0.000000 0.000000 0.000000 0.024311 0.000000
# 6 0.000000 0.000000 0.000000 0.000000 0.000000 0.024016
#
#
# Mechanical properties :
#
#
# Convention : Reuss Voigt Hill
#
# Bulk Modulus (GPa) = 45.15149 45.37675 45.26412
# Shear Modulus (GPa) = 44.55652 137.72297 91.13975
#
# Velocity S-wave (km/s) = 4.54299 7.98710 6.49740
# Velocity P-wave (km/s) = 6.95935 10.29937 8.78947
#
# Compressibility (1/GPa) = 0.02214766
#
# Stress axis : x y z
#
# Youngs Moduli (GPa) = 64.19536 84.97319 90.52426
#
# Poissons Ratio (x) = 0.45125 0.27849
# Poissons Ratio (y) = 0.34091 -0.02394
# Poissons Ratio (z) = 0.19749 -0.02248
#
# Static dielectric constant tensor:
#      x y z
#    x 1.848000 0.000000 0.000000 
#    y 0.000000 1.810130 0.000000 
#    z 0.000000 0.000000 1.750260 
# 
# From -- ./inp_files/62160.got.cif
#   From: 2010.05.17/outbox.cif.g08.bks.cpg/sg66_32_cif.got.tgz:62160.got - 2010.06.03 17:51:23.
