data_PCOD9497672
_publ_section_title
;
Structure prediction by ZEFSAII (Michael W. Deem and Ramdas Pophale) SiO2 
 PCOD9497672
Probable space group: C C C M
;
_chemical_formula_sum "Si O2"
_cell_formula_units_Z 56
_cell_length_a 16.882605
_cell_length_b 5.428003
_cell_length_c 28.012393
_cell_angle_alpha 90.000000
_cell_angle_beta 90.000000
_cell_angle_gamma 90.000000
_cell_volume 2567.022936
_symmetry_space_group_name_H-M "C C C M"
_symmetry_group_IT_number 66
_symmetry_cell_setting 'orthorhombic'
loop_
_space_group_symop_operation_xyz
x,y,z
-x,-y,z
x,-y,1/2-z
-x,y,1/2-z
-x,-y,-z
x,y,-z
-x,y,1/2+z
x,-y,1/2+z
1/2+x,1/2+y,z
1/2-x,1/2-y,z
1/2+x,1/2-y,1/2-z
1/2-x,1/2+y,1/2-z
1/2-x,1/2-y,-z
1/2+x,1/2+y,-z
1/2-x,1/2+y,1/2+z
1/2+x,1/2-y,1/2+z
loop_
_atom_site_type_symbol
_atom_site_label
_atom_site_fract_x
_atom_site_fract_y
_atom_site_fract_z
Si Si1 0.580642 0.346650 0.923322
Si Si2 0.800561 0.003936 0.500000
Si Si3 0.581273 0.139789 0.824118
Si Si4 0.500000 0.500000 0.750000
Si Si5 0.000000 0.500000 0.500000
Si Si6 0.299778 0.000000 0.750000
O O1 0.500000 0.500000 0.915279
O O2 0.612374 0.258603 0.872576
O O3 0.555939 0.125768 0.958338
O O4 0.642718 0.504059 0.953725
O O5 0.750000 0.750000 0.500000
O O6 0.750000 0.250000 0.500000
O O7 0.554330 0.337128 0.784508
O O8 0.500000 0.000000 0.836850
O O9 0.644645 0.973934 0.796742
O O10 0.250000 0.250000 0.744237
#
# Coordination Sequence:
#
# PCOD9497672 Si02
#       6
#    16   8  16   4   4   8
#     4  11  25  43  77 106 137 192 254 313 362 435
#     4  11  28  49  72 102 155 199 232 296 379 454
#     4  12  24  44  76 108 140 196 256 314 364 438
#     4  12  20  44  72 110 140 182 254 314 370 416
#     4  10  20  40  68 106 138 168 236 310 372 410
#     4  12  28  48  73 107 160 206 240 304 382 454
#
# _framework density 21.815155000000001
#
# number of rings (size 3 to 8) (size 9 to 14) (size 15 to 20)
#    0.000    0.571    5.714    2.571    8.000    1.143 
#    0.000    5.714    0.000    0.000    0.000    0.000 
#    0.000    0.000    0.000    0.000    0.000    0.000 
#
# Total GULP energy -156189.805806 kJ/mol
# GULP energy per Si atom -5578.207350 kJ/mol
# Density = 2.176550 g / cm^3
# Si number density = 21.815155 Si / 1000 Ang^3
#
#
#
# Elastic Constant Matrix: (Units=GPa)
#
#
# Indices 1 2 3 4 5 6 
#
# 1 76.8240 28.4538 21.5584 0.0000 0.0000 0.0000
# 2 28.4538 78.7552 25.2413 0.0000 0.0000 0.0000
# 3 21.5584 25.2413 180.5095 0.0000 0.0000 0.0000
# 4 0.0000 0.0000 0.0000 -12.3297 0.0000 0.0000
# 5 0.0000 0.0000 0.0000 0.0000 8.5783 0.0000
# 6 0.0000 0.0000 0.0000 0.0000 0.0000 54.8880
#
#
#
# Elastic Compliance Matrix: (Units=1/GPa)
#
#
# Indices 1 2 3 4 5 6 
#
# 1 0.015233 -0.005151 -0.001099 0.000000 0.000000 0.000000
# 2 -0.005151 0.015035 -0.001487 0.000000 0.000000 0.000000
# 3 -0.001099 -0.001487 0.005879 0.000000 0.000000 0.000000
# 4 0.000000 0.000000 0.000000 -0.081105 0.000000 0.000000
# 5 0.000000 0.000000 0.000000 0.000000 0.116573 0.000000
# 6 0.000000 0.000000 0.000000 0.000000 0.000000 0.018219
#
#
# Mechanical properties :
#
#
# Convention : Reuss Voigt Hill
#
# Bulk Modulus (GPa) = 48.37362 54.06618 51.21990
# Shear Modulus (GPa) = 44.56291 27.61633 36.08962
#
# Velocity S-wave (km/s) = 4.52458 3.56184 4.07177
# Velocity P-wave (km/s) = 7.03692 6.46167 6.75542
#
# Compressibility (1/GPa) = 0.02067243
#
# Stress axis : x y z
#
# Youngs Moduli (GPa) = 65.64638 66.50970 170.09441
#
# Poissons Ratio (x) = 0.34262 0.18693
# Poissons Ratio (y) = 0.33817 0.25297
# Poissons Ratio (z) = 0.07214 0.09891
#
# Static dielectric constant tensor:
#      x y z
#    x 1.817340 0.000000 0.000000 
#    y 0.000000 1.857690 0.000000 
#    z 0.000000 0.000000 1.731470 
# 
# From -- ./inp_files/69366.got.cif
#   From: 2010.05.17/outbox.cif.g08.bks.cpg/sg66_35_cif.got.tgz:69366.got - 2010.06.03 17:51:23.
