data_PCOD9497091
_publ_section_title
;
Structure prediction by ZEFSAII (Michael W. Deem and Ramdas Pophale) SiO2 
 PCOD9497091
Probable space group: C C C M
;
_chemical_formula_sum "Si O2"
_cell_formula_units_Z 120
_cell_length_a 12.256028
_cell_length_b 26.099315
_cell_length_c 19.181384
_cell_angle_alpha 90.000000
_cell_angle_beta 90.000000
_cell_angle_gamma 90.000000
_cell_volume 6135.624787
_symmetry_space_group_name_H-M "C C C M"
_symmetry_group_IT_number 66
_symmetry_cell_setting 'orthorhombic'
loop_
_space_group_symop_operation_xyz
x,y,z
-x,-y,z
x,-y,1/2-z
-x,y,1/2-z
-x,-y,-z
x,y,-z
-x,y,1/2+z
x,-y,1/2+z
1/2+x,1/2+y,z
1/2-x,1/2-y,z
1/2+x,1/2-y,1/2-z
1/2-x,1/2+y,1/2-z
1/2-x,1/2-y,-z
1/2+x,1/2+y,-z
1/2-x,1/2+y,1/2+z
1/2+x,1/2-y,1/2+z
loop_
_atom_site_type_symbol
_atom_site_label
_atom_site_fract_x
_atom_site_fract_y
_atom_site_fract_z
Si Si1 0.069906 0.672094 0.374229
Si Si2 0.022751 0.777496 0.075190
Si Si3 0.915568 0.414306 0.808553
Si Si4 0.079976 0.851799 0.688434
Si Si5 0.868818 0.493167 0.078065
Si Si6 0.796906 0.321814 0.755594
Si Si7 0.737647 0.598895 0.919622
Si Si8 0.250000 0.250000 0.621331
O O1 0.115693 0.694992 0.301627
O O2 0.173620 0.644525 0.409703
O O3 0.020930 0.719482 0.415680
O O4 0.985119 0.626849 0.354484
O O5 0.153294 0.774881 0.078613
O O6 0.983359 0.813715 0.137018
O O7 0.984963 0.797054 0.000000
O O8 0.856805 0.454110 0.858595
O O9 0.826255 0.380924 0.768451
O O10 0.000000 0.435341 0.750000
O O11 0.175859 0.819554 0.725902
O O12 0.143525 0.891781 0.637767
O O13 0.000000 0.871286 0.750000
O O14 0.805050 0.546097 0.090903
O O15 0.000000 0.500000 0.076409
O O16 0.837354 0.474682 0.000000
O O17 0.804053 0.290958 0.826462
O O18 0.698782 0.599109 0.000000
#
# Coordination Sequence:
#
# PCOD9497091 Si02
#       8
#    16  16  16  16  16  16  16   8
#     4  10  20  35  58  88 127 162 199 249 309 367
#     4  12  25  38  58  88 122 163 209 256 313 371
#     4  10  20  36  58  93 130 161 199 252 312 374
#     4  11  23  42  63  84 117 168 213 260 311 359
#     4  10  20  36  60  92 129 167 195 242 320 384
#     4  10  21  36  59  89 115 156 208 254 302 361
#     4  10  21  39  62  93 127 160 207 254 306 378
#     4  12  21  38  58  84 121 158 210 256 307 364
#
# _framework density 19.557911000000001
#
# number of rings (size 3 to 8) (size 9 to 14) (size 15 to 20)
#    0.000    1.467    4.000    1.800    0.000    2.400 
#    0.000    3.333    0.000    1.600    0.000    1.867 
#    0.000    0.000    0.000    0.000    0.000    0.000 
#
# Total GULP energy -334872.194363 kJ/mol
# GULP energy per Si atom -5581.203239 kJ/mol
# Density = 1.951340 g / cm^3
# Si number density = 19.557911 Si / 1000 Ang^3
#
#
#
# Elastic Constant Matrix: (Units=GPa)
#
#
# Indices 1 2 3 4 5 6 
#
# 1 72.1254 28.6250 37.4562 0.0000 0.0000 0.0000
# 2 28.6250 70.8889 49.0838 0.0000 0.0000 0.0000
# 3 37.4562 49.0838 128.0087 0.0000 0.0000 0.0000
# 4 0.0000 0.0000 0.0000 23.6218 0.0000 0.0000
# 5 0.0000 0.0000 0.0000 0.0000 14.9904 0.0000
# 6 0.0000 0.0000 0.0000 0.0000 0.0000 19.7521
#
#
#
# Elastic Compliance Matrix: (Units=1/GPa)
#
#
# Indices 1 2 3 4 5 6 
#
# 1 0.017465 -0.004784 -0.003276 0.000000 0.000000 0.000000
# 2 -0.004784 0.020516 -0.006467 0.000000 0.000000 0.000000
# 3 -0.003276 -0.006467 0.011250 0.000000 0.000000 0.000000
# 4 0.000000 0.000000 0.000000 0.042334 0.000000 0.000000
# 5 0.000000 0.000000 0.000000 0.000000 0.066710 0.000000
# 6 0.000000 0.000000 0.000000 0.000000 0.000000 0.050628
#
#
# Mechanical properties :
#
#
# Convention : Reuss Voigt Hill
#
# Bulk Modulus (GPa) = 49.56052 55.70591 52.63322
# Shear Modulus (GPa) = 20.43477 22.06338 21.24907
#
# Velocity S-wave (km/s) = 3.23590 3.36237 3.29974
# Velocity P-wave (km/s) = 6.27350 6.60443 6.44109
#
# Compressibility (1/GPa) = 0.02017735
#
# Stress axis : x y z
#
# Youngs Moduli (GPa) = 57.25856 48.74233 88.88743
#
# Poissons Ratio (x) = 0.23318 0.29119
# Poissons Ratio (y) = 0.27392 0.57482
# Poissons Ratio (z) = 0.18757 0.31521
#
# Static dielectric constant tensor:
#      x y z
#    x 1.695380 0.000000 0.000000 
#    y 0.000000 1.685500 0.000000 
#    z 0.000000 0.000000 1.722830 
# 
# From -- ./inp_files/49079.got.cif
#   From: 2010.05.17/outbox.cif.g08.bks.cpg/sg66_25_cif.got.tgz:49079.got - 2010.06.03 17:51:23.
