data_PCOD9497957
_publ_section_title
;
Structure prediction by ZEFSAII (Michael W. Deem and Ramdas Pophale) SiO2 
 PCOD9497957
Probable space group: C C C M
;
_chemical_formula_sum "Si O2"
_cell_formula_units_Z 52
_cell_length_a 10.116831
_cell_length_b 14.141500
_cell_length_c 13.907431
_cell_angle_alpha 90.000000
_cell_angle_beta 90.000000
_cell_angle_gamma 90.000000
_cell_volume 1989.696734
_symmetry_space_group_name_H-M "C C C M"
_symmetry_group_IT_number 66
_symmetry_cell_setting 'orthorhombic'
loop_
_space_group_symop_operation_xyz
x,y,z
-x,-y,z
x,-y,1/2-z
-x,y,1/2-z
-x,-y,-z
x,y,-z
-x,y,1/2+z
x,-y,1/2+z
1/2+x,1/2+y,z
1/2-x,1/2-y,z
1/2+x,1/2-y,1/2-z
1/2-x,1/2+y,1/2-z
1/2-x,1/2-y,-z
1/2+x,1/2+y,-z
1/2-x,1/2+y,1/2+z
1/2+x,1/2-y,1/2+z
loop_
_atom_site_type_symbol
_atom_site_label
_atom_site_fract_x
_atom_site_fract_y
_atom_site_fract_z
Si Si1 0.882191 0.309298 0.116281
Si Si2 0.875723 0.816943 0.891282
Si Si3 0.289498 0.473559 0.384909
Si Si4 0.000000 0.000000 0.250000
O O1 0.750000 0.250000 0.139807
O O2 0.841792 0.416712 0.144493
O O3 0.011024 0.253032 0.149015
O O4 0.893542 0.313262 0.000000
O O5 0.750000 0.750000 0.895863
O O6 0.809840 0.916581 0.858167
O O7 0.922137 0.841076 0.000000
O O8 0.303826 0.462790 0.500000
O O9 0.415304 0.436032 0.324364
#
# Coordination Sequence:
#
# PCOD9497957 Si02
#       4
#    16  16  16   4
#     4   9  17  31  55  85 115 152 197 245 302 363
#     4   9  18  34  58  88 122 163 207 249 306 378
#     4  10  21  37  58  86 122 159 203 262 313 370
#     4  12  22  36  60  88 116 158 210 254 320 394
#
# _framework density 26.134637000000001
#
# number of rings (size 3 to 8) (size 9 to 14) (size 15 to 20)
#    0.000    2.462    0.000    2.308    0.000    6.154 
#    0.000   10.769    0.000    1.846    0.000    0.000 
#    0.000    0.000    0.000    0.000    0.000    0.923 
#
# Total GULP energy -144880.317610 kJ/mol
# GULP energy per Si atom -5572.319908 kJ/mol
# Density = 2.607515 g / cm^3
# Si number density = 26.134637 Si / 1000 Ang^3
#
#
#
# Elastic Constant Matrix: (Units=GPa)
#
#
# Indices 1 2 3 4 5 6 
#
# 1 148.9218 105.6588 18.5002 0.0000 0.0000 0.0000
# 2 105.6588 224.6923 13.1039 0.0000 0.0000 0.0000
# 3 18.5002 13.1039 117.8775 0.0000 0.0000 0.0000
# 4 0.0000 0.0000 0.0000 -0.3123 0.0000 0.0000
# 5 0.0000 0.0000 0.0000 0.0000 -2.8940 0.0000
# 6 0.0000 0.0000 0.0000 0.0000 0.0000 53.0673
#
#
#
# Elastic Compliance Matrix: (Units=1/GPa)
#
#
# Indices 1 2 3 4 5 6 
#
# 1 0.010211 -0.004739 -0.001076 0.000000 0.000000 0.000000
# 2 -0.004739 0.006679 0.000001 0.000000 0.000000 0.000000
# 3 -0.001076 0.000001 0.008652 0.000000 0.000000 0.000000
# 4 0.000000 0.000000 0.000000 -3.202235 0.000000 0.000000
# 5 0.000000 0.000000 0.000000 0.000000 -0.345541 0.000000
# 6 0.000000 0.000000 0.000000 0.000000 0.000000 0.018844
#
#
# Mechanical properties :
#
#
# Convention : Reuss Voigt Hill
#
# Bulk Modulus (GPa) = 71.86401 85.11304 78.48852
# Shear Modulus (GPa) = -1.43385 33.58744 16.07680
#
# Velocity S-wave (km/s) = -0.74150 3.58882 2.48292
# Velocity P-wave (km/s) = 5.17921 7.05766 6.19011
#
# Compressibility (1/GPa) = 0.01391517
#
# Stress axis : x y z
#
# Youngs Moduli (GPa) = 97.93712 149.72819 115.57931
#
# Poissons Ratio (x) = 0.70952 0.12433
# Poissons Ratio (y) = 0.46409 -0.00015
# Poissons Ratio (z) = 0.10535 -0.00019
#
# Static dielectric constant tensor:
#      x y z
#    x 7.839280 0.000000 0.000000 
#    y 0.000000 2.155010 0.000000 
#    z 0.000000 0.000000 2.144290 
# 
# From -- ./inp_files/37739.got.cif
#   From: 2010.05.17/outbox.cif.g08.bks.cpg/sg66_19_cif.got.tgz:37739.got - 2010.06.03 17:51:23.
