data_PCOD9497024
_publ_section_title
;
Structure prediction by ZEFSAII (Michael W. Deem and Ramdas Pophale) SiO2 
 PCOD9497024
Probable space group: C C C M
;
_chemical_formula_sum "Si O2"
_cell_formula_units_Z 128
_cell_length_a 23.725950
_cell_length_b 17.325520
_cell_length_c 18.789813
_cell_angle_alpha 90.000000
_cell_angle_beta 90.000000
_cell_angle_gamma 90.000000
_cell_volume 7723.823606
_symmetry_space_group_name_H-M "C C C M"
_symmetry_group_IT_number 66
_symmetry_cell_setting 'orthorhombic'
loop_
_space_group_symop_operation_xyz
x,y,z
-x,-y,z
x,-y,1/2-z
-x,y,1/2-z
-x,-y,-z
x,y,-z
-x,y,1/2+z
x,-y,1/2+z
1/2+x,1/2+y,z
1/2-x,1/2-y,z
1/2+x,1/2-y,1/2-z
1/2-x,1/2+y,1/2-z
1/2-x,1/2-y,-z
1/2+x,1/2+y,-z
1/2-x,1/2+y,1/2+z
1/2+x,1/2-y,1/2+z
loop_
_atom_site_type_symbol
_atom_site_label
_atom_site_fract_x
_atom_site_fract_y
_atom_site_fract_z
Si Si1 0.936449 0.355815 0.781918
Si Si2 0.057790 0.245110 0.915555
Si Si3 0.438357 0.039399 0.581675
Si Si4 0.760310 0.340974 0.585135
Si Si5 0.362163 0.599778 0.584933
Si Si6 0.040795 0.809200 0.815266
Si Si7 0.621904 0.105838 0.642899
Si Si8 0.935764 0.021840 0.167210
O O1 0.934928 0.394528 0.859030
O O2 0.924256 0.264258 0.787710
O O3 0.895196 0.396393 0.725783
O O4 0.000000 0.362862 0.750000
O O5 0.102439 0.177399 0.898439
O O6 0.082794 0.325798 0.889022
O O7 0.000344 0.223791 0.875892
O O8 0.050095 0.248179 0.000000
O O9 0.430504 0.064954 0.500000
O O10 0.500000 0.000000 0.586924
O O11 0.394491 0.972845 0.603515
O O12 0.771212 0.349396 0.500000
O O13 0.750000 0.250000 0.597555
O O14 0.702859 0.385569 0.603481
O O15 0.814149 0.371038 0.627424
O O16 0.365356 0.589266 0.500000
O O17 0.391927 0.528995 0.623589
O O18 0.071631 0.886219 0.839934
O O19 0.000000 0.833884 0.750000
O O20 0.930326 0.000000 0.250000
O O21 0.000000 0.000000 0.144938
#
# Coordination Sequence:
#
# PCOD9497024 Si02
#       8
#    16  16  16  16  16  16  16  16
#     4  11  22  36  55  77 115 149 186 234 282 336
#     4  11  19  29  51  81 109 141 183 223 275 347
#     4  11  22  36  55  81 114 150 188 229 282 345
#     4  10  20  35  56  83 116 152 191 240 294 342
#     4  10  21  35  52  80 115 146 184 238 287 334
#     4  11  19  34  50  77 108 149 184 222 281 332
#     4  12  21  34  59  82 112 150 186 229 292 347
#     4  11  20  32  54  77 110 146 188 225 277 338
#
# _framework density 16.572102999999998
#
# number of rings (size 3 to 8) (size 9 to 14) (size 15 to 20)
#    0.000    1.125    7.500    1.500    0.000    2.250 
#    0.000    1.250    0.000    0.000    0.000    0.000 
#    0.000    3.500    0.000    0.000    0.000    0.000 
#
# Total GULP energy -357440.636019 kJ/mol
# GULP energy per Si atom -5585.009938 kJ/mol
# Density = 1.653438 g / cm^3
# Si number density = 16.572103 Si / 1000 Ang^3
#
#
#
# Elastic Constant Matrix: (Units=GPa)
#
#
# Indices 1 2 3 4 5 6 
#
# 1 79.8415 28.1654 31.2849 0.0000 0.0000 0.0000
# 2 28.1654 94.3903 35.1557 0.0000 0.0000 0.0000
# 3 31.2849 35.1557 79.0996 0.0000 0.0000 0.0000
# 4 0.0000 0.0000 0.0000 28.6322 0.0000 0.0000
# 5 0.0000 0.0000 0.0000 0.0000 20.1211 0.0000
# 6 0.0000 0.0000 0.0000 0.0000 0.0000 22.6154
#
#
#
# Elastic Compliance Matrix: (Units=1/GPa)
#
#
# Indices 1 2 3 4 5 6 
#
# 1 0.015412 -0.002790 -0.004855 0.000000 0.000000 0.000000
# 2 -0.002790 0.013201 -0.004764 0.000000 0.000000 0.000000
# 3 -0.004855 -0.004764 0.016680 0.000000 0.000000 0.000000
# 4 0.000000 0.000000 0.000000 0.034926 0.000000 0.000000
# 5 0.000000 0.000000 0.000000 0.000000 0.049699 0.000000
# 6 0.000000 0.000000 0.000000 0.000000 0.000000 0.044218
#
#
# Mechanical properties :
#
#
# Convention : Reuss Voigt Hill
#
# Bulk Modulus (GPa) = 48.84240 49.17149 49.00694
# Shear Modulus (GPa) = 24.29799 24.85543 24.57671
#
# Velocity S-wave (km/s) = 3.83325 3.87697 3.85517
# Velocity P-wave (km/s) = 7.00917 7.05527 7.03226
#
# Compressibility (1/GPa) = 0.02047402
#
# Stress axis : x y z
#
# Youngs Moduli (GPa) = 64.88593 75.75107 59.95273
#
# Poissons Ratio (x) = 0.21137 0.29109
# Poissons Ratio (y) = 0.18106 0.28559
# Poissons Ratio (z) = 0.31504 0.36085
#
# Static dielectric constant tensor:
#      x y z
#    x 1.537570 0.000000 0.000000 
#    y 0.000000 1.577420 0.000000 
#    z 0.000000 0.000000 1.568440 
# 
# From -- ./inp_files/43813.got.cif
#   From: 2010.05.17/outbox.cif.g08.bks.cpg/sg66_22_cif.got.tgz:43813.got - 2010.06.03 17:51:23.
