data_PCOD9497054
_publ_section_title
;
Structure prediction by ZEFSAII (Michael W. Deem and Ramdas Pophale) SiO2 
 PCOD9497054
Probable space group: C C C M
;
_chemical_formula_sum "Si O2"
_cell_formula_units_Z 96
_cell_length_a 12.961494
_cell_length_b 19.827457
_cell_length_c 22.072167
_cell_angle_alpha 90.000000
_cell_angle_beta 90.000000
_cell_angle_gamma 90.000000
_cell_volume 5672.402676
_symmetry_space_group_name_H-M "C C C M"
_symmetry_group_IT_number 66
_symmetry_cell_setting 'orthorhombic'
loop_
_space_group_symop_operation_xyz
x,y,z
-x,-y,z
x,-y,1/2-z
-x,y,1/2-z
-x,-y,-z
x,y,-z
-x,y,1/2+z
x,-y,1/2+z
1/2+x,1/2+y,z
1/2-x,1/2-y,z
1/2+x,1/2-y,1/2-z
1/2-x,1/2+y,1/2-z
1/2-x,1/2-y,-z
1/2+x,1/2+y,-z
1/2-x,1/2+y,1/2+z
1/2+x,1/2-y,1/2+z
loop_
_atom_site_type_symbol
_atom_site_label
_atom_site_fract_x
_atom_site_fract_y
_atom_site_fract_z
Si Si1 0.849587 0.679133 0.428862
Si Si2 0.881288 0.814665 0.622071
Si Si3 0.291943 0.535249 0.657482
Si Si4 0.382215 0.977392 0.070363
Si Si5 0.118869 0.091494 0.726976
Si Si6 0.959517 0.077425 0.431317
O O1 0.859232 0.696083 0.500000
O O2 0.907188 0.736642 0.390245
O O3 0.729705 0.678170 0.409732
O O4 0.884070 0.602816 0.419584
O O5 0.872853 0.838254 0.691583
O O6 0.959150 0.867755 0.592039
O O7 0.190158 0.512373 0.621086
O O8 0.352212 0.467212 0.678884
O O9 0.298767 0.579137 0.719209
O O10 0.360847 0.576730 0.610937
O O11 0.500000 0.000000 0.074124
O O12 0.344879 0.988980 0.000000
O O13 0.000000 0.083019 0.750000
O O14 0.933206 0.093308 0.500000
O O15 0.000000 0.000000 0.429868
#
# Coordination Sequence:
#
# PCOD9497054 Si02
#       6
#    16  16  16  16  16  16
#     4  10  20  35  57  85 116 146 183 239 295 338
#     4  11  19  32  53  82 115 148 182 224 284 355
#     4  11  19  33  53  79 110 146 184 229 281 338
#     4  10  21  39  63  84 106 143 196 251 296 338
#     4  11  20  32  53  79 117 155 177 216 282 349
#     4  11  18  26  46  80 113 137 171 223 278 339
#
# _framework density 16.924045
#
# number of rings (size 3 to 8) (size 9 to 14) (size 15 to 20)
#    0.000    1.333    5.000    3.500    0.000    2.667 
#    0.000    1.667    7.333    1.000    0.000    4.667 
#    0.000    0.000    0.000    0.000    0.000    0.000 
#
# Total GULP energy -267379.488818 kJ/mol
# GULP energy per Si atom -5570.406017 kJ/mol
# Density = 1.688553 g / cm^3
# Si number density = 16.924045 Si / 1000 Ang^3
#
#
#
# Elastic Constant Matrix: (Units=GPa)
#
#
# Indices 1 2 3 4 5 6 
#
# 1 63.7927 50.9087 42.7094 0.0000 0.0000 0.0000
# 2 50.9087 88.8758 54.8354 0.0000 0.0000 0.0000
# 3 42.7094 54.8354 129.3542 0.0000 0.0000 0.0000
# 4 0.0000 0.0000 0.0000 196.5939 0.0000 0.0000
# 5 0.0000 0.0000 0.0000 0.0000 12.5717 0.0000
# 6 0.0000 0.0000 0.0000 0.0000 0.0000 25.0346
#
#
#
# Elastic Compliance Matrix: (Units=1/GPa)
#
#
# Indices 1 2 3 4 5 6 
#
# 1 0.030034 -0.015012 -0.003553 0.000000 0.000000 0.000000
# 2 -0.015012 0.022740 -0.004683 0.000000 0.000000 0.000000
# 3 -0.003553 -0.004683 0.010889 0.000000 0.000000 0.000000
# 4 0.000000 0.000000 0.000000 0.005087 0.000000 0.000000
# 5 0.000000 0.000000 0.000000 0.000000 0.079544 0.000000
# 6 0.000000 0.000000 0.000000 0.000000 0.000000 0.039945
#
#
# Mechanical properties :
#
#
# Convention : Reuss Voigt Hill
#
# Bulk Modulus (GPa) = 58.24952 64.32552 61.28752
# Shear Modulus (GPa) = 20.79368 55.74464 38.26916
#
# Velocity S-wave (km/s) = 3.50901 5.74540 4.76040
# Velocity P-wave (km/s) = 7.13516 9.06111 8.15519
#
# Compressibility (1/GPa) = 0.01716752
#
# Stress axis : x y z
#
# Youngs Moduli (GPa) = 33.29518 43.97499 91.83474
#
# Poissons Ratio (x) = 0.66015 0.32627
# Poissons Ratio (y) = 0.49982 0.43010
# Poissons Ratio (z) = 0.11829 0.20595
#
# Static dielectric constant tensor:
#      x y z
#    x 1.558410 0.000000 0.000000 
#    y 0.000000 1.617650 0.000000 
#    z 0.000000 0.000000 1.624880 
# 
# From -- ./inp_files/48818.got.cif
#   From: 2010.05.17/outbox.cif.g08.bks.cpg/sg66_25_cif.got.tgz:48818.got - 2010.06.03 17:51:23.
