data_PCOD9497883
_publ_section_title
;
Structure prediction by ZEFSAII (Michael W. Deem and Ramdas Pophale) SiO2 
 PCOD9497883
Probable space group: C C C M
;
_chemical_formula_sum "Si O2"
_cell_formula_units_Z 88
_cell_length_a 8.034214
_cell_length_b 19.484717
_cell_length_c 22.865621
_cell_angle_alpha 90.000000
_cell_angle_beta 90.000000
_cell_angle_gamma 90.000000
_cell_volume 3579.484602
_symmetry_space_group_name_H-M "C C C M"
_symmetry_group_IT_number 66
_symmetry_cell_setting 'orthorhombic'
loop_
_space_group_symop_operation_xyz
x,y,z
-x,-y,z
x,-y,1/2-z
-x,y,1/2-z
-x,-y,-z
x,y,-z
-x,y,1/2+z
x,-y,1/2+z
1/2+x,1/2+y,z
1/2-x,1/2-y,z
1/2+x,1/2-y,1/2-z
1/2-x,1/2+y,1/2-z
1/2-x,1/2-y,-z
1/2+x,1/2+y,-z
1/2-x,1/2+y,1/2+z
1/2+x,1/2-y,1/2+z
loop_
_atom_site_type_symbol
_atom_site_label
_atom_site_fract_x
_atom_site_fract_y
_atom_site_fract_z
Si Si1 0.215106 0.105500 0.629500
Si Si2 0.453543 0.713656 0.341743
Si Si3 0.175528 0.539932 0.380374
Si Si4 0.697026 0.582351 0.758868
Si Si5 0.750000 0.250000 0.241139
Si Si6 0.966463 0.332010 0.566877
O O1 0.042380 0.147723 0.629774
O O2 0.275542 0.110255 0.697786
O O3 0.351907 0.141893 0.588993
O O4 0.200606 0.025078 0.612919
O O5 0.500000 0.597098 0.250000
O O6 0.594818 0.750824 0.302132
O O7 0.415394 0.769438 0.391158
O O8 0.209199 0.579752 0.320652
O O9 0.000000 0.500000 0.377727
O O10 0.153350 0.601509 0.426378
O O11 0.700114 0.500000 0.750000
O O12 0.685619 0.696514 0.791442
O O13 0.973435 0.309936 0.500000
#
# Coordination Sequence:
#
# PCOD9497883 Si02
#       6
#    16  16  16  16   8  16
#     4  10  21  36  59  94 128 169 227 283 358 416
#     4  11  23  41  64 103 135 181 223 297 360 438
#     4   9  21  38  61  94 132 177 227 289 356 433
#     4   9  19  33  57  94 131 164 205 275 361 430
#     4  10  24  40  66 102 140 172 226 284 372 446
#     4  11  24  41  62  90 130 183 239 288 343 419
#
# _framework density 24.584546
#
# number of rings (size 3 to 8) (size 9 to 14) (size 15 to 20)
#    0.000    2.000    1.818    0.000    5.091   13.091 
#    0.000    0.455    0.000    3.273    0.000   12.727 
#    0.000    0.000    0.000    0.000    0.000    0.000 
#
# Total GULP energy -245377.922709 kJ/mol
# GULP energy per Si atom -5576.770971 kJ/mol
# Density = 2.452859 g / cm^3
# Si number density = 24.584546 Si / 1000 Ang^3
#
#
#
# Elastic Constant Matrix: (Units=GPa)
#
#
# Indices 1 2 3 4 5 6 
#
# 1 58.4410 33.6690 27.7179 0.0000 0.0000 0.0000
# 2 33.6690 143.8551 33.7164 0.0000 0.0000 0.0000
# 3 27.7179 33.7164 164.8984 0.0000 0.0000 0.0000
# 4 0.0000 0.0000 0.0000 61.2547 0.0000 0.0000
# 5 0.0000 0.0000 0.0000 0.0000 36.9977 0.0000
# 6 0.0000 0.0000 0.0000 0.0000 0.0000 27.4127
#
#
#
# Elastic Compliance Matrix: (Units=1/GPa)
#
#
# Indices 1 2 3 4 5 6 
#
# 1 0.020809 -0.004254 -0.002628 0.000000 0.000000 0.000000
# 2 -0.004254 0.008171 -0.000956 0.000000 0.000000 0.000000
# 3 -0.002628 -0.000956 0.006701 0.000000 0.000000 0.000000
# 4 0.000000 0.000000 0.000000 0.016325 0.000000 0.000000
# 5 0.000000 0.000000 0.000000 0.000000 0.027029 0.000000
# 6 0.000000 0.000000 0.000000 0.000000 0.000000 0.036479
#
#
# Mechanical properties :
#
#
# Convention : Reuss Voigt Hill
#
# Bulk Modulus (GPa) = 49.98595 61.93345 55.95970
# Shear Modulus (GPa) = 36.26898 43.27242 39.77070
#
# Velocity S-wave (km/s) = 3.84510 4.19996 4.02644
# Velocity P-wave (km/s) = 6.33162 6.98329 6.66542
#
# Compressibility (1/GPa) = 0.02000562
#
# Stress axis : x y z
#
# Youngs Moduli (GPa) = 48.05691 122.38209 149.22129
#
# Poissons Ratio (x) = 0.52065 0.39214
# Poissons Ratio (y) = 0.20445 0.14260
# Poissons Ratio (z) = 0.12629 0.11695
#
# Static dielectric constant tensor:
#      x y z
#    x 2.644600 0.000000 0.000000 
#    y 0.000000 0.874840 0.000000 
#    z 0.000000 0.000000 1.915530 
# 
# From -- ./inp_files/48527.got.cif
#   From: 2010.05.17/outbox.cif.g08.bks.cpg/sg66_25_cif.got.tgz:48527.got - 2010.06.03 17:51:23.
