data_PCOD9497310
_publ_section_title
;
Structure prediction by ZEFSAII (Michael W. Deem and Ramdas Pophale) SiO2 
 PCOD9497310
Probable space group: C C C M
;
_chemical_formula_sum "Si O2"
_cell_formula_units_Z 116
_cell_length_a 17.917558
_cell_length_b 19.711739
_cell_length_c 17.985711
_cell_angle_alpha 90.000000
_cell_angle_beta 90.000000
_cell_angle_gamma 90.000000
_cell_volume 6352.305405
_symmetry_space_group_name_H-M "C C C M"
_symmetry_group_IT_number 66
_symmetry_cell_setting 'orthorhombic'
loop_
_space_group_symop_operation_xyz
x,y,z
-x,-y,z
x,-y,1/2-z
-x,y,1/2-z
-x,-y,-z
x,y,-z
-x,y,1/2+z
x,-y,1/2+z
1/2+x,1/2+y,z
1/2-x,1/2-y,z
1/2+x,1/2-y,1/2-z
1/2-x,1/2+y,1/2-z
1/2-x,1/2-y,-z
1/2+x,1/2+y,-z
1/2-x,1/2+y,1/2+z
1/2+x,1/2-y,1/2+z
loop_
_atom_site_type_symbol
_atom_site_label
_atom_site_fract_x
_atom_site_fract_y
_atom_site_fract_z
Si Si1 0.000000 0.500000 0.750000
Si Si2 0.746966 0.032956 0.082244
Si Si3 0.240581 0.168787 0.779462
Si Si4 0.145647 0.144103 0.632286
Si Si5 0.168393 0.284183 0.586281
Si Si6 0.996154 0.919540 0.834020
Si Si7 0.637129 0.909899 0.307715
Si Si8 0.340791 0.396804 0.086853
O O1 0.059247 0.447470 0.710400
O O2 0.790499 0.104677 0.086757
O O3 0.688577 0.035109 0.149416
O O4 0.805425 0.972291 0.092331
O O5 0.712825 0.025882 0.000000
O O6 0.250000 0.250000 0.774157
O O7 0.180148 0.148481 0.715566
O O8 0.314889 0.124696 0.759340
O O9 0.209899 0.149342 0.859993
O O10 0.121485 0.217241 0.603016
O O11 0.072204 0.100511 0.627324
O O12 0.168937 0.301760 0.500000
O O13 0.250000 0.250000 0.605438
O O14 0.138014 0.346195 0.634722
O O15 0.923085 0.897605 0.878199
O O16 0.000000 0.890836 0.750000
O O17 0.000000 0.000000 0.828480
O O18 0.341129 0.377761 0.000000
#
# Coordination Sequence:
#
# PCOD9497310 Si02
#       8
#     4  16  16  16  16  16  16  16
#     4  12  28  44  62  88 124 166 218 262 324 384
#     4  10  20  36  63  93 122 155 201 256 306 359
#     4  11  21  41  65  90 114 156 213 266 307 360
#     4  11  19  35  62  92 122 157 199 246 304 361
#     4  11  20  36  65 100 125 150 200 262 318 364
#     4  11  22  35  57  88 128 166 200 239 294 362
#     4  11  22  42  66  94 117 158 206 269 314 373
#     4  11  24  38  56  89 127 168 206 244 299 368
#
# _framework density 18.261087
#
# number of rings (size 3 to 8) (size 9 to 14) (size 15 to 20)
#    0.000    1.103    6.897    1.655    0.000    3.310 
#    3.724    1.379    0.000    1.655    0.000    0.000 
#    0.000    0.000    0.000    0.000    0.000    0.000 
#
# Total GULP energy -323183.838586 kJ/mol
# GULP energy per Si atom -5572.135148 kJ/mol
# Density = 1.821952 g / cm^3
# Si number density = 18.261087 Si / 1000 Ang^3
#
#
#
# Elastic Constant Matrix: (Units=GPa)
#
#
# Indices 1 2 3 4 5 6 
#
# 1 116.3842 42.8137 58.3623 0.0000 0.0000 0.0000
# 2 42.8137 91.2840 38.9518 0.0000 0.0000 0.0000
# 3 58.3623 38.9518 130.4718 0.0000 0.0000 0.0000
# 4 0.0000 0.0000 0.0000 26.4845 0.0000 0.0000
# 5 0.0000 0.0000 0.0000 0.0000 -7.5577 0.0000
# 6 0.0000 0.0000 0.0000 0.0000 0.0000 22.7301
#
#
#
# Elastic Compliance Matrix: (Units=1/GPa)
#
#
# Indices 1 2 3 4 5 6 
#
# 1 0.012168 -0.003878 -0.004285 0.000000 0.000000 0.000000
# 2 -0.003878 0.013790 -0.002382 0.000000 0.000000 0.000000
# 3 -0.004285 -0.002382 0.010292 0.000000 0.000000 0.000000
# 4 0.000000 0.000000 0.000000 0.037758 0.000000 0.000000
# 5 0.000000 0.000000 0.000000 0.000000 -0.132316 0.000000
# 6 0.000000 0.000000 0.000000 0.000000 0.000000 0.043995
#
#
# Mechanical properties :
#
#
# Convention : Reuss Voigt Hill
#
# Bulk Modulus (GPa) = 65.96564 68.71063 67.33814
# Shear Modulus (GPa) = 422.59094 21.53218 222.06156
#
# Velocity S-wave (km/s) = 15.22887 3.43757 11.03937
# Velocity P-wave (km/s) = 18.58566 7.31193 14.12252
#
# Compressibility (1/GPa) = 0.01515941
#
# Stress axis : x y z
#
# Youngs Moduli (GPa) = 82.18479 72.51434 97.15905
#
# Poissons Ratio (x) = 0.28124 0.41632
# Poissons Ratio (y) = 0.31875 0.23145
# Poissons Ratio (z) = 0.35216 0.17274
#
# Static dielectric constant tensor:
#      x y z
#    x 1.662200 0.000000 0.000000 
#    y 0.000000 1.620780 0.000000 
#    z 0.000000 0.000000 1.659140 
# 
# From -- ./inp_files/41876.got.cif
#   From: 2010.05.17/outbox.cif.g08.bks.cpg/sg66_21_cif.got.tgz:41876.got - 2010.06.03 17:51:23.
