data_PCOD9497823
_publ_section_title
;
Structure prediction by ZEFSAII (Michael W. Deem and Ramdas Pophale) SiO2 
 PCOD9497823
Probable space group: C C C M
;
_chemical_formula_sum "Si O2"
_cell_formula_units_Z 64
_cell_length_a 5.075837
_cell_length_b 25.045812
_cell_length_c 27.524845
_cell_angle_alpha 90.000000
_cell_angle_beta 90.000000
_cell_angle_gamma 90.000000
_cell_volume 3499.191136
_symmetry_space_group_name_H-M "C C C M"
_symmetry_group_IT_number 66
_symmetry_cell_setting 'orthorhombic'
loop_
_space_group_symop_operation_xyz
x,y,z
-x,-y,z
x,-y,1/2-z
-x,y,1/2-z
-x,-y,-z
x,y,-z
-x,y,1/2+z
x,-y,1/2+z
1/2+x,1/2+y,z
1/2-x,1/2-y,z
1/2+x,1/2-y,1/2-z
1/2-x,1/2+y,1/2-z
1/2-x,1/2-y,-z
1/2+x,1/2+y,-z
1/2-x,1/2+y,1/2+z
1/2+x,1/2-y,1/2+z
loop_
_atom_site_type_symbol
_atom_site_label
_atom_site_fract_x
_atom_site_fract_y
_atom_site_fract_z
Si Si1 0.499506 0.788484 0.194208
Si Si2 0.753831 0.037602 0.055544
Si Si3 0.901757 0.644780 0.398281
Si Si4 0.890376 0.194672 0.557286
O O1 0.500000 0.807973 0.250000
O O2 0.250000 0.750000 0.188288
O O3 0.480677 0.835852 0.155343
O O4 0.750000 0.750000 0.186803
O O5 0.709660 0.085911 0.092505
O O6 0.500000 0.000000 0.055355
O O7 0.790539 0.059146 0.000000
O O8 0.000000 0.000000 0.066972
O O9 0.665147 0.683056 0.416639
O O10 0.166646 0.651272 0.430243
O O11 0.941001 0.196709 0.500000
O O12 0.750000 0.250000 0.572075
#
# Coordination Sequence:
#
# PCOD9497823 Si02
#       4
#    16  16  16  16
#     4  10  21  37  57  83 112 141 178 223 272 331
#     4  10  21  36  53  76 107 143 185 228 267 312
#     4  12  21  35  57  78 107 147 186 223 273 323
#     4  11  22  33  49  79 115 145 175 213 265 334
#
# _framework density 18.289943000000001
#
# number of rings (size 3 to 8) (size 9 to 14) (size 15 to 20)
#    0.000    1.250    0.000    8.250    0.000    4.000 
#    0.000    0.000    0.000    0.750    0.000    1.750 
#    0.000    0.000    0.000    0.000    0.000    0.000 
#
# Total GULP energy -178876.713912 kJ/mol
# GULP energy per Si atom -5589.897310 kJ/mol
# Density = 1.824831 g / cm^3
# Si number density = 18.289943 Si / 1000 Ang^3
#
#
#
# Elastic Constant Matrix: (Units=GPa)
#
#
# Indices 1 2 3 4 5 6 
#
# 1 125.0327 21.1750 30.9526 0.0000 0.0000 0.0000
# 2 21.1750 89.4603 59.4352 0.0000 0.0000 0.0000
# 3 30.9526 59.4352 132.6910 0.0000 0.0000 0.0000
# 4 0.0000 0.0000 0.0000 21.3583 0.0000 0.0000
# 5 0.0000 0.0000 0.0000 0.0000 27.7830 0.0000
# 6 0.0000 0.0000 0.0000 0.0000 0.0000 29.2746
#
#
#
# Elastic Compliance Matrix: (Units=1/GPa)
#
#
# Indices 1 2 3 4 5 6 
#
# 1 0.008550 -0.000995 -0.001549 0.000000 0.000000 0.000000
# 2 -0.000995 0.016030 -0.006948 0.000000 0.000000 0.000000
# 3 -0.001549 -0.006948 0.011010 0.000000 0.000000 0.000000
# 4 0.000000 0.000000 0.000000 0.046820 0.000000 0.000000
# 5 0.000000 0.000000 0.000000 0.000000 0.035993 0.000000
# 6 0.000000 0.000000 0.000000 0.000000 0.000000 0.034159
#
#
# Mechanical properties :
#
#
# Convention : Reuss Voigt Hill
#
# Bulk Modulus (GPa) = 60.21874 63.36773 61.79323
# Shear Modulus (GPa) = 28.23575 31.39126 29.81350
#
# Velocity S-wave (km/s) = 3.93337 4.14733 4.04177
# Velocity P-wave (km/s) = 7.32287 7.59311 7.45921
#
# Compressibility (1/GPa) = 0.01660613
#
# Stress axis : x y z
#
# Youngs Moduli (GPa) = 116.96195 62.38434 90.82844
#
# Poissons Ratio (x) = 0.06205 0.14068
# Poissons Ratio (y) = 0.11634 0.63108
# Poissons Ratio (z) = 0.18116 0.43345
#
# Static dielectric constant tensor:
#      x y z
#    x 1.625180 0.000000 0.000000 
#    y 0.000000 1.640930 0.000000 
#    z 0.000000 0.000000 1.642860 
# 
# From -- ./inp_files/59722.got.cif
#   From: 2010.05.17/outbox.cif.g08.bks.cpg/sg66_30_cif.got.tgz:59722.got - 2010.06.03 17:51:23.
