data_PCOD9497075
_publ_section_title
;
Structure prediction by ZEFSAII (Michael W. Deem and Ramdas Pophale) SiO2 
 PCOD9497075
Probable space group: C C C M
;
_chemical_formula_sum "Si O2"
_cell_formula_units_Z 80
_cell_length_a 9.469021
_cell_length_b 17.391701
_cell_length_c 22.226736
_cell_angle_alpha 90.000000
_cell_angle_beta 90.000000
_cell_angle_gamma 90.000000
_cell_volume 3660.351828
_symmetry_space_group_name_H-M "C C C M"
_symmetry_group_IT_number 66
_symmetry_cell_setting 'orthorhombic'
loop_
_space_group_symop_operation_xyz
x,y,z
-x,-y,z
x,-y,1/2-z
-x,y,1/2-z
-x,-y,-z
x,y,-z
-x,y,1/2+z
x,-y,1/2+z
1/2+x,1/2+y,z
1/2-x,1/2-y,z
1/2+x,1/2-y,1/2-z
1/2-x,1/2+y,1/2-z
1/2-x,1/2-y,-z
1/2+x,1/2+y,-z
1/2-x,1/2+y,1/2+z
1/2+x,1/2-y,1/2+z
loop_
_atom_site_type_symbol
_atom_site_label
_atom_site_fract_x
_atom_site_fract_y
_atom_site_fract_z
Si Si1 0.038451 0.818307 0.680357
Si Si2 0.291074 0.913895 0.726481
Si Si3 0.553026 0.842215 0.874662
Si Si4 0.166195 0.476954 0.066767
Si Si5 0.747017 0.119103 0.859054
O O1 0.844715 0.883992 0.810230
O O2 0.904986 0.848564 0.641924
O O3 0.000000 0.797811 0.750000
O O4 0.091530 0.741820 0.647810
O O5 0.422483 0.898488 0.683293
O O6 0.292044 0.868082 0.788877
O O7 0.278750 0.000000 0.750000
O O8 0.654322 0.885630 0.921440
O O9 0.387317 0.842545 0.892403
O O10 0.242032 0.531694 0.115505
O O11 0.000000 0.500000 0.069151
O O12 0.221091 0.493247 0.000000
#
# Coordination Sequence:
#
# PCOD9497075 Si02
#       5
#    16  16  16  16  16
#     4  10  22  36  54  84 127 157 187 244 317 374
#     4  11  21  35  56  86 118 156 192 237 301 374
#     4  11  20  35  59  86 115 155 200 250 299 363
#     4   9  19  36  58  86 117 154 208 264 305 352
#     4  10  20  35  58  85 116 154 197 248 304 368
#
# _framework density 21.855822
#
# number of rings (size 3 to 8) (size 9 to 14) (size 15 to 20)
#    0.000    1.800    2.000    3.000    0.000    7.600 
#    0.000    1.000    0.000    9.600    0.000    0.000 
#    0.000    0.000    0.000    0.000    0.000    0.000 
#
# Total GULP energy -222889.605493 kJ/mol
# GULP energy per Si atom -5572.240137 kJ/mol
# Density = 2.180608 g / cm^3
# Si number density = 21.855822 Si / 1000 Ang^3
#
#
#
# Elastic Constant Matrix: (Units=GPa)
#
#
# Indices 1 2 3 4 5 6 
#
# 1 101.0146 63.5954 19.5745 0.0000 0.0000 0.0000
# 2 63.5954 125.0933 18.3192 0.0000 0.0000 0.0000
# 3 19.5745 18.3192 76.4104 0.0000 0.0000 0.0000
# 4 0.0000 0.0000 0.0000 19.5472 0.0000 0.0000
# 5 0.0000 0.0000 0.0000 0.0000 13.1989 0.0000
# 6 0.0000 0.0000 0.0000 0.0000 0.0000 24.6787
#
#
#
# Elastic Compliance Matrix: (Units=1/GPa)
#
#
# Indices 1 2 3 4 5 6 
#
# 1 0.014869 -0.007256 -0.002069 0.000000 0.000000 0.000000
# 2 -0.007256 0.011826 -0.000976 0.000000 0.000000 0.000000
# 3 -0.002069 -0.000976 0.013851 0.000000 0.000000 0.000000
# 4 0.000000 0.000000 0.000000 0.051158 0.000000 0.000000
# 5 0.000000 0.000000 0.000000 0.000000 0.075764 0.000000
# 6 0.000000 0.000000 0.000000 0.000000 0.000000 0.040521
#
#
# Mechanical properties :
#
#
# Convention : Reuss Voigt Hill
#
# Bulk Modulus (GPa) = 50.14435 56.16630 53.15532
# Shear Modulus (GPa) = 21.25490 24.88689 23.07090
#
# Velocity S-wave (km/s) = 3.12188 3.37810 3.25252
# Velocity P-wave (km/s) = 5.99899 6.40076 6.20313
#
# Compressibility (1/GPa) = 0.01994243
#
# Stress axis : x y z
#
# Youngs Moduli (GPa) = 67.25557 84.56069 72.19466
#
# Poissons Ratio (x) = 0.61357 0.14940
# Poissons Ratio (y) = 0.48800 0.07049
# Poissons Ratio (z) = 0.13918 0.08257
#
# Static dielectric constant tensor:
#      x y z
#    x 1.840430 0.000000 0.000000 
#    y 0.000000 1.860660 0.000000 
#    z 0.000000 0.000000 1.834780 
# 
# From -- ./inp_files/63526.got.cif
#   From: 2010.05.17/outbox.cif.g08.bks.cpg/sg66_32_cif.got.tgz:63526.got - 2010.06.03 17:51:23.
