data_PCOD9497305
_publ_section_title
;
Structure prediction by ZEFSAII (Michael W. Deem and Ramdas Pophale) SiO2 
 PCOD9497305
Probable space group: C C C M
;
_chemical_formula_sum "Si O2"
_cell_formula_units_Z 56
_cell_length_a 13.517161
_cell_length_b 6.060775
_cell_length_c 29.934073
_cell_angle_alpha 90.000000
_cell_angle_beta 90.000000
_cell_angle_gamma 90.000000
_cell_volume 2452.333109
_symmetry_space_group_name_H-M "C C C M"
_symmetry_group_IT_number 66
_symmetry_cell_setting 'orthorhombic'
loop_
_space_group_symop_operation_xyz
x,y,z
-x,-y,z
x,-y,1/2-z
-x,y,1/2-z
-x,-y,-z
x,y,-z
-x,y,1/2+z
x,-y,1/2+z
1/2+x,1/2+y,z
1/2-x,1/2-y,z
1/2+x,1/2-y,1/2-z
1/2-x,1/2+y,1/2-z
1/2-x,1/2-y,-z
1/2+x,1/2+y,-z
1/2-x,1/2+y,1/2+z
1/2+x,1/2-y,1/2+z
loop_
_atom_site_type_symbol
_atom_site_label
_atom_site_fract_x
_atom_site_fract_y
_atom_site_fract_z
Si Si1 0.750000 0.750000 0.586569
Si Si2 0.643024 0.866710 0.950461
Si Si3 0.104301 0.111022 0.343425
Si Si4 0.000000 0.500000 0.378465
Si Si5 0.799430 0.000000 0.250000
O O1 0.827629 0.622991 0.556172
O O2 0.810223 0.912315 0.619610
O O3 0.750000 0.750000 0.946505
O O4 0.562093 0.841044 0.911788
O O5 0.604245 0.818733 0.000000
O O6 0.077543 0.370971 0.347629
O O7 0.140294 0.030314 0.295714
O O8 0.000000 0.000000 0.352613
O O9 0.750000 0.250000 0.254022
#
# Coordination Sequence:
#
# PCOD9497305 Si02
#       5
#     8  16  16   8   8
#     4  10  21  40  60  96 132 186 232 294 357 430
#     4  10  20  36  62  95 136 181 234 289 353 425
#     4  11  24  43  68  96 134 184 236 297 367 441
#     4  10  23  40  65  98 138 182 240 287 365 432
#     4  12  29  50  75 106 142 184 244 315 367 440
#
# _framework density 22.835395999999999
#
# number of rings (size 3 to 8) (size 9 to 14) (size 15 to 20)
#    0.000    1.429    1.429    3.000    4.000    1.143 
#    0.000    0.000    0.000   13.714    0.000    0.000 
#    0.000    0.000    0.000    0.000    0.000    0.000 
#
# Total GULP energy -156007.444554 kJ/mol
# GULP energy per Si atom -5571.694448 kJ/mol
# Density = 2.278342 g / cm^3
# Si number density = 22.835396 Si / 1000 Ang^3
#
#
#
# Elastic Constant Matrix: (Units=GPa)
#
#
# Indices 1 2 3 4 5 6 
#
# 1 96.3740 41.1596 38.1257 0.0000 0.0000 0.0000
# 2 41.1596 71.3974 67.3024 0.0000 0.0000 0.0000
# 3 38.1257 67.3024 110.8263 0.0000 0.0000 0.0000
# 4 0.0000 0.0000 0.0000 4.5349 0.0000 0.0000
# 5 0.0000 0.0000 0.0000 0.0000 1149.5324 0.0000
# 6 0.0000 0.0000 0.0000 0.0000 0.0000 53.3405
#
#
#
# Elastic Compliance Matrix: (Units=1/GPa)
#
#
# Indices 1 2 3 4 5 6 
#
# 1 0.013767 -0.008121 0.000196 0.000000 0.000000 0.000000
# 2 -0.008121 0.037549 -0.020009 0.000000 0.000000 0.000000
# 3 0.000196 -0.020009 0.021107 0.000000 0.000000 0.000000
# 4 0.000000 0.000000 0.000000 0.220510 0.000000 0.000000
# 5 0.000000 0.000000 0.000000 0.000000 0.000870 0.000000
# 6 0.000000 0.000000 0.000000 0.000000 0.000000 0.018747
#
#
# Mechanical properties :
#
#
# Convention : Reuss Voigt Hill
#
# Bulk Modulus (GPa) = 60.40696 63.53036 61.96866
# Shear Modulus (GPa) = 13.37119 250.28223 131.82671
#
# Velocity S-wave (km/s) = 2.42243 10.48049 7.60621
# Velocity P-wave (km/s) = 5.85960 13.20362 10.21446
#
# Compressibility (1/GPa) = 0.01655438
#
# Stress axis : x y z
#
# Youngs Moduli (GPa) = 72.63653 26.63170 47.37773
#
# Poissons Ratio (x) = 0.21627 -0.00927
# Poissons Ratio (y) = 0.58988 0.94799
# Poissons Ratio (z) = -0.01421 0.53288
#
# Static dielectric constant tensor:
#      x y z
#    x 1.863170 0.000000 0.000000 
#    y 0.000000 2.016890 0.000000 
#    z 0.000000 0.000000 1.778720 
# 
# From -- ./inp_files/69355.got.cif
#   From: 2010.05.17/outbox.cif.g08.bks.cpg/sg66_35_cif.got.tgz:69355.got - 2010.06.03 17:51:23.
