data_PCOD9497670
_publ_section_title
;
Structure prediction by ZEFSAII (Michael W. Deem and Ramdas Pophale) SiO2 
 PCOD9497670
Probable space group: C C C M
;
_chemical_formula_sum "Si O2"
_cell_formula_units_Z 112
_cell_length_a 13.892056
_cell_length_b 26.141141
_cell_length_c 15.696528
_cell_angle_alpha 90.000000
_cell_angle_beta 90.000000
_cell_angle_gamma 90.000000
_cell_volume 5700.259985
_symmetry_space_group_name_H-M "C C C M"
_symmetry_group_IT_number 66
_symmetry_cell_setting 'orthorhombic'
loop_
_space_group_symop_operation_xyz
x,y,z
-x,-y,z
x,-y,1/2-z
-x,y,1/2-z
-x,-y,-z
x,y,-z
-x,y,1/2+z
x,-y,1/2+z
1/2+x,1/2+y,z
1/2-x,1/2-y,z
1/2+x,1/2-y,1/2-z
1/2-x,1/2+y,1/2-z
1/2-x,1/2-y,-z
1/2+x,1/2+y,-z
1/2-x,1/2+y,1/2+z
1/2+x,1/2-y,1/2+z
loop_
_atom_site_type_symbol
_atom_site_label
_atom_site_fract_x
_atom_site_fract_y
_atom_site_fract_z
Si Si1 0.098472 0.477997 0.899791
Si Si2 0.699490 0.396252 0.267459
Si Si3 0.316225 0.514136 0.600384
Si Si4 0.858243 0.271785 0.401062
Si Si5 0.403299 0.662691 0.404533
Si Si6 0.406474 0.405754 0.404916
Si Si7 0.595637 0.124846 0.694891
O O1 0.204428 0.500971 0.879034
O O2 0.097316 0.417871 0.879083
O O3 0.000000 0.500000 0.859697
O O4 0.092736 0.485876 0.000000
O O5 0.666472 0.445717 0.323241
O O6 0.672550 0.352218 0.333679
O O7 0.647212 0.387794 0.179105
O O8 0.812439 0.393725 0.251195
O O9 0.317529 0.533227 0.500000
O O10 0.391216 0.467259 0.601934
O O11 0.862638 0.287964 0.500000
O O12 0.750000 0.250000 0.386344
O O13 0.927923 0.222206 0.391109
O O14 0.887256 0.318837 0.342285
O O15 0.361780 0.659481 0.500000
O O16 0.490170 0.621895 0.400867
O O17 0.367799 0.393138 0.500000
O O18 0.500000 0.122552 0.750000
#
# Coordination Sequence:
#
# PCOD9497670 Si02
#       7
#    16  16  16  16  16  16  16
#     4   9  19  36  59  84 115 159 203 248 302 360
#     4  11  21  37  59  86 122 162 204 250 305 364
#     4   9  19  35  57  86 122 159 205 255 301 358
#     4  10  20  40  67  91 117 155 203 260 314 362
#     4  10  21  38  64  91 116 152 201 258 315 363
#     4  10  22  38  56  86 124 165 203 242 300 376
#     4  11  24  37  56  92 123 155 202 255 309 359
#
# _framework density 19.648226999999999
#
# number of rings (size 3 to 8) (size 9 to 14) (size 15 to 20)
#    0.000    2.000    1.429    1.714    2.000    3.143 
#    0.000    4.286    0.000    0.000    0.000    5.000 
#    0.000    0.000    0.000    0.000    0.000    0.000 
#
# Total GULP energy -311878.269531 kJ/mol
# GULP energy per Si atom -5569.254813 kJ/mol
# Density = 1.960351 g / cm^3
# Si number density = 19.648227 Si / 1000 Ang^3
#
#
#
# Elastic Constant Matrix: (Units=GPa)
#
#
# Indices 1 2 3 4 5 6 
#
# 1 62.1657 32.1040 27.6231 0.0000 0.0000 0.0000
# 2 32.1040 87.1007 12.6367 0.0000 0.0000 0.0000
# 3 27.6231 12.6367 72.2984 0.0000 0.0000 0.0000
# 4 0.0000 0.0000 0.0000 -80.1067 0.0000 0.0000
# 5 0.0000 0.0000 0.0000 0.0000 -456.5938 0.0000
# 6 0.0000 0.0000 0.0000 0.0000 0.0000 28.9380
#
#
#
# Elastic Compliance Matrix: (Units=1/GPa)
#
#
# Indices 1 2 3 4 5 6 
#
# 1 0.023338 -0.007499 -0.007606 0.000000 0.000000 0.000000
# 2 -0.007499 0.014189 0.000385 0.000000 0.000000 0.000000
# 3 -0.007606 0.000385 0.016670 0.000000 0.000000 0.000000
# 4 0.000000 0.000000 0.000000 -0.012483 0.000000 0.000000
# 5 0.000000 0.000000 0.000000 0.000000 -0.002190 0.000000
# 6 0.000000 0.000000 0.000000 0.000000 0.000000 0.034557
#
#
# Mechanical properties :
#
#
# Convention : Reuss Voigt Hill
#
# Bulk Modulus (GPa) = 40.39109 40.69915 40.54512
# Shear Modulus (GPa) = 44.73346 -91.60575 -23.43615
#
# Velocity S-wave (km/s) = 4.77667 -6.83550 -3.45742
# Velocity P-wave (km/s) = 7.14310 6.44515 2.17760
#
# Compressibility (1/GPa) = 0.02475794
#
# Stress axis : x y z
#
# Youngs Moduli (GPa) = 42.84804 70.47718 59.98664
#
# Poissons Ratio (x) = 0.52848 0.45627
# Poissons Ratio (y) = 0.32130 -0.02309
# Poissons Ratio (z) = 0.32591 -0.02713
#
# Static dielectric constant tensor:
#      x y z
#    x 1.760860 0.000000 0.000000 
#    y 0.000000 1.741810 0.000000 
#    z 0.000000 0.000000 1.684440 
# 
# From -- ./inp_files/28869.got.cif
#   From: 2010.05.17/outbox.cif.g08.bks.cpg/sg66_15_cif.got.tgz:28869.got - 2010.06.03 17:51:23.
