data_PCOD9497217
_publ_section_title
;
Structure prediction by ZEFSAII (Michael W. Deem and Ramdas Pophale) SiO2 
 PCOD9497217
Probable space group: C C C M
;
_chemical_formula_sum "Si O2"
_cell_formula_units_Z 96
_cell_length_a 21.032112
_cell_length_b 28.212957
_cell_length_c 8.628333
_cell_angle_alpha 90.000000
_cell_angle_beta 90.000000
_cell_angle_gamma 90.000000
_cell_volume 5119.863596
_symmetry_space_group_name_H-M "C C C M"
_symmetry_group_IT_number 66
_symmetry_cell_setting 'orthorhombic'
loop_
_space_group_symop_operation_xyz
x,y,z
-x,-y,z
x,-y,1/2-z
-x,y,1/2-z
-x,-y,-z
x,y,-z
-x,y,1/2+z
x,-y,1/2+z
1/2+x,1/2+y,z
1/2-x,1/2-y,z
1/2+x,1/2-y,1/2-z
1/2-x,1/2+y,1/2-z
1/2-x,1/2-y,-z
1/2+x,1/2+y,-z
1/2-x,1/2+y,1/2+z
1/2+x,1/2-y,1/2+z
loop_
_atom_site_type_symbol
_atom_site_label
_atom_site_fract_x
_atom_site_fract_y
_atom_site_fract_z
Si Si1 0.687926 0.220869 0.186973
Si Si2 0.812334 0.610651 0.686446
Si Si3 0.568615 0.387444 0.686527
Si Si4 0.430639 0.052874 0.814390
Si Si5 0.308109 0.446826 0.186702
Si Si6 0.931195 0.222246 0.685585
O O1 0.750000 0.250000 0.238943
O O2 0.692655 0.165829 0.231284
O O3 0.624967 0.245131 0.252726
O O4 0.685349 0.223136 0.000000
O O5 0.814028 0.607372 0.500000
O O6 0.875977 0.587576 0.755149
O O7 0.751957 0.582022 0.749487
O O8 0.500000 0.402595 0.750000
O O9 0.565988 0.388146 0.500000
O O10 0.626983 0.420311 0.735918
O O11 0.579485 0.332674 0.735148
O O12 0.500000 0.066764 0.750000
O O13 0.417432 0.000000 0.750000
O O14 0.432195 0.051356 0.000000
O O15 0.306831 0.500000 0.250000
O O16 0.305489 0.447420 0.000000
O O17 0.932514 0.223578 0.500000
O O18 0.000000 0.236794 0.750000
#
# Coordination Sequence:
#
# PCOD9497217 Si02
#       6
#    16  16  16  16  16  16
#     4  10  22  39  59  84 114 148 187 233 283 334
#     4  11  23  39  59  84 114 149 189 232 281 334
#     4   9  20  37  58  84 114 149 188 231 279 333
#     4  11  22  39  62  87 116 149 187 230 279 333
#     4  11  23  39  58  83 114 148 189 234 282 334
#     4  10  20  36  59  85 114 149 188 230 278 332
#
# _framework density 18.750499000000001
#
# number of rings (size 3 to 8) (size 9 to 14) (size 15 to 20)
#    0.000    1.667    0.000    5.000    0.000    4.667 
#    0.000    1.667    0.000    0.000    0.000    0.000 
#    0.000    0.000    0.000    0.000    0.000    0.000 
#
# Total GULP energy -268332.057506 kJ/mol
# GULP energy per Si atom -5590.251198 kJ/mol
# Density = 1.870782 g / cm^3
# Si number density = 18.750499 Si / 1000 Ang^3
#
#
#
# Elastic Constant Matrix: (Units=GPa)
#
#
# Indices 1 2 3 4 5 6 
#
# 1 221.4264 162.1116 72.4306 0.0000 0.0000 0.0000
# 2 162.1116 176.3982 70.7387 0.0000 0.0000 0.0000
# 3 72.4306 70.7387 76.6714 0.0000 0.0000 0.0000
# 4 0.0000 0.0000 0.0000 13.0541 0.0000 0.0000
# 5 0.0000 0.0000 0.0000 0.0000 32.8913 0.0000
# 6 0.0000 0.0000 0.0000 0.0000 0.0000 43.3848
#
#
#
# Elastic Compliance Matrix: (Units=1/GPa)
#
#
# Indices 1 2 3 4 5 6 
#
# 1 0.014024 -0.012025 -0.002155 0.000000 0.000000 0.000000
# 2 -0.012025 0.019308 -0.006455 0.000000 0.000000 0.000000
# 3 -0.002155 -0.006455 0.021033 0.000000 0.000000 0.000000
# 4 0.000000 0.000000 0.000000 0.076604 0.000000 0.000000
# 5 0.000000 0.000000 0.000000 0.000000 0.030403 0.000000
# 6 0.000000 0.000000 0.000000 0.000000 0.000000 0.023050
#
#
# Mechanical properties :
#
#
# Convention : Reuss Voigt Hill
#
# Bulk Modulus (GPa) = 76.34606 120.56198 98.45402
# Shear Modulus (GPa) = 21.73384 29.14706 25.44045
#
# Velocity S-wave (km/s) = 3.40826 3.94695 3.68746
# Velocity P-wave (km/s) = 7.50290 9.23086 8.41137
#
# Compressibility (1/GPa) = 0.01309825
#
# Stress axis : x y z
#
# Youngs Moduli (GPa) = 71.30423 51.79186 47.54381
#
# Poissons Ratio (x) = 0.62277 0.10244
# Poissons Ratio (y) = 0.85740 0.30688
# Poissons Ratio (z) = 0.15363 0.33429
#
# Static dielectric constant tensor:
#      x y z
#    x 1.614430 0.000000 0.000000 
#    y 0.000000 1.629580 0.000000 
#    z 0.000000 0.000000 1.597260 
# 
# From -- ./inp_files/8059.got.cif
#   From: 2010.05.17/outbox.cif.g08.bks.cpg/sg66_5_cif.got.tgz:8059.got - 2010.06.03 17:51:23.
