data_PCOD9497766
_publ_section_title
;
Structure prediction by ZEFSAII (Michael W. Deem and Ramdas Pophale) SiO2 
 PCOD9497766
Probable space group: C C C M
;
_chemical_formula_sum "Si O2"
_cell_formula_units_Z 68
_cell_length_a 32.956801
_cell_length_b 5.253928
_cell_length_c 21.342268
_cell_angle_alpha 90.000000
_cell_angle_beta 90.000000
_cell_angle_gamma 90.000000
_cell_volume 3695.470465
_symmetry_space_group_name_H-M "C C C M"
_symmetry_group_IT_number 66
_symmetry_cell_setting 'orthorhombic'
loop_
_space_group_symop_operation_xyz
x,y,z
-x,-y,z
x,-y,1/2-z
-x,y,1/2-z
-x,-y,-z
x,y,-z
-x,y,1/2+z
x,-y,1/2+z
1/2+x,1/2+y,z
1/2-x,1/2-y,z
1/2+x,1/2-y,1/2-z
1/2-x,1/2+y,1/2-z
1/2-x,1/2-y,-z
1/2+x,1/2+y,-z
1/2-x,1/2+y,1/2+z
1/2+x,1/2-y,1/2+z
loop_
_atom_site_type_symbol
_atom_site_label
_atom_site_fract_x
_atom_site_fract_y
_atom_site_fract_z
Si Si1 0.223773 0.499930 0.675060
Si Si2 0.500000 0.000000 0.750000
Si Si3 0.097360 0.047154 0.930442
Si Si4 0.069900 0.178500 0.691472
Si Si5 0.364110 0.939114 0.882580
O O1 0.215958 0.500000 0.750000
O O2 0.250000 0.750000 0.660181
O O3 0.181129 0.489914 0.639757
O O4 0.250000 0.250000 0.660567
O O5 0.529123 0.825113 0.708247
O O6 0.067364 0.985655 0.872525
O O7 0.130250 0.818994 0.922727
O O8 0.117935 0.317804 0.917962
O O9 0.079620 0.037474 0.000000
O O10 0.106078 0.375995 0.676085
O O11 0.080533 0.000000 0.750000
#
# Coordination Sequence:
#
# PCOD9497766 Si02
#       5
#    16   4  16  16  16
#     4  10  21  34  55  91 132 166 209 270 320 372
#     4  12  22  44  62 106 132 154 208 264 328 382
#     4  10  22  40  64  94 126 174 221 258 310 380
#     4  10  24  38  67  97 129 165 202 266 318 382
#     4  10  22  37  66  90 126 170 216 257 320 370
#
# _framework density 18.400905000000002
#
# number of rings (size 3 to 8) (size 9 to 14) (size 15 to 20)
#    1.412    0.471    0.000    3.882    4.941    0.941 
#    0.000    0.588    0.000   18.353    0.000    0.000 
#    0.000    0.000    0.000    0.000    0.000    0.000 
#
# Total GULP energy -189489.736495 kJ/mol
# GULP energy per Si atom -5573.227544 kJ/mol
# Density = 1.835902 g / cm^3
# Si number density = 18.400905 Si / 1000 Ang^3
#
#
#
# Elastic Constant Matrix: (Units=GPa)
#
#
# Indices 1 2 3 4 5 6 
#
# 1 73.3244 23.6776 40.8486 0.0000 0.0000 0.0000
# 2 23.6776 129.8754 41.7286 0.0000 0.0000 0.0000
# 3 40.8486 41.7286 132.0480 0.0000 0.0000 0.0000
# 4 0.0000 0.0000 0.0000 2.6378 0.0000 0.0000
# 5 0.0000 0.0000 0.0000 0.0000 -30.4210 0.0000
# 6 0.0000 0.0000 0.0000 0.0000 0.0000 18.1798
#
#
#
# Elastic Compliance Matrix: (Units=1/GPa)
#
#
# Indices 1 2 3 4 5 6 
#
# 1 0.016752 -0.001546 -0.004694 0.000000 0.000000 0.000000
# 2 -0.001546 0.008712 -0.002275 0.000000 0.000000 0.000000
# 3 -0.004694 -0.002275 0.009744 0.000000 0.000000 0.000000
# 4 0.000000 0.000000 0.000000 0.379102 0.000000 0.000000
# 5 0.000000 0.000000 0.000000 0.000000 -0.032872 0.000000
# 6 0.000000 0.000000 0.000000 0.000000 0.000000 0.055006
#
#
# Mechanical properties :
#
#
# Convention : Reuss Voigt Hill
#
# Bulk Modulus (GPa) = 55.00807 60.86194 57.93500
# Shear Modulus (GPa) = 10.88061 13.34552 12.11306
#
# Velocity S-wave (km/s) = 2.43432 2.69599 2.56849
# Velocity P-wave (km/s) = 6.15308 6.54511 6.35212
#
# Compressibility (1/GPa) = 0.01817915
#
# Stress axis : x y z
#
# Youngs Moduli (GPa) = 59.69417 114.77774 102.62846
#
# Poissons Ratio (x) = 0.17745 0.48170
# Poissons Ratio (y) = 0.09229 0.23348
# Poissons Ratio (z) = 0.28018 0.26112
#
# Static dielectric constant tensor:
#      x y z
#    x 1.585960 0.000000 0.000000 
#    y 0.000000 1.653430 0.000000 
#    z 0.000000 0.000000 1.646040 
# 
# From -- ./inp_files/52834.got.cif
#   From: 2010.05.17/outbox.cif.g08.bks.cpg/sg66_27_cif.got.tgz:52834.got - 2010.06.03 17:51:23.
