data_PCOD9497707
_publ_section_title
;
Structure prediction by ZEFSAII (Michael W. Deem and Ramdas Pophale) SiO2 
 PCOD9497707
Probable space group: C C C M
;
_chemical_formula_sum "Si O2"
_cell_formula_units_Z 60
_cell_length_a 6.084963
_cell_length_b 26.487134
_cell_length_c 14.999366
_cell_angle_alpha 90.000000
_cell_angle_beta 90.000000
_cell_angle_gamma 90.000000
_cell_volume 2417.496272
_symmetry_space_group_name_H-M "C C C M"
_symmetry_group_IT_number 66
_symmetry_cell_setting 'orthorhombic'
loop_
_space_group_symop_operation_xyz
x,y,z
-x,-y,z
x,-y,1/2-z
-x,y,1/2-z
-x,-y,-z
x,y,-z
-x,y,1/2+z
x,-y,1/2+z
1/2+x,1/2+y,z
1/2-x,1/2-y,z
1/2+x,1/2-y,1/2-z
1/2-x,1/2+y,1/2-z
1/2-x,1/2-y,-z
1/2+x,1/2+y,-z
1/2-x,1/2+y,1/2+z
1/2+x,1/2-y,1/2+z
loop_
_atom_site_type_symbol
_atom_site_label
_atom_site_fract_x
_atom_site_fract_y
_atom_site_fract_z
Si Si1 0.760937 0.407973 0.842222
Si Si2 0.578568 0.295533 0.500000
Si Si3 0.000000 0.500000 0.750000
Si Si4 0.000000 0.329655 0.250000
Si Si5 0.544666 0.558400 0.000000
Si Si6 0.926804 0.615998 0.000000
Si Si7 0.750000 0.750000 0.366816
O O1 0.791448 0.369263 0.758130
O O2 0.555810 0.417851 0.908243
O O3 0.847498 0.462073 0.807505
O O4 0.931672 0.382686 0.911603
O O5 0.750000 0.250000 0.500000
O O6 0.730789 0.344044 0.500000
O O7 0.411344 0.287835 0.419245
O O8 0.921591 0.287644 0.178963
O O9 0.500000 0.500000 0.000000
O O10 0.804644 0.563139 0.000000
#
# Coordination Sequence:
#
# PCOD9497707 Si02
#       7
#    16   8   4   8   8   8   8
#     4  10  23  42  63  95 131 169 220 280 347 411
#     4  11  24  45  68  96 134 189 240 297 346 432
#     4  10  20  42  62  84 132 168 196 270 346 400
#     4  11  24  43  64  96 142 179 226 301 354 424
#     4  11  22  41  68  97 125 171 229 274 338 432
#     4  11  22  39  68  90 124 170 217 275 334 407
#     4  11  26  42  66  99 138 186 244 287 364 428
#
# _framework density 24.819068000000001
#
# number of rings (size 3 to 8) (size 9 to 14) (size 15 to 20)
#    0.000    1.333    0.000    4.800    5.600    6.400 
#    0.000   11.333    0.000    0.000    0.000    0.000 
#    0.000    0.000    0.000    0.000    0.000    0.000 
#
# Total GULP energy -167198.825179 kJ/mol
# GULP energy per Si atom -5573.294173 kJ/mol
# Density = 2.476258 g / cm^3
# Si number density = 24.819068 Si / 1000 Ang^3
#
#
#
# Elastic Constant Matrix: (Units=GPa)
#
#
# Indices 1 2 3 4 5 6 
#
# 1 70.9066 6.3151 40.7886 0.0000 0.0000 0.0000
# 2 6.3151 134.0314 35.1238 0.0000 0.0000 0.0000
# 3 40.7886 35.1238 93.4809 0.0000 0.0000 0.0000
# 4 0.0000 0.0000 0.0000 -0.4967 0.0000 0.0000
# 5 0.0000 0.0000 0.0000 0.0000 -51.1330 0.0000
# 6 0.0000 0.0000 0.0000 0.0000 0.0000 40.6331
#
#
#
# Elastic Compliance Matrix: (Units=1/GPa)
#
#
# Indices 1 2 3 4 5 6 
#
# 1 0.019070 0.001422 -0.008855 0.000000 0.000000 0.000000
# 2 0.001422 0.008382 -0.003770 0.000000 0.000000 0.000000
# 3 -0.008855 -0.003770 0.015978 0.000000 0.000000 0.000000
# 4 0.000000 0.000000 0.000000 -2.013459 0.000000 0.000000
# 5 0.000000 0.000000 0.000000 0.000000 -0.019557 0.000000
# 6 0.000000 0.000000 0.000000 0.000000 0.000000 0.024610
#
#
# Mechanical properties :
#
#
# Convention : Reuss Voigt Hill
#
# Bulk Modulus (GPa) = 47.56528 51.43044 49.49786
# Shear Modulus (GPa) = -2.58323 12.21346 4.81511
#
# Velocity S-wave (km/s) = -1.02131 2.22074 1.39438
# Velocity P-wave (km/s) = 4.22086 5.22903 4.75175
#
# Compressibility (1/GPa) = 0.02102374
#
# Stress axis : x y z
#
# Youngs Moduli (GPa) = 52.43742 119.30552 62.58745
#
# Poissons Ratio (x) = -0.16966 0.55423
# Poissons Ratio (y) = -0.07457 0.23594
# Poissons Ratio (z) = 0.46435 0.44976
#
# Static dielectric constant tensor:
#      x y z
#    x 1.941010 0.000000 0.000000 
#    y 0.000000 2.110090 0.000000 
#    z 0.000000 0.000000 2.287500 
# 
# From -- ./inp_files/34924.got.cif
#   From: 2010.05.17/outbox.cif.g08.bks.cpg/sg66_18_cif.got.tgz:34924.got - 2010.06.03 17:51:23.
