data_PCOD9497228
_publ_section_title
;
Structure prediction by ZEFSAII (Michael W. Deem and Ramdas Pophale) SiO2 
 PCOD9497228
Probable space group: C C C M
;
_chemical_formula_sum "Si O2"
_cell_formula_units_Z 116
_cell_length_a 27.367650
_cell_length_b 24.674608
_cell_length_c 8.872747
_cell_angle_alpha 90.000000
_cell_angle_beta 90.000000
_cell_angle_gamma 90.000000
_cell_volume 5991.642147
_symmetry_space_group_name_H-M "C C C M"
_symmetry_group_IT_number 66
_symmetry_cell_setting 'orthorhombic'
loop_
_space_group_symop_operation_xyz
x,y,z
-x,-y,z
x,-y,1/2-z
-x,y,1/2-z
-x,-y,-z
x,y,-z
-x,y,1/2+z
x,-y,1/2+z
1/2+x,1/2+y,z
1/2-x,1/2-y,z
1/2+x,1/2-y,1/2-z
1/2-x,1/2+y,1/2-z
1/2-x,1/2-y,-z
1/2+x,1/2+y,-z
1/2-x,1/2+y,1/2+z
1/2+x,1/2-y,1/2+z
loop_
_atom_site_type_symbol
_atom_site_label
_atom_site_fract_x
_atom_site_fract_y
_atom_site_fract_z
Si Si1 0.500000 0.500000 0.250000
Si Si2 0.694143 0.744744 0.324571
Si Si3 0.182322 0.059040 0.323668
Si Si4 0.428987 0.407211 0.677912
Si Si5 0.222138 0.559698 0.677773
Si Si6 0.401151 0.698715 0.675882
Si Si7 0.645610 0.136102 0.173334
Si Si8 0.447300 0.818353 0.323538
O O1 0.541721 0.547814 0.226058
O O2 0.696559 0.726413 0.500000
O O3 0.750000 0.750000 0.267188
O O4 0.653930 0.707794 0.240172
O O5 0.671868 0.805219 0.320879
O O6 0.193719 0.054858 0.500000
O O7 0.129002 0.083784 0.307781
O O8 0.228140 0.086593 0.242621
O O9 0.178677 0.000000 0.250000
O O10 0.442673 0.414574 0.500000
O O11 0.433029 0.345956 0.735510
O O12 0.218372 0.500000 0.750000
O O13 0.225895 0.554950 0.500000
O O14 0.176552 0.595065 0.727495
O O15 0.398387 0.683298 0.500000
O O16 0.427592 0.756676 0.689356
O O17 0.591737 0.144801 0.237299
O O18 0.645220 0.118174 0.000000
O O19 0.500000 0.822407 0.250000
O O20 0.448670 0.831870 0.500000
#
# Coordination Sequence:
#
# PCOD9497228 Si02
#       8
#     4  16  16  16  16  16  16  16
#     4  12  26  48  64  90 110 156 212 282 330 380
#     4   9  19  36  58  86 120 158 197 240 299 367
#     4  10  20  37  57  80 109 147 192 242 295 358
#     4  11  25  42  62  83 112 151 199 256 318 376
#     4  11  22  37  59  89 123 160 200 244 291 351
#     4  10  23  39  58  86 118 153 199 249 301 364
#     4  10  20  36  59  88 122 159 198 243 296 357
#     4  10  21  39  61  88 119 155 198 246 296 354
#
# _framework density 19.360302000000001
#
# number of rings (size 3 to 8) (size 9 to 14) (size 15 to 20)
#    0.000    1.793    0.690    3.931    2.897    4.690 
#    0.000    0.000    0.000    0.414    0.000    2.897 
#    0.000    0.000    0.000    0.000    0.000    0.000 
#
# Total GULP energy -323414.609894 kJ/mol
# GULP energy per Si atom -5576.113964 kJ/mol
# Density = 1.931624 g / cm^3
# Si number density = 19.360302 Si / 1000 Ang^3
#
#
#
# Elastic Constant Matrix: (Units=GPa)
#
#
# Indices 1 2 3 4 5 6 
#
# 1 130.8632 14.9637 45.2510 0.0000 0.0000 0.0000
# 2 14.9637 36.9407 14.1219 0.0000 0.0000 0.0000
# 3 45.2510 14.1219 74.5274 0.0000 0.0000 0.0000
# 4 0.0000 0.0000 0.0000 -8.8726 0.0000 0.0000
# 5 0.0000 0.0000 0.0000 0.0000 80.6769 0.0000
# 6 0.0000 0.0000 0.0000 0.0000 0.0000 6.2751
#
#
#
# Elastic Compliance Matrix: (Units=1/GPa)
#
#
# Indices 1 2 3 4 5 6 
#
# 1 0.009785 -0.001825 -0.005595 0.000000 0.000000 0.000000
# 2 -0.001825 0.029525 -0.004487 0.000000 0.000000 0.000000
# 3 -0.005595 -0.004487 0.017665 0.000000 0.000000 0.000000
# 4 0.000000 0.000000 0.000000 -0.112706 0.000000 0.000000
# 5 0.000000 0.000000 0.000000 0.000000 0.012395 0.000000
# 6 0.000000 0.000000 0.000000 0.000000 0.000000 0.159360
#
#
# Mechanical properties :
#
#
# Convention : Reuss Voigt Hill
#
# Bulk Modulus (GPa) = 30.15524 43.44496 36.80010
# Shear Modulus (GPa) = 33.13627 26.81551 29.97589
#
# Velocity S-wave (km/s) = 4.14159 3.72570 3.93913
# Velocity P-wave (km/s) = 6.20322 6.40287 6.30383
#
# Compressibility (1/GPa) = 0.03316174
#
# Stress axis : x y z
#
# Youngs Moduli (GPa) = 102.19661 33.86991 56.60761
#
# Poissons Ratio (x) = 0.06180 0.31675
# Poissons Ratio (y) = 0.18647 0.25398
# Poissons Ratio (z) = 0.57184 0.15196
#
# Static dielectric constant tensor:
#      x y z
#    x 1.679310 0.000000 0.000000 
#    y 0.000000 1.677670 0.000000 
#    z 0.000000 0.000000 1.682920 
# 
# From -- ./inp_files/10592.got.cif
#   From: 2010.05.17/outbox.cif.g08.bks.cpg/sg66_6_cif.got.tgz:10592.got - 2010.06.03 17:51:23.
