data_PCOD9497236
_publ_section_title
;
Structure prediction by ZEFSAII (Michael W. Deem and Ramdas Pophale) SiO2 
 PCOD9497236
Probable space group: C C C M
;
_chemical_formula_sum "Si O2"
_cell_formula_units_Z 68
_cell_length_a 22.968519
_cell_length_b 15.906663
_cell_length_c 9.165347
_cell_angle_alpha 90.000000
_cell_angle_beta 90.000000
_cell_angle_gamma 90.000000
_cell_volume 3348.582360
_symmetry_space_group_name_H-M "C C C M"
_symmetry_group_IT_number 66
_symmetry_cell_setting 'orthorhombic'
loop_
_space_group_symop_operation_xyz
x,y,z
-x,-y,z
x,-y,1/2-z
-x,y,1/2-z
-x,-y,-z
x,y,-z
-x,y,1/2+z
x,-y,1/2+z
1/2+x,1/2+y,z
1/2-x,1/2-y,z
1/2+x,1/2-y,1/2-z
1/2-x,1/2+y,1/2-z
1/2-x,1/2-y,-z
1/2+x,1/2+y,-z
1/2-x,1/2+y,1/2+z
1/2+x,1/2-y,1/2+z
loop_
_atom_site_type_symbol
_atom_site_label
_atom_site_fract_x
_atom_site_fract_y
_atom_site_fract_z
Si Si1 0.324104 0.591897 0.323908
Si Si2 0.789293 0.409983 0.828214
Si Si3 0.080040 0.348709 0.338330
Si Si4 0.000000 0.500000 0.250000
Si Si5 0.056798 0.185175 0.828395
O O1 0.328536 0.500000 0.250000
O O2 0.319208 0.586341 0.500000
O O3 0.265439 0.631099 0.254611
O O4 0.382386 0.642308 0.285809
O O5 0.796882 0.500000 0.750000
O O6 0.851462 0.365449 0.818336
O O7 0.775688 0.420397 0.000000
O O8 0.070671 0.311644 0.500000
O O9 0.061026 0.282709 0.217071
O O10 0.043681 0.435330 0.330303
O O11 0.000000 0.148592 0.750000
O O12 0.050139 0.176450 0.000000
#
# Coordination Sequence:
#
# PCOD9497236 Si02
#       5
#    16  16  16   4  16
#     4  10  22  41  64  91 119 157 201 250 305 364
#     4  10  20  36  59  90 122 159 204 252 297 355
#     4  11  24  39  61  92 126 164 205 245 297 356
#     4  12  22  40  64  94 128 164 204 236 294 352
#     4  11  25  42  62  89 123 157 201 252 305 362
#
# _framework density 20.307099999999998
#
# number of rings (size 3 to 8) (size 9 to 14) (size 15 to 20)
#    0.000    1.412    2.353    3.882    0.000    8.000 
#    0.000    7.059    0.000    0.000    0.000    0.000 
#    0.000    0.000    0.000    0.000    0.000    0.000 
#
# Total GULP energy -189834.438986 kJ/mol
# GULP energy per Si atom -5583.365853 kJ/mol
# Density = 2.026088 g / cm^3
# Si number density = 20.307100 Si / 1000 Ang^3
#
#
#
# Elastic Constant Matrix: (Units=GPa)
#
#
# Indices 1 2 3 4 5 6 
#
# 1 171.9370 27.5020 50.3742 0.0000 0.0000 0.0000
# 2 27.5020 36.1979 6.0916 0.0000 0.0000 0.0000
# 3 50.3742 6.0916 84.3380 0.0000 0.0000 0.0000
# 4 0.0000 0.0000 0.0000 8.7646 0.0000 0.0000
# 5 0.0000 0.0000 0.0000 0.0000 34.8430 0.0000
# 6 0.0000 0.0000 0.0000 0.0000 0.0000 29.5721
#
#
#
# Elastic Compliance Matrix: (Units=1/GPa)
#
#
# Indices 1 2 3 4 5 6 
#
# 1 0.007941 -0.005300 -0.004360 0.000000 0.000000 0.000000
# 2 -0.005300 0.031503 0.000890 0.000000 0.000000 0.000000
# 3 -0.004360 0.000890 0.014397 0.000000 0.000000 0.000000
# 4 0.000000 0.000000 0.000000 0.114095 0.000000 0.000000
# 5 0.000000 0.000000 0.000000 0.000000 0.028700 0.000000
# 6 0.000000 0.000000 0.000000 0.000000 0.000000 0.033816
#
#
# Mechanical properties :
#
#
# Convention : Reuss Voigt Hill
#
# Bulk Modulus (GPa) = 27.54749 51.15651 39.35200
# Shear Modulus (GPa) = 19.22393 28.53627 23.88010
#
# Velocity S-wave (km/s) = 3.08012 3.75271 3.43293
# Velocity P-wave (km/s) = 5.12293 6.63500 5.92738
#
# Compressibility (1/GPa) = 0.03630095
#
# Stress axis : x y z
#
# Youngs Moduli (GPa) = 125.92334 31.74333 69.45778
#
# Poissons Ratio (x) = 0.16823 0.30287
# Poissons Ratio (y) = 0.66736 -0.06182
# Poissons Ratio (z) = 0.54909 -0.02825
#
# Static dielectric constant tensor:
#      x y z
#    x 1.767600 0.000000 0.000000 
#    y 0.000000 1.704160 0.000000 
#    z 0.000000 0.000000 1.699480 
# 
# From -- ./inp_files/6281.got.cif
#   From: 2010.05.17/outbox.cif.g08.bks.cpg/sg66_4_cif.got.tgz:6281.got - 2010.06.03 17:51:23.
