data_PCOD9497687
_publ_section_title
;
Structure prediction by ZEFSAII (Michael W. Deem and Ramdas Pophale) SiO2 
 PCOD9497687
Probable space group: C C C M
;
_chemical_formula_sum "Si O2"
_cell_formula_units_Z 88
_cell_length_a 6.095632
_cell_length_b 25.301210
_cell_length_c 28.063741
_cell_angle_alpha 90.000000
_cell_angle_beta 90.000000
_cell_angle_gamma 90.000000
_cell_volume 4328.182803
_symmetry_space_group_name_H-M "C C C M"
_symmetry_group_IT_number 66
_symmetry_cell_setting 'orthorhombic'
loop_
_space_group_symop_operation_xyz
x,y,z
-x,-y,z
x,-y,1/2-z
-x,y,1/2-z
-x,-y,-z
x,y,-z
-x,y,1/2+z
x,-y,1/2+z
1/2+x,1/2+y,z
1/2-x,1/2-y,z
1/2+x,1/2-y,1/2-z
1/2-x,1/2+y,1/2-z
1/2-x,1/2-y,-z
1/2+x,1/2+y,-z
1/2-x,1/2+y,1/2+z
1/2+x,1/2-y,1/2+z
loop_
_atom_site_type_symbol
_atom_site_label
_atom_site_fract_x
_atom_site_fract_y
_atom_site_fract_z
Si Si1 0.500000 0.000000 0.750000
Si Si2 0.011603 0.583030 0.912441
Si Si3 0.749579 0.807759 0.393461
Si Si4 0.428931 0.795291 0.695629
Si Si5 0.000000 0.500000 0.500000
Si Si6 0.687545 0.544321 0.671999
Si Si7 0.630865 0.628850 0.852841
O O1 0.656559 0.966536 0.716029
O O2 0.123037 0.641972 0.917198
O O3 0.163548 0.551916 0.874573
O O4 0.999366 0.546858 0.958572
O O5 0.772744 0.593283 0.889042
O O6 0.750000 0.750000 0.418067
O O7 0.622015 0.797165 0.343328
O O8 0.996268 0.827244 0.382448
O O9 0.500000 0.789851 0.750000
O O10 0.250000 0.750000 0.685349
O O11 0.300266 0.848922 0.685111
O O12 0.500000 0.500000 0.667692
O O13 0.554096 0.598061 0.675594
#
# Coordination Sequence:
#
# PCOD9497687 Si02
#       7
#     4  16  16  16   4  16  16
#     4  12  24  40  60  84 124 180 220 276 320 372
#     4  10  24  42  70  98 126 168 214 275 351 403
#     4  10  20  41  64  90 131 181 216 266 330 394
#     4  11  22  36  57  94 133 176 230 274 315 373
#     4  12  22  48  76 100 130 152 212 290 350 430
#     4  11  23  45  61  88 128 171 227 270 329 401
#     4  10  22  43  61  90 130 175 218 270 327 393
#
# _framework density 20.331856999999999
#
# number of rings (size 3 to 8) (size 9 to 14) (size 15 to 20)
#    0.000    1.455    1.818    3.545    0.000    0.000 
#   39.273   11.818    0.000    1.091    0.000    0.000 
#    0.000    0.000    0.000    0.000    0.000    0.000 
#
# Total GULP energy -245131.248138 kJ/mol
# GULP energy per Si atom -5571.164730 kJ/mol
# Density = 2.028558 g / cm^3
# Si number density = 20.331857 Si / 1000 Ang^3
#
#
#
# Elastic Constant Matrix: (Units=GPa)
#
#
# Indices 1 2 3 4 5 6 
#
# 1 118.1275 45.7686 53.2275 0.0000 0.0000 0.0000
# 2 45.7686 136.2323 64.5543 0.0000 0.0000 0.0000
# 3 53.2275 64.5543 112.7564 0.0000 0.0000 0.0000
# 4 0.0000 0.0000 0.0000 95.6962 0.0000 0.0000
# 5 0.0000 0.0000 0.0000 0.0000 -6.8807 0.0000
# 6 0.0000 0.0000 0.0000 0.0000 0.0000 39.2302
#
#
#
# Elastic Compliance Matrix: (Units=1/GPa)
#
#
# Indices 1 2 3 4 5 6 
#
# 1 0.011032 -0.001700 -0.004235 0.000000 0.000000 0.000000
# 2 -0.001700 0.010335 -0.005115 0.000000 0.000000 0.000000
# 3 -0.004235 -0.005115 0.013796 0.000000 0.000000 0.000000
# 4 0.000000 0.000000 0.000000 0.010450 0.000000 0.000000
# 5 0.000000 0.000000 0.000000 0.000000 -0.145333 0.000000
# 6 0.000000 0.000000 0.000000 0.000000 0.000000 0.025491
#
#
# Mechanical properties :
#
#
# Convention : Reuss Voigt Hill
#
# Bulk Modulus (GPa) = 76.54010 77.13522 76.83766
# Shear Modulus (GPa) = -104.65284 39.18018 -32.73633
#
# Velocity S-wave (km/s) = -7.18221 4.39456 -4.01696
# Velocity P-wave (km/s) = 5.57240 7.98561 4.04465
#
# Compressibility (1/GPa) = 0.01306505
#
# Stress axis : x y z
#
# Youngs Moduli (GPa) = 90.64448 96.75872 72.48575
#
# Poissons Ratio (x) = 0.16446 0.30695
# Poissons Ratio (y) = 0.15407 0.37073
# Poissons Ratio (z) = 0.38385 0.49488
#
# Static dielectric constant tensor:
#      x y z
#    x 1.764810 0.000000 0.000000 
#    y 0.000000 1.832280 0.000000 
#    z 0.000000 0.000000 1.655060 
# 
# From -- ./inp_files/67411.got.cif
#   From: 2010.05.17/outbox.cif.g08.bks.cpg/sg66_34_cif.got.tgz:67411.got - 2010.06.03 17:51:23.
