data_PCOD9497835
_publ_section_title
;
Structure prediction by ZEFSAII (Michael W. Deem and Ramdas Pophale) SiO2 
 PCOD9497835
Probable space group: C C C M
;
_chemical_formula_sum "Si O2"
_cell_formula_units_Z 116
_cell_length_a 28.400664
_cell_length_b 26.976817
_cell_length_c 8.801080
_cell_angle_alpha 90.000000
_cell_angle_beta 90.000000
_cell_angle_gamma 90.000000
_cell_volume 6743.031188
_symmetry_space_group_name_H-M "C C C M"
_symmetry_group_IT_number 66
_symmetry_cell_setting 'orthorhombic'
loop_
_space_group_symop_operation_xyz
x,y,z
-x,-y,z
x,-y,1/2-z
-x,y,1/2-z
-x,-y,-z
x,y,-z
-x,y,1/2+z
x,-y,1/2+z
1/2+x,1/2+y,z
1/2-x,1/2-y,z
1/2+x,1/2-y,1/2-z
1/2-x,1/2+y,1/2-z
1/2-x,1/2-y,-z
1/2+x,1/2+y,-z
1/2-x,1/2+y,1/2+z
1/2+x,1/2-y,1/2+z
loop_
_atom_site_type_symbol
_atom_site_label
_atom_site_fract_x
_atom_site_fract_y
_atom_site_fract_z
Si Si1 0.080741 0.079117 0.184393
Si Si2 0.284604 0.948772 0.179195
Si Si3 0.500000 0.500000 0.750000
Si Si4 0.709047 0.689325 0.174661
Si Si5 0.134016 0.259918 0.320629
Si Si6 0.187794 0.654832 0.318916
Si Si7 0.813727 0.073447 0.324973
Si Si8 0.948095 0.814756 0.316773
O O1 0.133436 0.061274 0.224329
O O2 0.072137 0.134182 0.247720
O O3 0.077119 0.079483 0.000000
O O4 0.041113 0.043046 0.248996
O O5 0.308647 0.899528 0.246815
O O6 0.229255 0.944756 0.223681
O O7 0.302674 0.000000 0.250000
O O8 0.289750 0.949384 0.000000
O O9 0.676711 0.722922 0.278588
O O10 0.763405 0.683557 0.221916
O O11 0.689559 0.633284 0.174681
O O12 0.706777 0.707909 0.000000
O O13 0.133113 0.268754 0.500000
O O14 0.145163 0.311163 0.236336
O O15 0.086752 0.230454 0.276605
O O16 0.188293 0.649630 0.500000
O O17 0.806050 0.057074 0.500000
O O18 0.949744 0.819168 0.500000
O O19 0.000000 0.807365 0.250000
#
# Coordination Sequence:
#
# PCOD9497835 Si02
#       8
#    16  16   4  16  16  16  16  16
#     4  11  23  40  57  74 101 134 177 234 293 342
#     4  11  22  37  56  79 109 145 182 223 266 315
#     4  12  26  36  56  86  98 132 182 248 300 340
#     4   9  17  31  51  75 104 139 175 213 262 326
#     4  11  22  34  52  81 109 138 176 223 275 328
#     4  10  21  36  54  79 110 144 181 218 263 326
#     4   9  19  35  53  74 101 138 180 224 276 334
#     4  11  24  40  59  80 105 138 182 229 281 339
#
# _framework density 17.202945
#
# number of rings (size 3 to 8) (size 9 to 14) (size 15 to 20)
#    0.000    1.655    2.069    3.931    0.966    7.172 
#    0.000    0.000    0.000    0.000    0.000    0.000 
#    0.000    0.552    0.000    5.793    0.000    3.172 
#
# Total GULP energy -323491.619003 kJ/mol
# GULP energy per Si atom -5577.441707 kJ/mol
# Density = 1.716379 g / cm^3
# Si number density = 17.202945 Si / 1000 Ang^3
#
#
#
# Elastic Constant Matrix: (Units=GPa)
#
#
# Indices 1 2 3 4 5 6 
#
# 1 64.0629 52.5400 29.2420 0.0000 0.0000 0.0000
# 2 52.5400 109.3632 50.8526 0.0000 0.0000 0.0000
# 3 29.2420 50.8526 69.4614 0.0000 0.0000 0.0000
# 4 0.0000 0.0000 0.0000 14.1416 0.0000 0.0000
# 5 0.0000 0.0000 0.0000 0.0000 76.5378 0.0000
# 6 0.0000 0.0000 0.0000 0.0000 0.0000 2.8589
#
#
#
# Elastic Compliance Matrix: (Units=1/GPa)
#
#
# Indices 1 2 3 4 5 6 
#
# 1 0.026098 -0.011264 -0.002741 0.000000 0.000000 0.000000
# 2 -0.011264 0.018724 -0.008966 0.000000 0.000000 0.000000
# 3 -0.002741 -0.008966 0.022115 0.000000 0.000000 0.000000
# 4 0.000000 0.000000 0.000000 0.070713 0.000000 0.000000
# 5 0.000000 0.000000 0.000000 0.000000 0.013065 0.000000
# 6 0.000000 0.000000 0.000000 0.000000 0.000000 0.349786
#
#
# Mechanical properties :
#
#
# Convention : Reuss Voigt Hill
#
# Bulk Modulus (GPa) = 47.62878 56.46186 52.04532
# Shear Modulus (GPa) = 9.03437 26.05786 17.54612
#
# Velocity S-wave (km/s) = 2.29413 3.89618 3.19713
# Velocity P-wave (km/s) = 5.89609 7.28921 6.62935
#
# Compressibility (1/GPa) = 0.02099571
#
# Stress axis : x y z
#
# Youngs Moduli (GPa) = 38.31648 53.40656 45.21919
#
# Poissons Ratio (x) = 0.60155 0.12394
# Poissons Ratio (y) = 0.43158 0.40545
# Poissons Ratio (z) = 0.10502 0.47886
#
# Static dielectric constant tensor:
#      x y z
#    x 1.573360 0.000000 0.000000 
#    y 0.000000 1.596340 0.000000 
#    z 0.000000 0.000000 1.592630 
# 
# From -- ./inp_files/11810.got.cif
#   From: 2010.05.17/outbox.cif.g08.bks.cpg/sg66_6_cif.got.tgz:11810.got - 2010.06.03 17:51:23.
