data_PCOD9497968
_publ_section_title
;
Structure prediction by ZEFSAII (Michael W. Deem and Ramdas Pophale) SiO2 
 PCOD9497968
Probable space group: C C C M
;
_chemical_formula_sum "Si O2"
_cell_formula_units_Z 64
_cell_length_a 12.799951
_cell_length_b 13.070362
_cell_length_c 19.564393
_cell_angle_alpha 90.000000
_cell_angle_beta 90.000000
_cell_angle_gamma 90.000000
_cell_volume 3273.122815
_symmetry_space_group_name_H-M "C C C M"
_symmetry_group_IT_number 66
_symmetry_cell_setting 'orthorhombic'
loop_
_space_group_symop_operation_xyz
x,y,z
-x,-y,z
x,-y,1/2-z
-x,y,1/2-z
-x,-y,-z
x,y,-z
-x,y,1/2+z
x,-y,1/2+z
1/2+x,1/2+y,z
1/2-x,1/2-y,z
1/2+x,1/2-y,1/2-z
1/2-x,1/2+y,1/2-z
1/2-x,1/2-y,-z
1/2+x,1/2+y,-z
1/2-x,1/2+y,1/2+z
1/2+x,1/2-y,1/2+z
loop_
_atom_site_type_symbol
_atom_site_label
_atom_site_fract_x
_atom_site_fract_y
_atom_site_fract_z
Si Si1 0.331310 0.623119 0.258973
Si Si2 0.368468 0.206064 0.575828
Si Si3 0.605559 0.114691 0.220701
Si Si4 0.004820 0.122538 0.636949
O O1 0.325690 0.500000 0.250000
O O2 0.212451 0.658149 0.251050
O O3 0.392863 0.646107 0.328729
O O4 0.407741 0.645654 0.195451
O O5 0.374743 0.159430 0.500000
O O6 0.250000 0.250000 0.583544
O O7 0.389324 0.129404 0.639084
O O8 0.452454 0.299109 0.580733
O O9 0.500000 0.162706 0.250000
O O10 0.603689 0.000000 0.250000
O O11 0.000000 0.000000 0.620771
#
# Coordination Sequence:
#
# PCOD9497968 Si02
#       4
#    16  16  16  16
#     4   8  15  30  54  85 114 143 198 257 297 336
#     4  11  23  37  57  89 127 161 199 255 321 382
#     4  10  21  37  59  86 114 159 212 254 304 365
#     4   9  17  32  57  86 119 157 193 253 309 354
#
# _framework density 19.553193
#
# number of rings (size 3 to 8) (size 9 to 14) (size 15 to 20)
#    0.000    2.500    2.500    1.500    3.500    0.500 
#    0.000    2.500    0.000    3.000    0.000    0.000 
#    0.000    0.000    0.000    0.000    0.000    0.000 
#
# Total GULP energy -178147.293376 kJ/mol
# GULP energy per Si atom -5567.102918 kJ/mol
# Density = 1.950869 g / cm^3
# Si number density = 19.553193 Si / 1000 Ang^3
#
#
#
# Elastic Constant Matrix: (Units=GPa)
#
#
# Indices 1 2 3 4 5 6 
#
# 1 156.4332 23.6921 48.8880 0.0000 0.0000 0.0000
# 2 23.6921 95.6940 39.8447 0.0000 0.0000 0.0000
# 3 48.8880 39.8447 140.3618 0.0000 0.0000 0.0000
# 4 0.0000 0.0000 0.0000 19.3439 0.0000 0.0000
# 5 0.0000 0.0000 0.0000 0.0000 35.6282 0.0000
# 6 0.0000 0.0000 0.0000 0.0000 0.0000 -2.9928
#
#
#
# Elastic Compliance Matrix: (Units=1/GPa)
#
#
# Indices 1 2 3 4 5 6 
#
# 1 0.007233 -0.000841 -0.002280 0.000000 0.000000 0.000000
# 2 -0.000841 0.011949 -0.003099 0.000000 0.000000 0.000000
# 3 -0.002280 -0.003099 0.008798 0.000000 0.000000 0.000000
# 4 0.000000 0.000000 0.000000 0.051696 0.000000 0.000000
# 5 0.000000 0.000000 0.000000 0.000000 0.028068 0.000000
# 6 0.000000 0.000000 0.000000 0.000000 0.000000 -0.334139
#
#
# Mechanical properties :
#
#
# Convention : Reuss Voigt Hill
#
# Bulk Modulus (GPa) = 64.35535 68.59319 66.47427
# Shear Modulus (GPa) = -23.94910 29.06682 2.55886
#
# Velocity S-wave (km/s) = -3.50354 3.85976 1.14521
# Velocity P-wave (km/s) = 4.07652 7.41756 5.98491
#
# Compressibility (1/GPa) = 0.01553872
#
# Stress axis : x y z
#
# Youngs Moduli (GPa) = 138.26404 83.69226 113.65759
#
# Poissons Ratio (x) = 0.07040 0.25917
# Poissons Ratio (y) = 0.11631 0.35221
# Poissons Ratio (z) = 0.31528 0.25935
#
# Static dielectric constant tensor:
#      x y z
#    x 1.714960 0.000000 0.000000 
#    y 0.000000 -23.234380 0.000000 
#    z 0.000000 0.000000 1.703300 
# 
# From -- ./inp_files/38004.got.cif
#   From: 2010.05.17/outbox.cif.g08.bks.cpg/sg66_20_cif.got.tgz:38004.got - 2010.06.03 17:51:23.
