data_PCOD9497178
_publ_section_title
;
Structure prediction by ZEFSAII (Michael W. Deem and Ramdas Pophale) SiO2 
 PCOD9497178
Probable space group: C C C M
;
_chemical_formula_sum "Si O2"
_cell_formula_units_Z 80
_cell_length_a 19.484980
_cell_length_b 26.484851
_cell_length_c 8.667164
_cell_angle_alpha 90.000000
_cell_angle_beta 90.000000
_cell_angle_gamma 90.000000
_cell_volume 4472.748850
_symmetry_space_group_name_H-M "C C C M"
_symmetry_group_IT_number 66
_symmetry_cell_setting 'orthorhombic'
loop_
_space_group_symop_operation_xyz
x,y,z
-x,-y,z
x,-y,1/2-z
-x,y,1/2-z
-x,-y,-z
x,y,-z
-x,y,1/2+z
x,-y,1/2+z
1/2+x,1/2+y,z
1/2-x,1/2-y,z
1/2+x,1/2-y,1/2-z
1/2-x,1/2+y,1/2-z
1/2-x,1/2-y,-z
1/2+x,1/2+y,-z
1/2-x,1/2+y,1/2+z
1/2+x,1/2-y,1/2+z
loop_
_atom_site_type_symbol
_atom_site_label
_atom_site_fract_x
_atom_site_fract_y
_atom_site_fract_z
Si Si1 0.076723 0.945766 0.684916
Si Si2 0.673826 0.140777 0.682855
Si Si3 0.328046 0.642249 0.186356
Si Si4 0.923466 0.554395 0.684488
Si Si5 0.333223 0.753906 0.822031
O O1 0.075052 0.947212 0.500000
O O2 0.125215 0.901503 0.745328
O O3 0.000000 0.938027 0.750000
O O4 0.100503 0.000000 0.750000
O O5 0.675650 0.133908 0.500000
O O6 0.750706 0.136869 0.750920
O O7 0.626130 0.098698 0.759488
O O8 0.647840 0.197273 0.723817
O O9 0.355776 0.698220 0.230170
O O10 0.326388 0.640386 0.000000
O O11 0.900309 0.500000 0.750000
O O12 0.925947 0.552241 0.500000
O O13 0.000000 0.562950 0.750000
O O14 0.250000 0.750000 0.820518
O O15 0.353930 0.762148 0.000000
#
# Coordination Sequence:
#
# PCOD9497178 Si02
#       5
#    16  16  16  16  16
#     4  11  22  38  58  80 108 143 181 221 270 324
#     4  11  21  34  55  84 113 143 181 222 266 317
#     4  10  20  36  57  82 111 143 181 224 269 317
#     4  11  22  39  59  80 108 142 180 221 270 323
#     4   8  16  32  53  77 108 144 178 217 267 318
#
# _framework density 17.886092999999999
#
# number of rings (size 3 to 8) (size 9 to 14) (size 15 to 20)
#    0.000    1.800    0.000    8.400    0.000    5.200 
#    0.000    5.000    0.000    4.800    0.000    0.000 
#    0.000    0.000    0.000    0.000    0.000    0.000 
#
# Total GULP energy -223336.173101 kJ/mol
# GULP energy per Si atom -5583.404328 kJ/mol
# Density = 1.784538 g / cm^3
# Si number density = 17.886093 Si / 1000 Ang^3
#
#
#
# Elastic Constant Matrix: (Units=GPa)
#
#
# Indices 1 2 3 4 5 6 
#
# 1 50.4310 79.0336 44.1367 0.0000 0.0000 0.0000
# 2 79.0336 189.8237 88.6195 0.0000 0.0000 0.0000
# 3 44.1367 88.6195 164.5610 0.0000 0.0000 0.0000
# 4 0.0000 0.0000 0.0000 38.2743 0.0000 0.0000
# 5 0.0000 0.0000 0.0000 0.0000 33.3196 0.0000
# 6 0.0000 0.0000 0.0000 0.0000 0.0000 743.9298
#
#
#
# Elastic Compliance Matrix: (Units=1/GPa)
#
#
# Indices 1 2 3 4 5 6 
#
# 1 0.058481 -0.022744 -0.003437 0.000000 0.000000 0.000000
# 2 -0.022744 0.015883 -0.002453 0.000000 0.000000 0.000000
# 3 -0.003437 -0.002453 0.008320 0.000000 0.000000 0.000000
# 4 0.000000 0.000000 0.000000 0.026127 0.000000 0.000000
# 5 0.000000 0.000000 0.000000 0.000000 0.030012 0.000000
# 6 0.000000 0.000000 0.000000 0.000000 0.000000 0.001344
#
#
# Mechanical properties :
#
#
# Convention : Reuss Voigt Hill
#
# Bulk Modulus (GPa) = 39.34676 92.04390 65.69533
# Shear Modulus (GPa) = 24.28288 175.97314 100.12801
#
# Velocity S-wave (km/s) = 3.68861 9.92971 7.49016
# Velocity P-wave (km/s) = 6.33936 13.52916 10.56470
#
# Compressibility (1/GPa) = 0.02541505
#
# Stress axis : x y z
#
# Youngs Moduli (GPa) = 17.09969 62.96116 120.19815
#
# Poissons Ratio (x) = 1.43199 0.41310
# Poissons Ratio (y) = 0.38892 0.29485
# Poissons Ratio (z) = 0.05877 0.15445
#
# Static dielectric constant tensor:
#      x y z
#    x 1.583120 0.000000 0.000000 
#    y 0.000000 1.626900 0.000000 
#    z 0.000000 0.000000 1.596510 
# 
# From -- ./inp_files/6724.got.cif
#   From: 2010.05.17/outbox.cif.g08.bks.cpg/sg66_4_cif.got.tgz:6724.got - 2010.06.03 17:51:23.
