data_PCOD9497002
_publ_section_title
;
Structure prediction by ZEFSAII (Michael W. Deem and Ramdas Pophale) SiO2 
 PCOD9497002
Probable space group: C C C M
;
_chemical_formula_sum "Si O2"
_cell_formula_units_Z 80
_cell_length_a 18.122753
_cell_length_b 27.413865
_cell_length_c 8.480830
_cell_angle_alpha 90.000000
_cell_angle_beta 90.000000
_cell_angle_gamma 90.000000
_cell_volume 4213.401048
_symmetry_space_group_name_H-M "C C C M"
_symmetry_group_IT_number 66
_symmetry_cell_setting 'orthorhombic'
loop_
_space_group_symop_operation_xyz
x,y,z
-x,-y,z
x,-y,1/2-z
-x,y,1/2-z
-x,-y,-z
x,y,-z
-x,y,1/2+z
x,-y,1/2+z
1/2+x,1/2+y,z
1/2-x,1/2-y,z
1/2+x,1/2-y,1/2-z
1/2-x,1/2+y,1/2-z
1/2-x,1/2-y,-z
1/2+x,1/2+y,-z
1/2-x,1/2+y,1/2+z
1/2+x,1/2-y,1/2+z
loop_
_atom_site_type_symbol
_atom_site_label
_atom_site_fract_x
_atom_site_fract_y
_atom_site_fract_z
Si Si1 0.735960 0.551970 0.686050
Si Si2 0.078802 0.921308 0.684844
Si Si3 0.579703 0.208770 0.811265
Si Si4 0.223101 0.344870 0.814456
Si Si5 0.121104 0.181133 0.313823
O O1 0.761919 0.500000 0.750000
O O2 0.747178 0.556006 0.500000
O O3 0.648598 0.556631 0.723976
O O4 0.773076 0.597934 0.771777
O O5 0.085772 0.931675 0.500000
O O6 0.086152 0.863065 0.715433
O O7 0.000000 0.937663 0.750000
O O8 0.500000 0.192717 0.750000
O O9 0.646390 0.178786 0.735693
O O10 0.590693 0.265954 0.770816
O O11 0.583644 0.204484 0.000000
O O12 0.291359 0.320692 0.720788
O O13 0.236117 0.338364 0.000000
O O14 0.108422 0.172017 0.500000
#
# Coordination Sequence:
#
# PCOD9497002 Si02
#       5
#    16  16  16  16  16
#     4  11  22  39  60  82 107 138 180 227 276 327
#     4  11  21  34  52  78 112 149 187 226 271 320
#     4  11  23  37  55  81 113 148 185 227 274 323
#     4  11  22  37  58  83 111 145 184 225 271 323
#     4  10  20  35  55  80 112 150 189 226 267 317
#
# _framework density 18.987036
#
# number of rings (size 3 to 8) (size 9 to 14) (size 15 to 20)
#    0.000    1.200    0.000   10.200    0.000    7.600 
#    0.000    2.000    0.000    0.600    0.000    4.200 
#    0.000    0.000    0.000    0.000    0.000    0.000 
#
# Total GULP energy -223804.474107 kJ/mol
# GULP energy per Si atom -5595.111853 kJ/mol
# Density = 1.894382 g / cm^3
# Si number density = 18.987036 Si / 1000 Ang^3
#
#
#
# Elastic Constant Matrix: (Units=GPa)
#
#
# Indices 1 2 3 4 5 6 
#
# 1 61.4291 10.9698 -11.7478 0.0000 0.0000 0.0000
# 2 10.9698 57.8073 -3.4401 0.0000 0.0000 0.0000
# 3 -11.7478 -3.4401 49.7633 0.0000 0.0000 0.0000
# 4 0.0000 0.0000 0.0000 34.6093 0.0000 0.0000
# 5 0.0000 0.0000 0.0000 0.0000 59.2937 0.0000
# 6 0.0000 0.0000 0.0000 0.0000 0.0000 -4.3501
#
#
#
# Elastic Compliance Matrix: (Units=1/GPa)
#
#
# Indices 1 2 3 4 5 6 
#
# 1 0.017586 -0.003103 0.003937 0.000000 0.000000 0.000000
# 2 -0.003103 0.017918 0.000506 0.000000 0.000000 0.000000
# 3 0.003937 0.000506 0.021060 0.000000 0.000000 0.000000
# 4 0.000000 0.000000 0.000000 0.028894 0.000000 0.000000
# 5 0.000000 0.000000 0.000000 0.000000 0.016865 0.000000
# 6 0.000000 0.000000 0.000000 0.000000 0.000000 -0.229880
#
#
# Mechanical properties :
#
#
# Convention : Reuss Voigt Hill
#
# Bulk Modulus (GPa) = 16.87935 17.84038 17.35986
# Shear Modulus (GPa) = -45.25288 29.45844 -7.89722
#
# Velocity S-wave (km/s) = -4.88726 3.94319 -2.04164
# Velocity P-wave (km/s) = 4.78935 5.49073 1.89872
#
# Compressibility (1/GPa) = 0.05924398
#
# Stress axis : x y z
#
# Youngs Moduli (GPa) = 56.86349 55.81047 47.48437
#
# Poissons Ratio (x) = 0.17317 -0.18695
# Poissons Ratio (y) = 0.17644 -0.02403
# Poissons Ratio (z) = -0.22388 -0.02825
#
# Static dielectric constant tensor:
#      x y z
#    x 1.641200 0.000000 0.000000 
#    y 0.000000 1.673030 0.000000 
#    z 0.000000 0.000000 1.632570 
# 
# From -- ./inp_files/6719.got.cif
#   From: 2010.05.17/outbox.cif.g08.bks.cpg/sg66_4_cif.got.tgz:6719.got - 2010.06.03 17:51:23.
