data_PCOD9497052
_publ_section_title
;
Structure prediction by ZEFSAII (Michael W. Deem and Ramdas Pophale) SiO2 
 PCOD9497052
Probable space group: C C C M
;
_chemical_formula_sum "Si O2"
_cell_formula_units_Z 116
_cell_length_a 27.783760
_cell_length_b 22.977881
_cell_length_c 9.228798
_cell_angle_alpha 90.000000
_cell_angle_beta 90.000000
_cell_angle_gamma 90.000000
_cell_volume 5891.774752
_symmetry_space_group_name_H-M "C C C M"
_symmetry_group_IT_number 66
_symmetry_cell_setting 'orthorhombic'
loop_
_space_group_symop_operation_xyz
x,y,z
-x,-y,z
x,-y,1/2-z
-x,y,1/2-z
-x,-y,-z
x,y,-z
-x,y,1/2+z
x,-y,1/2+z
1/2+x,1/2+y,z
1/2-x,1/2-y,z
1/2+x,1/2-y,1/2-z
1/2-x,1/2+y,1/2-z
1/2-x,1/2-y,-z
1/2+x,1/2+y,-z
1/2-x,1/2+y,1/2+z
1/2+x,1/2-y,1/2+z
loop_
_atom_site_type_symbol
_atom_site_label
_atom_site_fract_x
_atom_site_fract_y
_atom_site_fract_z
Si Si1 0.431021 0.894223 0.336073
Si Si2 0.149090 0.060797 0.669853
Si Si3 0.783711 0.146812 0.331272
Si Si4 0.500000 0.000000 0.750000
Si Si5 0.048407 0.273813 0.673678
Si Si6 0.653232 0.739966 0.670347
Si Si7 0.044314 0.936525 0.828373
Si Si8 0.670481 0.853782 0.834531
O O1 0.440108 0.873038 0.500000
O O2 0.444609 0.840813 0.229921
O O3 0.372728 0.900783 0.320576
O O4 0.462392 0.952866 0.318827
O O5 0.156105 0.052389 0.500000
O O6 0.189964 0.097728 0.741428
O O7 0.096846 0.090598 0.689803
O O8 0.147771 0.000000 0.750000
O O9 0.797090 0.146714 0.500000
O O10 0.806682 0.204786 0.260341
O O11 0.726936 0.133700 0.323922
O O12 0.043995 0.274077 0.500000
O O13 0.096378 0.236237 0.710199
O O14 0.000000 0.252022 0.750000
O O15 0.658486 0.726733 0.500000
O O16 0.662349 0.806964 0.709350
O O17 0.000000 0.905768 0.750000
O O18 0.047415 0.000000 0.750000
O O19 0.035671 0.943536 0.000000
O O20 0.663995 0.829367 0.000000
#
# Coordination Sequence:
#
# PCOD9497052 Si02
#       8
#    16  16  16   4  16  16  16  16
#     4  10  21  37  57  82 118 157 196 246 295 346
#     4  10  21  37  56  79 110 147 188 231 281 339
#     4  11  22  37  59  84 112 149 194 238 291 354
#     4  12  22  32  60  94 122 160 210 248 290 344
#     4  10  20  35  57  84 117 155 196 239 295 360
#     4  10  21  36  58  88 116 145 189 242 296 352
#     4   9  16  27  47  73  99 130 168 213 259 309
#     4   9  20  39  59  82 114 151 191 238 296 352
#
# _framework density 19.688464
#
# number of rings (size 3 to 8) (size 9 to 14) (size 15 to 20)
#    0.000    2.069    0.690    3.103    0.000    6.621 
#    1.241    0.690    0.000    0.000    0.000    0.000 
#    0.000    0.000    0.000    0.000    0.000    0.000 
#
# Total GULP energy -322877.257550 kJ/mol
# GULP energy per Si atom -5566.849268 kJ/mol
# Density = 1.964365 g / cm^3
# Si number density = 19.688464 Si / 1000 Ang^3
#
#
#
# Elastic Constant Matrix: (Units=GPa)
#
#
# Indices 1 2 3 4 5 6 
#
# 1 137.2135 30.3016 67.8703 0.0000 0.0000 0.0000
# 2 30.3016 50.0985 17.6830 0.0000 0.0000 0.0000
# 3 67.8703 17.6830 98.2769 0.0000 0.0000 0.0000
# 4 0.0000 0.0000 0.0000 18.6059 0.0000 0.0000
# 5 0.0000 0.0000 0.0000 0.0000 36.1437 0.0000
# 6 0.0000 0.0000 0.0000 0.0000 0.0000 27.1918
#
#
#
# Elastic Compliance Matrix: (Units=1/GPa)
#
#
# Indices 1 2 3 4 5 6 
#
# 1 0.011995 -0.004625 -0.007452 0.000000 0.000000 0.000000
# 2 -0.004625 0.023098 -0.000962 0.000000 0.000000 0.000000
# 3 -0.007452 -0.000962 0.015495 0.000000 0.000000 0.000000
# 4 0.000000 0.000000 0.000000 0.053746 0.000000 0.000000
# 5 0.000000 0.000000 0.000000 0.000000 0.027667 0.000000
# 6 0.000000 0.000000 0.000000 0.000000 0.000000 0.036776
#
#
# Mechanical properties :
#
#
# Convention : Reuss Voigt Hill
#
# Bulk Modulus (GPa) = 40.79956 57.47764 49.13860
# Shear Modulus (GPa) = 24.62763 27.70388 26.16576
#
# Velocity S-wave (km/s) = 3.54060 3.75522 3.64949
# Velocity P-wave (km/s) = 6.12225 6.93247 6.53992
#
# Compressibility (1/GPa) = 0.02451007
#
# Stress axis : x y z
#
# Youngs Moduli (GPa) = 83.36726 43.29457 64.53877
#
# Poissons Ratio (x) = 0.20024 0.48092
# Poissons Ratio (y) = 0.38557 0.06208
# Poissons Ratio (z) = 0.62123 0.04165
#
# Static dielectric constant tensor:
#      x y z
#    x 1.781370 0.000000 0.000000 
#    y 0.000000 1.734260 0.000000 
#    z 0.000000 0.000000 1.664160 
# 
# From -- ./inp_files/10588.got.cif
#   From: 2010.05.17/outbox.cif.g08.bks.cpg/sg66_6_cif.got.tgz:10588.got - 2010.06.03 17:51:23.
