data_PCOD9497967
_publ_section_title
;
Structure prediction by ZEFSAII (Michael W. Deem and Ramdas Pophale) SiO2 
 PCOD9497967
Probable space group: C C C M
;
_chemical_formula_sum "Si O2"
_cell_formula_units_Z 116
_cell_length_a 21.802482
_cell_length_b 31.865161
_cell_length_c 9.139597
_cell_angle_alpha 90.000000
_cell_angle_beta 90.000000
_cell_angle_gamma 90.000000
_cell_volume 6349.639956
_symmetry_space_group_name_H-M "C C C M"
_symmetry_group_IT_number 66
_symmetry_cell_setting 'orthorhombic'
loop_
_space_group_symop_operation_xyz
x,y,z
-x,-y,z
x,-y,1/2-z
-x,y,1/2-z
-x,-y,-z
x,y,-z
-x,y,1/2+z
x,-y,1/2+z
1/2+x,1/2+y,z
1/2-x,1/2-y,z
1/2+x,1/2-y,1/2-z
1/2-x,1/2+y,1/2-z
1/2-x,1/2-y,-z
1/2+x,1/2+y,-z
1/2-x,1/2+y,1/2+z
1/2+x,1/2-y,1/2+z
loop_
_atom_site_type_symbol
_atom_site_label
_atom_site_fract_x
_atom_site_fract_y
_atom_site_fract_z
Si Si1 0.564578 0.842933 0.327541
Si Si2 0.605664 0.061322 0.163854
Si Si3 0.163630 0.285119 0.826140
Si Si4 0.679187 0.604844 0.326849
Si Si5 0.435934 0.544213 0.174481
Si Si6 0.500000 0.000000 0.750000
Si Si7 0.805415 0.191286 0.674102
Si Si8 0.271840 0.957045 0.326103
O O1 0.500000 0.835854 0.250000
O O2 0.558442 0.836151 0.500000
O O3 0.584578 0.891319 0.305708
O O4 0.615627 0.812509 0.261675
O O5 0.546814 0.031003 0.167803
O O6 0.657181 0.048412 0.279808
O O7 0.633060 0.059205 0.000000
O O8 0.163071 0.235686 0.788711
O O9 0.232730 0.301630 0.800605
O O10 0.152058 0.288843 0.000000
O O11 0.692769 0.605185 0.500000
O O12 0.617508 0.577941 0.303293
O O13 0.672650 0.651669 0.265567
O O14 0.733462 0.581411 0.240030
O O15 0.418729 0.500000 0.250000
O O16 0.500000 0.557030 0.250000
O O17 0.444341 0.538302 0.000000
O O18 0.813595 0.183974 0.500000
O O19 0.249725 0.000000 0.250000
O O20 0.265346 0.040665 0.000000
#
# Coordination Sequence:
#
# PCOD9497967 Si02
#       8
#    16  16  16  16  16   4  16  16
#     4  11  23  38  57  84 114 149 193 240 289 341
#     4  11  24  40  59  85 116 155 204 249 295 348
#     4   9  19  38  61  86 114 146 188 233 284 348
#     4  11  23  38  58  88 122 152 190 236 287 344
#     4  10  21  37  59  85 114 151 190 230 273 332
#     4  12  22  40  64  82 118 160 204 248 298 344
#     4   9  19  37  62  88 114 147 185 230 286 344
#     4  12  25  39  58  83 116 157 199 244 295 342
#
# _framework density 18.268751999999999
#
# number of rings (size 3 to 8) (size 9 to 14) (size 15 to 20)
#    0.000    1.517    1.379    5.172    0.000    8.276 
#    0.000    2.069    0.000    1.655    0.000    0.000 
#    0.000    0.000    0.000    0.000    0.000    0.000 
#
# Total GULP energy -324098.265785 kJ/mol
# GULP energy per Si atom -5587.901134 kJ/mol
# Density = 1.822717 g / cm^3
# Si number density = 18.268752 Si / 1000 Ang^3
#
#
#
# Elastic Constant Matrix: (Units=GPa)
#
#
# Indices 1 2 3 4 5 6 
#
# 1 74.8038 64.6262 62.7271 0.0000 0.0000 0.0000
# 2 64.6262 137.3774 83.0183 0.0000 0.0000 0.0000
# 3 62.7271 83.0183 114.8707 0.0000 0.0000 0.0000
# 4 0.0000 0.0000 0.0000 27.3389 0.0000 0.0000
# 5 0.0000 0.0000 0.0000 0.0000 21.9837 0.0000
# 6 0.0000 0.0000 0.0000 0.0000 0.0000 18.8542
#
#
#
# Elastic Compliance Matrix: (Units=1/GPa)
#
#
# Indices 1 2 3 4 5 6 
#
# 1 0.027979 -0.006976 -0.010237 0.000000 0.000000 0.000000
# 2 -0.006976 0.014663 -0.006788 0.000000 0.000000 0.000000
# 3 -0.010237 -0.006788 0.019201 0.000000 0.000000 0.000000
# 4 0.000000 0.000000 0.000000 0.036578 0.000000 0.000000
# 5 0.000000 0.000000 0.000000 0.000000 0.045488 0.000000
# 6 0.000000 0.000000 0.000000 0.000000 0.000000 0.053039
#
#
# Mechanical properties :
#
#
# Convention : Reuss Voigt Hill
#
# Bulk Modulus (GPa) = 72.24387 83.08837 77.66612
# Shear Modulus (GPa) = 20.03503 21.41405 20.72454
#
# Velocity S-wave (km/s) = 3.31521 3.42741 3.37178
# Velocity P-wave (km/s) = 7.36784 7.82577 7.60026
#
# Compressibility (1/GPa) = 0.01384201
#
# Stress axis : x y z
#
# Youngs Moduli (GPa) = 35.74050 68.20036 52.08077
#
# Poissons Ratio (x) = 0.47577 0.53315
# Poissons Ratio (y) = 0.24933 0.35350
# Poissons Ratio (z) = 0.36588 0.46291
#
# Static dielectric constant tensor:
#      x y z
#    x 1.610680 0.000000 0.000000 
#    y 0.000000 1.623840 0.000000 
#    z 0.000000 0.000000 1.614990 
# 
# From -- ./inp_files/9413.got.cif
#   From: 2010.05.17/outbox.cif.g08.bks.cpg/sg66_5_cif.got.tgz:9413.got - 2010.06.03 17:51:23.
