data_PCOD9497841
_publ_section_title
;
Structure prediction by ZEFSAII (Michael W. Deem and Ramdas Pophale) SiO2 
 PCOD9497841
Probable space group: C C C M
;
_chemical_formula_sum "Si O2"
_cell_formula_units_Z 64
_cell_length_a 4.867004
_cell_length_b 19.939221
_cell_length_c 25.586787
_cell_angle_alpha 90.000000
_cell_angle_beta 90.000000
_cell_angle_gamma 90.000000
_cell_volume 2483.051024
_symmetry_space_group_name_H-M "C C C M"
_symmetry_group_IT_number 66
_symmetry_cell_setting 'orthorhombic'
loop_
_space_group_symop_operation_xyz
x,y,z
-x,-y,z
x,-y,1/2-z
-x,y,1/2-z
-x,-y,-z
x,y,-z
-x,y,1/2+z
x,-y,1/2+z
1/2+x,1/2+y,z
1/2-x,1/2-y,z
1/2+x,1/2-y,1/2-z
1/2-x,1/2+y,1/2-z
1/2-x,1/2-y,-z
1/2+x,1/2+y,-z
1/2-x,1/2+y,1/2+z
1/2+x,1/2-y,1/2+z
loop_
_atom_site_type_symbol
_atom_site_label
_atom_site_fract_x
_atom_site_fract_y
_atom_site_fract_z
Si Si1 0.125995 0.654721 0.057373
Si Si2 0.947441 0.309077 0.830830
Si Si3 0.140296 0.932503 0.419097
Si Si4 0.051975 0.104958 0.192679
O O1 0.022818 0.698811 0.106485
O O2 0.435432 0.628976 0.066865
O O3 0.934498 0.588530 0.059872
O O4 0.095616 0.684846 0.000000
O O5 0.750000 0.250000 0.810546
O O6 0.750280 0.372698 0.824412
O O7 0.236433 0.330793 0.805640
O O8 0.166337 0.936754 0.355891
O O9 0.000000 0.000000 0.438300
O O10 0.000000 0.076756 0.250000
#
# Coordination Sequence:
#
# PCOD9497841 Si02
#       4
#    16  16  16  16
#     4  10  21  36  55  81 111 144 184 228 275 330
#     4  10  21  37  56  80 110 143 183 229 275 329
#     4  10  21  36  55  81 111 144 184 228 275 331
#     4  10  21  37  56  80 110 143 183 229 276 330
#
# _framework density 25.774743999999998
#
# number of rings (size 3 to 8) (size 9 to 14) (size 15 to 20)
#    0.000    2.000    0.000    3.000    0.000    6.000 
#    0.000    0.000    0.000   18.000    0.000    0.000 
#    0.000    0.000    0.000    0.000    0.000    0.000 
#
# Total GULP energy -178783.836051 kJ/mol
# GULP energy per Si atom -5586.994877 kJ/mol
# Density = 2.571608 g / cm^3
# Si number density = 25.774744 Si / 1000 Ang^3
#
#
#
# Elastic Constant Matrix: (Units=GPa)
#
#
# Indices 1 2 3 4 5 6 
#
# 1 156.4639 21.1084 7.1667 0.0000 0.0000 0.0000
# 2 21.1084 63.8852 2.6747 0.0000 0.0000 0.0000
# 3 7.1667 2.6747 185.9626 0.0000 0.0000 0.0000
# 4 0.0000 0.0000 0.0000 -15.3977 0.0000 0.0000
# 5 0.0000 0.0000 0.0000 0.0000 18.7676 0.0000
# 6 0.0000 0.0000 0.0000 0.0000 0.0000 37.4903
#
#
#
# Elastic Compliance Matrix: (Units=1/GPa)
#
#
# Indices 1 2 3 4 5 6 
#
# 1 0.006699 -0.002204 -0.000226 0.000000 0.000000 0.000000
# 2 -0.002204 0.016388 -0.000151 0.000000 0.000000 0.000000
# 3 -0.000226 -0.000151 0.005388 0.000000 0.000000 0.000000
# 4 0.000000 0.000000 0.000000 -0.064945 0.000000 0.000000
# 5 0.000000 0.000000 0.000000 0.000000 0.053283 0.000000
# 6 0.000000 0.000000 0.000000 0.000000 0.000000 0.026674
#
#
# Mechanical properties :
#
#
# Convention : Reuss Voigt Hill
#
# Bulk Modulus (GPa) = 42.89538 52.02349 47.45943
# Shear Modulus (GPa) = 88.62084 33.19615 60.90850
#
# Velocity S-wave (km/s) = 5.87005 3.59267 4.86645
# Velocity P-wave (km/s) = 7.91340 6.11861 7.07316
#
# Compressibility (1/GPa) = 0.02331253
#
# Stress axis : x y z
#
# Youngs Moduli (GPa) = 149.27699 61.02178 185.58650
#
# Poissons Ratio (x) = 0.13449 0.04203
# Poissons Ratio (y) = 0.32900 0.02798
# Poissons Ratio (z) = 0.03381 0.00920
#
# Static dielectric constant tensor:
#      x y z
#    x 1.926880 0.000000 0.000000 
#    y 0.000000 2.123040 0.000000 
#    z 0.000000 0.000000 2.129950 
# 
# From -- ./inp_files/52198.got.cif
#   From: 2010.05.17/outbox.cif.g08.bks.cpg/sg66_27_cif.got.tgz:52198.got - 2010.06.03 17:51:23.
