data_PCOD9497552
_publ_section_title
;
Structure prediction by ZEFSAII (Michael W. Deem and Ramdas Pophale) SiO2 
 PCOD9497552
Probable space group: C C C M
;
_chemical_formula_sum "Si O2"
_cell_formula_units_Z 112
_cell_length_a 11.359967
_cell_length_b 30.451634
_cell_length_c 15.361902
_cell_angle_alpha 90.000000
_cell_angle_beta 90.000000
_cell_angle_gamma 90.000000
_cell_volume 5314.135959
_symmetry_space_group_name_H-M "C C C M"
_symmetry_group_IT_number 66
_symmetry_cell_setting 'orthorhombic'
loop_
_space_group_symop_operation_xyz
x,y,z
-x,-y,z
x,-y,1/2-z
-x,y,1/2-z
-x,-y,-z
x,y,-z
-x,y,1/2+z
x,-y,1/2+z
1/2+x,1/2+y,z
1/2-x,1/2-y,z
1/2+x,1/2-y,1/2-z
1/2-x,1/2+y,1/2-z
1/2-x,1/2-y,-z
1/2+x,1/2+y,-z
1/2-x,1/2+y,1/2+z
1/2+x,1/2-y,1/2+z
loop_
_atom_site_type_symbol
_atom_site_label
_atom_site_fract_x
_atom_site_fract_y
_atom_site_fract_z
Si Si1 0.873313 0.729365 0.241010
Si Si2 0.581399 0.911518 0.598508
Si Si3 0.561126 0.619500 0.341646
Si Si4 0.256881 0.449440 0.728837
Si Si5 0.733486 0.821957 0.597838
Si Si6 0.112379 0.656653 0.402114
Si Si7 0.814913 0.098246 0.593138
O O1 0.750000 0.750000 0.206460
O O2 0.828810 0.709475 0.332994
O O3 0.907779 0.690673 0.173988
O O4 0.000000 0.754201 0.250000
O O5 0.585045 0.930608 0.500000
O O6 0.636707 0.941482 0.674041
O O7 0.659850 0.867234 0.597625
O O8 0.454502 0.889582 0.614463
O O9 0.500000 0.630014 0.250000
O O10 0.644512 0.576872 0.326945
O O11 0.638686 0.660582 0.372656
O O12 0.453641 0.605589 0.401883
O O13 0.278734 0.500000 0.750000
O O14 0.269044 0.426867 0.822706
O O15 0.736272 0.804350 0.500000
O O16 0.076562 0.671153 0.500000
O O17 0.249635 0.644961 0.403096
O O18 0.782750 0.077581 0.500000
#
# Coordination Sequence:
#
# PCOD9497552 Si02
#       7
#    16  16  16  16  16  16  16
#     4  12  26  41  63  94 132 167 203 254 326 398
#     4   9  18  36  65  89 109 157 219 264 306 366
#     4   9  18  34  58  86 119 160 215 264 313 368
#     4  10  21  35  55  86 124 161 204 264 321 373
#     4  10  20  38  64  88 116 162 218 266 303 368
#     4  10  21  41  67  89 114 156 211 263 314 375
#     4  10  21  35  56  87 121 160 208 260 313 374
#
# _framework density 21.075863999999999
#
# number of rings (size 3 to 8) (size 9 to 14) (size 15 to 20)
#    0.000    2.000    1.429    3.000    0.000    6.000 
#    0.000    2.143    0.000    2.571    0.000    0.000 
#    0.000    0.000    0.000    0.000    0.000    0.000 
#
# Total GULP energy -312098.574046 kJ/mol
# GULP energy per Si atom -5573.188822 kJ/mol
# Density = 2.102789 g / cm^3
# Si number density = 21.075864 Si / 1000 Ang^3
#
#
#
# Elastic Constant Matrix: (Units=GPa)
#
#
# Indices 1 2 3 4 5 6 
#
# 1 122.5080 34.5170 46.3207 0.0000 0.0000 0.0000
# 2 34.5170 36.2515 30.5215 0.0000 0.0000 0.0000
# 3 46.3207 30.5215 121.8028 0.0000 0.0000 0.0000
# 4 0.0000 0.0000 0.0000 -9.9711 0.0000 0.0000
# 5 0.0000 0.0000 0.0000 0.0000 12.9329 0.0000
# 6 0.0000 0.0000 0.0000 0.0000 0.0000 11.2086
#
#
#
# Elastic Compliance Matrix: (Units=1/GPa)
#
#
# Indices 1 2 3 4 5 6 
#
# 1 0.011555 -0.009255 -0.002075 0.000000 0.000000 0.000000
# 2 -0.009255 0.042374 -0.007098 0.000000 0.000000 0.000000
# 3 -0.002075 -0.007098 0.010778 0.000000 0.000000 0.000000
# 4 0.000000 0.000000 0.000000 -0.100289 0.000000 0.000000
# 5 0.000000 0.000000 0.000000 0.000000 0.077322 0.000000
# 6 0.000000 0.000000 0.000000 0.000000 0.000000 0.089217
#
#
# Mechanical properties :
#
#
# Convention : Reuss Voigt Hill
#
# Bulk Modulus (GPa) = 35.90740 55.92006 45.91373
# Shear Modulus (GPa) = 28.23319 14.11429 21.17374
#
# Velocity S-wave (km/s) = 3.66402 2.59064 3.17305
# Velocity P-wave (km/s) = 5.91391 5.96145 5.93773
#
# Compressibility (1/GPa) = 0.02784942
#
# Stress axis : x y z
#
# Youngs Moduli (GPa) = 86.54291 23.59956 92.78253
#
# Poissons Ratio (x) = 0.21841 0.19254
# Poissons Ratio (y) = 0.80095 0.65861
# Poissons Ratio (z) = 0.17959 0.16752
#
# Static dielectric constant tensor:
#      x y z
#    x 1.860460 0.000000 0.000000 
#    y 0.000000 1.754900 0.000000 
#    z 0.000000 0.000000 1.789440 
# 
# From -- ./inp_files/27035.got.cif
#   From: 2010.05.17/outbox.cif.g08.bks.cpg/sg66_14_cif.got.tgz:27035.got - 2010.06.03 17:51:23.
