data_PCOD9497495
_publ_section_title
;
Structure prediction by ZEFSAII (Michael W. Deem and Ramdas Pophale) SiO2 
 PCOD9497495
Probable space group: C C C M
;
_chemical_formula_sum "Si O2"
_cell_formula_units_Z 56
_cell_length_a 20.864480
_cell_length_b 9.690758
_cell_length_c 14.166158
_cell_angle_alpha 90.000000
_cell_angle_beta 90.000000
_cell_angle_gamma 90.000000
_cell_volume 2864.292693
_symmetry_space_group_name_H-M "C C C M"
_symmetry_group_IT_number 66
_symmetry_cell_setting 'orthorhombic'
loop_
_space_group_symop_operation_xyz
x,y,z
-x,-y,z
x,-y,1/2-z
-x,y,1/2-z
-x,-y,-z
x,y,-z
-x,y,1/2+z
x,-y,1/2+z
1/2+x,1/2+y,z
1/2-x,1/2-y,z
1/2+x,1/2-y,1/2-z
1/2-x,1/2+y,1/2-z
1/2-x,1/2-y,-z
1/2+x,1/2+y,-z
1/2-x,1/2+y,1/2+z
1/2+x,1/2-y,1/2+z
loop_
_atom_site_type_symbol
_atom_site_label
_atom_site_fract_x
_atom_site_fract_y
_atom_site_fract_z
Si Si1 0.283768 0.901911 0.392413
Si Si2 0.313145 0.500000 0.250000
Si Si3 0.395889 0.226964 0.781014
Si Si4 0.518556 0.838789 0.392691
O O1 0.297957 0.941890 0.500000
O O2 0.250000 0.750000 0.394496
O O3 0.347342 0.878469 0.331297
O O4 0.234595 0.003204 0.339835
O O5 0.357395 0.367339 0.236558
O O6 0.424361 0.180123 0.681170
O O7 0.456883 0.241392 0.850699
O O8 0.532920 0.797888 0.500000
O O9 0.500000 0.000000 0.391504
#
# Coordination Sequence:
#
# PCOD9497495 Si02
#       4
#    16   8  16  16
#     4   9  19  36  57  81 114 155 190 226 282 349
#     4  10  22  35  58  89 118 150 194 236 292 352
#     4  10  20  38  58  86 118 149 192 244 292 347
#     4  10  22  38  60  84 110 152 198 242 290 346
#
# _framework density 19.551075999999998
#
# number of rings (size 3 to 8) (size 9 to 14) (size 15 to 20)
#    0.000    2.286    0.000    2.571    4.000    4.571 
#    0.000    1.429    0.000    5.143    0.000    0.000 
#    0.000    0.000    0.000    0.000    0.000    0.000 
#
# Total GULP energy -156332.393421 kJ/mol
# GULP energy per Si atom -5583.299765 kJ/mol
# Density = 1.950658 g / cm^3
# Si number density = 19.551076 Si / 1000 Ang^3
#
#
#
# Elastic Constant Matrix: (Units=GPa)
#
#
# Indices 1 2 3 4 5 6 
#
# 1 134.0779 39.9511 96.7989 0.0000 0.0000 0.0000
# 2 39.9511 48.7481 42.3494 0.0000 0.0000 0.0000
# 3 96.7989 42.3494 218.0376 0.0000 0.0000 0.0000
# 4 0.0000 0.0000 0.0000 25.6062 0.0000 0.0000
# 5 0.0000 0.0000 0.0000 0.0000 17.3824 0.0000
# 6 0.0000 0.0000 0.0000 0.0000 0.0000 34.4309
#
#
#
# Elastic Compliance Matrix: (Units=1/GPa)
#
#
# Indices 1 2 3 4 5 6 
#
# 1 0.012490 -0.006519 -0.004279 0.000000 0.000000 0.000000
# 2 -0.006519 0.028080 -0.002560 0.000000 0.000000 0.000000
# 3 -0.004279 -0.002560 0.006983 0.000000 0.000000 0.000000
# 4 0.000000 0.000000 0.000000 0.039053 0.000000 0.000000
# 5 0.000000 0.000000 0.000000 0.000000 0.057530 0.000000
# 6 0.000000 0.000000 0.000000 0.000000 0.000000 0.029044
#
#
# Mechanical properties :
#
#
# Convention : Reuss Voigt Hill
#
# Bulk Modulus (GPa) = 47.98932 84.34025 66.16479
# Shear Modulus (GPa) = 24.17325 30.26818 27.22071
#
# Velocity S-wave (km/s) = 3.52008 3.93893 3.73538
# Velocity P-wave (km/s) = 6.41251 7.99494 7.24704
#
# Compressibility (1/GPa) = 0.02083797
#
# Stress axis : x y z
#
# Youngs Moduli (GPa) = 80.06488 35.61261 143.20152
#
# Poissons Ratio (x) = 0.23215 0.61273
# Poissons Ratio (y) = 0.52193 0.36658
# Poissons Ratio (z) = 0.34258 0.09116
#
# Static dielectric constant tensor:
#      x y z
#    x 1.699200 0.000000 0.000000 
#    y 0.000000 1.678610 0.000000 
#    z 0.000000 0.000000 1.681560 
# 
# From -- ./inp_files/23862.got.cif
#   From: 2010.05.17/outbox.cif.g08.bks.cpg/sg66_12_cif.got.tgz:23862.got - 2010.06.03 17:51:23.
