data_PCOD9497346
_publ_section_title
;
Structure prediction by ZEFSAII (Michael W. Deem and Ramdas Pophale) SiO2 
 PCOD9497346
Probable space group: C C C M
;
_chemical_formula_sum "Si O2"
_cell_formula_units_Z 112
_cell_length_a 11.636546
_cell_length_b 27.553232
_cell_length_c 14.830358
_cell_angle_alpha 90.000000
_cell_angle_beta 90.000000
_cell_angle_gamma 90.000000
_cell_volume 4754.975401
_symmetry_space_group_name_H-M "C C C M"
_symmetry_group_IT_number 66
_symmetry_cell_setting 'orthorhombic'
loop_
_space_group_symop_operation_xyz
x,y,z
-x,-y,z
x,-y,1/2-z
-x,y,1/2-z
-x,-y,-z
x,y,-z
-x,y,1/2+z
x,-y,1/2+z
1/2+x,1/2+y,z
1/2-x,1/2-y,z
1/2+x,1/2-y,1/2-z
1/2-x,1/2+y,1/2-z
1/2-x,1/2-y,-z
1/2+x,1/2+y,-z
1/2-x,1/2+y,1/2+z
1/2+x,1/2-y,1/2+z
loop_
_atom_site_type_symbol
_atom_site_label
_atom_site_fract_x
_atom_site_fract_y
_atom_site_fract_z
Si Si1 0.527102 0.687025 0.602173
Si Si2 0.759443 0.466539 0.393114
Si Si3 0.756282 0.928564 0.603521
Si Si4 0.747476 0.830510 0.287972
Si Si5 0.018903 0.917628 0.356449
Si Si6 0.545779 0.207672 0.897488
Si Si7 0.336789 0.138015 0.894722
O O1 0.576667 0.684878 0.500000
O O2 0.627970 0.683272 0.675335
O O3 0.457039 0.637407 0.611844
O O4 0.478199 0.741165 0.611876
O O5 0.771508 0.473079 0.500000
O O6 0.785180 0.520047 0.356460
O O7 0.627165 0.451230 0.376068
O O8 0.833003 0.419018 0.370322
O O9 0.717505 0.920468 0.500000
O O10 0.726047 0.883273 0.666029
O O11 0.896087 0.931889 0.602189
O O12 0.649516 0.796084 0.328112
O O13 0.736545 0.834946 0.181462
O O14 0.000000 0.917312 0.250000
O O15 0.461083 0.162593 0.886758
O O16 0.592136 0.206350 0.000000
O O17 0.300550 0.143171 0.000000
#
# Coordination Sequence:
#
# PCOD9497346 Si02
#       7
#    16  16  16  16  16  16  16
#     4  10  21  38  62  90 116 146 190 241 290 341
#     4  10  20  37  57  78 115 158 190 231 287 344
#     4  10  21  36  58  88 115 146 194 245 291 340
#     4  11  20  36  63  90 117 148 188 242 291 338
#     4  11  21  32  52  84 120 155 192 234 281 342
#     4  10  21  40  64  87 115 150 191 241 291 339
#     4  10  23  40  57  83 119 159 197 230 277 345
#
# _framework density 23.554276000000002
#
# number of rings (size 3 to 8) (size 9 to 14) (size 15 to 20)
#    0.000    1.714    0.000    6.429    0.000    6.286 
#    0.000    2.857    0.000   12.000    0.000    0.000 
#    0.000    0.000    0.000    0.000    0.000    0.000 
#
# Total GULP energy -313072.122002 kJ/mol
# GULP energy per Si atom -5590.573607 kJ/mol
# Density = 2.350067 g / cm^3
# Si number density = 23.554276 Si / 1000 Ang^3
#
#
#
# Elastic Constant Matrix: (Units=GPa)
#
#
# Indices 1 2 3 4 5 6 
#
# 1 15.6490 -3.0121 15.0326 0.0000 0.0000 0.0000
# 2 -3.0121 109.7431 5.5540 0.0000 0.0000 0.0000
# 3 15.0326 5.5540 86.2619 0.0000 0.0000 0.0000
# 4 0.0000 0.0000 0.0000 13.2207 0.0000 0.0000
# 5 0.0000 0.0000 0.0000 0.0000 172.0114 0.0000
# 6 0.0000 0.0000 0.0000 0.0000 0.0000 56.0688
#
#
#
# Elastic Compliance Matrix: (Units=1/GPa)
#
#
# Indices 1 2 3 4 5 6 
#
# 1 0.077612 0.002824 -0.013707 0.000000 0.000000 0.000000
# 2 0.002824 0.009245 -0.001087 0.000000 0.000000 0.000000
# 3 -0.013707 -0.001087 0.014051 0.000000 0.000000 0.000000
# 4 0.000000 0.000000 0.000000 0.075639 0.000000 0.000000
# 5 0.000000 0.000000 0.000000 0.000000 0.005814 0.000000
# 6 0.000000 0.000000 0.000000 0.000000 0.000000 0.017835
#
#
# Mechanical properties :
#
#
# Convention : Reuss Voigt Hill
#
# Bulk Modulus (GPa) = 12.99251 27.42255 20.20753
# Shear Modulus (GPa) = 20.01656 61.19882 40.60769
#
# Velocity S-wave (km/s) = 2.91831 5.10279 4.15662
# Velocity P-wave (km/s) = 4.10893 6.81069 5.62445
#
# Compressibility (1/GPa) = 0.07696745
#
# Stress axis : x y z
#
# Youngs Moduli (GPa) = 12.88453 108.16979 71.16769
#
# Poissons Ratio (x) = -0.30547 0.97550
# Poissons Ratio (y) = -0.03639 0.07738
# Poissons Ratio (z) = 0.17661 0.11762
#
# Static dielectric constant tensor:
#      x y z
#    x 1.875570 0.000000 0.000000 
#    y 0.000000 1.926260 0.000000 
#    z 0.000000 0.000000 1.883750 
# 
# From -- ./inp_files/28908.got.cif
#   From: 2010.05.17/outbox.cif.g08.bks.cpg/sg66_15_cif.got.tgz:28908.got - 2010.06.03 17:51:23.
