data_PCOD9497156
_publ_section_title
;
Structure prediction by ZEFSAII (Michael W. Deem and Ramdas Pophale) SiO2 
 PCOD9497156
Probable space group: C C C M
;
_chemical_formula_sum "Si O2"
_cell_formula_units_Z 96
_cell_length_a 23.433767
_cell_length_b 8.485514
_cell_length_c 25.818167
_cell_angle_alpha 90.000000
_cell_angle_beta 90.000000
_cell_angle_gamma 90.000000
_cell_volume 5133.879459
_symmetry_space_group_name_H-M "C C C M"
_symmetry_group_IT_number 66
_symmetry_cell_setting 'orthorhombic'
loop_
_space_group_symop_operation_xyz
x,y,z
-x,-y,z
x,-y,1/2-z
-x,y,1/2-z
-x,-y,-z
x,y,-z
-x,y,1/2+z
x,-y,1/2+z
1/2+x,1/2+y,z
1/2-x,1/2-y,z
1/2+x,1/2-y,1/2-z
1/2-x,1/2+y,1/2-z
1/2-x,1/2-y,-z
1/2+x,1/2+y,-z
1/2-x,1/2+y,1/2+z
1/2+x,1/2-y,1/2+z
loop_
_atom_site_type_symbol
_atom_site_label
_atom_site_fract_x
_atom_site_fract_y
_atom_site_fract_z
Si Si1 0.635895 0.021821 0.654581
Si Si2 0.944656 0.283609 0.781414
Si Si3 0.937337 0.576330 0.560615
Si Si4 0.878883 0.118030 0.689680
Si Si5 0.451382 0.395494 0.383415
Si Si6 0.750794 0.060886 0.305142
O O1 0.599598 0.911051 0.694510
O O2 0.608028 0.002522 0.598696
O O3 0.629734 0.202628 0.670841
O O4 0.703913 0.989015 0.656146
O O5 0.911156 0.159561 0.744281
O O6 0.971244 0.200216 0.832157
O O7 0.000000 0.339102 0.750000
O O8 0.926318 0.555085 0.500000
O O9 0.933666 0.760235 0.576949
O O10 0.000000 0.500000 0.571679
O O11 0.817998 0.028172 0.692809
O O12 0.909846 0.019293 0.644685
O O13 0.500000 0.500000 0.408433
O O14 0.750000 0.250000 0.307431
O O15 0.729145 0.000000 0.250000
#
# Coordination Sequence:
#
# PCOD9497156 Si02
#       6
#    16  16  16  16  16  16
#     4  10  22  37  57  85 111 154 201 234 274 338
#     4  11  21  33  53  86 127 161 188 226 275 344
#     4  10  23  43  62  80 106 145 194 249 302 353
#     4  11  21  34  55  87 125 159 189 227 279 340
#     4  11  21  35  55  87 118 148 187 233 293 341
#     4  10  20  36  55  81 121 161 196 223 265 337
#
# _framework density 18.699309
#
# number of rings (size 3 to 8) (size 9 to 14) (size 15 to 20)
#    0.000    1.500    1.667    5.000    2.333    2.333 
#    0.000    0.833    0.000    6.500    0.000    0.000 
#    0.000    0.000    0.000    0.000    0.000    0.000 
#
# Total GULP energy -267339.558787 kJ/mol
# GULP energy per Si atom -5569.574141 kJ/mol
# Density = 1.865675 g / cm^3
# Si number density = 18.699309 Si / 1000 Ang^3
#
#
#
# Elastic Constant Matrix: (Units=GPa)
#
#
# Indices 1 2 3 4 5 6 
#
# 1 115.3061 27.3566 54.7866 0.0000 0.0000 0.0000
# 2 27.3566 71.0082 20.1868 0.0000 0.0000 0.0000
# 3 54.7866 20.1868 97.6084 0.0000 0.0000 0.0000
# 4 0.0000 0.0000 0.0000 18.2302 0.0000 0.0000
# 5 0.0000 0.0000 0.0000 0.0000 11.8513 0.0000
# 6 0.0000 0.0000 0.0000 0.0000 0.0000 68.8648
#
#
#
# Elastic Compliance Matrix: (Units=1/GPa)
#
#
# Indices 1 2 3 4 5 6 
#
# 1 0.012390 -0.002971 -0.006340 0.000000 0.000000 0.000000
# 2 -0.002971 0.015675 -0.001574 0.000000 0.000000 0.000000
# 3 -0.006340 -0.001574 0.014129 0.000000 0.000000 0.000000
# 4 0.000000 0.000000 0.000000 0.054854 0.000000 0.000000
# 5 0.000000 0.000000 0.000000 0.000000 0.084379 0.000000
# 6 0.000000 0.000000 0.000000 0.000000 0.000000 0.014521
#
#
# Mechanical properties :
#
#
# Convention : Reuss Voigt Hill
#
# Bulk Modulus (GPa) = 48.96246 54.28697 51.62472
# Shear Modulus (GPa) = 22.26914 31.89545 27.08229
#
# Velocity S-wave (km/s) = 3.45470 4.13450 3.80979
# Velocity P-wave (km/s) = 6.49262 7.20324 6.85714
#
# Compressibility (1/GPa) = 0.02042381
#
# Stress axis : x y z
#
# Youngs Moduli (GPa) = 80.71216 63.79585 70.77619
#
# Poissons Ratio (x) = 0.18953 0.44871
# Poissons Ratio (y) = 0.23979 0.11142
# Poissons Ratio (z) = 0.51170 0.10043
#
# Static dielectric constant tensor:
#      x y z
#    x 1.706030 0.000000 0.000000 
#    y 0.000000 1.720190 0.000000 
#    z 0.000000 0.000000 1.621370 
# 
# From -- ./inp_files/59820.got.cif
#   From: 2010.05.17/outbox.cif.g08.bks.cpg/sg66_30_cif.got.tgz:59820.got - 2010.06.03 17:51:23.
