data_PCOD9497970
_publ_section_title
;
Structure prediction by ZEFSAII (Michael W. Deem and Ramdas Pophale) SiO2 
 PCOD9497970
Probable space group: C C C M
;
_chemical_formula_sum "Si O2"
_cell_formula_units_Z 112
_cell_length_a 27.235879
_cell_length_b 14.795982
_cell_length_c 14.127381
_cell_angle_alpha 90.000000
_cell_angle_beta 90.000000
_cell_angle_gamma 90.000000
_cell_volume 5693.074252
_symmetry_space_group_name_H-M "C C C M"
_symmetry_group_IT_number 66
_symmetry_cell_setting 'orthorhombic'
loop_
_space_group_symop_operation_xyz
x,y,z
-x,-y,z
x,-y,1/2-z
-x,y,1/2-z
-x,-y,-z
x,y,-z
-x,y,1/2+z
x,-y,1/2+z
1/2+x,1/2+y,z
1/2-x,1/2-y,z
1/2+x,1/2-y,1/2-z
1/2-x,1/2+y,1/2-z
1/2-x,1/2-y,-z
1/2+x,1/2+y,-z
1/2-x,1/2+y,1/2+z
1/2+x,1/2-y,1/2+z
loop_
_atom_site_type_symbol
_atom_site_label
_atom_site_fract_x
_atom_site_fract_y
_atom_site_fract_z
Si Si1 0.384069 0.917742 0.888342
Si Si2 0.670484 0.459354 0.386451
Si Si3 0.130731 0.137409 0.280947
Si Si4 0.942243 0.722745 0.737593
Si Si5 0.265653 0.850436 0.385380
Si Si6 0.121583 0.624367 0.386437
Si Si7 0.193583 0.278388 0.390181
O O1 0.421016 0.850069 0.836803
O O2 0.327984 0.879505 0.875741
O O3 0.390924 0.021154 0.859929
O O4 0.393306 0.913920 0.000000
O O5 0.666118 0.458103 0.500000
O O6 0.650347 0.553074 0.343120
O O7 0.639034 0.386117 0.328705
O O8 0.726284 0.428463 0.359816
O O9 0.076375 0.177465 0.292823
O O10 0.164301 0.218449 0.316680
O O11 0.913862 0.693100 0.833149
O O12 0.000000 0.717760 0.750000
O O13 0.264916 0.849289 0.500000
O O14 0.250000 0.750000 0.353394
O O15 0.321615 0.864832 0.356988
O O16 0.118732 0.634591 0.500000
O O17 0.180625 0.255605 0.500000
O O18 0.250000 0.250000 0.380458
#
# Coordination Sequence:
#
# PCOD9497970 Si02
#       7
#    16  16  16  16  16  16  16
#     4   9  20  37  55  84 120 154 197 250 300 356
#     4  10  21  38  61  88 123 158 191 238 301 367
#     4  10  22  38  57  87 116 153 203 249 297 360
#     4  11  24  42  62  82 113 159 208 260 313 355
#     4   9  18  33  56  86 121 159 191 229 289 362
#     4  10  21  37  59  88 122 156 202 254 301 359
#     4   9  18  32  55  84 122 163 196 235 289 355
#
# _framework density 19.673027000000001
#
# number of rings (size 3 to 8) (size 9 to 14) (size 15 to 20)
#    0.000    2.286    0.000    1.714    2.000    6.857 
#    2.571    2.857    0.000    0.857    0.000    0.000 
#    0.000    0.000    0.000    0.000    0.000    0.000 
#
# Total GULP energy -312234.675274 kJ/mol
# GULP energy per Si atom -5575.619201 kJ/mol
# Density = 1.962825 g / cm^3
# Si number density = 19.673027 Si / 1000 Ang^3
#
#
#
# Elastic Constant Matrix: (Units=GPa)
#
#
# Indices 1 2 3 4 5 6 
#
# 1 137.0693 59.1090 27.2782 0.0000 0.0000 0.0000
# 2 59.1090 93.5347 34.7220 0.0000 0.0000 0.0000
# 3 27.2782 34.7220 91.0209 0.0000 0.0000 0.0000
# 4 0.0000 0.0000 0.0000 27.9688 0.0000 0.0000
# 5 0.0000 0.0000 0.0000 0.0000 3.1359 0.0000
# 6 0.0000 0.0000 0.0000 0.0000 0.0000 20.5056
#
#
#
# Elastic Compliance Matrix: (Units=1/GPa)
#
#
# Indices 1 2 3 4 5 6 
#
# 1 0.010065 -0.006106 -0.000687 0.000000 0.000000 0.000000
# 2 -0.006106 0.016159 -0.004334 0.000000 0.000000 0.000000
# 3 -0.000687 -0.004334 0.012846 0.000000 0.000000 0.000000
# 4 0.000000 0.000000 0.000000 0.035754 0.000000 0.000000
# 5 0.000000 0.000000 0.000000 0.000000 0.318886 0.000000
# 6 0.000000 0.000000 0.000000 0.000000 0.000000 0.048767
#
#
# Mechanical properties :
#
#
# Convention : Reuss Voigt Hill
#
# Bulk Modulus (GPa) = 59.46951 62.64926 61.05938
# Shear Modulus (GPa) = 10.63069 23.68979 17.16024
#
# Velocity S-wave (km/s) = 2.32711 3.47389 2.95663
# Velocity P-wave (km/s) = 6.12496 6.92856 6.53912
#
# Compressibility (1/GPa) = 0.01681534
#
# Stress axis : x y z
#
# Youngs Moduli (GPa) = 99.35115 61.88653 77.84587
#
# Poissons Ratio (x) = 0.37785 0.05351
# Poissons Ratio (y) = 0.60660 0.33741
# Poissons Ratio (z) = 0.06829 0.26823
#
# Static dielectric constant tensor:
#      x y z
#    x 1.688670 0.000000 0.000000 
#    y 0.000000 1.714410 0.000000 
#    z 0.000000 0.000000 1.735820 
# 
# From -- ./inp_files/33331.got.cif
#   From: 2010.05.17/outbox.cif.g08.bks.cpg/sg66_17_cif.got.tgz:33331.got - 2010.06.03 17:51:23.
