data_PCOD9497430
_publ_section_title
;
Structure prediction by ZEFSAII (Michael W. Deem and Ramdas Pophale) SiO2 
 PCOD9497430
Probable space group: C C C M
;
_chemical_formula_sum "Si O2"
_cell_formula_units_Z 64
_cell_length_a 11.466972
_cell_length_b 10.329476
_cell_length_c 24.395100
_cell_angle_alpha 90.000000
_cell_angle_beta 90.000000
_cell_angle_gamma 90.000000
_cell_volume 2889.546220
_symmetry_space_group_name_H-M "C C C M"
_symmetry_group_IT_number 66
_symmetry_cell_setting 'orthorhombic'
loop_
_space_group_symop_operation_xyz
x,y,z
-x,-y,z
x,-y,1/2-z
-x,y,1/2-z
-x,-y,-z
x,y,-z
-x,y,1/2+z
x,-y,1/2+z
1/2+x,1/2+y,z
1/2-x,1/2-y,z
1/2+x,1/2-y,1/2-z
1/2-x,1/2+y,1/2-z
1/2-x,1/2-y,-z
1/2+x,1/2+y,-z
1/2-x,1/2+y,1/2+z
1/2+x,1/2-y,1/2+z
loop_
_atom_site_type_symbol
_atom_site_label
_atom_site_fract_x
_atom_site_fract_y
_atom_site_fract_z
Si Si1 0.830032 0.573906 0.063422
Si Si2 0.372016 0.458631 0.621022
Si Si3 0.689839 0.121685 0.786616
Si Si4 0.447336 0.183852 0.608048
O O1 0.698098 0.559524 0.083813
O O2 0.884311 0.430772 0.074586
O O3 0.915850 0.665836 0.097833
O O4 0.837014 0.607772 0.000000
O O5 0.500000 0.500000 0.638543
O O6 0.289639 0.432083 0.672591
O O7 0.393911 0.321117 0.591429
O O8 0.750000 0.250000 0.760173
O O9 0.586526 0.163872 0.828002
O O10 0.655343 0.000000 0.750000
#
# Coordination Sequence:
#
# PCOD9497430 Si02
#       4
#    16  16  16  16
#     4  10  20  37  62  88 116 159 210 248 299 366
#     4  10  22  39  58  84 128 159 194 254 312 362
#     4   9  19  40  65  89 118 159 204 247 307 374
#     4   9  19  38  61  85 120 153 204 253 303 359
#
# _framework density 22.148806
#
# number of rings (size 3 to 8) (size 9 to 14) (size 15 to 20)
#    0.000    2.500    0.000    3.750    0.000    5.000 
#   13.500   11.250   16.500    0.000    0.000    0.000 
#    0.000    0.000    0.000    0.000    0.000    0.000 
#
# Total GULP energy -178636.732795 kJ/mol
# GULP energy per Si atom -5582.397900 kJ/mol
# Density = 2.209839 g / cm^3
# Si number density = 22.148806 Si / 1000 Ang^3
#
#
#
# Elastic Constant Matrix: (Units=GPa)
#
#
# Indices 1 2 3 4 5 6 
#
# 1 122.7288 51.3053 23.7941 0.0000 0.0000 0.0000
# 2 51.3053 81.6967 36.5690 0.0000 0.0000 0.0000
# 3 23.7941 36.5690 46.9434 0.0000 0.0000 0.0000
# 4 0.0000 0.0000 0.0000 -2.2244 0.0000 0.0000
# 5 0.0000 0.0000 0.0000 0.0000 1.4442 0.0000
# 6 0.0000 0.0000 0.0000 0.0000 0.0000 21.0267
#
#
#
# Elastic Compliance Matrix: (Units=1/GPa)
#
#
# Indices 1 2 3 4 5 6 
#
# 1 0.011051 -0.006806 -0.000300 0.000000 0.000000 0.000000
# 2 -0.006806 0.022985 -0.014456 0.000000 0.000000 0.000000
# 3 -0.000300 -0.014456 0.032715 0.000000 0.000000 0.000000
# 4 0.000000 0.000000 0.000000 -0.449567 0.000000 0.000000
# 5 0.000000 0.000000 0.000000 0.000000 0.692446 0.000000
# 6 0.000000 0.000000 0.000000 0.000000 0.000000 0.047559
#
#
# Mechanical properties :
#
#
# Convention : Reuss Voigt Hill
#
# Bulk Modulus (GPa) = 42.32118 52.74508 47.53313
# Shear Modulus (GPa) = 12.24926 13.36267 12.80596
#
# Velocity S-wave (km/s) = 2.35424 2.45891 2.40714
# Velocity P-wave (km/s) = 5.15161 5.65042 5.40677
#
# Compressibility (1/GPa) = 0.02362883
#
# Stress axis : x y z
#
# Youngs Moduli (GPa) = 90.48668 43.50611 30.56691
#
# Poissons Ratio (x) = 0.29611 0.00916
# Poissons Ratio (y) = 0.61586 0.44187
# Poissons Ratio (z) = 0.02711 0.62891
#
# Static dielectric constant tensor:
#      x y z
#    x 1.845650 0.000000 0.000000 
#    y 0.000000 1.893460 0.000000 
#    z 0.000000 0.000000 1.785430 
# 
# From -- ./inp_files/47993.got.cif
#   From: 2010.05.17/outbox.cif.g08.bks.cpg/sg66_24_cif.got.tgz:47993.got - 2010.06.03 17:51:23.
