data_PCOD9497844
_publ_section_title
;
Structure prediction by ZEFSAII (Michael W. Deem and Ramdas Pophale) SiO2 
 PCOD9497844
Probable space group: C C C M
;
_chemical_formula_sum "Si O2"
_cell_formula_units_Z 80
_cell_length_a 13.968935
_cell_length_b 11.911136
_cell_length_c 23.214404
_cell_angle_alpha 90.000000
_cell_angle_beta 90.000000
_cell_angle_gamma 90.000000
_cell_volume 3862.549144
_symmetry_space_group_name_H-M "C C C M"
_symmetry_group_IT_number 66
_symmetry_cell_setting 'orthorhombic'
loop_
_space_group_symop_operation_xyz
x,y,z
-x,-y,z
x,-y,1/2-z
-x,y,1/2-z
-x,-y,-z
x,y,-z
-x,y,1/2+z
x,-y,1/2+z
1/2+x,1/2+y,z
1/2-x,1/2-y,z
1/2+x,1/2-y,1/2-z
1/2-x,1/2+y,1/2-z
1/2-x,1/2-y,-z
1/2+x,1/2+y,-z
1/2-x,1/2+y,1/2+z
1/2+x,1/2-y,1/2+z
loop_
_atom_site_type_symbol
_atom_site_label
_atom_site_fract_x
_atom_site_fract_y
_atom_site_fract_z
Si Si1 0.806674 0.647024 0.794909
Si Si2 0.494311 0.865873 0.347955
Si Si3 0.290218 0.897723 0.834370
Si Si4 0.059117 0.175535 0.065873
Si Si5 0.149819 0.059925 0.433368
O O1 0.750000 0.750000 0.821954
O O2 0.797505 0.532433 0.829806
O O3 0.762312 0.632538 0.731143
O O4 0.922197 0.657838 0.794594
O O5 0.606587 0.839751 0.342146
O O6 0.446444 0.787125 0.396160
O O7 0.500000 0.000000 0.359586
O O8 0.219604 0.881763 0.887589
O O9 0.952591 0.121816 0.067668
O O10 0.127616 0.070817 0.082407
O O11 0.081864 0.204568 0.000000
O O12 0.184559 0.063416 0.500000
#
# Coordination Sequence:
#
# PCOD9497844 Si02
#       5
#    16  16  16  16  16
#     4  10  21  37  57  79 113 154 197 242 296 354
#     4  10  21  36  55  82 117 153 191 240 292 356
#     4  10  21  36  57  85 114 150 198 241 297 354
#     4   9  19  36  59  85 118 154 192 238 294 353
#     4   9  19  37  60  86 115 152 193 242 298 351
#
# _framework density 20.711711000000001
#
# number of rings (size 3 to 8) (size 9 to 14) (size 15 to 20)
#    0.000    2.400    0.000    3.000    2.800    3.600 
#    0.000    5.000    0.000   13.200    0.000    0.000 
#    0.000    0.000    0.000    0.000    0.000    0.000 
#
# Total GULP energy -222707.338295 kJ/mol
# GULP energy per Si atom -5567.683457 kJ/mol
# Density = 2.066457 g / cm^3
# Si number density = 20.711711 Si / 1000 Ang^3
#
#
#
# Elastic Constant Matrix: (Units=GPa)
#
#
# Indices 1 2 3 4 5 6 
#
# 1 87.5599 26.2608 48.7598 0.0000 0.0000 0.0000
# 2 26.2608 112.4367 24.9583 0.0000 0.0000 0.0000
# 3 48.7598 24.9583 90.1757 0.0000 0.0000 0.0000
# 4 0.0000 0.0000 0.0000 -52.2768 0.0000 0.0000
# 5 0.0000 0.0000 0.0000 0.0000 30.3229 0.0000
# 6 0.0000 0.0000 0.0000 0.0000 0.0000 14.8006
#
#
#
# Elastic Compliance Matrix: (Units=1/GPa)
#
#
# Indices 1 2 3 4 5 6 
#
# 1 0.016764 -0.002028 -0.008504 0.000000 0.000000 0.000000
# 2 -0.002028 0.009721 -0.001594 0.000000 0.000000 0.000000
# 3 -0.008504 -0.001594 0.016129 0.000000 0.000000 0.000000
# 4 0.000000 0.000000 0.000000 -0.019129 0.000000 0.000000
# 5 0.000000 0.000000 0.000000 0.000000 0.032978 0.000000
# 6 0.000000 0.000000 0.000000 0.000000 0.000000 0.067565
#
#
# Mechanical properties :
#
#
# Convention : Reuss Voigt Hill
#
# Bulk Modulus (GPa) = 54.45631 54.45888 54.45760
# Shear Modulus (GPa) = 32.38328 11.24892 21.81610
#
# Velocity S-wave (km/s) = 3.95843 2.33302 3.24901
# Velocity P-wave (km/s) = 6.87327 5.79725 6.35807
#
# Compressibility (1/GPa) = 0.01836334
#
# Stress axis : x y z
#
# Youngs Moduli (GPa) = 59.65036 102.86599 62.00133
#
# Poissons Ratio (x) = 0.20860 0.52723
# Poissons Ratio (y) = 0.12097 0.09884
# Poissons Ratio (z) = 0.50724 0.16398
#
# Static dielectric constant tensor:
#      x y z
#    x 1.754230 0.000000 0.000000 
#    y 0.000000 1.775490 0.000000 
#    z 0.000000 0.000000 1.742820 
# 
# From -- ./inp_files/57865.got.cif
#   From: 2010.05.17/outbox.cif.g08.bks.cpg/sg66_29_cif.got.tgz:57865.got - 2010.06.03 17:51:23.
