data_PCOD9497871
_publ_section_title
;
Structure prediction by ZEFSAII (Michael W. Deem and Ramdas Pophale) SiO2 
 PCOD9497871
Probable space group: C C C M
;
_chemical_formula_sum "Si O2"
_cell_formula_units_Z 60
_cell_length_a 6.505228
_cell_length_b 13.462399
_cell_length_c 32.241737
_cell_angle_alpha 90.000000
_cell_angle_beta 90.000000
_cell_angle_gamma 90.000000
_cell_volume 2823.601551
_symmetry_space_group_name_H-M "C C C M"
_symmetry_group_IT_number 66
_symmetry_cell_setting 'orthorhombic'
loop_
_space_group_symop_operation_xyz
x,y,z
-x,-y,z
x,-y,1/2-z
-x,y,1/2-z
-x,-y,-z
x,y,-z
-x,y,1/2+z
x,-y,1/2+z
1/2+x,1/2+y,z
1/2-x,1/2-y,z
1/2+x,1/2-y,1/2-z
1/2-x,1/2+y,1/2-z
1/2-x,1/2-y,-z
1/2+x,1/2+y,-z
1/2-x,1/2+y,1/2+z
1/2+x,1/2-y,1/2+z
loop_
_atom_site_type_symbol
_atom_site_label
_atom_site_fract_x
_atom_site_fract_y
_atom_site_fract_z
Si Si1 0.415363 0.388752 0.618743
Si Si2 0.250000 0.250000 0.925093
Si Si3 0.122601 0.104439 0.711649
Si Si4 0.500000 0.000000 0.250000
Si Si5 0.128789 0.645794 0.955693
O O1 0.500000 0.500000 0.620334
O O2 0.587489 0.314677 0.600803
O O3 0.372387 0.352586 0.665589
O O4 0.222845 0.395676 0.586958
O O5 0.390506 0.173536 0.950763
O O6 0.000000 0.156923 0.750000
O O7 0.350434 0.071716 0.724307
O O8 0.000000 0.000000 0.707720
O O9 0.250000 0.750000 0.958704
O O10 0.166120 0.592726 0.000000
#
# Coordination Sequence:
#
# PCOD9497871 Si02
#       5
#    16   8  16   4  16
#     4  10  21  36  58  86 114 146 191 237 286 349
#     4  10  21  38  58  76 114 152 186 236 289 336
#     4   8  16  30  51  83 110 139 185 224 269 340
#     4   8  14  28  52  78 110 140 174 228 274 314
#     4   9  19  36  57  82 112 150 193 236 285 342
#
# _framework density 21.249457
#
# number of rings (size 3 to 8) (size 9 to 14) (size 15 to 20)
#    0.000    3.200    0.000    0.400    0.000    9.067 
#    0.000    1.333    8.800    0.000    0.000    0.000 
#    0.000    0.000    0.000    0.000    0.000    0.000 
#
# Total GULP energy -167004.896779 kJ/mol
# GULP energy per Si atom -5566.829893 kJ/mol
# Density = 2.120109 g / cm^3
# Si number density = 21.249457 Si / 1000 Ang^3
#
#
#
# Elastic Constant Matrix: (Units=GPa)
#
#
# Indices 1 2 3 4 5 6 
#
# 1 134.7592 4.4540 73.6429 0.0000 0.0000 0.0000
# 2 4.4540 41.6459 14.8751 0.0000 0.0000 0.0000
# 3 73.6429 14.8751 216.8506 0.0000 0.0000 0.0000
# 4 0.0000 0.0000 0.0000 38.4844 0.0000 0.0000
# 5 0.0000 0.0000 0.0000 0.0000 -25.0844 0.0000
# 6 0.0000 0.0000 0.0000 0.0000 0.0000 19.2424
#
#
#
# Elastic Compliance Matrix: (Units=1/GPa)
#
#
# Indices 1 2 3 4 5 6 
#
# 1 0.009112 0.000134 -0.003104 0.000000 0.000000 0.000000
# 2 0.000134 0.024617 -0.001734 0.000000 0.000000 0.000000
# 3 -0.003104 -0.001734 0.005784 0.000000 0.000000 0.000000
# 4 0.000000 0.000000 0.000000 0.025985 0.000000 0.000000
# 5 0.000000 0.000000 0.000000 0.000000 -0.039865 0.000000
# 6 0.000000 0.000000 0.000000 0.000000 0.000000 0.051969
#
#
# Mechanical properties :
#
#
# Convention : Reuss Voigt Hill
#
# Bulk Modulus (GPa) = 33.21588 64.35553 48.78570
# Shear Modulus (GPa) = 51.52264 26.54739 39.03501
#
# Velocity S-wave (km/s) = 4.92942 3.53841 4.29066
# Velocity P-wave (km/s) = 6.93284 6.85895 6.89600
#
# Compressibility (1/GPa) = 0.03010608
#
# Stress axis : x y z
#
# Youngs Moduli (GPa) = 109.74112 40.62231 172.87664
#
# Poissons Ratio (x) = -0.00544 0.53657
# Poissons Ratio (y) = -0.01471 0.29979
# Poissons Ratio (z) = 0.34061 0.07044
#
# Static dielectric constant tensor:
#      x y z
#    x 1.770560 0.000000 0.000000 
#    y 0.000000 1.797700 0.000000 
#    z 0.000000 0.000000 1.887750 
# 
# From -- ./inp_files/66922.got.cif
#   From: 2010.05.17/outbox.cif.g08.bks.cpg/sg66_34_cif.got.tgz:66922.got - 2010.06.03 17:51:23.
