data_PCOD9497504
_publ_section_title
;
Structure prediction by ZEFSAII (Michael W. Deem and Ramdas Pophale) SiO2 
 PCOD9497504
Probable space group: C C C M
;
_chemical_formula_sum "Si O2"
_cell_formula_units_Z 96
_cell_length_a 18.766828
_cell_length_b 14.985685
_cell_length_c 16.053040
_cell_angle_alpha 90.000000
_cell_angle_beta 90.000000
_cell_angle_gamma 90.000000
_cell_volume 4514.657005
_symmetry_space_group_name_H-M "C C C M"
_symmetry_group_IT_number 66
_symmetry_cell_setting 'orthorhombic'
loop_
_space_group_symop_operation_xyz
x,y,z
-x,-y,z
x,-y,1/2-z
-x,y,1/2-z
-x,-y,-z
x,y,-z
-x,y,1/2+z
x,-y,1/2+z
1/2+x,1/2+y,z
1/2-x,1/2-y,z
1/2+x,1/2-y,1/2-z
1/2-x,1/2+y,1/2-z
1/2-x,1/2-y,-z
1/2+x,1/2+y,-z
1/2-x,1/2+y,1/2+z
1/2+x,1/2-y,1/2+z
loop_
_atom_site_type_symbol
_atom_site_label
_atom_site_fract_x
_atom_site_fract_y
_atom_site_fract_z
Si Si1 0.447585 0.085091 0.596505
Si Si2 0.913117 0.312239 0.406786
Si Si3 0.576389 0.585698 0.408636
Si Si4 0.660708 0.142987 0.761596
Si Si5 0.321892 0.644443 0.785960
Si Si6 0.573175 0.613080 0.141244
O O1 0.421070 0.081239 0.500000
O O2 0.503006 0.167245 0.603230
O O3 0.388593 0.097026 0.668157
O O4 0.500000 0.000000 0.609043
O O5 0.892467 0.342552 0.500000
O O6 0.872729 0.361220 0.331081
O O7 0.902228 0.206069 0.399081
O O8 0.558219 0.619598 0.500000
O O9 0.651814 0.619184 0.377132
O O10 0.579934 0.478735 0.408659
O O11 0.512315 0.617841 0.348810
O O12 0.667327 0.249179 0.778877
O O13 0.742529 0.113200 0.765761
O O14 0.377642 0.602180 0.721524
#
# Coordination Sequence:
#
# PCOD9497504 Si02
#       6
#    16  16  16  16  16  16
#     4  10  22  41  64  92 121 157 210 262 308 366
#     4  10  20  38  63  90 117 156 208 255 302 362
#     4  11  21  35  58  90 121 155 199 246 301 362
#     4  10  22  40  62  86 123 163 202 254 318 370
#     4  10  22  39  58  88 122 162 204 248 309 375
#     4  10  20  38  59  84 121 158 198 243 296 365
#
# _framework density 21.264074999999998
#
# number of rings (size 3 to 8) (size 9 to 14) (size 15 to 20)
#    0.000    1.833    0.000    4.500    0.000    8.000 
#    6.000   10.000    0.000    0.000    0.000    0.000 
#    0.000    0.000    0.000    0.000    0.000    0.000 
#
# Total GULP energy -267883.360184 kJ/mol
# GULP energy per Si atom -5580.903337 kJ/mol
# Density = 2.121568 g / cm^3
# Si number density = 21.264075 Si / 1000 Ang^3
#
#
#
# Elastic Constant Matrix: (Units=GPa)
#
#
# Indices 1 2 3 4 5 6 
#
# 1 140.2575 16.3020 107.1946 0.0000 0.0000 0.0000
# 2 16.3020 61.2895 26.9949 0.0000 0.0000 0.0000
# 3 107.1946 26.9949 161.4511 0.0000 0.0000 0.0000
# 4 0.0000 0.0000 0.0000 22.9930 0.0000 0.0000
# 5 0.0000 0.0000 0.0000 0.0000 18.0763 0.0000
# 6 0.0000 0.0000 0.0000 0.0000 0.0000 20.8040
#
#
#
# Elastic Compliance Matrix: (Units=1/GPa)
#
#
# Indices 1 2 3 4 5 6 
#
# 1 0.014484 0.000414 -0.009686 0.000000 0.000000 0.000000
# 2 0.000414 0.017625 -0.003222 0.000000 0.000000 0.000000
# 3 -0.009686 -0.003222 0.013163 0.000000 0.000000 0.000000
# 4 0.000000 0.000000 0.000000 0.043492 0.000000 0.000000
# 5 0.000000 0.000000 0.000000 0.000000 0.055321 0.000000
# 6 0.000000 0.000000 0.000000 0.000000 0.000000 0.048068
#
#
# Mechanical properties :
#
#
# Convention : Reuss Voigt Hill
#
# Bulk Modulus (GPa) = 49.29779 73.77569 61.53674
# Shear Modulus (GPa) = 22.33114 26.54175 24.43644
#
# Velocity S-wave (km/s) = 3.24417 3.53682 3.39365
# Velocity P-wave (km/s) = 6.10465 7.17280 6.66017
#
# Compressibility (1/GPa) = 0.02028489
#
# Stress axis : x y z
#
# Youngs Moduli (GPa) = 69.03987 56.73788 75.96806
#
# Poissons Ratio (x) = -0.02347 0.73583
# Poissons Ratio (y) = -0.02855 0.24473
# Poissons Ratio (z) = 0.66872 0.18278
#
# Static dielectric constant tensor:
#      x y z
#    x 1.743820 0.000000 0.000000 
#    y 0.000000 1.815700 0.000000 
#    z 0.000000 0.000000 1.792280 
# 
# From -- ./inp_files/31195.got.cif
#   From: 2010.05.17/outbox.cif.g08.bks.cpg/sg66_16_cif.got.tgz:31195.got - 2010.06.03 17:51:23.
