data_PCOD9497662
_publ_section_title
;
Structure prediction by ZEFSAII (Michael W. Deem and Ramdas Pophale) SiO2 
 PCOD9497662
Probable space group: C C C M
;
_chemical_formula_sum "Si O2"
_cell_formula_units_Z 116
_cell_length_a 11.543907
_cell_length_b 27.075824
_cell_length_c 18.397479
_cell_angle_alpha 90.000000
_cell_angle_beta 90.000000
_cell_angle_gamma 90.000000
_cell_volume 5750.330648
_symmetry_space_group_name_H-M "C C C M"
_symmetry_group_IT_number 66
_symmetry_cell_setting 'orthorhombic'
loop_
_space_group_symop_operation_xyz
x,y,z
-x,-y,z
x,-y,1/2-z
-x,y,1/2-z
-x,-y,-z
x,y,-z
-x,y,1/2+z
x,-y,1/2+z
1/2+x,1/2+y,z
1/2-x,1/2-y,z
1/2+x,1/2-y,1/2-z
1/2-x,1/2+y,1/2-z
1/2-x,1/2-y,-z
1/2+x,1/2+y,-z
1/2-x,1/2+y,1/2+z
1/2+x,1/2-y,1/2+z
loop_
_atom_site_type_symbol
_atom_site_label
_atom_site_fract_x
_atom_site_fract_y
_atom_site_fract_z
Si Si1 0.500000 0.000000 0.750000
Si Si2 0.201241 0.695375 0.149854
Si Si3 0.230131 0.543841 0.300925
Si Si4 0.047875 0.681373 0.582989
Si Si5 0.907852 0.862400 0.583671
Si Si6 0.621325 0.293555 0.418089
Si Si7 0.785048 0.346349 0.697114
Si Si8 0.926618 0.050061 0.584229
O O1 0.408077 0.968742 0.701381
O O2 0.250000 0.750000 0.136474
O O3 0.294931 0.654554 0.125913
O O4 0.180686 0.687925 0.235707
O O5 0.084347 0.688377 0.105259
O O6 0.279211 0.500000 0.250000
O O7 0.246727 0.599629 0.273387
O O8 0.305828 0.543908 0.374010
O O9 0.057578 0.664990 0.500000
O O10 0.111568 0.734796 0.590208
O O11 0.109655 0.646630 0.640984
O O12 0.877099 0.875033 0.500000
O O13 0.992158 0.815135 0.582618
O O14 0.988456 0.906668 0.613225
O O15 0.667883 0.304660 0.500000
O O16 0.687558 0.320688 0.352951
O O17 0.902862 0.062770 0.500000
O O18 0.000000 0.000000 0.587396
#
# Coordination Sequence:
#
# PCOD9497662 Si02
#       8
#     4  16  16  16  16  16  16  16
#     4   8  24  44  64  88 124 168 214 270 324 420
#     4  12  25  39  60  93 139 178 211 262 326 389
#     4  10  24  45  69  90 130 171 214 267 344 398
#     4  11  24  41  65  92 127 177 223 263 319 390
#     4  10  21  39  64  94 130 171 213 257 317 388
#     4  10  20  40  65  91 126 168 216 263 314 383
#     4  12  25  40  63  94 128 166 216 279 321 389
#     4  10  22  43  71 103 132 162 217 281 330 391
#
# _framework density 20.172753
#
# number of rings (size 3 to 8) (size 9 to 14) (size 15 to 20)
#    0.414    0.966    2.759    2.483    3.862    3.034 
#    0.000    0.345    0.000    0.000    0.000    0.000 
#    0.000    0.000    0.000    0.000    0.000    0.000 
#
# Total GULP energy -323594.194916 kJ/mol
# GULP energy per Si atom -5579.210257 kJ/mol
# Density = 2.012684 g / cm^3
# Si number density = 20.172753 Si / 1000 Ang^3
#
#
#
# Elastic Constant Matrix: (Units=GPa)
#
#
# Indices 1 2 3 4 5 6 
#
# 1 113.0398 18.9923 54.2775 0.0000 0.0000 0.0000
# 2 18.9923 78.7469 21.5344 0.0000 0.0000 0.0000
# 3 54.2775 21.5344 80.9043 0.0000 0.0000 0.0000
# 4 0.0000 0.0000 0.0000 21.2703 0.0000 0.0000
# 5 0.0000 0.0000 0.0000 0.0000 3.7874 0.0000
# 6 0.0000 0.0000 0.0000 0.0000 0.0000 21.3411
#
#
#
# Elastic Compliance Matrix: (Units=1/GPa)
#
#
# Indices 1 2 3 4 5 6 
#
# 1 0.013099 -0.000815 -0.008571 0.000000 0.000000 0.000000
# 2 -0.000815 0.013747 -0.003112 0.000000 0.000000 0.000000
# 3 -0.008571 -0.003112 0.018939 0.000000 0.000000 0.000000
# 4 0.000000 0.000000 0.000000 0.047014 0.000000 0.000000
# 5 0.000000 0.000000 0.000000 0.000000 0.264034 0.000000
# 6 0.000000 0.000000 0.000000 0.000000 0.000000 0.046858
#
#
# Mechanical properties :
#
#
# Convention : Reuss Voigt Hill
#
# Bulk Modulus (GPa) = 48.10510 51.36661 49.73585
# Shear Modulus (GPa) = 11.47802 21.13889 16.30845
#
# Velocity S-wave (km/s) = 2.38793 3.24063 2.84639
# Velocity P-wave (km/s) = 5.61260 6.28656 5.95912
#
# Compressibility (1/GPa) = 0.02078782
#
# Stress axis : x y z
#
# Youngs Moduli (GPa) = 76.34293 72.74549 52.80234
#
# Poissons Ratio (x) = 0.05932 0.45256
# Poissons Ratio (y) = 0.06225 0.16432
# Poissons Ratio (z) = 0.65432 0.22638
#
# Static dielectric constant tensor:
#      x y z
#    x 1.725390 0.000000 0.000000 
#    y 0.000000 1.740590 0.000000 
#    z 0.000000 0.000000 1.725070 
# 
# From -- ./inp_files/39139.got.cif
#   From: 2010.05.17/outbox.cif.g08.bks.cpg/sg66_20_cif.got.tgz:39139.got - 2010.06.03 17:51:23.
