data_PCOD9497566
_publ_section_title
;
Structure prediction by ZEFSAII (Michael W. Deem and Ramdas Pophale) SiO2 
 PCOD9497566
Probable space group: C C C M
;
_chemical_formula_sum "Si O2"
_cell_formula_units_Z 112
_cell_length_a 27.417846
_cell_length_b 11.721810
_cell_length_c 17.410738
_cell_angle_alpha 90.000000
_cell_angle_beta 90.000000
_cell_angle_gamma 90.000000
_cell_volume 5595.581048
_symmetry_space_group_name_H-M "C C C M"
_symmetry_group_IT_number 66
_symmetry_cell_setting 'orthorhombic'
loop_
_space_group_symop_operation_xyz
x,y,z
-x,-y,z
x,-y,1/2-z
-x,y,1/2-z
-x,-y,-z
x,y,-z
-x,y,1/2+z
x,-y,1/2+z
1/2+x,1/2+y,z
1/2-x,1/2-y,z
1/2+x,1/2-y,1/2-z
1/2-x,1/2+y,1/2-z
1/2-x,1/2-y,-z
1/2+x,1/2+y,-z
1/2-x,1/2+y,1/2+z
1/2+x,1/2-y,1/2+z
loop_
_atom_site_type_symbol
_atom_site_label
_atom_site_fract_x
_atom_site_fract_y
_atom_site_fract_z
Si Si1 0.570457 0.964192 0.660400
Si Si2 0.233297 0.127153 0.408637
Si Si3 0.048162 0.925524 0.408905
Si Si4 0.678536 0.989002 0.840408
Si Si5 0.350532 0.485764 0.840388
Si Si6 0.513479 0.173779 0.591508
Si Si7 0.691257 0.747215 0.910125
O O1 0.535786 0.859171 0.637357
O O2 0.565224 0.000000 0.750000
O O3 0.627509 0.946821 0.644339
O O4 0.550314 0.071048 0.611360
O O5 0.230244 0.131856 0.500000
O O6 0.250000 0.250000 0.378017
O O7 0.275659 0.039344 0.385390
O O8 0.181684 0.085480 0.377445
O O9 0.059517 0.924611 0.500000
O O10 0.093543 0.980262 0.365621
O O11 0.036512 0.794999 0.386119
O O12 0.000000 0.000000 0.397126
O O13 0.671970 0.858405 0.866209
O O14 0.688829 0.000000 0.750000
O O15 0.346222 0.500000 0.750000
O O16 0.327604 0.367291 0.870662
O O17 0.503606 0.175839 0.500000
O O18 0.750000 0.750000 0.907089
O O19 0.676555 0.749415 0.000000
#
# Coordination Sequence:
#
# PCOD9497566 Si02
#       7
#    16  16  16  16  16  16  16
#     4  10  21  38  58  94 131 166 199 262 330 382
#     4  11  25  43  65  93 131 176 216 263 327 400
#     4  10  23  45  67  91 124 167 218 266 316 387
#     4  11  24  39  64  97 136 172 216 271 330 395
#     4  12  26  43  67  97 133 169 217 279 333 387
#     4  10  20  38  65  91 118 161 213 264 314 374
#     4  11  23  41  69  97 127 176 228 271 320 391
#
# _framework density 20.015795000000001
#
# number of rings (size 3 to 8) (size 9 to 14) (size 15 to 20)
#    0.000    1.286    1.429    4.714    2.000    4.857 
#    7.714    2.857    0.000    0.000    0.000    0.000 
#    0.000    0.000    0.000    0.000    0.000    0.000 
#
# Total GULP energy -313160.748327 kJ/mol
# GULP energy per Si atom -5592.156220 kJ/mol
# Density = 1.997024 g / cm^3
# Si number density = 20.015795 Si / 1000 Ang^3
#
#
#
# Elastic Constant Matrix: (Units=GPa)
#
#
# Indices 1 2 3 4 5 6 
#
# 1 82.5566 15.1142 41.4329 0.0000 0.0000 0.0000
# 2 15.1142 90.7494 37.0264 0.0000 0.0000 0.0000
# 3 41.4329 37.0264 102.5239 0.0000 0.0000 0.0000
# 4 0.0000 0.0000 0.0000 59.4406 0.0000 0.0000
# 5 0.0000 0.0000 0.0000 0.0000 31.9308 0.0000
# 6 0.0000 0.0000 0.0000 0.0000 0.0000 20.1658
#
#
#
# Elastic Compliance Matrix: (Units=1/GPa)
#
#
# Indices 1 2 3 4 5 6 
#
# 1 0.015195 -0.000030 -0.006130 0.000000 0.000000 0.000000
# 2 -0.000030 0.012924 -0.004655 0.000000 0.000000 0.000000
# 3 -0.006130 -0.004655 0.013912 0.000000 0.000000 0.000000
# 4 0.000000 0.000000 0.000000 0.016824 0.000000 0.000000
# 5 0.000000 0.000000 0.000000 0.000000 0.031318 0.000000
# 6 0.000000 0.000000 0.000000 0.000000 0.000000 0.049589
#
#
# Mechanical properties :
#
#
# Convention : Reuss Voigt Hill
#
# Bulk Modulus (GPa) = 49.01731 51.44187 50.22959
# Shear Modulus (GPa) = 29.72804 34.45787 32.09296
#
# Velocity S-wave (km/s) = 3.85805 4.15364 4.00857
# Velocity P-wave (km/s) = 6.66247 6.98284 6.82454
#
# Compressibility (1/GPa) = 0.02040096
#
# Stress axis : x y z
#
# Youngs Moduli (GPa) = 65.81207 77.37695 71.87813
#
# Poissons Ratio (x) = 0.00229 0.44061
# Poissons Ratio (y) = 0.00195 0.33462
# Poissons Ratio (z) = 0.40343 0.36022
#
# Static dielectric constant tensor:
#      x y z
#    x 1.705250 0.000000 0.000000 
#    y 0.000000 1.707710 0.000000 
#    z 0.000000 0.000000 1.673160 
# 
# From -- ./inp_files/33838.got.cif
#   From: 2010.05.17/outbox.cif.g08.bks.cpg/sg66_17_cif.got.tgz:33838.got - 2010.06.03 17:51:23.
