data_PCOD9497099
_publ_section_title
;
Structure prediction by ZEFSAII (Michael W. Deem and Ramdas Pophale) SiO2 
 PCOD9497099
Probable space group: C C C M
;
_chemical_formula_sum "Si O2"
_cell_formula_units_Z 88
_cell_length_a 26.884600
_cell_length_b 11.469738
_cell_length_c 14.699569
_cell_angle_alpha 90.000000
_cell_angle_beta 90.000000
_cell_angle_gamma 90.000000
_cell_volume 4532.749075
_symmetry_space_group_name_H-M "C C C M"
_symmetry_group_IT_number 66
_symmetry_cell_setting 'orthorhombic'
loop_
_space_group_symop_operation_xyz
x,y,z
-x,-y,z
x,-y,1/2-z
-x,y,1/2-z
-x,-y,-z
x,y,-z
-x,y,1/2+z
x,-y,1/2+z
1/2+x,1/2+y,z
1/2-x,1/2-y,z
1/2+x,1/2-y,1/2-z
1/2-x,1/2+y,1/2-z
1/2-x,1/2-y,-z
1/2+x,1/2+y,-z
1/2-x,1/2+y,1/2+z
1/2+x,1/2-y,1/2+z
loop_
_atom_site_type_symbol
_atom_site_label
_atom_site_fract_x
_atom_site_fract_y
_atom_site_fract_z
Si Si1 0.277154 0.619797 0.701423
Si Si2 0.943343 0.461337 0.000000
Si Si3 0.020288 0.129198 0.104073
Si Si4 0.619890 0.285193 0.683145
Si Si5 0.545338 0.169512 0.812343
Si Si6 0.750919 0.110224 0.500000
Si Si7 0.142313 0.352101 0.000000
O O1 0.258352 0.500000 0.750000
O O2 0.250000 0.750000 0.711657
O O3 0.334208 0.647391 0.727502
O O4 0.275867 0.581921 0.595258
O O5 0.938230 0.395440 0.903838
O O6 0.000000 0.500000 0.000000
O O7 0.905965 0.568340 0.000000
O O8 0.073627 0.136043 0.151736
O O9 0.980373 0.211603 0.152255
O O10 0.026420 0.170694 0.000000
O O11 0.000000 0.000000 0.104407
O O12 0.593012 0.192945 0.749409
O O13 0.640713 0.223525 0.592029
O O14 0.500000 0.119809 0.750000
O O15 0.750000 0.250000 0.500000
O O16 0.693134 0.074056 0.500000
#
# Coordination Sequence:
#
# PCOD9497099 Si02
#       7
#    16   8  16  16  16   8   8
#     4  11  24  44  73 101 135 171 226 287 343 409
#     4  12  24  40  59  89 137 180 222 264 333 393
#     4  10  20  35  59  84 124 171 213 259 320 392
#     4  11  22  39  64  94 123 167 223 266 336 388
#     4  10  23  38  56  89 132 167 219 275 320 391
#     4  10  20  46  68  94 128 169 232 283 329 410
#     4  12  22  40  70  89 119 179 224 264 317 406
#
# _framework density 19.414266000000001
#
# number of rings (size 3 to 8) (size 9 to 14) (size 15 to 20)
#    0.000    1.273    5.455    2.182    2.545    6.545 
#    0.000    1.364    0.000    0.000    0.000    0.000 
#    0.000    0.000    0.000    0.000    0.000    0.000 
#
# Total GULP energy -245287.966295 kJ/mol
# GULP energy per Si atom -5574.726507 kJ/mol
# Density = 1.937008 g / cm^3
# Si number density = 19.414266 Si / 1000 Ang^3
#
#
#
# Elastic Constant Matrix: (Units=GPa)
#
#
# Indices 1 2 3 4 5 6 
#
# 1 83.4339 10.3078 6.6037 0.0000 0.0000 0.0000
# 2 10.3078 77.4301 31.0423 0.0000 0.0000 0.0000
# 3 6.6037 31.0423 107.9606 0.0000 0.0000 0.0000
# 4 0.0000 0.0000 0.0000 62.7832 0.0000 0.0000
# 5 0.0000 0.0000 0.0000 0.0000 10.3651 0.0000
# 6 0.0000 0.0000 0.0000 0.0000 0.0000 16.2115
#
#
#
# Elastic Compliance Matrix: (Units=1/GPa)
#
#
# Indices 1 2 3 4 5 6 
#
# 1 0.012195 -0.001497 -0.000316 0.000000 0.000000 0.000000
# 2 -0.001497 0.014781 -0.004159 0.000000 0.000000 0.000000
# 3 -0.000316 -0.004159 0.010478 0.000000 0.000000 0.000000
# 4 0.000000 0.000000 0.000000 0.015928 0.000000 0.000000
# 5 0.000000 0.000000 0.000000 0.000000 0.096478 0.000000
# 6 0.000000 0.000000 0.000000 0.000000 0.000000 0.061684
#
#
# Mechanical properties :
#
#
# Convention : Reuss Voigt Hill
#
# Bulk Modulus (GPa) = 39.19682 40.52581 39.86131
# Shear Modulus (GPa) = 21.55257 32.59668 27.07463
#
# Velocity S-wave (km/s) = 3.33549 4.10201 3.73845
# Velocity P-wave (km/s) = 5.92179 6.58444 6.26189
#
# Compressibility (1/GPa) = 0.02551227
#
# Stress axis : x y z
#
# Youngs Moduli (GPa) = 81.99771 67.65274 95.44107
#
# Poissons Ratio (x) = 0.10128 0.03011
# Poissons Ratio (y) = 0.12275 0.39690
# Poissons Ratio (z) = 0.02587 0.28134
#
# Static dielectric constant tensor:
#      x y z
#    x 1.678110 0.000000 0.000000 
#    y 0.000000 1.520600 0.000000 
#    z 0.000000 0.000000 1.822720 
# 
# From -- ./inp_files/32246.got.cif
#   From: 2010.05.17/outbox.cif.g08.bks.cpg/sg66_17_cif.got.tgz:32246.got - 2010.06.03 17:51:23.
