data_PCOD9497757
_publ_section_title
;
Structure prediction by ZEFSAII (Michael W. Deem and Ramdas Pophale) SiO2 
 PCOD9497757
Probable space group: C C C M
;
_chemical_formula_sum "Si O2"
_cell_formula_units_Z 112
_cell_length_a 14.694762
_cell_length_b 27.765683
_cell_length_c 14.568292
_cell_angle_alpha 90.000000
_cell_angle_beta 90.000000
_cell_angle_gamma 90.000000
_cell_volume 5944.010326
_symmetry_space_group_name_H-M "C C C M"
_symmetry_group_IT_number 66
_symmetry_cell_setting 'orthorhombic'
loop_
_space_group_symop_operation_xyz
x,y,z
-x,-y,z
x,-y,1/2-z
-x,y,1/2-z
-x,-y,-z
x,y,-z
-x,y,1/2+z
x,-y,1/2+z
1/2+x,1/2+y,z
1/2-x,1/2-y,z
1/2+x,1/2-y,1/2-z
1/2-x,1/2+y,1/2-z
1/2-x,1/2-y,-z
1/2+x,1/2+y,-z
1/2-x,1/2+y,1/2+z
1/2+x,1/2-y,1/2+z
loop_
_atom_site_type_symbol
_atom_site_label
_atom_site_fract_x
_atom_site_fract_y
_atom_site_fract_z
Si Si1 0.639379 0.469091 0.891604
Si Si2 0.568064 0.566989 0.109272
Si Si3 0.328748 0.786326 0.865276
Si Si4 0.699144 0.632916 0.394565
Si Si5 0.030114 0.751408 0.600033
Si Si6 0.302458 0.796393 0.350908
Si Si7 0.876002 0.837663 0.795418
O O1 0.535937 0.450293 0.882089
O O2 0.633722 0.523742 0.854871
O O3 0.700687 0.423259 0.864617
O O4 0.657203 0.475595 0.000000
O O5 0.578190 0.614576 0.167865
O O6 0.583972 0.575257 0.000000
O O7 0.250000 0.750000 0.898700
O O8 0.295333 0.839217 0.895373
O O9 0.428106 0.767730 0.889852
O O10 0.322921 0.786796 0.755710
O O11 0.662288 0.635300 0.500000
O O12 0.641609 0.659704 0.314265
O O13 0.038736 0.774687 0.500000
O O14 0.098749 0.705507 0.604796
O O15 0.067355 0.791041 0.671840
O O16 0.250000 0.750000 0.390440
O O17 0.223634 0.835970 0.345476
#
# Coordination Sequence:
#
# PCOD9497757 Si02
#       7
#    16  16  16  16  16  16  16
#     4   8  17  33  52  75 106 143 178 216 259 317
#     4   9  17  32  52  78 111 141 175 214 263 321
#     4  10  21  37  53  73 102 136 180 223 259 308
#     4  10  21  37  53  73 105 143 184 225 265 311
#     4  11  22  35  55  79 106 141 174 216 270 319
#     4   8  18  36  51  72 103 137 175 219 260 312
#     4  10  21  34  53  81 108 142 180 220 265 319
#
# _framework density 18.842497000000002
#
# number of rings (size 3 to 8) (size 9 to 14) (size 15 to 20)
#    0.000    2.571    0.000    3.000    2.000    5.429 
#    5.143    1.429    0.000    0.000    0.000    1.000 
#    0.000    9.143    0.000    0.857    0.000    0.857 
#
# Total GULP energy -311979.689044 kJ/mol
# GULP energy per Si atom -5571.065876 kJ/mol
# Density = 1.879961 g / cm^3
# Si number density = 18.842497 Si / 1000 Ang^3
#
#
#
# Elastic Constant Matrix: (Units=GPa)
#
#
# Indices 1 2 3 4 5 6 
#
# 1 104.0683 33.2515 17.9023 0.0000 0.0000 0.0000
# 2 33.2515 91.6006 19.6763 0.0000 0.0000 0.0000
# 3 17.9023 19.6763 87.1441 0.0000 0.0000 0.0000
# 4 0.0000 0.0000 0.0000 28.3909 0.0000 0.0000
# 5 0.0000 0.0000 0.0000 0.0000 -25.9249 0.0000
# 6 0.0000 0.0000 0.0000 0.0000 0.0000 27.6699
#
#
#
# Elastic Compliance Matrix: (Units=1/GPa)
#
#
# Indices 1 2 3 4 5 6 
#
# 1 0.011037 -0.003699 -0.001432 0.000000 0.000000 0.000000
# 2 -0.003699 0.012713 -0.002111 0.000000 0.000000 0.000000
# 3 -0.001432 -0.002111 0.012246 0.000000 0.000000 0.000000
# 4 0.000000 0.000000 0.000000 0.035222 0.000000 0.000000
# 5 0.000000 0.000000 0.000000 0.000000 -0.038573 0.000000
# 6 0.000000 0.000000 0.000000 0.000000 0.000000 0.036140
#
#
# Mechanical properties :
#
#
# Convention : Reuss Voigt Hill
#
# Bulk Modulus (GPa) = 46.48388 47.16367 46.82378
# Shear Modulus (GPa) = 55.28477 20.15939 37.72208
#
# Velocity S-wave (km/s) = 5.42256 3.27447 4.47919
# Velocity P-wave (km/s) = 7.99555 6.27543 7.18713
#
# Compressibility (1/GPa) = 0.02151283
#
# Stress axis : x y z
#
# Youngs Moduli (GPa) = 90.60161 78.65927 81.65914
#
# Poissons Ratio (x) = 0.29096 0.11696
# Poissons Ratio (y) = 0.33513 0.17235
# Poissons Ratio (z) = 0.12976 0.16602
#
# Static dielectric constant tensor:
#      x y z
#    x 1.697380 0.000000 0.000000 
#    y 0.000000 1.701520 0.000000 
#    z 0.000000 0.000000 1.722230 
# 
# From -- ./inp_files/29016.got.cif
#   From: 2010.05.17/outbox.cif.g08.bks.cpg/sg66_15_cif.got.tgz:29016.got - 2010.06.03 17:51:23.
