data_PCOD9497973
_publ_section_title
;
Structure prediction by ZEFSAII (Michael W. Deem and Ramdas Pophale) SiO2 
 PCOD9497973
Probable space group: C C C M
;
_chemical_formula_sum "Si O2"
_cell_formula_units_Z 72
_cell_length_a 27.849407
_cell_length_b 8.763131
_cell_length_c 14.343537
_cell_angle_alpha 90.000000
_cell_angle_beta 90.000000
_cell_angle_gamma 90.000000
_cell_volume 3500.511544
_symmetry_space_group_name_H-M "C C C M"
_symmetry_group_IT_number 66
_symmetry_cell_setting 'orthorhombic'
loop_
_space_group_symop_operation_xyz
x,y,z
-x,-y,z
x,-y,1/2-z
-x,y,1/2-z
-x,-y,-z
x,y,-z
-x,y,1/2+z
x,-y,1/2+z
1/2+x,1/2+y,z
1/2-x,1/2-y,z
1/2+x,1/2-y,1/2-z
1/2-x,1/2+y,1/2-z
1/2-x,1/2-y,-z
1/2+x,1/2+y,-z
1/2-x,1/2+y,1/2+z
1/2+x,1/2-y,1/2+z
loop_
_atom_site_type_symbol
_atom_site_label
_atom_site_fract_x
_atom_site_fract_y
_atom_site_fract_z
Si Si1 0.806546 0.225322 0.611034
Si Si2 0.639647 0.500000 0.750000
Si Si3 0.388487 0.056085 0.889441
Si Si4 0.012286 0.330758 0.141947
Si Si5 0.415236 0.715531 0.892961
O O1 0.815550 0.191843 0.500000
O O2 0.750000 0.250000 0.622056
O O3 0.837197 0.376625 0.636076
O O4 0.827098 0.099140 0.680843
O O5 0.606639 0.400831 0.819578
O O6 0.430721 0.178375 0.868703
O O7 0.401169 0.886310 0.855239
O O8 0.389095 0.038514 0.000000
O O9 0.000000 0.500000 0.103114
O O10 0.000000 0.332961 0.250000
O O11 0.973365 0.214622 0.102559
O O12 0.397671 0.694681 0.000000
#
# Coordination Sequence:
#
# PCOD9497973 Si02
#       5
#    16   8  16  16  16
#     4  10  23  43  63  85 116 155 200 249 298 349
#     4  12  24  38  61  90 124 158 193 244 308 364
#     4   9  18  36  61  84 111 153 200 241 285 345
#     4   9  16  29  54  86 115 146 189 235 278 336
#     4  10  21  37  59  89 122 155 195 244 297 357
#
# _framework density 20.568424
#
# number of rings (size 3 to 8) (size 9 to 14) (size 15 to 20)
#    0.000    2.222    0.000    2.667    0.000    7.111 
#    0.000    5.000    0.000   14.667    0.000    0.000 
#    0.000    0.000    0.000    0.000    0.000    0.000 
#
# Total GULP energy -200804.601991 kJ/mol
# GULP energy per Si atom -5577.905611 kJ/mol
# Density = 2.052161 g / cm^3
# Si number density = 20.568424 Si / 1000 Ang^3
#
#
#
# Elastic Constant Matrix: (Units=GPa)
#
#
# Indices 1 2 3 4 5 6 
#
# 1 153.9668 59.5532 52.1966 0.0000 0.0000 0.0000
# 2 59.5532 83.2362 60.4331 0.0000 0.0000 0.0000
# 3 52.1966 60.4331 121.1329 0.0000 0.0000 0.0000
# 4 0.0000 0.0000 0.0000 31.0291 0.0000 0.0000
# 5 0.0000 0.0000 0.0000 0.0000 28.5939 0.0000
# 6 0.0000 0.0000 0.0000 0.0000 0.0000 24.6800
#
#
#
# Elastic Compliance Matrix: (Units=1/GPa)
#
#
# Indices 1 2 3 4 5 6 
#
# 1 0.009065 -0.005722 -0.001051 0.000000 0.000000 0.000000
# 2 -0.005722 0.022450 -0.008734 0.000000 0.000000 0.000000
# 3 -0.001051 -0.008734 0.013066 0.000000 0.000000 0.000000
# 4 0.000000 0.000000 0.000000 0.032228 0.000000 0.000000
# 5 0.000000 0.000000 0.000000 0.000000 0.034973 0.000000
# 6 0.000000 0.000000 0.000000 0.000000 0.000000 0.040519
#
#
# Mechanical properties :
#
#
# Convention : Reuss Voigt Hill
#
# Bulk Modulus (GPa) = 73.72130 78.07795 75.89963
# Shear Modulus (GPa) = 26.61892 29.27079 27.94486
#
# Velocity S-wave (km/s) = 3.60135 3.77648 3.68996
# Velocity P-wave (km/s) = 7.29471 7.55369 7.42533
#
# Compressibility (1/GPa) = 0.01356460
#
# Stress axis : x y z
#
# Youngs Moduli (GPa) = 110.31937 44.54405 76.53519
#
# Poissons Ratio (x) = 0.25489 0.08045
# Poissons Ratio (y) = 0.63128 0.66849
# Poissons Ratio (z) = 0.11596 0.38906
#
# Static dielectric constant tensor:
#      x y z
#    x 1.739620 0.000000 0.000000 
#    y 0.000000 1.759570 0.000000 
#    z 0.000000 0.000000 1.767800 
# 
# From -- ./inp_files/33034.got.cif
#   From: 2010.05.17/outbox.cif.g08.bks.cpg/sg66_17_cif.got.tgz:33034.got - 2010.06.03 17:51:23.
