data_PCOD9497212
_publ_section_title
;
Structure prediction by ZEFSAII (Michael W. Deem and Ramdas Pophale) SiO2 
 PCOD9497212
Probable space group: C C C M
;
_chemical_formula_sum "Si O2"
_cell_formula_units_Z 80
_cell_length_a 11.532609
_cell_length_b 12.172020
_cell_length_c 25.684566
_cell_angle_alpha 90.000000
_cell_angle_beta 90.000000
_cell_angle_gamma 90.000000
_cell_volume 3605.474738
_symmetry_space_group_name_H-M "C C C M"
_symmetry_group_IT_number 66
_symmetry_cell_setting 'orthorhombic'
loop_
_space_group_symop_operation_xyz
x,y,z
-x,-y,z
x,-y,1/2-z
-x,y,1/2-z
-x,-y,-z
x,y,-z
-x,y,1/2+z
x,-y,1/2+z
1/2+x,1/2+y,z
1/2-x,1/2-y,z
1/2+x,1/2-y,1/2-z
1/2-x,1/2+y,1/2-z
1/2-x,1/2-y,-z
1/2+x,1/2+y,-z
1/2-x,1/2+y,1/2+z
1/2+x,1/2-y,1/2+z
loop_
_atom_site_type_symbol
_atom_site_label
_atom_site_fract_x
_atom_site_fract_y
_atom_site_fract_z
Si Si1 0.379993 0.441403 0.196003
Si Si2 0.250000 0.750000 0.865723
Si Si3 0.497442 0.761395 0.661889
Si Si4 0.000000 0.500000 0.375761
Si Si5 0.372842 0.313072 0.057667
Si Si6 0.749615 0.988328 0.596170
O O1 0.500000 0.500000 0.177261
O O2 0.352047 0.500000 0.250000
O O3 0.415603 0.313064 0.198179
O O4 0.282440 0.465400 0.153743
O O5 0.365900 0.742210 0.831474
O O6 0.258316 0.641927 0.900977
O O7 0.458528 0.720247 0.603961
O O8 0.490640 0.892221 0.659993
O O9 0.886289 0.492912 0.411505
O O10 0.250000 0.250000 0.066305
O O11 0.335837 0.441095 0.061206
O O12 0.415882 0.286335 0.000000
#
# Coordination Sequence:
#
# PCOD9497212 Si02
#       6
#    16   8  16   8  16  16
#     4  10  20  37  64  85 109 154 202 236 288 374
#     4  10  20  36  59  82 124 150 188 244 313 346
#     4  10  20  38  62  88 117 159 199 248 299 360
#     4  10  20  36  62  86 122 160 190 242 316 344
#     4  10  20  37  60  87 119 164 211 245 283 363
#     4  10  20  38  59  88 116 159 193 249 299 359
#
# _framework density 22.188479000000001
#
# number of rings (size 3 to 8) (size 9 to 14) (size 15 to 20)
#    0.000    2.000    4.000    0.000    0.000    0.000 
#    0.000   10.500    0.000    0.000    0.000    0.000 
#    0.000    0.000    0.000    0.000    0.000    0.000 
#
# Total GULP energy -223151.339308 kJ/mol
# GULP energy per Si atom -5578.783483 kJ/mol
# Density = 2.213798 g / cm^3
# Si number density = 22.188479 Si / 1000 Ang^3
#
#
#
# Elastic Constant Matrix: (Units=GPa)
#
#
# Indices 1 2 3 4 5 6 
#
# 1 81.4228 8.3222 24.3546 0.0000 0.0000 0.0000
# 2 8.3222 138.4187 8.9793 0.0000 0.0000 0.0000
# 3 24.3546 8.9793 98.8651 0.0000 0.0000 0.0000
# 4 0.0000 0.0000 0.0000 14.1317 0.0000 0.0000
# 5 0.0000 0.0000 0.0000 0.0000 8.0585 0.0000
# 6 0.0000 0.0000 0.0000 0.0000 0.0000 23.8386
#
#
#
# Elastic Compliance Matrix: (Units=1/GPa)
#
#
# Indices 1 2 3 4 5 6 
#
# 1 0.013306 -0.000591 -0.003224 0.000000 0.000000 0.000000
# 2 -0.000591 0.007294 -0.000517 0.000000 0.000000 0.000000
# 3 -0.003224 -0.000517 0.010956 0.000000 0.000000 0.000000
# 4 0.000000 0.000000 0.000000 0.070763 0.000000 0.000000
# 5 0.000000 0.000000 0.000000 0.000000 0.124093 0.000000
# 6 0.000000 0.000000 0.000000 0.000000 0.000000 0.041949
#
#
# Mechanical properties :
#
#
# Convention : Reuss Voigt Hill
#
# Bulk Modulus (GPa) = 43.68352 44.66874 44.17613
# Shear Modulus (GPa) = 17.56513 27.67580 22.62047
#
# Velocity S-wave (km/s) = 2.81665 3.53555 3.19638
# Velocity P-wave (km/s) = 5.50529 6.06976 5.79441
#
# Compressibility (1/GPa) = 0.02289193
#
# Stress axis : x y z
#
# Youngs Moduli (GPa) = 75.15197 137.10821 91.27415
#
# Poissons Ratio (x) = 0.08101 0.29429
# Poissons Ratio (y) = 0.04440 0.04718
# Poissons Ratio (z) = 0.24231 0.07087
#
# Static dielectric constant tensor:
#      x y z
#    x 1.814670 0.000000 0.000000 
#    y 0.000000 1.897390 0.000000 
#    z 0.000000 0.000000 1.788920 
# 
# From -- ./inp_files/68822.got.cif
#   From: 2010.05.17/outbox.cif.g08.bks.cpg/sg66_35_cif.got.tgz:68822.got - 2010.06.03 17:51:23.
