data_PCOD9497699
_publ_section_title
;
Structure prediction by ZEFSAII (Michael W. Deem and Ramdas Pophale) SiO2 
 PCOD9497699
Probable space group: C C C M
;
_chemical_formula_sum "Si O2"
_cell_formula_units_Z 68
_cell_length_a 22.502487
_cell_length_b 17.015486
_cell_length_c 8.880334
_cell_angle_alpha 90.000000
_cell_angle_beta 90.000000
_cell_angle_gamma 90.000000
_cell_volume 3400.197768
_symmetry_space_group_name_H-M "C C C M"
_symmetry_group_IT_number 66
_symmetry_cell_setting 'orthorhombic'
loop_
_space_group_symop_operation_xyz
x,y,z
-x,-y,z
x,-y,1/2-z
-x,y,1/2-z
-x,-y,-z
x,y,-z
-x,y,1/2+z
x,-y,1/2+z
1/2+x,1/2+y,z
1/2-x,1/2-y,z
1/2+x,1/2-y,1/2-z
1/2-x,1/2+y,1/2-z
1/2-x,1/2-y,-z
1/2+x,1/2+y,-z
1/2-x,1/2+y,1/2+z
1/2+x,1/2-y,1/2+z
loop_
_atom_site_type_symbol
_atom_site_label
_atom_site_fract_x
_atom_site_fract_y
_atom_site_fract_z
Si Si1 0.940134 0.307751 0.818879
Si Si2 0.000000 0.000000 0.750000
Si Si3 0.093714 0.137298 0.323243
Si Si4 0.341292 0.083330 0.820518
Si Si5 0.770861 0.159085 0.181456
O O1 0.934892 0.217524 0.763258
O O2 0.883520 0.352369 0.755352
O O3 0.000000 0.342667 0.750000
O O4 0.941563 0.311232 0.000000
O O5 0.049115 0.063618 0.690093
O O6 0.101215 0.150242 0.500000
O O7 0.162051 0.136812 0.267234
O O8 0.274920 0.104694 0.769476
O O9 0.357889 0.000000 0.750000
O O10 0.347017 0.083227 0.000000
O O11 0.750000 0.250000 0.207965
O O12 0.765937 0.146797 0.000000
#
# Coordination Sequence:
#
# PCOD9497699 Si02
#       5
#    16   4  16  16  16
#     4  11  22  43  68  96 130 175 221 274 335 400
#     4  12  22  40  60 102 138 184 228 268 334 404
#     4  10  22  39  62  92 134 180 222 270 333 398
#     4  12  26  44  66  99 133 173 222 281 341 406
#     4  10  20  41  68  94 129 178 224 277 342 400
#
# _framework density 19.998837000000002
#
# number of rings (size 3 to 8) (size 9 to 14) (size 15 to 20)
#    0.000    1.176    3.529    3.176    1.647    0.941 
#    0.000    3.529    0.000    0.000    0.000    0.000 
#    0.000    0.000    0.000    0.000    0.000    0.000 
#
# Total GULP energy -189490.836743 kJ/mol
# GULP energy per Si atom -5573.259904 kJ/mol
# Density = 1.995332 g / cm^3
# Si number density = 19.998837 Si / 1000 Ang^3
#
#
#
# Elastic Constant Matrix: (Units=GPa)
#
#
# Indices 1 2 3 4 5 6 
#
# 1 163.5090 23.2298 33.0983 0.0000 0.0000 0.0000
# 2 23.2298 85.4746 25.0904 0.0000 0.0000 0.0000
# 3 33.0983 25.0904 74.9813 0.0000 0.0000 0.0000
# 4 0.0000 0.0000 0.0000 18.8255 0.0000 0.0000
# 5 0.0000 0.0000 0.0000 0.0000 14.6253 0.0000
# 6 0.0000 0.0000 0.0000 0.0000 0.0000 45.0880
#
#
#
# Elastic Compliance Matrix: (Units=1/GPa)
#
#
# Indices 1 2 3 4 5 6 
#
# 1 0.006804 -0.001073 -0.002644 0.000000 0.000000 0.000000
# 2 -0.001073 0.013143 -0.003924 0.000000 0.000000 0.000000
# 3 -0.002644 -0.003924 0.015817 0.000000 0.000000 0.000000
# 4 0.000000 0.000000 0.000000 0.053119 0.000000 0.000000
# 5 0.000000 0.000000 0.000000 0.000000 0.068375 0.000000
# 6 0.000000 0.000000 0.000000 0.000000 0.000000 0.022179
#
#
# Mechanical properties :
#
#
# Convention : Reuss Voigt Hill
#
# Bulk Modulus (GPa) = 48.82646 54.08910 51.45778
# Shear Modulus (GPa) = 24.80822 31.87752 28.34287
#
# Velocity S-wave (km/s) = 3.52587 3.99679 3.76869
# Velocity P-wave (km/s) = 6.40651 6.95729 6.68757
#
# Compressibility (1/GPa) = 0.02048070
#
# Stress axis : x y z
#
# Youngs Moduli (GPa) = 146.98211 76.08672 63.22293
#
# Poissons Ratio (x) = 0.08163 0.16718
# Poissons Ratio (y) = 0.15769 0.24811
# Poissons Ratio (z) = 0.38866 0.29859
#
# Static dielectric constant tensor:
#      x y z
#    x 1.785070 0.000000 0.000000 
#    y 0.000000 1.740610 0.000000 
#    z 0.000000 0.000000 1.674310 
# 
# From -- ./inp_files/6283.got.cif
#   From: 2010.05.17/outbox.cif.g08.bks.cpg/sg66_4_cif.got.tgz:6283.got - 2010.06.03 17:51:23.
