data_PCOD9497448
_publ_section_title
;
Structure prediction by ZEFSAII (Michael W. Deem and Ramdas Pophale) SiO2 
 PCOD9497448
Probable space group: C C C M
;
_chemical_formula_sum "Si O2"
_cell_formula_units_Z 56
_cell_length_a 8.945140
_cell_length_b 30.827873
_cell_length_c 10.664104
_cell_angle_alpha 90.000000
_cell_angle_beta 90.000000
_cell_angle_gamma 90.000000
_cell_volume 2940.729479
_symmetry_space_group_name_H-M "C C C M"
_symmetry_group_IT_number 66
_symmetry_cell_setting 'orthorhombic'
loop_
_space_group_symop_operation_xyz
x,y,z
-x,-y,z
x,-y,1/2-z
-x,y,1/2-z
-x,-y,-z
x,y,-z
-x,y,1/2+z
x,-y,1/2+z
1/2+x,1/2+y,z
1/2-x,1/2-y,z
1/2+x,1/2-y,1/2-z
1/2-x,1/2+y,1/2-z
1/2-x,1/2-y,-z
1/2+x,1/2+y,-z
1/2-x,1/2+y,1/2+z
1/2+x,1/2-y,1/2+z
loop_
_atom_site_type_symbol
_atom_site_label
_atom_site_fract_x
_atom_site_fract_y
_atom_site_fract_z
Si Si1 0.500000 0.500000 0.250000
Si Si2 0.319002 0.350118 0.249705
Si Si3 0.500000 0.000000 0.750000
Si Si4 0.817809 0.201984 0.000000
Si Si5 0.251359 0.060747 0.857297
Si Si6 0.821536 0.202791 0.500000
O O1 0.392901 0.469150 0.168974
O O2 0.500000 0.354709 0.250000
O O3 0.274706 0.324833 0.375520
O O4 0.252625 0.398086 0.234691
O O5 0.277882 0.322625 0.126341
O O6 0.606414 0.969360 0.832026
O O7 0.750000 0.250000 0.000000
O O8 0.998053 0.205994 0.000000
O O9 0.247075 0.076526 0.000000
O O10 0.750000 0.250000 0.500000
#
# Coordination Sequence:
#
# PCOD9497448 Si02
#       6
#     4  16   4   8  16   8
#     4  10  22  34  68  96 114 156 204 254 306 368
#     4  10  20  37  63  88 119 156 203 253 298 363
#     4  10  26  42  56  88 130 168 196 258 314 380
#     4  10  22  40  58  89 122 154 196 251 306 362
#     4  11  21  42  62  91 124 160 207 252 312 362
#     4  10  20  38  62  85 114 156 200 247 308 364
#
# _framework density 19.042894
#
# number of rings (size 3 to 8) (size 9 to 14) (size 15 to 20)
#    0.000    1.714    2.857    1.714    0.000    0.000 
#   18.000    0.000    0.000    0.000    0.000    0.000 
#    0.000    0.000    0.000    0.000    0.000    0.000 
#
# Total GULP energy -156398.167156 kJ/mol
# GULP energy per Si atom -5585.648827 kJ/mol
# Density = 1.899955 g / cm^3
# Si number density = 19.042894 Si / 1000 Ang^3
#
#
#
# Elastic Constant Matrix: (Units=GPa)
#
#
# Indices 1 2 3 4 5 6 
#
# 1 55.6386 44.2333 30.2922 0.0000 0.0000 0.0000
# 2 44.2333 172.4734 77.2383 0.0000 0.0000 0.0000
# 3 30.2922 77.2383 148.0875 0.0000 0.0000 0.0000
# 4 0.0000 0.0000 0.0000 36.5912 0.0000 0.0000
# 5 0.0000 0.0000 0.0000 0.0000 2.9448 0.0000
# 6 0.0000 0.0000 0.0000 0.0000 0.0000 17.8544
#
#
#
# Elastic Compliance Matrix: (Units=1/GPa)
#
#
# Indices 1 2 3 4 5 6 
#
# 1 0.023081 -0.004965 -0.002132 0.000000 0.000000 0.000000
# 2 -0.004965 0.008633 -0.003487 0.000000 0.000000 0.000000
# 3 -0.002132 -0.003487 0.009008 0.000000 0.000000 0.000000
# 4 0.000000 0.000000 0.000000 0.027329 0.000000 0.000000
# 5 0.000000 0.000000 0.000000 0.000000 0.339580 0.000000
# 6 0.000000 0.000000 0.000000 0.000000 0.000000 0.056009
#
#
# Mechanical properties :
#
#
# Convention : Reuss Voigt Hill
#
# Bulk Modulus (GPa) = 51.14052 75.52523 63.33288
# Shear Modulus (GPa) = 10.17658 26.44046 18.30852
#
# Velocity S-wave (km/s) = 2.31422 3.73026 3.10407
# Velocity P-wave (km/s) = 5.83563 7.63543 6.79538
#
# Compressibility (1/GPa) = 0.01955397
#
# Stress axis : x y z
#
# Youngs Moduli (GPa) = 43.32606 115.83612 111.01700
#
# Poissons Ratio (x) = 0.57509 0.23667
# Poissons Ratio (y) = 0.21510 0.38713
# Poissons Ratio (z) = 0.09237 0.40393
#
# Static dielectric constant tensor:
#      x y z
#    x 1.643880 0.000000 0.000000 
#    y 0.000000 1.630270 0.000000 
#    z 0.000000 0.000000 1.651930 
# 
# From -- ./inp_files/13435.got.cif
#   From: 2010.05.17/outbox.cif.g08.bks.cpg/sg66_7_cif.got.tgz:13435.got - 2010.06.03 17:51:23.
