data_PCOD9497461
_publ_section_title
;
Structure prediction by ZEFSAII (Michael W. Deem and Ramdas Pophale) SiO2 
 PCOD9497461
Probable space group: C C C M
;
_chemical_formula_sum "Si O2"
_cell_formula_units_Z 64
_cell_length_a 10.095280
_cell_length_b 14.464378
_cell_length_c 19.099170
_cell_angle_alpha 90.000000
_cell_angle_beta 90.000000
_cell_angle_gamma 90.000000
_cell_volume 2788.897969
_symmetry_space_group_name_H-M "C C C M"
_symmetry_group_IT_number 66
_symmetry_cell_setting 'orthorhombic'
loop_
_space_group_symop_operation_xyz
x,y,z
-x,-y,z
x,-y,1/2-z
-x,y,1/2-z
-x,-y,-z
x,y,-z
-x,y,1/2+z
x,-y,1/2+z
1/2+x,1/2+y,z
1/2-x,1/2-y,z
1/2+x,1/2-y,1/2-z
1/2-x,1/2+y,1/2-z
1/2-x,1/2-y,-z
1/2+x,1/2+y,-z
1/2-x,1/2+y,1/2+z
1/2+x,1/2-y,1/2+z
loop_
_atom_site_type_symbol
_atom_site_label
_atom_site_fract_x
_atom_site_fract_y
_atom_site_fract_z
Si Si1 0.967586 0.727024 0.330023
Si Si2 0.848790 0.537234 0.678285
Si Si3 0.811776 0.618467 0.920257
Si Si4 0.504722 0.393525 0.580383
O O1 0.093240 0.676041 0.368502
O O2 0.932329 0.818813 0.372139
O O3 0.000000 0.750863 0.250000
O O4 0.858150 0.646553 0.326148
O O5 0.782252 0.500000 0.750000
O O6 0.804099 0.486622 0.608225
O O7 0.000000 0.500000 0.682892
O O8 0.657047 0.643007 0.919793
O O9 0.861491 0.624638 0.000000
O O10 0.500000 0.500000 0.605255
O O11 0.457673 0.393296 0.500000
#
# Coordination Sequence:
#
# PCOD9497461 Si02
#       4
#    16  16  16  16
#     4  11  20  36  59  90 120 153 196 247 303 357
#     4   9  16  34  57  85 122 147 184 252 304 344
#     4  10  20  37  64  90 115 159 206 245 298 362
#     4  10  23  43  60  83 123 163 204 251 292 350
#
# _framework density 22.948132000000001
#
# number of rings (size 3 to 8) (size 9 to 14) (size 15 to 20)
#    0.000    2.000    5.000    1.500    0.000    8.000 
#    4.500    1.250    0.000    4.500    0.000    0.000 
#    0.000    0.000    0.000    0.000    0.000    0.000 
#
# Total GULP energy -178569.378491 kJ/mol
# GULP energy per Si atom -5580.293078 kJ/mol
# Density = 2.289590 g / cm^3
# Si number density = 22.948132 Si / 1000 Ang^3
#
#
#
# Elastic Constant Matrix: (Units=GPa)
#
#
# Indices 1 2 3 4 5 6 
#
# 1 51.0661 -2.2535 19.5364 0.0000 0.0000 0.0000
# 2 -2.2535 210.2112 77.9559 0.0000 0.0000 0.0000
# 3 19.5364 77.9559 132.4607 0.0000 0.0000 0.0000
# 4 0.0000 0.0000 0.0000 153.9174 0.0000 0.0000
# 5 0.0000 0.0000 0.0000 0.0000 -7.4687 0.0000
# 6 0.0000 0.0000 0.0000 0.0000 0.0000 6.0793
#
#
#
# Elastic Compliance Matrix: (Units=1/GPa)
#
#
# Indices 1 2 3 4 5 6 
#
# 1 0.021261 0.001779 -0.004183 0.000000 0.000000 0.000000
# 2 0.001779 0.006234 -0.003931 0.000000 0.000000 0.000000
# 3 -0.004183 -0.003931 0.010480 0.000000 0.000000 0.000000
# 4 0.000000 0.000000 0.000000 0.006497 0.000000 0.000000
# 5 0.000000 0.000000 0.000000 0.000000 -0.133892 0.000000
# 6 0.000000 0.000000 0.000000 0.000000 0.000000 0.164494
#
#
# Mechanical properties :
#
#
# Convention : Reuss Voigt Hill
#
# Bulk Modulus (GPa) = 39.51748 64.91283 52.21516
# Shear Modulus (GPa) = 51.98612 50.40554 51.19583
#
# Velocity S-wave (km/s) = 4.76476 4.69177 4.72840
# Velocity P-wave (km/s) = 6.89408 7.59595 7.25351
#
# Compressibility (1/GPa) = 0.02530526
#
# Stress axis : x y z
#
# Youngs Moduli (GPa) = 47.03405 160.40825 95.42010
#
# Poissons Ratio (x) = -0.28538 0.39912
# Poissons Ratio (y) = -0.08368 0.37512
# Poissons Ratio (z) = 0.19673 0.63061
#
# Static dielectric constant tensor:
#      x y z
#    x 1.952090 0.000000 0.000000 
#    y 0.000000 1.903710 0.000000 
#    z 0.000000 0.000000 1.878270 
# 
# From -- ./inp_files/37958.got.cif
#   From: 2010.05.17/outbox.cif.g08.bks.cpg/sg66_19_cif.got.tgz:37958.got - 2010.06.03 17:51:23.
