data_PCOD9497905
_publ_section_title
;
Structure prediction by ZEFSAII (Michael W. Deem and Ramdas Pophale) SiO2 
 PCOD9497905
Probable space group: C C C M
;
_chemical_formula_sum "Si O2"
_cell_formula_units_Z 64
_cell_length_a 9.336937
_cell_length_b 20.601797
_cell_length_c 15.908482
_cell_angle_alpha 90.000000
_cell_angle_beta 90.000000
_cell_angle_gamma 90.000000
_cell_volume 3060.118701
_symmetry_space_group_name_H-M "C C C M"
_symmetry_group_IT_number 66
_symmetry_cell_setting 'orthorhombic'
loop_
_space_group_symop_operation_xyz
x,y,z
-x,-y,z
x,-y,1/2-z
-x,y,1/2-z
-x,-y,-z
x,y,-z
-x,y,1/2+z
x,-y,1/2+z
1/2+x,1/2+y,z
1/2-x,1/2-y,z
1/2+x,1/2-y,1/2-z
1/2-x,1/2+y,1/2-z
1/2-x,1/2-y,-z
1/2+x,1/2+y,-z
1/2-x,1/2+y,1/2+z
1/2+x,1/2-y,1/2+z
loop_
_atom_site_type_symbol
_atom_site_label
_atom_site_fract_x
_atom_site_fract_y
_atom_site_fract_z
Si Si1 0.332220 0.188046 0.344138
Si Si2 0.818687 0.058231 0.406369
Si Si3 0.844526 0.311071 0.642864
Si Si4 0.104139 0.074612 0.333253
O O1 0.250000 0.250000 0.379320
O O2 0.489733 0.184563 0.383987
O O3 0.350185 0.197788 0.243561
O O4 0.226794 0.126851 0.346205
O O5 0.773710 0.039080 0.500000
O O6 0.729325 0.120203 0.376694
O O7 0.984784 0.079227 0.405306
O O8 0.821720 0.995775 0.345117
O O9 0.750000 0.250000 0.610059
O O10 0.000000 0.083109 0.250000
#
# Coordination Sequence:
#
# PCOD9497905 Si02
#       4
#    16  16  16  16
#     4  10  21  36  63  94 119 153 206 261 306 354
#     4  11  23  39  61  89 127 168 203 247 306 365
#     4  10  21  38  61  92 124 158 203 256 309 359
#     4  11  21  38  63  91 121 160 208 252 295 359
#
# _framework density 20.914221999999999
#
# number of rings (size 3 to 8) (size 9 to 14) (size 15 to 20)
#    0.000    1.500    2.500    4.500    3.500    1.500 
#    0.000    6.250    0.000    5.250    0.000    0.000 
#    0.000    0.000    0.000    0.000    0.000    0.000 
#
# Total GULP energy -178305.028271 kJ/mol
# GULP energy per Si atom -5572.032133 kJ/mol
# Density = 2.086662 g / cm^3
# Si number density = 20.914222 Si / 1000 Ang^3
#
#
#
# Elastic Constant Matrix: (Units=GPa)
#
#
# Indices 1 2 3 4 5 6 
#
# 1 180.9282 147.9405 13.1702 0.0000 0.0000 0.0000
# 2 147.9405 186.8165 17.1411 0.0000 0.0000 0.0000
# 3 13.1702 17.1411 61.1899 0.0000 0.0000 0.0000
# 4 0.0000 0.0000 0.0000 -1.0578 0.0000 0.0000
# 5 0.0000 0.0000 0.0000 0.0000 7.0856 0.0000
# 6 0.0000 0.0000 0.0000 0.0000 0.0000 18.6302
#
#
#
# Elastic Compliance Matrix: (Units=1/GPa)
#
#
# Indices 1 2 3 4 5 6 
#
# 1 0.015681 -0.012428 0.000106 0.000000 0.000000 0.000000
# 2 -0.012428 0.015343 -0.001623 0.000000 0.000000 0.000000
# 3 0.000106 -0.001623 0.016774 0.000000 0.000000 0.000000
# 4 0.000000 0.000000 0.000000 -0.945394 0.000000 0.000000
# 5 0.000000 0.000000 0.000000 0.000000 0.141132 0.000000
# 6 0.000000 0.000000 0.000000 0.000000 0.000000 0.053676
#
#
# Mechanical properties :
#
#
# Convention : Reuss Voigt Hill
#
# Bulk Modulus (GPa) = 50.22734 87.27092 68.74913
# Shear Modulus (GPa) = -7.48210 21.64379 7.08085
#
# Velocity S-wave (km/s) = -1.89348 3.22045 1.84201
# Velocity P-wave (km/s) = 4.39177 7.45969 6.12106
#
# Compressibility (1/GPa) = 0.01990948
#
# Stress axis : x y z
#
# Youngs Moduli (GPa) = 63.77092 65.17506 59.61458
#
# Poissons Ratio (x) = 0.80997 -0.00633
# Poissons Ratio (y) = 0.79252 0.09677
# Poissons Ratio (z) = -0.00677 0.10579
#
# Static dielectric constant tensor:
#      x y z
#    x 1.754310 0.000000 0.000000 
#    y 0.000000 1.760140 0.000000 
#    z 0.000000 0.000000 1.801310 
# 
# From -- ./inp_files/36302.got.cif
#   From: 2010.05.17/outbox.cif.g08.bks.cpg/sg66_19_cif.got.tgz:36302.got - 2010.06.03 17:51:23.
