data_PCOD9497521
_publ_section_title
;
Structure prediction by ZEFSAII (Michael W. Deem and Ramdas Pophale) SiO2 
 PCOD9497521
Probable space group: C C C M
;
_chemical_formula_sum "Si O2"
_cell_formula_units_Z 80
_cell_length_a 13.950172
_cell_length_b 11.546675
_cell_length_c 24.626123
_cell_angle_alpha 90.000000
_cell_angle_beta 90.000000
_cell_angle_gamma 90.000000
_cell_volume 3966.729159
_symmetry_space_group_name_H-M "C C C M"
_symmetry_group_IT_number 66
_symmetry_cell_setting 'orthorhombic'
loop_
_space_group_symop_operation_xyz
x,y,z
-x,-y,z
x,-y,1/2-z
-x,y,1/2-z
-x,-y,-z
x,y,-z
-x,y,1/2+z
x,-y,1/2+z
1/2+x,1/2+y,z
1/2-x,1/2-y,z
1/2+x,1/2-y,1/2-z
1/2-x,1/2+y,1/2-z
1/2-x,1/2-y,-z
1/2+x,1/2+y,-z
1/2-x,1/2+y,1/2+z
1/2+x,1/2-y,1/2+z
loop_
_atom_site_type_symbol
_atom_site_label
_atom_site_fract_x
_atom_site_fract_y
_atom_site_fract_z
Si Si1 0.995512 0.265055 0.618013
Si Si2 0.353428 0.812264 0.206782
Si Si3 0.476299 0.700691 0.000000
Si Si4 0.846358 0.024142 0.500000
Si Si5 0.195357 0.135843 0.103073
Si Si6 0.141826 0.416186 0.820990
O O1 0.033819 0.268802 0.556465
O O2 0.914707 0.163975 0.616633
O O3 0.933999 0.378154 0.633705
O O4 0.075043 0.249887 0.664611
O O5 0.250000 0.750000 0.203811
O O6 0.380202 0.831020 0.270238
O O7 0.358725 0.948006 0.190154
O O8 0.402302 0.595046 0.000000
O O9 0.579682 0.634301 0.000000
O O10 0.793089 0.039555 0.443074
O O11 0.250000 0.250000 0.081000
O O12 0.252080 0.108309 0.157517
#
# Coordination Sequence:
#
# PCOD9497521 Si02
#       6
#    16  16   8   8  16  16
#     4  10  20  38  61  83 119 156 197 240 295 353
#     4  11  23  39  60  85 119 154 197 247 299 353
#     4   9  20  34  55  91 118 156 199 244 296 365
#     4   9  17  32  57  86 126 153 191 247 305 350
#     4   9  18  34  60  89 117 150 201 245 294 358
#     4  10  22  39  60  88 114 154 200 243 299 362
#
# _framework density 20.167749000000001
#
# number of rings (size 3 to 8) (size 9 to 14) (size 15 to 20)
#    0.000    2.200    0.000    3.300    2.800    4.000 
#    0.000    3.500    0.000    0.000    0.000    0.000 
#    0.000    0.000    0.000    0.000    0.000    0.000 
#
# Total GULP energy -222809.138061 kJ/mol
# GULP energy per Si atom -5570.228452 kJ/mol
# Density = 2.012185 g / cm^3
# Si number density = 20.167749 Si / 1000 Ang^3
#
#
#
# Elastic Constant Matrix: (Units=GPa)
#
#
# Indices 1 2 3 4 5 6 
#
# 1 72.1088 9.0080 51.4308 0.0000 0.0000 0.0000
# 2 9.0080 32.4257 36.8839 0.0000 0.0000 0.0000
# 3 51.4308 36.8839 158.0737 0.0000 0.0000 0.0000
# 4 0.0000 0.0000 0.0000 0.7623 0.0000 0.0000
# 5 0.0000 0.0000 0.0000 0.0000 101.2732 0.0000
# 6 0.0000 0.0000 0.0000 0.0000 0.0000 13.7625
#
#
#
# Elastic Compliance Matrix: (Units=1/GPa)
#
#
# Indices 1 2 3 4 5 6 
#
# 1 0.018182 0.002284 -0.006449 0.000000 0.000000 0.000000
# 2 0.002284 0.042270 -0.010606 0.000000 0.000000 0.000000
# 3 -0.006449 -0.010606 0.010899 0.000000 0.000000 0.000000
# 4 0.000000 0.000000 0.000000 1.311826 0.000000 0.000000
# 5 0.000000 0.000000 0.000000 0.000000 0.009874 0.000000
# 6 0.000000 0.000000 0.000000 0.000000 0.000000 0.072661
#
#
# Mechanical properties :
#
#
# Convention : Reuss Voigt Hill
#
# Bulk Modulus (GPa) = 23.91798 50.80595 37.36197
# Shear Modulus (GPa) = 3.31304 34.17862 18.74583
#
# Velocity S-wave (km/s) = 1.28308 4.12116 3.05207
# Velocity P-wave (km/s) = 3.75238 6.92038 5.56651
#
# Compressibility (1/GPa) = 0.04180955
#
# Stress axis : x y z
#
# Youngs Moduli (GPa) = 54.99931 23.65770 91.75100
#
# Poissons Ratio (x) = -0.05404 0.59167
# Poissons Ratio (y) = -0.12563 0.97312
# Poissons Ratio (z) = 0.35467 0.25092
#
# Static dielectric constant tensor:
#      x y z
#    x 1.750880 0.000000 0.000000 
#    y 0.000000 1.716610 0.000000 
#    z 0.000000 0.000000 1.792920 
# 
# From -- ./inp_files/56654.got.cif
#   From: 2010.05.17/outbox.cif.g08.bks.cpg/sg66_29_cif.got.tgz:56654.got - 2010.06.03 17:51:23.
