data_PCOD9497221
_publ_section_title
;
Structure prediction by ZEFSAII (Michael W. Deem and Ramdas Pophale) SiO2 
 PCOD9497221
Probable space group: C C C M
;
_chemical_formula_sum "Si O2"
_cell_formula_units_Z 64
_cell_length_a 36.447128
_cell_length_b 4.937449
_cell_length_c 15.847353
_cell_angle_alpha 90.000000
_cell_angle_beta 90.000000
_cell_angle_gamma 90.000000
_cell_volume 2851.823653
_symmetry_space_group_name_H-M "C C C M"
_symmetry_group_IT_number 66
_symmetry_cell_setting 'orthorhombic'
loop_
_space_group_symop_operation_xyz
x,y,z
-x,-y,z
x,-y,1/2-z
-x,y,1/2-z
-x,-y,-z
x,y,-z
-x,y,1/2+z
x,-y,1/2+z
1/2+x,1/2+y,z
1/2-x,1/2-y,z
1/2+x,1/2-y,1/2-z
1/2-x,1/2+y,1/2-z
1/2-x,1/2-y,-z
1/2+x,1/2+y,-z
1/2-x,1/2+y,1/2+z
1/2+x,1/2-y,1/2+z
loop_
_atom_site_type_symbol
_atom_site_label
_atom_site_fract_x
_atom_site_fract_y
_atom_site_fract_z
Si Si1 0.090063 0.505146 0.903009
Si Si2 0.842301 0.246796 0.803306
Si Si3 0.775487 0.011607 0.404437
Si Si4 0.540543 0.532596 0.901489
O O1 0.126423 0.608587 0.857844
O O2 0.068399 0.252040 0.863448
O O3 0.061061 0.748604 0.902864
O O4 0.100137 0.437301 0.000000
O O5 0.826248 0.500000 0.750000
O O6 0.811020 0.087979 0.854820
O O7 0.859392 0.000000 0.750000
O O8 0.786064 0.099019 0.500000
O O9 0.750000 0.750000 0.410019
O O10 0.750000 0.250000 0.367114
O O11 0.500000 0.500000 0.864112
O O12 0.535091 0.622850 0.000000
#
# Coordination Sequence:
#
# PCOD9497221 Si02
#       4
#    16  16  16  16
#     4  10  20  36  59  86 120 161 204 252 306 365
#     4  12  25  40  60  89 127 166 205 253 307 373
#     4  10  22  42  67  92 119 155 204 260 314 371
#     4   9  17  31  56  89 118 149 200 261 309 353
#
# _framework density 22.441782
#
# number of rings (size 3 to 8) (size 9 to 14) (size 15 to 20)
#    0.000    1.750    0.000    4.500    0.000    5.000 
#    0.000   10.000    0.000   11.250    0.000    0.000 
#    0.000    0.000    0.000    0.000    0.000    0.000 
#
# Total GULP energy -178785.507478 kJ/mol
# GULP energy per Si atom -5587.047109 kJ/mol
# Density = 2.239070 g / cm^3
# Si number density = 22.441782 Si / 1000 Ang^3
#
#
#
# Elastic Constant Matrix: (Units=GPa)
#
#
# Indices 1 2 3 4 5 6 
#
# 1 115.9410 20.4657 48.3027 0.0000 0.0000 0.0000
# 2 20.4657 110.8662 18.2149 0.0000 0.0000 0.0000
# 3 48.3027 18.2149 41.5411 0.0000 0.0000 0.0000
# 4 0.0000 0.0000 0.0000 -15.2510 0.0000 0.0000
# 5 0.0000 0.0000 0.0000 0.0000 -3.0235 0.0000
# 6 0.0000 0.0000 0.0000 0.0000 0.0000 15.3571
#
#
#
# Elastic Compliance Matrix: (Units=1/GPa)
#
#
# Indices 1 2 3 4 5 6 
#
# 1 0.016730 0.000116 -0.019505 0.000000 0.000000 0.000000
# 2 0.000116 0.009721 -0.004397 0.000000 0.000000 0.000000
# 3 -0.019505 -0.004397 0.048680 0.000000 0.000000 0.000000
# 4 0.000000 0.000000 0.000000 -0.065570 0.000000 0.000000
# 5 0.000000 0.000000 0.000000 0.000000 -0.330744 0.000000
# 6 0.000000 0.000000 0.000000 0.000000 0.000000 0.065117
#
#
# Mechanical properties :
#
#
# Convention : Reuss Voigt Hill
#
# Bulk Modulus (GPa) = 36.28497 49.14608 42.71552
# Shear Modulus (GPa) = -25.08688 11.50753 -6.78967
#
# Velocity S-wave (km/s) = -3.34708 2.26691 -1.74127
# Velocity P-wave (km/s) = 1.12533 5.36644 3.87718
#
# Compressibility (1/GPa) = 0.02755962
#
# Stress axis : x y z
#
# Youngs Moduli (GPa) = 59.77127 102.87084 20.54235
#
# Poissons Ratio (x) = -0.01194 0.40067
# Poissons Ratio (y) = -0.00694 0.09033
# Poissons Ratio (z) = 1.16581 0.45237
#
# Static dielectric constant tensor:
#      x y z
#    x 1.814460 0.000000 0.000000 
#    y 0.000000 1.794720 0.000000 
#    z 0.000000 0.000000 1.922820 
# 
# From -- ./inp_files/44482.got.cif
#   From: 2010.05.17/outbox.cif.g08.bks.cpg/sg66_23_cif.got.tgz:44482.got - 2010.06.03 17:51:23.
