data_PCOD9497388
_publ_section_title
;
Structure prediction by ZEFSAII (Michael W. Deem and Ramdas Pophale) SiO2 
 PCOD9497388
Probable space group: C C C M
;
_chemical_formula_sum "Si O2"
_cell_formula_units_Z 80
_cell_length_a 11.223910
_cell_length_b 11.414984
_cell_length_c 29.571779
_cell_angle_alpha 90.000000
_cell_angle_beta 90.000000
_cell_angle_gamma 90.000000
_cell_volume 3788.758595
_symmetry_space_group_name_H-M "C C C M"
_symmetry_group_IT_number 66
_symmetry_cell_setting 'orthorhombic'
loop_
_space_group_symop_operation_xyz
x,y,z
-x,-y,z
x,-y,1/2-z
-x,y,1/2-z
-x,-y,-z
x,y,-z
-x,y,1/2+z
x,-y,1/2+z
1/2+x,1/2+y,z
1/2-x,1/2-y,z
1/2+x,1/2-y,1/2-z
1/2-x,1/2+y,1/2-z
1/2-x,1/2-y,-z
1/2+x,1/2+y,-z
1/2-x,1/2+y,1/2+z
1/2+x,1/2-y,1/2+z
loop_
_atom_site_type_symbol
_atom_site_label
_atom_site_fract_x
_atom_site_fract_y
_atom_site_fract_z
Si Si1 0.887205 0.291456 0.550138
Si Si2 0.167063 0.558204 0.364832
Si Si3 0.055772 0.874198 0.622396
Si Si4 0.381563 0.192771 0.330690
Si Si5 0.677926 0.127324 0.265471
O O1 0.927842 0.325623 0.500000
O O2 0.750000 0.250000 0.546712
O O3 0.888735 0.387189 0.590005
O O4 0.953405 0.181009 0.572324
O O5 0.305031 0.603228 0.366058
O O6 0.136862 0.421180 0.362228
O O7 0.127277 0.602348 0.315305
O O8 0.978985 0.786798 0.653474
O O9 0.000000 0.000000 0.625113
O O10 0.250000 0.250000 0.331285
O O11 0.399302 0.153095 0.278964
O O12 0.750000 0.250000 0.270518
O O13 0.738257 0.000000 0.250000
#
# Coordination Sequence:
#
# PCOD9497388 Si02
#       5
#    16  16  16  16  16
#     4   9  20  39  63  89 120 161 208 262 324 382
#     4  10  20  40  64  86 127 166 204 260 318 378
#     4  11  21  36  65  94 118 162 214 254 317 384
#     4  10  20  37  60  91 129 161 203 257 316 373
#     4   9  18  34  58  83 121 168 196 246 310 368
#
# _framework density 21.115093999999999
#
# number of rings (size 3 to 8) (size 9 to 14) (size 15 to 20)
#    0.000    2.200    2.000    1.800    0.000    1.200 
#    0.000   11.000    0.000   13.200    0.000    0.000 
#    0.000    0.000    0.000    0.000    0.000    0.000 
#
# Total GULP energy -222866.295473 kJ/mol
# GULP energy per Si atom -5571.657387 kJ/mol
# Density = 2.106704 g / cm^3
# Si number density = 21.115094 Si / 1000 Ang^3
#
#
#
# Elastic Constant Matrix: (Units=GPa)
#
#
# Indices 1 2 3 4 5 6 
#
# 1 91.4731 50.4521 41.1238 0.0000 0.0000 0.0000
# 2 50.4521 192.2625 86.7435 0.0000 0.0000 0.0000
# 3 41.1238 86.7435 183.5956 0.0000 0.0000 0.0000
# 4 0.0000 0.0000 0.0000 20.8949 0.0000 0.0000
# 5 0.0000 0.0000 0.0000 0.0000 16.2709 0.0000
# 6 0.0000 0.0000 0.0000 0.0000 0.0000 27.0854
#
#
#
# Elastic Compliance Matrix: (Units=1/GPa)
#
#
# Indices 1 2 3 4 5 6 
#
# 1 0.013175 -0.002702 -0.001675 0.000000 0.000000 0.000000
# 2 -0.002702 0.007164 -0.002780 0.000000 0.000000 0.000000
# 3 -0.001675 -0.002780 0.007135 0.000000 0.000000 0.000000
# 4 0.000000 0.000000 0.000000 0.047859 0.000000 0.000000
# 5 0.000000 0.000000 0.000000 0.000000 0.061459 0.000000
# 6 0.000000 0.000000 0.000000 0.000000 0.000000 0.036920
#
#
# Mechanical properties :
#
#
# Convention : Reuss Voigt Hill
#
# Bulk Modulus (GPa) = 75.97386 91.55222 83.76304
# Shear Modulus (GPa) = 25.98577 32.11769 29.05173
#
# Velocity S-wave (km/s) = 3.51190 3.90433 3.71330
# Velocity P-wave (km/s) = 7.24593 7.98610 7.62500
#
# Compressibility (1/GPa) = 0.01316242
#
# Stress axis : x y z
#
# Youngs Moduli (GPa) = 75.90012 139.57969 140.14999
#
# Poissons Ratio (x) = 0.37712 0.23470
# Poissons Ratio (y) = 0.20507 0.38959
# Poissons Ratio (z) = 0.12710 0.38800
#
# Static dielectric constant tensor:
#      x y z
#    x 1.845640 0.000000 0.000000 
#    y 0.000000 1.801410 0.000000 
#    z 0.000000 0.000000 1.747240 
# 
# From -- ./inp_files/68756.got.cif
#   From: 2010.05.17/outbox.cif.g08.bks.cpg/sg66_35_cif.got.tgz:68756.got - 2010.06.03 17:51:23.
