data_PCOD9497167
_publ_section_title
;
Structure prediction by ZEFSAII (Michael W. Deem and Ramdas Pophale) SiO2 
 PCOD9497167
Probable space group: C C C M
;
_chemical_formula_sum "Si O2"
_cell_formula_units_Z 96
_cell_length_a 9.462845
_cell_length_b 30.481639
_cell_length_c 18.935519
_cell_angle_alpha 90.000000
_cell_angle_beta 90.000000
_cell_angle_gamma 90.000000
_cell_volume 5461.818384
_symmetry_space_group_name_H-M "C C C M"
_symmetry_group_IT_number 66
_symmetry_cell_setting 'orthorhombic'
loop_
_space_group_symop_operation_xyz
x,y,z
-x,-y,z
x,-y,1/2-z
-x,y,1/2-z
-x,-y,-z
x,y,-z
-x,y,1/2+z
x,-y,1/2+z
1/2+x,1/2+y,z
1/2-x,1/2-y,z
1/2+x,1/2-y,1/2-z
1/2-x,1/2+y,1/2-z
1/2-x,1/2-y,-z
1/2+x,1/2+y,-z
1/2-x,1/2+y,1/2+z
1/2+x,1/2-y,1/2+z
loop_
_atom_site_type_symbol
_atom_site_label
_atom_site_fract_x
_atom_site_fract_y
_atom_site_fract_z
Si Si1 0.126717 0.714376 0.416204
Si Si2 0.678688 0.878108 0.321297
Si Si3 0.885527 0.720552 0.314436
Si Si4 0.680051 0.456678 0.583771
Si Si5 0.345926 0.445481 0.584548
Si Si6 0.349852 0.880507 0.341631
O O1 0.109798 0.706750 0.500000
O O2 0.250000 0.750000 0.405614
O O3 0.160822 0.667830 0.377493
O O4 0.984448 0.733460 0.380363
O O5 0.679256 0.826347 0.335031
O O6 0.777372 0.907089 0.370241
O O7 0.516071 0.891061 0.335599
O O8 0.709108 0.881423 0.237994
O O9 0.750000 0.750000 0.296547
O O10 0.000000 0.716200 0.250000
O O11 0.700210 0.456775 0.500000
O O12 0.514275 0.447469 0.596226
O O13 0.711692 0.506545 0.607435
O O14 0.771942 0.418317 0.616116
O O15 0.322174 0.440046 0.500000
#
# Coordination Sequence:
#
# PCOD9497167 Si02
#       6
#    16  16  16  16  16  16
#     4  10  21  38  60  87 119 154 195 243 292 344
#     4  10  21  37  55  84 113 146 190 236 285 346
#     4  11  22  40  61  83 117 155 196 236 293 354
#     4   9  19  37  58  80 111 154 195 235 290 346
#     4   9  20  38  57  81 115 150 191 242 289 340
#     4  10  20  36  56  81 115 149 192 235 286 344
#
# _framework density 17.576564999999999
#
# number of rings (size 3 to 8) (size 9 to 14) (size 15 to 20)
#    0.000    2.167    3.333    2.000    0.000    7.000 
#    0.000    6.667    0.000    0.000    0.000    0.000 
#    0.000    0.000    0.000    0.000    0.000    0.000 
#
# Total GULP energy -267509.687011 kJ/mol
# GULP energy per Si atom -5573.118479 kJ/mol
# Density = 1.753656 g / cm^3
# Si number density = 17.576565 Si / 1000 Ang^3
#
#
#
# Elastic Constant Matrix: (Units=GPa)
#
#
# Indices 1 2 3 4 5 6 
#
# 1 51.6685 61.8187 48.0306 0.0000 0.0000 0.0000
# 2 61.8187 98.4966 54.4712 0.0000 0.0000 0.0000
# 3 48.0306 54.4712 85.6725 0.0000 0.0000 0.0000
# 4 0.0000 0.0000 0.0000 21.8646 0.0000 0.0000
# 5 0.0000 0.0000 0.0000 0.0000 38.9419 0.0000
# 6 0.0000 0.0000 0.0000 0.0000 0.0000 32.7284
#
#
#
# Elastic Compliance Matrix: (Units=1/GPa)
#
#
# Indices 1 2 3 4 5 6 
#
# 1 0.106160 -0.051998 -0.026456 0.000000 0.000000 0.000000
# 2 -0.051998 0.041127 0.003003 0.000000 0.000000 0.000000
# 3 -0.026456 0.003003 0.024595 0.000000 0.000000 0.000000
# 4 0.000000 0.000000 0.000000 0.045736 0.000000 0.000000
# 5 0.000000 0.000000 0.000000 0.000000 0.025679 0.000000
# 6 0.000000 0.000000 0.000000 0.000000 0.000000 0.030554
#
#
# Mechanical properties :
#
#
# Convention : Reuss Voigt Hill
#
# Bulk Modulus (GPa) = 47.66391 62.71986 55.19188
# Shear Modulus (GPa) = 11.58082 23.47479 17.52780
#
# Velocity S-wave (km/s) = 2.56965 3.65851 3.16131
# Velocity P-wave (km/s) = 5.99840 7.32172 6.69285
#
# Compressibility (1/GPa) = 0.02098024
#
# Stress axis : x y z
#
# Youngs Moduli (GPa) = 9.41973 24.31486 40.65799
#
# Poissons Ratio (x) = 1.26432 1.07565
# Poissons Ratio (y) = 0.48980 -0.12208
# Poissons Ratio (z) = 0.24921 -0.07301
#
# Static dielectric constant tensor:
#      x y z
#    x 1.595900 0.000000 0.000000 
#    y 0.000000 1.783650 0.000000 
#    z 0.000000 0.000000 1.612270 
# 
# From -- ./inp_files/47289.got.cif
#   From: 2010.05.17/outbox.cif.g08.bks.cpg/sg66_24_cif.got.tgz:47289.got - 2010.06.03 17:51:23.
