data_PCOD9497795
_publ_section_title
;
Structure prediction by ZEFSAII (Michael W. Deem and Ramdas Pophale) SiO2 
 PCOD9497795
Probable space group: C C C M
;
_chemical_formula_sum "Si O2"
_cell_formula_units_Z 80
_cell_length_a 10.969025
_cell_length_b 12.140262
_cell_length_c 29.650305
_cell_angle_alpha 90.000000
_cell_angle_beta 90.000000
_cell_angle_gamma 90.000000
_cell_volume 3948.437344
_symmetry_space_group_name_H-M "C C C M"
_symmetry_group_IT_number 66
_symmetry_cell_setting 'orthorhombic'
loop_
_space_group_symop_operation_xyz
x,y,z
-x,-y,z
x,-y,1/2-z
-x,y,1/2-z
-x,-y,-z
x,y,-z
-x,y,1/2+z
x,-y,1/2+z
1/2+x,1/2+y,z
1/2-x,1/2-y,z
1/2+x,1/2-y,1/2-z
1/2-x,1/2+y,1/2-z
1/2-x,1/2-y,-z
1/2+x,1/2+y,-z
1/2-x,1/2+y,1/2+z
1/2+x,1/2-y,1/2+z
loop_
_atom_site_type_symbol
_atom_site_label
_atom_site_fract_x
_atom_site_fract_y
_atom_site_fract_z
Si Si1 0.867868 0.177772 0.755661
Si Si2 0.069018 0.764852 0.445641
Si Si3 0.866086 0.994693 0.174155
Si Si4 0.680261 0.364330 0.950013
Si Si5 0.219737 0.422375 0.909413
O O1 0.750000 0.250000 0.747231
O O2 0.876994 0.086481 0.716570
O O3 0.000000 0.236165 0.750000
O O4 0.846761 0.114538 0.803302
O O5 0.060562 0.744606 0.500000
O O6 0.099806 0.650099 0.419816
O O7 0.177905 0.849033 0.434712
O O8 0.948188 0.828039 0.429012
O O9 0.764525 0.942886 0.141659
O O10 0.000000 0.000000 0.151510
O O11 0.750000 0.250000 0.952905
O O12 0.767381 0.455188 0.928740
O O13 0.650047 0.406672 0.000000
#
# Coordination Sequence:
#
# PCOD9497795 Si02
#       5
#    16  16  16  16  16
#     4   9  19  37  61  83 110 146 181 229 286 347
#     4  10  21  35  55  84 113 147 195 247 290 330
#     4   9  19  35  55  82 109 142 183 222 283 348
#     4  10  21  36  54  76 111 157 192 227 290 353
#     4  11  20  34  57  83 111 143 190 243 281 337
#
# _framework density 20.261181000000001
#
# number of rings (size 3 to 8) (size 9 to 14) (size 15 to 20)
#    0.000    2.200    0.000    5.400    2.800    3.200 
#    0.000    5.000    4.400    0.000    0.000    0.000 
#    0.000    0.000    0.000    0.000    0.000    0.000 
#
# Total GULP energy -222711.539146 kJ/mol
# GULP energy per Si atom -5567.788479 kJ/mol
# Density = 2.021507 g / cm^3
# Si number density = 20.261181 Si / 1000 Ang^3
#
#
#
# Elastic Constant Matrix: (Units=GPa)
#
#
# Indices 1 2 3 4 5 6 
#
# 1 54.7742 14.4622 3.8222 0.0000 0.0000 0.0000
# 2 14.4622 86.6056 17.7793 0.0000 0.0000 0.0000
# 3 3.8222 17.7793 75.8559 0.0000 0.0000 0.0000
# 4 0.0000 0.0000 0.0000 31.3530 0.0000 0.0000
# 5 0.0000 0.0000 0.0000 0.0000 122.1423 0.0000
# 6 0.0000 0.0000 0.0000 0.0000 0.0000 19.0441
#
#
#
# Elastic Compliance Matrix: (Units=1/GPa)
#
#
# Indices 1 2 3 4 5 6 
#
# 1 0.019103 -0.003144 -0.000226 0.000000 0.000000 0.000000
# 2 -0.003144 0.012648 -0.002806 0.000000 0.000000 0.000000
# 3 -0.000226 -0.002806 0.013852 0.000000 0.000000 0.000000
# 4 0.000000 0.000000 0.000000 0.031895 0.000000 0.000000
# 5 0.000000 0.000000 0.000000 0.000000 0.008187 0.000000
# 6 0.000000 0.000000 0.000000 0.000000 0.000000 0.052510
#
#
# Mechanical properties :
#
#
# Convention : Reuss Voigt Hill
#
# Bulk Modulus (GPa) = 30.07386 32.15147 31.11266
# Shear Modulus (GPa) = 30.93522 46.58601 38.76061
#
# Velocity S-wave (km/s) = 3.91170 4.80028 4.37859
# Velocity P-wave (km/s) = 5.93946 6.82836 6.39936
#
# Compressibility (1/GPa) = 0.03325147
#
# Stress axis : x y z
#
# Youngs Moduli (GPa) = 52.34914 79.06654 72.19206
#
# Poissons Ratio (x) = 0.24855 0.01630
# Poissons Ratio (y) = 0.16456 0.20257
# Poissons Ratio (z) = 0.01182 0.22186
#
# Static dielectric constant tensor:
#      x y z
#    x 1.781780 0.000000 0.000000 
#    y 0.000000 1.718560 0.000000 
#    z 0.000000 0.000000 1.774300 
# 
# From -- ./inp_files/68777.got.cif
#   From: 2010.05.17/outbox.cif.g08.bks.cpg/sg66_35_cif.got.tgz:68777.got - 2010.06.03 17:51:23.
