data_PCOD9497041
_publ_section_title
;
Structure prediction by ZEFSAII (Michael W. Deem and Ramdas Pophale) SiO2 
 PCOD9497041
Probable space group: C C C M
;
_chemical_formula_sum "Si O2"
_cell_formula_units_Z 104
_cell_length_a 28.166553
_cell_length_b 20.402956
_cell_length_c 9.934198
_cell_angle_alpha 90.000000
_cell_angle_beta 90.000000
_cell_angle_gamma 90.000000
_cell_volume 5708.994260
_symmetry_space_group_name_H-M "C C C M"
_symmetry_group_IT_number 66
_symmetry_cell_setting 'orthorhombic'
loop_
_space_group_symop_operation_xyz
x,y,z
-x,-y,z
x,-y,1/2-z
-x,y,1/2-z
-x,-y,-z
x,y,-z
-x,y,1/2+z
x,-y,1/2+z
1/2+x,1/2+y,z
1/2-x,1/2-y,z
1/2+x,1/2-y,1/2-z
1/2-x,1/2+y,1/2-z
1/2-x,1/2-y,-z
1/2+x,1/2+y,-z
1/2-x,1/2+y,1/2+z
1/2+x,1/2-y,1/2+z
loop_
_atom_site_type_symbol
_atom_site_label
_atom_site_fract_x
_atom_site_fract_y
_atom_site_fract_z
Si Si1 0.862007 0.832853 0.653591
Si Si2 0.876557 0.500000 0.750000
Si Si3 0.453852 0.104850 0.342908
Si Si4 0.205244 0.709951 0.152670
Si Si5 0.045560 0.243608 0.658745
Si Si6 0.688592 0.562327 0.841176
Si Si7 0.200073 0.405353 0.146554
O O1 0.859049 0.860639 0.500000
O O2 0.835831 0.762981 0.647624
O O3 0.915425 0.811753 0.687134
O O4 0.836338 0.877281 0.764166
O O5 0.911524 0.554203 0.686304
O O6 0.839670 0.538657 0.844994
O O7 0.500000 0.091547 0.250000
O O8 0.467412 0.099506 0.500000
O O9 0.438410 0.180556 0.317339
O O10 0.250000 0.750000 0.210734
O O11 0.192095 0.647348 0.237882
O O12 0.218173 0.689683 0.000000
O O13 0.034339 0.239967 0.500000
O O14 0.000000 0.233487 0.750000
O O15 0.675600 0.500000 0.750000
O O16 0.745993 0.569296 0.836925
O O17 0.675737 0.557655 0.000000
O O18 0.197185 0.373115 0.000000
#
# Coordination Sequence:
#
# PCOD9497041 Si02
#       7
#    16   8  16  16  16  16  16
#     4  10  20  37  60  86 114 150 191 233 288 351
#     4  12  23  38  56  80 116 160 207 244 288 340
#     4  10  22  40  61  83 113 152 197 246 294 345
#     4  10  20  35  57  81 109 149 193 238 291 348
#     4   9  19  37  61  88 116 146 187 237 290 347
#     4  11  23  39  57  82 115 154 194 233 282 340
#     4  11  24  37  53  80 114 152 197 247 290 334
#
# _framework density 18.216868000000002
#
# number of rings (size 3 to 8) (size 9 to 14) (size 15 to 20)
#    0.000    1.692    2.308    2.077    0.000    6.462 
#    0.000    3.077    0.000    0.462    0.000    3.231 
#    0.000    0.000    0.000    0.000    0.000    0.000 
#
# Total GULP energy -290027.415535 kJ/mol
# GULP energy per Si atom -5577.450299 kJ/mol
# Density = 1.817541 g / cm^3
# Si number density = 18.216868 Si / 1000 Ang^3
#
#
#
# Elastic Constant Matrix: (Units=GPa)
#
#
# Indices 1 2 3 4 5 6 
#
# 1 100.2352 38.2837 51.3621 0.0000 0.0000 0.0000
# 2 38.2837 63.4408 59.5759 0.0000 0.0000 0.0000
# 3 51.3621 59.5759 112.3574 0.0000 0.0000 0.0000
# 4 0.0000 0.0000 0.0000 16.1941 0.0000 0.0000
# 5 0.0000 0.0000 0.0000 0.0000 63.9012 0.0000
# 6 0.0000 0.0000 0.0000 0.0000 0.0000 32.0494
#
#
#
# Elastic Compliance Matrix: (Units=1/GPa)
#
#
# Indices 1 2 3 4 5 6 
#
# 1 0.013713 -0.004757 -0.003746 0.000000 0.000000 0.000000
# 2 -0.004757 0.033046 -0.015347 0.000000 0.000000 0.000000
# 3 -0.003746 -0.015347 0.018750 0.000000 0.000000 0.000000
# 4 0.000000 0.000000 0.000000 0.061751 0.000000 0.000000
# 5 0.000000 0.000000 0.000000 0.000000 0.015649 0.000000
# 6 0.000000 0.000000 0.000000 0.000000 0.000000 0.031202
#
#
# Mechanical properties :
#
#
# Convention : Reuss Voigt Hill
#
# Bulk Modulus (GPa) = 56.15557 63.83075 59.99316
# Shear Modulus (GPa) = 21.95397 30.88307 26.41852
#
# Velocity S-wave (km/s) = 3.47529 4.12187 3.81231
# Velocity P-wave (km/s) = 6.85540 7.60056 7.23758
#
# Compressibility (1/GPa) = 0.01780767
#
# Stress axis : x y z
#
# Youngs Moduli (GPa) = 72.92274 30.26085 53.33200
#
# Poissons Ratio (x) = 0.14396 0.19979
# Poissons Ratio (y) = 0.34691 0.81851
# Poissons Ratio (z) = 0.27319 0.46443
#
# Static dielectric constant tensor:
#      x y z
#    x 1.645520 0.000000 0.000000 
#    y 0.000000 1.626520 0.000000 
#    z 0.000000 0.000000 1.629230 
# 
# From -- ./inp_files/10387.got.cif
#   From: 2010.05.17/outbox.cif.g08.bks.cpg/sg66_6_cif.got.tgz:10387.got - 2010.06.03 17:51:23.
