data_PCOD9497876
_publ_section_title
;
Structure prediction by ZEFSAII (Michael W. Deem and Ramdas Pophale) SiO2 
 PCOD9497876
Probable space group: C C C M
;
_chemical_formula_sum "Si O2"
_cell_formula_units_Z 64
_cell_length_a 15.853149
_cell_length_b 7.361160
_cell_length_c 23.131104
_cell_angle_alpha 90.000000
_cell_angle_beta 90.000000
_cell_angle_gamma 90.000000
_cell_volume 2699.343542
_symmetry_space_group_name_H-M "C C C M"
_symmetry_group_IT_number 66
_symmetry_cell_setting 'orthorhombic'
loop_
_space_group_symop_operation_xyz
x,y,z
-x,-y,z
x,-y,1/2-z
-x,y,1/2-z
-x,-y,-z
x,y,-z
-x,y,1/2+z
x,-y,1/2+z
1/2+x,1/2+y,z
1/2-x,1/2-y,z
1/2+x,1/2-y,1/2-z
1/2-x,1/2+y,1/2-z
1/2-x,1/2-y,-z
1/2+x,1/2+y,-z
1/2-x,1/2+y,1/2+z
1/2+x,1/2-y,1/2+z
loop_
_atom_site_type_symbol
_atom_site_label
_atom_site_fract_x
_atom_site_fract_y
_atom_site_fract_z
Si Si1 0.184203 0.083860 0.935136
Si Si2 0.371226 0.361138 0.335645
Si Si3 0.151280 0.746951 0.712021
Si Si4 0.536109 0.817196 0.886906
O O1 0.250000 0.250000 0.929094
O O2 0.094994 0.186913 0.924846
O O3 0.191599 0.925347 0.887087
O O4 0.190231 0.011358 0.000000
O O5 0.384204 0.555662 0.305102
O O6 0.349755 0.230078 0.281444
O O7 0.454911 0.289758 0.365045
O O8 0.250000 0.750000 0.696836
O O9 0.093893 0.627657 0.669305
O O10 0.500000 0.000000 0.915315
#
# Coordination Sequence:
#
# PCOD9497876 Si02
#       4
#    16  16  16  16
#     4  10  22  43  66  85 113 158 209 256 307 368
#     4  10  21  36  59  88 119 157 202 244 297 365
#     4  10  21  38  59  85 123 164 201 240 295 369
#     4  11  23  37  59  92 128 157 197 253 306 362
#
# _framework density 23.70947
#
# number of rings (size 3 to 8) (size 9 to 14) (size 15 to 20)
#    0.000    1.750    0.000    6.750    0.000   14.500 
#    0.000    0.000    0.000    3.750    0.000    0.000 
#    0.000    0.000    0.000    0.000    0.000    0.000 
#
# Total GULP energy -178451.300688 kJ/mol
# GULP energy per Si atom -5576.603146 kJ/mol
# Density = 2.365551 g / cm^3
# Si number density = 23.709470 Si / 1000 Ang^3
#
#
#
# Elastic Constant Matrix: (Units=GPa)
#
#
# Indices 1 2 3 4 5 6 
#
# 1 75.2624 5.6517 -13.1434 0.0000 0.0000 0.0000
# 2 5.6517 44.6784 -11.4845 0.0000 0.0000 0.0000
# 3 -13.1434 -11.4845 152.7638 0.0000 0.0000 0.0000
# 4 0.0000 0.0000 0.0000 22.5949 0.0000 0.0000
# 5 0.0000 0.0000 0.0000 0.0000 18.6309 0.0000
# 6 0.0000 0.0000 0.0000 0.0000 0.0000 29.6384
#
#
#
# Elastic Compliance Matrix: (Units=1/GPa)
#
#
# Indices 1 2 3 4 5 6 
#
# 1 0.013580 -0.001445 0.001060 0.000000 0.000000 0.000000
# 2 -0.001445 0.022977 0.001603 0.000000 0.000000 0.000000
# 3 0.001060 0.001603 0.006758 0.000000 0.000000 0.000000
# 4 0.000000 0.000000 0.000000 0.044258 0.000000 0.000000
# 5 0.000000 0.000000 0.000000 0.000000 0.053674 0.000000
# 6 0.000000 0.000000 0.000000 0.000000 0.000000 0.033740
#
#
# Mechanical properties :
#
#
# Convention : Reuss Voigt Hill
#
# Bulk Modulus (GPa) = 21.85799 26.08357 23.97078
# Shear Modulus (GPa) = 26.62369 33.61823 30.12096
#
# Velocity S-wave (km/s) = 3.35463 3.76962 3.56816
# Velocity P-wave (km/s) = 4.92380 5.47466 5.20652
#
# Compressibility (1/GPa) = 0.04574986
#
# Stress axis : x y z
#
# Youngs Moduli (GPa) = 73.63524 43.52165 147.97836
#
# Poissons Ratio (x) = 0.06291 -0.15682
# Poissons Ratio (y) = 0.10644 -0.23721
# Poissons Ratio (z) = -0.07804 -0.06977
#
# Static dielectric constant tensor:
#      x y z
#    x 1.895260 0.000000 0.000000 
#    y 0.000000 1.926030 0.000000 
#    z 0.000000 0.000000 2.001020 
# 
# From -- ./inp_files/57661.got.cif
#   From: 2010.05.17/outbox.cif.g08.bks.cpg/sg66_29_cif.got.tgz:57661.got - 2010.06.03 17:51:23.
