data_PCOD9497911
_publ_section_title
;
Structure prediction by ZEFSAII (Michael W. Deem and Ramdas Pophale) SiO2 
 PCOD9497911
Probable space group: C C C M
;
_chemical_formula_sum "Si O2"
_cell_formula_units_Z 104
_cell_length_a 20.371317
_cell_length_b 23.015242
_cell_length_c 9.408073
_cell_angle_alpha 90.000000
_cell_angle_beta 90.000000
_cell_angle_gamma 90.000000
_cell_volume 4410.982464
_symmetry_space_group_name_H-M "C C C M"
_symmetry_group_IT_number 66
_symmetry_cell_setting 'orthorhombic'
loop_
_space_group_symop_operation_xyz
x,y,z
-x,-y,z
x,-y,1/2-z
-x,y,1/2-z
-x,-y,-z
x,y,-z
-x,y,1/2+z
x,-y,1/2+z
1/2+x,1/2+y,z
1/2-x,1/2-y,z
1/2+x,1/2-y,1/2-z
1/2-x,1/2+y,1/2-z
1/2-x,1/2-y,-z
1/2+x,1/2+y,-z
1/2-x,1/2+y,1/2+z
1/2+x,1/2-y,1/2+z
loop_
_atom_site_type_symbol
_atom_site_label
_atom_site_fract_x
_atom_site_fract_y
_atom_site_fract_z
Si Si1 0.888004 0.486932 0.000000
Si Si2 0.242698 0.330998 0.666299
Si Si3 0.413313 0.441385 0.163495
Si Si4 0.578133 0.914971 0.766496
Si Si5 0.375554 0.215119 0.831732
Si Si6 0.245337 0.055163 0.159946
Si Si7 0.902149 0.824913 0.665368
O O1 0.099401 0.462379 0.119971
O O2 0.889064 0.435631 0.121793
O O3 0.223533 0.331038 0.500000
O O4 0.194731 0.287664 0.750425
O O5 0.231665 0.388980 0.757658
O O6 0.322087 0.327767 0.664850
O O7 0.430769 0.500000 0.250000
O O8 0.333761 0.443042 0.152115
O O9 0.426561 0.383143 0.254368
O O10 0.438473 0.440317 0.000000
O O11 0.500000 0.919923 0.750000
O O12 0.593584 0.848489 0.809460
O O13 0.415991 0.266915 0.756008
O O14 0.367365 0.226839 0.000000
O O15 0.263488 0.000000 0.250000
O O16 0.270649 0.048707 0.000000
O O17 0.923377 0.822698 0.500000
#
# Coordination Sequence:
#
# PCOD9497911 Si02
#       7
#     8  16  16  16  16  16  16
#     4  10  21  42  70  90 112 148 190 238 302 364
#     4  10  21  37  52  71 101 144 191 234 280 340
#     4   9  16  28  50  76 101 136 180 226 270 318
#     4  11  22  41  66  91 115 146 189 242 300 365
#     4  12  25  38  53  83 113 144 187 231 288 352
#     4   9  16  28  45  66  93 127 170 221 276 320
#     4  10  21  37  56  76 109 151 194 239 285 339
#
# _framework density 23.577514999999998
#
# number of rings (size 3 to 8) (size 9 to 14) (size 15 to 20)
#    0.000    1.846    0.769    4.615    2.154    7.385 
#    2.769    0.000    0.000    0.000    0.000    0.000 
#    0.000    0.615    0.000    4.462    0.000    1.846 
#
# Total GULP energy -289849.212587 kJ/mol
# GULP energy per Si atom -5574.023319 kJ/mol
# Density = 2.352385 g / cm^3
# Si number density = 23.577515 Si / 1000 Ang^3
#
#
#
# Elastic Constant Matrix: (Units=GPa)
#
#
# Indices 1 2 3 4 5 6 
#
# 1 86.8226 8.3140 27.5362 0.0000 0.0000 0.0000
# 2 8.3140 178.0637 89.9924 0.0000 0.0000 0.0000
# 3 27.5362 89.9924 267.8600 0.0000 0.0000 0.0000
# 4 0.0000 0.0000 0.0000 31.3302 0.0000 0.0000
# 5 0.0000 0.0000 0.0000 0.0000 -0.5150 0.0000
# 6 0.0000 0.0000 0.0000 0.0000 0.0000 -5.0309
#
#
#
# Elastic Compliance Matrix: (Units=1/GPa)
#
#
# Indices 1 2 3 4 5 6 
#
# 1 0.011907 0.000075 -0.001249 0.000000 0.000000 0.000000
# 2 0.000075 0.006765 -0.002281 0.000000 0.000000 0.000000
# 3 -0.001249 -0.002281 0.004628 0.000000 0.000000 0.000000
# 4 0.000000 0.000000 0.000000 0.031918 0.000000 0.000000
# 5 0.000000 0.000000 0.000000 0.000000 -1.941915 0.000000
# 6 0.000000 0.000000 0.000000 0.000000 0.000000 -0.198771
#
#
# Mechanical properties :
#
#
# Convention : Reuss Voigt Hill
#
# Bulk Modulus (GPa) = 61.01001 87.15907 74.08454
# Shear Modulus (GPa) = -2.41185 32.28377 14.93596
#
# Velocity S-wave (km/s) = -1.01251 3.70437 2.51964
# Velocity P-wave (km/s) = 4.95637 7.43934 6.32097
#
# Compressibility (1/GPa) = 0.01639075
#
# Stress axis : x y z
#
# Youngs Moduli (GPa) = 83.98595 147.81867 216.07890
#
# Poissons Ratio (x) = -0.01116 0.26997
# Poissons Ratio (y) = -0.00634 0.49279
# Poissons Ratio (z) = 0.10493 0.33712
#
# Static dielectric constant tensor:
#      x y z
#    x 1.910230 0.000000 0.000000 
#    y 0.000000 1.869760 0.000000 
#    z 0.000000 0.000000 1.812780 
# 
# From -- ./inp_files/11671.got.cif
#   From: 2010.05.17/outbox.cif.g08.bks.cpg/sg66_6_cif.got.tgz:11671.got - 2010.06.03 17:51:23.
