data_PCOD9497633
_publ_section_title
;
Structure prediction by ZEFSAII (Michael W. Deem and Ramdas Pophale) SiO2 
 PCOD9497633
Probable space group: C C C M
;
_chemical_formula_sum "Si O2"
_cell_formula_units_Z 64
_cell_length_a 7.842410
_cell_length_b 19.025797
_cell_length_c 21.574230
_cell_angle_alpha 90.000000
_cell_angle_beta 90.000000
_cell_angle_gamma 90.000000
_cell_volume 3219.049881
_symmetry_space_group_name_H-M "C C C M"
_symmetry_group_IT_number 66
_symmetry_cell_setting 'orthorhombic'
loop_
_space_group_symop_operation_xyz
x,y,z
-x,-y,z
x,-y,1/2-z
-x,y,1/2-z
-x,-y,-z
x,y,-z
-x,y,1/2+z
x,-y,1/2+z
1/2+x,1/2+y,z
1/2-x,1/2-y,z
1/2+x,1/2-y,1/2-z
1/2-x,1/2+y,1/2-z
1/2-x,1/2-y,-z
1/2+x,1/2+y,-z
1/2-x,1/2+y,1/2+z
1/2+x,1/2-y,1/2+z
loop_
_atom_site_type_symbol
_atom_site_label
_atom_site_fract_x
_atom_site_fract_y
_atom_site_fract_z
Si Si1 0.362706 0.317987 0.194510
Si Si2 0.313091 0.532549 0.064983
Si Si3 0.403023 0.305551 0.427968
Si Si4 0.188693 0.533197 0.690040
O O1 0.500000 0.329071 0.250000
O O2 0.250000 0.250000 0.209059
O O3 0.459800 0.305254 0.128287
O O4 0.234158 0.384565 0.191176
O O5 0.500000 0.500000 0.059794
O O6 0.326105 0.615963 0.073164
O O7 0.245156 0.495938 0.124871
O O8 0.220877 0.517608 0.000000
O O9 0.466648 0.294623 0.500000
O O10 0.250000 0.250000 0.417230
O O11 0.280572 0.500000 0.750000
O O12 0.000000 0.500000 0.692802
#
# Coordination Sequence:
#
# PCOD9497633 Si02
#       4
#    16  16  16  16
#     4  12  27  43  67  96 134 177 222 275 337 400
#     4  10  20  39  66  93 124 168 222 272 326 387
#     4  10  22  41  66  95 131 175 222 272 330 394
#     4  11  26  42  65  95 129 166 221 278 334 393
#
# _framework density 19.881643
#
# number of rings (size 3 to 8) (size 9 to 14) (size 15 to 20)
#    0.000    1.250    2.500    2.250    7.000    1.000 
#    0.000    0.000    0.000    0.000    0.000    0.000 
#    0.000    0.000    0.000    0.000    0.000    0.000 
#
# Total GULP energy -178240.574767 kJ/mol
# GULP energy per Si atom -5570.017961 kJ/mol
# Density = 1.983639 g / cm^3
# Si number density = 19.881643 Si / 1000 Ang^3
#
#
#
# Elastic Constant Matrix: (Units=GPa)
#
#
# Indices 1 2 3 4 5 6 
#
# 1 84.9307 61.2201 54.5499 0.0000 0.0000 0.0000
# 2 61.2201 180.3638 50.7101 0.0000 0.0000 0.0000
# 3 54.5499 50.7101 152.3243 0.0000 0.0000 0.0000
# 4 0.0000 0.0000 0.0000 31.3115 0.0000 0.0000
# 5 0.0000 0.0000 0.0000 0.0000 20.3400 0.0000
# 6 0.0000 0.0000 0.0000 0.0000 0.0000 40.2750
#
#
#
# Elastic Compliance Matrix: (Units=1/GPa)
#
#
# Indices 1 2 3 4 5 6 
#
# 1 0.018500 -0.004873 -0.005003 0.000000 0.000000 0.000000
# 2 -0.004873 0.007400 -0.000719 0.000000 0.000000 0.000000
# 3 -0.005003 -0.000719 0.008596 0.000000 0.000000 0.000000
# 4 0.000000 0.000000 0.000000 0.031937 0.000000 0.000000
# 5 0.000000 0.000000 0.000000 0.000000 0.049164 0.000000
# 6 0.000000 0.000000 0.000000 0.000000 0.000000 0.024829
#
#
# Mechanical properties :
#
#
# Convention : Reuss Voigt Hill
#
# Bulk Modulus (GPa) = 75.14578 83.39765 79.27171
# Shear Modulus (GPa) = 30.11112 35.12787 32.61950
#
# Velocity S-wave (km/s) = 3.89590 4.20795 4.05493
# Velocity P-wave (km/s) = 7.62339 8.10230 7.86649
#
# Compressibility (1/GPa) = 0.01330747
#
# Stress axis : x y z
#
# Youngs Moduli (GPa) = 54.05373 135.12892 116.33541
#
# Poissons Ratio (x) = 0.65846 0.58203
# Poissons Ratio (y) = 0.26339 0.08360
# Poissons Ratio (z) = 0.27043 0.09710
#
# Static dielectric constant tensor:
#      x y z
#    x 1.647160 0.000000 0.000000 
#    y 0.000000 1.737530 0.000000 
#    z 0.000000 0.000000 1.770240 
# 
# From -- ./inp_files/46611.got.cif
#   From: 2010.05.17/outbox.cif.g08.bks.cpg/sg66_24_cif.got.tgz:46611.got - 2010.06.03 17:51:23.
