data_PCOD9497226
_publ_section_title
;
Structure prediction by ZEFSAII (Michael W. Deem and Ramdas Pophale) SiO2 
 PCOD9497226
Probable space group: C C C M
;
_chemical_formula_sum "Si O2"
_cell_formula_units_Z 116
_cell_length_a 9.015795
_cell_length_b 25.167979
_cell_length_c 25.388334
_cell_angle_alpha 90.000000
_cell_angle_beta 90.000000
_cell_angle_gamma 90.000000
_cell_volume 5760.850092
_symmetry_space_group_name_H-M "C C C M"
_symmetry_group_IT_number 66
_symmetry_cell_setting 'orthorhombic'
loop_
_space_group_symop_operation_xyz
x,y,z
-x,-y,z
x,-y,1/2-z
-x,y,1/2-z
-x,-y,-z
x,y,-z
-x,y,1/2+z
x,-y,1/2+z
1/2+x,1/2+y,z
1/2-x,1/2-y,z
1/2+x,1/2-y,1/2-z
1/2-x,1/2+y,1/2-z
1/2-x,1/2-y,-z
1/2+x,1/2+y,-z
1/2-x,1/2+y,1/2+z
1/2+x,1/2-y,1/2+z
loop_
_atom_site_type_symbol
_atom_site_label
_atom_site_fract_x
_atom_site_fract_y
_atom_site_fract_z
Si Si1 0.307596 0.125034 0.940433
Si Si2 0.125496 0.036125 0.889037
Si Si3 0.627698 0.704389 0.440111
Si Si4 0.140506 0.202557 0.139174
Si Si5 0.150460 0.606018 0.941038
Si Si6 0.527384 0.385206 0.808049
Si Si7 0.000000 0.500000 0.250000
Si Si8 0.704947 0.945899 0.333968
O O1 0.246173 0.066376 0.924449
O O2 0.241478 0.164184 0.897011
O O3 0.485243 0.130211 0.940547
O O4 0.255793 0.136599 0.000000
O O5 0.041061 0.081229 0.856066
O O6 0.195584 0.997912 0.844829
O O7 0.000000 0.000000 0.917465
O O8 0.569437 0.704153 0.500000
O O9 0.750000 0.750000 0.436047
O O10 0.497011 0.715856 0.399427
O O11 0.718231 0.649104 0.432613
O O12 0.250000 0.250000 0.155478
O O13 0.058433 0.170494 0.186032
O O14 0.147001 0.565870 0.892527
O O15 0.172768 0.583137 0.000000
O O16 0.500000 0.407579 0.750000
O O17 0.701932 0.393954 0.816918
O O18 0.907268 0.537636 0.288886
#
# Coordination Sequence:
#
# PCOD9497226 Si02
#       8
#    16  16  16  16  16  16   4  16
#     4  10  21  36  56  87 123 160 201 245 299 366
#     4   9  20  36  57  85 119 160 201 250 304 361
#     4  10  20  36  59  88 118 155 197 243 304 369
#     4  11  22  39  62  87 116 153 201 258 305 361
#     4  10  21  37  58  85 124 165 200 249 315 375
#     4  10  21  40  63  84 117 158 202 253 315 366
#     4  12  24  32  60  92 124 164 216 264 304 368
#     4  11  21  39  59  92 125 161 208 255 303 367
#
# _framework density 20.135916000000002
#
# number of rings (size 3 to 8) (size 9 to 14) (size 15 to 20)
#    0.000    1.793    1.379    2.897    0.000    6.069 
#    0.000    2.414    0.000    0.000    0.000    0.000 
#    0.000    0.000    0.000    0.000    0.000    0.000 
#
# Total GULP energy -323201.653714 kJ/mol
# GULP energy per Si atom -5572.442305 kJ/mol
# Density = 2.009009 g / cm^3
# Si number density = 20.135916 Si / 1000 Ang^3
#
#
#
# Elastic Constant Matrix: (Units=GPa)
#
#
# Indices 1 2 3 4 5 6 
#
# 1 91.9060 28.0299 27.3317 0.0000 0.0000 0.0000
# 2 28.0299 64.3482 14.6425 0.0000 0.0000 0.0000
# 3 27.3317 14.6425 81.6554 0.0000 0.0000 0.0000
# 4 0.0000 0.0000 0.0000 28.4607 0.0000 0.0000
# 5 0.0000 0.0000 0.0000 0.0000 1.4565 0.0000
# 6 0.0000 0.0000 0.0000 0.0000 0.0000 17.3104
#
#
#
# Elastic Compliance Matrix: (Units=1/GPa)
#
#
# Indices 1 2 3 4 5 6 
#
# 1 0.013497 -0.005058 -0.003611 0.000000 0.000000 0.000000
# 2 -0.005058 0.018097 -0.001552 0.000000 0.000000 0.000000
# 3 -0.003611 -0.001552 0.013734 0.000000 0.000000 0.000000
# 4 0.000000 0.000000 0.000000 0.035136 0.000000 0.000000
# 5 0.000000 0.000000 0.000000 0.000000 0.686591 0.000000
# 6 0.000000 0.000000 0.000000 0.000000 0.000000 0.057769
#
#
# Mechanical properties :
#
#
# Convention : Reuss Voigt Hill
#
# Bulk Modulus (GPa) = 40.18322 41.99086 41.08704
# Shear Modulus (GPa) = 5.85782 20.63921 13.24851
#
# Velocity S-wave (km/s) = 1.70747 3.20503 2.56784
# Velocity P-wave (km/s) = 4.88739 5.88177 5.40749
#
# Compressibility (1/GPa) = 0.02488601
#
# Stress axis : x y z
#
# Youngs Moduli (GPa) = 74.09073 55.25855 72.81451
#
# Poissons Ratio (x) = 0.27948 0.26292
# Poissons Ratio (y) = 0.37472 0.11303
# Poissons Ratio (z) = 0.26752 0.08578
#
# Static dielectric constant tensor:
#      x y z
#    x 1.769160 0.000000 0.000000 
#    y 0.000000 1.793520 0.000000 
#    z 0.000000 0.000000 1.691660 
# 
# From -- ./inp_files/55922.got.cif
#   From: 2010.05.17/outbox.cif.g08.bks.cpg/sg66_28_cif.got.tgz:55922.got - 2010.06.03 17:51:23.
