data_PCOD9497728
_publ_section_title
;
Structure prediction by ZEFSAII (Michael W. Deem and Ramdas Pophale) SiO2 
 PCOD9497728
Probable space group: C C C M
;
_chemical_formula_sum "Si O2"
_cell_formula_units_Z 40
_cell_length_a 10.165158
_cell_length_b 18.544966
_cell_length_c 10.031933
_cell_angle_alpha 90.000000
_cell_angle_beta 90.000000
_cell_angle_gamma 90.000000
_cell_volume 1891.144865
_symmetry_space_group_name_H-M "C C C M"
_symmetry_group_IT_number 66
_symmetry_cell_setting 'orthorhombic'
loop_
_space_group_symop_operation_xyz
x,y,z
-x,-y,z
x,-y,1/2-z
-x,y,1/2-z
-x,-y,-z
x,y,-z
-x,y,1/2+z
x,-y,1/2+z
1/2+x,1/2+y,z
1/2-x,1/2-y,z
1/2+x,1/2-y,1/2-z
1/2-x,1/2+y,1/2-z
1/2-x,1/2-y,-z
1/2+x,1/2+y,-z
1/2-x,1/2+y,1/2+z
1/2+x,1/2-y,1/2+z
loop_
_atom_site_type_symbol
_atom_site_label
_atom_site_fract_x
_atom_site_fract_y
_atom_site_fract_z
Si Si1 0.895761 0.782894 0.500000
Si Si2 0.736948 0.055720 0.353518
Si Si3 0.642163 0.814152 0.000000
Si Si4 0.000000 0.123852 0.750000
O O1 0.750000 0.750000 0.500000
O O2 0.932440 0.829101 0.632358
O O3 0.999633 0.718227 0.500000
O O4 0.737083 0.021113 0.500000
O O5 0.666456 0.132550 0.375246
O O6 0.884815 0.076290 0.313415
O O7 0.678811 0.000000 0.250000
O O8 0.750000 0.750000 0.000000
#
# Coordination Sequence:
#
# PCOD9497728 Si02
#       4
#     8  16   8   8
#     4  12  28  41  75 113 147 199 256 311 382 433
#     4  10  23  40  72 105 150 195 240 303 376 443
#     4  10  20  49  67 105 150 190 241 319 363 436
#     4  12  23  44  68 112 151 198 252 308 373 444
#
# _framework density 21.151208
#
# number of rings (size 3 to 8) (size 9 to 14) (size 15 to 20)
#    1.200    0.000    6.000    0.600    8.400    1.600 
#    0.000    0.000    0.000    9.600    0.000    0.000 
#    0.000    0.000    0.000    0.000    0.000    0.000 
#
# Total GULP energy -111657.134007 kJ/mol
# GULP energy per Si atom -5582.856700 kJ/mol
# Density = 2.110307 g / cm^3
# Si number density = 21.151208 Si / 1000 Ang^3
#
#
#
# Elastic Constant Matrix: (Units=GPa)
#
#
# Indices 1 2 3 4 5 6 
#
# 1 111.4822 45.0707 26.9316 0.0000 0.0000 0.0000
# 2 45.0707 129.1165 68.0529 0.0000 0.0000 0.0000
# 3 26.9316 68.0529 158.1460 0.0000 0.0000 0.0000
# 4 0.0000 0.0000 0.0000 -82.4363 0.0000 0.0000
# 5 0.0000 0.0000 0.0000 0.0000 5.0227 0.0000
# 6 0.0000 0.0000 0.0000 0.0000 0.0000 14.4556
#
#
#
# Elastic Compliance Matrix: (Units=1/GPa)
#
#
# Indices 1 2 3 4 5 6 
#
# 1 0.010453 -0.003506 -0.000272 0.000000 0.000000 0.000000
# 2 -0.003506 0.011193 -0.004219 0.000000 0.000000 0.000000
# 3 -0.000272 -0.004219 0.008185 0.000000 0.000000 0.000000
# 4 0.000000 0.000000 0.000000 -0.012131 0.000000 0.000000
# 5 0.000000 0.000000 0.000000 0.000000 0.199096 0.000000
# 6 0.000000 0.000000 0.000000 0.000000 0.000000 0.069177
#
#
# Mechanical properties :
#
#
# Convention : Reuss Voigt Hill
#
# Bulk Modulus (GPa) = 72.26725 75.42833 73.84779
# Shear Modulus (GPa) = 16.30901 4.65437 10.48169
#
# Velocity S-wave (km/s) = 2.77982 1.48503 2.22853
# Velocity P-wave (km/s) = 6.67416 6.21927 6.45072
#
# Compressibility (1/GPa) = 0.01383753
#
# Stress axis : x y z
#
# Youngs Moduli (GPa) = 95.66681 89.34521 122.17234
#
# Poissons Ratio (x) = 0.31322 0.03317
# Poissons Ratio (y) = 0.33538 0.51549
# Poissons Ratio (z) = 0.02598 0.37698
#
# Static dielectric constant tensor:
#      x y z
#    x 1.731870 0.000000 0.000000 
#    y 0.000000 1.802290 0.000000 
#    z 0.000000 0.000000 1.814160 
# 
# From -- ./inp_files/12867.got.cif
#   From: 2010.05.17/outbox.cif.g08.bks.cpg/sg66_7_cif.got.tgz:12867.got - 2010.06.03 17:51:23.
