data_PCOD9497447
_publ_section_title
;
Structure prediction by ZEFSAII (Michael W. Deem and Ramdas Pophale) SiO2 
 PCOD9497447
Probable space group: C C C M
;
_chemical_formula_sum "Si O2"
_cell_formula_units_Z 116
_cell_length_a 9.089876
_cell_length_b 24.644524
_cell_length_c 26.816229
_cell_angle_alpha 90.000000
_cell_angle_beta 90.000000
_cell_angle_gamma 90.000000
_cell_volume 6007.255432
_symmetry_space_group_name_H-M "C C C M"
_symmetry_group_IT_number 66
_symmetry_cell_setting 'orthorhombic'
loop_
_space_group_symop_operation_xyz
x,y,z
-x,-y,z
x,-y,1/2-z
-x,y,1/2-z
-x,-y,-z
x,y,-z
-x,y,1/2+z
x,-y,1/2+z
1/2+x,1/2+y,z
1/2-x,1/2-y,z
1/2+x,1/2-y,1/2-z
1/2-x,1/2+y,1/2-z
1/2-x,1/2-y,-z
1/2+x,1/2+y,-z
1/2-x,1/2+y,1/2+z
1/2+x,1/2-y,1/2+z
loop_
_atom_site_type_symbol
_atom_site_label
_atom_site_fract_x
_atom_site_fract_y
_atom_site_fract_z
Si Si1 0.000000 0.000000 0.750000
Si Si2 0.181452 0.809187 0.859317
Si Si3 0.333120 0.692590 0.654132
Si Si4 0.959635 0.437355 0.373270
Si Si5 0.679228 0.190693 0.446013
Si Si6 0.715466 0.580646 0.199498
Si Si7 0.880768 0.357332 0.057451
Si Si8 0.378310 0.872788 0.215177
O O1 0.087515 0.040263 0.786343
O O2 0.250000 0.750000 0.863669
O O3 0.245347 0.843948 0.906088
O O4 0.251220 0.836895 0.809802
O O5 0.006167 0.802337 0.856742
O O6 0.250000 0.750000 0.665916
O O7 0.251817 0.669745 0.604479
O O8 0.320055 0.644667 0.694235
O O9 0.794736 0.436485 0.351447
O O10 0.000000 0.500000 0.374955
O O11 0.018555 0.407478 0.422909
O O12 0.041358 0.401569 0.330874
O O13 0.708099 0.163639 0.500000
O O14 0.750000 0.250000 0.448926
O O15 0.503046 0.190902 0.439764
O O16 0.818170 0.580572 0.248480
O O17 0.836375 0.363961 0.000000
O O18 0.500000 0.842529 0.250000
#
# Coordination Sequence:
#
# PCOD9497447 Si02
#       8
#     4  16  16  16  16  16  16  16
#     4  12  24  36  62  88 122 160 212 264 300 368
#     4  11  23  37  58  88 124 163 202 247 301 363
#     4  11  23  37  61  88 128 167 203 248 310 377
#     4  10  20  37  63  88 115 154 202 259 312 362
#     4   9  17  33  58  85 116 155 195 238 295 364
#     4  11  22  40  60  88 121 163 208 254 306 366
#     4  10  21  39  61  89 121 154 202 256 306 365
#     4   9  21  38  59  83 120 156 204 255 302 362
#
# _framework density 19.309984
#
# number of rings (size 3 to 8) (size 9 to 14) (size 15 to 20)
#    0.000    1.793    1.379    3.310    3.862    4.690 
#    0.000    0.000    0.000    0.000    0.000    1.931 
#    0.000    0.000    0.000    0.000    0.000    0.000 
#
# Total GULP energy -322917.010746 kJ/mol
# GULP energy per Si atom -5567.534668 kJ/mol
# Density = 1.926603 g / cm^3
# Si number density = 19.309984 Si / 1000 Ang^3
#
#
#
# Elastic Constant Matrix: (Units=GPa)
#
#
# Indices 1 2 3 4 5 6 
#
# 1 109.7435 38.2095 26.7504 0.0000 0.0000 0.0000
# 2 38.2095 90.2302 31.2849 0.0000 0.0000 0.0000
# 3 26.7504 31.2849 95.0552 0.0000 0.0000 0.0000
# 4 0.0000 0.0000 0.0000 -6.6319 0.0000 0.0000
# 5 0.0000 0.0000 0.0000 0.0000 20.8649 0.0000
# 6 0.0000 0.0000 0.0000 0.0000 0.0000 28.3583
#
#
#
# Elastic Compliance Matrix: (Units=1/GPa)
#
#
# Indices 1 2 3 4 5 6 
#
# 1 0.010941 -0.004025 -0.001754 0.000000 0.000000 0.000000
# 2 -0.004025 0.013991 -0.003472 0.000000 0.000000 0.000000
# 3 -0.001754 -0.003472 0.012157 0.000000 0.000000 0.000000
# 4 0.000000 0.000000 0.000000 -0.150787 0.000000 0.000000
# 5 0.000000 0.000000 0.000000 0.000000 0.047927 0.000000
# 6 0.000000 0.000000 0.000000 0.000000 0.000000 0.035263
#
#
# Mechanical properties :
#
#
# Convention : Reuss Voigt Hill
#
# Bulk Modulus (GPa) = 53.80366 54.16873 53.98619
# Shear Modulus (GPa) = -860.63355 21.77055 -419.43150
#
# Velocity S-wave (km/s) = -21.13436 3.36136 -14.75402
# Velocity P-wave (km/s) = 23.82487 6.57100 16.19331
#
# Compressibility (1/GPa) = 0.01858610
#
# Stress axis : x y z
#
# Youngs Moduli (GPa) = 91.39808 71.47430 82.25940
#
# Poissons Ratio (x) = 0.28768 0.14431
# Poissons Ratio (y) = 0.36787 0.28561
# Poissons Ratio (z) = 0.16034 0.24817
#
# Static dielectric constant tensor:
#      x y z
#    x 1.752250 0.000000 0.000000 
#    y 0.000000 1.667400 0.000000 
#    z 0.000000 0.000000 1.764170 
# 
# From -- ./inp_files/62909.got.cif
#   From: 2010.05.17/outbox.cif.g08.bks.cpg/sg66_32_cif.got.tgz:62909.got - 2010.06.03 17:51:23.
