data_PCOD9497070
_publ_section_title
;
Structure prediction by ZEFSAII (Michael W. Deem and Ramdas Pophale) SiO2 
 PCOD9497070
Probable space group: C C C M
;
_chemical_formula_sum "Si O2"
_cell_formula_units_Z 72
_cell_length_a 17.995530
_cell_length_b 12.979975
_cell_length_c 14.609838
_cell_angle_alpha 90.000000
_cell_angle_beta 90.000000
_cell_angle_gamma 90.000000
_cell_volume 3412.588306
_symmetry_space_group_name_H-M "C C C M"
_symmetry_group_IT_number 66
_symmetry_cell_setting 'orthorhombic'
loop_
_space_group_symop_operation_xyz
x,y,z
-x,-y,z
x,-y,1/2-z
-x,y,1/2-z
-x,-y,-z
x,y,-z
-x,y,1/2+z
x,-y,1/2+z
1/2+x,1/2+y,z
1/2-x,1/2-y,z
1/2+x,1/2-y,1/2-z
1/2-x,1/2+y,1/2-z
1/2-x,1/2-y,-z
1/2+x,1/2+y,-z
1/2-x,1/2+y,1/2+z
1/2+x,1/2-y,1/2+z
loop_
_atom_site_type_symbol
_atom_site_label
_atom_site_fract_x
_atom_site_fract_y
_atom_site_fract_z
Si Si1 0.314475 0.086671 0.500000
Si Si2 0.558624 0.240873 0.000000
Si Si3 0.914120 0.607980 0.000000
Si Si4 0.765377 0.869932 0.319347
Si Si5 0.070242 0.821699 0.195823
Si Si6 0.376392 0.888674 0.710004
O O1 0.357907 0.195141 0.500000
O O2 0.265484 0.073584 0.409385
O O3 0.382639 0.007548 0.500000
O O4 0.549473 0.307374 0.090460
O O5 0.497975 0.149534 0.000000
O O6 0.887432 0.637324 0.896839
O O7 0.750000 0.750000 0.341011
O O8 0.851818 0.881516 0.298198
O O9 0.710861 0.890169 0.234751
O O10 0.087211 0.705393 0.233617
O O11 0.000000 0.864199 0.250000
O O12 0.404769 0.000000 0.750000
#
# Coordination Sequence:
#
# PCOD9497070 Si02
#       6
#     8   8   8  16  16  16
#     4  12  19  34  57  84 116 154 195 235 275 350
#     4  12  20  34  53  87 122 151 188 228 280 358
#     4  12  23  33  54  91 118 149 182 234 302 342
#     4  10  20  35  58  79 109 156 203 233 275 342
#     4  11  22  37  56  83 119 155 194 238 288 340
#     4  11  21  37  55  82 116 151 192 231 290 352
#
# _framework density 21.098357
#
# number of rings (size 3 to 8) (size 9 to 14) (size 15 to 20)
#    0.000    0.889    8.889    1.333    0.000    0.444 
#    0.000    6.111    0.000    0.667    0.000    1.556 
#    0.000    0.000    0.000    0.000    0.000    0.000 
#
# Total GULP energy -200758.185193 kJ/mol
# GULP energy per Si atom -5576.616255 kJ/mol
# Density = 2.105034 g / cm^3
# Si number density = 21.098357 Si / 1000 Ang^3
#
#
#
# Elastic Constant Matrix: (Units=GPa)
#
#
# Indices 1 2 3 4 5 6 
#
# 1 188.1120 5.1173 71.2449 0.0000 0.0000 0.0000
# 2 5.1173 27.2708 10.7123 0.0000 0.0000 0.0000
# 3 71.2449 10.7123 196.8567 0.0000 0.0000 0.0000
# 4 0.0000 0.0000 0.0000 0.9221 0.0000 0.0000
# 5 0.0000 0.0000 0.0000 0.0000 25.9225 0.0000
# 6 0.0000 0.0000 0.0000 0.0000 0.0000 -12.8798
#
#
#
# Elastic Compliance Matrix: (Units=1/GPa)
#
#
# Indices 1 2 3 4 5 6 
#
# 1 0.006163 -0.000286 -0.002215 0.000000 0.000000 0.000000
# 2 -0.000286 0.037484 -0.001936 0.000000 0.000000 0.000000
# 3 -0.002215 -0.001936 0.005987 0.000000 0.000000 0.000000
# 4 0.000000 0.000000 0.000000 1.084529 0.000000 0.000000
# 5 0.000000 0.000000 0.000000 0.000000 0.038577 0.000000
# 6 0.000000 0.000000 0.000000 0.000000 0.000000 -0.077641
#
#
# Mechanical properties :
#
#
# Convention : Reuss Voigt Hill
#
# Bulk Modulus (GPa) = 24.53480 65.15426 44.84453
# Shear Modulus (GPa) = 4.47404 24.47061 14.47233
#
# Velocity S-wave (km/s) = 1.45780 3.40933 2.62190
# Velocity P-wave (km/s) = 3.80625 6.81515 5.51969
#
# Compressibility (1/GPa) = 0.04075843
#
# Stress axis : x y z
#
# Youngs Moduli (GPa) = 162.26988 26.67837 167.03612
#
# Poissons Ratio (x) = 0.00764 0.36994
# Poissons Ratio (y) = 0.04648 0.32339
# Poissons Ratio (z) = 0.35938 0.05165
#
# Static dielectric constant tensor:
#      x y z
#    x 1.767680 0.000000 0.000000 
#    y 0.000000 1.830140 0.000000 
#    z 0.000000 0.000000 1.785030 
# 
# From -- ./inp_files/27992.got.cif
#   From: 2010.05.17/outbox.cif.g08.bks.cpg/sg66_14_cif.got.tgz:27992.got - 2010.06.03 17:51:23.
