data_PCOD9497528
_publ_section_title
;
Structure prediction by ZEFSAII (Michael W. Deem and Ramdas Pophale) SiO2 
 PCOD9497528
Probable space group: C C C M
;
_chemical_formula_sum "Si O2"
_cell_formula_units_Z 112
_cell_length_a 30.060568
_cell_length_b 10.405103
_cell_length_c 17.247145
_cell_angle_alpha 90.000000
_cell_angle_beta 90.000000
_cell_angle_gamma 90.000000
_cell_volume 5394.619037
_symmetry_space_group_name_H-M "C C C M"
_symmetry_group_IT_number 66
_symmetry_cell_setting 'orthorhombic'
loop_
_space_group_symop_operation_xyz
x,y,z
-x,-y,z
x,-y,1/2-z
-x,y,1/2-z
-x,-y,-z
x,y,-z
-x,y,1/2+z
x,-y,1/2+z
1/2+x,1/2+y,z
1/2-x,1/2-y,z
1/2+x,1/2-y,1/2-z
1/2-x,1/2+y,1/2-z
1/2-x,1/2-y,-z
1/2+x,1/2+y,-z
1/2-x,1/2+y,1/2+z
1/2+x,1/2-y,1/2+z
loop_
_atom_site_type_symbol
_atom_site_label
_atom_site_fract_x
_atom_site_fract_y
_atom_site_fract_z
Si Si1 0.559669 0.950129 0.663546
Si Si2 0.299003 0.254321 0.409912
Si Si3 0.049384 0.955525 0.407467
Si Si4 0.649495 0.994862 0.910437
Si Si5 0.354792 0.514986 0.841721
Si Si6 0.512990 0.186710 0.589549
Si Si7 0.698330 0.732067 0.906260
O O1 0.530924 0.824311 0.642968
O O2 0.551693 0.000000 0.750000
O O3 0.610988 0.949722 0.643913
O O4 0.540267 0.058215 0.605860
O O5 0.296282 0.298807 0.500000
O O6 0.250000 0.250000 0.374740
O O7 0.331776 0.352341 0.367675
O O8 0.314636 0.107595 0.411052
O O9 0.051970 0.980148 0.500000
O O10 0.046023 0.803100 0.393477
O O11 0.093974 0.009800 0.370182
O O12 0.000000 0.000000 0.381623
O O13 0.670004 0.859272 0.884617
O O14 0.633478 0.979979 0.000000
O O15 0.354265 0.500000 0.750000
O O16 0.326221 0.395840 0.876516
O O17 0.499049 0.198026 0.500000
O O18 0.750000 0.750000 0.881316
O O19 0.698646 0.726534 0.000000
#
# Coordination Sequence:
#
# PCOD9497528 Si02
#       7
#    16  16  16  16  16  16  16
#     4  11  22  36  55  87 123 157 193 244 310 379
#     4  10  22  42  68  96 126 165 218 274 323 378
#     4  10  23  43  65  88 117 163 221 270 310 368
#     4  10  21  37  63  93 120 156 208 265 318 373
#     4  12  26  42  62  97 139 179 211 260 335 406
#     4  10  20  38  62  84 112 149 201 256 301 351
#     4  10  21  42  71  96 122 165 222 273 319 383
#
# _framework density 20.761429
#
# number of rings (size 3 to 8) (size 9 to 14) (size 15 to 20)
#    0.000    1.571    0.000    5.571    2.000    7.714 
#    2.571    1.429    0.000    0.000    0.000    0.000 
#    0.000    0.000    0.000    0.000    0.000    0.000 
#
# Total GULP energy -312698.792532 kJ/mol
# GULP energy per Si atom -5583.907010 kJ/mol
# Density = 2.071417 g / cm^3
# Si number density = 20.761429 Si / 1000 Ang^3
#
#
#
# Elastic Constant Matrix: (Units=GPa)
#
#
# Indices 1 2 3 4 5 6 
#
# 1 106.7994 6.0527 10.9540 0.0000 0.0000 0.0000
# 2 6.0527 65.4236 -3.2924 0.0000 0.0000 0.0000
# 3 10.9540 -3.2924 39.5161 0.0000 0.0000 0.0000
# 4 0.0000 0.0000 0.0000 3.7645 0.0000 0.0000
# 5 0.0000 0.0000 0.0000 0.0000 -14.4758 0.0000
# 6 0.0000 0.0000 0.0000 0.0000 0.0000 28.8253
#
#
#
# Elastic Compliance Matrix: (Units=1/GPa)
#
#
# Indices 1 2 3 4 5 6 
#
# 1 0.009707 -0.001038 -0.002777 0.000000 0.000000 0.000000
# 2 -0.001038 0.015460 0.001576 0.000000 0.000000 0.000000
# 3 -0.002777 0.001576 0.026207 0.000000 0.000000 0.000000
# 4 0.000000 0.000000 0.000000 0.265640 0.000000 0.000000
# 5 0.000000 0.000000 0.000000 0.000000 -0.069081 0.000000
# 6 0.000000 0.000000 0.000000 0.000000 0.000000 0.034692
#
#
# Mechanical properties :
#
#
# Convention : Reuss Voigt Hill
#
# Bulk Modulus (GPa) = 21.32376 26.57418 23.94897
# Shear Modulus (GPa) = 16.51602 16.82446 16.67024
#
# Velocity S-wave (km/s) = 2.82355 2.84979 2.83670
# Velocity P-wave (km/s) = 4.57417 4.86374 4.72118
#
# Compressibility (1/GPa) = 0.04689605
#
# Stress axis : x y z
#
# Youngs Moduli (GPa) = 103.01825 64.68176 38.15730
#
# Poissons Ratio (x) = 0.06713 0.10597
# Poissons Ratio (y) = 0.10691 -0.06013
# Poissons Ratio (z) = 0.28611 -0.10193
#
# Static dielectric constant tensor:
#      x y z
#    x 1.799980 0.000000 0.000000 
#    y 0.000000 1.749150 0.000000 
#    z 0.000000 0.000000 1.729240 
# 
# From -- ./inp_files/33837.got.cif
#   From: 2010.05.17/outbox.cif.g08.bks.cpg/sg66_17_cif.got.tgz:33837.got - 2010.06.03 17:51:23.
