data_PCOD9497682
_publ_section_title
;
Structure prediction by ZEFSAII (Michael W. Deem and Ramdas Pophale) SiO2 
 PCOD9497682
Probable space group: C C C M
;
_chemical_formula_sum "Si O2"
_cell_formula_units_Z 112
_cell_length_a 11.881892
_cell_length_b 26.493969
_cell_length_c 14.892142
_cell_angle_alpha 90.000000
_cell_angle_beta 90.000000
_cell_angle_gamma 90.000000
_cell_volume 4688.023640
_symmetry_space_group_name_H-M "C C C M"
_symmetry_group_IT_number 66
_symmetry_cell_setting 'orthorhombic'
loop_
_space_group_symop_operation_xyz
x,y,z
-x,-y,z
x,-y,1/2-z
-x,y,1/2-z
-x,-y,-z
x,y,-z
-x,y,1/2+z
x,-y,1/2+z
1/2+x,1/2+y,z
1/2-x,1/2-y,z
1/2+x,1/2-y,1/2-z
1/2-x,1/2+y,1/2-z
1/2-x,1/2-y,-z
1/2+x,1/2+y,-z
1/2-x,1/2+y,1/2+z
1/2+x,1/2-y,1/2+z
loop_
_atom_site_type_symbol
_atom_site_label
_atom_site_fract_x
_atom_site_fract_y
_atom_site_fract_z
Si Si1 0.601813 0.395583 0.608550
Si Si2 0.303637 0.832344 0.607468
Si Si3 0.960623 0.572366 0.851763
Si Si4 0.639014 0.149645 0.896673
Si Si5 0.351854 0.404016 0.604580
Si Si6 0.621587 0.235893 0.240996
Si Si7 0.740077 0.009408 0.645475
O O1 0.597678 0.397490 0.500000
O O2 0.674583 0.346160 0.630769
O O3 0.475614 0.399437 0.644062
O O4 0.673321 0.444523 0.635522
O O5 0.316504 0.828769 0.500000
O O6 0.374329 0.880483 0.642241
O O7 0.349170 0.785003 0.660341
O O8 0.883156 0.526933 0.889157
O O9 0.000000 0.562335 0.750000
O O10 0.068777 0.597239 0.897947
O O11 0.760272 0.134084 0.857282
O O12 0.590848 0.190545 0.828653
O O13 0.643357 0.167846 0.000000
O O14 0.359691 0.390311 0.500000
O O15 0.300477 0.459959 0.608499
O O16 0.500000 0.264808 0.250000
O O17 0.750000 0.250000 0.207750
O O18 0.722321 0.000000 0.750000
#
# Coordination Sequence:
#
# PCOD9497682 Si02
#       7
#    16  16  16  16  16  16  16
#     4   9  20  38  59  85 123 172 221 273 325 383
#     4  10  20  40  71  97 121 165 218 265 325 401
#     4  11  20  38  63  89 125 172 220 273 320 381
#     4  11  23  42  68  92 125 175 218 260 327 397
#     4  10  22  38  56  85 129 172 218 276 327 379
#     4  12  27  47  71 103 137 167 208 274 339 405
#     4  11  23  33  53  89 127 172 223 272 328 378
#
# _framework density 23.890664000000001
#
# number of rings (size 3 to 8) (size 9 to 14) (size 15 to 20)
#    0.000    1.429    2.857    2.143    2.000    7.714 
#    0.000    1.429    0.000    0.000    0.000    0.000 
#    0.000    0.000    0.000    0.000    0.000    0.000 
#
# Total GULP energy -312592.949071 kJ/mol
# GULP energy per Si atom -5582.016948 kJ/mol
# Density = 2.383629 g / cm^3
# Si number density = 23.890664 Si / 1000 Ang^3
#
#
#
# Elastic Constant Matrix: (Units=GPa)
#
#
# Indices 1 2 3 4 5 6 
#
# 1 207.4449 37.6573 23.1750 0.0000 0.0000 0.0000
# 2 37.6573 32.9725 5.0366 0.0000 0.0000 0.0000
# 3 23.1750 5.0366 84.2113 0.0000 0.0000 0.0000
# 4 0.0000 0.0000 0.0000 18.3459 0.0000 0.0000
# 5 0.0000 0.0000 0.0000 0.0000 26.5822 0.0000
# 6 0.0000 0.0000 0.0000 0.0000 0.0000 34.4523
#
#
#
# Elastic Compliance Matrix: (Units=1/GPa)
#
#
# Indices 1 2 3 4 5 6 
#
# 1 0.006219 -0.006904 -0.001299 0.000000 0.000000 0.000000
# 2 -0.006904 0.038273 -0.000389 0.000000 0.000000 0.000000
# 3 -0.001299 -0.000389 0.012256 0.000000 0.000000 0.000000
# 4 0.000000 0.000000 0.000000 0.054508 0.000000 0.000000
# 5 0.000000 0.000000 0.000000 0.000000 0.037619 0.000000
# 6 0.000000 0.000000 0.000000 0.000000 0.000000 0.029026
#
#
# Mechanical properties :
#
#
# Convention : Reuss Voigt Hill
#
# Bulk Modulus (GPa) = 25.27560 50.70738 37.99149
# Shear Modulus (GPa) = 24.00712 33.12674 28.56693
#
# Velocity S-wave (km/s) = 3.17341 3.72774 3.46169
# Velocity P-wave (km/s) = 4.90205 6.30864 5.64929
#
# Compressibility (1/GPa) = 0.03956384
#
# Stress axis : x y z
#
# Youngs Moduli (GPa) = 160.79922 26.12819 81.59594
#
# Poissons Ratio (x) = 0.18039 0.10595
# Poissons Ratio (y) = 1.11019 0.03174
# Poissons Ratio (z) = 0.20880 0.01016
#
# Static dielectric constant tensor:
#      x y z
#    x 2.022390 0.000000 0.000000 
#    y 0.000000 1.931530 0.000000 
#    z 0.000000 0.000000 1.902720 
# 
# From -- ./inp_files/27023.got.cif
#   From: 2010.05.17/outbox.cif.g08.bks.cpg/sg66_14_cif.got.tgz:27023.got - 2010.06.03 17:51:23.
