data_PCOD9497547
_publ_section_title
;
Structure prediction by ZEFSAII (Michael W. Deem and Ramdas Pophale) SiO2 
 PCOD9497547
Probable space group: C C C M
;
_chemical_formula_sum "Si O2"
_cell_formula_units_Z 112
_cell_length_a 12.863925
_cell_length_b 15.103264
_cell_length_c 29.149548
_cell_angle_alpha 90.000000
_cell_angle_beta 90.000000
_cell_angle_gamma 90.000000
_cell_volume 5663.385676
_symmetry_space_group_name_H-M "C C C M"
_symmetry_group_IT_number 66
_symmetry_cell_setting 'orthorhombic'
loop_
_space_group_symop_operation_xyz
x,y,z
-x,-y,z
x,-y,1/2-z
-x,y,1/2-z
-x,-y,-z
x,y,-z
-x,y,1/2+z
x,-y,1/2+z
1/2+x,1/2+y,z
1/2-x,1/2-y,z
1/2+x,1/2-y,1/2-z
1/2-x,1/2+y,1/2-z
1/2-x,1/2-y,-z
1/2+x,1/2+y,-z
1/2-x,1/2+y,1/2+z
1/2+x,1/2-y,1/2+z
loop_
_atom_site_type_symbol
_atom_site_label
_atom_site_fract_x
_atom_site_fract_y
_atom_site_fract_z
Si Si1 0.201414 0.941543 0.706913
Si Si2 0.381280 0.012394 0.446932
Si Si3 0.545325 0.287937 0.301301
Si Si4 0.670027 0.482487 0.603490
Si Si5 0.361436 0.777518 0.052784
Si Si6 0.555138 0.085834 0.700642
Si Si7 0.019068 0.141216 0.395056
O O1 0.151629 0.843686 0.704278
O O2 0.176280 0.986431 0.658504
O O3 0.324960 0.934672 0.708745
O O4 0.163164 0.000000 0.750000
O O5 0.375105 0.980432 0.500000
O O6 0.365989 0.117641 0.446786
O O7 0.500000 0.000000 0.430954
O O8 0.284528 0.974383 0.417966
O O9 0.500000 0.288560 0.250000
O O10 0.550498 0.186009 0.318521
O O11 0.481998 0.341103 0.340325
O O12 0.592410 0.401162 0.592686
O O13 0.607454 0.571068 0.589796
O O14 0.250000 0.750000 0.073117
O O15 0.453902 0.731808 0.079961
O O16 0.364976 0.746147 0.000000
O O17 0.500000 0.092661 0.750000
O O18 0.500000 0.000000 0.677494
#
# Coordination Sequence:
#
# PCOD9497547 Si02
#       7
#    16  16  16  16  16  16  16
#     4  11  21  37  59  84 120 160 201 254 306 360
#     4  10  22  42  63  90 124 160 201 247 311 383
#     4  10  22  38  58  83 119 162 204 253 306 360
#     4  10  22  37  61  88 120 160 204 255 311 364
#     4  10  20  38  63  90 123 157 197 255 316 369
#     4  10  20  39  55  80 114 153 204 257 298 361
#     4  10  21  39  58  92 121 153 212 257 302 377
#
# _framework density 19.776157000000001
#
# number of rings (size 3 to 8) (size 9 to 14) (size 15 to 20)
#    0.000    1.857    2.857    1.286    0.000    4.857 
#    0.000    3.571    0.000    2.571    0.000    0.000 
#    0.000    0.000    0.000    0.000    0.000    0.000 
#
# Total GULP energy -312152.431180 kJ/mol
# GULP energy per Si atom -5574.150557 kJ/mol
# Density = 1.973115 g / cm^3
# Si number density = 19.776157 Si / 1000 Ang^3
#
#
#
# Elastic Constant Matrix: (Units=GPa)
#
#
# Indices 1 2 3 4 5 6 
#
# 1 123.9989 43.4759 34.1917 0.0000 0.0000 0.0000
# 2 43.4759 87.3005 14.2667 0.0000 0.0000 0.0000
# 3 34.1917 14.2667 70.3298 0.0000 0.0000 0.0000
# 4 0.0000 0.0000 0.0000 -4.9986 0.0000 0.0000
# 5 0.0000 0.0000 0.0000 0.0000 26.6564 0.0000
# 6 0.0000 0.0000 0.0000 0.0000 0.0000 26.3840
#
#
#
# Elastic Compliance Matrix: (Units=1/GPa)
#
#
# Indices 1 2 3 4 5 6 
#
# 1 0.010922 -0.004728 -0.004351 0.000000 0.000000 0.000000
# 2 -0.004728 0.013894 -0.000520 0.000000 0.000000 0.000000
# 3 -0.004351 -0.000520 0.016439 0.000000 0.000000 0.000000
# 4 0.000000 0.000000 0.000000 -0.200056 0.000000 0.000000
# 5 0.000000 0.000000 0.000000 0.000000 0.037514 0.000000
# 6 0.000000 0.000000 0.000000 0.000000 0.000000 0.037902
#
#
# Mechanical properties :
#
#
# Convention : Reuss Voigt Hill
#
# Bulk Modulus (GPa) = 45.33485 51.72199 48.52842
# Shear Modulus (GPa) = -87.97654 22.25468 -32.86093
#
# Velocity S-wave (km/s) = -6.67703 3.35823 -4.08075
# Velocity P-wave (km/s) = 6.03903 6.42242 1.54557
#
# Compressibility (1/GPa) = 0.02205809
#
# Stress axis : x y z
#
# Youngs Moduli (GPa) = 91.55784 71.97195 60.82965
#
# Poissons Ratio (x) = 0.34030 0.26466
# Poissons Ratio (y) = 0.43290 0.03162
# Poissons Ratio (z) = 0.39835 0.03741
#
# Static dielectric constant tensor:
#      x y z
#    x 1.684700 0.000000 0.000000 
#    y 0.000000 1.727430 0.000000 
#    z 0.000000 0.000000 1.912630 
# 
# From -- ./inp_files/69073.got.cif
#   From: 2010.05.17/outbox.cif.g08.bks.cpg/sg66_35_cif.got.tgz:69073.got - 2010.06.03 17:51:23.
