data_PCOD9497408
_publ_section_title
;
Structure prediction by ZEFSAII (Michael W. Deem and Ramdas Pophale) SiO2 
 PCOD9497408
Probable space group: C C C M
;
_chemical_formula_sum "Si O2"
_cell_formula_units_Z 120
_cell_length_a 21.701526
_cell_length_b 20.355649
_cell_length_c 13.376501
_cell_angle_alpha 90.000000
_cell_angle_beta 90.000000
_cell_angle_gamma 90.000000
_cell_volume 5909.051205
_symmetry_space_group_name_H-M "C C C M"
_symmetry_group_IT_number 66
_symmetry_cell_setting 'orthorhombic'
loop_
_space_group_symop_operation_xyz
x,y,z
-x,-y,z
x,-y,1/2-z
-x,y,1/2-z
-x,-y,-z
x,y,-z
-x,y,1/2+z
x,-y,1/2+z
1/2+x,1/2+y,z
1/2-x,1/2-y,z
1/2+x,1/2-y,1/2-z
1/2-x,1/2+y,1/2-z
1/2-x,1/2-y,-z
1/2+x,1/2+y,-z
1/2-x,1/2+y,1/2+z
1/2+x,1/2-y,1/2+z
loop_
_atom_site_type_symbol
_atom_site_label
_atom_site_fract_x
_atom_site_fract_y
_atom_site_fract_z
Si Si1 0.316620 0.773190 0.300082
Si Si2 0.500000 0.829962 0.250000
Si Si3 0.051472 0.555325 0.381975
Si Si4 0.826512 0.181104 0.883227
Si Si5 0.036060 0.214610 0.616075
Si Si6 0.811639 0.928735 0.770450
Si Si7 0.903893 0.833484 0.116742
Si Si8 0.314535 0.081713 0.879986
O O1 0.250000 0.750000 0.341574
O O2 0.316050 0.745708 0.185978
O O3 0.370457 0.734794 0.356764
O O4 0.323486 0.849217 0.322697
O O5 0.463038 0.878922 0.321328
O O6 0.539436 0.780622 0.318580
O O7 0.045933 0.568797 0.500000
O O8 0.123565 0.538648 0.363553
O O9 0.000000 0.500000 0.359014
O O10 0.900920 0.174269 0.878097
O O11 0.797905 0.118371 0.825481
O O12 0.808969 0.187162 0.000000
O O13 0.027562 0.233752 0.500000
O O14 0.975089 0.174442 0.645914
O O15 0.861999 0.886930 0.829887
O O16 0.749904 0.942223 0.834656
O O17 0.838282 0.000000 0.750000
O O18 0.901637 0.845876 0.000000
O O19 0.308796 0.091998 0.000000
#
# Coordination Sequence:
#
# PCOD9497408 Si02
#       8
#    16   8  16  16  16  16  16  16
#     4  11  20  34  59  97 122 151 196 249 305 372
#     4  12  19  34  62  86 121 152 190 252 306 342
#     4  10  23  40  59  85 117 160 208 248 294 352
#     4  10  22  41  59  83 127 165 191 237 295 366
#     4  10  21  37  61  91 118 153 195 236 302 374
#     4  11  24  39  58  86 116 154 205 245 290 359
#     4  10  20  37  61  89 119 148 188 246 303 356
#     4  11  22  40  63  87 119 154 198 259 311 350
#
# _framework density 20.307828000000001
#
# number of rings (size 3 to 8) (size 9 to 14) (size 15 to 20)
#    0.000    1.467    2.667    4.600    0.000    5.067 
#    0.000    1.333    0.000    3.200    0.000    0.000 
#    0.000    0.000    0.000    0.000    0.000    0.000 
#
# Total GULP energy -334861.714719 kJ/mol
# GULP energy per Si atom -5581.028579 kJ/mol
# Density = 2.026161 g / cm^3
# Si number density = 20.307828 Si / 1000 Ang^3
#
#
#
# Elastic Constant Matrix: (Units=GPa)
#
#
# Indices 1 2 3 4 5 6 
#
# 1 114.3798 12.2017 20.5311 0.0000 0.0000 0.0000
# 2 12.2017 51.9435 22.8535 0.0000 0.0000 0.0000
# 3 20.5311 22.8535 109.0843 0.0000 0.0000 0.0000
# 4 0.0000 0.0000 0.0000 9.5521 0.0000 0.0000
# 5 0.0000 0.0000 0.0000 0.0000 21.8572 0.0000
# 6 0.0000 0.0000 0.0000 0.0000 0.0000 17.0258
#
#
#
# Elastic Compliance Matrix: (Units=1/GPa)
#
#
# Indices 1 2 3 4 5 6 
#
# 1 0.009158 -0.001534 -0.001402 0.000000 0.000000 0.000000
# 2 -0.001534 0.021463 -0.004208 0.000000 0.000000 0.000000
# 3 -0.001402 -0.004208 0.010313 0.000000 0.000000 0.000000
# 4 0.000000 0.000000 0.000000 0.104689 0.000000 0.000000
# 5 0.000000 0.000000 0.000000 0.000000 0.045751 0.000000
# 6 0.000000 0.000000 0.000000 0.000000 0.000000 0.058734
#
#
# Mechanical properties :
#
#
# Convention : Reuss Voigt Hill
#
# Bulk Modulus (GPa) = 37.52991 42.95335 40.24163
# Shear Modulus (GPa) = 18.29624 24.34177 21.31901
#
# Velocity S-wave (km/s) = 3.00483 3.46589 3.24357
# Velocity P-wave (km/s) = 5.52805 6.10030 5.82121
#
# Compressibility (1/GPa) = 0.02664542
#
# Stress axis : x y z
#
# Youngs Moduli (GPa) = 109.19200 46.59085 96.96776
#
# Poissons Ratio (x) = 0.07149 0.13597
# Poissons Ratio (y) = 0.16754 0.40803
# Poissons Ratio (z) = 0.15311 0.19605
#
# Static dielectric constant tensor:
#      x y z
#    x 1.786560 0.000000 0.000000 
#    y 0.000000 1.722940 0.000000 
#    z 0.000000 0.000000 1.759990 
# 
# From -- ./inp_files/31580.got.cif
#   From: 2010.05.17/outbox.cif.g08.bks.cpg/sg66_16_cif.got.tgz:31580.got - 2010.06.03 17:51:23.
