data_PCOD9497754
_publ_section_title
;
Structure prediction by ZEFSAII (Michael W. Deem and Ramdas Pophale) SiO2 
 PCOD9497754
Probable space group: C C C M
;
_chemical_formula_sum "Si O2"
_cell_formula_units_Z 88
_cell_length_a 11.841738
_cell_length_b 24.934312
_cell_length_c 13.918239
_cell_angle_alpha 90.000000
_cell_angle_beta 90.000000
_cell_angle_gamma 90.000000
_cell_volume 4109.577049
_symmetry_space_group_name_H-M "C C C M"
_symmetry_group_IT_number 66
_symmetry_cell_setting 'orthorhombic'
loop_
_space_group_symop_operation_xyz
x,y,z
-x,-y,z
x,-y,1/2-z
-x,y,1/2-z
-x,-y,-z
x,y,-z
-x,y,1/2+z
x,-y,1/2+z
1/2+x,1/2+y,z
1/2-x,1/2-y,z
1/2+x,1/2-y,1/2-z
1/2-x,1/2+y,1/2-z
1/2-x,1/2-y,-z
1/2+x,1/2+y,-z
1/2-x,1/2+y,1/2+z
1/2+x,1/2-y,1/2+z
loop_
_atom_site_type_symbol
_atom_site_label
_atom_site_fract_x
_atom_site_fract_y
_atom_site_fract_z
Si Si1 0.313658 0.138953 0.234694
Si Si2 0.598344 0.041043 0.611053
Si Si3 0.500000 0.772733 0.750000
Si Si4 0.849741 0.987448 0.106326
Si Si5 0.850626 0.206549 0.606369
Si Si6 0.890565 0.088169 0.789794
O O1 0.383191 0.091618 0.181867
O O2 0.395415 0.186411 0.269450
O O3 0.219163 0.159876 0.158705
O O4 0.225523 0.118012 0.313932
O O5 0.579926 0.059848 0.500000
O O6 0.500000 0.000000 0.637426
O O7 0.713967 0.007184 0.610870
O O8 0.450983 0.734972 0.665645
O O9 0.908500 0.044377 0.126844
O O10 0.869805 0.948799 0.195995
O O11 0.875250 0.966748 0.000000
O O12 0.888584 0.190604 0.500000
O O13 0.750000 0.250000 0.598374
O O14 0.000000 0.119890 0.750000
#
# Coordination Sequence:
#
# PCOD9497754 Si02
#       6
#    16  16   8  16  16  16
#     4  10  21  36  59  89 121 159 202 248 315 373
#     4   9  18  32  54  87 126 163 204 248 295 372
#     4  10  22  38  63  94 116 151 204 276 324 364
#     4   9  18  34  52  76 113 159 203 246 292 341
#     4   9  19  39  65  88 115 156 206 258 316 383
#     4  10  21  34  52  80 114 155 203 245 285 363
#
# _framework density 21.413395999999999
#
# number of rings (size 3 to 8) (size 9 to 14) (size 15 to 20)
#    0.000    2.545    0.000    1.636    3.818    2.909 
#    0.000    0.909    0.000    4.909    0.000    0.000 
#    0.000    0.000    0.000    0.000    0.000    0.000 
#
# Total GULP energy -245046.144838 kJ/mol
# GULP energy per Si atom -5569.230565 kJ/mol
# Density = 2.136466 g / cm^3
# Si number density = 21.413396 Si / 1000 Ang^3
#
#
#
# Elastic Constant Matrix: (Units=GPa)
#
#
# Indices 1 2 3 4 5 6 
#
# 1 125.2073 35.2789 30.8043 0.0000 0.0000 0.0000
# 2 35.2789 81.0903 10.3167 0.0000 0.0000 0.0000
# 3 30.8043 10.3167 65.8454 0.0000 0.0000 0.0000
# 4 0.0000 0.0000 0.0000 11.3587 0.0000 0.0000
# 5 0.0000 0.0000 0.0000 0.0000 25.8703 0.0000
# 6 0.0000 0.0000 0.0000 0.0000 0.0000 45.7959
#
#
#
# Elastic Compliance Matrix: (Units=1/GPa)
#
#
# Indices 1 2 3 4 5 6 
#
# 1 0.010088 -0.003865 -0.004114 0.000000 0.000000 0.000000
# 2 -0.003865 0.014064 -0.000395 0.000000 0.000000 0.000000
# 3 -0.004114 -0.000395 0.017174 0.000000 0.000000 0.000000
# 4 0.000000 0.000000 0.000000 0.088038 0.000000 0.000000
# 5 0.000000 0.000000 0.000000 0.000000 0.038654 0.000000
# 6 0.000000 0.000000 0.000000 0.000000 0.000000 0.021836
#
#
# Mechanical properties :
#
#
# Convention : Reuss Voigt Hill
#
# Bulk Modulus (GPa) = 40.68913 47.21586 43.95250
# Shear Modulus (GPa) = 23.27802 29.65453 26.46627
#
# Velocity S-wave (km/s) = 3.30066 3.72541 3.51945
# Velocity P-wave (km/s) = 5.79386 6.37200 6.08980
#
# Compressibility (1/GPa) = 0.02457659
#
# Stress axis : x y z
#
# Youngs Moduli (GPa) = 99.12748 71.10398 58.22907
#
# Poissons Ratio (x) = 0.27485 0.23954
# Poissons Ratio (y) = 0.38318 0.02301
# Poissons Ratio (z) = 0.40779 0.02810
#
# Static dielectric constant tensor:
#      x y z
#    x 1.899790 0.000000 0.000000 
#    y 0.000000 1.839570 0.000000 
#    z 0.000000 0.000000 1.788730 
# 
# From -- ./inp_files/26769.got.cif
#   From: 2010.05.17/outbox.cif.g08.bks.cpg/sg66_14_cif.got.tgz:26769.got - 2010.06.03 17:51:23.
