data_PCOD9497979
_publ_section_title
;
Structure prediction by ZEFSAII (Michael W. Deem and Ramdas Pophale) SiO2 
 PCOD9497979
Probable space group: C C C M
;
_chemical_formula_sum "Si O2"
_cell_formula_units_Z 64
_cell_length_a 14.177748
_cell_length_b 8.215719
_cell_length_c 21.881986
_cell_angle_alpha 90.000000
_cell_angle_beta 90.000000
_cell_angle_gamma 90.000000
_cell_volume 2548.822342
_symmetry_space_group_name_H-M "C C C M"
_symmetry_group_IT_number 66
_symmetry_cell_setting 'orthorhombic'
loop_
_space_group_symop_operation_xyz
x,y,z
-x,-y,z
x,-y,1/2-z
-x,y,1/2-z
-x,-y,-z
x,y,-z
-x,y,1/2+z
x,-y,1/2+z
1/2+x,1/2+y,z
1/2-x,1/2-y,z
1/2+x,1/2-y,1/2-z
1/2-x,1/2+y,1/2-z
1/2-x,1/2-y,-z
1/2+x,1/2+y,-z
1/2-x,1/2+y,1/2+z
1/2+x,1/2-y,1/2+z
loop_
_atom_site_type_symbol
_atom_site_label
_atom_site_fract_x
_atom_site_fract_y
_atom_site_fract_z
Si Si1 0.640074 0.114438 0.869103
Si Si2 0.619849 0.346560 0.500000
Si Si3 0.896703 0.779352 0.500000
Si Si4 0.650265 0.440614 0.181643
Si Si5 0.143910 0.260703 0.867547
O O1 0.626135 0.178513 0.938412
O O2 0.607364 0.261122 0.825163
O O3 0.751308 0.082635 0.855166
O O4 0.599164 0.935386 0.855925
O O5 0.507153 0.321394 0.500000
O O6 0.648049 0.538161 0.500000
O O7 0.652702 0.255935 0.560169
O O8 0.667699 0.500000 0.250000
O O9 0.595785 0.592343 0.152009
O O10 0.250000 0.250000 0.839746
#
# Coordination Sequence:
#
# PCOD9497979 Si02
#       5
#    16   8   8  16  16
#     4  10  22  36  62  89 123 163 199 252 309 369
#     4  11  22  40  63  86 130 164 207 256 312 371
#     4  11  23  41  61  92 124 171 205 252 314 373
#     4  10  22  37  58  91 127 158 199 256 310 367
#     4  10  21  37  59  94 121 159 202 257 313 358
#
# _framework density 25.109635000000001
#
# number of rings (size 3 to 8) (size 9 to 14) (size 15 to 20)
#    0.000    1.750    2.500    1.125   10.500    7.000 
#    0.000    0.000    0.000    3.000    6.500    0.000 
#    0.000    0.000    0.000    0.000    0.000    0.000 
#
# Total GULP energy -178748.358511 kJ/mol
# GULP energy per Si atom -5585.886203 kJ/mol
# Density = 2.505248 g / cm^3
# Si number density = 25.109635 Si / 1000 Ang^3
#
#
#
# Elastic Constant Matrix: (Units=GPa)
#
#
# Indices 1 2 3 4 5 6 
#
# 1 75.6432 40.0673 17.1939 0.0000 0.0000 0.0000
# 2 40.0673 311.4718 55.7998 0.0000 0.0000 0.0000
# 3 17.1939 55.7998 123.2049 0.0000 0.0000 0.0000
# 4 0.0000 0.0000 0.0000 31.5594 0.0000 0.0000
# 5 0.0000 0.0000 0.0000 0.0000 575.5973 0.0000
# 6 0.0000 0.0000 0.0000 0.0000 0.0000 26.6436
#
#
#
# Elastic Compliance Matrix: (Units=1/GPa)
#
#
# Indices 1 2 3 4 5 6 
#
# 1 0.014367 -0.001620 -0.001271 0.000000 0.000000 0.000000
# 2 -0.001620 0.003677 -0.001439 0.000000 0.000000 0.000000
# 3 -0.001271 -0.001439 0.008946 0.000000 0.000000 0.000000
# 4 0.000000 0.000000 0.000000 0.031686 0.000000 0.000000
# 5 0.000000 0.000000 0.000000 0.000000 0.001737 0.000000
# 6 0.000000 0.000000 0.000000 0.000000 0.000000 0.037532
#
#
# Mechanical properties :
#
#
# Convention : Reuss Voigt Hill
#
# Bulk Modulus (GPa) = 54.56004 81.82686 68.19345
# Shear Modulus (GPa) = 44.35901 153.24399 98.80150
#
# Velocity S-wave (km/s) = 4.20767 7.82064 6.27961
# Velocity P-wave (km/s) = 6.73661 10.68684 8.93282
#
# Compressibility (1/GPa) = 0.01832843
#
# Stress axis : x y z
#
# Youngs Moduli (GPa) = 69.60283 271.97335 111.78525
#
# Poissons Ratio (x) = 0.44072 0.14209
# Poissons Ratio (y) = 0.11279 0.16087
# Poissons Ratio (z) = 0.08847 0.39140
#
# Static dielectric constant tensor:
#      x y z
#    x 2.073500 0.000000 0.000000 
#    y 0.000000 2.198430 0.000000 
#    z 0.000000 0.000000 2.031070 
# 
# From -- ./inp_files/51576.got.cif
#   From: 2010.05.17/outbox.cif.g08.bks.cpg/sg66_26_cif.got.tgz:51576.got - 2010.06.03 17:51:23.
