data_PCOD9497809
_publ_section_title
;
Structure prediction by ZEFSAII (Michael W. Deem and Ramdas Pophale) SiO2 
 PCOD9497809
Probable space group: C C C M
;
_chemical_formula_sum "Si O2"
_cell_formula_units_Z 96
_cell_length_a 9.523608
_cell_length_b 17.987383
_cell_length_c 25.721982
_cell_angle_alpha 90.000000
_cell_angle_beta 90.000000
_cell_angle_gamma 90.000000
_cell_volume 4406.298587
_symmetry_space_group_name_H-M "C C C M"
_symmetry_group_IT_number 66
_symmetry_cell_setting 'orthorhombic'
loop_
_space_group_symop_operation_xyz
x,y,z
-x,-y,z
x,-y,1/2-z
-x,y,1/2-z
-x,-y,-z
x,y,-z
-x,y,1/2+z
x,-y,1/2+z
1/2+x,1/2+y,z
1/2-x,1/2-y,z
1/2+x,1/2-y,1/2-z
1/2-x,1/2+y,1/2-z
1/2-x,1/2-y,-z
1/2+x,1/2+y,-z
1/2-x,1/2+y,1/2+z
1/2+x,1/2-y,1/2+z
loop_
_atom_site_type_symbol
_atom_site_label
_atom_site_fract_x
_atom_site_fract_y
_atom_site_fract_z
Si Si1 0.172038 0.079572 0.147107
Si Si2 0.901380 0.269084 0.561585
Si Si3 0.145388 0.904520 0.839589
Si Si4 0.659696 0.090923 0.745314
Si Si5 0.399694 0.931663 0.437405
Si Si6 0.832982 0.827189 0.442634
O O1 0.280798 0.111006 0.188941
O O2 0.248211 0.074092 0.091037
O O3 0.019947 0.115154 0.158085
O O4 0.151503 0.993203 0.161300
O O5 0.879326 0.279098 0.500000
O O6 0.750000 0.250000 0.585788
O O7 0.961529 0.349925 0.576688
O O8 0.007981 0.201309 0.565290
O O9 0.236682 0.879378 0.790354
O O10 0.207287 0.877175 0.894324
O O11 0.500000 0.116533 0.750000
O O12 0.657557 0.000000 0.750000
O O13 0.384783 0.939186 0.500000
O O14 0.500000 0.000000 0.419735
O O15 0.816134 0.862276 0.500000
O O16 0.750000 0.750000 0.442914
#
# Coordination Sequence:
#
# PCOD9497809 Si02
#       6
#    16  16  16  16  16  16
#     4  10  21  35  59  87 121 157 195 252 316 370
#     4   9  18  35  56  78 113 165 214 249 294 363
#     4  10  21  37  57  87 121 156 200 252 306 370
#     4   9  19  35  60  87 114 151 200 253 307 370
#     4  10  22  35  56  91 130 166 211 267 317 372
#     4  10  22  37  57  84 119 164 205 244 298 368
#
# _framework density 21.786994
#
# number of rings (size 3 to 8) (size 9 to 14) (size 15 to 20)
#    0.000    2.333    0.000    1.500    7.000    4.667 
#    0.000    1.667    0.000    7.000    0.000    0.000 
#    0.000    0.000    0.000    0.000    0.000    0.000 
#
# Total GULP energy -267491.170953 kJ/mol
# GULP energy per Si atom -5572.732728 kJ/mol
# Density = 2.173741 g / cm^3
# Si number density = 21.786994 Si / 1000 Ang^3
#
#
#
# Elastic Constant Matrix: (Units=GPa)
#
#
# Indices 1 2 3 4 5 6 
#
# 1 133.8003 9.2458 60.2127 0.0000 0.0000 0.0000
# 2 9.2458 37.8998 20.4978 0.0000 0.0000 0.0000
# 3 60.2127 20.4978 118.7035 0.0000 0.0000 0.0000
# 4 0.0000 0.0000 0.0000 5730.0687 0.0000 0.0000
# 5 0.0000 0.0000 0.0000 0.0000 28.4765 0.0000
# 6 0.0000 0.0000 0.0000 0.0000 0.0000 10.3306
#
#
#
# Elastic Compliance Matrix: (Units=1/GPa)
#
#
# Indices 1 2 3 4 5 6 
#
# 1 0.009688 0.000325 -0.004970 0.000000 0.000000 0.000000
# 2 0.000325 0.029114 -0.005192 0.000000 0.000000 0.000000
# 3 -0.004970 -0.005192 0.011842 0.000000 0.000000 0.000000
# 4 0.000000 0.000000 0.000000 0.000175 0.000000 0.000000
# 5 0.000000 0.000000 0.000000 0.000000 0.035117 0.000000
# 6 0.000000 0.000000 0.000000 0.000000 0.000000 0.096799
#
#
# Mechanical properties :
#
#
# Convention : Reuss Voigt Hill
#
# Bulk Modulus (GPa) = 32.29048 52.25735 42.27391
# Shear Modulus (GPa) = 23.50354 1167.13832 595.32093
#
# Velocity S-wave (km/s) = 3.28805 23.17039 16.54809
# Velocity P-wave (km/s) = 5.41001 27.20038 19.61031
#
# Compressibility (1/GPa) = 0.03096888
#
# Stress axis : x y z
#
# Youngs Moduli (GPa) = 103.21860 34.34743 84.44369
#
# Poissons Ratio (x) = -0.01115 0.41972
# Poissons Ratio (y) = -0.03352 0.43845
# Poissons Ratio (z) = 0.51304 0.17834
#
# Static dielectric constant tensor:
#      x y z
#    x 1.880740 0.000000 0.000000 
#    y 0.000000 1.817660 0.000000 
#    z 0.000000 0.000000 1.790650 
# 
# From -- ./inp_files/62568.got.cif
#   From: 2010.05.17/outbox.cif.g08.bks.cpg/sg66_32_cif.got.tgz:62568.got - 2010.06.03 17:51:23.
