data_PCOD9497765
_publ_section_title
;
Structure prediction by ZEFSAII (Michael W. Deem and Ramdas Pophale) SiO2 
 PCOD9497765
Probable space group: C C C M
;
_chemical_formula_sum "Si O2"
_cell_formula_units_Z 56
_cell_length_a 21.750747
_cell_length_b 5.482036
_cell_length_c 21.047432
_cell_angle_alpha 90.000000
_cell_angle_beta 90.000000
_cell_angle_gamma 90.000000
_cell_volume 2509.661654
_symmetry_space_group_name_H-M "C C C M"
_symmetry_group_IT_number 66
_symmetry_cell_setting 'orthorhombic'
loop_
_space_group_symop_operation_xyz
x,y,z
-x,-y,z
x,-y,1/2-z
-x,y,1/2-z
-x,-y,-z
x,y,-z
-x,y,1/2+z
x,-y,1/2+z
1/2+x,1/2+y,z
1/2-x,1/2-y,z
1/2+x,1/2-y,1/2-z
1/2-x,1/2+y,1/2-z
1/2-x,1/2-y,-z
1/2+x,1/2+y,-z
1/2-x,1/2+y,1/2+z
1/2+x,1/2-y,1/2+z
loop_
_atom_site_type_symbol
_atom_site_label
_atom_site_fract_x
_atom_site_fract_y
_atom_site_fract_z
Si Si1 0.601955 0.289463 0.071287
Si Si2 0.429786 0.396920 0.184098
Si Si3 0.779154 0.499341 0.924366
Si Si4 0.500000 0.000000 0.628239
O O1 0.607985 0.494079 0.125235
O O2 0.648722 0.063199 0.080140
O O3 0.533487 0.189735 0.082254
O O4 0.611438 0.385070 0.000000
O O5 0.500000 0.500000 0.182775
O O6 0.403670 0.500000 0.250000
O O7 0.446693 0.114853 0.172618
O O8 0.750000 0.250000 0.897520
O O9 0.750000 0.750000 0.898552
O O10 0.764967 0.502606 0.000000
#
# Coordination Sequence:
#
# PCOD9497765 Si02
#       4
#    16  16  16   8
#     4  10  21  34  55  88 123 154 195 253 309 362
#     4   9  20  36  54  81 116 157 202 243 302 377
#     4   9  19  35  56  83 117 157 200 241 289 353
#     4  10  21  35  56  84 115 157 194 252 311 381
#
# _framework density 22.313766999999999
#
# number of rings (size 3 to 8) (size 9 to 14) (size 15 to 20)
#    0.000    2.571    0.000    0.429    4.000   15.429 
#    0.000    0.000    0.000    0.000    7.429    0.000 
#    0.000    0.000    0.000    0.000    0.000    0.000 
#
# Total GULP energy -155888.823996 kJ/mol
# GULP energy per Si atom -5567.458000 kJ/mol
# Density = 2.226298 g / cm^3
# Si number density = 22.313767 Si / 1000 Ang^3
#
#
#
# Elastic Constant Matrix: (Units=GPa)
#
#
# Indices 1 2 3 4 5 6 
#
# 1 41.6296 20.4065 33.1967 0.0000 0.0000 0.0000
# 2 20.4065 116.8352 59.5526 0.0000 0.0000 0.0000
# 3 33.1967 59.5526 152.3479 0.0000 0.0000 0.0000
# 4 0.0000 0.0000 0.0000 12.3082 0.0000 0.0000
# 5 0.0000 0.0000 0.0000 0.0000 -0.5027 0.0000
# 6 0.0000 0.0000 0.0000 0.0000 0.0000 34.0968
#
#
#
# Elastic Compliance Matrix: (Units=1/GPa)
#
#
# Indices 1 2 3 4 5 6 
#
# 1 0.029581 -0.002349 -0.005527 0.000000 0.000000 0.000000
# 2 -0.002349 0.010875 -0.003739 0.000000 0.000000 0.000000
# 3 -0.005527 -0.003739 0.009230 0.000000 0.000000 0.000000
# 4 0.000000 0.000000 0.000000 0.081246 0.000000 0.000000
# 5 0.000000 0.000000 0.000000 0.000000 -1.989158 0.000000
# 6 0.000000 0.000000 0.000000 0.000000 0.000000 0.029328
#
#
# Mechanical properties :
#
#
# Convention : Reuss Voigt Hill
#
# Bulk Modulus (GPa) = 37.80098 59.68048 48.74073
# Shear Modulus (GPa) = -2.78265 22.35759 9.78747
#
# Velocity S-wave (km/s) = -1.11793 3.16882 2.09662
# Velocity P-wave (km/s) = 3.91294 6.33977 5.26800
#
# Compressibility (1/GPa) = 0.02645434
#
# Stress axis : x y z
#
# Youngs Moduli (GPa) = 33.80597 91.95129 108.34235
#
# Poissons Ratio (x) = 0.21601 0.59884
# Poissons Ratio (y) = 0.07942 0.40512
# Poissons Ratio (z) = 0.18686 0.34383
#
# Static dielectric constant tensor:
#      x y z
#    x 1.900170 0.000000 0.000000 
#    y 0.000000 2.022730 0.000000 
#    z 0.000000 0.000000 1.818840 
# 
# From -- ./inp_files/45478.got.cif
#   From: 2010.05.17/outbox.cif.g08.bks.cpg/sg66_23_cif.got.tgz:45478.got - 2010.06.03 17:51:23.
