data_PCOD9497716
_publ_section_title
;
Structure prediction by ZEFSAII (Michael W. Deem and Ramdas Pophale) SiO2 
 PCOD9497716
Probable space group: C C C M
;
_chemical_formula_sum "Si O2"
_cell_formula_units_Z 56
_cell_length_a 8.968467
_cell_length_b 22.326285
_cell_length_c 14.218746
_cell_angle_alpha 90.000000
_cell_angle_beta 90.000000
_cell_angle_gamma 90.000000
_cell_volume 2847.055773
_symmetry_space_group_name_H-M "C C C M"
_symmetry_group_IT_number 66
_symmetry_cell_setting 'orthorhombic'
loop_
_space_group_symop_operation_xyz
x,y,z
-x,-y,z
x,-y,1/2-z
-x,y,1/2-z
-x,-y,-z
x,y,-z
-x,y,1/2+z
x,-y,1/2+z
1/2+x,1/2+y,z
1/2-x,1/2-y,z
1/2+x,1/2-y,1/2-z
1/2-x,1/2+y,1/2-z
1/2-x,1/2-y,-z
1/2+x,1/2+y,-z
1/2-x,1/2+y,1/2+z
1/2+x,1/2-y,1/2+z
loop_
_atom_site_type_symbol
_atom_site_label
_atom_site_fract_x
_atom_site_fract_y
_atom_site_fract_z
Si Si1 0.500000 0.500000 0.250000
Si Si2 0.247046 0.413496 0.313160
Si Si3 0.155915 0.193595 0.803453
Si Si4 0.016284 0.232061 0.000000
Si Si5 0.702292 0.163276 0.000000
Si Si6 0.500000 0.000000 0.250000
O O1 0.393282 0.455905 0.309801
O O2 0.259815 0.367764 0.223992
O O3 0.222927 0.374764 0.405632
O O4 0.108022 0.457348 0.307461
O O5 0.250000 0.250000 0.765985
O O6 0.000000 0.189178 0.750000
O O7 0.109803 0.210245 0.909710
O O8 0.853714 0.202094 0.000000
O O9 0.956885 0.301124 0.000000
#
# Coordination Sequence:
#
# PCOD9497716 Si02
#       6
#     4  16  16   8   8   4
#     4  10  20  44  66  90 124 180 232 262 332 390
#     4  11  23  44  67  94 131 175 223 276 328 389
#     4  12  24  41  68  98 134 174 212 276 335 399
#     4  11  23  40  60 109 133 169 217 264 346 405
#     4  11  22  40  68  98 137 169 220 279 324 400
#     4  10  28  44  66  94 128 184 224 270 328 386
#
# _framework density 19.669442
#
# number of rings (size 3 to 8) (size 9 to 14) (size 15 to 20)
#    0.000    0.857    4.286    2.143    6.000    1.143 
#    0.000    5.714    0.000    0.000    0.000    0.000 
#    0.000    0.000    0.000    0.000    0.000    0.000 
#
# Total GULP energy -156189.374778 kJ/mol
# GULP energy per Si atom -5578.191956 kJ/mol
# Density = 1.962467 g / cm^3
# Si number density = 19.669442 Si / 1000 Ang^3
#
#
#
# Elastic Constant Matrix: (Units=GPa)
#
#
# Indices 1 2 3 4 5 6 
#
# 1 93.8982 55.2040 31.1359 0.0000 0.0000 0.0000
# 2 55.2040 135.8532 51.1264 0.0000 0.0000 0.0000
# 3 31.1359 51.1264 113.9520 0.0000 0.0000 0.0000
# 4 0.0000 0.0000 0.0000 164.9030 0.0000 0.0000
# 5 0.0000 0.0000 0.0000 0.0000 3.6389 0.0000
# 6 0.0000 0.0000 0.0000 0.0000 0.0000 20.9456
#
#
#
# Elastic Compliance Matrix: (Units=1/GPa)
#
#
# Indices 1 2 3 4 5 6 
#
# 1 0.014218 -0.005192 -0.001555 0.000000 0.000000 0.000000
# 2 -0.005192 0.010752 -0.003406 0.000000 0.000000 0.000000
# 3 -0.001555 -0.003406 0.010729 0.000000 0.000000 0.000000
# 4 0.000000 0.000000 0.000000 0.006064 0.000000 0.000000
# 5 0.000000 0.000000 0.000000 0.000000 0.274809 0.000000
# 6 0.000000 0.000000 0.000000 0.000000 0.000000 0.047743
#
#
# Mechanical properties :
#
#
# Convention : Reuss Voigt Hill
#
# Bulk Modulus (GPa) = 64.96507 68.73733 66.85120
# Shear Modulus (GPa) = 12.82866 51.64664 32.23765
#
# Velocity S-wave (km/s) = 2.55662 5.12975 4.05281
# Velocity P-wave (km/s) = 6.46647 8.37304 7.48074
#
# Compressibility (1/GPa) = 0.01539289
#
# Stress axis : x y z
#
# Youngs Moduli (GPa) = 70.33266 93.00283 93.20927
#
# Poissons Ratio (x) = 0.48289 0.14497
# Poissons Ratio (y) = 0.36518 0.31743
# Poissons Ratio (z) = 0.10939 0.31672
#
# Static dielectric constant tensor:
#      x y z
#    x 1.775850 0.000000 0.000000 
#    y 0.000000 1.799400 0.000000 
#    z 0.000000 0.000000 1.729880 
# 
# From -- ./inp_files/24097.got.cif
#   From: 2010.05.17/outbox.cif.g08.bks.cpg/sg66_13_cif.got.tgz:24097.got - 2010.06.03 17:51:23.
