data_PCOD9497036
_publ_section_title
;
Structure prediction by ZEFSAII (Michael W. Deem and Ramdas Pophale) SiO2 
 PCOD9497036
Probable space group: C C C M
;
_chemical_formula_sum "Si O2"
_cell_formula_units_Z 104
_cell_length_a 20.329133
_cell_length_b 26.499872
_cell_length_c 9.442816
_cell_angle_alpha 90.000000
_cell_angle_beta 90.000000
_cell_angle_gamma 90.000000
_cell_volume 5087.028381
_symmetry_space_group_name_H-M "C C C M"
_symmetry_group_IT_number 66
_symmetry_cell_setting 'orthorhombic'
loop_
_space_group_symop_operation_xyz
x,y,z
-x,-y,z
x,-y,1/2-z
-x,y,1/2-z
-x,-y,-z
x,y,-z
-x,y,1/2+z
x,-y,1/2+z
1/2+x,1/2+y,z
1/2-x,1/2-y,z
1/2+x,1/2-y,1/2-z
1/2-x,1/2+y,1/2-z
1/2-x,1/2-y,-z
1/2+x,1/2+y,-z
1/2-x,1/2+y,1/2+z
1/2+x,1/2-y,1/2+z
loop_
_atom_site_type_symbol
_atom_site_label
_atom_site_fract_x
_atom_site_fract_y
_atom_site_fract_z
Si Si1 0.935614 0.838848 0.332129
Si Si2 0.740758 0.583487 0.157985
Si Si3 0.939003 0.421996 0.840930
Si Si4 0.328828 0.255813 0.332507
Si Si5 0.857192 0.341965 0.667764
Si Si6 0.615817 0.551422 0.668674
Si Si7 0.336904 0.000000 0.250000
O O1 0.946552 0.833773 0.500000
O O2 0.867995 0.807912 0.300657
O O3 0.926445 0.898407 0.301649
O O4 0.000000 0.819786 0.250000
O O5 0.784968 0.632528 0.190615
O O6 0.687216 0.568386 0.273332
O O7 0.792043 0.537327 0.159717
O O8 0.711593 0.588528 0.000000
O O9 0.908130 0.375536 0.755299
O O10 0.883439 0.464624 0.842272
O O11 0.000000 0.440622 0.750000
O O12 0.958178 0.408448 0.000000
O O13 0.340308 0.245228 0.500000
O O14 0.250000 0.250000 0.312499
O O15 0.358653 0.213484 0.231203
O O16 0.869642 0.343872 0.500000
O O17 0.596666 0.500000 0.750000
O O18 0.617174 0.542377 0.500000
#
# Coordination Sequence:
#
# PCOD9497036 Si02
#       7
#    16  16  16  16  16  16   8
#     4  10  24  44  66  94 127 168 213 260 317 382
#     4  10  20  35  56  87 123 158 201 251 307 370
#     4  11  23  38  56  79 113 159 207 256 309 372
#     4  10  21  41  68  96 126 164 211 261 318 383
#     4  10  22  38  58  87 121 156 200 254 311 373
#     4  11  23  39  62  92 125 162 205 253 309 370
#     4  10  21  34  56  84 115 152 204 252 312 372
#
# _framework density 20.444154999999999
#
# number of rings (size 3 to 8) (size 9 to 14) (size 15 to 20)
#    0.000    1.692    0.769    3.000    0.000    9.846 
#    0.000    3.077    0.000    0.000    0.000    0.000 
#    0.000    0.000    0.000    0.000    0.000    0.000 
#
# Total GULP energy -290272.714705 kJ/mol
# GULP energy per Si atom -5582.167590 kJ/mol
# Density = 2.039762 g / cm^3
# Si number density = 20.444155 Si / 1000 Ang^3
#
#
#
# Elastic Constant Matrix: (Units=GPa)
#
#
# Indices 1 2 3 4 5 6 
#
# 1 88.3473 28.6822 44.3686 0.0000 0.0000 0.0000
# 2 28.6822 117.9853 52.2487 0.0000 0.0000 0.0000
# 3 44.3686 52.2487 94.0926 0.0000 0.0000 0.0000
# 4 0.0000 0.0000 0.0000 28.1167 0.0000 0.0000
# 5 0.0000 0.0000 0.0000 0.0000 -5.2071 0.0000
# 6 0.0000 0.0000 0.0000 0.0000 0.0000 11.0641
#
#
#
# Elastic Compliance Matrix: (Units=1/GPa)
#
#
# Indices 1 2 3 4 5 6 
#
# 1 0.014872 -0.000676 -0.006637 0.000000 0.000000 0.000000
# 2 -0.000676 0.011270 -0.005939 0.000000 0.000000 0.000000
# 3 -0.006637 -0.005939 0.017056 0.000000 0.000000 0.000000
# 4 0.000000 0.000000 0.000000 0.035566 0.000000 0.000000
# 5 0.000000 0.000000 0.000000 0.000000 -0.192046 0.000000
# 6 0.000000 0.000000 0.000000 0.000000 0.000000 0.090382
#
#
# Mechanical properties :
#
#
# Convention : Reuss Voigt Hill
#
# Bulk Modulus (GPa) = 59.90851 61.22492 60.56672
# Shear Modulus (GPa) = 545.30686 18.46980 281.88833
#
# Velocity S-wave (km/s) = 16.34959 3.00897 11.75506
# Velocity P-wave (km/s) = 19.64126 6.48724 14.62640
#
# Compressibility (1/GPa) = 0.01669212
#
# Stress axis : x y z
#
# Youngs Moduli (GPa) = 67.24180 88.72946 58.63154
#
# Poissons Ratio (x) = 0.05999 0.38915
# Poissons Ratio (y) = 0.04546 0.34824
# Poissons Ratio (z) = 0.44630 0.52700
#
# Static dielectric constant tensor:
#      x y z
#    x 1.749090 0.000000 0.000000 
#    y 0.000000 1.737320 0.000000 
#    z 0.000000 0.000000 1.715360 
# 
# From -- ./inp_files/8122.got.cif
#   From: 2010.05.17/outbox.cif.g08.bks.cpg/sg66_5_cif.got.tgz:8122.got - 2010.06.03 17:51:23.
