data_PCOD9497520
_publ_section_title
;
Structure prediction by ZEFSAII (Michael W. Deem and Ramdas Pophale) SiO2 
 PCOD9497520
Probable space group: C C C M
;
_chemical_formula_sum "Si O2"
_cell_formula_units_Z 68
_cell_length_a 5.243252
_cell_length_b 21.573851
_cell_length_c 30.405582
_cell_angle_alpha 90.000000
_cell_angle_beta 90.000000
_cell_angle_gamma 90.000000
_cell_volume 3439.392397
_symmetry_space_group_name_H-M "C C C M"
_symmetry_group_IT_number 66
_symmetry_cell_setting 'orthorhombic'
loop_
_space_group_symop_operation_xyz
x,y,z
-x,-y,z
x,-y,1/2-z
-x,y,1/2-z
-x,-y,-z
x,y,-z
-x,y,1/2+z
x,-y,1/2+z
1/2+x,1/2+y,z
1/2-x,1/2-y,z
1/2+x,1/2-y,1/2-z
1/2-x,1/2+y,1/2-z
1/2-x,1/2-y,-z
1/2+x,1/2+y,-z
1/2-x,1/2+y,1/2+z
1/2+x,1/2-y,1/2+z
loop_
_atom_site_type_symbol
_atom_site_label
_atom_site_fract_x
_atom_site_fract_y
_atom_site_fract_z
Si Si1 0.251517 0.116581 0.636881
Si Si2 0.250406 0.542124 0.952751
Si Si3 0.252570 0.389689 0.802420
Si Si4 0.250000 0.750000 0.146774
Si Si5 0.750000 0.250000 0.706388
Si Si6 0.500000 0.000000 0.750000
O O1 0.243272 0.076705 0.593395
O O2 0.518207 0.111702 0.662854
O O3 0.231712 0.187239 0.620691
O O4 0.018637 0.104759 0.670962
O O5 0.500000 0.500000 0.953503
O O6 0.000000 0.500000 0.952267
O O7 0.246475 0.577486 0.000000
O O8 0.253017 0.322442 0.776129
O O9 0.185639 0.451145 0.774965
O O10 0.495322 0.751173 0.177944
#
# Coordination Sequence:
#
# PCOD9497520 Si02
#       6
#    16  16  16   8   8   4
#     4  10  20  38  61  83 112 161 185 237 287 358
#     4  10  21  35  55  86 119 151 193 234 279 346
#     4  10  23  38  61  83 123 149 202 234 307 343
#     4   8  16  32  58  84 106 139 206 225 268 342
#     4   8  16  38  57  80 105 163 186 233 279 372
#     4  12  28  42  56 102 118 148 196 282 288 354
#
# _framework density 19.770931999999998
#
# number of rings (size 3 to 8) (size 9 to 14) (size 15 to 20)
#    0.000    2.353    0.000    1.412    4.941    1.882 
#    0.000    7.647    0.000    0.000    0.000   14.824 
#    0.000    0.000    0.000    0.000    0.000    0.000 
#
# Total GULP energy -189357.099623 kJ/mol
# GULP energy per Si atom -5569.326459 kJ/mol
# Density = 1.972593 g / cm^3
# Si number density = 19.770932 Si / 1000 Ang^3
#
#
#
# Elastic Constant Matrix: (Units=GPa)
#
#
# Indices 1 2 3 4 5 6 
#
# 1 142.9093 11.6340 28.8087 0.0000 0.0000 0.0000
# 2 11.6340 144.5775 61.6196 0.0000 0.0000 0.0000
# 3 28.8087 61.6196 81.3162 0.0000 0.0000 0.0000
# 4 0.0000 0.0000 0.0000 -105.9893 0.0000 0.0000
# 5 0.0000 0.0000 0.0000 0.0000 24.2578 0.0000
# 6 0.0000 0.0000 0.0000 0.0000 0.0000 25.8588
#
#
#
# Elastic Compliance Matrix: (Units=1/GPa)
#
#
# Indices 1 2 3 4 5 6 
#
# 1 0.007596 0.000791 -0.003291 0.000000 0.000000 0.000000
# 2 0.000791 0.010299 -0.008084 0.000000 0.000000 0.000000
# 3 -0.003291 -0.008084 0.019590 0.000000 0.000000 0.000000
# 4 0.000000 0.000000 0.000000 -0.009435 0.000000 0.000000
# 5 0.000000 0.000000 0.000000 0.000000 0.041224 0.000000
# 6 0.000000 0.000000 0.000000 0.000000 0.000000 0.038672
#
#
# Mechanical properties :
#
#
# Convention : Reuss Voigt Hill
#
# Bulk Modulus (GPa) = 61.28645 63.65861 62.47253
# Shear Modulus (GPa) = 37.16024 6.60817 21.88421
#
# Velocity S-wave (km/s) = 4.34007 1.83020 3.33060
# Velocity P-wave (km/s) = 7.49536 6.06087 6.81596
#
# Compressibility (1/GPa) = 0.01631682
#
# Stress axis : x y z
#
# Youngs Moduli (GPa) = 131.64077 97.10005 51.04700
#
# Poissons Ratio (x) = -0.07684 0.16799
# Poissons Ratio (y) = -0.10417 0.41269
# Poissons Ratio (z) = 0.43322 0.78500
#
# Static dielectric constant tensor:
#      x y z
#    x 1.684640 0.000000 0.000000 
#    y 0.000000 1.760720 0.000000 
#    z 0.000000 0.000000 1.676790 
# 
# From -- ./inp_files/61356.got.cif
#   From: 2010.05.17/outbox.cif.g08.bks.cpg/sg66_31_cif.got.tgz:61356.got - 2010.06.03 17:51:23.
