data_PCOD9497055
_publ_section_title
;
Structure prediction by ZEFSAII (Michael W. Deem and Ramdas Pophale) SiO2 
 PCOD9497055
Probable space group: C C C M
;
_chemical_formula_sum "Si O2"
_cell_formula_units_Z 88
_cell_length_a 11.765976
_cell_length_b 18.470871
_cell_length_c 22.032074
_cell_angle_alpha 90.000000
_cell_angle_beta 90.000000
_cell_angle_gamma 90.000000
_cell_volume 4788.182720
_symmetry_space_group_name_H-M "C C C M"
_symmetry_group_IT_number 66
_symmetry_cell_setting 'orthorhombic'
loop_
_space_group_symop_operation_xyz
x,y,z
-x,-y,z
x,-y,1/2-z
-x,y,1/2-z
-x,-y,-z
x,y,-z
-x,y,1/2+z
x,-y,1/2+z
1/2+x,1/2+y,z
1/2-x,1/2-y,z
1/2+x,1/2-y,1/2-z
1/2-x,1/2+y,1/2-z
1/2-x,1/2-y,-z
1/2+x,1/2+y,-z
1/2-x,1/2+y,1/2+z
1/2+x,1/2-y,1/2+z
loop_
_atom_site_type_symbol
_atom_site_label
_atom_site_fract_x
_atom_site_fract_y
_atom_site_fract_z
Si Si1 0.528812 0.646878 0.928866
Si Si2 0.119851 0.543611 0.929689
Si Si3 0.267197 0.829059 0.631002
Si Si4 0.751337 0.978048 0.185369
Si Si5 0.500000 0.500000 0.145031
Si Si6 0.990199 0.694068 0.572433
O O1 0.663504 0.659239 0.916161
O O2 0.496389 0.573590 0.894612
O O3 0.469622 0.722483 0.907688
O O4 0.507776 0.637762 0.000000
O O5 0.195653 0.511009 0.875833
O O6 0.000000 0.500000 0.928550
O O7 0.096928 0.628641 0.916104
O O8 0.162981 0.536675 0.000000
O O9 0.250000 0.750000 0.658432
O O10 0.259458 0.892220 0.679051
O O11 0.388908 0.830146 0.599164
O O12 0.883873 0.997810 0.182261
O O13 0.700444 0.000000 0.250000
O O14 0.002421 0.697725 0.500000
#
# Coordination Sequence:
#
# PCOD9497055 Si02
#       6
#    16  16  16  16   8  16
#     4   9  17  29  52  82 111 144 187 232 272 327
#     4  10  20  35  57  85 117 146 174 220 284 340
#     4   9  17  31  52  79 108 141 185 235 276 316
#     4  11  23  39  58  80 109 149 191 232 276 335
#     4  10  22  38  54  74 107 150 195 234 279 322
#     4   9  16  30  51  81 116 146 177 222 281 333
#
# _framework density 18.378578999999998
#
# number of rings (size 3 to 8) (size 9 to 14) (size 15 to 20)
#    0.000    2.364    1.818    1.091    0.000    6.182 
#    0.000    2.727    0.000    7.636    0.000    0.000 
#    0.000    0.000    0.000    0.000    0.000    0.000 
#
# Total GULP energy -245125.476587 kJ/mol
# GULP energy per Si atom -5571.033559 kJ/mol
# Density = 1.833675 g / cm^3
# Si number density = 18.378579 Si / 1000 Ang^3
#
#
#
# Elastic Constant Matrix: (Units=GPa)
#
#
# Indices 1 2 3 4 5 6 
#
# 1 37.6403 31.9207 30.2854 0.0000 0.0000 0.0000
# 2 31.9207 129.1912 59.5969 0.0000 0.0000 0.0000
# 3 30.2854 59.5969 87.0425 0.0000 0.0000 0.0000
# 4 0.0000 0.0000 0.0000 5.3928 0.0000 0.0000
# 5 0.0000 0.0000 0.0000 0.0000 -0.0154 0.0000
# 6 0.0000 0.0000 0.0000 0.0000 0.0000 14.9566
#
#
#
# Elastic Compliance Matrix: (Units=1/GPa)
#
#
# Indices 1 2 3 4 5 6 
#
# 1 0.038929 -0.004926 -0.010172 0.000000 0.000000 0.000000
# 2 -0.004926 0.011937 -0.006459 0.000000 0.000000 0.000000
# 3 -0.010172 -0.006459 0.019451 0.000000 0.000000 0.000000
# 4 0.000000 0.000000 0.000000 0.185432 0.000000 0.000000
# 5 0.000000 0.000000 0.000000 0.000000-64.957791 0.000000
# 6 0.000000 0.000000 0.000000 0.000000 0.000000 0.066860
#
#
# Mechanical properties :
#
#
# Convention : Reuss Voigt Hill
#
# Bulk Modulus (GPa) = 36.76207 55.27558 46.01882
# Shear Modulus (GPa) = -0.07742 12.87153 6.39706
#
# Velocity S-wave (km/s) = -0.20547 2.64929 1.86769
# Velocity P-wave (km/s) = 4.47100 6.28488 5.45388
#
# Compressibility (1/GPa) = 0.02720195
#
# Stress axis : x y z
#
# Youngs Moduli (GPa) = 25.68751 83.77035 51.41244
#
# Poissons Ratio (x) = 0.41267 0.52297
# Poissons Ratio (y) = 0.12654 0.33209
# Poissons Ratio (z) = 0.26130 0.54110
#
# Static dielectric constant tensor:
#      x y z
#    x 1.648540 0.000000 0.000000 
#    y 0.000000 1.686140 0.000000 
#    z 0.000000 0.000000 1.602110 
# 
# From -- ./inp_files/48556.got.cif
#   From: 2010.05.17/outbox.cif.g08.bks.cpg/sg66_25_cif.got.tgz:48556.got - 2010.06.03 17:51:23.
