data_PCOD9497225
_publ_section_title
;
Structure prediction by ZEFSAII (Michael W. Deem and Ramdas Pophale) SiO2 
 PCOD9497225
Probable space group: C C C M
;
_chemical_formula_sum "Si O2"
_cell_formula_units_Z 48
_cell_length_a 10.109457
_cell_length_b 20.849651
_cell_length_c 10.499269
_cell_angle_alpha 90.000000
_cell_angle_beta 90.000000
_cell_angle_gamma 90.000000
_cell_volume 2213.021748
_symmetry_space_group_name_H-M "C C C M"
_symmetry_group_IT_number 66
_symmetry_cell_setting 'orthorhombic'
loop_
_space_group_symop_operation_xyz
x,y,z
-x,-y,z
x,-y,1/2-z
-x,y,1/2-z
-x,-y,-z
x,y,-z
-x,y,1/2+z
x,-y,1/2+z
1/2+x,1/2+y,z
1/2-x,1/2-y,z
1/2+x,1/2-y,1/2-z
1/2-x,1/2+y,1/2-z
1/2-x,1/2-y,-z
1/2+x,1/2+y,-z
1/2-x,1/2+y,1/2+z
1/2+x,1/2-y,1/2+z
loop_
_atom_site_type_symbol
_atom_site_label
_atom_site_fract_x
_atom_site_fract_y
_atom_site_fract_z
Si Si1 0.661882 0.687200 0.500000
Si Si2 0.863292 0.802001 0.000000
Si Si3 0.649788 0.394296 0.257481
Si Si4 0.419241 0.932715 0.358295
O O1 0.750000 0.750000 0.500000
O O2 0.515446 0.717607 0.500000
O O3 0.678635 0.641374 0.376126
O O4 0.750000 0.750000 0.000000
O O5 0.851991 0.842821 0.871114
O O6 0.500000 0.421864 0.250000
O O7 0.770758 0.438324 0.305014
O O8 0.500000 0.894569 0.250000
O O9 0.417108 0.904393 0.500000
O O10 0.500000 0.000000 0.370122
#
# Coordination Sequence:
#
# PCOD9497225 Si02
#       4
#     8   8  16  16
#     4  10  22  36  57  93 127 165 214 258 315 388
#     4  10  20  36  59  87 125 169 212 260 315 380
#     4  10  21  39  62  89 127 170 211 262 323 385
#     4  10  22  41  64  92 123 159 212 270 324 384
#
# _framework density 21.689800999999999
#
# number of rings (size 3 to 8) (size 9 to 14) (size 15 to 20)
#    0.000    2.000    1.667    1.000    2.333    2.667 
#    0.000    3.333    0.000   10.000    0.000    0.000 
#    0.000    0.000    0.000    0.000    0.000    0.000 
#
# Total GULP energy -133731.836827 kJ/mol
# GULP energy per Si atom -5572.159868 kJ/mol
# Density = 2.164043 g / cm^3
# Si number density = 21.689801 Si / 1000 Ang^3
#
#
#
# Elastic Constant Matrix: (Units=GPa)
#
#
# Indices 1 2 3 4 5 6 
#
# 1 198.4107 60.3113 65.7154 0.0000 0.0000 0.0000
# 2 60.3113 53.0745 31.5289 0.0000 0.0000 0.0000
# 3 65.7154 31.5289 226.6652 0.0000 0.0000 0.0000
# 4 0.0000 0.0000 0.0000 -11.2148 0.0000 0.0000
# 5 0.0000 0.0000 0.0000 0.0000 46.6733 0.0000
# 6 0.0000 0.0000 0.0000 0.0000 0.0000 42.3494
#
#
#
# Elastic Compliance Matrix: (Units=1/GPa)
#
#
# Indices 1 2 3 4 5 6 
#
# 1 0.007963 -0.008369 -0.001145 0.000000 0.000000 0.000000
# 2 -0.008369 0.029334 -0.001654 0.000000 0.000000 0.000000
# 3 -0.001145 -0.001654 0.004974 0.000000 0.000000 0.000000
# 4 0.000000 0.000000 0.000000 -0.089168 0.000000 0.000000
# 5 0.000000 0.000000 0.000000 0.000000 0.021426 0.000000
# 6 0.000000 0.000000 0.000000 0.000000 0.000000 0.023613
#
#
# Mechanical properties :
#
#
# Convention : Reuss Voigt Hill
#
# Bulk Modulus (GPa) = 50.16090 88.14017 69.15053
# Shear Modulus (GPa) = 184.35602 36.93457 110.64529
#
# Velocity S-wave (km/s) = 9.22936 4.13104 7.15006
# Velocity P-wave (km/s) = 11.69408 7.96737 10.00576
#
# Compressibility (1/GPa) = 0.01993585
#
# Stress axis : x y z
#
# Youngs Moduli (GPa) = 125.57997 34.09010 201.05767
#
# Poissons Ratio (x) = 0.28530 0.23012
# Poissons Ratio (y) = 1.05097 0.33255
# Poissons Ratio (z) = 0.14373 0.05638
#
# Static dielectric constant tensor:
#      x y z
#    x 1.880800 0.000000 0.000000 
#    y 0.000000 1.899310 0.000000 
#    z 0.000000 0.000000 1.810410 
# 
# From -- ./inp_files/13171.got.cif
#   From: 2010.05.17/outbox.cif.g08.bks.cpg/sg66_7_cif.got.tgz:13171.got - 2010.06.03 17:51:23.
