data_PCOD9497507
_publ_section_title
;
Structure prediction by ZEFSAII (Michael W. Deem and Ramdas Pophale) SiO2 
 PCOD9497507
Probable space group: C C C M
;
_chemical_formula_sum "Si O2"
_cell_formula_units_Z 100
_cell_length_a 12.534879
_cell_length_b 13.330042
_cell_length_c 29.082935
_cell_angle_alpha 90.000000
_cell_angle_beta 90.000000
_cell_angle_gamma 90.000000
_cell_volume 4859.481090
_symmetry_space_group_name_H-M "C C C M"
_symmetry_group_IT_number 66
_symmetry_cell_setting 'orthorhombic'
loop_
_space_group_symop_operation_xyz
x,y,z
-x,-y,z
x,-y,1/2-z
-x,y,1/2-z
-x,-y,-z
x,y,-z
-x,y,1/2+z
x,-y,1/2+z
1/2+x,1/2+y,z
1/2-x,1/2-y,z
1/2+x,1/2-y,1/2-z
1/2-x,1/2+y,1/2-z
1/2-x,1/2-y,-z
1/2+x,1/2+y,-z
1/2-x,1/2+y,1/2+z
1/2+x,1/2-y,1/2+z
loop_
_atom_site_type_symbol
_atom_site_label
_atom_site_fract_x
_atom_site_fract_y
_atom_site_fract_z
Si Si1 0.500000 0.000000 0.000000
Si Si2 0.947077 0.229987 0.298521
Si Si3 0.843801 0.979389 0.801768
Si Si4 0.394071 0.444360 0.399791
Si Si5 0.870662 0.732765 0.373324
Si Si6 0.890521 0.556427 0.816494
Si Si7 0.155154 0.510747 0.913811
O O1 0.408118 0.010644 0.040393
O O2 0.875213 0.135632 0.313059
O O3 0.884153 0.334187 0.294483
O O4 0.000000 0.205839 0.250000
O O5 0.039975 0.258089 0.334539
O O6 0.717306 0.000248 0.802832
O O7 0.880398 0.000000 0.750000
O O8 0.890518 0.043864 0.843757
O O9 0.500000 0.500000 0.416204
O O10 0.392320 0.325206 0.408112
O O11 0.283766 0.492075 0.417349
O O12 0.750000 0.750000 0.355147
O O13 0.870941 0.624381 0.396867
O O14 0.881985 0.560411 0.871946
O O15 0.000000 0.500000 0.804303
#
# Coordination Sequence:
#
# PCOD9497507 Si02
#       7
#     4  16  16  16  16  16  16
#     4  12  20  44  72  94 120 144 198 256 312 376
#     4  12  24  35  58  86 125 168 219 264 304 344
#     4  11  25  38  58  89 126 169 225 265 301 345
#     4  10  20  38  64  89 124 170 201 248 308 367
#     4  10  20  38  59  89 122 162 205 246 304 370
#     4  11  23  42  58  86 121 167 208 256 313 380
#     4  10  22  40  68  92 117 155 200 253 315 386
#
# _framework density 20.578327999999999
#
# number of rings (size 3 to 8) (size 9 to 14) (size 15 to 20)
#    0.000    1.280    4.000    1.440    2.240    1.280 
#    0.000    4.000    0.000    0.960    0.000    0.000 
#    0.000    0.000    0.000    0.000    0.000    0.000 
#
# Total GULP energy -278831.119076 kJ/mol
# GULP energy per Si atom -5576.622382 kJ/mol
# Density = 2.053149 g / cm^3
# Si number density = 20.578328 Si / 1000 Ang^3
#
#
#
# Elastic Constant Matrix: (Units=GPa)
#
#
# Indices 1 2 3 4 5 6 
#
# 1 148.0245 8.4885 16.4627 0.0000 0.0000 0.0000
# 2 8.4885 77.2689 -11.5226 0.0000 0.0000 0.0000
# 3 16.4627 -11.5226 90.2202 0.0000 0.0000 0.0000
# 4 0.0000 0.0000 0.0000 -4.1415 0.0000 0.0000
# 5 0.0000 0.0000 0.0000 0.0000 14.6556 0.0000
# 6 0.0000 0.0000 0.0000 0.0000 0.0000 30.1518
#
#
#
# Elastic Compliance Matrix: (Units=1/GPa)
#
#
# Indices 1 2 3 4 5 6 
#
# 1 0.006967 -0.000973 -0.001396 0.000000 0.000000 0.000000
# 2 -0.000973 0.013329 0.001880 0.000000 0.000000 0.000000
# 3 -0.001396 0.001880 0.011579 0.000000 0.000000 0.000000
# 4 0.000000 0.000000 0.000000 -0.241459 0.000000 0.000000
# 5 0.000000 0.000000 0.000000 0.000000 0.068233 0.000000
# 6 0.000000 0.000000 0.000000 0.000000 0.000000 0.033165
#
#
# Mechanical properties :
#
#
# Convention : Reuss Voigt Hill
#
# Bulk Modulus (GPa) = 32.36615 38.04121 35.20368
# Shear Modulus (GPa) = -51.59506 28.27219 -11.66144
#
# Velocity S-wave (km/s) = -5.01268 3.71061 -2.38310
# Velocity P-wave (km/s) = 4.21191 6.07325 3.09388
#
# Compressibility (1/GPa) = 0.03089647
#
# Stress axis : x y z
#
# Youngs Moduli (GPa) = 143.54062 75.02377 86.36511
#
# Poissons Ratio (x) = 0.07303 0.12053
# Poissons Ratio (y) = 0.13973 -0.16236
# Poissons Ratio (z) = 0.20032 -0.14104
#
# Static dielectric constant tensor:
#      x y z
#    x 1.777640 0.000000 0.000000 
#    y 0.000000 1.789350 0.000000 
#    z 0.000000 0.000000 1.702510 
# 
# From -- ./inp_files/69035.got.cif
#   From: 2010.05.17/outbox.cif.g08.bks.cpg/sg66_35_cif.got.tgz:69035.got - 2010.06.03 17:51:23.
