data_PCOD9497936
_publ_section_title
;
Structure prediction by ZEFSAII (Michael W. Deem and Ramdas Pophale) SiO2 
 PCOD9497936
Probable space group: C C C M
;
_chemical_formula_sum "Si O2"
_cell_formula_units_Z 80
_cell_length_a 7.667089
_cell_length_b 17.786943
_cell_length_c 25.772320
_cell_angle_alpha 90.000000
_cell_angle_beta 90.000000
_cell_angle_gamma 90.000000
_cell_volume 3514.676301
_symmetry_space_group_name_H-M "C C C M"
_symmetry_group_IT_number 66
_symmetry_cell_setting 'orthorhombic'
loop_
_space_group_symop_operation_xyz
x,y,z
-x,-y,z
x,-y,1/2-z
-x,y,1/2-z
-x,-y,-z
x,y,-z
-x,y,1/2+z
x,-y,1/2+z
1/2+x,1/2+y,z
1/2-x,1/2-y,z
1/2+x,1/2-y,1/2-z
1/2-x,1/2+y,1/2-z
1/2-x,1/2-y,-z
1/2+x,1/2+y,-z
1/2-x,1/2+y,1/2+z
1/2+x,1/2-y,1/2+z
loop_
_atom_site_type_symbol
_atom_site_label
_atom_site_fract_x
_atom_site_fract_y
_atom_site_fract_z
Si Si1 0.485998 0.710426 0.595550
Si Si2 0.662504 0.923299 0.282581
Si Si3 0.388137 0.381476 0.000000
Si Si4 0.920319 0.202081 0.799864
Si Si5 0.364794 0.873207 0.900450
Si Si6 0.225233 0.540322 0.000000
O O1 0.378086 0.671437 0.550482
O O2 0.437022 0.696427 0.655199
O O3 0.512862 0.800081 0.590922
O O4 0.672072 0.665572 0.595365
O O5 0.500000 0.891949 0.250000
O O6 0.837969 0.875810 0.282003
O O7 0.614814 0.915588 0.344687
O O8 0.693550 0.000000 0.250000
O O9 0.258066 0.451405 0.000000
O O10 0.581666 0.420165 0.000000
O O11 0.750000 0.250000 0.817023
O O12 0.000000 0.238979 0.750000
O O13 0.369179 0.930070 0.948390
#
# Coordination Sequence:
#
# PCOD9497936 Si02
#       6
#    16  16   8  16  16   8
#     4   9  16  30  50  77 104 147 193 237 279 346
#     4  10  21  37  57  81 113 150 195 239 290 351
#     4   9  17  27  45  77 117 146 185 238 296 347
#     4  11  21  35  56  83 114 150 192 241 292 347
#     4   9  16  30  51  73 107 147 195 233 281 347
#     4   9  17  27  45  76 114 153 181 236 300 348
#
# _framework density 22.761697999999999
#
# number of rings (size 3 to 8) (size 9 to 14) (size 15 to 20)
#    0.000    2.400    4.000    1.200    0.000    4.400 
#    0.000    4.000    0.000    2.400    0.000    2.100 
#    0.000    0.000    0.000    0.000    0.000    0.000 
#
# Total GULP energy -222792.772855 kJ/mol
# GULP energy per Si atom -5569.819321 kJ/mol
# Density = 2.270989 g / cm^3
# Si number density = 22.761698 Si / 1000 Ang^3
#
#
#
# Elastic Constant Matrix: (Units=GPa)
#
#
# Indices 1 2 3 4 5 6 
#
# 1 48.7542 28.7695 49.0216 0.0000 0.0000 0.0000
# 2 28.7695 199.5906 119.6720 0.0000 0.0000 0.0000
# 3 49.0216 119.6720 243.8142 0.0000 0.0000 0.0000
# 4 0.0000 0.0000 0.0000 49.7241 0.0000 0.0000
# 5 0.0000 0.0000 0.0000 0.0000 14.1163 0.0000
# 6 0.0000 0.0000 0.0000 0.0000 0.0000 5.9600
#
#
#
# Elastic Compliance Matrix: (Units=1/GPa)
#
#
# Indices 1 2 3 4 5 6 
#
# 1 0.025813 -0.000863 -0.004766 0.000000 0.000000 0.000000
# 2 -0.000863 0.007129 -0.003325 0.000000 0.000000 0.000000
# 3 -0.004766 -0.003325 0.006692 0.000000 0.000000 0.000000
# 4 0.000000 0.000000 0.000000 0.020111 0.000000 0.000000
# 5 0.000000 0.000000 0.000000 0.000000 0.070840 0.000000
# 6 0.000000 0.000000 0.000000 0.000000 0.000000 0.167786
#
#
# Mechanical properties :
#
#
# Convention : Reuss Voigt Hill
#
# Bulk Modulus (GPa) = 46.03211 98.56503 72.29857
# Shear Modulus (GPa) = 15.45496 33.60647 24.53072
#
# Velocity S-wave (km/s) = 2.60857 3.84663 3.28642
# Velocity P-wave (km/s) = 5.41666 7.94517 6.79949
#
# Compressibility (1/GPa) = 0.02172396
#
# Stress axis : x y z
#
# Youngs Moduli (GPa) = 38.74048 140.28184 149.43070
#
# Poissons Ratio (x) = 0.12104 0.71226
# Poissons Ratio (y) = 0.03343 0.49692
# Poissons Ratio (z) = 0.18465 0.46650
#
# Static dielectric constant tensor:
#      x y z
#    x 1.953130 0.000000 0.000000 
#    y 0.000000 1.934810 0.000000 
#    z 0.000000 0.000000 1.923970 
# 
# From -- ./inp_files/56858.got.cif
#   From: 2010.05.17/outbox.cif.g08.bks.cpg/sg66_29_cif.got.tgz:56858.got - 2010.06.03 17:51:23.
