data_PCOD9497725
_publ_section_title
;
Structure prediction by ZEFSAII (Michael W. Deem and Ramdas Pophale) SiO2 
 PCOD9497725
Probable space group: C C C M
;
_chemical_formula_sum "Si O2"
_cell_formula_units_Z 60
_cell_length_a 25.751152
_cell_length_b 6.764513
_cell_length_c 16.822263
_cell_angle_alpha 90.000000
_cell_angle_beta 90.000000
_cell_angle_gamma 90.000000
_cell_volume 2930.337323
_symmetry_space_group_name_H-M "C C C M"
_symmetry_group_IT_number 66
_symmetry_cell_setting 'orthorhombic'
loop_
_space_group_symop_operation_xyz
x,y,z
-x,-y,z
x,-y,1/2-z
-x,y,1/2-z
-x,-y,-z
x,y,-z
-x,y,1/2+z
x,-y,1/2+z
1/2+x,1/2+y,z
1/2-x,1/2-y,z
1/2+x,1/2-y,1/2-z
1/2-x,1/2+y,1/2-z
1/2-x,1/2-y,-z
1/2+x,1/2+y,-z
1/2-x,1/2+y,1/2+z
1/2+x,1/2-y,1/2+z
loop_
_atom_site_type_symbol
_atom_site_label
_atom_site_fract_x
_atom_site_fract_y
_atom_site_fract_z
Si Si1 0.443569 0.390955 0.000000
Si Si2 0.282841 0.955417 0.000000
Si Si3 0.826372 0.000000 0.750000
Si Si4 0.000000 0.000000 0.750000
Si Si5 0.413923 0.346532 0.360965
Si Si6 0.907892 0.547130 0.500000
Si Si7 0.750000 0.750000 0.139355
O O1 0.500000 0.500000 0.000000
O O2 0.414492 0.468579 0.078292
O O3 0.438687 0.157386 0.000000
O O4 0.250000 0.750000 0.000000
O O5 0.268979 0.078996 0.920840
O O6 0.345142 0.946277 0.000000
O O7 0.863075 0.867301 0.692901
O O8 0.792279 0.853829 0.804089
O O9 0.963102 0.131621 0.804330
O O10 0.420749 0.163277 0.419277
#
# Coordination Sequence:
#
# PCOD9497725 Si02
#       7
#     8   8   8   4  16   8   8
#     4  11  22  45  71  94 135 176 231 288 344 416
#     4  11  24  47  71 102 138 192 239 290 346 441
#     4  11  24  43  66 100 146 179 226 301 354 416
#     4  10  20  46  62  92 142 170 212 292 344 396
#     4  10  23  43  67  96 134 176 226 287 344 411
#     4  11  24  40  73  99 129 182 239 274 349 426
#     4  11  26  42  70  99 144 184 234 285 364 416
#
# _framework density 20.475459000000001
#
# number of rings (size 3 to 8) (size 9 to 14) (size 15 to 20)
#    0.000    1.333    1.333    3.200    5.600    6.400 
#    0.000    5.333    0.000    0.000    0.000    0.000 
#    0.000    0.000    0.000    0.000    0.000    0.000 
#
# Total GULP energy -167607.523616 kJ/mol
# GULP energy per Si atom -5586.917454 kJ/mol
# Density = 2.042886 g / cm^3
# Si number density = 20.475459 Si / 1000 Ang^3
#
#
#
# Elastic Constant Matrix: (Units=GPa)
#
#
# Indices 1 2 3 4 5 6 
#
# 1 137.2657 65.4646 89.3585 0.0000 0.0000 0.0000
# 2 65.4646 160.9161 80.4474 0.0000 0.0000 0.0000
# 3 89.3585 80.4474 184.2273 0.0000 0.0000 0.0000
# 4 0.0000 0.0000 0.0000 -2.2523 0.0000 0.0000
# 5 0.0000 0.0000 0.0000 0.0000 10.1603 0.0000
# 6 0.0000 0.0000 0.0000 0.0000 0.0000 18.0261
#
#
#
# Elastic Compliance Matrix: (Units=1/GPa)
#
#
# Indices 1 2 3 4 5 6 
#
# 1 0.011317 -0.002379 -0.004450 0.000000 0.000000 0.000000
# 2 -0.002379 0.008450 -0.002536 0.000000 0.000000 0.000000
# 3 -0.004450 -0.002536 0.008694 0.000000 0.000000 0.000000
# 4 0.000000 0.000000 0.000000 -0.443999 0.000000 0.000000
# 5 0.000000 0.000000 0.000000 0.000000 0.098422 0.000000
# 6 0.000000 0.000000 0.000000 0.000000 0.000000 0.055475
#
#
# Mechanical properties :
#
#
# Convention : Reuss Voigt Hill
#
# Bulk Modulus (GPa) = 102.77193 105.88336 104.32764
# Shear Modulus (GPa) = -20.86239 21.66272 0.40017
#
# Velocity S-wave (km/s) = -3.19548 3.25620 0.44256
# Velocity P-wave (km/s) = 6.05697 8.12168 7.16410
#
# Compressibility (1/GPa) = 0.00973028
#
# Stress axis : x y z
#
# Youngs Moduli (GPa) = 88.36348 118.34146 115.02104
#
# Poissons Ratio (x) = 0.28155 0.51188
# Poissons Ratio (y) = 0.21023 0.29169
# Poissons Ratio (z) = 0.39324 0.30011
#
# Static dielectric constant tensor:
#      x y z
#    x 1.759350 0.000000 0.000000 
#    y 0.000000 1.731430 0.000000 
#    z 0.000000 0.000000 1.720340 
# 
# From -- ./inp_files/34920.got.cif
#   From: 2010.05.17/outbox.cif.g08.bks.cpg/sg66_18_cif.got.tgz:34920.got - 2010.06.03 17:51:23.
