data_PCOD9497380
_publ_section_title
;
Structure prediction by ZEFSAII (Michael W. Deem and Ramdas Pophale) SiO2 
 PCOD9497380
Probable space group: C C C M
;
_chemical_formula_sum "Si O2"
_cell_formula_units_Z 96
_cell_length_a 20.264135
_cell_length_b 11.853219
_cell_length_c 18.813764
_cell_angle_alpha 90.000000
_cell_angle_beta 90.000000
_cell_angle_gamma 90.000000
_cell_volume 4518.976371
_symmetry_space_group_name_H-M "C C C M"
_symmetry_group_IT_number 66
_symmetry_cell_setting 'orthorhombic'
loop_
_space_group_symop_operation_xyz
x,y,z
-x,-y,z
x,-y,1/2-z
-x,y,1/2-z
-x,-y,-z
x,y,-z
-x,y,1/2+z
x,-y,1/2+z
1/2+x,1/2+y,z
1/2-x,1/2-y,z
1/2+x,1/2-y,1/2-z
1/2-x,1/2+y,1/2-z
1/2-x,1/2-y,-z
1/2+x,1/2+y,-z
1/2-x,1/2+y,1/2+z
1/2+x,1/2-y,1/2+z
loop_
_atom_site_type_symbol
_atom_site_label
_atom_site_fract_x
_atom_site_fract_y
_atom_site_fract_z
Si Si1 0.027554 0.234507 0.329572
Si Si2 0.720709 0.628545 0.218445
Si Si3 0.691260 0.894248 0.078125
Si Si4 0.614817 0.679063 0.118630
Si Si5 0.930309 0.434779 0.919307
Si Si6 0.573313 0.447506 0.076196
O O1 0.960385 0.221161 0.376103
O O2 0.000000 0.235186 0.250000
O O3 0.065001 0.344805 0.356361
O O4 0.073411 0.131484 0.355223
O O5 0.723347 0.500000 0.250000
O O6 0.750000 0.750000 0.249811
O O7 0.759706 0.610933 0.144031
O O8 0.646237 0.662003 0.196725
O O9 0.656009 0.773008 0.078845
O O10 0.632248 0.983756 0.090312
O O11 0.720325 0.915659 0.000000
O O12 0.618164 0.556540 0.084127
O O13 0.000000 0.500000 0.916835
O O14 0.925585 0.386804 0.000000
O O15 0.500000 0.500000 0.074517
O O16 0.585289 0.390125 0.000000
#
# Coordination Sequence:
#
# PCOD9497380 Si02
#       6
#    16  16  16  16  16  16
#     4  11  23  35  56  89 124 164 204 253 312 392
#     4  10  24  43  66  92 126 174 216 268 324 385
#     4  10  21  40  65  92 121 160 215 269 315 378
#     4  10  21  37  60  89 121 162 208 263 317 373
#     4  10  20  37  60  85 121 159 196 255 321 377
#     4   9  19  34  55  83 117 154 196 249 307 366
#
# _framework density 21.243749999999999
#
# number of rings (size 3 to 8) (size 9 to 14) (size 15 to 20)
#    0.000    2.000    1.667    1.000    2.333   10.333 
#    0.000    0.000    0.000    0.500    0.000    0.000 
#    0.000    0.000    0.000    0.000    0.000    0.000 
#
# Total GULP energy -267436.864372 kJ/mol
# GULP energy per Si atom -5571.601341 kJ/mol
# Density = 2.119540 g / cm^3
# Si number density = 21.243750 Si / 1000 Ang^3
#
#
#
# Elastic Constant Matrix: (Units=GPa)
#
#
# Indices 1 2 3 4 5 6 
#
# 1 47.0866 19.9431 -2.5425 0.0000 0.0000 0.0000
# 2 19.9431 145.4979 58.3970 0.0000 0.0000 0.0000
# 3 -2.5425 58.3970 102.1501 0.0000 0.0000 0.0000
# 4 0.0000 0.0000 0.0000 28.3338 0.0000 0.0000
# 5 0.0000 0.0000 0.0000 0.0000 14.0271 0.0000
# 6 0.0000 0.0000 0.0000 0.0000 0.0000 29.5034
#
#
#
# Elastic Compliance Matrix: (Units=1/GPa)
#
#
# Indices 1 2 3 4 5 6 
#
# 1 0.023288 -0.004445 0.003120 0.000000 0.000000 0.000000
# 2 -0.004445 0.009768 -0.005695 0.000000 0.000000 0.000000
# 3 0.003120 -0.005695 0.013123 0.000000 0.000000 0.000000
# 4 0.000000 0.000000 0.000000 0.035293 0.000000 0.000000
# 5 0.000000 0.000000 0.000000 0.000000 0.071291 0.000000
# 6 0.000000 0.000000 0.000000 0.000000 0.000000 0.033894
#
#
# Mechanical properties :
#
#
# Convention : Reuss Voigt Hill
#
# Bulk Modulus (GPa) = 31.11245 49.59221 40.35233
# Shear Modulus (GPa) = 23.65089 28.96867 26.30978
#
# Velocity S-wave (km/s) = 3.34025 3.69675 3.52301
# Velocity P-wave (km/s) = 5.43632 6.45107 5.96531
#
# Compressibility (1/GPa) = 0.03214147
#
# Stress axis : x y z
#
# Youngs Moduli (GPa) = 42.93981 102.37773 76.20397
#
# Poissons Ratio (x) = 0.45502 -0.23779
# Poissons Ratio (y) = 0.19085 0.43395
# Poissons Ratio (z) = -0.13399 0.58300
#
# Static dielectric constant tensor:
#      x y z
#    x 1.772400 0.000000 0.000000 
#    y 0.000000 1.804920 0.000000 
#    z 0.000000 0.000000 1.812610 
# 
# From -- ./inp_files/43577.got.cif
#   From: 2010.05.17/outbox.cif.g08.bks.cpg/sg66_22_cif.got.tgz:43577.got - 2010.06.03 17:51:23.
