data_PCOD9497680
_publ_section_title
;
Structure prediction by ZEFSAII (Michael W. Deem and Ramdas Pophale) SiO2 
 PCOD9497680
Probable space group: C C C M
;
_chemical_formula_sum "Si O2"
_cell_formula_units_Z 64
_cell_length_a 5.415141
_cell_length_b 31.660950
_cell_length_c 15.533453
_cell_angle_alpha 90.000000
_cell_angle_beta 90.000000
_cell_angle_gamma 90.000000
_cell_volume 2663.187348
_symmetry_space_group_name_H-M "C C C M"
_symmetry_group_IT_number 66
_symmetry_cell_setting 'orthorhombic'
loop_
_space_group_symop_operation_xyz
x,y,z
-x,-y,z
x,-y,1/2-z
-x,y,1/2-z
-x,-y,-z
x,y,-z
-x,y,1/2+z
x,-y,1/2+z
1/2+x,1/2+y,z
1/2-x,1/2-y,z
1/2+x,1/2-y,1/2-z
1/2-x,1/2+y,1/2-z
1/2-x,1/2-y,-z
1/2+x,1/2+y,-z
1/2-x,1/2+y,1/2+z
1/2+x,1/2-y,1/2+z
loop_
_atom_site_type_symbol
_atom_site_label
_atom_site_fract_x
_atom_site_fract_y
_atom_site_fract_z
Si Si1 0.747660 0.017632 0.348983
Si Si2 0.000000 0.679133 0.250000
Si Si3 0.024481 0.840713 0.000000
Si Si4 0.750000 0.250000 0.151394
Si Si5 0.475539 0.785763 0.500000
Si Si6 0.162252 0.115496 0.836048
O O1 0.744431 0.068044 0.348389
O O2 0.500000 0.000000 0.390220
O O3 0.748437 0.000000 0.250000
O O4 0.000000 0.000000 0.388190
O O5 0.785724 0.709540 0.287654
O O6 0.883551 0.648622 0.178715
O O7 0.777020 0.811439 0.000000
O O8 0.999624 0.869111 0.915515
O O9 0.284037 0.816350 0.000000
O O10 0.523125 0.242751 0.085358
O O11 0.000000 0.115871 0.750000
#
# Coordination Sequence:
#
# PCOD9497680 Si02
#       6
#    16   8   8   8   8  16
#     4  10  20  40  71 105 140 188 231 292 373 436
#     4  12  26  42  69 110 138 200 259 306 366 442
#     4  12  28  49  72 111 144 197 251 302 377 438
#     4  11  26  44  72 101 146 196 254 305 370 435
#     4  11  26  52  68  99 152 193 242 318 370 428
#     4  12  26  47  76 107 151 196 249 310 373 446
#
# _framework density 24.031355999999999
#
# number of rings (size 3 to 8) (size 9 to 14) (size 15 to 20)
#    0.000    0.750    5.000    3.000    5.250    2.000 
#    0.000    1.250    0.000    0.000    0.000    0.875 
#    0.000    0.000    0.000    0.000    0.000    0.000 
#
# Total GULP energy -179149.872063 kJ/mol
# GULP energy per Si atom -5598.433502 kJ/mol
# Density = 2.397666 g / cm^3
# Si number density = 24.031356 Si / 1000 Ang^3
#
#
#
# Elastic Constant Matrix: (Units=GPa)
#
#
# Indices 1 2 3 4 5 6 
#
# 1 174.4077 91.4903 37.1867 0.0000 0.0000 0.0000
# 2 91.4903 224.2131 56.4387 0.0000 0.0000 0.0000
# 3 37.1867 56.4387 113.5171 0.0000 0.0000 0.0000
# 4 0.0000 0.0000 0.0000 441.1118 0.0000 0.0000
# 5 0.0000 0.0000 0.0000 0.0000 3.5502 0.0000
# 6 0.0000 0.0000 0.0000 0.0000 0.0000 3.6871
#
#
#
# Elastic Compliance Matrix: (Units=1/GPa)
#
#
# Indices 1 2 3 4 5 6 
#
# 1 0.007404 -0.002756 -0.001055 0.000000 0.000000 0.000000
# 2 -0.002756 0.006124 -0.002142 0.000000 0.000000 0.000000
# 3 -0.001055 -0.002142 0.010220 0.000000 0.000000 0.000000
# 4 0.000000 0.000000 0.000000 0.002267 0.000000 0.000000
# 5 0.000000 0.000000 0.000000 0.000000 0.281678 0.000000
# 6 0.000000 0.000000 0.000000 0.000000 0.000000 0.271216
#
#
# Mechanical properties :
#
#
# Convention : Reuss Voigt Hill
#
# Bulk Modulus (GPa) = 84.44624 98.04104 91.24364
# Shear Modulus (GPa) = 8.40672 111.47129 59.93900
#
# Velocity S-wave (km/s) = 1.87238 6.81810 4.99961
# Velocity P-wave (km/s) = 6.31591 10.14237 8.44862
#
# Compressibility (1/GPa) = 0.01184185
#
# Stress axis : x y z
#
# Youngs Moduli (GPa) = 135.05691 163.30199 97.84834
#
# Poissons Ratio (x) = 0.45000 0.10328
# Poissons Ratio (y) = 0.37217 0.20958
# Poissons Ratio (z) = 0.14255 0.34977
#
# Static dielectric constant tensor:
#      x y z
#    x 1.877790 0.000000 0.000000 
#    y 0.000000 1.900650 0.000000 
#    z 0.000000 0.000000 1.936410 
# 
# From -- ./inp_files/35087.got.cif
#   From: 2010.05.17/outbox.cif.g08.bks.cpg/sg66_18_cif.got.tgz:35087.got - 2010.06.03 17:51:23.
