data_PCOD9497025
_publ_section_title
;
Structure prediction by ZEFSAII (Michael W. Deem and Ramdas Pophale) SiO2 
 PCOD9497025
Probable space group: C C C M
;
_chemical_formula_sum "Si O2"
_cell_formula_units_Z 116
_cell_length_a 23.757664
_cell_length_b 29.345351
_cell_length_c 7.847154
_cell_angle_alpha 90.000000
_cell_angle_beta 90.000000
_cell_angle_gamma 90.000000
_cell_volume 5470.855198
_symmetry_space_group_name_H-M "C C C M"
_symmetry_group_IT_number 66
_symmetry_cell_setting 'orthorhombic'
loop_
_space_group_symop_operation_xyz
x,y,z
-x,-y,z
x,-y,1/2-z
-x,y,1/2-z
-x,-y,-z
x,y,-z
-x,y,1/2+z
x,-y,1/2+z
1/2+x,1/2+y,z
1/2-x,1/2-y,z
1/2+x,1/2-y,1/2-z
1/2-x,1/2+y,1/2-z
1/2-x,1/2-y,-z
1/2+x,1/2+y,-z
1/2-x,1/2+y,1/2+z
1/2+x,1/2-y,1/2+z
loop_
_atom_site_type_symbol
_atom_site_label
_atom_site_fract_x
_atom_site_fract_y
_atom_site_fract_z
Si Si1 0.368208 0.330228 0.802531
Si Si2 0.063547 0.742965 0.796258
Si Si3 0.500000 0.500000 0.250000
Si Si4 0.407683 0.573130 0.291072
Si Si5 0.062367 0.638196 0.795465
Si Si6 0.719539 0.449060 0.299059
Si Si7 0.819870 0.382470 0.795100
Si Si8 0.251828 0.800462 0.800848
O O1 0.396918 0.281351 0.781329
O O2 0.408441 0.372576 0.750501
O O3 0.308244 0.325700 0.710343
O O4 0.354840 0.339130 0.000000
O O5 0.070092 0.690762 0.735836
O O6 0.000000 0.755925 0.750000
O O7 0.072042 0.743708 0.000000
O O8 0.452420 0.539148 0.203252
O O9 0.415076 0.567010 0.500000
O O10 0.343901 0.560726 0.236209
O O11 0.116386 0.609716 0.734753
O O12 0.000000 0.622203 0.750000
O O13 0.063335 0.640015 0.000000
O O14 0.734103 0.500000 0.250000
O O15 0.715046 0.443981 0.500000
O O16 0.770452 0.417405 0.242508
O O17 0.798283 0.333879 0.725966
O O18 0.822365 0.379663 0.000000
O O19 0.250000 0.750000 0.723997
O O20 0.266483 0.794581 0.000000
#
# Coordination Sequence:
#
# PCOD9497025 Si02
#       8
#    16  16   4  16  16  16  16  16
#     4  11  22  37  53  79 116 152 195 250 303 357
#     4  10  20  36  55  80 113 157 201 243 290 346
#     4  12  22  44  64  82 108 156 204 256 318 364
#     4  10  23  40  58  82 113 146 192 249 305 360
#     4   9  19  36  59  86 121 155 197 239 281 346
#     4  11  22  41  63  88 119 151 193 248 300 361
#     4  10  20  36  59  88 117 155 197 240 295 358
#     4  10  20  35  56  83 116 156 200 244 295 358
#
# _framework density 21.203264999999998
#
# number of rings (size 3 to 8) (size 9 to 14) (size 15 to 20)
#    0.000    1.793    2.069    2.276    0.966    3.586 
#    0.000    3.448    0.000    0.414    0.000    2.897 
#    0.000    0.000    0.000    0.000    0.000    0.000 
#
# Total GULP energy -323300.082293 kJ/mol
# GULP energy per Si atom -5574.139350 kJ/mol
# Density = 2.115501 g / cm^3
# Si number density = 21.203265 Si / 1000 Ang^3
#
#
#
# Elastic Constant Matrix: (Units=GPa)
#
#
# Indices 1 2 3 4 5 6 
#
# 1 176.3418 53.1566 5.1299 0.0000 0.0000 0.0000
# 2 53.1566 66.9913 8.8464 0.0000 0.0000 0.0000
# 3 5.1299 8.8464 31.4932 0.0000 0.0000 0.0000
# 4 0.0000 0.0000 0.0000 9.7228 0.0000 0.0000
# 5 0.0000 0.0000 0.0000 0.0000 5.6725 0.0000
# 6 0.0000 0.0000 0.0000 0.0000 0.0000 40.7352
#
#
#
# Elastic Compliance Matrix: (Units=1/GPa)
#
#
# Indices 1 2 3 4 5 6 
#
# 1 0.007460 -0.005981 0.000465 0.000000 0.000000 0.000000
# 2 -0.005981 0.020297 -0.004727 0.000000 0.000000 0.000000
# 3 0.000465 -0.004727 0.033005 0.000000 0.000000 0.000000
# 4 0.000000 0.000000 0.000000 0.102851 0.000000 0.000000
# 5 0.000000 0.000000 0.000000 0.000000 0.176288 0.000000
# 6 0.000000 0.000000 0.000000 0.000000 0.000000 0.024549
#
#
# Mechanical properties :
#
#
# Convention : Reuss Voigt Hill
#
# Bulk Modulus (GPa) = 24.82874 45.45468 35.14171
# Shear Modulus (GPa) = 12.55137 25.07233 18.81185
#
# Velocity S-wave (km/s) = 2.43565 3.44244 2.98185
# Velocity P-wave (km/s) = 4.43228 6.10612 5.33525
#
# Compressibility (1/GPa) = 0.04027590
#
# Stress axis : x y z
#
# Youngs Moduli (GPa) = 134.04504 49.26751 30.29840
#
# Poissons Ratio (x) = 0.29467 -0.01408
# Poissons Ratio (y) = 0.80171 0.14323
# Poissons Ratio (z) = -0.06231 0.23290
#
# Static dielectric constant tensor:
#      x y z
#    x 1.780060 0.000000 0.000000 
#    y 0.000000 1.771930 0.000000 
#    z 0.000000 0.000000 1.805760 
# 
# From -- ./inp_files/9435.got.cif
#   From: 2010.05.17/outbox.cif.g08.bks.cpg/sg66_5_cif.got.tgz:9435.got - 2010.06.03 17:51:23.
