data_PCOD9497038
_publ_section_title
;
Structure prediction by ZEFSAII (Michael W. Deem and Ramdas Pophale) SiO2 
 PCOD9497038
Probable space group: C C C M
;
_chemical_formula_sum "Si O2"
_cell_formula_units_Z 96
_cell_length_a 22.995702
_cell_length_b 12.937592
_cell_length_c 13.737369
_cell_angle_alpha 90.000000
_cell_angle_beta 90.000000
_cell_angle_gamma 90.000000
_cell_volume 4086.991054
_symmetry_space_group_name_H-M "C C C M"
_symmetry_group_IT_number 66
_symmetry_cell_setting 'orthorhombic'
loop_
_space_group_symop_operation_xyz
x,y,z
-x,-y,z
x,-y,1/2-z
-x,y,1/2-z
-x,-y,-z
x,y,-z
-x,y,1/2+z
x,-y,1/2+z
1/2+x,1/2+y,z
1/2-x,1/2-y,z
1/2+x,1/2-y,1/2-z
1/2-x,1/2+y,1/2-z
1/2-x,1/2-y,-z
1/2+x,1/2+y,-z
1/2-x,1/2+y,1/2+z
1/2+x,1/2-y,1/2+z
loop_
_atom_site_type_symbol
_atom_site_label
_atom_site_fract_x
_atom_site_fract_y
_atom_site_fract_z
Si Si1 0.335871 0.333008 0.615901
Si Si2 0.136481 0.364610 0.753754
Si Si3 0.955016 0.405513 0.888377
Si Si4 0.047962 0.757136 0.382984
Si Si5 0.260533 0.632953 0.283871
Si Si6 0.121635 0.948283 0.616006
O O1 0.331406 0.315373 0.500000
O O2 0.349985 0.233290 0.680638
O O3 0.276284 0.370049 0.668442
O O4 0.380950 0.428300 0.633098
O O5 0.098279 0.430468 0.679782
O O6 0.096981 0.316960 0.838381
O O7 0.195952 0.408757 0.796712
O O8 0.000000 0.500000 0.882112
O O9 0.986851 0.298231 0.856943
O O10 0.937118 0.393850 0.000000
O O11 0.048985 0.752351 0.500000
O O12 0.068022 0.873509 0.354807
O O13 0.250000 0.750000 0.317041
O O14 0.317846 0.589723 0.335816
O O15 0.128065 0.936555 0.500000
#
# Coordination Sequence:
#
# PCOD9497038 Si02
#       6
#    16  16  16  16  16  16
#     4  10  21  37  59  88 126 166 202 252 311 373
#     4  11  22  38  63  90 121 166 208 259 308 371
#     4  10  23  45  66  90 124 164 212 264 313 366
#     4  10  21  38  62  89 121 161 206 253 311 365
#     4  10  20  35  56  89 120 163 205 252 304 372
#     4  10  20  38  61  89 130 167 203 256 313 376
#
# _framework density 23.489163000000001
#
# number of rings (size 3 to 8) (size 9 to 14) (size 15 to 20)
#    0.000    1.833    3.333    1.500    0.000    6.000 
#    6.000    0.833    0.000    6.000    0.000    0.000 
#    0.000    0.000    0.000    0.000    0.000    0.000 
#
# Total GULP energy -267851.274584 kJ/mol
# GULP energy per Si atom -5580.234887 kJ/mol
# Density = 2.343570 g / cm^3
# Si number density = 23.489163 Si / 1000 Ang^3
#
#
#
# Elastic Constant Matrix: (Units=GPa)
#
#
# Indices 1 2 3 4 5 6 
#
# 1 86.2820 -0.6904 17.2630 0.0000 0.0000 0.0000
# 2 -0.6904 73.6540 -1.4228 0.0000 0.0000 0.0000
# 3 17.2630 -1.4228 65.9116 0.0000 0.0000 0.0000
# 4 0.0000 0.0000 0.0000 31.2266 0.0000 0.0000
# 5 0.0000 0.0000 0.0000 0.0000 22.9520 0.0000
# 6 0.0000 0.0000 0.0000 0.0000 0.0000 28.9064
#
#
#
# Elastic Compliance Matrix: (Units=1/GPa)
#
#
# Indices 1 2 3 4 5 6 
#
# 1 0.012231 0.000053 -0.003202 0.000000 0.000000 0.000000
# 2 0.000053 0.013583 0.000279 0.000000 0.000000 0.000000
# 3 -0.003202 0.000279 0.016017 0.000000 0.000000 0.000000
# 4 0.000000 0.000000 0.000000 0.032024 0.000000 0.000000
# 5 0.000000 0.000000 0.000000 0.000000 0.043569 0.000000
# 6 0.000000 0.000000 0.000000 0.000000 0.000000 0.034594
#
#
# Mechanical properties :
#
#
# Convention : Reuss Voigt Hill
#
# Bulk Modulus (GPa) = 27.70831 28.46078 28.08455
# Shear Modulus (GPa) = 29.44842 30.66353 30.05598
#
# Velocity S-wave (km/s) = 3.54461 3.61700 3.58099
# Velocity P-wave (km/s) = 5.34548 5.43934 5.39261
#
# Compressibility (1/GPa) = 0.03609025
#
# Stress axis : x y z
#
# Youngs Moduli (GPa) = 81.75922 73.62203 62.43528
#
# Poissons Ratio (x) = -0.00389 0.19994
# Poissons Ratio (y) = -0.00432 -0.01744
# Poissons Ratio (z) = 0.26182 -0.02057
#
# Static dielectric constant tensor:
#      x y z
#    x 1.903920 0.000000 0.000000 
#    y 0.000000 2.101790 0.000000 
#    z 0.000000 0.000000 1.845620 
# 
# From -- ./inp_files/31205.got.cif
#   From: 2010.05.17/outbox.cif.g08.bks.cpg/sg66_16_cif.got.tgz:31205.got - 2010.06.03 17:51:23.
