data_PCOD9497805
_publ_section_title
;
Structure prediction by ZEFSAII (Michael W. Deem and Ramdas Pophale) SiO2 
 PCOD9497805
Probable space group: C C C M
;
_chemical_formula_sum "Si O2"
_cell_formula_units_Z 112
_cell_length_a 11.038117
_cell_length_b 22.003663
_cell_length_c 22.732398
_cell_angle_alpha 90.000000
_cell_angle_beta 90.000000
_cell_angle_gamma 90.000000
_cell_volume 5521.222244
_symmetry_space_group_name_H-M "C C C M"
_symmetry_group_IT_number 66
_symmetry_cell_setting 'orthorhombic'
loop_
_space_group_symop_operation_xyz
x,y,z
-x,-y,z
x,-y,1/2-z
-x,y,1/2-z
-x,-y,-z
x,y,-z
-x,y,1/2+z
x,-y,1/2+z
1/2+x,1/2+y,z
1/2-x,1/2-y,z
1/2+x,1/2-y,1/2-z
1/2-x,1/2+y,1/2-z
1/2-x,1/2-y,-z
1/2+x,1/2+y,-z
1/2-x,1/2+y,1/2+z
1/2+x,1/2-y,1/2+z
loop_
_atom_site_type_symbol
_atom_site_label
_atom_site_fract_x
_atom_site_fract_y
_atom_site_fract_z
Si Si1 0.933738 0.624846 0.069869
Si Si2 0.373329 0.534629 0.567912
Si Si3 0.640785 0.700943 0.740916
Si Si4 0.062574 0.766213 0.564361
Si Si5 0.680074 0.313970 0.105193
Si Si6 0.322342 0.934380 0.929971
Si Si7 0.191373 0.142286 0.141444
O O1 0.973163 0.695845 0.072389
O O2 0.821692 0.624951 0.114502
O O3 0.038999 0.578241 0.088982
O O4 0.905022 0.613668 0.000000
O O5 0.500000 0.500000 0.566948
O O6 0.349692 0.554427 0.500000
O O7 0.262380 0.490822 0.588212
O O8 0.388617 0.590230 0.611970
O O9 0.500000 0.722413 0.750000
O O10 0.750000 0.750000 0.747807
O O11 0.647772 0.679027 0.673900
O O12 0.672077 0.650093 0.789514
O O13 0.118923 0.773330 0.500000
O O14 0.149624 0.793705 0.613384
O O15 0.941377 0.805313 0.568501
O O16 0.750000 0.250000 0.099203
O O17 0.754173 0.371879 0.084709
O O18 0.329759 0.940321 0.000000
#
# Coordination Sequence:
#
# PCOD9497805 Si02
#       7
#    16  16  16  16  16  16  16
#     4  10  21  35  58  94 128 160 200 258 328 394
#     4  10  22  40  63  91 125 168 214 266 320 385
#     4  11  25  42  65  92 128 171 219 266 323 385
#     4  11  20  32  56  88 123 156 197 256 322 385
#     4  11  21  36  60  88 122 158 209 257 316 374
#     4  10  21  38  61  93 130 166 209 260 323 388
#     4  12  23  39  60  85 125 169 216 256 321 386
#
# _framework density 20.285364000000001
#
# number of rings (size 3 to 8) (size 9 to 14) (size 15 to 20)
#    0.000    1.286    2.857    3.857    0.000    3.429 
#    0.000    2.857    0.000    0.000    0.000    2.000 
#    0.000    0.000    0.000    0.000    0.000    0.000 
#
# Total GULP energy -312550.288300 kJ/mol
# GULP energy per Si atom -5581.255148 kJ/mol
# Density = 2.023919 g / cm^3
# Si number density = 20.285364 Si / 1000 Ang^3
#
#
#
# Elastic Constant Matrix: (Units=GPa)
#
#
# Indices 1 2 3 4 5 6 
#
# 1 119.0225 16.6804 24.1286 0.0000 0.0000 0.0000
# 2 16.6804 70.1374 26.0276 0.0000 0.0000 0.0000
# 3 24.1286 26.0276 32.7886 0.0000 0.0000 0.0000
# 4 0.0000 0.0000 0.0000 23.2436 0.0000 0.0000
# 5 0.0000 0.0000 0.0000 0.0000 26.6387 0.0000
# 6 0.0000 0.0000 0.0000 0.0000 0.0000 10.8056
#
#
#
# Elastic Compliance Matrix: (Units=1/GPa)
#
#
# Indices 1 2 3 4 5 6 
#
# 1 0.009887 0.000494 -0.007668 0.000000 0.000000 0.000000
# 2 0.000494 0.020236 -0.016427 0.000000 0.000000 0.000000
# 3 -0.007668 -0.016427 0.049181 0.000000 0.000000 0.000000
# 4 0.000000 0.000000 0.000000 0.043023 0.000000 0.000000
# 5 0.000000 0.000000 0.000000 0.000000 0.037539 0.000000
# 6 0.000000 0.000000 0.000000 0.000000 0.000000 0.092545
#
#
# Mechanical properties :
#
#
# Convention : Reuss Voigt Hill
#
# Bulk Modulus (GPa) = 31.15035 39.51350 35.33192
# Shear Modulus (GPa) = 16.11274 22.47838 19.29556
#
# Velocity S-wave (km/s) = 2.82140 3.33244 3.08751
# Velocity P-wave (km/s) = 5.09932 5.85901 5.49232
#
# Compressibility (1/GPa) = 0.03210237
#
# Stress axis : x y z
#
# Youngs Moduli (GPa) = 101.14310 49.41634 20.33304
#
# Poissons Ratio (x) = -0.02442 0.15591
# Poissons Ratio (y) = -0.04998 0.33401
# Poissons Ratio (z) = 0.77556 0.81177
#
# Static dielectric constant tensor:
#      x y z
#    x 1.795550 0.000000 0.000000 
#    y 0.000000 1.727720 0.000000 
#    z 0.000000 0.000000 1.673910 
# 
# From -- ./inp_files/57168.got.cif
#   From: 2010.05.17/outbox.cif.g08.bks.cpg/sg66_29_cif.got.tgz:57168.got - 2010.06.03 17:51:23.
