data_PCOD9497294
_publ_section_title
;
Structure prediction by ZEFSAII (Michael W. Deem and Ramdas Pophale) SiO2 
 PCOD9497294
Probable space group: C C C M
;
_chemical_formula_sum "Si O2"
_cell_formula_units_Z 96
_cell_length_a 28.477971
_cell_length_b 9.683249
_cell_length_c 19.806948
_cell_angle_alpha 90.000000
_cell_angle_beta 90.000000
_cell_angle_gamma 90.000000
_cell_volume 5461.949803
_symmetry_space_group_name_H-M "C C C M"
_symmetry_group_IT_number 66
_symmetry_cell_setting 'orthorhombic'
loop_
_space_group_symop_operation_xyz
x,y,z
-x,-y,z
x,-y,1/2-z
-x,y,1/2-z
-x,-y,-z
x,y,-z
-x,y,1/2+z
x,-y,1/2+z
1/2+x,1/2+y,z
1/2-x,1/2-y,z
1/2+x,1/2-y,1/2-z
1/2-x,1/2+y,1/2-z
1/2-x,1/2-y,-z
1/2+x,1/2+y,-z
1/2-x,1/2+y,1/2+z
1/2+x,1/2-y,1/2+z
loop_
_atom_site_type_symbol
_atom_site_label
_atom_site_fract_x
_atom_site_fract_y
_atom_site_fract_z
Si Si1 0.232000 0.905724 0.181881
Si Si2 0.372539 0.466875 0.671070
Si Si3 0.976310 0.861307 0.675528
Si Si4 0.281058 0.111926 0.920075
Si Si5 0.877526 0.758778 0.920723
Si Si6 0.481510 0.845279 0.574417
O O1 0.250000 0.750000 0.194240
O O2 0.177966 0.899933 0.155674
O O3 0.233946 0.000000 0.250000
O O4 0.262229 0.988522 0.126140
O O5 0.369497 0.500000 0.750000
O O6 0.420544 0.379798 0.668814
O O7 0.377752 0.605300 0.626067
O O8 0.000000 0.849649 0.750000
O O9 0.992011 0.733743 0.632356
O O10 0.000000 0.000000 0.646324
O O11 0.250000 0.250000 0.908658
O O12 0.333860 0.160161 0.903562
O O13 0.278154 0.078013 0.000000
O O14 0.926088 0.675864 0.914108
O O15 0.872023 0.799038 0.000000
O O16 0.491484 0.784605 0.500000
O O17 0.500000 0.000000 0.573959
#
# Coordination Sequence:
#
# PCOD9497294 Si02
#       6
#    16  16  16  16  16  16
#     4  11  25  40  59  88 121 154 196 250 301 354
#     4  11  21  36  60  84 117 152 195 245 290 352
#     4  11  20  37  59  86 114 151 197 242 289 344
#     4  10  20  38  63  87 116 156 200 244 296 359
#     4  10  20  36  62  89 116 157 198 237 297 362
#     4  10  22  38  57  86 122 154 192 244 296 347
#
# _framework density 17.576139999999999
#
# number of rings (size 3 to 8) (size 9 to 14) (size 15 to 20)
#    0.000    1.500    5.000    0.500    2.333    3.000 
#    0.000    0.000    0.000    0.000    0.000    0.000 
#    0.000    0.000    0.000    0.000    0.000    0.000 
#
# Total GULP energy -267581.117022 kJ/mol
# GULP energy per Si atom -5574.606605 kJ/mol
# Density = 1.753614 g / cm^3
# Si number density = 17.576140 Si / 1000 Ang^3
#
#
#
# Elastic Constant Matrix: (Units=GPa)
#
#
# Indices 1 2 3 4 5 6 
#
# 1 160.2765 63.8129 58.5378 0.0000 0.0000 0.0000
# 2 63.8129 98.8501 59.0703 0.0000 0.0000 0.0000
# 3 58.5378 59.0703 80.8978 0.0000 0.0000 0.0000
# 4 0.0000 0.0000 0.0000 33.0889 0.0000 0.0000
# 5 0.0000 0.0000 0.0000 0.0000 28.9138 0.0000
# 6 0.0000 0.0000 0.0000 0.0000 0.0000 14.7891
#
#
#
# Elastic Compliance Matrix: (Units=1/GPa)
#
#
# Indices 1 2 3 4 5 6 
#
# 1 0.009095 -0.003439 -0.004070 0.000000 0.000000 0.000000
# 2 -0.003439 0.019248 -0.011566 0.000000 0.000000 0.000000
# 3 -0.004070 -0.011566 0.023752 0.000000 0.000000 0.000000
# 4 0.000000 0.000000 0.000000 0.030222 0.000000 0.000000
# 5 0.000000 0.000000 0.000000 0.000000 0.034586 0.000000
# 6 0.000000 0.000000 0.000000 0.000000 0.000000 0.067617
#
#
# Mechanical properties :
#
#
# Convention : Reuss Voigt Hill
#
# Bulk Modulus (GPa) = 71.71343 78.09627 74.90485
# Shear Modulus (GPa) = 21.99568 25.93193 23.96381
#
# Velocity S-wave (km/s) = 3.54142 3.84527 3.69647
# Velocity P-wave (km/s) = 7.59028 8.01526 7.80566
#
# Compressibility (1/GPa) = 0.01394439
#
# Stress axis : x y z
#
# Youngs Moduli (GPa) = 109.95108 51.95323 42.10246
#
# Poissons Ratio (x) = 0.17868 0.17135
# Poissons Ratio (y) = 0.37815 0.48696
# Poissons Ratio (z) = 0.44749 0.60089
#
# Static dielectric constant tensor:
#      x y z
#    x 1.656140 0.000000 0.000000 
#    y 0.000000 1.541940 0.000000 
#    z 0.000000 0.000000 1.610060 
# 
# From -- ./inp_files/47351.got.cif
#   From: 2010.05.17/outbox.cif.g08.bks.cpg/sg66_24_cif.got.tgz:47351.got - 2010.06.03 17:51:23.
