data_PCOD9497240
_publ_section_title
;
Structure prediction by ZEFSAII (Michael W. Deem and Ramdas Pophale) SiO2 
 PCOD9497240
Probable space group: C C C M
;
_chemical_formula_sum "Si O2"
_cell_formula_units_Z 116
_cell_length_a 27.633660
_cell_length_b 21.911749
_cell_length_c 9.784316
_cell_angle_alpha 90.000000
_cell_angle_beta 90.000000
_cell_angle_gamma 90.000000
_cell_volume 5924.421164
_symmetry_space_group_name_H-M "C C C M"
_symmetry_group_IT_number 66
_symmetry_cell_setting 'orthorhombic'
loop_
_space_group_symop_operation_xyz
x,y,z
-x,-y,z
x,-y,1/2-z
-x,y,1/2-z
-x,-y,-z
x,y,-z
-x,y,1/2+z
x,-y,1/2+z
1/2+x,1/2+y,z
1/2-x,1/2-y,z
1/2+x,1/2-y,1/2-z
1/2-x,1/2+y,1/2-z
1/2-x,1/2-y,-z
1/2+x,1/2+y,-z
1/2-x,1/2+y,1/2+z
1/2+x,1/2-y,1/2+z
loop_
_atom_site_type_symbol
_atom_site_label
_atom_site_fract_x
_atom_site_fract_y
_atom_site_fract_z
Si Si1 0.306239 0.262858 0.841270
Si Si2 0.958170 0.799335 0.347768
Si Si3 0.000000 0.000000 0.750000
Si Si4 0.229277 0.555287 0.837923
Si Si5 0.454193 0.843679 0.838950
Si Si6 0.090726 0.923538 0.152080
Si Si7 0.849937 0.660300 0.340455
Si Si8 0.822221 0.092155 0.338997
O O1 0.250000 0.250000 0.805620
O O2 0.338160 0.219292 0.748228
O O3 0.319292 0.334028 0.829404
O O4 0.312349 0.245375 0.000000
O O5 0.978502 0.798304 0.500000
O O6 0.946597 0.729355 0.314644
O O7 0.917320 0.850252 0.344716
O O8 0.000000 0.821091 0.250000
O O9 0.961293 0.043172 0.829297
O O10 0.207242 0.500000 0.750000
O O11 0.193859 0.613051 0.827178
O O12 0.279162 0.569293 0.758717
O O13 0.235953 0.542029 0.000000
O O14 0.500000 0.863306 0.750000
O O15 0.401519 0.869885 0.803222
O O16 0.463946 0.852843 0.000000
O O17 0.127976 0.933514 0.275673
O O18 0.109544 0.939269 0.000000
O O19 0.854236 0.678214 0.500000
O O20 0.816497 0.076563 0.500000
#
# Coordination Sequence:
#
# PCOD9497240 Si02
#       8
#    16  16   4  16  16  16  16  16
#     4  10  20  36  59  91 128 160 195 245 305 367
#     4   9  17  32  53  76 107 145 183 231 287 348
#     4  12  26  44  64  82 110 156 216 278 326 364
#     4  11  24  42  63  87 117 157 202 247 296 353
#     4   9  18  33  55  86 119 148 186 231 285 350
#     4  11  24  41  60  81 109 150 202 258 315 365
#     4  10  21  37  61  90 122 160 200 244 295 357
#     4  11  24  41  63  89 120 158 200 251 309 371
#
# _framework density 19.579972000000001
#
# number of rings (size 3 to 8) (size 9 to 14) (size 15 to 20)
#    0.000    1.793    2.069    1.862    0.966    5.241 
#    0.000    2.759    0.000    0.414    0.000    2.897 
#    0.000    0.000    0.000    0.000    0.000    0.000 
#
# Total GULP energy -323508.097717 kJ/mol
# GULP energy per Si atom -5577.725823 kJ/mol
# Density = 1.953541 g / cm^3
# Si number density = 19.579972 Si / 1000 Ang^3
#
#
#
# Elastic Constant Matrix: (Units=GPa)
#
#
# Indices 1 2 3 4 5 6 
#
# 1 120.3984 13.2525 65.2395 0.0000 0.0000 0.0000
# 2 13.2525 40.8428 25.7709 0.0000 0.0000 0.0000
# 3 65.2395 25.7709 106.2548 0.0000 0.0000 0.0000
# 4 0.0000 0.0000 0.0000 16.0413 0.0000 0.0000
# 5 0.0000 0.0000 0.0000 0.0000 30.5526 0.0000
# 6 0.0000 0.0000 0.0000 0.0000 0.0000 12.9443
#
#
#
# Elastic Compliance Matrix: (Units=1/GPa)
#
#
# Indices 1 2 3 4 5 6 
#
# 1 0.012476 0.000927 -0.007885 0.000000 0.000000 0.000000
# 2 0.000927 0.028977 -0.007597 0.000000 0.000000 0.000000
# 3 -0.007885 -0.007597 0.016096 0.000000 0.000000 0.000000
# 4 0.000000 0.000000 0.000000 0.062339 0.000000 0.000000
# 5 0.000000 0.000000 0.000000 0.000000 0.032730 0.000000
# 6 0.000000 0.000000 0.000000 0.000000 0.000000 0.077254
#
#
# Mechanical properties :
#
#
# Convention : Reuss Voigt Hill
#
# Bulk Modulus (GPa) = 35.16414 52.89131 44.02773
# Shear Modulus (GPa) = 18.62454 22.78984 20.70719
#
# Velocity S-wave (km/s) = 3.08750 3.41535 3.25556
# Velocity P-wave (km/s) = 5.54152 6.52874 6.05528
#
# Compressibility (1/GPa) = 0.02843806
#
# Stress axis : x y z
#
# Youngs Moduli (GPa) = 80.15087 34.51006 62.12913
#
# Poissons Ratio (x) = -0.03200 0.48991
# Poissons Ratio (y) = -0.07431 0.47202
# Poissons Ratio (z) = 0.63202 0.26218
#
# Static dielectric constant tensor:
#      x y z
#    x 1.705240 0.000000 0.000000 
#    y 0.000000 1.711740 0.000000 
#    z 0.000000 0.000000 1.668500 
# 
# From -- ./inp_files/10601.got.cif
#   From: 2010.05.17/outbox.cif.g08.bks.cpg/sg66_6_cif.got.tgz:10601.got - 2010.06.03 17:51:23.
