data_PCOD9497215
_publ_section_title
;
Structure prediction by ZEFSAII (Michael W. Deem and Ramdas Pophale) SiO2 
 PCOD9497215
Probable space group: C C C M
;
_chemical_formula_sum "Si O2"
_cell_formula_units_Z 88
_cell_length_a 13.742601
_cell_length_b 14.207786
_cell_length_c 25.828111
_cell_angle_alpha 90.000000
_cell_angle_beta 90.000000
_cell_angle_gamma 90.000000
_cell_volume 5042.988627
_symmetry_space_group_name_H-M "C C C M"
_symmetry_group_IT_number 66
_symmetry_cell_setting 'orthorhombic'
loop_
_space_group_symop_operation_xyz
x,y,z
-x,-y,z
x,-y,1/2-z
-x,y,1/2-z
-x,-y,-z
x,y,-z
-x,y,1/2+z
x,-y,1/2+z
1/2+x,1/2+y,z
1/2-x,1/2-y,z
1/2+x,1/2-y,1/2-z
1/2-x,1/2+y,1/2-z
1/2-x,1/2-y,-z
1/2+x,1/2+y,-z
1/2-x,1/2+y,1/2+z
1/2+x,1/2-y,1/2+z
loop_
_atom_site_type_symbol
_atom_site_label
_atom_site_fract_x
_atom_site_fract_y
_atom_site_fract_z
Si Si1 0.962865 0.175630 0.561379
Si Si2 0.111995 0.607739 0.265582
Si Si3 0.335702 0.821705 0.623330
Si Si4 0.291663 0.465793 0.061398
Si Si5 0.250000 0.250000 0.296721
Si Si6 0.180997 0.166976 0.398072
O O1 0.955119 0.194061 0.500000
O O2 0.915661 0.259405 0.594358
O O3 0.897101 0.082636 0.571444
O O4 0.074170 0.166781 0.577811
O O5 0.134657 0.500000 0.250000
O O6 0.124779 0.624492 0.326740
O O7 0.183725 0.679914 0.236426
O O8 0.000000 0.625953 0.250000
O O9 0.250000 0.750000 0.640306
O O10 0.286723 0.892193 0.582559
O O11 0.278168 0.564101 0.090227
O O12 0.283302 0.479829 0.000000
O O13 0.183010 0.190276 0.336844
O O14 0.250000 0.250000 0.420461
#
# Coordination Sequence:
#
# PCOD9497215 Si02
#       6
#    16  16  16  16   8  16
#     4  10  20  36  59  85 114 147 186 227 276 332
#     4  11  22  38  62  80 107 147 191 232 284 334
#     4  10  20  37  60  86 107 142 187 242 278 323
#     4  10  20  36  59  85 114 147 186 227 276 332
#     4  10  22  40  57  86 111 148 188 238 276 328
#     4  10  22  36  55  80 121 151 185 220 273 335
#
# _framework density 17.44997
#
# number of rings (size 3 to 8) (size 9 to 14) (size 15 to 20)
#    0.545    1.273    0.909    3.818    0.000    5.091 
#    0.000    0.000    0.000    2.182    0.000    0.000 
#    0.000    0.000    0.000    0.000    0.000    0.000 
#
# Total GULP energy -245411.558630 kJ/mol
# GULP energy per Si atom -5577.535423 kJ/mol
# Density = 1.741025 g / cm^3
# Si number density = 17.449970 Si / 1000 Ang^3
#
#
#
# Elastic Constant Matrix: (Units=GPa)
#
#
# Indices 1 2 3 4 5 6 
#
# 1 37.1019 22.7018 2.3906 0.0000 0.0000 0.0000
# 2 22.7018 113.4521 24.7449 0.0000 0.0000 0.0000
# 3 2.3906 24.7449 63.9355 0.0000 0.0000 0.0000
# 4 0.0000 0.0000 0.0000 -44.6018 0.0000 0.0000
# 5 0.0000 0.0000 0.0000 0.0000 48.3851 0.0000
# 6 0.0000 0.0000 0.0000 0.0000 0.0000 21.9521
#
#
#
# Elastic Compliance Matrix: (Units=1/GPa)
#
#
# Indices 1 2 3 4 5 6 
#
# 1 0.030819 -0.006461 0.001348 0.000000 0.000000 0.000000
# 2 -0.006461 0.010981 -0.004009 0.000000 0.000000 0.000000
# 3 0.001348 -0.004009 0.017142 0.000000 0.000000 0.000000
# 4 0.000000 0.000000 0.000000 -0.022421 0.000000 0.000000
# 5 0.000000 0.000000 0.000000 0.000000 0.020668 0.000000
# 6 0.000000 0.000000 0.000000 0.000000 0.000000 0.045554
#
#
# Mechanical properties :
#
#
# Convention : Reuss Voigt Hill
#
# Bulk Modulus (GPa) = 24.57013 34.90714 29.73864
# Shear Modulus (GPa) = 37.16023 16.12388 26.64206
#
# Velocity S-wave (km/s) = 4.61969 3.04304 3.91163
# Velocity P-wave (km/s) = 6.52428 5.69161 6.12212
#
# Compressibility (1/GPa) = 0.04069982
#
# Stress axis : x y z
#
# Youngs Moduli (GPa) = 32.44722 91.06262 58.33698
#
# Poissons Ratio (x) = 0.58836 -0.07865
# Poissons Ratio (y) = 0.20964 0.23385
# Poissons Ratio (z) = -0.04375 0.36503
#
# Static dielectric constant tensor:
#      x y z
#    x 1.574140 0.000000 0.000000 
#    y 0.000000 1.578260 0.000000 
#    z 0.000000 0.000000 1.572290 
# 
# From -- ./inp_files/64550.got.cif
#   From: 2010.05.17/outbox.cif.g08.bks.cpg/sg66_33_cif.got.tgz:64550.got - 2010.06.03 17:51:23.
