data_PCOD9497015
_publ_section_title
;
Structure prediction by ZEFSAII (Michael W. Deem and Ramdas Pophale) SiO2 
 PCOD9497015
Probable space group: C C C M
;
_chemical_formula_sum "Si O2"
_cell_formula_units_Z 104
_cell_length_a 28.861235
_cell_length_b 19.323569
_cell_length_c 9.214622
_cell_angle_alpha 90.000000
_cell_angle_beta 90.000000
_cell_angle_gamma 90.000000
_cell_volume 5139.013726
_symmetry_space_group_name_H-M "C C C M"
_symmetry_group_IT_number 66
_symmetry_cell_setting 'orthorhombic'
loop_
_space_group_symop_operation_xyz
x,y,z
-x,-y,z
x,-y,1/2-z
-x,y,1/2-z
-x,-y,-z
x,y,-z
-x,y,1/2+z
x,-y,1/2+z
1/2+x,1/2+y,z
1/2-x,1/2-y,z
1/2+x,1/2-y,1/2-z
1/2-x,1/2+y,1/2-z
1/2-x,1/2-y,-z
1/2+x,1/2+y,-z
1/2-x,1/2+y,1/2+z
1/2+x,1/2-y,1/2+z
loop_
_atom_site_type_symbol
_atom_site_label
_atom_site_fract_x
_atom_site_fract_y
_atom_site_fract_z
Si Si1 0.146082 0.338297 0.675765
Si Si2 0.572340 0.931947 0.835646
Si Si3 0.578939 0.280294 0.166663
Si Si4 0.000000 0.322450 0.750000
Si Si5 0.256924 0.168024 0.832963
Si Si6 0.078809 0.930700 0.832373
Si Si7 0.309105 0.430455 0.331870
O O1 0.145833 0.340542 0.500000
O O2 0.113562 0.397428 0.743320
O O3 0.122100 0.265114 0.723999
O O4 0.196782 0.346273 0.741515
O O5 0.532067 0.874405 0.840323
O O6 0.556815 0.000000 0.750000
O O7 0.586394 0.948758 0.000000
O O8 0.535706 0.228226 0.170145
O O9 0.566307 0.355035 0.232513
O O10 0.591071 0.296389 0.000000
O O11 0.250000 0.250000 0.834624
O O12 0.213858 0.132266 0.753791
O O13 0.261231 0.143923 0.000000
O O14 0.135078 0.928963 0.828326
O O15 0.063509 0.000000 0.750000
O O16 0.063510 0.936136 0.000000
O O17 0.293887 0.500000 0.250000
O O18 0.294837 0.430240 0.500000
#
# Coordination Sequence:
#
# PCOD9497015 Si02
#       7
#    16  16  16   8  16  16  16
#     4  10  21  38  59  82 110 147 191 235 283 337
#     4  11  23  39  60  86 116 149 188 234 284 338
#     4   9  18  35  57  80 108 142 180 223 272 327
#     4  10  21  36  59  86 114 146 184 228 275 330
#     4  11  23  37  55  83 118 152 189 235 283 334
#     4   9  18  34  56  81 109 142 181 224 270 323
#     4  10  20  35  56  81 109 145 189 234 281 332
#
# _framework density 20.237345999999999
#
# number of rings (size 3 to 8) (size 9 to 14) (size 15 to 20)
#    0.000    2.000    0.000    3.462    0.000    6.154 
#    0.000    8.077    0.000    1.846    0.000    0.000 
#    0.000    0.000    0.000    0.000    0.000    0.000 
#
# Total GULP energy -290123.913886 kJ/mol
# GULP energy per Si atom -5579.306036 kJ/mol
# Density = 2.019129 g / cm^3
# Si number density = 20.237346 Si / 1000 Ang^3
#
#
#
# Elastic Constant Matrix: (Units=GPa)
#
#
# Indices 1 2 3 4 5 6 
#
# 1 37.4960 1.4303 17.2462 0.0000 0.0000 0.0000
# 2 1.4303 132.1896 45.2221 0.0000 0.0000 0.0000
# 3 17.2462 45.2221 116.4591 0.0000 0.0000 0.0000
# 4 0.0000 0.0000 0.0000 27.8162 0.0000 0.0000
# 5 0.0000 0.0000 0.0000 0.0000 -6.7915 0.0000
# 6 0.0000 0.0000 0.0000 0.0000 0.0000 23.0348
#
#
#
# Elastic Compliance Matrix: (Units=1/GPa)
#
#
# Indices 1 2 3 4 5 6 
#
# 1 0.028818 0.001324 -0.004782 0.000000 0.000000 0.000000
# 2 0.001324 0.008785 -0.003607 0.000000 0.000000 0.000000
# 3 -0.004782 -0.003607 0.010696 0.000000 0.000000 0.000000
# 4 0.000000 0.000000 0.000000 0.035950 0.000000 0.000000
# 5 0.000000 0.000000 0.000000 0.000000 -0.147244 0.000000
# 6 0.000000 0.000000 0.000000 0.000000 0.000000 0.043413
#
#
# Mechanical properties :
#
#
# Convention : Reuss Voigt Hill
#
# Bulk Modulus (GPa) = 29.26666 45.99354 37.63010
# Shear Modulus (GPa) = 842.18109 23.62832 432.90471
#
# Velocity S-wave (km/s) = 20.42193 3.42066 14.64166
# Velocity P-wave (km/s) = 23.88654 6.19497 17.44913
#
# Compressibility (1/GPa) = 0.03416857
#
# Stress axis : x y z
#
# Youngs Moduli (GPa) = 34.70011 113.83569 93.49692
#
# Poissons Ratio (x) = -0.15072 0.44708
# Poissons Ratio (y) = -0.04594 0.33726
# Poissons Ratio (z) = 0.16593 0.41063
#
# Static dielectric constant tensor:
#      x y z
#    x 1.709930 0.000000 0.000000 
#    y 0.000000 1.750410 0.000000 
#    z 0.000000 0.000000 1.700660 
# 
# From -- ./inp_files/11578.got.cif
#   From: 2010.05.17/outbox.cif.g08.bks.cpg/sg66_6_cif.got.tgz:11578.got - 2010.06.03 17:51:23.
