data_PCOD9497798
_publ_section_title
;
Structure prediction by ZEFSAII (Michael W. Deem and Ramdas Pophale) SiO2 
 PCOD9497798
Probable space group: C C C M
;
_chemical_formula_sum "Si O2"
_cell_formula_units_Z 112
_cell_length_a 24.835486
_cell_length_b 16.058420
_cell_length_c 14.639381
_cell_angle_alpha 90.000000
_cell_angle_beta 90.000000
_cell_angle_gamma 90.000000
_cell_volume 5838.458388
_symmetry_space_group_name_H-M "C C C M"
_symmetry_group_IT_number 66
_symmetry_cell_setting 'orthorhombic'
loop_
_space_group_symop_operation_xyz
x,y,z
-x,-y,z
x,-y,1/2-z
-x,y,1/2-z
-x,-y,-z
x,y,-z
-x,y,1/2+z
x,-y,1/2+z
1/2+x,1/2+y,z
1/2-x,1/2-y,z
1/2+x,1/2-y,1/2-z
1/2-x,1/2+y,1/2-z
1/2-x,1/2-y,-z
1/2+x,1/2+y,-z
1/2-x,1/2+y,1/2+z
1/2+x,1/2-y,1/2+z
loop_
_atom_site_type_symbol
_atom_site_label
_atom_site_fract_x
_atom_site_fract_y
_atom_site_fract_z
Si Si1 0.957207 0.856055 0.394401
Si Si2 0.383257 0.756850 0.777894
Si Si3 0.921231 0.176593 0.395631
Si Si4 0.372210 0.500522 0.358667
Si Si5 0.726800 0.331203 0.755607
Si Si6 0.256311 0.468471 0.898030
Si Si7 0.315310 0.121600 0.392591
O O1 0.955242 0.832738 0.500000
O O2 0.930387 0.783935 0.335860
O O3 0.020026 0.860332 0.368715
O O4 0.920985 0.939306 0.385505
O O5 0.402336 0.749130 0.672992
O O6 0.333848 0.690826 0.780805
O O7 0.361847 0.840858 0.826651
O O8 0.922765 0.205411 0.500000
O O9 0.883449 0.095129 0.389895
O O10 0.370809 0.500000 0.250000
O O11 0.312406 0.478620 0.394203
O O12 0.750000 0.250000 0.704536
O O13 0.737018 0.407209 0.687528
O O14 0.762417 0.338628 0.846401
O O15 0.202847 0.524899 0.887757
O O16 0.254603 0.430346 0.000000
O O17 0.323473 0.142341 0.500000
#
# Coordination Sequence:
#
# PCOD9497798 Si02
#       7
#    16  16  16  16  16  16  16
#     4  11  22  34  52  79 111 151 201 248 295 350
#     4  11  21  36  55  77 110 153 195 243 291 346
#     4  11  23  37  53  77 113 155 200 245 295 359
#     4  12  21  33  54  79 113 158 199 241 290 357
#     4  10  21  35  56  84 114 156 195 242 296 355
#     4  11  21  36  57  83 120 161 201 242 291 354
#     4  10  22  37  56  81 110 148 198 250 294 342
#
# _framework density 19.183147000000002
#
# number of rings (size 3 to 8) (size 9 to 14) (size 15 to 20)
#    0.000    1.143    2.857    4.714    0.000    6.286 
#    0.000    2.143    0.000    0.857    0.000    0.000 
#    0.000   36.571    0.000  134.286    0.000    2.286 
#
# Total GULP energy -312163.020712 kJ/mol
# GULP energy per Si atom -5574.339656 kJ/mol
# Density = 1.913949 g / cm^3
# Si number density = 19.183147 Si / 1000 Ang^3
#
#
#
# Elastic Constant Matrix: (Units=GPa)
#
#
# Indices 1 2 3 4 5 6 
#
# 1 63.9558 26.6907 28.8637 0.0000 0.0000 0.0000
# 2 26.6907 52.6360 27.4845 0.0000 0.0000 0.0000
# 3 28.8637 27.4845 119.6416 0.0000 0.0000 0.0000
# 4 0.0000 0.0000 0.0000 15.9123 0.0000 0.0000
# 5 0.0000 0.0000 0.0000 0.0000 29.0986 0.0000
# 6 0.0000 0.0000 0.0000 0.0000 0.0000 29.3778
#
#
#
# Elastic Compliance Matrix: (Units=1/GPa)
#
#
# Indices 1 2 3 4 5 6 
#
# 1 0.020702 -0.008965 -0.002935 0.000000 0.000000 0.000000
# 2 -0.008965 0.025470 -0.003688 0.000000 0.000000 0.000000
# 3 -0.002935 -0.003688 0.009914 0.000000 0.000000 0.000000
# 4 0.000000 0.000000 0.000000 0.062844 0.000000 0.000000
# 5 0.000000 0.000000 0.000000 0.000000 0.034366 0.000000
# 6 0.000000 0.000000 0.000000 0.000000 0.000000 0.034039
#
#
# Mechanical properties :
#
#
# Convention : Reuss Voigt Hill
#
# Bulk Modulus (GPa) = 40.14562 44.70126 42.42344
# Shear Modulus (GPa) = 22.04445 25.09072 23.56758
#
# Velocity S-wave (km/s) = 3.39360 3.62049 3.50888
# Velocity P-wave (km/s) = 6.02730 6.38985 6.21122
#
# Compressibility (1/GPa) = 0.02490932
#
# Stress axis : x y z
#
# Youngs Moduli (GPa) = 48.30529 39.26145 100.87128
#
# Poissons Ratio (x) = 0.35198 0.29604
# Poissons Ratio (y) = 0.43306 0.37204
# Poissons Ratio (z) = 0.14177 0.14481
#
# Static dielectric constant tensor:
#      x y z
#    x 1.699180 0.000000 0.000000 
#    y 0.000000 1.735760 0.000000 
#    z 0.000000 0.000000 1.709260 
# 
# From -- ./inp_files/32516.got.cif
#   From: 2010.05.17/outbox.cif.g08.bks.cpg/sg66_17_cif.got.tgz:32516.got - 2010.06.03 17:51:23.
