data_PCOD9497784
_publ_section_title
;
Structure prediction by ZEFSAII (Michael W. Deem and Ramdas Pophale) SiO2 
 PCOD9497784
Probable space group: C C C M
;
_chemical_formula_sum "Si O2"
_cell_formula_units_Z 80
_cell_length_a 28.224860
_cell_length_b 4.962341
_cell_length_c 27.098661
_cell_angle_alpha 90.000000
_cell_angle_beta 90.000000
_cell_angle_gamma 90.000000
_cell_volume 3795.475856
_symmetry_space_group_name_H-M "C C C M"
_symmetry_group_IT_number 66
_symmetry_cell_setting 'orthorhombic'
loop_
_space_group_symop_operation_xyz
x,y,z
-x,-y,z
x,-y,1/2-z
-x,y,1/2-z
-x,-y,-z
x,y,-z
-x,y,1/2+z
x,-y,1/2+z
1/2+x,1/2+y,z
1/2-x,1/2-y,z
1/2+x,1/2-y,1/2-z
1/2-x,1/2+y,1/2-z
1/2-x,1/2-y,-z
1/2+x,1/2+y,-z
1/2-x,1/2+y,1/2+z
1/2+x,1/2-y,1/2+z
loop_
_atom_site_type_symbol
_atom_site_label
_atom_site_fract_x
_atom_site_fract_y
_atom_site_fract_z
Si Si1 0.554148 0.894333 0.696486
Si Si2 0.288527 0.946303 0.056513
Si Si3 0.397965 0.629978 0.345183
Si Si4 0.148325 0.057350 0.943745
Si Si5 0.301503 0.744998 0.286752
O O1 0.569258 0.586664 0.684799
O O2 0.500000 0.000000 0.695013
O O3 0.571829 0.000000 0.750000
O O4 0.580132 0.075296 0.656804
O O5 0.250000 0.750000 0.082451
O O6 0.332781 0.745750 0.055173
O O7 0.309116 0.234977 0.072091
O O8 0.271360 0.987477 0.000000
O O9 0.391093 0.559663 0.402019
O O10 0.346436 0.667962 0.319997
O O11 0.135447 0.134642 0.000000
O O12 0.295367 0.500000 0.250000
O O13 0.250000 0.750000 0.313598
O O14 0.309938 0.000000 0.250000
#
# Coordination Sequence:
#
# PCOD9497784 Si02
#       5
#    16  16  16  16  16
#     4  11  24  42  66  93 116 141 186 251 314 368
#     4   9  17  31  50  73 108 155 205 253 291 322
#     4  12  22  38  63  88 119 159 197 238 299 360
#     4  10  21  35  53  81 116 157 202 246 291 343
#     4  10  21  36  54  82 121 160 197 236 283 352
#
# _framework density 21.077724
#
# number of rings (size 3 to 8) (size 9 to 14) (size 15 to 20)
#    0.000    1.600    0.000    6.000    0.000    5.600 
#    0.000    2.000    0.000    3.600    0.000    0.000 
#    0.000    0.000    0.000    0.000    0.000    0.000 
#
# Total GULP energy -222852.982195 kJ/mol
# GULP energy per Si atom -5571.324555 kJ/mol
# Density = 2.102975 g / cm^3
# Si number density = 21.077724 Si / 1000 Ang^3
#
#
#
# Elastic Constant Matrix: (Units=GPa)
#
#
# Indices 1 2 3 4 5 6 
#
# 1 78.1348 2.1475 19.5007 0.0000 0.0000 0.0000
# 2 2.1475 121.5605 0.5603 0.0000 0.0000 0.0000
# 3 19.5007 0.5603 74.0609 0.0000 0.0000 0.0000
# 4 0.0000 0.0000 0.0000 20.0283 0.0000 0.0000
# 5 0.0000 0.0000 0.0000 0.0000 57.8972 0.0000
# 6 0.0000 0.0000 0.0000 0.0000 0.0000 36.1243
#
#
#
# Elastic Compliance Matrix: (Units=1/GPa)
#
#
# Indices 1 2 3 4 5 6 
#
# 1 0.013705 -0.000225 -0.003607 0.000000 0.000000 0.000000
# 2 -0.000225 0.008230 -0.000003 0.000000 0.000000 0.000000
# 3 -0.003607 -0.000003 0.014452 0.000000 0.000000 0.000000
# 4 0.000000 0.000000 0.000000 0.049929 0.000000 0.000000
# 5 0.000000 0.000000 0.000000 0.000000 0.017272 0.000000
# 6 0.000000 0.000000 0.000000 0.000000 0.000000 0.027682
#
#
# Mechanical properties :
#
#
# Convention : Reuss Voigt Hill
#
# Bulk Modulus (GPa) = 34.82283 35.35259 35.08771
# Shear Modulus (GPa) = 33.66694 39.57981 36.62337
#
# Velocity S-wave (km/s) = 4.00093 4.33806 4.17290
# Velocity P-wave (km/s) = 6.15632 6.47307 6.31668
#
# Compressibility (1/GPa) = 0.02871680
#
# Stress axis : x y z
#
# Youngs Moduli (GPa) = 72.96722 121.50145 69.19395
#
# Poissons Ratio (x) = 0.02740 0.24957
# Poissons Ratio (y) = 0.01645 0.00020
# Poissons Ratio (z) = 0.26318 0.00035
#
# Static dielectric constant tensor:
#      x y z
#    x 1.892950 0.000000 0.000000 
#    y 0.000000 1.737250 0.000000 
#    z 0.000000 0.000000 1.799740 
# 
# From -- ./inp_files/66230.got.cif
#   From: 2010.05.17/outbox.cif.g08.bks.cpg/sg66_34_cif.got.tgz:66230.got - 2010.06.03 17:51:23.
