data_PCOD9497337
_publ_section_title
;
Structure prediction by ZEFSAII (Michael W. Deem and Ramdas Pophale) SiO2 
 PCOD9497337
Probable space group: C C C M
;
_chemical_formula_sum "Si O2"
_cell_formula_units_Z 80
_cell_length_a 12.651854
_cell_length_b 10.641855
_cell_length_c 27.903102
_cell_angle_alpha 90.000000
_cell_angle_beta 90.000000
_cell_angle_gamma 90.000000
_cell_volume 3756.851212
_symmetry_space_group_name_H-M "C C C M"
_symmetry_group_IT_number 66
_symmetry_cell_setting 'orthorhombic'
loop_
_space_group_symop_operation_xyz
x,y,z
-x,-y,z
x,-y,1/2-z
-x,y,1/2-z
-x,-y,-z
x,y,-z
-x,y,1/2+z
x,-y,1/2+z
1/2+x,1/2+y,z
1/2-x,1/2-y,z
1/2+x,1/2-y,1/2-z
1/2-x,1/2+y,1/2-z
1/2-x,1/2-y,-z
1/2+x,1/2+y,-z
1/2-x,1/2+y,1/2+z
1/2+x,1/2-y,1/2+z
loop_
_atom_site_type_symbol
_atom_site_label
_atom_site_fract_x
_atom_site_fract_y
_atom_site_fract_z
Si Si1 0.205564 0.511909 0.397898
Si Si2 0.479206 0.731664 0.698661
Si Si3 0.359351 0.667741 0.000000
Si Si4 0.750000 0.750000 0.838511
Si Si5 0.263430 0.095106 0.000000
Si Si6 0.424610 0.620855 0.899979
Si Si7 0.500000 0.000000 0.833239
O O1 0.256727 0.632221 0.373102
O O2 0.179489 0.552941 0.451676
O O3 0.299265 0.410276 0.395229
O O4 0.101163 0.491515 0.367718
O O5 0.500000 0.669141 0.750000
O O6 0.354022 0.740319 0.692429
O O7 0.532261 0.677122 0.650095
O O8 0.511569 0.876648 0.698228
O O9 0.250000 0.750000 0.000000
O O10 0.423719 0.695034 0.049138
O O11 0.332725 0.513962 0.000000
O O12 0.250000 0.250000 0.000000
O O13 0.500000 0.500000 0.907721
#
# Coordination Sequence:
#
# PCOD9497337 Si02
#       7
#    16  16   8   8   8  16   8
#     4  10  21  40  63  97 134 173 224 278 331 406
#     4  11  25  44  69  97 132 177 230 285 352 403
#     4  10  25  41  67 104 144 179 228 290 344 401
#     4  10  20  43  62  92 130 167 224 274 330 422
#     4  10  20  36  69  96 136 182 235 267 339 415
#     4  11  23  43  70  98 134 179 227 276 343 409
#     4  10  25  41  64  92 134 177 220 286 351 406
#
# _framework density 21.294429000000001
#
# number of rings (size 3 to 8) (size 9 to 14) (size 15 to 20)
#    0.000    1.600    3.000    0.600    5.600    2.400 
#    0.000    6.000    0.000    0.000    0.000    0.000 
#    0.000    0.000    0.000    0.000    0.000    0.000 
#
# Total GULP energy -222782.376911 kJ/mol
# GULP energy per Si atom -5569.559423 kJ/mol
# Density = 2.124596 g / cm^3
# Si number density = 21.294429 Si / 1000 Ang^3
#
#
#
# Elastic Constant Matrix: (Units=GPa)
#
#
# Indices 1 2 3 4 5 6 
#
# 1 425.6607 5.8152 239.5055 0.0000 0.0000 0.0000
# 2 5.8152 60.8496 27.0000 0.0000 0.0000 0.0000
# 3 239.5055 27.0000 302.0974 0.0000 0.0000 0.0000
# 4 0.0000 0.0000 0.0000 23.6636 0.0000 0.0000
# 5 0.0000 0.0000 0.0000 0.0000 -62.6840 0.0000
# 6 0.0000 0.0000 0.0000 0.0000 0.0000 30.3485
#
#
#
# Elastic Compliance Matrix: (Units=1/GPa)
#
#
# Indices 1 2 3 4 5 6 
#
# 1 0.004317 0.001152 -0.003526 0.000000 0.000000 0.000000
# 2 0.001152 0.017420 -0.002470 0.000000 0.000000 0.000000
# 3 -0.003526 -0.002470 0.006326 0.000000 0.000000 0.000000
# 4 0.000000 0.000000 0.000000 0.042259 0.000000 0.000000
# 5 0.000000 0.000000 0.000000 0.000000 -0.015953 0.000000
# 6 0.000000 0.000000 0.000000 0.000000 0.000000 0.032951
#
#
# Mechanical properties :
#
#
# Convention : Reuss Voigt Hill
#
# Bulk Modulus (GPa) = 54.42045 148.13879 101.27962
# Shear Modulus (GPa) = 48.48085 32.68474 40.58280
#
# Velocity S-wave (km/s) = 4.77665 3.92203 4.37028
# Velocity P-wave (km/s) = 7.48555 9.49882 8.55164
#
# Compressibility (1/GPa) = 0.01837545
#
# Stress axis : x y z
#
# Youngs Moduli (GPa) = 231.61907 57.40551 158.07070
#
# Poissons Ratio (x) = -0.06612 0.55733
# Poissons Ratio (y) = -0.26680 0.39045
# Poissons Ratio (z) = 0.81665 0.14180
#
# Static dielectric constant tensor:
#      x y z
#    x 1.478990 0.000000 0.000000 
#    y 0.000000 1.839650 0.000000 
#    z 0.000000 0.000000 1.305730 
# 
# From -- ./inp_files/57972.got.cif
#   From: 2010.05.17/outbox.cif.g08.bks.cpg/sg66_29_cif.got.tgz:57972.got - 2010.06.03 17:51:23.
