data_PCOD9497880
_publ_section_title
;
Structure prediction by ZEFSAII (Michael W. Deem and Ramdas Pophale) SiO2 
 PCOD9497880
Probable space group: C C C M
;
_chemical_formula_sum "Si O2"
_cell_formula_units_Z 52
_cell_length_a 5.300320
_cell_length_b 32.771390
_cell_length_c 14.049593
_cell_angle_alpha 90.000000
_cell_angle_beta 90.000000
_cell_angle_gamma 90.000000
_cell_volume 2440.398201
_symmetry_space_group_name_H-M "C C C M"
_symmetry_group_IT_number 66
_symmetry_cell_setting 'orthorhombic'
loop_
_space_group_symop_operation_xyz
x,y,z
-x,-y,z
x,-y,1/2-z
-x,y,1/2-z
-x,-y,-z
x,y,-z
-x,y,1/2+z
x,-y,1/2+z
1/2+x,1/2+y,z
1/2-x,1/2-y,z
1/2+x,1/2-y,1/2-z
1/2-x,1/2+y,1/2-z
1/2-x,1/2-y,-z
1/2+x,1/2+y,-z
1/2-x,1/2+y,1/2+z
1/2+x,1/2-y,1/2+z
loop_
_atom_site_type_symbol
_atom_site_label
_atom_site_fract_x
_atom_site_fract_y
_atom_site_fract_z
Si Si1 0.248811 0.293967 0.314347
Si Si2 0.675276 0.883855 0.387721
Si Si3 0.680189 0.567756 0.116083
Si Si4 0.500000 0.500000 0.250000
O O1 0.500000 0.296638 0.250000
O O2 0.250000 0.250000 0.367454
O O3 0.219859 0.336303 0.368510
O O4 0.000000 0.291831 0.250000
O O5 0.660903 0.888617 0.500000
O O6 0.411406 0.903008 0.354077
O O7 0.919310 0.909494 0.358869
O O8 0.670856 0.526981 0.178546
O O9 0.688095 0.560613 0.000000
#
# Coordination Sequence:
#
# PCOD9497880 Si02
#       4
#    16  16  16   4
#     4  10  21  36  59  92 126 159 203 253 296 358
#     4  10  22  41  62  88 124 163 200 252 308 361
#     4  10  24  42  62  92 125 158 208 260 305 372
#     4  12  26  42  68  92 120 170 206 254 332 368
#
# _framework density 21.307998999999999
#
# number of rings (size 3 to 8) (size 9 to 14) (size 15 to 20)
#    0.000    1.846    0.000    2.308    6.462    3.077 
#    0.000    4.615    0.000   11.077    0.000    0.000 
#    0.000    0.000    0.000    0.000    0.000    0.000 
#
# Total GULP energy -145157.485866 kJ/mol
# GULP energy per Si atom -5582.980226 kJ/mol
# Density = 2.125950 g / cm^3
# Si number density = 21.307999 Si / 1000 Ang^3
#
#
#
# Elastic Constant Matrix: (Units=GPa)
#
#
# Indices 1 2 3 4 5 6 
#
# 1 170.2214 53.0848 20.4789 0.0000 0.0000 0.0000
# 2 53.0848 142.4258 21.8371 0.0000 0.0000 0.0000
# 3 20.4789 21.8371 51.2050 0.0000 0.0000 0.0000
# 4 0.0000 0.0000 0.0000 21.4440 0.0000 0.0000
# 5 0.0000 0.0000 0.0000 0.0000 11.6308 0.0000
# 6 0.0000 0.0000 0.0000 0.0000 0.0000 10.5358
#
#
#
# Elastic Compliance Matrix: (Units=1/GPa)
#
#
# Indices 1 2 3 4 5 6 
#
# 1 0.006791 -0.002263 -0.001751 0.000000 0.000000 0.000000
# 2 -0.002263 0.008266 -0.002620 0.000000 0.000000 0.000000
# 3 -0.001751 -0.002620 0.021347 0.000000 0.000000 0.000000
# 4 0.000000 0.000000 0.000000 0.046633 0.000000 0.000000
# 5 0.000000 0.000000 0.000000 0.000000 0.085979 0.000000
# 6 0.000000 0.000000 0.000000 0.000000 0.000000 0.094915
#
#
# Mechanical properties :
#
#
# Convention : Reuss Voigt Hill
#
# Bulk Modulus (GPa) = 43.22211 61.62822 52.42516
# Shear Modulus (GPa) = 17.54932 26.61886 22.08409
#
# Velocity S-wave (km/s) = 2.87296 3.53830 3.22284
# Velocity P-wave (km/s) = 5.59765 6.75856 6.20531
#
# Compressibility (1/GPa) = 0.02313631
#
# Stress axis : x y z
#
# Youngs Moduli (GPa) = 147.25384 120.97320 46.84470
#
# Poissons Ratio (x) = 0.27372 0.08203
# Poissons Ratio (y) = 0.33319 0.12275
# Poissons Ratio (z) = 0.25785 0.31699
#
# Static dielectric constant tensor:
#      x y z
#    x 1.791690 0.000000 0.000000 
#    y 0.000000 1.845460 0.000000 
#    z 0.000000 0.000000 1.786450 
# 
# From -- ./inp_files/22516.got.cif
#   From: 2010.05.17/outbox.cif.g08.bks.cpg/sg66_12_cif.got.tgz:22516.got - 2010.06.03 17:51:23.
