data_PCOD9497628
_publ_section_title
;
Structure prediction by ZEFSAII (Michael W. Deem and Ramdas Pophale) SiO2 
 PCOD9497628
Probable space group: C C C M
;
_chemical_formula_sum "Si O2"
_cell_formula_units_Z 64
_cell_length_a 13.461336
_cell_length_b 8.188427
_cell_length_c 24.507297
_cell_angle_alpha 90.000000
_cell_angle_beta 90.000000
_cell_angle_gamma 90.000000
_cell_volume 2701.369923
_symmetry_space_group_name_H-M "C C C M"
_symmetry_group_IT_number 66
_symmetry_cell_setting 'orthorhombic'
loop_
_space_group_symop_operation_xyz
x,y,z
-x,-y,z
x,-y,1/2-z
-x,y,1/2-z
-x,-y,-z
x,y,-z
-x,y,1/2+z
x,-y,1/2+z
1/2+x,1/2+y,z
1/2-x,1/2-y,z
1/2+x,1/2-y,1/2-z
1/2-x,1/2+y,1/2-z
1/2-x,1/2-y,-z
1/2+x,1/2+y,-z
1/2-x,1/2+y,1/2+z
1/2+x,1/2-y,1/2+z
loop_
_atom_site_type_symbol
_atom_site_label
_atom_site_fract_x
_atom_site_fract_y
_atom_site_fract_z
Si Si1 0.527856 0.190765 0.123234
Si Si2 0.963232 0.313552 0.000000
Si Si3 0.674889 0.601185 0.883616
Si Si4 0.166347 0.889509 0.500000
Si Si5 0.163270 0.139207 0.290493
O O1 0.577562 0.205546 0.062327
O O2 0.433094 0.314544 0.123452
O O3 0.588057 0.246020 0.176683
O O4 0.500000 0.000000 0.128483
O O5 0.059192 0.195497 0.000000
O O6 0.000000 0.500000 0.000000
O O7 0.750000 0.750000 0.882356
O O8 0.706011 0.471372 0.839208
O O9 0.678372 0.521228 0.943338
O O10 0.250000 0.750000 0.500000
O O11 0.250000 0.250000 0.264592
O O12 0.122083 0.000000 0.250000
#
# Coordination Sequence:
#
# PCOD9497628 Si02
#       5
#    16   8  16   8  16
#     4  10  21  40  68 101 134 170 209 259 322 390
#     4   8  16  33  60  97 138 168 198 247 316 391
#     4  10  20  39  65  97 133 169 209 256 312 379
#     4   8  16  31  58  93 132 170 202 245 306 373
#     4  12  27  46  64  87 121 167 221 278 326 375
#
# _framework density 23.691683999999999
#
# number of rings (size 3 to 8) (size 9 to 14) (size 15 to 20)
#    0.000    2.000    0.000    3.000    0.000    5.000 
#    0.000    6.250    0.000    0.000    0.000    0.000 
#    0.000    0.000    0.000    0.000    0.000    0.000 
#
# Total GULP energy -178506.179279 kJ/mol
# GULP energy per Si atom -5578.318102 kJ/mol
# Density = 2.363776 g / cm^3
# Si number density = 23.691684 Si / 1000 Ang^3
#
#
#
# Elastic Constant Matrix: (Units=GPa)
#
#
# Indices 1 2 3 4 5 6 
#
# 1 49.9986 28.9134 20.1950 0.0000 0.0000 0.0000
# 2 28.9134 126.0212 42.5230 0.0000 0.0000 0.0000
# 3 20.1950 42.5230 132.4256 0.0000 0.0000 0.0000
# 4 0.0000 0.0000 0.0000 69.7680 0.0000 0.0000
# 5 0.0000 0.0000 0.0000 0.0000 17.2687 0.0000
# 6 0.0000 0.0000 0.0000 0.0000 0.0000 37.7857
#
#
#
# Elastic Compliance Matrix: (Units=1/GPa)
#
#
# Indices 1 2 3 4 5 6 
#
# 1 0.023562 -0.004703 -0.002083 0.000000 0.000000 0.000000
# 2 -0.004703 0.009838 -0.002442 0.000000 0.000000 0.000000
# 3 -0.002083 -0.002442 0.008653 0.000000 0.000000 0.000000
# 4 0.000000 0.000000 0.000000 0.014333 0.000000 0.000000
# 5 0.000000 0.000000 0.000000 0.000000 0.057908 0.000000
# 6 0.000000 0.000000 0.000000 0.000000 0.000000 0.026465
#
#
# Mechanical properties :
#
#
# Convention : Reuss Voigt Hill
#
# Bulk Modulus (GPa) = 42.37792 54.63422 48.50607
# Shear Modulus (GPa) = 29.92563 39.41875 34.67219
#
# Velocity S-wave (km/s) = 3.55791 4.08342 3.82969
# Velocity P-wave (km/s) = 5.89952 6.73372 6.33038
#
# Compressibility (1/GPa) = 0.02359719
#
# Stress axis : x y z
#
# Youngs Moduli (GPa) = 42.44208 101.64524 115.56433
#
# Poissons Ratio (x) = 0.47803 0.24072
# Poissons Ratio (y) = 0.19960 0.28220
# Poissons Ratio (z) = 0.08841 0.24821
#
# Static dielectric constant tensor:
#      x y z
#    x 1.925550 0.000000 0.000000 
#    y 0.000000 1.890800 0.000000 
#    z 0.000000 0.000000 1.951780 
# 
# From -- ./inp_files/64251.got.cif
#   From: 2010.05.17/outbox.cif.g08.bks.cpg/sg66_33_cif.got.tgz:64251.got - 2010.06.03 17:51:23.
