data_PCOD9497731
_publ_section_title
;
Structure prediction by ZEFSAII (Michael W. Deem and Ramdas Pophale) SiO2 
 PCOD9497731
Probable space group: C C C M
;
_chemical_formula_sum "Si O2"
_cell_formula_units_Z 72
_cell_length_a 21.221989
_cell_length_b 21.268898
_cell_length_c 9.615565
_cell_angle_alpha 90.000000
_cell_angle_beta 90.000000
_cell_angle_gamma 90.000000
_cell_volume 4340.161414
_symmetry_space_group_name_H-M "C C C M"
_symmetry_group_IT_number 66
_symmetry_cell_setting 'orthorhombic'
loop_
_space_group_symop_operation_xyz
x,y,z
-x,-y,z
x,-y,1/2-z
-x,y,1/2-z
-x,-y,-z
x,y,-z
-x,y,1/2+z
x,-y,1/2+z
1/2+x,1/2+y,z
1/2-x,1/2-y,z
1/2+x,1/2-y,1/2-z
1/2-x,1/2+y,1/2-z
1/2-x,1/2-y,-z
1/2+x,1/2+y,-z
1/2-x,1/2+y,1/2+z
1/2+x,1/2-y,1/2+z
loop_
_atom_site_type_symbol
_atom_site_label
_atom_site_fract_x
_atom_site_fract_y
_atom_site_fract_z
Si Si1 0.702936 0.380149 0.659075
Si Si2 0.404715 0.441674 0.661074
Si Si3 0.000000 0.164045 0.750000
Si Si4 0.386310 0.257627 0.850518
Si Si5 0.797989 0.310142 0.840910
O O1 0.711164 0.403325 0.500000
O O2 0.659190 0.422608 0.757993
O O3 0.662950 0.315510 0.647762
O O4 0.766261 0.361199 0.739635
O O5 0.430240 0.500000 0.750000
O O6 0.394467 0.457982 0.500000
O O7 0.452985 0.382982 0.668721
O O8 0.953711 0.209520 0.665687
O O9 0.363153 0.214232 0.725034
O O10 0.381387 0.224856 0.000000
O O11 0.750000 0.250000 0.842631
O O12 0.803958 0.331331 0.000000
#
# Coordination Sequence:
#
# PCOD9497731 Si02
#       5
#    16  16   8  16  16
#     4   9  17  30  46  62  81 106 139 181 226 268
#     4  11  22  34  47  63  85 116 155 195 231 266
#     4  10  21  32  46  62  86 120 159 194 222 258
#     4   9  17  28  42  60  82 110 143 179 220 264
#     4   9  16  26  42  63  83 104 134 174 220 268
#
# _framework density 16.589244000000001
#
# number of rings (size 3 to 8) (size 9 to 14) (size 15 to 20)
#    0.000    2.444    0.000    3.000    0.000   12.444 
#    0.000    0.000    0.000    0.000    0.000    0.000 
#    0.000    0.000    0.000    1.000    0.000   15.111 
#
# Total GULP energy -200443.832002 kJ/mol
# GULP energy per Si atom -5567.884222 kJ/mol
# Density = 1.655149 g / cm^3
# Si number density = 16.589244 Si / 1000 Ang^3
#
#
#
# Elastic Constant Matrix: (Units=GPa)
#
#
# Indices 1 2 3 4 5 6 
#
# 1 58.5786 31.7419 46.4167 0.0000 0.0000 0.0000
# 2 31.7419 26.8390 32.2181 0.0000 0.0000 0.0000
# 3 46.4167 32.2181 169.3707 0.0000 0.0000 0.0000
# 4 0.0000 0.0000 0.0000 15.0811 0.0000 0.0000
# 5 0.0000 0.0000 0.0000 0.0000 -4.0261 0.0000
# 6 0.0000 0.0000 0.0000 0.0000 0.0000 16.8852
#
#
#
# Elastic Compliance Matrix: (Units=1/GPa)
#
#
# Indices 1 2 3 4 5 6 
#
# 1 0.048758 -0.053942 -0.003101 0.000000 0.000000 0.000000
# 2 -0.053942 0.107963 -0.005754 0.000000 0.000000 0.000000
# 3 -0.003101 -0.005754 0.007849 0.000000 0.000000 0.000000
# 4 0.000000 0.000000 0.000000 0.066308 0.000000 0.000000
# 5 0.000000 0.000000 0.000000 0.000000 -0.248377 0.000000
# 6 0.000000 0.000000 0.000000 0.000000 0.000000 0.059224
#
#
# Mechanical properties :
#
#
# Convention : Reuss Voigt Hill
#
# Bulk Modulus (GPa) = 25.65781 52.83796 39.24789
# Shear Modulus (GPa) = 27.73003 15.21547 21.47275
#
# Velocity S-wave (km/s) = 4.09292 3.03180 3.60165
# Velocity P-wave (km/s) = 6.15110 6.64647 6.40358
#
# Compressibility (1/GPa) = 0.03897448
#
# Stress axis : x y z
#
# Youngs Moduli (GPa) = 20.50938 9.26247 127.41049
#
# Poissons Ratio (x) = 0.49964 0.39514
# Poissons Ratio (y) = 1.10632 0.73309
# Poissons Ratio (z) = 0.06361 0.05329
#
# Static dielectric constant tensor:
#      x y z
#    x 1.571720 0.000000 0.000000 
#    y 0.000000 1.572020 0.000000 
#    z 0.000000 0.000000 1.592990 
# 
# From -- ./inp_files/6579.got.cif
#   From: 2010.05.17/outbox.cif.g08.bks.cpg/sg66_4_cif.got.tgz:6579.got - 2010.06.03 17:51:23.
