data_PCOD9497573
_publ_section_title
;
Structure prediction by ZEFSAII (Michael W. Deem and Ramdas Pophale) SiO2 
 PCOD9497573
Probable space group: C C C M
;
_chemical_formula_sum "Si O2"
_cell_formula_units_Z 112
_cell_length_a 22.308432
_cell_length_b 11.951389
_cell_length_c 22.518244
_cell_angle_alpha 90.000000
_cell_angle_beta 90.000000
_cell_angle_gamma 90.000000
_cell_volume 6003.741004
_symmetry_space_group_name_H-M "C C C M"
_symmetry_group_IT_number 66
_symmetry_cell_setting 'orthorhombic'
loop_
_space_group_symop_operation_xyz
x,y,z
-x,-y,z
x,-y,1/2-z
-x,y,1/2-z
-x,-y,-z
x,y,-z
-x,y,1/2+z
x,-y,1/2+z
1/2+x,1/2+y,z
1/2-x,1/2-y,z
1/2+x,1/2-y,1/2-z
1/2-x,1/2+y,1/2-z
1/2-x,1/2-y,-z
1/2+x,1/2+y,-z
1/2-x,1/2+y,1/2+z
1/2+x,1/2-y,1/2+z
loop_
_atom_site_type_symbol
_atom_site_label
_atom_site_fract_x
_atom_site_fract_y
_atom_site_fract_z
Si Si1 0.069340 0.031965 0.937006
Si Si2 0.126491 0.854198 0.135288
Si Si3 0.578203 0.761524 0.879548
Si Si4 0.136827 0.472711 0.930075
Si Si5 0.427969 0.633380 0.743758
Si Si6 0.548358 0.173917 0.069965
Si Si7 0.256085 0.383933 0.567609
O O1 0.081729 0.161600 0.927427
O O2 0.090216 0.965628 0.879985
O O3 0.096253 0.994455 0.000000
O O4 0.000000 0.000000 0.940029
O O5 0.109690 0.816221 0.201099
O O6 0.098936 0.763043 0.089945
O O7 0.192967 0.891211 0.117504
O O8 0.624418 0.861269 0.892641
O O9 0.586534 0.700235 0.816492
O O10 0.510554 0.807847 0.890289
O O11 0.079339 0.553746 0.923064
O O12 0.196028 0.546961 0.916491
O O13 0.140212 0.442940 0.000000
O O14 0.415336 0.500000 0.750000
O O15 0.500000 0.645126 0.750000
O O16 0.533778 0.189966 0.000000
O O17 0.272235 0.420493 0.500000
O O18 0.250000 0.250000 0.563701
#
# Coordination Sequence:
#
# PCOD9497573 Si02
#       7
#    16  16  16  16  16  16  16
#     4  11  20  31  54  90 122 149 196 264 325 384
#     4  12  21  36  62  90 120 161 217 263 309 377
#     4  12  22  37  59  90 130 168 206 259 332 396
#     4  10  22  39  62  94 132 170 208 263 336 398
#     4  11  22  40  61  86 117 166 210 259 317 384
#     4  11  20  34  61  96 131 164 204 265 331 396
#     4  10  20  38  66  92 119 161 213 266 314 378
#
# _framework density 18.655035000000002
#
# number of rings (size 3 to 8) (size 9 to 14) (size 15 to 20)
#    0.000    1.000    5.714    3.000    0.000    1.143 
#    0.000    1.429    3.143    2.571    0.000    0.000 
#    0.000    0.000    0.000    0.000    0.000    0.000 
#
# Total GULP energy -312047.804454 kJ/mol
# GULP energy per Si atom -5572.282222 kJ/mol
# Density = 1.861258 g / cm^3
# Si number density = 18.655035 Si / 1000 Ang^3
#
#
#
# Elastic Constant Matrix: (Units=GPa)
#
#
# Indices 1 2 3 4 5 6 
#
# 1 77.6278 31.7137 47.7555 0.0000 0.0000 0.0000
# 2 31.7137 108.6830 44.7745 0.0000 0.0000 0.0000
# 3 47.7555 44.7745 132.2578 0.0000 0.0000 0.0000
# 4 0.0000 0.0000 0.0000 33.1218 0.0000 0.0000
# 5 0.0000 0.0000 0.0000 0.0000 26.4100 0.0000
# 6 0.0000 0.0000 0.0000 0.0000 0.0000 27.4339
#
#
#
# Elastic Compliance Matrix: (Units=1/GPa)
#
#
# Indices 1 2 3 4 5 6 
#
# 1 0.017301 -0.002876 -0.005273 0.000000 0.000000 0.000000
# 2 -0.002876 0.011170 -0.002743 0.000000 0.000000 0.000000
# 3 -0.005273 -0.002743 0.010394 0.000000 0.000000 0.000000
# 4 0.000000 0.000000 0.000000 0.030192 0.000000 0.000000
# 5 0.000000 0.000000 0.000000 0.000000 0.037864 0.000000
# 6 0.000000 0.000000 0.000000 0.000000 0.000000 0.036451
#
#
# Mechanical properties :
#
#
# Convention : Reuss Voigt Hill
#
# Bulk Modulus (GPa) = 58.54756 63.00626 60.77691
# Shear Modulus (GPa) = 29.26529 30.34814 29.80672
#
# Velocity S-wave (km/s) = 3.96506 4.03775 4.00157
# Velocity P-wave (km/s) = 7.23980 7.45557 7.34848
#
# Compressibility (1/GPa) = 0.01708013
#
# Stress axis : x y z
#
# Youngs Moduli (GPa) = 57.80000 89.52242 96.21132
#
# Poissons Ratio (x) = 0.25746 0.50736
# Poissons Ratio (y) = 0.16623 0.26392
# Poissons Ratio (z) = 0.30480 0.24558
#
# Static dielectric constant tensor:
#      x y z
#    x 1.642460 0.000000 0.000000 
#    y 0.000000 1.678960 0.000000 
#    z 0.000000 0.000000 1.699350 
# 
# From -- ./inp_files/52584.got.cif
#   From: 2010.05.17/outbox.cif.g08.bks.cpg/sg66_27_cif.got.tgz:52584.got - 2010.06.03 17:51:23.
