data_PCOD9497328
_publ_section_title
;
Structure prediction by ZEFSAII (Michael W. Deem and Ramdas Pophale) SiO2 
 PCOD9497328
Probable space group: C C C M
;
_chemical_formula_sum "Si O2"
_cell_formula_units_Z 64
_cell_length_a 15.416023
_cell_length_b 7.596559
_cell_length_c 24.397918
_cell_angle_alpha 90.000000
_cell_angle_beta 90.000000
_cell_angle_gamma 90.000000
_cell_volume 2857.209149
_symmetry_space_group_name_H-M "C C C M"
_symmetry_group_IT_number 66
_symmetry_cell_setting 'orthorhombic'
loop_
_space_group_symop_operation_xyz
x,y,z
-x,-y,z
x,-y,1/2-z
-x,y,1/2-z
-x,-y,-z
x,y,-z
-x,y,1/2+z
x,-y,1/2+z
1/2+x,1/2+y,z
1/2-x,1/2-y,z
1/2+x,1/2-y,1/2-z
1/2-x,1/2+y,1/2-z
1/2-x,1/2-y,-z
1/2+x,1/2+y,-z
1/2-x,1/2+y,1/2+z
1/2+x,1/2-y,1/2+z
loop_
_atom_site_type_symbol
_atom_site_label
_atom_site_fract_x
_atom_site_fract_y
_atom_site_fract_z
Si Si1 0.652003 0.178912 0.102860
Si Si2 0.658021 0.771369 0.884285
Si Si3 0.844241 0.152946 0.500000
Si Si4 0.990838 0.210768 0.812271
Si Si5 0.034997 0.298554 0.500000
O O1 0.750000 0.250000 0.104413
O O2 0.596627 0.226333 0.157135
O O3 0.594622 0.244257 0.051849
O O4 0.655686 0.969057 0.092031
O O5 0.750000 0.750000 0.853845
O O6 0.657673 0.625584 0.932656
O O7 0.573691 0.766962 0.847391
O O8 0.750000 0.250000 0.500000
O O9 0.946209 0.195754 0.500000
O O10 0.000000 0.275369 0.750000
O O11 0.000000 0.000000 0.811370
O O12 0.000000 0.500000 0.500000
#
# Coordination Sequence:
#
# PCOD9497328 Si02
#       5
#    16  16   8  16   8
#     4  12  24  40  65  98 133 171 212 259 318 385
#     4  11  22  41  67  93 130 169 208 261 317 378
#     4  10  20  36  65  96 129 166 206 254 315 379
#     4  11  25  45  66  91 124 165 217 272 323 378
#     4  12  19  40  64  95 135 170 209 258 316 381
#
# _framework density 22.399481999999999
#
# number of rings (size 3 to 8) (size 9 to 14) (size 15 to 20)
#    0.000    0.750    5.000    2.625    0.000    3.000 
#    0.000    5.000    0.000    0.000    0.000    0.000 
#    0.000    0.000    0.000    0.000    0.000    0.000 
#
# Total GULP energy -178218.254284 kJ/mol
# GULP energy per Si atom -5569.320446 kJ/mol
# Density = 2.234850 g / cm^3
# Si number density = 22.399482 Si / 1000 Ang^3
#
#
#
# Elastic Constant Matrix: (Units=GPa)
#
#
# Indices 1 2 3 4 5 6 
#
# 1 244.5436 23.9113 84.9180 0.0000 0.0000 0.0000
# 2 23.9113 80.3971 8.7878 0.0000 0.0000 0.0000
# 3 84.9180 8.7878 150.2870 0.0000 0.0000 0.0000
# 4 0.0000 0.0000 0.0000 21.4018 0.0000 0.0000
# 5 0.0000 0.0000 0.0000 0.0000 8.1878 0.0000
# 6 0.0000 0.0000 0.0000 0.0000 0.0000 36.1572
#
#
#
# Elastic Compliance Matrix: (Units=1/GPa)
#
#
# Indices 1 2 3 4 5 6 
#
# 1 0.005206 -0.001235 -0.002870 0.000000 0.000000 0.000000
# 2 -0.001235 0.012811 -0.000051 0.000000 0.000000 0.000000
# 3 -0.002870 -0.000051 0.008278 0.000000 0.000000 0.000000
# 4 0.000000 0.000000 0.000000 0.046725 0.000000 0.000000
# 5 0.000000 0.000000 0.000000 0.000000 0.122133 0.000000
# 6 0.000000 0.000000 0.000000 0.000000 0.000000 0.027657
#
#
# Mechanical properties :
#
#
# Convention : Reuss Voigt Hill
#
# Bulk Modulus (GPa) = 55.60410 78.94021 67.27215
# Shear Modulus (GPa) = 21.08656 36.99006 29.03831
#
# Velocity S-wave (km/s) = 3.07153 4.06813 3.60444
# Velocity P-wave (km/s) = 6.12019 7.57527 6.88627
#
# Compressibility (1/GPa) = 0.01798429
#
# Stress axis : x y z
#
# Youngs Moduli (GPa) = 192.06832 78.05708 120.79616
#
# Poissons Ratio (x) = 0.09639 0.34664
# Poissons Ratio (y) = 0.23717 0.00621
# Poissons Ratio (z) = 0.55117 0.00401
#
# Static dielectric constant tensor:
#      x y z
#    x 1.767660 0.000000 0.000000 
#    y 0.000000 3.210960 0.000000 
#    z 0.000000 0.000000 1.842250 
# 
# From -- ./inp_files/55000.got.cif
#   From: 2010.05.17/outbox.cif.g08.bks.cpg/sg66_28_cif.got.tgz:55000.got - 2010.06.03 17:51:23.
