data_PCOD9497391
_publ_section_title
;
Structure prediction by ZEFSAII (Michael W. Deem and Ramdas Pophale) SiO2 
 PCOD9497391
Probable space group: C C C M
;
_chemical_formula_sum "Si O2"
_cell_formula_units_Z 80
_cell_length_a 14.211228
_cell_length_b 21.250949
_cell_length_c 11.409049
_cell_angle_alpha 90.000000
_cell_angle_beta 90.000000
_cell_angle_gamma 90.000000
_cell_volume 3445.556545
_symmetry_space_group_name_H-M "C C C M"
_symmetry_group_IT_number 66
_symmetry_cell_setting 'orthorhombic'
loop_
_space_group_symop_operation_xyz
x,y,z
-x,-y,z
x,-y,1/2-z
-x,y,1/2-z
-x,-y,-z
x,y,-z
-x,y,1/2+z
x,-y,1/2+z
1/2+x,1/2+y,z
1/2-x,1/2-y,z
1/2+x,1/2-y,1/2-z
1/2-x,1/2+y,1/2-z
1/2-x,1/2-y,-z
1/2+x,1/2+y,-z
1/2-x,1/2+y,1/2+z
1/2+x,1/2-y,1/2+z
loop_
_atom_site_type_symbol
_atom_site_label
_atom_site_fract_x
_atom_site_fract_y
_atom_site_fract_z
Si Si1 0.763461 0.432039 0.803619
Si Si2 0.556189 0.588162 0.370458
Si Si3 0.030989 0.573752 0.876292
Si Si4 0.279741 0.682459 0.633143
Si Si5 0.006885 0.776177 0.625661
O O1 0.783207 0.500000 0.750000
O O2 0.661864 0.437138 0.864254
O O3 0.856563 0.418138 0.876650
O O4 0.750974 0.377304 0.706999
O O5 0.500000 0.571004 0.250000
O O6 0.514327 0.572067 0.500000
O O7 0.563179 0.664315 0.369149
O O8 0.000000 0.500000 0.875173
O O9 0.000000 0.599331 0.750000
O O10 0.991712 0.598952 0.000000
O O11 0.241459 0.678622 0.500000
O O12 0.250000 0.750000 0.684936
O O13 0.392017 0.689111 0.623619
O O14 0.994523 0.743623 0.500000
O O15 0.000000 0.741503 0.750000
#
# Coordination Sequence:
#
# PCOD9497391 Si02
#       5
#    16  16  16  16  16
#     4  12  23  39  67 103 133 179 226 293 348 413
#     4  10  20  37  60  94 139 177 214 267 334 405
#     4  10  21  42  66  93 132 175 223 293 360 415
#     4  10  22  41  65  97 138 184 234 282 340 419
#     4   9  16  34  61  87 127 176 215 267 325 390
#
# _framework density 23.218311
#
# number of rings (size 3 to 8) (size 9 to 14) (size 15 to 20)
#    0.000    1.800    6.000    0.600    0.000    2.800 
#    0.000    2.000    0.000    7.800    0.000    0.000 
#    0.000    0.000    0.000    0.000    0.000    0.000 
#
# Total GULP energy -222983.338079 kJ/mol
# GULP energy per Si atom -5574.583452 kJ/mol
# Density = 2.316547 g / cm^3
# Si number density = 23.218311 Si / 1000 Ang^3
#
#
#
# Elastic Constant Matrix: (Units=GPa)
#
#
# Indices 1 2 3 4 5 6 
#
# 1 84.5197 -17.2394 34.5658 0.0000 0.0000 0.0000
# 2 -17.2394 110.1910 39.2709 0.0000 0.0000 0.0000
# 3 34.5658 39.2709 262.2961 0.0000 0.0000 0.0000
# 4 0.0000 0.0000 0.0000 18.6556 0.0000 0.0000
# 5 0.0000 0.0000 0.0000 0.0000 19.5466 0.0000
# 6 0.0000 0.0000 0.0000 0.0000 0.0000 -6.9891
#
#
#
# Elastic Compliance Matrix: (Units=1/GPa)
#
#
# Indices 1 2 3 4 5 6 
#
# 1 0.013307 0.002859 -0.002182 0.000000 0.000000 0.000000
# 2 0.002859 0.010201 -0.001904 0.000000 0.000000 0.000000
# 3 -0.002182 -0.001904 0.004385 0.000000 0.000000 0.000000
# 4 0.000000 0.000000 0.000000 0.053603 0.000000 0.000000
# 5 0.000000 0.000000 0.000000 0.000000 0.051160 0.000000
# 6 0.000000 0.000000 0.000000 0.000000 0.000000 -0.143079
#
#
# Mechanical properties :
#
#
# Convention : Reuss Voigt Hill
#
# Bulk Modulus (GPa) = 39.30757 63.35573 51.33165
# Shear Modulus (GPa) = 9796.38447 32.93657 4914.66052
#
# Velocity S-wave (km/s) = 65.02622 3.77046 46.05771
# Velocity P-wave (km/s) = 75.19870 6.80451 53.39076
#
# Compressibility (1/GPa) = 0.02544039
#
# Stress axis : x y z
#
# Youngs Moduli (GPa) = 75.14808 98.02847 228.04573
#
# Poissons Ratio (x) = -0.28031 0.49754
# Poissons Ratio (y) = -0.21488 0.43423
# Poissons Ratio (z) = 0.16395 0.18666
#
# Static dielectric constant tensor:
#      x y z
#    x 1.948300 0.000000 0.000000 
#    y 0.000000 1.878900 0.000000 
#    z 0.000000 0.000000 1.978910 
# 
# From -- ./inp_files/16365.got.cif
#   From: 2010.05.17/outbox.cif.g08.bks.cpg/sg66_9_cif.got.tgz:16365.got - 2010.06.03 17:51:23.
