data_PCOD9497295
_publ_section_title
;
Structure prediction by ZEFSAII (Michael W. Deem and Ramdas Pophale) SiO2 
 PCOD9497295
Probable space group: C C C M
;
_chemical_formula_sum "Si O2"
_cell_formula_units_Z 96
_cell_length_a 24.975328
_cell_length_b 11.674082
_cell_length_c 18.423710
_cell_angle_alpha 90.000000
_cell_angle_beta 90.000000
_cell_angle_gamma 90.000000
_cell_volume 5371.691081
_symmetry_space_group_name_H-M "C C C M"
_symmetry_group_IT_number 66
_symmetry_cell_setting 'orthorhombic'
loop_
_space_group_symop_operation_xyz
x,y,z
-x,-y,z
x,-y,1/2-z
-x,y,1/2-z
-x,-y,-z
x,y,-z
-x,y,1/2+z
x,-y,1/2+z
1/2+x,1/2+y,z
1/2-x,1/2-y,z
1/2+x,1/2-y,1/2-z
1/2-x,1/2+y,1/2-z
1/2-x,1/2-y,-z
1/2+x,1/2+y,-z
1/2-x,1/2+y,1/2+z
1/2+x,1/2-y,1/2+z
loop_
_atom_site_type_symbol
_atom_site_label
_atom_site_fract_x
_atom_site_fract_y
_atom_site_fract_z
Si Si1 0.852466 0.568624 0.587009
Si Si2 0.371969 0.323581 0.646409
Si Si3 0.943240 0.818821 0.212515
Si Si4 0.765279 0.884898 0.417147
Si Si5 0.444275 0.944890 0.329709
Si Si6 0.436728 0.517546 0.421208
O O1 0.857000 0.572151 0.500000
O O2 0.866633 0.693609 0.619007
O O3 0.789292 0.550008 0.603560
O O4 0.893964 0.479526 0.621218
O O5 0.398296 0.322558 0.725383
O O6 0.314914 0.387220 0.637429
O O7 0.410637 0.395142 0.594243
O O8 0.950299 0.690399 0.181976
O O9 0.926638 0.900688 0.146875
O O10 0.000000 0.852717 0.250000
O O11 0.781151 0.917254 0.500000
O O12 0.750000 0.750000 0.420553
O O13 0.500000 0.000000 0.357868
O O14 0.435877 0.000000 0.250000
O O15 0.500000 0.500000 0.423186
O O16 0.418912 0.562419 0.500000
#
# Coordination Sequence:
#
# PCOD9497295 Si02
#       6
#    16  16  16  16  16  16
#     4  10  20  36  62  90 116 148 191 246 293 339
#     4  11  19  35  62  85 113 152 191 237 287 342
#     4  12  22  38  58  81 120 153 189 237 291 348
#     4   8  16  32  56  87 117 144 185 240 291 333
#     4  11  21  38  56  81 114 157 190 230 294 346
#     4  11  24  37  55  83 116 152 189 233 284 342
#
# _framework density 17.871466999999999
#
# number of rings (size 3 to 8) (size 9 to 14) (size 15 to 20)
#    0.000    1.500    5.000    3.000    0.000    1.000 
#    0.000    1.667    0.000    0.000    0.000    3.500 
#    0.000    0.000    0.000    0.000    0.000    0.000 
#
# Total GULP energy -267754.621103 kJ/mol
# GULP energy per Si atom -5578.221273 kJ/mol
# Density = 1.783079 g / cm^3
# Si number density = 17.871467 Si / 1000 Ang^3
#
#
#
# Elastic Constant Matrix: (Units=GPa)
#
#
# Indices 1 2 3 4 5 6 
#
# 1 115.1822 11.1824 45.7833 0.0000 0.0000 0.0000
# 2 11.1824 39.6282 17.3284 0.0000 0.0000 0.0000
# 3 45.7833 17.3284 92.0777 0.0000 0.0000 0.0000
# 4 0.0000 0.0000 0.0000 20.4361 0.0000 0.0000
# 5 0.0000 0.0000 0.0000 0.0000 29.8048 0.0000
# 6 0.0000 0.0000 0.0000 0.0000 0.0000 24.0345
#
#
#
# Elastic Compliance Matrix: (Units=1/GPa)
#
#
# Indices 1 2 3 4 5 6 
#
# 1 0.010842 -0.000765 -0.005247 0.000000 0.000000 0.000000
# 2 -0.000765 0.027551 -0.004805 0.000000 0.000000 0.000000
# 3 -0.005247 -0.004805 0.014373 0.000000 0.000000 0.000000
# 4 0.000000 0.000000 0.000000 0.048933 0.000000 0.000000
# 5 0.000000 0.000000 0.000000 0.000000 0.033552 0.000000
# 6 0.000000 0.000000 0.000000 0.000000 0.000000 0.041607
#
#
# Mechanical properties :
#
#
# Convention : Reuss Voigt Hill
#
# Bulk Modulus (GPa) = 32.11957 43.94179 38.03068
# Shear Modulus (GPa) = 23.93851 26.36137 25.14994
#
# Velocity S-wave (km/s) = 3.66386 3.84481 3.75543
# Velocity P-wave (km/s) = 5.99250 6.65966 6.33487
#
# Compressibility (1/GPa) = 0.03113367
#
# Stress axis : x y z
#
# Youngs Moduli (GPa) = 92.23651 36.29586 69.57294
#
# Poissons Ratio (x) = 0.02777 0.36503
# Poissons Ratio (y) = 0.07057 0.33427
# Poissons Ratio (z) = 0.48394 0.17439
#
# Static dielectric constant tensor:
#      x y z
#    x 1.652260 0.000000 0.000000 
#    y 0.000000 1.599750 0.000000 
#    z 0.000000 0.000000 1.613750 
# 
# From -- ./inp_files/38864.got.cif
#   From: 2010.05.17/outbox.cif.g08.bks.cpg/sg66_20_cif.got.tgz:38864.got - 2010.06.03 17:51:23.
