data_PCOD9497245
_publ_section_title
;
Structure prediction by ZEFSAII (Michael W. Deem and Ramdas Pophale) SiO2 
 PCOD9497245
Probable space group: C C C M
;
_chemical_formula_sum "Si O2"
_cell_formula_units_Z 80
_cell_length_a 7.794671
_cell_length_b 18.832150
_cell_length_c 26.853876
_cell_angle_alpha 90.000000
_cell_angle_beta 90.000000
_cell_angle_gamma 90.000000
_cell_volume 3941.891561
_symmetry_space_group_name_H-M "C C C M"
_symmetry_group_IT_number 66
_symmetry_cell_setting 'orthorhombic'
loop_
_space_group_symop_operation_xyz
x,y,z
-x,-y,z
x,-y,1/2-z
-x,y,1/2-z
-x,-y,-z
x,y,-z
-x,y,1/2+z
x,-y,1/2+z
1/2+x,1/2+y,z
1/2-x,1/2-y,z
1/2+x,1/2-y,1/2-z
1/2-x,1/2+y,1/2-z
1/2-x,1/2-y,-z
1/2+x,1/2+y,-z
1/2-x,1/2+y,1/2+z
1/2+x,1/2-y,1/2+z
loop_
_atom_site_type_symbol
_atom_site_label
_atom_site_fract_x
_atom_site_fract_y
_atom_site_fract_z
Si Si1 0.907710 0.888006 0.000000
Si Si2 0.776384 0.666424 0.792632
Si Si3 0.267340 0.033423 0.500000
Si Si4 0.276026 0.333976 0.898491
Si Si5 0.813097 0.332114 0.814558
Si Si6 0.565461 0.074857 0.103573
O O1 0.887324 0.847580 0.947606
O O2 0.087239 0.927005 0.000000
O O3 0.765154 0.949623 0.000000
O O4 0.750000 0.750000 0.786420
O O5 0.672843 0.642482 0.841924
O O6 0.734917 0.638634 0.737402
O O7 0.980239 0.662298 0.804638
O O8 0.358794 0.055048 0.449558
O O9 0.250000 0.250000 0.894809
O O10 0.096062 0.374010 0.905828
O O11 0.750000 0.250000 0.823188
O O12 0.797930 0.383036 0.862200
O O13 0.500000 0.000000 0.127002
#
# Coordination Sequence:
#
# PCOD9497245 Si02
#       6
#     8  16   8  16  16  16
#     4  11  22  39  58  81 110 148 198 235 285 344
#     4   8  16  32  54  82 116 151 178 220 290 343
#     4  11  24  38  58  78 111 156 188 236 295 343
#     4  10  20  36  60  85 114 149 187 233 283 343
#     4   9  18  33  55  85 115 144 188 232 275 330
#     4  11  21  38  60  83 116 154 189 232 286 347
#
# _framework density 20.294824999999999
#
# number of rings (size 3 to 8) (size 9 to 14) (size 15 to 20)
#    0.000    2.200    2.000    1.200    0.000    4.800 
#    0.000    9.500    0.000    0.000    0.000    2.800 
#    0.000    0.000    0.000    0.000    0.000    0.000 
#
# Total GULP energy -222699.113666 kJ/mol
# GULP energy per Si atom -5567.477842 kJ/mol
# Density = 2.024863 g / cm^3
# Si number density = 20.294825 Si / 1000 Ang^3
#
#
#
# Elastic Constant Matrix: (Units=GPa)
#
#
# Indices 1 2 3 4 5 6 
#
# 1 20.6447 15.9559 16.1425 0.0000 0.0000 0.0000
# 2 15.9559 84.0318 44.8097 0.0000 0.0000 0.0000
# 3 16.1425 44.8097 178.3260 0.0000 0.0000 0.0000
# 4 0.0000 0.0000 0.0000 46.3782 0.0000 0.0000
# 5 0.0000 0.0000 0.0000 0.0000 -3.0001 0.0000
# 6 0.0000 0.0000 0.0000 0.0000 0.0000 26.9990
#
#
#
# Elastic Compliance Matrix: (Units=1/GPa)
#
#
# Indices 1 2 3 4 5 6 
#
# 1 0.058013 -0.009486 -0.002868 0.000000 0.000000 0.000000
# 2 -0.009486 0.015293 -0.002984 0.000000 0.000000 0.000000
# 3 -0.002868 -0.002984 0.006617 0.000000 0.000000 0.000000
# 4 0.000000 0.000000 0.000000 0.021562 0.000000 0.000000
# 5 0.000000 0.000000 0.000000 0.000000 -0.333317 0.000000
# 6 0.000000 0.000000 0.000000 0.000000 0.000000 0.037038
#
#
# Mechanical properties :
#
#
# Convention : Reuss Voigt Hill
#
# Bulk Modulus (GPa) = 20.30597 48.53543 34.42070
# Shear Modulus (GPa) = -33.85170 27.81503 -3.01833
#
# Velocity S-wave (km/s) = -4.08854 3.70611 -1.22085
# Velocity P-wave (km/s) = 3.50157 6.50236 3.87426
#
# Compressibility (1/GPa) = 0.04924660
#
# Stress axis : x y z
#
# Youngs Moduli (GPa) = 17.23758 65.39063 151.12283
#
# Poissons Ratio (x) = 0.62031 0.43339
# Poissons Ratio (y) = 0.16352 0.45096
# Poissons Ratio (z) = 0.04943 0.19513
#
# Static dielectric constant tensor:
#      x y z
#    x 1.779370 0.000000 0.000000 
#    y 0.000000 1.724500 0.000000 
#    z 0.000000 0.000000 1.848020 
# 
# From -- ./inp_files/62461.got.cif
#   From: 2010.05.17/outbox.cif.g08.bks.cpg/sg66_32_cif.got.tgz:62461.got - 2010.06.03 17:51:23.
