data_PCOD9497627
_publ_section_title
;
Structure prediction by ZEFSAII (Michael W. Deem and Ramdas Pophale) SiO2 
 PCOD9497627
Probable space group: C C C M
;
_chemical_formula_sum "Si O2"
_cell_formula_units_Z 80
_cell_length_a 14.510920
_cell_length_b 11.193909
_cell_length_c 20.524897
_cell_angle_alpha 90.000000
_cell_angle_beta 90.000000
_cell_angle_gamma 90.000000
_cell_volume 3333.939436
_symmetry_space_group_name_H-M "C C C M"
_symmetry_group_IT_number 66
_symmetry_cell_setting 'orthorhombic'
loop_
_space_group_symop_operation_xyz
x,y,z
-x,-y,z
x,-y,1/2-z
-x,y,1/2-z
-x,-y,-z
x,y,-z
-x,y,1/2+z
x,-y,1/2+z
1/2+x,1/2+y,z
1/2-x,1/2-y,z
1/2+x,1/2-y,1/2-z
1/2-x,1/2+y,1/2-z
1/2-x,1/2-y,-z
1/2+x,1/2+y,-z
1/2-x,1/2+y,1/2+z
1/2+x,1/2-y,1/2+z
loop_
_atom_site_type_symbol
_atom_site_label
_atom_site_fract_x
_atom_site_fract_y
_atom_site_fract_z
Si Si1 0.624720 0.816375 0.208826
Si Si2 0.516744 0.637383 0.925073
Si Si3 0.764951 0.608112 0.424245
Si Si4 0.933060 0.647665 0.650122
Si Si5 0.815131 0.896630 0.853159
O O1 0.627964 0.847464 0.284536
O O2 0.535596 0.879399 0.177338
O O3 0.713135 0.859037 0.169008
O O4 0.624081 0.670430 0.202916
O O5 0.500000 0.500000 0.907128
O O6 0.456175 0.724981 0.882329
O O7 0.626111 0.659010 0.913284
O O8 0.492198 0.654312 0.000000
O O9 0.747854 0.576588 0.500000
O O10 0.750000 0.750000 0.417086
O O11 0.871227 0.582585 0.403809
O O12 0.700729 0.531942 0.375859
#
# Coordination Sequence:
#
# PCOD9497627 Si02
#       5
#    16  16  16  16  16
#     4   9  22  43  64  93 131 169 225 276 333 402
#     4  10  20  39  65  95 133 175 224 278 335 402
#     4  11  24  41  62  94 131 169 219 275 337 403
#     4  10  21  41  64  92 131 174 217 275 343 404
#     4  10  21  41  65  94 130 173 221 277 338 394
#
# _framework density 23.995636999999999
#
# number of rings (size 3 to 8) (size 9 to 14) (size 15 to 20)
#    0.000    2.000    0.000    2.400    2.800    4.800 
#    3.600   31.000    0.000    0.000    0.000    0.000 
#    0.000    0.000    0.000    0.000    0.000    0.000 
#
# Total GULP energy -222776.520437 kJ/mol
# GULP energy per Si atom -5569.413011 kJ/mol
# Density = 2.394102 g / cm^3
# Si number density = 23.995637 Si / 1000 Ang^3
#
#
#
# Elastic Constant Matrix: (Units=GPa)
#
#
# Indices 1 2 3 4 5 6 
#
# 1 128.4187 20.8866 25.0765 0.0000 0.0000 0.0000
# 2 20.8866 74.9588 40.7866 0.0000 0.0000 0.0000
# 3 25.0765 40.7866 49.4147 0.0000 0.0000 0.0000
# 4 0.0000 0.0000 0.0000 23.0752 0.0000 0.0000
# 5 0.0000 0.0000 0.0000 0.0000 17.2877 0.0000
# 6 0.0000 0.0000 0.0000 0.0000 0.0000 27.0372
#
#
#
# Elastic Compliance Matrix: (Units=1/GPa)
#
#
# Indices 1 2 3 4 5 6 
#
# 1 0.008644 -0.000039 -0.004354 0.000000 0.000000 0.000000
# 2 -0.000039 0.024217 -0.019969 0.000000 0.000000 0.000000
# 3 -0.004354 -0.019969 0.038928 0.000000 0.000000 0.000000
# 4 0.000000 0.000000 0.000000 0.043337 0.000000 0.000000
# 5 0.000000 0.000000 0.000000 0.000000 0.057844 0.000000
# 6 0.000000 0.000000 0.000000 0.000000 0.000000 0.036986
#
#
# Mechanical properties :
#
#
# Convention : Reuss Voigt Hill
#
# Bulk Modulus (GPa) = 43.35531 47.36574 45.36052
# Shear Modulus (GPa) = 18.77103 24.54952 21.66027
#
# Velocity S-wave (km/s) = 2.79994 3.20204 3.00772
# Velocity P-wave (km/s) = 5.34417 5.78385 5.56835
#
# Compressibility (1/GPa) = 0.02306522
#
# Stress axis : x y z
#
# Youngs Moduli (GPa) = 115.69228 41.29339 25.68829
#
# Poissons Ratio (x) = 0.00163 0.11184
# Poissons Ratio (y) = 0.00457 0.51296
# Poissons Ratio (z) = 0.50370 0.82457
#
# Static dielectric constant tensor:
#      x y z
#    x 2.012590 0.000000 0.000000 
#    y 0.000000 2.055790 0.000000 
#    z 0.000000 0.000000 1.861670 
# 
# From -- ./inp_files/57889.got.cif
#   From: 2010.05.17/outbox.cif.g08.bks.cpg/sg66_29_cif.got.tgz:57889.got - 2010.06.03 17:51:23.
