data_PCOD9497376
_publ_section_title
;
Structure prediction by ZEFSAII (Michael W. Deem and Ramdas Pophale) SiO2 
 PCOD9497376
Probable space group: C C C M
;
_chemical_formula_sum "Si O2"
_cell_formula_units_Z 80
_cell_length_a 18.620956
_cell_length_b 26.312085
_cell_length_c 8.749423
_cell_angle_alpha 90.000000
_cell_angle_beta 90.000000
_cell_angle_gamma 90.000000
_cell_volume 4286.833845
_symmetry_space_group_name_H-M "C C C M"
_symmetry_group_IT_number 66
_symmetry_cell_setting 'orthorhombic'
loop_
_space_group_symop_operation_xyz
x,y,z
-x,-y,z
x,-y,1/2-z
-x,y,1/2-z
-x,-y,-z
x,y,-z
-x,y,1/2+z
x,-y,1/2+z
1/2+x,1/2+y,z
1/2-x,1/2-y,z
1/2+x,1/2-y,1/2-z
1/2-x,1/2+y,1/2-z
1/2-x,1/2-y,-z
1/2+x,1/2+y,-z
1/2-x,1/2+y,1/2+z
1/2+x,1/2-y,1/2+z
loop_
_atom_site_type_symbol
_atom_site_label
_atom_site_fract_x
_atom_site_fract_y
_atom_site_fract_z
Si Si1 0.420462 0.849992 0.316637
Si Si2 0.667942 0.445604 0.183685
Si Si3 0.835307 0.445103 0.183494
Si Si4 0.333463 0.748145 0.315831
Si Si5 0.079744 0.846594 0.816441
O O1 0.500000 0.844423 0.250000
O O2 0.423701 0.853361 0.500000
O O3 0.383097 0.900192 0.250483
O O4 0.373197 0.800614 0.275465
O O5 0.645471 0.500000 0.250000
O O6 0.751430 0.436735 0.226901
O O7 0.618826 0.398733 0.233724
O O8 0.665351 0.448419 0.000000
O O9 0.856448 0.500000 0.250000
O O10 0.840323 0.445849 0.000000
O O11 0.336699 0.742449 0.500000
O O12 0.250000 0.750000 0.270580
O O13 0.373910 0.701005 0.240491
O O14 0.000000 0.843600 0.750000
O O15 0.076685 0.846101 0.000000
#
# Coordination Sequence:
#
# PCOD9497376 Si02
#       5
#    16  16  16  16  16
#     4  11  23  38  57  83 115 149 186 229 278 332
#     4   9  20  37  58  84 113 148 189 233 280 333
#     4  10  20  37  60  85 113 146 187 232 280 333
#     4  10  22  40  62  87 114 147 188 233 283 339
#     4  11  23  38  57  84 117 152 191 234 283 336
#
# _framework density 18.661791999999998
#
# number of rings (size 3 to 8) (size 9 to 14) (size 15 to 20)
#    0.000    1.800    0.000    3.600    0.000    6.800 
#    0.000    4.000    0.000    0.000    0.000    0.000 
#    0.000    0.000    0.000    0.000    0.000    0.000 
#
# Total GULP energy -223581.572973 kJ/mol
# GULP energy per Si atom -5589.539324 kJ/mol
# Density = 1.861932 g / cm^3
# Si number density = 18.661792 Si / 1000 Ang^3
#
#
#
# Elastic Constant Matrix: (Units=GPa)
#
#
# Indices 1 2 3 4 5 6 
#
# 1 169.8881 133.6077 56.1875 0.0000 0.0000 0.0000
# 2 133.6077 200.4905 64.8809 0.0000 0.0000 0.0000
# 3 56.1875 64.8809 45.3623 0.0000 0.0000 0.0000
# 4 0.0000 0.0000 0.0000 30.0165 0.0000 0.0000
# 5 0.0000 0.0000 0.0000 0.0000 19.2122 0.0000
# 6 0.0000 0.0000 0.0000 0.0000 0.0000 -100.6769
#
#
#
# Elastic Compliance Matrix: (Units=1/GPa)
#
#
# Indices 1 2 3 4 5 6 
#
# 1 0.013519 -0.006684 -0.007186 0.000000 0.000000 0.000000
# 2 -0.006684 0.012590 -0.009729 0.000000 0.000000 0.000000
# 3 -0.007186 -0.009729 0.044860 0.000000 0.000000 0.000000
# 4 0.000000 0.000000 0.000000 0.033315 0.000000 0.000000
# 5 0.000000 0.000000 0.000000 0.000000 0.052050 0.000000
# 6 0.000000 0.000000 0.000000 0.000000 0.000000 -0.009933
#
#
# Mechanical properties :
#
#
# Convention : Reuss Voigt Hill
#
# Bulk Modulus (GPa) = 42.06451 102.78813 72.42632
# Shear Modulus (GPa) = 24.81111 0.44801 12.62956
#
# Velocity S-wave (km/s) = 3.65021 0.49050 2.60428
# Velocity P-wave (km/s) = 6.35254 7.45116 6.92367
#
# Compressibility (1/GPa) = 0.02377301
#
# Stress axis : x y z
#
# Youngs Moduli (GPa) = 73.96807 79.42610 22.29171
#
# Poissons Ratio (x) = 0.53089 0.16018
# Poissons Ratio (y) = 0.49440 0.21687
# Poissons Ratio (z) = 0.53150 0.77271
#
# Static dielectric constant tensor:
#      x y z
#    x 1.621020 0.000000 0.000000 
#    y 0.000000 1.610380 0.000000 
#    z 0.000000 0.000000 1.624430 
# 
# From -- ./inp_files/6708.got.cif
#   From: 2010.05.17/outbox.cif.g08.bks.cpg/sg66_4_cif.got.tgz:6708.got - 2010.06.03 17:51:23.
