data_PCOD9497819
_publ_section_title
;
Structure prediction by ZEFSAII (Michael W. Deem and Ramdas Pophale) SiO2 
 PCOD9497819
Probable space group: C C C M
;
_chemical_formula_sum "Si O2"
_cell_formula_units_Z 96
_cell_length_a 26.267429
_cell_length_b 12.250579
_cell_length_c 14.377751
_cell_angle_alpha 90.000000
_cell_angle_beta 90.000000
_cell_angle_gamma 90.000000
_cell_volume 4626.633950
_symmetry_space_group_name_H-M "C C C M"
_symmetry_group_IT_number 66
_symmetry_cell_setting 'orthorhombic'
loop_
_space_group_symop_operation_xyz
x,y,z
-x,-y,z
x,-y,1/2-z
-x,y,1/2-z
-x,-y,-z
x,y,-z
-x,y,1/2+z
x,-y,1/2+z
1/2+x,1/2+y,z
1/2-x,1/2-y,z
1/2+x,1/2-y,1/2-z
1/2-x,1/2+y,1/2-z
1/2-x,1/2-y,-z
1/2+x,1/2+y,-z
1/2-x,1/2+y,1/2+z
1/2+x,1/2-y,1/2+z
loop_
_atom_site_type_symbol
_atom_site_label
_atom_site_fract_x
_atom_site_fract_y
_atom_site_fract_z
Si Si1 0.324607 0.558076 0.886005
Si Si2 0.883177 0.257944 0.887503
Si Si3 0.802619 0.187366 0.386890
Si Si4 0.286430 0.901065 0.113744
Si Si5 0.945658 0.535762 0.643859
Si Si6 0.153328 0.398200 0.106486
O O1 0.372445 0.633265 0.857386
O O2 0.317398 0.433467 0.852927
O O3 0.271548 0.617942 0.859629
O O4 0.326009 0.555637 0.000000
O O5 0.832176 0.323001 0.857557
O O6 0.930146 0.336702 0.860910
O O7 0.884353 0.258015 0.000000
O O8 0.799811 0.173711 0.500000
O O9 0.750000 0.250000 0.360502
O O10 0.845648 0.275523 0.357415
O O11 0.304065 0.021233 0.146340
O O12 0.286939 0.898527 0.000000
O O13 0.946734 0.500000 0.750000
O O14 0.898978 0.464178 0.605567
O O15 0.000000 0.500000 0.603525
O O16 0.169276 0.384883 0.000000
#
# Coordination Sequence:
#
# PCOD9497819 Si02
#       6
#    16  16  16  16  16  16
#     4   9  14  21  38  68 105 133 151 180 221 270
#     4   9  17  27  44  72  97 119 153 195 238 281
#     4   9  14  22  40  70 105 135 159 183 214 264
#     4   8  12  20  36  64  98 124 148 179 214 257
#     4  10  21  36  52  66  83 114 156 206 260 301
#     4   9  16  27  47  74  97 121 156 193 226 267
#
# _framework density 20.749427000000001
#
# number of rings (size 3 to 8) (size 9 to 14) (size 15 to 20)
#    0.000    3.000    1.667    2.000    0.000    3.333 
#    0.000    0.000    0.000    6.000    0.000    7.000 
#    0.000    0.000    0.000    0.000    0.000    0.000 
#
# Total GULP energy -267317.535404 kJ/mol
# GULP energy per Si atom -5569.115321 kJ/mol
# Density = 2.070220 g / cm^3
# Si number density = 20.749427 Si / 1000 Ang^3
#
#
#
# Elastic Constant Matrix: (Units=GPa)
#
#
# Indices 1 2 3 4 5 6 
#
# 1 92.8751 57.5945 -2.1698 0.0000 0.0000 0.0000
# 2 57.5945 154.1454 12.3413 0.0000 0.0000 0.0000
# 3 -2.1698 12.3413 60.8973 0.0000 0.0000 0.0000
# 4 0.0000 0.0000 0.0000 2.2437 0.0000 0.0000
# 5 0.0000 0.0000 0.0000 0.0000 -2.0749 0.0000
# 6 0.0000 0.0000 0.0000 0.0000 0.0000 23.2387
#
#
#
# Elastic Compliance Matrix: (Units=1/GPa)
#
#
# Indices 1 2 3 4 5 6 
#
# 1 0.014167 -0.005422 0.001603 0.000000 0.000000 0.000000
# 2 -0.005422 0.008669 -0.001950 0.000000 0.000000 0.000000
# 3 0.001603 -0.001950 0.016873 0.000000 0.000000 0.000000
# 4 0.000000 0.000000 0.000000 0.445701 0.000000 0.000000
# 5 0.000000 0.000000 0.000000 0.000000 -0.481962 0.000000
# 6 0.000000 0.000000 0.000000 0.000000 0.000000 0.043032
#
#
# Mechanical properties :
#
#
# Convention : Reuss Voigt Hill
#
# Bulk Modulus (GPa) = 35.49496 49.27221 42.38358
# Shear Modulus (GPa) = 74.17606 20.69161 47.43384
#
# Velocity S-wave (km/s) = 5.98549 3.16130 4.78643
# Velocity P-wave (km/s) = 8.05678 6.09286 7.14264
#
# Compressibility (1/GPa) = 0.02817302
#
# Stress axis : x y z
#
# Youngs Moduli (GPa) = 70.58813 115.35069 59.26483
#
# Poissons Ratio (x) = 0.62538 -0.09503
# Poissons Ratio (y) = 0.38270 0.11557
# Poissons Ratio (z) = -0.11319 0.22494
#
# Static dielectric constant tensor:
#      x y z
#    x 1.750870 0.000000 0.000000 
#    y 0.000000 1.839270 0.000000 
#    z 0.000000 0.000000 2.058960 
# 
# From -- ./inp_files/52528.got.cif
#   From: 2010.05.17/outbox.cif.g08.bks.cpg/sg66_27_cif.got.tgz:52528.got - 2010.06.03 17:51:23.
