data_PCOD9497396
_publ_section_title
;
Structure prediction by ZEFSAII (Michael W. Deem and Ramdas Pophale) SiO2 
 PCOD9497396
Probable space group: C C C M
;
_chemical_formula_sum "Si O2"
_cell_formula_units_Z 104
_cell_length_a 28.372058
_cell_length_b 20.216759
_cell_length_c 9.941352
_cell_angle_alpha 90.000000
_cell_angle_beta 90.000000
_cell_angle_gamma 90.000000
_cell_volume 5702.270621
_symmetry_space_group_name_H-M "C C C M"
_symmetry_group_IT_number 66
_symmetry_cell_setting 'orthorhombic'
loop_
_space_group_symop_operation_xyz
x,y,z
-x,-y,z
x,-y,1/2-z
-x,y,1/2-z
-x,-y,-z
x,y,-z
-x,y,1/2+z
x,-y,1/2+z
1/2+x,1/2+y,z
1/2-x,1/2-y,z
1/2+x,1/2-y,1/2-z
1/2-x,1/2+y,1/2-z
1/2-x,1/2-y,-z
1/2+x,1/2+y,-z
1/2-x,1/2+y,1/2+z
1/2+x,1/2-y,1/2+z
loop_
_atom_site_type_symbol
_atom_site_label
_atom_site_fract_x
_atom_site_fract_y
_atom_site_fract_z
Si Si1 0.681807 0.056082 0.651619
Si Si2 0.541465 0.246430 0.651444
Si Si3 0.208850 0.915819 0.355701
Si Si4 0.452411 0.403177 0.163340
Si Si5 0.371385 0.500000 0.250000
Si Si6 0.144067 0.700335 0.342967
Si Si7 0.702514 0.294479 0.158133
O O1 0.665092 0.044582 0.500000
O O2 0.738729 0.054886 0.649515
O O3 0.665703 0.129314 0.691400
O O4 0.664131 0.000000 0.750000
O O5 0.500000 0.228468 0.750000
O O6 0.523685 0.240797 0.500000
O O7 0.554523 0.324060 0.670534
O O8 0.587939 0.203063 0.666607
O O9 0.204767 0.879522 0.500000
O O10 0.205513 0.865003 0.232398
O O11 0.168062 0.971104 0.352641
O O12 0.500000 0.418114 0.250000
O O13 0.409285 0.439923 0.238634
O O14 0.454965 0.420303 0.000000
O O15 0.156605 0.714710 0.500000
O O16 0.164036 0.753850 0.240852
O O17 0.750000 0.250000 0.170593
O O18 0.692308 0.302242 0.000000
#
# Coordination Sequence:
#
# PCOD9497396 Si02
#       7
#    16  16  16  16   8  16  16
#     4  10  21  37  57  81 112 153 194 232 280 337
#     4   9  19  38  63  89 116 144 186 239 292 351
#     4  11  23  38  56  79 111 154 198 238 285 341
#     4  10  22  39  58  80 110 148 190 240 292 343
#     4  12  23  36  56  82 112 150 201 246 286 334
#     4  10  20  37  61  85 113 154 194 232 286 351
#     4  11  23  36  54  83 115 148 191 244 292 336
#
# _framework density 18.238347999999998
#
# number of rings (size 3 to 8) (size 9 to 14) (size 15 to 20)
#    0.000    1.692    2.308    2.077    0.000    6.769 
#    0.000    3.077    0.000    0.462    0.000    3.231 
#    0.000    0.000    0.000    0.000    0.000    0.000 
#
# Total GULP energy -289595.873779 kJ/mol
# GULP energy per Si atom -5569.151419 kJ/mol
# Density = 1.819684 g / cm^3
# Si number density = 18.238348 Si / 1000 Ang^3
#
#
#
# Elastic Constant Matrix: (Units=GPa)
#
#
# Indices 1 2 3 4 5 6 
#
# 1 71.5496 12.3618 24.8129 0.0000 0.0000 0.0000
# 2 12.3618 33.1983 36.8177 0.0000 0.0000 0.0000
# 3 24.8129 36.8177 96.0339 0.0000 0.0000 0.0000
# 4 0.0000 0.0000 0.0000 20.9295 0.0000 0.0000
# 5 0.0000 0.0000 0.0000 0.0000 20.6726 0.0000
# 6 0.0000 0.0000 0.0000 0.0000 0.0000 20.0466
#
#
#
# Elastic Compliance Matrix: (Units=1/GPa)
#
#
# Indices 1 2 3 4 5 6 
#
# 1 0.015453 -0.002307 -0.003108 0.000000 0.000000 0.000000
# 2 -0.002307 0.052747 -0.019626 0.000000 0.000000 0.000000
# 3 -0.003108 -0.019626 0.018740 0.000000 0.000000 0.000000
# 4 0.000000 0.000000 0.000000 0.047780 0.000000 0.000000
# 5 0.000000 0.000000 0.000000 0.000000 0.048373 0.000000
# 6 0.000000 0.000000 0.000000 0.000000 0.000000 0.049884
#
#
# Mechanical properties :
#
#
# Convention : Reuss Voigt Hill
#
# Bulk Modulus (GPa) = 27.13152 38.75183 32.94168
# Shear Modulus (GPa) = 16.92933 20.78236 18.85584
#
# Velocity S-wave (km/s) = 3.04999 3.37929 3.21885
# Velocity P-wave (km/s) = 5.22605 6.04315 5.64939
#
# Compressibility (1/GPa) = 0.03685750
#
# Stress axis : x y z
#
# Youngs Moduli (GPa) = 64.71319 18.95840 53.36062
#
# Poissons Ratio (x) = 0.04374 0.16585
# Poissons Ratio (y) = 0.14929 1.04727
# Poissons Ratio (z) = 0.20114 0.37208
#
# Static dielectric constant tensor:
#      x y z
#    x 1.619600 0.000000 0.000000 
#    y 0.000000 1.649980 0.000000 
#    z 0.000000 0.000000 1.650730 
# 
# From -- ./inp_files/11562.got.cif
#   From: 2010.05.17/outbox.cif.g08.bks.cpg/sg66_6_cif.got.tgz:11562.got - 2010.06.03 17:51:23.
