data_PCOD9497405
_publ_section_title
;
Structure prediction by ZEFSAII (Michael W. Deem and Ramdas Pophale) SiO2 
 PCOD9497405
Probable space group: C C C M
;
_chemical_formula_sum "Si O2"
_cell_formula_units_Z 80
_cell_length_a 17.595127
_cell_length_b 8.682482
_cell_length_c 26.481117
_cell_angle_alpha 90.000000
_cell_angle_beta 90.000000
_cell_angle_gamma 90.000000
_cell_volume 4045.503653
_symmetry_space_group_name_H-M "C C C M"
_symmetry_group_IT_number 66
_symmetry_cell_setting 'orthorhombic'
loop_
_space_group_symop_operation_xyz
x,y,z
-x,-y,z
x,-y,1/2-z
-x,y,1/2-z
-x,-y,-z
x,y,-z
-x,y,1/2+z
x,-y,1/2+z
1/2+x,1/2+y,z
1/2-x,1/2-y,z
1/2+x,1/2-y,1/2-z
1/2-x,1/2+y,1/2-z
1/2-x,1/2-y,-z
1/2+x,1/2+y,-z
1/2-x,1/2+y,1/2+z
1/2+x,1/2-y,1/2+z
loop_
_atom_site_type_symbol
_atom_site_label
_atom_site_fract_x
_atom_site_fract_y
_atom_site_fract_z
Si Si1 0.018605 0.680670 0.194714
Si Si2 0.236942 0.065274 0.000000
Si Si3 0.565383 0.627360 0.000000
Si Si4 0.062274 0.133296 0.108990
Si Si5 0.736141 0.433403 0.388266
Si Si6 0.689473 0.881679 0.703384
O O1 0.109072 0.693253 0.187807
O O2 0.000000 0.500000 0.194916
O O3 0.000000 0.746099 0.250000
O O4 0.964839 0.756203 0.153177
O O5 0.250000 0.250000 0.000000
O O6 0.262873 0.012073 0.944440
O O7 0.146331 0.041989 0.000000
O O8 0.500000 0.500000 0.000000
O O9 0.562811 0.713616 0.053540
O O10 0.144840 0.058166 0.116612
O O11 0.000000 0.000000 0.107323
O O12 0.750000 0.250000 0.384442
O O13 0.777408 0.524682 0.344141
O O14 0.750000 0.750000 0.717917
O O15 0.677126 0.000000 0.750000
#
# Coordination Sequence:
#
# PCOD9497405 Si02
#       6
#    16   8   8  16  16  16
#     4  11  23  41  56  79 117 154 183 234 297 335
#     4   8  16  32  56  88 116 146 186 230 278 334
#     4   8  16  32  56  84 116 144 180 232 284 324
#     4  10  20  37  61  88 113 149 193 234 275 338
#     4  10  20  37  63  88 116 152 193 234 279 340
#     4  12  25  40  58  83 114 151 194 239 290 343
#
# _framework density 19.775041000000002
#
# number of rings (size 3 to 8) (size 9 to 14) (size 15 to 20)
#    0.000    1.800    2.000    3.000    2.800    0.400 
#    0.000    2.000    0.000    0.000    0.000    0.000 
#    0.000    0.000    0.000    0.000    0.000    0.000 
#
# Total GULP energy -223081.284483 kJ/mol
# GULP energy per Si atom -5577.032112 kJ/mol
# Density = 1.973003 g / cm^3
# Si number density = 19.775041 Si / 1000 Ang^3
#
#
#
# Elastic Constant Matrix: (Units=GPa)
#
#
# Indices 1 2 3 4 5 6 
#
# 1 99.2812 -2.9298 21.5150 0.0000 0.0000 0.0000
# 2 -2.9298 19.0348 23.2367 0.0000 0.0000 0.0000
# 3 21.5150 23.2367 199.0987 0.0000 0.0000 0.0000
# 4 0.0000 0.0000 0.0000 29.2971 0.0000 0.0000
# 5 0.0000 0.0000 0.0000 0.0000 21.1234 0.0000
# 6 0.0000 0.0000 0.0000 0.0000 0.0000 24.9959
#
#
#
# Elastic Compliance Matrix: (Units=1/GPa)
#
#
# Indices 1 2 3 4 5 6 
#
# 1 0.010511 0.003503 -0.001545 0.000000 0.000000 0.000000
# 2 0.003503 0.062432 -0.007665 0.000000 0.000000 0.000000
# 3 -0.001545 -0.007665 0.006084 0.000000 0.000000 0.000000
# 4 0.000000 0.000000 0.000000 0.034133 0.000000 0.000000
# 5 0.000000 0.000000 0.000000 0.000000 0.047341 0.000000
# 6 0.000000 0.000000 0.000000 0.000000 0.000000 0.040007
#
#
# Mechanical properties :
#
#
# Convention : Reuss Voigt Hill
#
# Bulk Modulus (GPa) = 14.78988 44.56205 29.67596
# Shear Modulus (GPa) = 21.32585 33.45612 27.39098
#
# Velocity S-wave (km/s) = 3.28750 4.11766 3.72577
# Velocity P-wave (km/s) = 4.68033 6.72236 5.79205
#
# Compressibility (1/GPa) = 0.06761382
#
# Stress axis : x y z
#
# Youngs Moduli (GPa) = 95.14269 16.01753 164.36225
#
# Poissons Ratio (x) = -0.05612 0.25388
# Poissons Ratio (y) = -0.33332 1.25983
# Poissons Ratio (z) = 0.14696 0.12277
#
# Static dielectric constant tensor:
#      x y z
#    x 1.715710 0.000000 0.000000 
#    y 0.000000 1.659640 0.000000 
#    z 0.000000 0.000000 1.772890 
# 
# From -- ./inp_files/59319.got.cif
#   From: 2010.05.17/outbox.cif.g08.bks.cpg/sg66_30_cif.got.tgz:59319.got - 2010.06.03 17:51:23.
