data_PCOD9497518
_publ_section_title
;
Structure prediction by ZEFSAII (Michael W. Deem and Ramdas Pophale) SiO2 
 PCOD9497518
Probable space group: C C C M
;
_chemical_formula_sum "Si O2"
_cell_formula_units_Z 72
_cell_length_a 8.074225
_cell_length_b 24.627383
_cell_length_c 14.868568
_cell_angle_alpha 90.000000
_cell_angle_beta 90.000000
_cell_angle_gamma 90.000000
_cell_volume 2956.570610
_symmetry_space_group_name_H-M "C C C M"
_symmetry_group_IT_number 66
_symmetry_cell_setting 'orthorhombic'
loop_
_space_group_symop_operation_xyz
x,y,z
-x,-y,z
x,-y,1/2-z
-x,y,1/2-z
-x,-y,-z
x,y,-z
-x,y,1/2+z
x,-y,1/2+z
1/2+x,1/2+y,z
1/2-x,1/2-y,z
1/2+x,1/2-y,1/2-z
1/2-x,1/2+y,1/2-z
1/2-x,1/2-y,-z
1/2+x,1/2+y,-z
1/2-x,1/2+y,1/2+z
1/2+x,1/2-y,1/2+z
loop_
_atom_site_type_symbol
_atom_site_label
_atom_site_fract_x
_atom_site_fract_y
_atom_site_fract_z
Si Si1 0.929722 0.942199 0.348835
Si Si2 0.000000 0.251905 0.750000
Si Si3 0.565596 0.940270 0.395521
Si Si4 0.858757 0.175120 0.902285
Si Si5 0.955584 0.331092 0.397559
O O1 0.731925 0.942893 0.339649
O O2 0.949023 0.883614 0.396849
O O3 0.000000 0.937684 0.250000
O O4 0.000000 0.000000 0.387400
O O5 0.910809 0.212809 0.820652
O O6 0.100566 0.292010 0.817697
O O7 0.613846 0.929094 0.500000
O O8 0.431265 0.894375 0.372907
O O9 0.500000 0.000000 0.392156
O O10 0.658423 0.170893 0.897776
O O11 0.899703 0.199733 0.000000
O O12 0.897848 0.320031 0.500000
#
# Coordination Sequence:
#
# PCOD9497518 Si02
#       5
#    16   8  16  16  16
#     4  10  20  38  60  96 128 160 209 257 314 383
#     4  12  20  34  58  90 116 154 214 262 306 360
#     4   9  19  40  66  92 124 166 215 262 315 377
#     4  10  21  39  63  86 117 163 210 254 309 377
#     4   9  20  39  61  87 119 161 209 254 310 376
#
# _framework density 24.352537999999999
#
# number of rings (size 3 to 8) (size 9 to 14) (size 15 to 20)
#    0.000    2.222    1.111    3.333    0.000    3.556 
#   16.000    0.000    0.000   13.333    0.000    0.000 
#    0.000    0.000    0.000    0.000    0.000    0.000 
#
# Total GULP energy -201015.144749 kJ/mol
# GULP energy per Si atom -5583.754021 kJ/mol
# Density = 2.429711 g / cm^3
# Si number density = 24.352538 Si / 1000 Ang^3
#
#
#
# Elastic Constant Matrix: (Units=GPa)
#
#
# Indices 1 2 3 4 5 6 
#
# 1 19.8920 12.1740 36.6299 0.0000 0.0000 0.0000
# 2 12.1740 185.7292 75.9665 0.0000 0.0000 0.0000
# 3 36.6299 75.9665 167.5027 0.0000 0.0000 0.0000
# 4 0.0000 0.0000 0.0000 -34.5907 0.0000 0.0000
# 5 0.0000 0.0000 0.0000 0.0000 17.4426 0.0000
# 6 0.0000 0.0000 0.0000 0.0000 0.0000 31.6473
#
#
#
# Elastic Compliance Matrix: (Units=1/GPa)
#
#
# Indices 1 2 3 4 5 6 
#
# 1 0.085096 0.002497 -0.019741 0.000000 0.000000 0.000000
# 2 0.002497 0.006684 -0.003577 0.000000 0.000000 0.000000
# 3 -0.019741 -0.003577 0.011909 0.000000 0.000000 0.000000
# 4 0.000000 0.000000 0.000000 -0.028909 0.000000 0.000000
# 5 0.000000 0.000000 0.000000 0.000000 0.057331 0.000000
# 6 0.000000 0.000000 0.000000 0.000000 0.000000 0.031598
#
#
# Mechanical properties :
#
#
# Convention : Reuss Voigt Hill
#
# Bulk Modulus (GPa) = 16.11718 69.18499 42.65109
# Shear Modulus (GPa) = 22.12054 19.45674 20.78864
#
# Velocity S-wave (km/s) = 3.01715 2.82966 2.92491
# Velocity P-wave (km/s) = 4.33246 6.25679 5.38134
#
# Compressibility (1/GPa) = 0.06204559
#
# Stress axis : x y z
#
# Youngs Moduli (GPa) = 11.75143 149.61853 83.96669
#
# Poissons Ratio (x) = -0.37356 1.65762
# Poissons Ratio (y) = -0.02934 0.30037
# Poissons Ratio (z) = 0.23199 0.53522
#
# Static dielectric constant tensor:
#      x y z
#    x 2.006620 0.000000 0.000000 
#    y 0.000000 2.095550 0.000000 
#    z 0.000000 0.000000 1.907590 
# 
# From -- ./inp_files/24451.got.cif
#   From: 2010.05.17/outbox.cif.g08.bks.cpg/sg66_13_cif.got.tgz:24451.got - 2010.06.03 17:51:23.
