data_PCOD9497961
_publ_section_title
;
Structure prediction by ZEFSAII (Michael W. Deem and Ramdas Pophale) SiO2 
 PCOD9497961
Probable space group: C C C M
;
_chemical_formula_sum "Si O2"
_cell_formula_units_Z 56
_cell_length_a 35.028606
_cell_length_b 5.010437
_cell_length_c 15.047398
_cell_angle_alpha 90.000000
_cell_angle_beta 90.000000
_cell_angle_gamma 90.000000
_cell_volume 2640.948111
_symmetry_space_group_name_H-M "C C C M"
_symmetry_group_IT_number 66
_symmetry_cell_setting 'orthorhombic'
loop_
_space_group_symop_operation_xyz
x,y,z
-x,-y,z
x,-y,1/2-z
-x,y,1/2-z
-x,-y,-z
x,y,-z
-x,y,1/2+z
x,-y,1/2+z
1/2+x,1/2+y,z
1/2-x,1/2-y,z
1/2+x,1/2-y,1/2-z
1/2-x,1/2+y,1/2-z
1/2-x,1/2-y,-z
1/2+x,1/2+y,-z
1/2-x,1/2+y,1/2+z
1/2+x,1/2-y,1/2+z
loop_
_atom_site_type_symbol
_atom_site_label
_atom_site_fract_x
_atom_site_fract_y
_atom_site_fract_z
Si Si1 0.291547 0.251446 0.815320
Si Si2 0.130719 0.076444 0.101068
Si Si3 0.027730 0.251280 0.500000
Si Si4 0.584943 0.094545 0.846717
O O1 0.289067 0.500000 0.750000
O O2 0.250000 0.250000 0.862113
O O3 0.327948 0.305469 0.875896
O O4 0.297016 0.000000 0.750000
O O5 0.102017 0.325261 0.110925
O O6 0.117545 0.824197 0.160673
O O7 0.130207 0.976747 0.000000
O O8 0.054006 0.275701 0.587662
O O9 0.000000 0.500000 0.500000
O O10 0.000000 0.000000 0.500000
O O11 0.570902 0.000000 0.750000
#
# Coordination Sequence:
#
# PCOD9497961 Si02
#       4
#    16  16   8  16
#     4  10  21  37  58  89 131 179 230 282 335 390
#     4  12  22  40  66  98 136 175 230 281 329 390
#     4  12  26  48  74 102 141 172 213 278 336 404
#     4  12  25  45  71 101 135 179 224 269 333 403
#
# _framework density 21.204507
#
# number of rings (size 3 to 8) (size 9 to 14) (size 15 to 20)
#    0.000    0.571    2.857    6.857    0.000    1.143 
#    0.000    1.429    0.000    8.571    0.000    0.000 
#    0.000    0.000    0.000    0.000    0.000    0.000 
#
# Total GULP energy -156538.696367 kJ/mol
# GULP energy per Si atom -5590.667727 kJ/mol
# Density = 2.115624 g / cm^3
# Si number density = 21.204507 Si / 1000 Ang^3
#
#
#
# Elastic Constant Matrix: (Units=GPa)
#
#
# Indices 1 2 3 4 5 6 
#
# 1 123.5255 30.8098 53.1114 0.0000 0.0000 0.0000
# 2 30.8098 144.7218 20.7550 0.0000 0.0000 0.0000
# 3 53.1114 20.7550 117.8656 0.0000 0.0000 0.0000
# 4 0.0000 0.0000 0.0000 27.1030 0.0000 0.0000
# 5 0.0000 0.0000 0.0000 0.0000 29.3988 0.0000
# 6 0.0000 0.0000 0.0000 0.0000 0.0000 42.5755
#
#
#
# Elastic Compliance Matrix: (Units=1/GPa)
#
#
# Indices 1 2 3 4 5 6 
#
# 1 0.010381 -0.001579 -0.004400 0.000000 0.000000 0.000000
# 2 -0.001579 0.007329 -0.000579 0.000000 0.000000 0.000000
# 3 -0.004400 -0.000579 0.010569 0.000000 0.000000 0.000000
# 4 0.000000 0.000000 0.000000 0.036896 0.000000 0.000000
# 5 0.000000 0.000000 0.000000 0.000000 0.034015 0.000000
# 6 0.000000 0.000000 0.000000 0.000000 0.000000 0.023488
#
#
# Mechanical properties :
#
#
# Convention : Reuss Voigt Hill
#
# Bulk Modulus (GPa) = 65.94922 66.16283 66.05602
# Shear Modulus (GPa) = 35.49929 38.57791 37.03860
#
# Velocity S-wave (km/s) = 4.09606 4.26998 4.18393
# Velocity P-wave (km/s) = 7.31706 7.45522 7.38646
#
# Compressibility (1/GPa) = 0.01516318
#
# Stress axis : x y z
#
# Youngs Moduli (GPa) = 96.32910 136.44407 94.61831
#
# Poissons Ratio (x) = 0.21545 0.41630
# Poissons Ratio (y) = 0.15211 0.05479
# Poissons Ratio (z) = 0.42383 0.07901
#
# Static dielectric constant tensor:
#      x y z
#    x 1.839140 0.000000 0.000000 
#    y 0.000000 1.718700 0.000000 
#    z 0.000000 0.000000 1.815200 
# 
# From -- ./inp_files/22467.got.cif
#   From: 2010.05.17/outbox.cif.g08.bks.cpg/sg66_12_cif.got.tgz:22467.got - 2010.06.03 17:51:23.
