data_PCOD9497381
_publ_section_title
;
Structure prediction by ZEFSAII (Michael W. Deem and Ramdas Pophale) SiO2 
 PCOD9497381
Probable space group: C C C M
;
_chemical_formula_sum "Si O2"
_cell_formula_units_Z 96
_cell_length_a 10.479174
_cell_length_b 14.358807
_cell_length_c 30.387920
_cell_angle_alpha 90.000000
_cell_angle_beta 90.000000
_cell_angle_gamma 90.000000
_cell_volume 4572.422826
_symmetry_space_group_name_H-M "C C C M"
_symmetry_group_IT_number 66
_symmetry_cell_setting 'orthorhombic'
loop_
_space_group_symop_operation_xyz
x,y,z
-x,-y,z
x,-y,1/2-z
-x,y,1/2-z
-x,-y,-z
x,y,-z
-x,y,1/2+z
x,-y,1/2+z
1/2+x,1/2+y,z
1/2-x,1/2-y,z
1/2+x,1/2-y,1/2-z
1/2-x,1/2+y,1/2-z
1/2-x,1/2-y,-z
1/2+x,1/2+y,-z
1/2-x,1/2+y,1/2+z
1/2+x,1/2-y,1/2+z
loop_
_atom_site_type_symbol
_atom_site_label
_atom_site_fract_x
_atom_site_fract_y
_atom_site_fract_z
Si Si1 0.422928 0.644607 0.151801
Si Si2 0.115913 0.700562 0.086141
Si Si3 0.250031 0.013437 0.597358
Si Si4 0.013785 0.342881 0.500000
Si Si5 0.779463 0.854409 0.163310
Si Si6 0.287757 0.991069 0.500000
Si Si7 0.853990 0.888517 0.745058
O O1 0.422787 0.745944 0.130017
O O2 0.367206 0.571735 0.117089
O O3 0.569406 0.622117 0.161594
O O4 0.331156 0.636981 0.194301
O O5 0.250000 0.750000 0.073270
O O6 0.138441 0.591311 0.094655
O O7 0.021028 0.713131 0.045328
O O8 0.282070 0.929735 0.630693
O O9 0.220799 0.982808 0.547327
O O10 0.141558 0.407924 0.500000
O O11 0.896658 0.412761 0.500000
O O12 0.750000 0.750000 0.148429
O O13 0.758057 0.858398 0.216246
O O14 0.000000 0.851288 0.750000
O O15 0.859563 0.000000 0.750000
#
# Coordination Sequence:
#
# PCOD9497381 Si02
#       7
#    16  16  16   8  16   8  16
#     4  10  20  37  60  86 113 149 193 239 288 345
#     4   9  19  33  58  87 112 147 194 247 282 349
#     4  10  20  38  57  82 114 150 198 237 281 347
#     4   9  17  34  55  82 116 155 189 237 307 342
#     4  11  23  36  57  86 118 150 189 236 295 351
#     4   9  20  34  57  81 114 156 197 238 288 359
#     4   9  17  35  59  79 105 150 189 226 278 345
#
# _framework density 20.995433999999999
#
# number of rings (size 3 to 8) (size 9 to 14) (size 15 to 20)
#    0.000    2.333    1.667    0.750    2.333    4.000 
#    0.000    2.917    0.000    0.000    0.000    0.000 
#    0.000    0.000    0.000    0.000    0.000    0.000 
#
# Total GULP energy -267453.698220 kJ/mol
# GULP energy per Si atom -5571.952046 kJ/mol
# Density = 2.094765 g / cm^3
# Si number density = 20.995434 Si / 1000 Ang^3
#
#
#
# Elastic Constant Matrix: (Units=GPa)
#
#
# Indices 1 2 3 4 5 6 
#
# 1 9.6044 -7.4865 13.2841 0.0000 0.0000 0.0000
# 2 -7.4865 97.9792 56.6965 0.0000 0.0000 0.0000
# 3 13.2841 56.6965 182.7450 0.0000 0.0000 0.0000
# 4 0.0000 0.0000 0.0000 29.6769 0.0000 0.0000
# 5 0.0000 0.0000 0.0000 0.0000 3.5024 0.0000
# 6 0.0000 0.0000 0.0000 0.0000 0.0000 9.9741
#
#
#
# Elastic Compliance Matrix: (Units=1/GPa)
#
#
# Indices 1 2 3 4 5 6 
#
# 1 0.143623 0.020739 -0.016874 0.000000 0.000000 0.000000
# 2 0.020739 0.015434 -0.006296 0.000000 0.000000 0.000000
# 3 -0.016874 -0.006296 0.008652 0.000000 0.000000 0.000000
# 4 0.000000 0.000000 0.000000 0.033696 0.000000 0.000000
# 5 0.000000 0.000000 0.000000 0.000000 0.285515 0.000000
# 6 0.000000 0.000000 0.000000 0.000000 0.000000 0.100260
#
#
# Mechanical properties :
#
#
# Convention : Reuss Voigt Hill
#
# Bulk Modulus (GPa) = 6.14077 46.14630 26.14353
# Shear Modulus (GPa) = 7.73604 23.81968 15.77786
#
# Velocity S-wave (km/s) = 1.92162 3.37191 2.74431
# Velocity P-wave (km/s) = 2.80262 6.09809 4.74559
#
# Compressibility (1/GPa) = 0.16284615
#
# Stress axis : x y z
#
# Youngs Moduli (GPa) = 6.96265 64.79181 115.57974
#
# Poissons Ratio (x) = -1.34369 1.95034
# Poissons Ratio (y) = -0.14440 0.72768
# Poissons Ratio (z) = 0.11749 0.40792
#
# Static dielectric constant tensor:
#      x y z
#    x 1.779100 0.000000 0.000000 
#    y 0.000000 1.771060 0.000000 
#    z 0.000000 0.000000 1.892190 
# 
# From -- ./inp_files/69009.got.cif
#   From: 2010.05.17/outbox.cif.g08.bks.cpg/sg66_35_cif.got.tgz:69009.got - 2010.06.03 17:51:23.
