data_PCOD9497157
_publ_section_title
;
Structure prediction by ZEFSAII (Michael W. Deem and Ramdas Pophale) SiO2 
 PCOD9497157
Probable space group: C C C M
;
_chemical_formula_sum "Si O2"
_cell_formula_units_Z 116
_cell_length_a 29.797350
_cell_length_b 25.112354
_cell_length_c 7.894980
_cell_angle_alpha 90.000000
_cell_angle_beta 90.000000
_cell_angle_gamma 90.000000
_cell_volume 5907.668278
_symmetry_space_group_name_H-M "C C C M"
_symmetry_group_IT_number 66
_symmetry_cell_setting 'orthorhombic'
loop_
_space_group_symop_operation_xyz
x,y,z
-x,-y,z
x,-y,1/2-z
-x,y,1/2-z
-x,-y,-z
x,y,-z
-x,y,1/2+z
x,-y,1/2+z
1/2+x,1/2+y,z
1/2-x,1/2-y,z
1/2+x,1/2-y,1/2-z
1/2-x,1/2+y,1/2-z
1/2-x,1/2-y,-z
1/2+x,1/2+y,-z
1/2-x,1/2+y,1/2+z
1/2+x,1/2-y,1/2+z
loop_
_atom_site_type_symbol
_atom_site_label
_atom_site_fract_x
_atom_site_fract_y
_atom_site_fract_z
Si Si1 0.250000 0.250000 0.000000
Si Si2 0.380174 0.650623 0.300292
Si Si3 0.779504 0.835290 0.700884
Si Si4 0.876706 0.441661 0.799344
Si Si5 0.775196 0.441158 0.797184
Si Si6 0.050780 0.061859 0.299739
Si Si7 0.950912 0.642472 0.799818
Si Si8 0.549681 0.737308 0.795832
O O1 0.232826 0.208186 0.154514
O O2 0.371782 0.658770 0.500000
O O3 0.332451 0.651925 0.210319
O O4 0.410548 0.598090 0.279989
O O5 0.411522 0.698632 0.234148
O O6 0.768580 0.822008 0.500000
O O7 0.753574 0.889857 0.750000
O O8 0.893956 0.500000 0.750000
O O9 0.826207 0.436120 0.727478
O O10 0.910663 0.395912 0.747446
O O11 0.873093 0.439891 0.000000
O O12 0.757860 0.500000 0.750000
O O13 0.777476 0.440500 0.000000
O O14 0.054610 0.066748 0.500000
O O15 0.000000 0.078433 0.250000
O O16 0.055574 0.000000 0.250000
O O17 0.945884 0.702346 0.728309
O O18 0.000000 0.621502 0.750000
O O19 0.950913 0.647778 0.000000
O O20 0.500000 0.717886 0.750000
O O21 0.552512 0.738138 0.000000
#
# Coordination Sequence:
#
# PCOD9497157 Si02
#       8
#     4  16  16  16  16  16  16  16
#     4  12  26  48  68  94 132 178 218 272 348 406
#     4  11  22  40  62  93 128 166 215 269 325 387
#     4  11  25  46  68  99 133 175 224 277 340 406
#     4  10  20  37  58  87 117 152 193 244 301 364
#     4   9  21  40  66  95 126 162 211 266 324 388
#     4  11  22  38  60  91 129 177 222 275 333 397
#     4  10  20  36  55  82 114 152 193 242 292 356
#     4   9  20  36  57  84 119 160 207 250 303 363
#
# _framework density 19.635496
#
# number of rings (size 3 to 8) (size 9 to 14) (size 15 to 20)
#    0.000    1.793    0.690    3.517    0.966    5.241 
#    2.483    4.138    0.000    0.000    0.000    0.000 
#    0.000    0.000    0.000    0.000    0.000    0.000 
#
# Total GULP energy -323126.242549 kJ/mol
# GULP energy per Si atom -5571.142113 kJ/mol
# Density = 1.959081 g / cm^3
# Si number density = 19.635496 Si / 1000 Ang^3
#
#
#
# Elastic Constant Matrix: (Units=GPa)
#
#
# Indices 1 2 3 4 5 6 
#
# 1 104.3145 85.7185 18.8454 0.0000 0.0000 0.0000
# 2 85.7185 113.4597 23.0010 0.0000 0.0000 0.0000
# 3 18.8454 23.0010 76.1236 0.0000 0.0000 0.0000
# 4 0.0000 0.0000 0.0000 16.5744 0.0000 0.0000
# 5 0.0000 0.0000 0.0000 0.0000 24.4736 0.0000
# 6 0.0000 0.0000 0.0000 0.0000 0.0000 32.6713
#
#
#
# Elastic Compliance Matrix: (Units=1/GPa)
#
#
# Indices 1 2 3 4 5 6 
#
# 1 0.025301 -0.019009 -0.000520 0.000000 0.000000 0.000000
# 2 -0.019009 0.023671 -0.002446 0.000000 0.000000 0.000000
# 3 -0.000520 -0.002446 0.014004 0.000000 0.000000 0.000000
# 4 0.000000 0.000000 0.000000 0.060334 0.000000 0.000000
# 5 0.000000 0.000000 0.000000 0.000000 0.040860 0.000000
# 6 0.000000 0.000000 0.000000 0.000000 0.000000 0.030608
#
#
# Mechanical properties :
#
#
# Convention : Reuss Voigt Hill
#
# Bulk Modulus (GPa) = 52.56122 61.00307 56.78215
# Shear Modulus (GPa) = 20.40219 25.83273 23.11746
#
# Velocity S-wave (km/s) = 3.22692 3.63107 3.43495
# Velocity P-wave (km/s) = 6.38049 6.97960 6.68676
#
# Compressibility (1/GPa) = 0.01902543
#
# Stress axis : x y z
#
# Youngs Moduli (GPa) = 39.52413 42.24536 71.40628
#
# Poissons Ratio (x) = 0.80306 0.03712
# Poissons Ratio (y) = 0.75133 0.17468
# Poissons Ratio (z) = 0.02055 0.10334
#
# Static dielectric constant tensor:
#      x y z
#    x 1.728880 0.000000 0.000000 
#    y 0.000000 1.644550 0.000000 
#    z 0.000000 0.000000 1.711680 
# 
# From -- ./inp_files/10621.got.cif
#   From: 2010.05.17/outbox.cif.g08.bks.cpg/sg66_6_cif.got.tgz:10621.got - 2010.06.03 17:51:23.
