data_PCOD9497242
_publ_section_title
;
Structure prediction by ZEFSAII (Michael W. Deem and Ramdas Pophale) SiO2 
 PCOD9497242
Probable space group: C C C M
;
_chemical_formula_sum "Si O2"
_cell_formula_units_Z 100
_cell_length_a 18.840939
_cell_length_b 19.780626
_cell_length_c 14.629042
_cell_angle_alpha 90.000000
_cell_angle_beta 90.000000
_cell_angle_gamma 90.000000
_cell_volume 5452.032825
_symmetry_space_group_name_H-M "C C C M"
_symmetry_group_IT_number 66
_symmetry_cell_setting 'orthorhombic'
loop_
_space_group_symop_operation_xyz
x,y,z
-x,-y,z
x,-y,1/2-z
-x,y,1/2-z
-x,-y,-z
x,y,-z
-x,y,1/2+z
x,-y,1/2+z
1/2+x,1/2+y,z
1/2-x,1/2-y,z
1/2+x,1/2-y,1/2-z
1/2-x,1/2+y,1/2-z
1/2-x,1/2-y,-z
1/2+x,1/2+y,-z
1/2-x,1/2+y,1/2+z
1/2+x,1/2-y,1/2+z
loop_
_atom_site_type_symbol
_atom_site_label
_atom_site_fract_x
_atom_site_fract_y
_atom_site_fract_z
Si Si1 0.672321 0.555886 0.109762
Si Si2 0.828455 0.101448 0.893342
Si Si3 0.250000 0.250000 0.000000
Si Si4 0.918069 0.844252 0.768991
Si Si5 0.417412 0.811575 0.735636
Si Si6 0.196299 0.687995 0.106648
Si Si7 0.686052 0.123119 0.600425
O O1 0.659085 0.477233 0.127632
O O2 0.617156 0.605023 0.158895
O O3 0.751768 0.576263 0.139741
O O4 0.669750 0.566874 0.000000
O O5 0.875537 0.145281 0.825229
O O6 0.746427 0.122421 0.881874
O O7 0.845983 0.114053 0.000000
O O8 0.275706 0.194821 0.078032
O O9 0.913105 0.766254 0.799481
O O10 0.000000 0.860244 0.750000
O O11 0.500000 0.826911 0.750000
O O12 0.371005 0.813409 0.828032
O O13 0.379110 0.861472 0.665353
O O14 0.250000 0.750000 0.128625
O O15 0.176611 0.694811 0.000000
O O16 0.664004 0.096402 0.500000
#
# Coordination Sequence:
#
# PCOD9497242 Si02
#       7
#    16  16   4  16  16  16  16
#     4  10  21  36  56  81 107 139 182 225 269 317
#     4  10  21  37  57  80 104 140 186 225 263 318
#     4   8  16  28  56  80  98 132 176 216 268 296
#     4  11  23  35  50  77 114 150 181 217 263 319
#     4  11  23  35  54  83 113 144 177 221 273 320
#     4  10  20  36  60  78 102 140 186 228 265 307
#     4   9  19  33  56  82 104 134 178 228 272 312
#
# _framework density 18.341781999999998
#
# number of rings (size 3 to 8) (size 9 to 14) (size 15 to 20)
#    0.480    1.440    1.600    2.400    1.120    2.560 
#    0.000    4.800    0.000    1.920    0.000    4.480 
#    0.000    0.000    0.000    0.000    0.000    0.000 
#
# Total GULP energy -278437.615045 kJ/mol
# GULP energy per Si atom -5568.752301 kJ/mol
# Density = 1.830004 g / cm^3
# Si number density = 18.341782 Si / 1000 Ang^3
#
#
#
# Elastic Constant Matrix: (Units=GPa)
#
#
# Indices 1 2 3 4 5 6 
#
# 1 103.5724 17.1328 40.7007 0.0000 0.0000 0.0000
# 2 17.1328 23.2021 7.6228 0.0000 0.0000 0.0000
# 3 40.7007 7.6228 47.9957 0.0000 0.0000 0.0000
# 4 0.0000 0.0000 0.0000 12.0991 0.0000 0.0000
# 5 0.0000 0.0000 0.0000 0.0000 -13.6263 0.0000
# 6 0.0000 0.0000 0.0000 0.0000 0.0000 14.7426
#
#
#
# Elastic Compliance Matrix: (Units=1/GPa)
#
#
# Indices 1 2 3 4 5 6 
#
# 1 0.015654 -0.007594 -0.012068 0.000000 0.000000 0.000000
# 2 -0.007594 0.049156 -0.001367 0.000000 0.000000 0.000000
# 3 -0.012068 -0.001367 0.031286 0.000000 0.000000 0.000000
# 4 0.000000 0.000000 0.000000 0.082651 0.000000 0.000000
# 5 0.000000 0.000000 0.000000 0.000000 -0.073387 0.000000
# 6 0.000000 0.000000 0.000000 0.000000 0.000000 0.067831
#
#
# Mechanical properties :
#
#
# Convention : Reuss Voigt Hill
#
# Bulk Modulus (GPa) = 18.50583 33.96474 26.23528
# Shear Modulus (GPa) = 21.43507 9.93067 15.68287
#
# Velocity S-wave (km/s) = 3.42226 2.32937 2.92727
# Velocity P-wave (km/s) = 5.07219 5.07864 5.07541
#
# Compressibility (1/GPa) = 0.05403703
#
# Stress axis : x y z
#
# Youngs Moduli (GPa) = 63.88228 20.34327 31.96274
#
# Poissons Ratio (x) = 0.15449 0.38574
# Poissons Ratio (y) = 0.48513 0.04370
# Poissons Ratio (z) = 0.77096 0.02781
#
# Static dielectric constant tensor:
#      x y z
#    x 1.603000 0.000000 0.000000 
#    y 0.000000 1.645030 0.000000 
#    z 0.000000 0.000000 1.662160 
# 
# From -- ./inp_files/40559.got.cif
#   From: 2010.05.17/outbox.cif.g08.bks.cpg/sg66_21_cif.got.tgz:40559.got - 2010.06.03 17:51:23.
