data_PCOD9497324
_publ_section_title
;
Structure prediction by ZEFSAII (Michael W. Deem and Ramdas Pophale) SiO2 
 PCOD9497324
Probable space group: C C C M
;
_chemical_formula_sum "Si O2"
_cell_formula_units_Z 72
_cell_length_a 15.890145
_cell_length_b 7.430577
_cell_length_c 29.254876
_cell_angle_alpha 90.000000
_cell_angle_beta 90.000000
_cell_angle_gamma 90.000000
_cell_volume 3454.209393
_symmetry_space_group_name_H-M "C C C M"
_symmetry_group_IT_number 66
_symmetry_cell_setting 'orthorhombic'
loop_
_space_group_symop_operation_xyz
x,y,z
-x,-y,z
x,-y,1/2-z
-x,y,1/2-z
-x,-y,-z
x,y,-z
-x,y,1/2+z
x,-y,1/2+z
1/2+x,1/2+y,z
1/2-x,1/2-y,z
1/2+x,1/2-y,1/2-z
1/2-x,1/2+y,1/2-z
1/2-x,1/2-y,-z
1/2+x,1/2+y,-z
1/2-x,1/2+y,1/2+z
1/2+x,1/2-y,1/2+z
loop_
_atom_site_type_symbol
_atom_site_label
_atom_site_fract_x
_atom_site_fract_y
_atom_site_fract_z
Si Si1 0.872117 0.413254 0.947446
Si Si2 0.500000 0.500000 0.323867
Si Si3 0.133445 0.000000 0.250000
Si Si4 0.107787 0.286128 0.121278
Si Si5 0.671286 0.487287 0.052031
Si Si6 0.750000 0.750000 0.189739
O O1 0.912736 0.543777 0.910333
O O2 0.771427 0.453560 0.946416
O O3 0.876683 0.199979 0.937679
O O4 0.899701 0.444376 0.000000
O O5 0.572337 0.574358 0.289776
O O6 0.537283 0.332079 0.352489
O O7 0.193798 0.130522 0.222570
O O8 0.180986 0.343353 0.156907
O O9 0.147534 0.140349 0.086909
O O10 0.650334 0.540313 0.000000
#
# Coordination Sequence:
#
# PCOD9497324 Si02
#       6
#    16   8   8  16  16   8
#     4   9  17  30  52  86 125 156 197 249 287 325
#     4   9  22  38  61  80 130 154 185 244 336 353
#     4   9  20  44  62  87 114 150 186 263 312 380
#     4  11  18  35  57  89 110 161 198 240 280 372
#     4   9  17  30  52  86 123 156 196 250 288 321
#     4  10  20  36  65  86 104 144 207 238 304 358
#
# _framework density 20.844132999999999
#
# number of rings (size 3 to 8) (size 9 to 14) (size 15 to 20)
#    0.000    2.444    2.222    2.000    0.000    1.778 
#    8.000    3.333    4.889    4.000    0.000    0.000 
#    0.000    0.000    0.000    0.000    0.000    0.000 
#
# Total GULP energy -200880.916783 kJ/mol
# GULP energy per Si atom -5580.025466 kJ/mol
# Density = 2.079669 g / cm^3
# Si number density = 20.844133 Si / 1000 Ang^3
#
#
#
# Elastic Constant Matrix: (Units=GPa)
#
#
# Indices 1 2 3 4 5 6 
#
# 1 96.7582 42.8189 56.1825 0.0000 0.0000 0.0000
# 2 42.8189 63.6383 62.2942 0.0000 0.0000 0.0000
# 3 56.1825 62.2942 122.8037 0.0000 0.0000 0.0000
# 4 0.0000 0.0000 0.0000 -63.9308 0.0000 0.0000
# 5 0.0000 0.0000 0.0000 0.0000 42.9465 0.0000
# 6 0.0000 0.0000 0.0000 0.0000 0.0000 15.4328
#
#
#
# Elastic Compliance Matrix: (Units=1/GPa)
#
#
# Indices 1 2 3 4 5 6 
#
# 1 0.015467 -0.006913 -0.003569 0.000000 0.000000 0.000000
# 2 -0.006913 0.034302 -0.014238 0.000000 0.000000 0.000000
# 3 -0.003569 -0.014238 0.016998 0.000000 0.000000 0.000000
# 4 0.000000 0.000000 0.000000 -0.015642 0.000000 0.000000
# 5 0.000000 0.000000 0.000000 0.000000 0.023285 0.000000
# 6 0.000000 0.000000 0.000000 0.000000 0.000000 0.064797
#
#
# Mechanical properties :
#
#
# Convention : Reuss Voigt Hill
#
# Bulk Modulus (GPa) = 57.71192 67.31017 62.51104
# Shear Modulus (GPa) = 25.71721 7.01668 16.36694
#
# Velocity S-wave (km/s) = 3.51634 1.83673 2.80519
# Velocity P-wave (km/s) = 6.65084 6.07127 6.36765
#
# Compressibility (1/GPa) = 0.01732744
#
# Stress axis : x y z
#
# Youngs Moduli (GPa) = 64.65486 29.15282 58.82915
#
# Poissons Ratio (x) = 0.20153 0.20999
# Poissons Ratio (y) = 0.44694 0.83759
# Poissons Ratio (z) = 0.23078 0.41507
#
# Static dielectric constant tensor:
#      x y z
#    x 1.835140 0.000000 0.000000 
#    y 0.000000 1.778280 0.000000 
#    z 0.000000 0.000000 1.754900 
# 
# From -- ./inp_files/64997.got.cif
#   From: 2010.05.17/outbox.cif.g08.bks.cpg/sg66_33_cif.got.tgz:64997.got - 2010.06.03 17:51:23.
