data_PCOD9497051
_publ_section_title
;
Structure prediction by ZEFSAII (Michael W. Deem and Ramdas Pophale) SiO2 
 PCOD9497051
Probable space group: C C C M
;
_chemical_formula_sum "Si O2"
_cell_formula_units_Z 64
_cell_length_a 17.472517
_cell_length_b 11.744678
_cell_length_c 15.030205
_cell_angle_alpha 90.000000
_cell_angle_beta 90.000000
_cell_angle_gamma 90.000000
_cell_volume 3084.334631
_symmetry_space_group_name_H-M "C C C M"
_symmetry_group_IT_number 66
_symmetry_cell_setting 'orthorhombic'
loop_
_space_group_symop_operation_xyz
x,y,z
-x,-y,z
x,-y,1/2-z
-x,y,1/2-z
-x,-y,-z
x,y,-z
-x,y,1/2+z
x,-y,1/2+z
1/2+x,1/2+y,z
1/2-x,1/2-y,z
1/2+x,1/2-y,1/2-z
1/2-x,1/2+y,1/2-z
1/2-x,1/2-y,-z
1/2+x,1/2+y,-z
1/2-x,1/2+y,1/2+z
1/2+x,1/2-y,1/2+z
loop_
_atom_site_type_symbol
_atom_site_label
_atom_site_fract_x
_atom_site_fract_y
_atom_site_fract_z
Si Si1 0.311150 0.666954 0.101037
Si Si2 0.479511 0.628326 0.108561
Si Si3 0.634234 0.745632 0.893353
Si Si4 0.257243 0.938710 0.343694
O O1 0.250000 0.750000 0.146382
O O2 0.395337 0.660636 0.142395
O O3 0.274007 0.542454 0.097273
O O4 0.322720 0.710133 0.000000
O O5 0.500000 0.500000 0.137267
O O6 0.547351 0.715109 0.131532
O O7 0.475549 0.624371 0.000000
O O8 0.667205 0.870649 0.873115
O O9 0.689846 0.654698 0.846383
O O10 0.642250 0.727098 0.000000
O O11 0.268194 0.000000 0.250000
#
# Coordination Sequence:
#
# PCOD9497051 Si02
#       4
#    16  16  16  16
#     4  10  20  35  57  84 116 152 191 239 295 351
#     4   9  16  32  59  89 112 140 197 254 280 328
#     4  10  20  38  64  88 114 157 208 247 292 355
#     4  11  22  34  56  84 123 152 193 244 301 354
#
# _framework density 20.750019000000002
#
# number of rings (size 3 to 8) (size 9 to 14) (size 15 to 20)
#    0.000    2.000    2.500    3.000    3.500    0.000 
#    0.000    3.750    0.000    7.500    0.000    0.000 
#    0.000    0.000    0.000    0.000    0.000    0.000 
#
# Total GULP energy -178604.935672 kJ/mol
# GULP energy per Si atom -5581.404240 kJ/mol
# Density = 2.070279 g / cm^3
# Si number density = 20.750019 Si / 1000 Ang^3
#
#
#
# Elastic Constant Matrix: (Units=GPa)
#
#
# Indices 1 2 3 4 5 6 
#
# 1 218.4710 99.5342 27.2767 0.0000 0.0000 0.0000
# 2 99.5342 106.5793 16.1068 0.0000 0.0000 0.0000
# 3 27.2767 16.1068 58.1657 0.0000 0.0000 0.0000
# 4 0.0000 0.0000 0.0000 35.4342 0.0000 0.0000
# 5 0.0000 0.0000 0.0000 0.0000 5.7560 0.0000
# 6 0.0000 0.0000 0.0000 0.0000 0.0000 39.2929
#
#
#
# Elastic Compliance Matrix: (Units=1/GPa)
#
#
# Indices 1 2 3 4 5 6 
#
# 1 0.008141 -0.007333 -0.001787 0.000000 0.000000 0.000000
# 2 -0.007333 0.016398 -0.001102 0.000000 0.000000 0.000000
# 3 -0.001787 -0.001102 0.018336 0.000000 0.000000 0.000000
# 4 0.000000 0.000000 0.000000 0.028221 0.000000 0.000000
# 5 0.000000 0.000000 0.000000 0.000000 0.173731 0.000000
# 6 0.000000 0.000000 0.000000 0.000000 0.000000 0.025450
#
#
# Mechanical properties :
#
#
# Convention : Reuss Voigt Hill
#
# Bulk Modulus (GPa) = 44.58307 74.33904 59.46106
# Shear Modulus (GPa) = 16.76744 32.11653 24.44198
#
# Velocity S-wave (km/s) = 2.84574 3.93846 3.43582
# Velocity P-wave (km/s) = 5.68595 7.52235 6.66767
#
# Compressibility (1/GPa) = 0.02243004
#
# Stress axis : x y z
#
# Youngs Moduli (GPa) = 122.83051 60.98484 54.53898
#
# Poissons Ratio (x) = 0.44720 0.09747
# Poissons Ratio (y) = 0.90072 0.06009
# Poissons Ratio (z) = 0.21953 0.06720
#
# Static dielectric constant tensor:
#      x y z
#    x 1.765560 0.000000 0.000000 
#    y 0.000000 1.712820 0.000000 
#    z 0.000000 0.000000 1.807220 
# 
# From -- ./inp_files/25772.got.cif
#   From: 2010.05.17/outbox.cif.g08.bks.cpg/sg66_13_cif.got.tgz:25772.got - 2010.06.03 17:51:23.
