data_PCOD9497123
_publ_section_title
;
Structure prediction by ZEFSAII (Michael W. Deem and Ramdas Pophale) SiO2 
 PCOD9497123
Probable space group: C C C M
;
_chemical_formula_sum "Si O2"
_cell_formula_units_Z 116
_cell_length_a 28.122427
_cell_length_b 8.439531
_cell_length_c 23.551443
_cell_angle_alpha 90.000000
_cell_angle_beta 90.000000
_cell_angle_gamma 90.000000
_cell_volume 5589.701706
_symmetry_space_group_name_H-M "C C C M"
_symmetry_group_IT_number 66
_symmetry_cell_setting 'orthorhombic'
loop_
_space_group_symop_operation_xyz
x,y,z
-x,-y,z
x,-y,1/2-z
-x,y,1/2-z
-x,-y,-z
x,y,-z
-x,y,1/2+z
x,-y,1/2+z
1/2+x,1/2+y,z
1/2-x,1/2-y,z
1/2+x,1/2-y,1/2-z
1/2-x,1/2+y,1/2-z
1/2-x,1/2-y,-z
1/2+x,1/2+y,-z
1/2-x,1/2+y,1/2+z
1/2+x,1/2-y,1/2+z
loop_
_atom_site_type_symbol
_atom_site_label
_atom_site_fract_x
_atom_site_fract_y
_atom_site_fract_z
Si Si1 0.386775 0.021468 0.815058
Si Si2 0.000000 0.000000 0.750000
Si Si3 0.296396 0.804503 0.639229
Si Si4 0.452797 0.695383 0.648986
Si Si5 0.519384 0.821034 0.439272
Si Si6 0.367763 0.581507 0.431460
Si Si7 0.626531 0.214837 0.911503
Si Si8 0.273772 0.910294 0.063254
O O1 0.337058 0.113713 0.823471
O O2 0.428134 0.134397 0.839451
O O3 0.397329 0.000000 0.750000
O O4 0.380769 0.856248 0.848415
O O5 0.966739 0.104026 0.707002
O O6 0.250000 0.750000 0.674292
O O7 0.326716 0.687201 0.598218
O O8 0.270209 0.934011 0.599865
O O9 0.500692 0.722439 0.613625
O O10 0.415748 0.615716 0.604847
O O11 0.501734 0.756511 0.500000
O O12 0.575944 0.817354 0.439359
O O13 0.500000 0.000000 0.434924
O O14 0.371426 0.609437 0.500000
O O15 0.359114 0.396244 0.419870
O O16 0.669664 0.117329 0.938001
O O17 0.250000 0.750000 0.087081
O O18 0.254069 0.932221 0.000000
#
# Coordination Sequence:
#
# PCOD9497123 Si02
#       8
#    16   4  16  16  16  16  16  16
#     4  10  24  44  66  86 124 169 221 276 323 381
#     4  12  28  40  68  92 132 164 230 274 332 376
#     4  10  22  41  62  94 130 166 218 268 337 405
#     4  11  25  43  62  95 127 173 215 273 320 394
#     4  11  22  38  63  94 129 168 214 265 328 398
#     4  11  23  40  65  96 137 176 210 264 336 407
#     4  11  22  39  60  93 124 167 218 265 324 387
#     4  10  20  35  60  92 127 167 213 265 325 395
#
# _framework density 20.752448999999999
#
# number of rings (size 3 to 8) (size 9 to 14) (size 15 to 20)
#    0.000    1.379    1.379    3.724    3.862    2.207 
#    0.000    6.207    0.000    0.000    0.000    0.000 
#    0.000    0.000    0.000    0.000    0.000    0.000 
#
# Total GULP energy -323564.676707 kJ/mol
# GULP energy per Si atom -5578.701323 kJ/mol
# Density = 2.070522 g / cm^3
# Si number density = 20.752449 Si / 1000 Ang^3
#
#
#
# Elastic Constant Matrix: (Units=GPa)
#
#
# Indices 1 2 3 4 5 6 
#
# 1 106.5633 0.5890 4.6947 0.0000 0.0000 0.0000
# 2 0.5890 41.5630 6.6786 0.0000 0.0000 0.0000
# 3 4.6947 6.6786 96.5762 0.0000 0.0000 0.0000
# 4 0.0000 0.0000 0.0000 21.0785 0.0000 0.0000
# 5 0.0000 0.0000 0.0000 0.0000 7.7751 0.0000
# 6 0.0000 0.0000 0.0000 0.0000 0.0000 26.6279
#
#
#
# Elastic Compliance Matrix: (Units=1/GPa)
#
#
# Indices 1 2 3 4 5 6 
#
# 1 0.009404 -0.000060 -0.000453 0.000000 0.000000 0.000000
# 2 -0.000060 0.024331 -0.001680 0.000000 0.000000 0.000000
# 3 -0.000453 -0.001680 0.010493 0.000000 0.000000 0.000000
# 4 0.000000 0.000000 0.000000 0.047442 0.000000 0.000000
# 5 0.000000 0.000000 0.000000 0.000000 0.128615 0.000000
# 6 0.000000 0.000000 0.000000 0.000000 0.000000 0.037555
#
#
# Mechanical properties :
#
#
# Convention : Reuss Voigt Hill
#
# Bulk Modulus (GPa) = 25.09941 29.84744 27.47343
# Shear Modulus (GPa) = 18.14844 26.61233 22.38038
#
# Velocity S-wave (km/s) = 2.96044 3.58491 3.28753
# Velocity P-wave (km/s) = 4.87919 5.61687 5.26098
#
# Compressibility (1/GPa) = 0.03984157
#
# Stress axis : x y z
#
# Youngs Moduli (GPa) = 106.33339 41.10047 95.30444
#
# Poissons Ratio (x) = 0.00249 0.04317
# Poissons Ratio (y) = 0.00643 0.16007
# Poissons Ratio (z) = 0.04817 0.06903
#
# Static dielectric constant tensor:
#      x y z
#    x 1.754140 0.000000 0.000000 
#    y 0.000000 1.790970 0.000000 
#    z 0.000000 0.000000 1.737990 
# 
# From -- ./inp_files/60217.got.cif
#   From: 2010.05.17/outbox.cif.g08.bks.cpg/sg66_31_cif.got.tgz:60217.got - 2010.06.03 17:51:23.
