data_PCOD9497873
_publ_section_title
;
Structure prediction by ZEFSAII (Michael W. Deem and Ramdas Pophale) SiO2 
 PCOD9497873
Probable space group: C C C M
;
_chemical_formula_sum "Si O2"
_cell_formula_units_Z 112
_cell_length_a 14.790370
_cell_length_b 24.645009
_cell_length_c 14.086734
_cell_angle_alpha 90.000000
_cell_angle_beta 90.000000
_cell_angle_gamma 90.000000
_cell_volume 5134.738531
_symmetry_space_group_name_H-M "C C C M"
_symmetry_group_IT_number 66
_symmetry_cell_setting 'orthorhombic'
loop_
_space_group_symop_operation_xyz
x,y,z
-x,-y,z
x,-y,1/2-z
-x,y,1/2-z
-x,-y,-z
x,y,-z
-x,y,1/2+z
x,-y,1/2+z
1/2+x,1/2+y,z
1/2-x,1/2-y,z
1/2+x,1/2-y,1/2-z
1/2-x,1/2+y,1/2-z
1/2-x,1/2-y,-z
1/2+x,1/2+y,-z
1/2-x,1/2+y,1/2+z
1/2+x,1/2-y,1/2+z
loop_
_atom_site_type_symbol
_atom_site_label
_atom_site_fract_x
_atom_site_fract_y
_atom_site_fract_z
Si Si1 0.759683 0.029295 0.849704
Si Si2 0.676899 0.819165 0.110746
Si Si3 0.438464 0.952503 0.106796
Si Si4 0.334189 0.372759 0.238891
Si Si5 0.033726 0.335938 0.610611
Si Si6 0.852116 0.754636 0.717942
Si Si7 0.074494 0.043106 0.893829
O O1 0.664304 0.029331 0.899419
O O2 0.796837 0.088737 0.822604
O O3 0.742986 0.000000 0.750000
O O4 0.834942 0.992839 0.898224
O O5 0.750360 0.854368 0.169790
O O6 0.574683 0.841596 0.111566
O O7 0.660116 0.764961 0.172908
O O8 0.703484 0.812417 0.000000
O O9 0.433951 0.893267 0.153262
O O10 0.500000 0.000000 0.148108
O O11 0.475384 0.942909 0.000000
O O12 0.376087 0.317686 0.280113
O O13 0.403743 0.408146 0.177031
O O14 0.061989 0.329732 0.500000
O O15 0.078054 0.285928 0.667376
O O16 0.750000 0.750000 0.675587
O O17 0.049904 0.061907 0.000000
O O18 0.000000 0.000000 0.860300
#
# Coordination Sequence:
#
# PCOD9497873 Si02
#       7
#    16  16  16  16  16  16  16
#     4  10  22  38  56  89 124 159 205 262 317 385
#     4  10  21  38  62  92 125 165 214 271 325 384
#     4  10  21  36  58  89 126 167 209 252 310 382
#     4  10  22  39  65  91 122 169 214 263 327 398
#     4  10  22  40  61  90 132 171 212 267 326 391
#     4  10  21  39  62  90 123 168 217 270 331 388
#     4  10  22  42  65  90 123 164 211 271 334 391
#
# _framework density 21.812211999999999
#
# number of rings (size 3 to 8) (size 9 to 14) (size 15 to 20)
#    0.000    2.000    0.000    3.000    4.000    6.286 
#    5.143    1.429    0.000    0.000    0.000    0.000 
#    0.000    0.000    0.000    0.000    0.000    0.000 
#
# Total GULP energy -312553.760250 kJ/mol
# GULP energy per Si atom -5581.317147 kJ/mol
# Density = 2.176257 g / cm^3
# Si number density = 21.812212 Si / 1000 Ang^3
#
#
#
# Elastic Constant Matrix: (Units=GPa)
#
#
# Indices 1 2 3 4 5 6 
#
# 1 82.1916 41.8079 6.1095 0.0000 0.0000 0.0000
# 2 41.8079 163.2360 29.2413 0.0000 0.0000 0.0000
# 3 6.1095 29.2413 90.5957 0.0000 0.0000 0.0000
# 4 0.0000 0.0000 0.0000 -61.7835 0.0000 0.0000
# 5 0.0000 0.0000 0.0000 0.0000 22.3592 0.0000
# 6 0.0000 0.0000 0.0000 0.0000 0.0000 32.3666
#
#
#
# Elastic Compliance Matrix: (Units=1/GPa)
#
#
# Indices 1 2 3 4 5 6 
#
# 1 0.013994 -0.003625 0.000226 0.000000 0.000000 0.000000
# 2 -0.003625 0.007441 -0.002157 0.000000 0.000000 0.000000
# 3 0.000226 -0.002157 0.011719 0.000000 0.000000 0.000000
# 4 0.000000 0.000000 0.000000 -0.016186 0.000000 0.000000
# 5 0.000000 0.000000 0.000000 0.000000 0.044724 0.000000
# 6 0.000000 0.000000 0.000000 0.000000 0.000000 0.030896
#
#
# Mechanical properties :
#
#
# Convention : Reuss Voigt Hill
#
# Bulk Modulus (GPa) = 45.36724 54.48230 49.92477
# Shear Modulus (GPa) = 45.02604 15.84610 30.43607
#
# Velocity S-wave (km/s) = 4.54834 2.69825 3.73952
# Velocity P-wave (km/s) = 6.95898 5.89402 6.44852
#
# Compressibility (1/GPa) = 0.02204234
#
# Stress axis : x y z
#
# Youngs Moduli (GPa) = 71.46144 134.39329 85.33095
#
# Poissons Ratio (x) = 0.48711 -0.01930
# Poissons Ratio (y) = 0.25901 0.18408
# Poissons Ratio (z) = -0.01616 0.28992
#
# Static dielectric constant tensor:
#      x y z
#    x 1.831600 0.000000 0.000000 
#    y 0.000000 1.827620 0.000000 
#    z 0.000000 0.000000 1.892920 
# 
# From -- ./inp_files/28707.got.cif
#   From: 2010.05.17/outbox.cif.g08.bks.cpg/sg66_15_cif.got.tgz:28707.got - 2010.06.03 17:51:23.
