data_PCOD9497040
_publ_section_title
;
Structure prediction by ZEFSAII (Michael W. Deem and Ramdas Pophale) SiO2 
 PCOD9497040
Probable space group: C C C M
;
_chemical_formula_sum "Si O2"
_cell_formula_units_Z 80
_cell_length_a 26.447649
_cell_length_b 9.499128
_cell_length_c 15.257491
_cell_angle_alpha 90.000000
_cell_angle_beta 90.000000
_cell_angle_gamma 90.000000
_cell_volume 3833.133409
_symmetry_space_group_name_H-M "C C C M"
_symmetry_group_IT_number 66
_symmetry_cell_setting 'orthorhombic'
loop_
_space_group_symop_operation_xyz
x,y,z
-x,-y,z
x,-y,1/2-z
-x,y,1/2-z
-x,-y,-z
x,y,-z
-x,y,1/2+z
x,-y,1/2+z
1/2+x,1/2+y,z
1/2-x,1/2-y,z
1/2+x,1/2-y,1/2-z
1/2-x,1/2+y,1/2-z
1/2-x,1/2-y,-z
1/2+x,1/2+y,-z
1/2-x,1/2+y,1/2+z
1/2+x,1/2-y,1/2+z
loop_
_atom_site_type_symbol
_atom_site_label
_atom_site_fract_x
_atom_site_fract_y
_atom_site_fract_z
Si Si1 0.142687 0.062498 0.347527
Si Si2 0.362886 0.878520 0.101642
Si Si3 0.543925 0.401675 0.601974
Si Si4 0.746381 0.916553 0.340363
Si Si5 0.449861 0.914494 0.392817
O O1 0.132571 0.229683 0.349148
O O2 0.199879 0.043370 0.383892
O O3 0.143865 0.000000 0.250000
O O4 0.097232 0.981655 0.393921
O O5 0.305420 0.933338 0.107210
O O6 0.401170 0.996448 0.135305
O O7 0.375105 0.847406 0.000000
O O8 0.500000 0.500000 0.641283
O O9 0.529946 0.380314 0.500000
O O10 0.548346 0.245322 0.640736
O O11 0.750000 0.750000 0.321211
O O12 0.741538 0.000000 0.250000
O O13 0.447553 0.909620 0.500000
O O14 0.500000 0.000000 0.368887
#
# Coordination Sequence:
#
# PCOD9497040 Si02
#       5
#    16  16  16  16  16
#     4  10  21  36  54  79 110 146 184 228 283 339
#     4  10  20  35  58  85 112 147 192 238 282 338
#     4  10  20  35  57  81 107 144 186 231 283 335
#     4   9  20  36  55  78 109 149 186 226 283 342
#     4   9  18  33  53  79 108 138 177 224 276 331
#
# _framework density 20.870653999999998
#
# number of rings (size 3 to 8) (size 9 to 14) (size 15 to 20)
#    0.000    2.400    0.000    1.800    0.000   12.800 
#    0.000    0.000    0.000    8.400    0.000    0.000 
#    0.000    0.000    0.000    0.000    0.000    0.000 
#
# Total GULP energy -223211.996958 kJ/mol
# GULP energy per Si atom -5580.299924 kJ/mol
# Density = 2.082315 g / cm^3
# Si number density = 20.870654 Si / 1000 Ang^3
#
#
#
# Elastic Constant Matrix: (Units=GPa)
#
#
# Indices 1 2 3 4 5 6 
#
# 1 156.3934 114.8896 6.5270 0.0000 0.0000 0.0000
# 2 114.8896 153.6442 17.6287 0.0000 0.0000 0.0000
# 3 6.5270 17.6287 36.5698 0.0000 0.0000 0.0000
# 4 0.0000 0.0000 0.0000 25.1002 0.0000 0.0000
# 5 0.0000 0.0000 0.0000 0.0000 27.0058 0.0000
# 6 0.0000 0.0000 0.0000 0.0000 0.0000 34.4620
#
#
#
# Elastic Compliance Matrix: (Units=1/GPa)
#
#
# Indices 1 2 3 4 5 6 
#
# 1 0.014451 -0.011125 0.002784 0.000000 0.000000 0.000000
# 2 -0.011125 0.015454 -0.005464 0.000000 0.000000 0.000000
# 3 0.002784 -0.005464 0.029482 0.000000 0.000000 0.000000
# 4 0.000000 0.000000 0.000000 0.039840 0.000000 0.000000
# 5 0.000000 0.000000 0.000000 0.000000 0.037029 0.000000
# 6 0.000000 0.000000 0.000000 0.000000 0.000000 0.029017
#
#
# Mechanical properties :
#
#
# Convention : Reuss Voigt Hill
#
# Bulk Modulus (GPa) = 31.47021 69.41088 50.44054
# Shear Modulus (GPa) = 24.57274 31.15107 27.86191
#
# Velocity S-wave (km/s) = 3.43502 3.86758 3.65770
# Velocity P-wave (km/s) = 5.55373 7.29891 6.48529
#
# Compressibility (1/GPa) = 0.03177608
#
# Stress axis : x y z
#
# Youngs Moduli (GPa) = 69.20105 64.70634 33.91871
#
# Poissons Ratio (x) = 0.71986 -0.09442
# Poissons Ratio (y) = 0.76987 0.18534
# Poissons Ratio (z) = -0.19264 0.35358
#
# Static dielectric constant tensor:
#      x y z
#    x 1.767100 0.000000 0.000000 
#    y 0.000000 1.720540 0.000000 
#    z 0.000000 0.000000 1.761880 
# 
# From -- ./inp_files/36928.got.cif
#   From: 2010.05.17/outbox.cif.g08.bks.cpg/sg66_19_cif.got.tgz:36928.got - 2010.06.03 17:51:23.
