data_PCOD9497721
_publ_section_title
;
Structure prediction by ZEFSAII (Michael W. Deem and Ramdas Pophale) SiO2 
 PCOD9497721
Probable space group: C C C M
;
_chemical_formula_sum "Si O2"
_cell_formula_units_Z 48
_cell_length_a 14.505570
_cell_length_b 5.898482
_cell_length_c 24.257100
_cell_angle_alpha 90.000000
_cell_angle_beta 90.000000
_cell_angle_gamma 90.000000
_cell_volume 2075.457938
_symmetry_space_group_name_H-M "C C C M"
_symmetry_group_IT_number 66
_symmetry_cell_setting 'orthorhombic'
loop_
_space_group_symop_operation_xyz
x,y,z
-x,-y,z
x,-y,1/2-z
-x,y,1/2-z
-x,-y,-z
x,y,-z
-x,y,1/2+z
x,-y,1/2+z
1/2+x,1/2+y,z
1/2-x,1/2-y,z
1/2+x,1/2-y,1/2-z
1/2-x,1/2+y,1/2-z
1/2-x,1/2-y,-z
1/2+x,1/2+y,-z
1/2-x,1/2+y,1/2+z
1/2+x,1/2-y,1/2+z
loop_
_atom_site_type_symbol
_atom_site_label
_atom_site_fract_x
_atom_site_fract_y
_atom_site_fract_z
Si Si1 0.330810 0.905133 0.407106
Si Si2 0.750000 0.750000 0.500000
Si Si3 0.855940 0.666527 0.302028
Si Si4 0.453014 0.745959 0.500000
Si Si5 0.500000 0.500000 0.250000
O O1 0.250000 0.750000 0.382403
O O2 0.394796 0.746107 0.444002
O O3 0.289912 0.079483 0.451689
O O4 0.379585 0.036754 0.358186
O O5 0.858029 0.500000 0.250000
O O6 0.750000 0.750000 0.308077
O O7 0.931049 0.855880 0.288257
O O8 0.500000 0.500000 0.500000
O O9 0.500000 0.000000 0.500000
#
# Coordination Sequence:
#
# PCOD9497721 Si02
#       5
#    16   4  16   8   4
#     4  11  26  47  81 110 156 217 278 335 423 509
#     4  10  20  44  76 116 150 208 272 322 418 498
#     4  12  26  52  81 118 158 217 279 353 431 507
#     4  11  28  49  76 122 173 213 277 349 423 504
#     4  12  30  52  84 114 176 208 294 348 436 510
#
# _framework density 23.127427999999998
#
# number of rings (size 3 to 8) (size 9 to 14) (size 15 to 20)
#    0.000    0.667    3.333    3.500    9.333    2.667 
#    6.000    0.000    0.000    0.000    0.000    0.000 
#    0.000    0.000    0.000    0.000    0.000    0.000 
#
# Total GULP energy -133832.168894 kJ/mol
# GULP energy per Si atom -5576.340371 kJ/mol
# Density = 2.307479 g / cm^3
# Si number density = 23.127428 Si / 1000 Ang^3
#
#
#
# Elastic Constant Matrix: (Units=GPa)
#
#
# Indices 1 2 3 4 5 6 
#
# 1 130.1208 75.6707 39.6840 0.0000 0.0000 0.0000
# 2 75.6707 138.4508 70.2942 0.0000 0.0000 0.0000
# 3 39.6840 70.2942 173.6643 0.0000 0.0000 0.0000
# 4 0.0000 0.0000 0.0000 -50.3747 0.0000 0.0000
# 5 0.0000 0.0000 0.0000 0.0000 14.8187 0.0000
# 6 0.0000 0.0000 0.0000 0.0000 0.0000 53.3597
#
#
#
# Elastic Compliance Matrix: (Units=1/GPa)
#
#
# Indices 1 2 3 4 5 6 
#
# 1 0.011267 -0.006106 -0.000103 0.000000 0.000000 0.000000
# 2 -0.006106 0.012400 -0.003624 0.000000 0.000000 0.000000
# 3 -0.000103 -0.003624 0.007249 0.000000 0.000000 0.000000
# 4 0.000000 0.000000 0.000000 -0.019851 0.000000 0.000000
# 5 0.000000 0.000000 0.000000 0.000000 0.067482 0.000000
# 6 0.000000 0.000000 0.000000 0.000000 0.000000 0.018741
#
#
# Mechanical properties :
#
#
# Convention : Reuss Voigt Hill
#
# Bulk Modulus (GPa) = 88.88832 90.39262 89.64047
# Shear Modulus (GPa) = 41.42371 20.66654 31.04512
#
# Velocity S-wave (km/s) = 4.23674 2.99255 3.66779
# Velocity P-wave (km/s) = 7.90259 7.14912 7.53528
#
# Compressibility (1/GPa) = 0.01125007
#
# Stress axis : x y z
#
# Youngs Moduli (GPa) = 88.75114 80.64613 137.95655
#
# Poissons Ratio (x) = 0.49241 0.01425
# Poissons Ratio (y) = 0.54190 0.49993
# Poissons Ratio (z) = 0.00916 0.29225
#
# Static dielectric constant tensor:
#      x y z
#    x 1.928940 0.000000 0.000000 
#    y 0.000000 1.910750 0.000000 
#    z 0.000000 0.000000 1.771650 
# 
# From -- ./inp_files/69303.got.cif
#   From: 2010.05.17/outbox.cif.g08.bks.cpg/sg66_35_cif.got.tgz:69303.got - 2010.06.03 17:51:23.
