data_PCOD9497389
_publ_section_title
;
Structure prediction by ZEFSAII (Michael W. Deem and Ramdas Pophale) SiO2 
 PCOD9497389
Probable space group: C C C M
;
_chemical_formula_sum "Si O2"
_cell_formula_units_Z 116
_cell_length_a 7.346926
_cell_length_b 24.822381
_cell_length_c 29.044806
_cell_angle_alpha 90.000000
_cell_angle_beta 90.000000
_cell_angle_gamma 90.000000
_cell_volume 5296.848884
_symmetry_space_group_name_H-M "C C C M"
_symmetry_group_IT_number 66
_symmetry_cell_setting 'orthorhombic'
loop_
_space_group_symop_operation_xyz
x,y,z
-x,-y,z
x,-y,1/2-z
-x,y,1/2-z
-x,-y,-z
x,y,-z
-x,y,1/2+z
x,-y,1/2+z
1/2+x,1/2+y,z
1/2-x,1/2-y,z
1/2+x,1/2-y,1/2-z
1/2-x,1/2+y,1/2-z
1/2-x,1/2-y,-z
1/2+x,1/2+y,-z
1/2-x,1/2+y,1/2+z
1/2+x,1/2-y,1/2+z
loop_
_atom_site_type_symbol
_atom_site_label
_atom_site_fract_x
_atom_site_fract_y
_atom_site_fract_z
Si Si1 0.993498 0.328044 0.049686
Si Si2 0.670958 0.423628 0.286501
Si Si3 0.105351 0.552848 0.447608
Si Si4 0.415445 0.345704 0.551293
Si Si5 0.000000 0.500000 0.250000
Si Si6 0.644804 0.697259 0.210880
Si Si7 0.469894 0.742785 0.882381
Si Si8 0.455374 0.438951 0.110248
O O1 0.779060 0.317295 0.046802
O O2 0.047777 0.298719 0.096949
O O3 0.992329 0.392619 0.050659
O O4 0.078304 0.311829 0.000000
O O5 0.500000 0.430454 0.250000
O O6 0.849698 0.461231 0.276378
O O7 0.739153 0.361293 0.291410
O O8 0.574705 0.434665 0.335516
O O9 0.167374 0.540268 0.500000
O O10 0.266119 0.570279 0.414919
O O11 0.000000 0.500000 0.430872
O O12 0.478975 0.361063 0.500000
O O13 0.523230 0.299289 0.577345
O O14 0.411976 0.396095 0.586197
O O15 0.500000 0.686573 0.250000
O O16 0.750000 0.750000 0.227115
O O17 0.554054 0.717296 0.163405
O O18 0.250000 0.750000 0.874503
O O19 0.500000 0.500000 0.098377
#
# Coordination Sequence:
#
# PCOD9497389 Si02
#       8
#    16  16  16  16   4  16  16  16
#     4   9  19  36  61  90 128 176 228 284 335 404
#     4  11  27  52  76 107 147 177 238 299 359 425
#     4  10  22  39  58  90 133 174 223 285 339 403
#     4  10  20  37  60  92 131 178 226 273 340 411
#     4  12  26  52  84 110 130 192 230 298 360 422
#     4  11  25  45  69 101 138 178 222 288 359 430
#     4  10  20  38  63  96 131 177 227 280 344 412
#     4  12  24  40  63  93 125 175 219 280 347 415
#
# _framework density 21.899812000000001
#
# number of rings (size 3 to 8) (size 9 to 14) (size 15 to 20)
#    0.000    1.517    1.379    3.103    3.862    3.862 
#    2.483    0.000    0.000    3.310    0.000    0.000 
#    0.000    0.000    0.000    0.000    0.000    0.000 
#
# Total GULP energy -322997.181064 kJ/mol
# GULP energy per Si atom -5568.916915 kJ/mol
# Density = 2.184997 g / cm^3
# Si number density = 21.899812 Si / 1000 Ang^3
#
#
#
# Elastic Constant Matrix: (Units=GPa)
#
#
# Indices 1 2 3 4 5 6 
#
# 1 58.7070 4.1557 21.9897 0.0000 0.0000 0.0000
# 2 4.1557 130.6163 13.8264 0.0000 0.0000 0.0000
# 3 21.9897 13.8264 108.2261 0.0000 0.0000 0.0000
# 4 0.0000 0.0000 0.0000 31.2542 0.0000 0.0000
# 5 0.0000 0.0000 0.0000 0.0000 16.2208 0.0000
# 6 0.0000 0.0000 0.0000 0.0000 0.0000 21.3171
#
#
#
# Elastic Compliance Matrix: (Units=1/GPa)
#
#
# Indices 1 2 3 4 5 6 
#
# 1 0.018442 -0.000193 -0.003722 0.000000 0.000000 0.000000
# 2 -0.000193 0.007763 -0.000953 0.000000 0.000000 0.000000
# 3 -0.003722 -0.000953 0.010118 0.000000 0.000000 0.000000
# 4 0.000000 0.000000 0.000000 0.031996 0.000000 0.000000
# 5 0.000000 0.000000 0.000000 0.000000 0.061649 0.000000
# 6 0.000000 0.000000 0.000000 0.000000 0.000000 0.046911
#
#
# Mechanical properties :
#
#
# Convention : Reuss Voigt Hill
#
# Bulk Modulus (GPa) = 37.61215 41.94368 39.77791
# Shear Modulus (GPa) = 25.57855 30.93024 28.25440
#
# Velocity S-wave (km/s) = 3.42128 3.76220 3.59579
# Velocity P-wave (km/s) = 5.72877 6.16979 5.95337
#
# Compressibility (1/GPa) = 0.02658715
#
# Stress axis : x y z
#
# Youngs Moduli (GPa) = 54.22498 128.81649 98.83421
#
# Poissons Ratio (x) = 0.02482 0.36790
# Poissons Ratio (y) = 0.01045 0.09415
# Poissons Ratio (z) = 0.20185 0.12271
#
# Static dielectric constant tensor:
#      x y z
#    x 1.798630 0.000000 0.000000 
#    y 0.000000 1.736730 0.000000 
#    z 0.000000 0.000000 1.838340 
# 
# From -- ./inp_files/62912.got.cif
#   From: 2010.05.17/outbox.cif.g08.bks.cpg/sg66_32_cif.got.tgz:62912.got - 2010.06.03 17:51:23.
