data_PCOD9497010
_publ_section_title
;
Structure prediction by ZEFSAII (Michael W. Deem and Ramdas Pophale) SiO2 
 PCOD9497010
Probable space group: C C C M
;
_chemical_formula_sum "Si O2"
_cell_formula_units_Z 96
_cell_length_a 26.068189
_cell_length_b 24.194142
_cell_length_c 8.640088
_cell_angle_alpha 90.000000
_cell_angle_beta 90.000000
_cell_angle_gamma 90.000000
_cell_volume 5449.281611
_symmetry_space_group_name_H-M "C C C M"
_symmetry_group_IT_number 66
_symmetry_cell_setting 'orthorhombic'
loop_
_space_group_symop_operation_xyz
x,y,z
-x,-y,z
x,-y,1/2-z
-x,y,1/2-z
-x,-y,-z
x,y,-z
-x,y,1/2+z
x,-y,1/2+z
1/2+x,1/2+y,z
1/2-x,1/2-y,z
1/2+x,1/2-y,1/2-z
1/2-x,1/2+y,1/2-z
1/2-x,1/2-y,-z
1/2+x,1/2+y,-z
1/2-x,1/2+y,1/2+z
1/2+x,1/2-y,1/2+z
loop_
_atom_site_type_symbol
_atom_site_label
_atom_site_fract_x
_atom_site_fract_y
_atom_site_fract_z
Si Si1 0.690231 0.250917 0.813275
Si Si2 0.348896 0.863210 0.686577
Si Si3 0.444361 0.561301 0.814201
Si Si4 0.252424 0.938465 0.314481
Si Si5 0.556721 0.939282 0.186352
Si Si6 0.344277 0.627852 0.187025
O O1 0.750000 0.250000 0.762571
O O2 0.660499 0.197725 0.751206
O O3 0.665266 0.308961 0.764436
O O4 0.690069 0.248714 0.000000
O O5 0.348667 0.860511 0.500000
O O6 0.300824 0.901273 0.735462
O O7 0.401243 0.893916 0.733763
O O8 0.432909 0.500000 0.750000
O O9 0.500000 0.577607 0.750000
O O10 0.399194 0.602911 0.768089
O O11 0.446715 0.558412 0.000000
O O12 0.251716 0.940434 0.500000
O O13 0.200805 0.909832 0.254511
O O14 0.256986 0.000000 0.250000
O O15 0.500000 0.926799 0.250000
O O16 0.571287 0.000000 0.250000
O O17 0.555038 0.942024 0.000000
O O18 0.340851 0.625841 0.000000
#
# Coordination Sequence:
#
# PCOD9497010 Si02
#       6
#    16  16  16  16  16  16
#     4  10  20  36  58  80 107 147 186 222 268 320
#     4  10  22  37  54  80 111 143 182 225 271 323
#     4  10  20  35  56  79 108 139 176 219 265 319
#     4  11  22  34  52  79 110 142 175 219 271 324
#     4  10  20  36  57  82 111 144 183 226 276 329
#     4  10  21  37  55  80 109 140 180 223 267 321
#
# _framework density 17.617001999999999
#
# number of rings (size 3 to 8) (size 9 to 14) (size 15 to 20)
#    0.000    1.833    1.667    3.500    0.000    5.667 
#    0.000    0.833    0.000    4.000    0.000    0.000 
#    0.000    0.000    0.000    0.000    0.000    0.000 
#
# Total GULP energy -268075.971163 kJ/mol
# GULP energy per Si atom -5584.916066 kJ/mol
# Density = 1.757690 g / cm^3
# Si number density = 17.617002 Si / 1000 Ang^3
#
#
#
# Elastic Constant Matrix: (Units=GPa)
#
#
# Indices 1 2 3 4 5 6 
#
# 1 124.1239 71.9836 30.3751 0.0000 0.0000 0.0000
# 2 71.9836 114.8777 25.0824 0.0000 0.0000 0.0000
# 3 30.3751 25.0824 24.9762 0.0000 0.0000 0.0000
# 4 0.0000 0.0000 0.0000 29.8946 0.0000 0.0000
# 5 0.0000 0.0000 0.0000 0.0000 19.2690 0.0000
# 6 0.0000 0.0000 0.0000 0.0000 0.0000 13.6220
#
#
#
# Elastic Compliance Matrix: (Units=1/GPa)
#
#
# Indices 1 2 3 4 5 6 
#
# 1 0.014706 -0.006801 -0.011055 0.000000 0.000000 0.000000
# 2 -0.006801 0.014295 -0.006085 0.000000 0.000000 0.000000
# 3 -0.011055 -0.006085 0.059593 0.000000 0.000000 0.000000
# 4 0.000000 0.000000 0.000000 0.033451 0.000000 0.000000
# 5 0.000000 0.000000 0.000000 0.000000 0.051897 0.000000
# 6 0.000000 0.000000 0.000000 0.000000 0.000000 0.073411
#
#
# Mechanical properties :
#
#
# Convention : Reuss Voigt Hill
#
# Bulk Modulus (GPa) = 24.56215 57.65112 41.10663
# Shear Modulus (GPa) = 16.19148 21.65957 18.92553
#
# Velocity S-wave (km/s) = 3.03493 3.51018 3.28117
# Velocity P-wave (km/s) = 5.12383 7.01600 6.14320
#
# Compressibility (1/GPa) = 0.04071305
#
# Stress axis : x y z
#
# Youngs Moduli (GPa) = 67.99945 69.95381 16.78053
#
# Poissons Ratio (x) = 0.47577 0.18550
# Poissons Ratio (y) = 0.46248 0.10210
# Poissons Ratio (z) = 0.75171 0.42564
#
# Static dielectric constant tensor:
#      x y z
#    x 1.588300 0.000000 0.000000 
#    y 0.000000 1.573270 0.000000 
#    z 0.000000 0.000000 1.598830 
# 
# From -- ./inp_files/9132.got.cif
#   From: 2010.05.17/outbox.cif.g08.bks.cpg/sg66_5_cif.got.tgz:9132.got - 2010.06.03 17:51:23.
