data_PCOD9497148
_publ_section_title
;
Structure prediction by ZEFSAII (Michael W. Deem and Ramdas Pophale) SiO2 
 PCOD9497148
Probable space group: C C C M
;
_chemical_formula_sum "Si O2"
_cell_formula_units_Z 96
_cell_length_a 24.781560
_cell_length_b 23.137147
_cell_length_c 8.172022
_cell_angle_alpha 90.000000
_cell_angle_beta 90.000000
_cell_angle_gamma 90.000000
_cell_volume 4685.629818
_symmetry_space_group_name_H-M "C C C M"
_symmetry_group_IT_number 66
_symmetry_cell_setting 'orthorhombic'
loop_
_space_group_symop_operation_xyz
x,y,z
-x,-y,z
x,-y,1/2-z
-x,y,1/2-z
-x,-y,-z
x,y,-z
-x,y,1/2+z
x,-y,1/2+z
1/2+x,1/2+y,z
1/2-x,1/2-y,z
1/2+x,1/2-y,1/2-z
1/2-x,1/2+y,1/2-z
1/2-x,1/2-y,-z
1/2+x,1/2+y,-z
1/2-x,1/2+y,1/2+z
1/2+x,1/2-y,1/2+z
loop_
_atom_site_type_symbol
_atom_site_label
_atom_site_fract_x
_atom_site_fract_y
_atom_site_fract_z
Si Si1 0.166970 0.631617 0.299558
Si Si2 0.559300 0.933289 0.804308
Si Si3 0.606444 0.437284 0.806185
Si Si4 0.216053 0.117322 0.802332
Si Si5 0.167195 0.237655 0.192896
Si Si6 0.440934 0.317239 0.696485
O O1 0.164826 0.632302 0.500000
O O2 0.111336 0.602473 0.243051
O O3 0.223265 0.601099 0.252392
O O4 0.173724 0.697817 0.241864
O O5 0.500000 0.911914 0.750000
O O6 0.564151 0.000000 0.750000
O O7 0.560043 0.931813 0.000000
O O8 0.588487 0.500000 0.750000
O O9 0.667943 0.423977 0.753584
O O10 0.570925 0.383176 0.746673
O O11 0.604629 0.436251 0.000000
O O12 0.200844 0.182552 0.742513
O O13 0.214452 0.118738 0.000000
O O14 0.105282 0.220659 0.221301
O O15 0.179781 0.240712 0.000000
O O16 0.500000 0.299332 0.750000
O O17 0.435435 0.314203 0.500000
#
# Coordination Sequence:
#
# PCOD9497148 Si02
#       6
#    16  16  16  16  16  16
#     4   9  18  32  54  82 105 132 172 211 247 299
#     4  10  20  36  54  72  99 130 165 208 254 300
#     4  10  21  36  53  75 104 137 174 216 261 307
#     4   9  17  32  54  78 106 138 170 206 251 302
#     4   9  17  32  54  78 106 138 170 206 251 302
#     4  10  21  36  53  75 104 137 174 216 261 307
#
# _framework density 20.488174999999998
#
# number of rings (size 3 to 8) (size 9 to 14) (size 15 to 20)
#    0.000    2.500    0.000    2.500    0.000    5.667 
#    0.000    9.167    0.000    4.000    0.000    0.000 
#    0.000    0.000    0.000    0.000    0.000    0.000 
#
# Total GULP energy -267777.181980 kJ/mol
# GULP energy per Si atom -5578.691291 kJ/mol
# Density = 2.044154 g / cm^3
# Si number density = 20.488175 Si / 1000 Ang^3
#
#
#
# Elastic Constant Matrix: (Units=GPa)
#
#
# Indices 1 2 3 4 5 6 
#
# 1 102.7157 -13.5636 -6.5938 0.0000 0.0000 0.0000
# 2 -13.5636 12.4797 -3.8311 0.0000 0.0000 0.0000
# 3 -6.5938 -3.8311 15.8592 0.0000 0.0000 0.0000
# 4 0.0000 0.0000 0.0000 -4.3425 0.0000 0.0000
# 5 0.0000 0.0000 0.0000 0.0000 15.5721 0.0000
# 6 0.0000 0.0000 0.0000 0.0000 0.0000 2.2942
#
#
#
# Elastic Compliance Matrix: (Units=1/GPa)
#
#
# Indices 1 2 3 4 5 6 
#
# 1 0.012486 0.016378 0.009148 0.000000 0.000000 0.000000
# 2 0.016378 0.108033 0.032907 0.000000 0.000000 0.000000
# 3 0.009148 0.032907 0.074808 0.000000 0.000000 0.000000
# 4 0.000000 0.000000 0.000000 -0.230282 0.000000 0.000000
# 5 0.000000 0.000000 0.000000 0.000000 0.064218 0.000000
# 6 0.000000 0.000000 0.000000 0.000000 0.000000 0.435887
#
#
# Mechanical properties :
#
#
# Convention : Reuss Voigt Hill
#
# Bulk Modulus (GPa) = 3.20315 9.23083 6.21699
# Shear Modulus (GPa) = 11.05347 13.04096 12.04721
#
# Velocity S-wave (km/s) = 2.32524 2.52565 2.42752
# Velocity P-wave (km/s) = 2.96240 3.60839 3.30123
#
# Compressibility (1/GPa) = 0.31219245
#
# Stress axis : x y z
#
# Youngs Moduli (GPa) = 80.09239 9.25646 13.36756
#
# Poissons Ratio (x) = -0.15160 -0.12228
# Poissons Ratio (y) = -1.31177 -0.43989
# Poissons Ratio (z) = -0.73266 -0.30461
#
# Static dielectric constant tensor:
#      x y z
#    x 1.904970 0.000000 0.000000 
#    y 0.000000 1.746300 0.000000 
#    z 0.000000 0.000000 1.719040 
# 
# From -- ./inp_files/8002.got.cif
#   From: 2010.05.17/outbox.cif.g08.bks.cpg/sg66_5_cif.got.tgz:8002.got - 2010.06.03 17:51:23.
