data_PCOD9497487
_publ_section_title
;
Structure prediction by ZEFSAII (Michael W. Deem and Ramdas Pophale) SiO2 
 PCOD9497487
Probable space group: C C C M
;
_chemical_formula_sum "Si O2"
_cell_formula_units_Z 112
_cell_length_a 14.996480
_cell_length_b 25.996712
_cell_length_c 15.632597
_cell_angle_alpha 90.000000
_cell_angle_beta 90.000000
_cell_angle_gamma 90.000000
_cell_volume 6094.511316
_symmetry_space_group_name_H-M "C C C M"
_symmetry_group_IT_number 66
_symmetry_cell_setting 'orthorhombic'
loop_
_space_group_symop_operation_xyz
x,y,z
-x,-y,z
x,-y,1/2-z
-x,y,1/2-z
-x,-y,-z
x,y,-z
-x,y,1/2+z
x,-y,1/2+z
1/2+x,1/2+y,z
1/2-x,1/2-y,z
1/2+x,1/2-y,1/2-z
1/2-x,1/2+y,1/2-z
1/2-x,1/2-y,-z
1/2+x,1/2+y,-z
1/2-x,1/2+y,1/2+z
1/2+x,1/2-y,1/2+z
loop_
_atom_site_type_symbol
_atom_site_label
_atom_site_fract_x
_atom_site_fract_y
_atom_site_fract_z
Si Si1 0.261688 0.333171 0.500000
Si Si2 0.534843 0.219852 0.653475
Si Si3 0.822503 0.360957 0.600636
Si Si4 0.401792 0.245128 0.500000
Si Si5 0.175351 0.117703 0.335225
Si Si6 0.761053 0.455941 0.694129
Si Si7 0.098459 0.982649 0.897849
Si Si8 0.684174 0.705645 0.211576
O O1 0.354142 0.300673 0.500000
O O2 0.179264 0.294992 0.500000
O O3 0.262396 0.366363 0.414001
O O4 0.500000 0.213276 0.750000
O O5 0.586529 0.168258 0.625187
O O6 0.460954 0.235099 0.584217
O O7 0.607752 0.265352 0.659873
O O8 0.808821 0.357285 0.500000
O O9 0.816534 0.420269 0.630149
O O10 0.744815 0.328912 0.649103
O O11 0.225234 0.084318 0.263987
O O12 0.105390 0.077486 0.373457
O O13 0.146087 0.169425 0.286442
O O14 0.808928 0.500000 0.750000
O O15 0.676939 0.484242 0.647673
O O16 0.108222 0.988617 0.000000
O O17 0.000000 0.000000 0.871588
O O18 0.750000 0.750000 0.248545
#
# Coordination Sequence:
#
# PCOD9497487 Si02
#       8
#     8  16  16   8  16  16  16  16
#     4  11  24  40  59  81 123 155 212 242 293 369
#     4  11  23  40  59  90 123 161 204 252 301 360
#     4  10  20  38  63  89 121 158 202 247 306 369
#     4  11  26  40  61  87 121 167 197 252 303 352
#     4  10  20  38  56  85 109 165 200 240 298 357
#     4   9  20  36  60  86 113 155 198 237 307 361
#     4  10  20  38  58  85 122 153 197 252 302 358
#     4   9  21  36  61  83 123 158 199 245 300 360
#
# _framework density 18.377192000000001
#
# number of rings (size 3 to 8) (size 9 to 14) (size 15 to 20)
#    0.000    2.000    1.429    1.286    9.000    3.429 
#   12.857    0.000    0.000    0.429    0.000    5.000 
#    0.000    0.000    0.000    0.000    0.000    0.000 
#
# Total GULP energy -312280.039638 kJ/mol
# GULP energy per Si atom -5576.429279 kJ/mol
# Density = 1.833536 g / cm^3
# Si number density = 18.377192 Si / 1000 Ang^3
#
#
#
# Elastic Constant Matrix: (Units=GPa)
#
#
# Indices 1 2 3 4 5 6 
#
# 1 62.3411 32.9464 24.6889 0.0000 0.0000 0.0000
# 2 32.9464 113.6816 37.5198 0.0000 0.0000 0.0000
# 3 24.6889 37.5198 99.2526 0.0000 0.0000 0.0000
# 4 0.0000 0.0000 0.0000 37.3546 0.0000 0.0000
# 5 0.0000 0.0000 0.0000 0.0000 19.8460 0.0000
# 6 0.0000 0.0000 0.0000 0.0000 0.0000 21.2059
#
#
#
# Elastic Compliance Matrix: (Units=1/GPa)
#
#
# Indices 1 2 3 4 5 6 
#
# 1 0.019765 -0.004691 -0.003143 0.000000 0.000000 0.000000
# 2 -0.004691 0.011164 -0.003053 0.000000 0.000000 0.000000
# 3 -0.003143 -0.003053 0.012011 0.000000 0.000000 0.000000
# 4 0.000000 0.000000 0.000000 0.026770 0.000000 0.000000
# 5 0.000000 0.000000 0.000000 0.000000 0.050388 0.000000
# 6 0.000000 0.000000 0.000000 0.000000 0.000000 0.047157
#
#
# Mechanical properties :
#
#
# Convention : Reuss Voigt Hill
#
# Bulk Modulus (GPa) = 47.24735 51.73173 49.48954
# Shear Modulus (GPa) = 25.49924 27.68929 26.59427
#
# Velocity S-wave (km/s) = 3.72902 3.88586 3.80825
# Velocity P-wave (km/s) = 6.65631 6.95301 6.80627
#
# Compressibility (1/GPa) = 0.02116521
#
# Stress axis : x y z
#
# Youngs Moduli (GPa) = 50.59573 89.57657 83.25424
#
# Poissons Ratio (x) = 0.42017 0.26169
# Poissons Ratio (y) = 0.23733 0.25420
# Poissons Ratio (z) = 0.15903 0.27351
#
# Static dielectric constant tensor:
#      x y z
#    x 1.623790 0.000000 0.000000 
#    y 0.000000 1.662130 0.000000 
#    z 0.000000 0.000000 1.643470 
# 
# From -- ./inp_files/28923.got.cif
#   From: 2010.05.17/outbox.cif.g08.bks.cpg/sg66_15_cif.got.tgz:28923.got - 2010.06.03 17:51:23.
