data_PCOD9497238
_publ_section_title
;
Structure prediction by ZEFSAII (Michael W. Deem and Ramdas Pophale) SiO2 
 PCOD9497238
Probable space group: C C C M
;
_chemical_formula_sum "Si O2"
_cell_formula_units_Z 112
_cell_length_a 22.695339
_cell_length_b 14.569831
_cell_length_c 13.993978
_cell_angle_alpha 90.000000
_cell_angle_beta 90.000000
_cell_angle_gamma 90.000000
_cell_volume 4627.350274
_symmetry_space_group_name_H-M "C C C M"
_symmetry_group_IT_number 66
_symmetry_cell_setting 'orthorhombic'
loop_
_space_group_symop_operation_xyz
x,y,z
-x,-y,z
x,-y,1/2-z
-x,y,1/2-z
-x,-y,-z
x,y,-z
-x,y,1/2+z
x,-y,1/2+z
1/2+x,1/2+y,z
1/2-x,1/2-y,z
1/2+x,1/2-y,1/2-z
1/2-x,1/2+y,1/2-z
1/2-x,1/2-y,-z
1/2+x,1/2+y,-z
1/2-x,1/2+y,1/2+z
1/2+x,1/2-y,1/2+z
loop_
_atom_site_type_symbol
_atom_site_label
_atom_site_fract_x
_atom_site_fract_y
_atom_site_fract_z
Si Si1 0.623835 0.898698 0.888058
Si Si2 0.745372 0.641122 0.892447
Si Si3 0.443681 0.705135 0.394590
Si Si4 0.569722 0.713475 0.322987
Si Si5 0.836926 0.906087 0.275770
Si Si6 0.237358 0.646892 0.110379
Si Si7 0.900015 0.403684 0.111068
O O1 0.690345 0.886462 0.848846
O O2 0.583860 0.807849 0.887442
O O3 0.592135 0.991895 0.856380
O O4 0.635325 0.916682 0.000000
O O5 0.750000 0.750000 0.903702
O O6 0.689406 0.630153 0.823904
O O7 0.737072 0.601903 0.000000
O O8 0.423928 0.670046 0.500000
O O9 0.514447 0.695347 0.389846
O O10 0.432016 0.673046 0.285363
O O11 0.629825 0.662749 0.348348
O O12 0.572989 0.823541 0.324547
O O13 0.776886 0.926206 0.334366
O O14 0.869200 0.000000 0.250000
O O15 0.250000 0.750000 0.150831
O O16 0.169455 0.618872 0.114234
O O17 0.254481 0.649039 0.000000
O O18 0.920151 0.392604 0.000000
#
# Coordination Sequence:
#
# PCOD9497238 Si02
#       7
#    16  16  16  16  16  16  16
#     4   9  19  36  60  92 126 165 211 263 320 379
#     4  10  21  39  63  91 129 172 209 256 322 391
#     4  10  23  44  65  87 120 161 216 274 320 381
#     4  11  24  41  64  89 118 166 216 259 330 389
#     4  12  25  39  61  95 132 167 214 271 322 393
#     4  10  20  36  59  90 132 178 218 258 318 389
#     4  10  20  36  60  92 131 167 210 263 314 383
#
# _framework density 24.203917000000001
#
# number of rings (size 3 to 8) (size 9 to 14) (size 15 to 20)
#    0.000    1.714    1.429    2.571    2.000    5.143 
#    0.000    5.000    0.000    0.857    0.000    0.000 
#    0.000    0.000    0.000    0.000    0.000    0.000 
#
# Total GULP energy -312134.920640 kJ/mol
# GULP energy per Si atom -5573.837869 kJ/mol
# Density = 2.414883 g / cm^3
# Si number density = 24.203917 Si / 1000 Ang^3
#
#
#
# Elastic Constant Matrix: (Units=GPa)
#
#
# Indices 1 2 3 4 5 6 
#
# 1 54.7731 -3.3559 6.1553 0.0000 0.0000 0.0000
# 2 -3.3559 62.8705 -19.1168 0.0000 0.0000 0.0000
# 3 6.1553 -19.1168 84.1333 0.0000 0.0000 0.0000
# 4 0.0000 0.0000 0.0000 15.3164 0.0000 0.0000
# 5 0.0000 0.0000 0.0000 0.0000 26.2627 0.0000
# 6 0.0000 0.0000 0.0000 0.0000 0.0000 -0.7820
#
#
#
# Elastic Compliance Matrix: (Units=1/GPa)
#
#
# Indices 1 2 3 4 5 6 
#
# 1 0.018431 0.000616 -0.001208 0.000000 0.000000 0.000000
# 2 0.000616 0.017107 0.003842 0.000000 0.000000 0.000000
# 3 -0.001208 0.003842 0.012847 0.000000 0.000000 0.000000
# 4 0.000000 0.000000 0.000000 0.065290 0.000000 0.000000
# 5 0.000000 0.000000 0.000000 0.000000 0.038077 0.000000
# 6 0.000000 0.000000 0.000000 0.000000 0.000000 -1.278786
#
#
# Mechanical properties :
#
#
# Convention : Reuss Voigt Hill
#
# Bulk Modulus (GPa) = 18.22005 18.79358 18.50681
# Shear Modulus (GPa) = -4.48334 22.69903 9.10784
#
# Velocity S-wave (km/s) = -1.36248 3.06571 1.94194
# Velocity P-wave (km/s) = 2.25143 4.50700 3.56244
#
# Compressibility (1/GPa) = 0.05488460
#
# Stress axis : x y z
#
# Youngs Moduli (GPa) = 54.25733 58.45623 77.83754
#
# Poissons Ratio (x) = -0.03603 0.09406
# Poissons Ratio (y) = -0.03344 -0.29905
# Poissons Ratio (z) = 0.06556 -0.22458
#
# Static dielectric constant tensor:
#      x y z
#    x 2.113610 0.000000 0.000000 
#    y 0.000000 2.104630 0.000000 
#    z 0.000000 0.000000 2.039360 
# 
# From -- ./inp_files/32517.got.cif
#   From: 2010.05.17/outbox.cif.g08.bks.cpg/sg66_17_cif.got.tgz:32517.got - 2010.06.03 17:51:23.
