data_PCOD9497132
_publ_section_title
;
Structure prediction by ZEFSAII (Michael W. Deem and Ramdas Pophale) SiO2 
 PCOD9497132
Probable space group: C C C M
;
_chemical_formula_sum "Si O2"
_cell_formula_units_Z 80
_cell_length_a 11.047809
_cell_length_b 26.021556
_cell_length_c 14.421772
_cell_angle_alpha 90.000000
_cell_angle_beta 90.000000
_cell_angle_gamma 90.000000
_cell_volume 4145.988040
_symmetry_space_group_name_H-M "C C C M"
_symmetry_group_IT_number 66
_symmetry_cell_setting 'orthorhombic'
loop_
_space_group_symop_operation_xyz
x,y,z
-x,-y,z
x,-y,1/2-z
-x,y,1/2-z
-x,-y,-z
x,y,-z
-x,y,1/2+z
x,-y,1/2+z
1/2+x,1/2+y,z
1/2-x,1/2-y,z
1/2+x,1/2-y,1/2-z
1/2-x,1/2+y,1/2-z
1/2-x,1/2-y,-z
1/2+x,1/2+y,-z
1/2-x,1/2+y,1/2+z
1/2+x,1/2-y,1/2+z
loop_
_atom_site_type_symbol
_atom_site_label
_atom_site_fract_x
_atom_site_fract_y
_atom_site_fract_z
Si Si1 0.695690 0.306289 0.750735
Si Si2 0.992707 0.167080 0.602885
Si Si3 0.051194 0.557739 0.605984
Si Si4 0.317245 0.912382 0.209534
Si Si5 0.942536 0.947012 0.352108
O O1 0.750000 0.250000 0.746883
O O2 0.631609 0.320937 0.654423
O O3 0.595246 0.309224 0.831424
O O4 0.783478 0.353369 0.773226
O O5 0.997438 0.187969 0.500000
O O6 0.015890 0.105710 0.600624
O O7 0.089050 0.570768 0.500000
O O8 0.147796 0.563825 0.689597
O O9 0.000000 0.500000 0.605230
O O10 0.932854 0.587679 0.642267
O O11 0.202779 0.942353 0.163329
O O12 0.000000 0.942998 0.250000
O O13 0.000000 0.000000 0.390738
#
# Coordination Sequence:
#
# PCOD9497132 Si02
#       5
#    16  16  16  16  16
#     4  10  22  41  60  82 112 153 195 247 297 345
#     4  10  21  39  58  88 121 148 188 243 300 351
#     4  10  23  37  56  86 118 155 192 231 282 342
#     4  10  20  39  61  81 115 155 190 241 284 342
#     4  10  20  35  62  91 118 156 194 229 292 360
#
# _framework density 19.295762
#
# number of rings (size 3 to 8) (size 9 to 14) (size 15 to 20)
#    0.000    2.000    4.000    1.200    5.600    8.400 
#    0.000    2.000    0.000    0.600    0.000    0.000 
#    0.000    0.000    0.000    0.000    0.000    0.000 
#
# Total GULP energy -223030.492905 kJ/mol
# GULP energy per Si atom -5575.762323 kJ/mol
# Density = 1.925184 g / cm^3
# Si number density = 19.295762 Si / 1000 Ang^3
#
#
#
# Elastic Constant Matrix: (Units=GPa)
#
#
# Indices 1 2 3 4 5 6 
#
# 1 63.0004 59.4571 8.5051 0.0000 0.0000 0.0000
# 2 59.4571 113.6608 32.2225 0.0000 0.0000 0.0000
# 3 8.5051 32.2225 105.7607 0.0000 0.0000 0.0000
# 4 0.0000 0.0000 0.0000 -21.2490 0.0000 0.0000
# 5 0.0000 0.0000 0.0000 0.0000 -4.8878 0.0000
# 6 0.0000 0.0000 0.0000 0.0000 0.0000 16.0507
#
#
#
# Elastic Compliance Matrix: (Units=1/GPa)
#
#
# Indices 1 2 3 4 5 6 
#
# 1 0.032076 -0.017565 0.002772 0.000000 0.000000 0.000000
# 2 -0.017565 0.019249 -0.004452 0.000000 0.000000 0.000000
# 3 0.002772 -0.004452 0.010589 0.000000 0.000000 0.000000
# 4 0.000000 0.000000 0.000000 -0.047061 0.000000 0.000000
# 5 0.000000 0.000000 0.000000 0.000000 -0.204592 0.000000
# 6 0.000000 0.000000 0.000000 0.000000 0.000000 0.062302
#
#
# Mechanical properties :
#
#
# Convention : Reuss Voigt Hill
#
# Bulk Modulus (GPa) = 42.69231 53.64346 48.16788
# Shear Modulus (GPa) = -61.62250 10.13193 -25.74528
#
# Velocity S-wave (km/s) = -5.65730 2.29396 -3.65670
# Velocity P-wave (km/s) = 4.52772 5.90570 2.68115
#
# Compressibility (1/GPa) = 0.02342342
#
# Stress axis : x y z
#
# Youngs Moduli (GPa) = 31.17604 51.95145 94.43947
#
# Poissons Ratio (x) = 0.91253 -0.26180
# Poissons Ratio (y) = 0.54761 0.42045
# Poissons Ratio (z) = -0.08642 0.23129
#
# Static dielectric constant tensor:
#      x y z
#    x 1.693070 0.000000 0.000000 
#    y 0.000000 1.580910 0.000000 
#    z 0.000000 0.000000 1.692350 
# 
# From -- ./inp_files/26400.got.cif
#   From: 2010.05.17/outbox.cif.g08.bks.cpg/sg66_14_cif.got.tgz:26400.got - 2010.06.03 17:51:23.
