data_PCOD9497037
_publ_section_title
;
Structure prediction by ZEFSAII (Michael W. Deem and Ramdas Pophale) SiO2 
 PCOD9497037
Probable space group: C C C M
;
_chemical_formula_sum "Si O2"
_cell_formula_units_Z 96
_cell_length_a 10.817895
_cell_length_b 18.643514
_cell_length_c 23.989494
_cell_angle_alpha 90.000000
_cell_angle_beta 90.000000
_cell_angle_gamma 90.000000
_cell_volume 4838.286958
_symmetry_space_group_name_H-M "C C C M"
_symmetry_group_IT_number 66
_symmetry_cell_setting 'orthorhombic'
loop_
_space_group_symop_operation_xyz
x,y,z
-x,-y,z
x,-y,1/2-z
-x,y,1/2-z
-x,-y,-z
x,y,-z
-x,y,1/2+z
x,-y,1/2+z
1/2+x,1/2+y,z
1/2-x,1/2-y,z
1/2+x,1/2-y,1/2-z
1/2-x,1/2+y,1/2-z
1/2-x,1/2-y,-z
1/2+x,1/2+y,-z
1/2-x,1/2+y,1/2+z
1/2+x,1/2-y,1/2+z
loop_
_atom_site_type_symbol
_atom_site_label
_atom_site_fract_x
_atom_site_fract_y
_atom_site_fract_z
Si Si1 0.393069 0.274181 0.708927
Si Si2 0.309298 0.363397 0.000000
Si Si3 0.951842 0.721136 0.000000
Si Si4 0.008580 0.676658 0.882111
Si Si5 0.750131 0.905493 0.124278
Si Si6 0.876010 0.542831 0.675746
Si Si7 0.169448 0.081556 0.243699
O O1 0.500000 0.244226 0.750000
O O2 0.250000 0.250000 0.719539
O O3 0.443048 0.245323 0.650947
O O4 0.391287 0.359610 0.716847
O O5 0.180108 0.319852 0.000000
O O6 0.418380 0.304954 0.000000
O O7 0.306019 0.401632 0.938510
O O8 0.021512 0.695124 0.946003
O O9 0.089775 0.610435 0.861606
O O10 0.866158 0.650107 0.873270
O O11 0.830482 0.890396 0.180106
O O12 0.704159 0.985795 0.140154
O O13 0.807782 0.572932 0.730542
O O14 0.000000 0.500000 0.688720
O O15 0.124120 0.000000 0.250000
#
# Coordination Sequence:
#
# PCOD9497037 Si02
#       7
#    16   8   8  16  16  16  16
#     4  12  25  40  64  93 130 165 208 262 312 382
#     4   9  18  35  53  82 122 154 218 249 311 371
#     4   9  20  35  54  82 120 167 196 267 305 375
#     4  10  20  35  56  88 123 156 207 252 320 373
#     4   9  19  33  58  87 120 162 199 263 310 371
#     4   9  18  33  58  88 124 156 198 258 321 379
#     4  10  21  38  58  91 126 164 205 254 321 373
#
# _framework density 19.841733000000001
#
# number of rings (size 3 to 8) (size 9 to 14) (size 15 to 20)
#    0.000    2.167    1.667    1.000    2.333    8.000 
#    0.000    3.750    0.000    1.000    0.000    4.667 
#    0.000    0.000    0.000    0.000    0.000    0.000 
#
# Total GULP energy -267359.437859 kJ/mol
# GULP energy per Si atom -5569.988289 kJ/mol
# Density = 1.979657 g / cm^3
# Si number density = 19.841733 Si / 1000 Ang^3
#
#
#
# Elastic Constant Matrix: (Units=GPa)
#
#
# Indices 1 2 3 4 5 6 
#
# 1 59.6301 9.9503 39.3616 0.0000 0.0000 0.0000
# 2 9.9503 102.7667 57.5234 0.0000 0.0000 0.0000
# 3 39.3616 57.5234 180.6904 0.0000 0.0000 0.0000
# 4 0.0000 0.0000 0.0000 17.4330 0.0000 0.0000
# 5 0.0000 0.0000 0.0000 0.0000 3.8028 0.0000
# 6 0.0000 0.0000 0.0000 0.0000 0.0000 16.4970
#
#
#
# Elastic Compliance Matrix: (Units=1/GPa)
#
#
# Indices 1 2 3 4 5 6 
#
# 1 0.019617 0.000599 -0.004464 0.000000 0.000000 0.000000
# 2 0.000599 0.011859 -0.003906 0.000000 0.000000 0.000000
# 3 -0.004464 -0.003906 0.007750 0.000000 0.000000 0.000000
# 4 0.000000 0.000000 0.000000 0.057363 0.000000 0.000000
# 5 0.000000 0.000000 0.000000 0.000000 0.262964 0.000000
# 6 0.000000 0.000000 0.000000 0.000000 0.000000 0.060617
#
#
# Mechanical properties :
#
#
# Convention : Reuss Voigt Hill
#
# Bulk Modulus (GPa) = 42.22119 61.86196 52.04158
# Shear Modulus (GPa) = 11.27127 23.29668 17.28398
#
# Velocity S-wave (km/s) = 2.38598 3.43027 2.95463
# Velocity P-wave (km/s) = 5.37734 6.85087 6.15833
#
# Compressibility (1/GPa) = 0.02368479
#
# Stress axis : x y z
#
# Youngs Moduli (GPa) = 50.97668 84.32349 129.02775
#
# Poissons Ratio (x) = -0.05054 0.57600
# Poissons Ratio (y) = -0.03056 0.50398
# Poissons Ratio (z) = 0.22757 0.32936
#
# Static dielectric constant tensor:
#      x y z
#    x 1.779680 0.000000 0.000000 
#    y 0.000000 1.711440 0.000000 
#    z 0.000000 0.000000 1.711040 
# 
# From -- ./inp_files/48846.got.cif
#   From: 2010.05.17/outbox.cif.g08.bks.cpg/sg66_25_cif.got.tgz:48846.got - 2010.06.03 17:51:23.
