data_PCOD9497882
_publ_section_title
;
Structure prediction by ZEFSAII (Michael W. Deem and Ramdas Pophale) SiO2 
 PCOD9497882
Probable space group: C C C M
;
_chemical_formula_sum "Si O2"
_cell_formula_units_Z 116
_cell_length_a 28.392062
_cell_length_b 7.174015
_cell_length_c 24.784902
_cell_angle_alpha 90.000000
_cell_angle_beta 90.000000
_cell_angle_gamma 90.000000
_cell_volume 5048.314714
_symmetry_space_group_name_H-M "C C C M"
_symmetry_group_IT_number 66
_symmetry_cell_setting 'orthorhombic'
loop_
_space_group_symop_operation_xyz
x,y,z
-x,-y,z
x,-y,1/2-z
-x,y,1/2-z
-x,-y,-z
x,y,-z
-x,y,1/2+z
x,-y,1/2+z
1/2+x,1/2+y,z
1/2-x,1/2-y,z
1/2+x,1/2-y,1/2-z
1/2-x,1/2+y,1/2-z
1/2-x,1/2-y,-z
1/2+x,1/2+y,-z
1/2-x,1/2+y,1/2+z
1/2+x,1/2-y,1/2+z
loop_
_atom_site_type_symbol
_atom_site_label
_atom_site_fract_x
_atom_site_fract_y
_atom_site_fract_z
Si Si1 0.850167 0.209869 0.263708
Si Si2 0.000000 0.500000 0.000000
Si Si3 0.862348 0.392347 0.936583
Si Si4 0.447666 0.169491 0.097257
Si Si5 0.381896 0.549225 0.561001
Si Si6 0.802483 0.176833 0.372322
Si Si7 0.695858 0.760165 0.342739
Si Si8 0.955986 0.304399 0.719574
O O1 0.823113 0.268928 0.317891
O O2 0.836543 0.312257 0.208244
O O3 0.905425 0.208046 0.275286
O O4 0.834383 0.000000 0.250000
O O5 0.983615 0.644816 0.048390
O O6 0.906142 0.516989 0.915856
O O7 0.818610 0.388842 0.894085
O O8 0.876773 0.172832 0.935173
O O9 0.852258 0.433528 0.000000
O O10 0.423315 0.371721 0.097075
O O11 0.466603 0.154060 0.157348
O O12 0.393967 0.594068 0.500000
O O13 0.336756 0.678682 0.576304
O O14 0.750000 0.250000 0.381269
O O15 0.808736 0.955141 0.361019
O O16 0.750000 0.750000 0.325056
O O17 0.948927 0.500000 0.750000
O O18 0.000000 0.212706 0.750000
#
# Coordination Sequence:
#
# PCOD9497882 Si02
#       8
#    16   4  16  16  16  16  16  16
#     4  10  21  40  63  88 130 171 214 272 329 391
#     4  12  24  40  72 104 124 166 228 278 326 400
#     4  10  22  42  66  93 131 176 217 269 330 388
#     4  12  23  44  69  95 134 171 216 277 334 390
#     4  10  21  41  66  94 131 175 220 263 327 392
#     4  10  21  36  59  92 130 170 220 270 321 393
#     4  10  22  36  58  94 128 171 222 269 324 396
#     4  11  24  42  65  94 126 167 215 273 335 399
#
# _framework density 22.977965999999999
#
# number of rings (size 3 to 8) (size 9 to 14) (size 15 to 20)
#    0.000    1.517    2.759    2.069    1.931    1.931 
#    0.000    1.379    3.034    0.000    0.000    0.000 
#    0.000    0.000    0.000    0.000    0.000    0.000 
#
# Total GULP energy -323093.724543 kJ/mol
# GULP energy per Si atom -5570.581458 kJ/mol
# Density = 2.292567 g / cm^3
# Si number density = 22.977966 Si / 1000 Ang^3
#
#
#
# Elastic Constant Matrix: (Units=GPa)
#
#
# Indices 1 2 3 4 5 6 
#
# 1 53.3549 -8.5958 33.5869 0.0000 0.0000 0.0000
# 2 -8.5958 56.1023 20.9879 0.0000 0.0000 0.0000
# 3 33.5869 20.9879 164.7412 0.0000 0.0000 0.0000
# 4 0.0000 0.0000 0.0000 11.3863 0.0000 0.0000
# 5 0.0000 0.0000 0.0000 0.0000 32.9069 0.0000
# 6 0.0000 0.0000 0.0000 0.0000 0.0000 13.4672
#
#
#
# Elastic Compliance Matrix: (Units=1/GPa)
#
#
# Indices 1 2 3 4 5 6 
#
# 1 0.023039 0.005552 -0.005404 0.000000 0.000000 0.000000
# 2 0.005552 0.020054 -0.003687 0.000000 0.000000 0.000000
# 3 -0.005404 -0.003687 0.007642 0.000000 0.000000 0.000000
# 4 0.000000 0.000000 0.000000 0.087825 0.000000 0.000000
# 5 0.000000 0.000000 0.000000 0.000000 0.030389 0.000000
# 6 0.000000 0.000000 0.000000 0.000000 0.000000 0.074254
#
#
# Mechanical properties :
#
#
# Convention : Reuss Voigt Hill
#
# Bulk Modulus (GPa) = 22.90633 40.68406 31.79520
# Shear Modulus (GPa) = 18.87978 26.76671 22.82324
#
# Velocity S-wave (km/s) = 2.86955 3.41675 3.15503
# Velocity P-wave (km/s) = 4.57925 5.77145 5.20957
#
# Compressibility (1/GPa) = 0.04365605
#
# Stress axis : x y z
#
# Youngs Moduli (GPa) = 43.40490 49.86433 130.86190
#
# Poissons Ratio (x) = -0.27683 0.70723
# Poissons Ratio (y) = -0.24097 0.48246
# Poissons Ratio (z) = 0.23458 0.18384
#
# Static dielectric constant tensor:
#      x y z
#    x 2.039640 0.000000 0.000000 
#    y 0.000000 1.969210 0.000000 
#    z 0.000000 0.000000 1.853250 
# 
# From -- ./inp_files/60231.got.cif
#   From: 2010.05.17/outbox.cif.g08.bks.cpg/sg66_31_cif.got.tgz:60231.got - 2010.06.03 17:51:23.
