data_PCOD9497743
_publ_section_title
;
Structure prediction by ZEFSAII (Michael W. Deem and Ramdas Pophale) SiO2 
 PCOD9497743
Probable space group: C C C M
;
_chemical_formula_sum "Si O2"
_cell_formula_units_Z 104
_cell_length_a 9.449390
_cell_length_b 26.159625
_cell_length_c 20.541796
_cell_angle_alpha 90.000000
_cell_angle_beta 90.000000
_cell_angle_gamma 90.000000
_cell_volume 5077.777885
_symmetry_space_group_name_H-M "C C C M"
_symmetry_group_IT_number 66
_symmetry_cell_setting 'orthorhombic'
loop_
_space_group_symop_operation_xyz
x,y,z
-x,-y,z
x,-y,1/2-z
-x,y,1/2-z
-x,-y,-z
x,y,-z
-x,y,1/2+z
x,-y,1/2+z
1/2+x,1/2+y,z
1/2-x,1/2-y,z
1/2+x,1/2-y,1/2-z
1/2-x,1/2+y,1/2-z
1/2-x,1/2-y,-z
1/2+x,1/2+y,-z
1/2-x,1/2+y,1/2+z
1/2+x,1/2-y,1/2+z
loop_
_atom_site_type_symbol
_atom_site_label
_atom_site_fract_x
_atom_site_fract_y
_atom_site_fract_z
Si Si1 0.869501 0.389657 0.000000
Si Si2 0.700517 0.485916 0.000000
Si Si3 0.690782 0.122525 0.140029
Si Si4 0.826732 0.695987 0.245718
Si Si5 0.927913 0.049867 0.861940
Si Si6 0.299944 0.384783 0.858001
Si Si7 0.548761 0.053492 0.324888
Si Si8 0.706378 0.105517 0.500000
O O1 0.792927 0.367663 0.063909
O O2 0.038107 0.385125 0.000000
O O3 0.838454 0.450296 0.000000
O O4 0.615417 0.468082 0.935400
O O5 0.744550 0.545325 0.000000
O O6 0.715229 0.169799 0.186116
O O7 0.784090 0.074457 0.164675
O O8 0.531829 0.101442 0.144925
O O9 0.750000 0.750000 0.238136
O O10 0.760957 0.658360 0.190407
O O11 0.000000 0.698949 0.250000
O O12 0.038258 0.096744 0.856519
O O13 0.000000 0.000000 0.831280
O O14 0.211335 0.435683 0.837860
O O15 0.266419 0.372194 0.932912
O O16 0.500000 0.053781 0.250000
O O17 0.500000 0.000000 0.354421
#
# Coordination Sequence:
#
# PCOD9497743 Si02
#       8
#     8   8  16  16  16  16  16   8
#     4  10  21  33  65  99 129 175 230 262 319 389
#     4  10  21  36  53  93 149 192 210 253 303 387
#     4  11  22  43  63  94 135 169 219 273 317 394
#     4  12  27  51  74  93 120 163 224 290 351 396
#     4  11  22  36  58  96 143 182 216 246 313 385
#     4  12  23  40  64  96 131 173 220 269 315 395
#     4  11  21  37  60  90 134 176 208 264 318 369
#     4  12  20  34  67  93 139 177 224 263 315 386
#
# _framework density 20.481400000000001
#
# number of rings (size 3 to 8) (size 9 to 14) (size 15 to 20)
#    0.000    0.769    6.154    1.846    4.308    0.000 
#    0.000    1.538    0.000    0.000    0.000    0.000 
#    0.000    0.000    0.000    0.000    0.000    0.000 
#
# Total GULP energy -290179.944725 kJ/mol
# GULP energy per Si atom -5580.383552 kJ/mol
# Density = 2.043478 g / cm^3
# Si number density = 20.481400 Si / 1000 Ang^3
#
#
#
# Elastic Constant Matrix: (Units=GPa)
#
#
# Indices 1 2 3 4 5 6 
#
# 1 77.1156 20.1530 10.1160 0.0000 0.0000 0.0000
# 2 20.1530 106.1887 42.7006 0.0000 0.0000 0.0000
# 3 10.1160 42.7006 124.5130 0.0000 0.0000 0.0000
# 4 0.0000 0.0000 0.0000 8.7702 0.0000 0.0000
# 5 0.0000 0.0000 0.0000 0.0000 13.5756 0.0000
# 6 0.0000 0.0000 0.0000 0.0000 0.0000 26.2893
#
#
#
# Elastic Compliance Matrix: (Units=1/GPa)
#
#
# Indices 1 2 3 4 5 6 
#
# 1 0.013651 -0.002488 -0.000256 0.000000 0.000000 0.000000
# 2 -0.002488 0.011377 -0.003700 0.000000 0.000000 0.000000
# 3 -0.000256 -0.003700 0.009321 0.000000 0.000000 0.000000
# 4 0.000000 0.000000 0.000000 0.114022 0.000000 0.000000
# 5 0.000000 0.000000 0.000000 0.000000 0.073662 0.000000
# 6 0.000000 0.000000 0.000000 0.000000 0.000000 0.038038
#
#
# Mechanical properties :
#
#
# Convention : Reuss Voigt Hill
#
# Bulk Modulus (GPa) = 46.59292 50.41736 48.50514
# Shear Modulus (GPa) = 17.85001 25.38355 21.61678
#
# Velocity S-wave (km/s) = 2.95536 3.52425 3.25227
# Velocity P-wave (km/s) = 5.86889 6.42107 6.15118
#
# Compressibility (1/GPa) = 0.02146249
#
# Stress axis : x y z
#
# Youngs Moduli (GPa) = 73.25316 87.89652 107.28705
#
# Poissons Ratio (x) = 0.21868 0.02745
# Poissons Ratio (y) = 0.18225 0.39691
# Poissons Ratio (z) = 0.01874 0.32517
#
# Static dielectric constant tensor:
#      x y z
#    x 1.739820 0.000000 0.000000 
#    y 0.000000 1.712420 0.000000 
#    z 0.000000 0.000000 1.809460 
# 
# From -- ./inp_files/47465.got.cif
#   From: 2010.05.17/outbox.cif.g08.bks.cpg/sg66_24_cif.got.tgz:47465.got - 2010.06.03 17:51:23.
