data_PCOD9497523
_publ_section_title
;
Structure prediction by ZEFSAII (Michael W. Deem and Ramdas Pophale) SiO2 
 PCOD9497523
Probable space group: C C C M
;
_chemical_formula_sum "Si O2"
_cell_formula_units_Z 112
_cell_length_a 14.208492
_cell_length_b 15.053358
_cell_length_c 28.371458
_cell_angle_alpha 90.000000
_cell_angle_beta 90.000000
_cell_angle_gamma 90.000000
_cell_volume 6068.243954
_symmetry_space_group_name_H-M "C C C M"
_symmetry_group_IT_number 66
_symmetry_cell_setting 'orthorhombic'
loop_
_space_group_symop_operation_xyz
x,y,z
-x,-y,z
x,-y,1/2-z
-x,y,1/2-z
-x,-y,-z
x,y,-z
-x,y,1/2+z
x,-y,1/2+z
1/2+x,1/2+y,z
1/2-x,1/2-y,z
1/2+x,1/2-y,1/2-z
1/2-x,1/2+y,1/2-z
1/2-x,1/2-y,-z
1/2+x,1/2+y,-z
1/2-x,1/2+y,1/2+z
1/2+x,1/2-y,1/2+z
loop_
_atom_site_type_symbol
_atom_site_label
_atom_site_fract_x
_atom_site_fract_y
_atom_site_fract_z
Si Si1 0.796379 0.492371 0.194033
Si Si2 0.000251 0.773347 0.366666
Si Si3 0.763491 0.353794 0.056142
Si Si4 0.054311 0.909432 0.943889
Si Si5 0.680121 0.332321 0.689884
Si Si6 0.169431 0.825168 0.202190
Si Si7 0.064020 0.422426 0.617899
O O1 0.817591 0.500000 0.250000
O O2 0.743944 0.582228 0.179119
O O3 0.720406 0.414817 0.186736
O O4 0.887650 0.464599 0.164531
O O5 0.983387 0.824743 0.415473
O O6 0.915819 0.799201 0.331165
O O7 0.994934 0.666945 0.371692
O O8 0.095832 0.811101 0.344971
O O9 0.750000 0.250000 0.070176
O O10 0.666822 0.407603 0.064919
O O11 0.850303 0.393496 0.084433
O O12 0.781335 0.354609 0.000000
O O13 0.041012 0.898472 0.000000
O O14 0.000000 0.000000 0.929608
O O15 0.750000 0.250000 0.689765
O O16 0.640687 0.339031 0.743344
O O17 0.250000 0.750000 0.200414
O O18 0.000000 0.500000 0.596736
#
# Coordination Sequence:
#
# PCOD9497523 Si02
#       7
#    16  16  16  16  16  16  16
#     4  10  22  40  60  84 123 166 208 260 310 368
#     4  12  23  37  64  91 120 164 207 261 306 374
#     4  10  21  42  69  93 123 159 204 262 316 370
#     4  10  23  41  65  96 123 157 204 259 322 380
#     4  10  23  40  56  83 125 165 202 253 311 367
#     4  10  20  38  61  87 118 158 211 259 303 361
#     4  12  25  39  61  95 128 165 213 252 312 380
#
# _framework density 18.456741000000001
#
# number of rings (size 3 to 8) (size 9 to 14) (size 15 to 20)
#    0.000    1.429    2.857    2.143    4.000    0.571 
#    2.571    2.143    0.000    0.429    0.000    0.000 
#    0.000    0.000    0.000    0.000    0.000    0.000 
#
# Total GULP energy -312847.115573 kJ/mol
# GULP energy per Si atom -5586.555635 kJ/mol
# Density = 1.841473 g / cm^3
# Si number density = 18.456741 Si / 1000 Ang^3
#
#
#
# Elastic Constant Matrix: (Units=GPa)
#
#
# Indices 1 2 3 4 5 6 
#
# 1 79.9068 46.2286 34.4056 0.0000 0.0000 0.0000
# 2 46.2286 155.0403 30.5860 0.0000 0.0000 0.0000
# 3 34.4056 30.5860 53.3165 0.0000 0.0000 0.0000
# 4 0.0000 0.0000 0.0000 28.1554 0.0000 0.0000
# 5 0.0000 0.0000 0.0000 0.0000 7.4192 0.0000
# 6 0.0000 0.0000 0.0000 0.0000 0.0000 26.7139
#
#
#
# Elastic Compliance Matrix: (Units=1/GPa)
#
#
# Indices 1 2 3 4 5 6 
#
# 1 0.019011 -0.003663 -0.010167 0.000000 0.000000 0.000000
# 2 -0.003663 0.007979 -0.002213 0.000000 0.000000 0.000000
# 3 -0.010167 -0.002213 0.026586 0.000000 0.000000 0.000000
# 4 0.000000 0.000000 0.000000 0.035517 0.000000 0.000000
# 5 0.000000 0.000000 0.000000 0.000000 0.134785 0.000000
# 6 0.000000 0.000000 0.000000 0.000000 0.000000 0.037434
#
#
# Mechanical properties :
#
#
# Convention : Reuss Voigt Hill
#
# Bulk Modulus (GPa) = 46.53314 56.74491 51.63902
# Shear Modulus (GPa) = 16.63552 24.26061 20.44806
#
# Velocity S-wave (km/s) = 3.00546 3.62948 3.33211
# Velocity P-wave (km/s) = 6.10823 6.95526 6.54546
#
# Compressibility (1/GPa) = 0.02149006
#
# Stress axis : x y z
#
# Youngs Moduli (GPa) = 52.60044 125.33245 37.61313
#
# Poissons Ratio (x) = 0.45908 0.38241
# Poissons Ratio (y) = 0.19267 0.08326
# Poissons Ratio (z) = 0.53478 0.27742
#
# Static dielectric constant tensor:
#      x y z
#    x 1.611700 0.000000 0.000000 
#    y 0.000000 1.609660 0.000000 
#    z 0.000000 0.000000 1.664640 
# 
# From -- ./inp_files/69084.got.cif
#   From: 2010.05.17/outbox.cif.g08.bks.cpg/sg66_35_cif.got.tgz:69084.got - 2010.06.03 17:51:23.
