data_PCOD9497460
_publ_section_title
;
Structure prediction by ZEFSAII (Michael W. Deem and Ramdas Pophale) SiO2 
 PCOD9497460
Probable space group: C C C M
;
_chemical_formula_sum "Si O2"
_cell_formula_units_Z 80
_cell_length_a 8.822676
_cell_length_b 16.389255
_cell_length_c 24.200184
_cell_angle_alpha 90.000000
_cell_angle_beta 90.000000
_cell_angle_gamma 90.000000
_cell_volume 3499.276105
_symmetry_space_group_name_H-M "C C C M"
_symmetry_group_IT_number 66
_symmetry_cell_setting 'orthorhombic'
loop_
_space_group_symop_operation_xyz
x,y,z
-x,-y,z
x,-y,1/2-z
-x,y,1/2-z
-x,-y,-z
x,y,-z
-x,y,1/2+z
x,-y,1/2+z
1/2+x,1/2+y,z
1/2-x,1/2-y,z
1/2+x,1/2-y,1/2-z
1/2-x,1/2+y,1/2-z
1/2-x,1/2-y,-z
1/2+x,1/2+y,-z
1/2-x,1/2+y,1/2+z
1/2+x,1/2-y,1/2+z
loop_
_atom_site_type_symbol
_atom_site_label
_atom_site_fract_x
_atom_site_fract_y
_atom_site_fract_z
Si Si1 0.830876 0.339088 0.435077
Si Si2 0.433427 0.386796 0.657641
Si Si3 0.000000 0.620154 0.750000
Si Si4 0.576696 0.725546 0.563244
Si Si5 0.250000 0.250000 0.713771
Si Si6 0.245131 0.449489 0.833034
O O1 0.823710 0.362019 0.500000
O O2 0.750000 0.250000 0.427856
O O3 0.784323 0.409590 0.393051
O O4 0.996503 0.308534 0.416825
O O5 0.459139 0.358594 0.594438
O O6 0.366980 0.304163 0.680315
O O7 0.307756 0.457715 0.663555
O O8 0.595015 0.406876 0.685681
O O9 0.139339 0.683100 0.760086
O O10 0.096157 0.567101 0.704150
O O11 0.526755 0.714607 0.500000
O O12 0.750000 0.750000 0.564223
#
# Coordination Sequence:
#
# PCOD9497460 Si02
#       6
#    16  16   8  16   8  16
#     4  10  20  38  69 104 144 190 237 290 355 435
#     4  11  24  44  68 101 138 190 232 301 359 437
#     4  12  28  49  72 103 134 190 240 313 366 446
#     4  10  20  37  64 101 143 189 237 287 348 425
#     4  12  26  44  71  94 127 178 244 290 368 436
#     4  11  26  44  69 103 147 181 241 300 373 427
#
# _framework density 22.86187
#
# number of rings (size 3 to 8) (size 9 to 14) (size 15 to 20)
#    0.000    1.200    3.000    2.400    1.400    3.200 
#    0.000    4.000    0.000    3.600    0.000    0.000 
#    0.000    0.000    0.000    3.600    0.000    0.000 
#
# Total GULP energy -222780.925390 kJ/mol
# GULP energy per Si atom -5569.523135 kJ/mol
# Density = 2.280984 g / cm^3
# Si number density = 22.861870 Si / 1000 Ang^3
#
#
#
# Elastic Constant Matrix: (Units=GPa)
#
#
# Indices 1 2 3 4 5 6 
#
# 1 132.8977 53.5068 45.7338 0.0000 0.0000 0.0000
# 2 53.5068 137.2340 66.6128 0.0000 0.0000 0.0000
# 3 45.7338 66.6128 84.3410 0.0000 0.0000 0.0000
# 4 0.0000 0.0000 0.0000 22.7026 0.0000 0.0000
# 5 0.0000 0.0000 0.0000 0.0000 25.5415 0.0000
# 6 0.0000 0.0000 0.0000 0.0000 0.0000 49.7497
#
#
#
# Elastic Compliance Matrix: (Units=1/GPa)
#
#
# Indices 1 2 3 4 5 6 
#
# 1 0.009567 -0.001966 -0.003635 0.000000 0.000000 0.000000
# 2 -0.001966 0.012221 -0.008586 0.000000 0.000000 0.000000
# 3 -0.003635 -0.008586 0.020609 0.000000 0.000000 0.000000
# 4 0.000000 0.000000 0.000000 0.044048 0.000000 0.000000
# 5 0.000000 0.000000 0.000000 0.000000 0.039152 0.000000
# 6 0.000000 0.000000 0.000000 0.000000 0.000000 0.020101
#
#
# Mechanical properties :
#
#
# Convention : Reuss Voigt Hill
#
# Bulk Modulus (GPa) = 71.31160 76.24216 73.77688
# Shear Modulus (GPa) = 27.97261 32.17339 30.07300
#
# Velocity S-wave (km/s) = 3.50172 3.75546 3.63081
# Velocity P-wave (km/s) = 6.89996 7.22676 7.06525
#
# Compressibility (1/GPa) = 0.01402296
#
# Stress axis : x y z
#
# Youngs Moduli (GPa) = 104.52651 81.82664 48.52159
#
# Poissons Ratio (x) = 0.16083 0.17639
# Poissons Ratio (y) = 0.20545 0.41662
# Poissons Ratio (z) = 0.37998 0.70259
#
# Static dielectric constant tensor:
#      x y z
#    x -1.867550 0.000000 0.000000 
#    y 0.000000 1.838130 0.000000 
#    z 0.000000 0.000000 2.017150 
# 
# From -- ./inp_files/62458.got.cif
#   From: 2010.05.17/outbox.cif.g08.bks.cpg/sg66_32_cif.got.tgz:62458.got - 2010.06.03 17:51:23.
