data_PCOD9497589
_publ_section_title
;
Structure prediction by ZEFSAII (Michael W. Deem and Ramdas Pophale) SiO2 
 PCOD9497589
Probable space group: C C C M
;
_chemical_formula_sum "Si O2"
_cell_formula_units_Z 64
_cell_length_a 13.533744
_cell_length_b 21.218531
_cell_length_c 9.834465
_cell_angle_alpha 90.000000
_cell_angle_beta 90.000000
_cell_angle_gamma 90.000000
_cell_volume 2824.125615
_symmetry_space_group_name_H-M "C C C M"
_symmetry_group_IT_number 66
_symmetry_cell_setting 'orthorhombic'
loop_
_space_group_symop_operation_xyz
x,y,z
-x,-y,z
x,-y,1/2-z
-x,y,1/2-z
-x,-y,-z
x,y,-z
-x,y,1/2+z
x,-y,1/2+z
1/2+x,1/2+y,z
1/2-x,1/2-y,z
1/2+x,1/2-y,1/2-z
1/2-x,1/2+y,1/2-z
1/2-x,1/2-y,-z
1/2+x,1/2+y,-z
1/2-x,1/2+y,1/2+z
1/2+x,1/2-y,1/2+z
loop_
_atom_site_type_symbol
_atom_site_label
_atom_site_fract_x
_atom_site_fract_y
_atom_site_fract_z
Si Si1 0.954933 0.308157 0.500000
Si Si2 0.255321 0.951087 0.500000
Si Si3 0.173631 0.645796 0.000000
Si Si4 0.394519 0.910526 0.721118
Si Si5 0.000000 0.114922 0.750000
Si Si6 0.882388 0.170488 0.500000
Si Si7 0.367961 0.577974 0.000000
O O1 0.922104 0.349232 0.629725
O O2 0.887898 0.245837 0.500000
O O3 0.077690 0.304183 0.500000
O O4 0.324139 0.952667 0.631059
O O5 0.204623 0.881602 0.500000
O O6 0.184946 0.010578 0.500000
O O7 0.153307 0.609354 0.861408
O O8 0.295364 0.640564 0.000000
O O9 0.500000 0.938684 0.750000
O O10 0.068876 0.079046 0.640366
O O11 0.936080 0.154888 0.643145
#
# Coordination Sequence:
#
# PCOD9497589 Si02
#       7
#     8   8   8  16   8   8   8
#     4   9  21  41  67  96 150 186 224 293 356 433
#     4  11  24  43  71 100 142 194 245 297 359 453
#     4  10  20  38  70 100 135 184 234 288 356 428
#     4   9  20  40  65 102 141 186 235 290 362 422
#     4  10  26  45  68 102 134 184 239 304 368 432
#     4  11  24  41  69 103 140 189 240 292 368 430
#     4  11  25  49  71 101 140 185 247 305 370 441
#
# _framework density 22.661881000000001
#
# number of rings (size 3 to 8) (size 9 to 14) (size 15 to 20)
#    0.000    2.000    0.000    2.250    5.250    9.000 
#    0.000   17.500    0.000    0.000    0.000    0.000 
#    0.000    0.000    0.000    0.000    0.000    0.000 
#
# Total GULP energy -178263.307397 kJ/mol
# GULP energy per Si atom -5570.728356 kJ/mol
# Density = 2.261030 g / cm^3
# Si number density = 22.661881 Si / 1000 Ang^3
#
#
#
# Elastic Constant Matrix: (Units=GPa)
#
#
# Indices 1 2 3 4 5 6 
#
# 1 64.1272 34.1232 34.1745 0.0000 0.0000 0.0000
# 2 34.1232 126.4383 33.1768 0.0000 0.0000 0.0000
# 3 34.1745 33.1768 204.2571 0.0000 0.0000 0.0000
# 4 0.0000 0.0000 0.0000 1.8626 0.0000 0.0000
# 5 0.0000 0.0000 0.0000 0.0000 5.5439 0.0000
# 6 0.0000 0.0000 0.0000 0.0000 0.0000 -24.2378
#
#
#
# Elastic Compliance Matrix: (Units=1/GPa)
#
#
# Indices 1 2 3 4 5 6 
#
# 1 0.019355 -0.004569 -0.002496 0.000000 0.000000 0.000000
# 2 -0.004569 0.009339 -0.000753 0.000000 0.000000 0.000000
# 3 -0.002496 -0.000753 0.005436 0.000000 0.000000 0.000000
# 4 0.000000 0.000000 0.000000 0.536886 0.000000 0.000000
# 5 0.000000 0.000000 0.000000 0.000000 0.180378 0.000000
# 6 0.000000 0.000000 0.000000 0.000000 0.000000 -0.041258
#
#
# Mechanical properties :
#
#
# Convention : Reuss Voigt Hill
#
# Bulk Modulus (GPa) = 54.06726 66.41907 60.24316
# Shear Modulus (GPa) = 6.83119 16.19028 11.51073
#
# Velocity S-wave (km/s) = 1.73809 2.67578 2.25618
# Velocity P-wave (km/s) = 5.28564 6.23849 5.78172
#
# Compressibility (1/GPa) = 0.01849548
#
# Stress axis : x y z
#
# Youngs Moduli (GPa) = 51.66528 107.07265 183.96915
#
# Poissons Ratio (x) = 0.48917 0.45924
# Poissons Ratio (y) = 0.23604 0.13845
# Poissons Ratio (z) = 0.12897 0.08058
#
# Static dielectric constant tensor:
#      x y z
#    x 2.074650 0.000000 0.000000 
#    y 0.000000 1.851290 0.000000 
#    z 0.000000 0.000000 1.760540 
# 
# From -- ./inp_files/5171.got.cif
#   From: 2010.05.17/outbox.cif.g08.bks.cpg/sg66_3_cif.got.tgz:5171.got - 2010.06.03 17:51:23.
