data_PCOD9497365
_publ_section_title
;
Structure prediction by ZEFSAII (Michael W. Deem and Ramdas Pophale) SiO2 
 PCOD9497365
Probable space group: C C C M
;
_chemical_formula_sum "Si O2"
_cell_formula_units_Z 96
_cell_length_a 10.437904
_cell_length_b 18.469398
_cell_length_c 23.733562
_cell_angle_alpha 90.000000
_cell_angle_beta 90.000000
_cell_angle_gamma 90.000000
_cell_volume 4575.398880
_symmetry_space_group_name_H-M "C C C M"
_symmetry_group_IT_number 66
_symmetry_cell_setting 'orthorhombic'
loop_
_space_group_symop_operation_xyz
x,y,z
-x,-y,z
x,-y,1/2-z
-x,y,1/2-z
-x,-y,-z
x,y,-z
-x,y,1/2+z
x,-y,1/2+z
1/2+x,1/2+y,z
1/2-x,1/2-y,z
1/2+x,1/2-y,1/2-z
1/2-x,1/2+y,1/2-z
1/2-x,1/2-y,-z
1/2+x,1/2+y,-z
1/2-x,1/2+y,1/2+z
1/2+x,1/2-y,1/2+z
loop_
_atom_site_type_symbol
_atom_site_label
_atom_site_fract_x
_atom_site_fract_y
_atom_site_fract_z
Si Si1 0.782646 0.118314 0.934447
Si Si2 0.961341 0.084498 0.372520
Si Si3 0.948052 0.419692 0.672075
Si Si4 0.307216 0.826366 0.173837
Si Si5 0.202996 0.550498 0.434399
Si Si6 0.821259 0.916945 0.763318
O O1 0.701400 0.168452 0.893461
O O2 0.924976 0.120211 0.907828
O O3 0.727844 0.036104 0.928090
O O4 0.782595 0.136242 0.000000
O O5 0.833078 0.086024 0.410463
O O6 0.923165 0.111078 0.309568
O O7 0.000000 0.000000 0.366721
O O8 0.910677 0.423586 0.606077
O O9 0.815007 0.410521 0.704655
O O10 0.000000 0.500000 0.686111
O O11 0.051479 0.357933 0.686334
O O12 0.250000 0.750000 0.193124
O O13 0.207902 0.881161 0.203526
O O14 0.181856 0.565602 0.500000
O O15 0.848984 0.000000 0.750000
#
# Coordination Sequence:
#
# PCOD9497365 Si02
#       6
#    16  16  16  16  16  16
#     4  10  20  37  59  85 125 168 205 254 316 389
#     4   9  18  33  56  92 124 149 194 256 323 372
#     4  11  20  38  63  90 122 162 212 262 317 382
#     4  12  26  41  57  92 125 164 213 268 331 382
#     4   9  17  31  60  94 119 152 206 265 311 368
#     4  11  21  38  65  90 121 163 213 263 318 393
#
# _framework density 20.981777999999998
#
# number of rings (size 3 to 8) (size 9 to 14) (size 15 to 20)
#    0.000    1.667    3.333    3.000    0.000    5.667 
#    6.000    0.000    0.000    0.000    0.000    3.500 
#    0.000    0.000    0.000    0.000    0.000    0.000 
#
# Total GULP energy -267955.594403 kJ/mol
# GULP energy per Si atom -5582.408217 kJ/mol
# Density = 2.093402 g / cm^3
# Si number density = 20.981778 Si / 1000 Ang^3
#
#
#
# Elastic Constant Matrix: (Units=GPa)
#
#
# Indices 1 2 3 4 5 6 
#
# 1 118.4628 16.2433 25.2794 0.0000 0.0000 0.0000
# 2 16.2433 41.5217 7.6106 0.0000 0.0000 0.0000
# 3 25.2794 7.6106 142.5960 0.0000 0.0000 0.0000
# 4 0.0000 0.0000 0.0000 3.8389 0.0000 0.0000
# 5 0.0000 0.0000 0.0000 0.0000 26.4200 0.0000
# 6 0.0000 0.0000 0.0000 0.0000 0.0000 17.8719
#
#
#
# Elastic Compliance Matrix: (Units=1/GPa)
#
#
# Indices 1 2 3 4 5 6 
#
# 1 0.009209 -0.003336 -0.001455 0.000000 0.000000 0.000000
# 2 -0.003336 0.025530 -0.000771 0.000000 0.000000 0.000000
# 3 -0.001455 -0.000771 0.007312 0.000000 0.000000 0.000000
# 4 0.000000 0.000000 0.000000 0.260491 0.000000 0.000000
# 5 0.000000 0.000000 0.000000 0.000000 0.037850 0.000000
# 6 0.000000 0.000000 0.000000 0.000000 0.000000 0.055954
#
#
# Mechanical properties :
#
#
# Convention : Reuss Voigt Hill
#
# Bulk Modulus (GPa) = 32.33342 44.53857 38.43600
# Shear Modulus (GPa) = 11.96805 26.52264 19.24534
#
# Velocity S-wave (km/s) = 2.39090 3.55925 3.03188
# Velocity P-wave (km/s) = 4.80266 6.17773 5.53308
#
# Compressibility (1/GPa) = 0.03092775
#
# Stress axis : x y z
#
# Youngs Moduli (GPa) = 108.58589 39.16924 136.76442
#
# Poissons Ratio (x) = 0.13067 0.19893
# Poissons Ratio (y) = 0.36225 0.10547
# Poissons Ratio (z) = 0.15795 0.03021
#
# Static dielectric constant tensor:
#      x y z
#    x 1.834410 0.000000 0.000000 
#    y 0.000000 1.739090 0.000000 
#    z 0.000000 0.000000 1.775550 
# 
# From -- ./inp_files/48801.got.cif
#   From: 2010.05.17/outbox.cif.g08.bks.cpg/sg66_25_cif.got.tgz:48801.got - 2010.06.03 17:51:23.
