data_PCOD9497444
_publ_section_title
;
Structure prediction by ZEFSAII (Michael W. Deem and Ramdas Pophale) SiO2 
 PCOD9497444
Probable space group: C C C M
;
_chemical_formula_sum "Si O2"
_cell_formula_units_Z 68
_cell_length_a 12.909507
_cell_length_b 20.533405
_cell_length_c 10.974445
_cell_angle_alpha 90.000000
_cell_angle_beta 90.000000
_cell_angle_gamma 90.000000
_cell_volume 2909.063471
_symmetry_space_group_name_H-M "C C C M"
_symmetry_group_IT_number 66
_symmetry_cell_setting 'orthorhombic'
loop_
_space_group_symop_operation_xyz
x,y,z
-x,-y,z
x,-y,1/2-z
-x,y,1/2-z
-x,-y,-z
x,y,-z
-x,y,1/2+z
x,-y,1/2+z
1/2+x,1/2+y,z
1/2-x,1/2-y,z
1/2+x,1/2-y,1/2-z
1/2-x,1/2+y,1/2-z
1/2-x,1/2-y,-z
1/2+x,1/2+y,-z
1/2-x,1/2+y,1/2+z
1/2+x,1/2-y,1/2+z
loop_
_atom_site_type_symbol
_atom_site_label
_atom_site_fract_x
_atom_site_fract_y
_atom_site_fract_z
Si Si1 0.377108 0.543480 0.631018
Si Si2 0.774347 0.673352 0.364345
Si Si3 0.500000 0.000000 0.250000
Si Si4 0.851919 0.604566 0.135231
Si Si5 0.461978 0.663210 0.131653
O O1 0.388692 0.500000 0.750000
O O2 0.386766 0.507766 0.500000
O O3 0.262848 0.573722 0.631544
O O4 0.460520 0.601802 0.629973
O O5 0.815314 0.657314 0.500000
O O6 0.750000 0.750000 0.358500
O O7 0.845114 0.651811 0.252294
O O8 0.658097 0.643514 0.355145
O O9 0.430094 0.046741 0.166992
O O10 0.872612 0.632665 0.000000
O O11 0.500000 0.702392 0.250000
O O12 0.471017 0.696767 0.000000
#
# Coordination Sequence:
#
# PCOD9497444 Si02
#       5
#    16  16   4  16  16
#     4  10  21  38  61  94 132 169 209 259 326 393
#     4  10  23  45  71  99 136 180 225 281 351 420
#     4  12  26  48  68  92 142 196 244 292 354 434
#     4  11  24  44  70  99 132 179 234 290 346 410
#     4  10  20  37  62  93 130 168 209 260 326 396
#
# _framework density 23.375222000000001
#
# number of rings (size 3 to 8) (size 9 to 14) (size 15 to 20)
#    0.000    1.647    3.529    0.353    0.000    4.706 
#    4.235    2.353    0.000    0.000    0.000    0.000 
#    0.000    0.000    0.000    0.000    0.000    0.000 
#
# Total GULP energy -190009.691831 kJ/mol
# GULP energy per Si atom -5588.520348 kJ/mol
# Density = 2.332202 g / cm^3
# Si number density = 23.375222 Si / 1000 Ang^3
#
#
#
# Elastic Constant Matrix: (Units=GPa)
#
#
# Indices 1 2 3 4 5 6 
#
# 1 72.8504 34.0426 21.4664 0.0000 0.0000 0.0000
# 2 34.0426 58.4679 44.9486 0.0000 0.0000 0.0000
# 3 21.4664 44.9486 279.3923 0.0000 0.0000 0.0000
# 4 0.0000 0.0000 0.0000 10.6999 0.0000 0.0000
# 5 0.0000 0.0000 0.0000 0.0000 -16.0020 0.0000
# 6 0.0000 0.0000 0.0000 0.0000 0.0000 23.6507
#
#
#
# Elastic Compliance Matrix: (Units=1/GPa)
#
#
# Indices 1 2 3 4 5 6 
#
# 1 0.018890 -0.011277 0.000363 0.000000 0.000000 0.000000
# 2 -0.011277 0.026250 -0.003357 0.000000 0.000000 0.000000
# 3 0.000363 -0.003357 0.004091 0.000000 0.000000 0.000000
# 4 0.000000 0.000000 0.000000 0.093459 0.000000 0.000000
# 5 0.000000 0.000000 0.000000 0.000000 -0.062492 0.000000
# 6 0.000000 0.000000 0.000000 0.000000 0.000000 0.042282
#
#
# Mechanical properties :
#
#
# Convention : Reuss Voigt Hill
#
# Bulk Modulus (GPa) = 48.33508 67.95840 58.14674
# Shear Modulus (GPa) = 31.66199 24.35327 28.00763
#
# Velocity S-wave (km/s) = 3.68436 3.23126 3.46522
# Velocity P-wave (km/s) = 6.23074 6.56181 6.39842
#
# Compressibility (1/GPa) = 0.02068891
#
# Stress axis : x y z
#
# Youngs Moduli (GPa) = 52.93891 38.09510 244.41975
#
# Poissons Ratio (x) = 0.42962 -0.08872
# Poissons Ratio (y) = 0.59702 0.82043
# Poissons Ratio (z) = -0.01922 0.12787
#
# Static dielectric constant tensor:
#      x y z
#    x 1.866910 0.000000 0.000000 
#    y 0.000000 1.881750 0.000000 
#    z 0.000000 0.000000 2.008250 
# 
# From -- ./inp_files/16140.got.cif
#   From: 2010.05.17/outbox.cif.g08.bks.cpg/sg66_9_cif.got.tgz:16140.got - 2010.06.03 17:51:23.
