data_PCOD9497943
_publ_section_title
;
Structure prediction by ZEFSAII (Michael W. Deem and Ramdas Pophale) SiO2 
 PCOD9497943
Probable space group: C C C M
;
_chemical_formula_sum "Si O2"
_cell_formula_units_Z 64
_cell_length_a 12.720844
_cell_length_b 16.440375
_cell_length_c 15.074395
_cell_angle_alpha 90.000000
_cell_angle_beta 90.000000
_cell_angle_gamma 90.000000
_cell_volume 3152.590317
_symmetry_space_group_name_H-M "C C C M"
_symmetry_group_IT_number 66
_symmetry_cell_setting 'orthorhombic'
loop_
_space_group_symop_operation_xyz
x,y,z
-x,-y,z
x,-y,1/2-z
-x,y,1/2-z
-x,-y,-z
x,y,-z
-x,y,1/2+z
x,-y,1/2+z
1/2+x,1/2+y,z
1/2-x,1/2-y,z
1/2+x,1/2-y,1/2-z
1/2-x,1/2+y,1/2-z
1/2-x,1/2-y,-z
1/2+x,1/2+y,-z
1/2-x,1/2+y,1/2+z
1/2+x,1/2-y,1/2+z
loop_
_atom_site_type_symbol
_atom_site_label
_atom_site_fract_x
_atom_site_fract_y
_atom_site_fract_z
Si Si1 0.834802 0.490953 0.858278
Si Si2 0.005297 0.367296 0.143014
Si Si3 0.607420 0.467709 0.350486
Si Si4 0.361586 0.286381 0.103529
O O1 0.834011 0.500000 0.750000
O O2 0.907011 0.566918 0.886524
O O3 0.716597 0.500492 0.890920
O O4 0.894451 0.407901 0.883576
O O5 0.046670 0.280373 0.112146
O O6 0.000000 0.364608 0.250000
O O7 0.500000 0.500000 0.392725
O O8 0.607778 0.500000 0.250000
O O9 0.611258 0.370323 0.349263
O O10 0.250000 0.250000 0.136986
O O11 0.346479 0.305882 0.000000
#
# Coordination Sequence:
#
# PCOD9497943 Si02
#       4
#    16  16  16  16
#     4   8  15  32  54  86 114 143 190 246 288 327
#     4   9  17  32  60  84 110 148 197 247 285 329
#     4  10  21  37  57  85 117 155 200 236 288 350
#     4  11  23  39  58  87 123 157 193 238 296 359
#
# _framework density 20.300767
#
# number of rings (size 3 to 8) (size 9 to 14) (size 15 to 20)
#    0.000    2.500    2.500    1.500    3.500    0.500 
#    0.000    5.000    0.000    1.500    0.000    0.000 
#    0.000    0.000    0.000    0.000    0.000    0.000 
#
# Total GULP energy -178483.013120 kJ/mol
# GULP energy per Si atom -5577.594160 kJ/mol
# Density = 2.025456 g / cm^3
# Si number density = 20.300767 Si / 1000 Ang^3
#
#
#
# Elastic Constant Matrix: (Units=GPa)
#
#
# Indices 1 2 3 4 5 6 
#
# 1 181.1980 80.6766 4.4755 0.0000 0.0000 0.0000
# 2 80.6766 180.1790 22.8344 0.0000 0.0000 0.0000
# 3 4.4755 22.8344 52.2384 0.0000 0.0000 0.0000
# 4 0.0000 0.0000 0.0000 4.3574 0.0000 0.0000
# 5 0.0000 0.0000 0.0000 0.0000 -2.0261 0.0000
# 6 0.0000 0.0000 0.0000 0.0000 0.0000 34.1393
#
#
#
# Elastic Compliance Matrix: (Units=1/GPa)
#
#
# Indices 1 2 3 4 5 6 
#
# 1 0.006925 -0.003203 0.000807 0.000000 0.000000 0.000000
# 2 -0.003203 0.007357 -0.002941 0.000000 0.000000 0.000000
# 3 0.000807 -0.002941 0.020360 0.000000 0.000000 0.000000
# 4 0.000000 0.000000 0.000000 0.229494 0.000000 0.000000
# 5 0.000000 0.000000 0.000000 0.000000 -0.493548 0.000000
# 6 0.000000 0.000000 0.000000 0.000000 0.000000 0.029292
#
#
# Mechanical properties :
#
#
# Convention : Reuss Voigt Hill
#
# Bulk Modulus (GPa) = 41.72523 69.95428 55.83975
# Shear Modulus (GPa) = -27.55482 27.66937 0.05727
#
# Velocity S-wave (km/s) = -3.68819 3.69585 0.16815
# Velocity P-wave (km/s) = 1.56880 7.26265 5.25392
#
# Compressibility (1/GPa) = 0.02396632
#
# Stress axis : x y z
#
# Youngs Moduli (GPa) = 144.40462 135.92564 49.11676
#
# Poissons Ratio (x) = 0.43536 -0.03963
# Poissons Ratio (y) = 0.46252 0.14447
# Poissons Ratio (z) = -0.11650 0.39982
#
# Static dielectric constant tensor:
#      x y z
#    x 1.771090 0.000000 0.000000 
#    y 0.000000 1.690610 0.000000 
#    z 0.000000 0.000000 1.741690 
# 
# From -- ./inp_files/38010.got.cif
#   From: 2010.05.17/outbox.cif.g08.bks.cpg/sg66_20_cif.got.tgz:38010.got - 2010.06.03 17:51:23.
