data_PCOD9497237
_publ_section_title
;
Structure prediction by ZEFSAII (Michael W. Deem and Ramdas Pophale) SiO2 
 PCOD9497237
Probable space group: C C C M
;
_chemical_formula_sum "Si O2"
_cell_formula_units_Z 116
_cell_length_a 22.579869
_cell_length_b 26.483133
_cell_length_c 9.633417
_cell_angle_alpha 90.000000
_cell_angle_beta 90.000000
_cell_angle_gamma 90.000000
_cell_volume 5760.645356
_symmetry_space_group_name_H-M "C C C M"
_symmetry_group_IT_number 66
_symmetry_cell_setting 'orthorhombic'
loop_
_space_group_symop_operation_xyz
x,y,z
-x,-y,z
x,-y,1/2-z
-x,y,1/2-z
-x,-y,-z
x,y,-z
-x,y,1/2+z
x,-y,1/2+z
1/2+x,1/2+y,z
1/2-x,1/2-y,z
1/2+x,1/2-y,1/2-z
1/2-x,1/2+y,1/2-z
1/2-x,1/2-y,-z
1/2+x,1/2+y,-z
1/2-x,1/2+y,1/2+z
1/2+x,1/2-y,1/2+z
loop_
_atom_site_type_symbol
_atom_site_label
_atom_site_fract_x
_atom_site_fract_y
_atom_site_fract_z
Si Si1 0.286364 0.911586 0.335662
Si Si2 0.000000 0.500000 0.250000
Si Si3 0.946330 0.884858 0.338760
Si Si4 0.172433 0.049877 0.334861
Si Si5 0.059387 0.689223 0.836418
Si Si6 0.897780 0.574142 0.656996
Si Si7 0.768576 0.808311 0.154824
Si Si8 0.121074 0.789574 0.834577
O O1 0.281793 0.923882 0.500000
O O2 0.230641 0.930154 0.245110
O O3 0.346123 0.933932 0.269403
O O4 0.281992 0.850275 0.322155
O O5 0.954248 0.537269 0.328473
O O6 0.962850 0.886244 0.500000
O O7 0.884110 0.913571 0.323588
O O8 0.932322 0.827038 0.297735
O O9 0.000000 0.906044 0.250000
O O10 0.184019 0.041967 0.500000
O O11 0.156028 0.000000 0.250000
O O12 0.081421 0.631935 0.821601
O O13 0.106165 0.732307 0.793323
O O14 0.000000 0.695806 0.750000
O O15 0.047466 0.697432 0.000000
O O16 0.873956 0.569434 0.500000
O O17 0.750000 0.750000 0.157532
O O18 0.820346 0.811296 0.265435
O O19 0.792338 0.819347 0.000000
O O20 0.128753 0.791391 0.000000
#
# Coordination Sequence:
#
# PCOD9497237 Si02
#       8
#    16   4  16  16  16  16  16  16
#     4  11  24  42  67  98 131 171 216 268 330 392
#     4  12  26  48  72  94 130 176 222 278 332 388
#     4  10  22  39  62  93 128 168 211 260 314 378
#     4  11  24  44  67  93 128 168 215 270 324 386
#     4  10  21  38  60  89 125 166 213 266 326 390
#     4  11  25  44  67  95 126 167 218 274 332 392
#     4  10  21  37  59  92 131 169 211 259 317 384
#     4  10  20  36  59  90 127 167 212 259 317 384
#
# _framework density 20.136634000000001
#
# number of rings (size 3 to 8) (size 9 to 14) (size 15 to 20)
#    0.000    1.517    2.069    2.276    0.966    4.966 
#    0.000    1.379    0.000    0.000    0.000    0.000 
#    0.000    0.000    0.000    0.000    0.000    0.000 
#
# Total GULP energy -323709.889682 kJ/mol
# GULP energy per Si atom -5581.204995 kJ/mol
# Density = 2.009080 g / cm^3
# Si number density = 20.136634 Si / 1000 Ang^3
#
#
#
# Elastic Constant Matrix: (Units=GPa)
#
#
# Indices 1 2 3 4 5 6 
#
# 1 99.9885 19.0034 66.5077 0.0000 0.0000 0.0000
# 2 19.0034 92.4120 39.6288 0.0000 0.0000 0.0000
# 3 66.5077 39.6288 92.3313 0.0000 0.0000 0.0000
# 4 0.0000 0.0000 0.0000 21.5214 0.0000 0.0000
# 5 0.0000 0.0000 0.0000 0.0000 39.6812 0.0000
# 6 0.0000 0.0000 0.0000 0.0000 0.0000 25.2845
#
#
#
# Elastic Compliance Matrix: (Units=1/GPa)
#
#
# Indices 1 2 3 4 5 6 
#
# 1 0.019656 0.002487 -0.015226 0.000000 0.000000 0.000000
# 2 0.002487 0.013577 -0.007619 0.000000 0.000000 0.000000
# 3 -0.015226 -0.007619 0.025068 0.000000 0.000000 0.000000
# 4 0.000000 0.000000 0.000000 0.046465 0.000000 0.000000
# 5 0.000000 0.000000 0.000000 0.000000 0.025201 0.000000
# 6 0.000000 0.000000 0.000000 0.000000 0.000000 0.039550
#
#
# Mechanical properties :
#
#
# Convention : Reuss Voigt Hill
#
# Bulk Modulus (GPa) = 56.86410 59.44571 58.15491
# Shear Modulus (GPa) = 23.13798 27.93687 25.53742
#
# Velocity S-wave (km/s) = 3.39344 3.72878 3.56505
# Velocity P-wave (km/s) = 6.60714 6.93712 6.77414
#
# Compressibility (1/GPa) = 0.01758579
#
# Stress axis : x y z
#
# Youngs Moduli (GPa) = 50.87453 73.65511 39.89103
#
# Poissons Ratio (x) = -0.18321 0.60739
# Poissons Ratio (y) = -0.12654 0.30392
# Poissons Ratio (z) = 0.77463 0.56117
#
# Static dielectric constant tensor:
#      x y z
#    x 1.682880 0.000000 0.000000 
#    y 0.000000 1.767120 0.000000 
#    z 0.000000 0.000000 1.693910 
# 
# From -- ./inp_files/9466.got.cif
#   From: 2010.05.17/outbox.cif.g08.bks.cpg/sg66_5_cif.got.tgz:9466.got - 2010.06.03 17:51:23.
