data_PCOD9497454
_publ_section_title
;
Structure prediction by ZEFSAII (Michael W. Deem and Ramdas Pophale) SiO2 
 PCOD9497454
Probable space group: C C C M
;
_chemical_formula_sum "Si O2"
_cell_formula_units_Z 64
_cell_length_a 9.794710
_cell_length_b 19.538050
_cell_length_c 13.322439
_cell_angle_alpha 90.000000
_cell_angle_beta 90.000000
_cell_angle_gamma 90.000000
_cell_volume 2549.508939
_symmetry_space_group_name_H-M "C C C M"
_symmetry_group_IT_number 66
_symmetry_cell_setting 'orthorhombic'
loop_
_space_group_symop_operation_xyz
x,y,z
-x,-y,z
x,-y,1/2-z
-x,y,1/2-z
-x,-y,-z
x,y,-z
-x,y,1/2+z
x,-y,1/2+z
1/2+x,1/2+y,z
1/2-x,1/2-y,z
1/2+x,1/2-y,1/2-z
1/2-x,1/2+y,1/2-z
1/2-x,1/2-y,-z
1/2+x,1/2+y,-z
1/2-x,1/2+y,1/2+z
1/2+x,1/2-y,1/2+z
loop_
_atom_site_type_symbol
_atom_site_label
_atom_site_fract_x
_atom_site_fract_y
_atom_site_fract_z
Si Si1 0.904402 0.647815 0.383480
Si Si2 0.097121 0.224479 0.879238
Si Si3 0.835936 0.572515 0.197896
Si Si4 0.052619 0.072835 0.888204
O O1 0.858020 0.644335 0.500000
O O2 0.806828 0.624201 0.292323
O O3 0.976312 0.720685 0.363189
O O4 0.032114 0.597183 0.362398
O O5 0.250000 0.250000 0.844775
O O6 0.042006 0.150079 0.847845
O O7 0.113387 0.219506 0.000000
O O8 0.851040 0.500000 0.250000
O O9 0.715228 0.566608 0.119399
O O10 0.994927 0.075433 0.000000
O O11 0.000000 0.000000 0.847607
#
# Coordination Sequence:
#
# PCOD9497454 Si02
#       4
#    16  16  16  16
#     4  10  20  37  63  94 127 169 222 280 333 393
#     4   9  16  33  64  95 124 164 220 274 332 411
#     4  11  23  37  58  94 131 168 221 278 333 409
#     4  10  21  40  67  96 130 172 218 279 347 405
#
# _framework density 25.102874
#
# number of rings (size 3 to 8) (size 9 to 14) (size 15 to 20)
#    0.000    2.000    2.500    2.250    0.000    3.500 
#    0.000    7.500    0.000    0.750    0.000   22.750 
#    0.000    0.000    0.000    0.000    0.000    0.000 
#
# Total GULP energy -178378.884103 kJ/mol
# GULP energy per Si atom -5574.340128 kJ/mol
# Density = 2.504574 g / cm^3
# Si number density = 25.102874 Si / 1000 Ang^3
#
#
#
# Elastic Constant Matrix: (Units=GPa)
#
#
# Indices 1 2 3 4 5 6 
#
# 1 32.5376 27.6867 15.6475 0.0000 0.0000 0.0000
# 2 27.6867 236.5490 35.4616 0.0000 0.0000 0.0000
# 3 15.6475 35.4616 146.0784 0.0000 0.0000 0.0000
# 4 0.0000 0.0000 0.0000 17.9577 0.0000 0.0000
# 5 0.0000 0.0000 0.0000 0.0000 33.5477 0.0000
# 6 0.0000 0.0000 0.0000 0.0000 0.0000 12.3634
#
#
#
# Elastic Compliance Matrix: (Units=1/GPa)
#
#
# Indices 1 2 3 4 5 6 
#
# 1 0.035263 -0.003696 -0.002880 0.000000 0.000000 0.000000
# 2 -0.003696 0.004774 -0.000763 0.000000 0.000000 0.000000
# 3 -0.002880 -0.000763 0.007339 0.000000 0.000000 0.000000
# 4 0.000000 0.000000 0.000000 0.055687 0.000000 0.000000
# 5 0.000000 0.000000 0.000000 0.000000 0.029808 0.000000
# 6 0.000000 0.000000 0.000000 0.000000 0.000000 0.080884
#
#
# Mechanical properties :
#
#
# Convention : Reuss Voigt Hill
#
# Bulk Modulus (GPa) = 30.58163 63.63960 47.11062
# Shear Modulus (GPa) = 20.89131 35.19835 28.04483
#
# Velocity S-wave (km/s) = 2.88797 3.74861 3.34607
# Velocity P-wave (km/s) = 4.83005 6.64399 5.80827
#
# Compressibility (1/GPa) = 0.03269937
#
# Stress axis : x y z
#
# Youngs Moduli (GPa) = 28.35797 209.44998 136.25049
#
# Poissons Ratio (x) = 0.77404 0.39243
# Poissons Ratio (y) = 0.10480 0.10398
# Poissons Ratio (z) = 0.08168 0.15984
#
# Static dielectric constant tensor:
#      x y z
#    x 1.988730 0.000000 0.000000 
#    y 0.000000 2.071370 0.000000 
#    z 0.000000 0.000000 2.058650 
# 
# From -- ./inp_files/25748.got.cif
#   From: 2010.05.17/outbox.cif.g08.bks.cpg/sg66_13_cif.got.tgz:25748.got - 2010.06.03 17:51:23.
