data_PCOD9497190
_publ_section_title
;
Structure prediction by ZEFSAII (Michael W. Deem and Ramdas Pophale) SiO2 
 PCOD9497190
Probable space group: C C C M
;
_chemical_formula_sum "Si O2"
_cell_formula_units_Z 96
_cell_length_a 17.803718
_cell_length_b 12.460527
_cell_length_c 24.777052
_cell_angle_alpha 90.000000
_cell_angle_beta 90.000000
_cell_angle_gamma 90.000000
_cell_volume 5496.633110
_symmetry_space_group_name_H-M "C C C M"
_symmetry_group_IT_number 66
_symmetry_cell_setting 'orthorhombic'
loop_
_space_group_symop_operation_xyz
x,y,z
-x,-y,z
x,-y,1/2-z
-x,y,1/2-z
-x,-y,-z
x,y,-z
-x,y,1/2+z
x,-y,1/2+z
1/2+x,1/2+y,z
1/2-x,1/2-y,z
1/2+x,1/2-y,1/2-z
1/2-x,1/2+y,1/2-z
1/2-x,1/2-y,-z
1/2+x,1/2+y,-z
1/2-x,1/2+y,1/2+z
1/2+x,1/2-y,1/2+z
loop_
_atom_site_type_symbol
_atom_site_label
_atom_site_fract_x
_atom_site_fract_y
_atom_site_fract_z
Si Si1 0.583112 0.880110 0.727601
Si Si2 0.592570 0.005790 0.000000
Si Si3 0.882086 0.000000 0.750000
Si Si4 0.053515 0.602986 0.104544
Si Si5 0.937215 0.208798 0.601448
Si Si6 0.831638 0.220704 0.297674
Si Si7 0.000000 0.000000 0.342905
Si Si8 0.340341 0.236207 0.000000
O O1 0.500000 0.847023 0.750000
O O2 0.586904 0.876559 0.663214
O O3 0.644675 0.801344 0.750957
O O4 0.594507 0.000000 0.750000
O O5 0.607807 0.069854 0.944626
O O6 0.500000 0.000000 0.000000
O O7 0.632111 0.889501 0.000000
O O8 0.837323 0.899337 0.774011
O O9 0.934902 0.964366 0.699476
O O10 0.000000 0.500000 0.113371
O O11 0.001356 0.703727 0.089246
O O12 0.891250 0.240315 0.654931
O O13 0.878987 0.209786 0.552209
O O14 0.973207 0.096211 0.619005
O O15 0.750000 0.250000 0.318410
O O16 0.250000 0.250000 0.000000
#
# Coordination Sequence:
#
# PCOD9497190 Si02
#       8
#    16   8   8  16  16  16   8   8
#     4  11  20  32  55  85 113 138 184 245 286 325
#     4  10  20  36  58  83 111 149 193 236 285 345
#     4   9  20  38  54  78 109 150 192 220 289 346
#     4  11  17  33  58  85 108 137 190 246 286 323
#     4  11  20  37  57  82 113 146 192 235 284 339
#     4  11  23  36  54  80 119 155 183 228 290 359
#     4   9  20  35  62  80 106 147 188 243 270 330
#     4  12  24  37  56  84 122 153 184 232 297 350
#
# _framework density 17.465237999999999
#
# number of rings (size 3 to 8) (size 9 to 14) (size 15 to 20)
#    0.000    1.333    6.667    1.500    3.500    0.333 
#    0.000    0.000    0.000    0.000    0.000    1.750 
#    0.000    0.000    0.000    0.000    0.000    0.000 
#
# Total GULP energy -267673.166212 kJ/mol
# GULP energy per Si atom -5576.524296 kJ/mol
# Density = 1.742549 g / cm^3
# Si number density = 17.465238 Si / 1000 Ang^3
#
#
#
# Elastic Constant Matrix: (Units=GPa)
#
#
# Indices 1 2 3 4 5 6 
#
# 1 54.4225 43.9768 22.4052 0.0000 0.0000 0.0000
# 2 43.9768 59.3570 32.4970 0.0000 0.0000 0.0000
# 3 22.4052 32.4970 126.3927 0.0000 0.0000 0.0000
# 4 0.0000 0.0000 0.0000 26.0158 0.0000 0.0000
# 5 0.0000 0.0000 0.0000 0.0000 21.6799 0.0000
# 6 0.0000 0.0000 0.0000 0.0000 0.0000 4.0288
#
#
#
# Elastic Compliance Matrix: (Units=1/GPa)
#
#
# Indices 1 2 3 4 5 6 
#
# 1 0.045840 -0.034348 0.000705 0.000000 0.000000 0.000000
# 2 -0.034348 0.045345 -0.005570 0.000000 0.000000 0.000000
# 3 0.000705 -0.005570 0.009219 0.000000 0.000000 0.000000
# 4 0.000000 0.000000 0.000000 0.038438 0.000000 0.000000
# 5 0.000000 0.000000 0.000000 0.000000 0.046126 0.000000
# 6 0.000000 0.000000 0.000000 0.000000 0.000000 0.248210
#
#
# Mechanical properties :
#
#
# Convention : Reuss Voigt Hill
#
# Bulk Modulus (GPa) = 45.49980 48.65889 47.07935
# Shear Modulus (GPa) = 9.63522 19.76446 14.69984
#
# Velocity S-wave (km/s) = 2.35133 3.36764 2.90429
# Velocity P-wave (km/s) = 5.78618 6.56066 6.18555
#
# Compressibility (1/GPa) = 0.02197812
#
# Stress axis : x y z
#
# Youngs Moduli (GPa) = 21.81498 22.05318 108.47317
#
# Poissons Ratio (x) = 0.75749 -0.07653
# Poissons Ratio (y) = 0.74931 0.60418
# Poissons Ratio (z) = -0.01539 0.12283
#
# Static dielectric constant tensor:
#      x y z
#    x 1.604310 0.000000 0.000000 
#    y 0.000000 1.589020 0.000000 
#    z 0.000000 0.000000 1.656580 
# 
# From -- ./inp_files/58843.got.cif
#   From: 2010.05.17/outbox.cif.g08.bks.cpg/sg66_30_cif.got.tgz:58843.got - 2010.06.03 17:51:23.
