data_PCOD9497105
_publ_section_title
;
Structure prediction by ZEFSAII (Michael W. Deem and Ramdas Pophale) SiO2 
 PCOD9497105
Probable space group: C C C M
;
_chemical_formula_sum "Si O2"
_cell_formula_units_Z 116
_cell_length_a 26.861121
_cell_length_b 24.776977
_cell_length_c 9.111576
_cell_angle_alpha 90.000000
_cell_angle_beta 90.000000
_cell_angle_gamma 90.000000
_cell_volume 6064.094393
_symmetry_space_group_name_H-M "C C C M"
_symmetry_group_IT_number 66
_symmetry_cell_setting 'orthorhombic'
loop_
_space_group_symop_operation_xyz
x,y,z
-x,-y,z
x,-y,1/2-z
-x,y,1/2-z
-x,-y,-z
x,y,-z
-x,y,1/2+z
x,-y,1/2+z
1/2+x,1/2+y,z
1/2-x,1/2-y,z
1/2+x,1/2-y,1/2-z
1/2-x,1/2+y,1/2-z
1/2-x,1/2-y,-z
1/2+x,1/2+y,-z
1/2-x,1/2+y,1/2+z
1/2+x,1/2-y,1/2+z
loop_
_atom_site_type_symbol
_atom_site_label
_atom_site_fract_x
_atom_site_fract_y
_atom_site_fract_z
Si Si1 0.695043 0.743418 0.168816
Si Si2 0.449629 0.815685 0.826736
Si Si3 0.500000 0.500000 0.250000
Si Si4 0.410448 0.709034 0.326068
Si Si5 0.078923 0.910975 0.663868
Si Si6 0.325185 0.441457 0.673617
Si Si7 0.270769 0.941593 0.324932
Si Si8 0.358561 0.140458 0.167062
O O1 0.750000 0.750000 0.238327
O O2 0.648140 0.707446 0.223379
O O3 0.671715 0.803277 0.169214
O O4 0.703553 0.724944 0.000000
O O5 0.500000 0.834213 0.750000
O O6 0.436732 0.756201 0.763232
O O7 0.403841 0.853093 0.777716
O O8 0.455092 0.813281 0.000000
O O9 0.462750 0.542543 0.328335
O O10 0.409718 0.723826 0.500000
O O11 0.437018 0.651132 0.315607
O O12 0.101838 0.914089 0.500000
O O13 0.121042 0.919247 0.784938
O O14 0.325749 0.500000 0.750000
O O15 0.318315 0.444626 0.500000
O O16 0.277634 0.413987 0.750651
O O17 0.262847 0.946690 0.500000
O O18 0.319630 0.906353 0.299605
O O19 0.276874 0.000000 0.250000
O O20 0.377330 0.133559 0.000000
#
# Coordination Sequence:
#
# PCOD9497105 Si02
#       8
#    16  16   4  16  16  16  16  16
#     4   8  14  27  51  81 110 141 183 229 277 342
#     4  11  22  38  61  86 117 152 191 240 291 347
#     4  12  26  40  60  86 114 148 206 268 322 364
#     4   9  20  37  57  82 112 149 194 240 294 363
#     4  11  24  41  60  81 110 148 195 252 314 366
#     4  11  22  37  57  80 111 149 193 240 290 350
#     4  10  20  35  59  88 122 159 197 238 284 343
#     4   9  19  35  57  86 118 154 195 237 287 350
#
# _framework density 19.128990000000002
#
# number of rings (size 3 to 8) (size 9 to 14) (size 15 to 20)
#    0.000    2.069    0.690    4.759    2.897    2.207 
#    0.000    0.000    0.000    2.069    0.000    2.897 
#    0.000    0.000    0.000    0.000    0.000    0.000 
#
# Total GULP energy -323327.967591 kJ/mol
# GULP energy per Si atom -5574.620131 kJ/mol
# Density = 1.908545 g / cm^3
# Si number density = 19.128990 Si / 1000 Ang^3
#
#
#
# Elastic Constant Matrix: (Units=GPa)
#
#
# Indices 1 2 3 4 5 6 
#
# 1 101.5431 24.6550 59.4992 0.0000 0.0000 0.0000
# 2 24.6550 58.3643 24.8082 0.0000 0.0000 0.0000
# 3 59.4992 24.8082 120.9357 0.0000 0.0000 0.0000
# 4 0.0000 0.0000 0.0000 -1.3300 0.0000 0.0000
# 5 0.0000 0.0000 0.0000 0.0000 45.6952 0.0000
# 6 0.0000 0.0000 0.0000 0.0000 0.0000 16.8129
#
#
#
# Elastic Compliance Matrix: (Units=1/GPa)
#
#
# Indices 1 2 3 4 5 6 
#
# 1 0.014417 -0.003369 -0.006402 0.000000 0.000000 0.000000
# 2 -0.003369 0.019558 -0.002354 0.000000 0.000000 0.000000
# 3 -0.006402 -0.002354 0.011902 0.000000 0.000000 0.000000
# 4 0.000000 0.000000 0.000000 -0.751873 0.000000 0.000000
# 5 0.000000 0.000000 0.000000 0.000000 0.021884 0.000000
# 6 0.000000 0.000000 0.000000 0.000000 0.000000 0.059478
#
#
# Mechanical properties :
#
#
# Convention : Reuss Voigt Hill
#
# Bulk Modulus (GPa) = 46.24175 55.41866 50.83020
# Shear Modulus (GPa) = -8.42923 23.69434 7.63256
#
# Velocity S-wave (km/s) = -2.10145 3.52328 1.99968
# Velocity P-wave (km/s) = 4.28229 6.75169 5.65346
#
# Compressibility (1/GPa) = 0.02162548
#
# Stress axis : x y z
#
# Youngs Moduli (GPa) = 69.36082 51.13067 84.02234
#
# Poissons Ratio (x) = 0.17226 0.53792
# Poissons Ratio (y) = 0.23368 0.19782
# Poissons Ratio (z) = 0.44405 0.12038
#
# Static dielectric constant tensor:
#      x y z
#    x 1.730360 0.000000 0.000000 
#    y 0.000000 1.689730 0.000000 
#    z 0.000000 0.000000 1.654430 
# 
# From -- ./inp_files/10581.got.cif
#   From: 2010.05.17/outbox.cif.g08.bks.cpg/sg66_6_cif.got.tgz:10581.got - 2010.06.03 17:51:23.
