data_PCOD9497371
_publ_section_title
;
Structure prediction by ZEFSAII (Michael W. Deem and Ramdas Pophale) SiO2 
 PCOD9497371
Probable space group: C C C M
;
_chemical_formula_sum "Si O2"
_cell_formula_units_Z 64
_cell_length_a 15.752874
_cell_length_b 8.917004
_cell_length_c 25.533780
_cell_angle_alpha 90.000000
_cell_angle_beta 90.000000
_cell_angle_gamma 90.000000
_cell_volume 3586.690256
_symmetry_space_group_name_H-M "C C C M"
_symmetry_group_IT_number 66
_symmetry_cell_setting 'orthorhombic'
loop_
_space_group_symop_operation_xyz
x,y,z
-x,-y,z
x,-y,1/2-z
-x,y,1/2-z
-x,-y,-z
x,y,-z
-x,y,1/2+z
x,-y,1/2+z
1/2+x,1/2+y,z
1/2-x,1/2-y,z
1/2+x,1/2-y,1/2-z
1/2-x,1/2+y,1/2-z
1/2-x,1/2-y,-z
1/2+x,1/2+y,-z
1/2-x,1/2+y,1/2+z
1/2+x,1/2-y,1/2+z
loop_
_atom_site_type_symbol
_atom_site_label
_atom_site_fract_x
_atom_site_fract_y
_atom_site_fract_z
Si Si1 0.245495 0.426025 0.144386
Si Si2 0.912343 0.066079 0.191930
Si Si3 0.320416 0.118656 0.439618
Si Si4 0.416246 0.099246 0.662318
O O1 0.250000 0.250000 0.153084
O O2 0.331415 0.509454 0.159982
O O3 0.222627 0.469273 0.084438
O O4 0.166912 0.500889 0.175722
O O5 0.918366 0.245470 0.193090
O O6 0.903560 0.000000 0.250000
O O7 0.000000 0.000000 0.169461
O O8 0.155237 0.392640 0.500000
O O9 0.250000 0.250000 0.434022
O O10 0.397383 0.144000 0.398755
O O11 0.500000 0.000000 0.667758
#
# Coordination Sequence:
#
# PCOD9497371 Si02
#       4
#    16  16  16  16
#     4  10  20  37  59  89 121 161 189 250 295 347
#     4  11  23  40  60  85 113 156 205 253 298 357
#     4   9  18  36  64  90 122 162 199 239 299 355
#     4  10  20  39  62  87 123 156 196 246 298 355
#
# _framework density 17.843748999999999
#
# number of rings (size 3 to 8) (size 9 to 14) (size 15 to 20)
#    1.500    0.500    2.500    2.250    0.000    3.000 
#    0.000    7.500    0.000    1.500    0.000    0.000 
#    0.000    0.000    0.000    0.000    0.000    0.000 
#
# Total GULP energy -178164.132045 kJ/mol
# GULP energy per Si atom -5567.629126 kJ/mol
# Density = 1.780314 g / cm^3
# Si number density = 17.843749 Si / 1000 Ang^3
#
#
#
# Elastic Constant Matrix: (Units=GPa)
#
#
# Indices 1 2 3 4 5 6 
#
# 1 108.7548 56.9525 14.5999 0.0000 0.0000 0.0000
# 2 56.9525 168.9236 31.3969 0.0000 0.0000 0.0000
# 3 14.5999 31.3969 67.8103 0.0000 0.0000 0.0000
# 4 0.0000 0.0000 0.0000 13.1213 0.0000 0.0000
# 5 0.0000 0.0000 0.0000 0.0000 23.6577 0.0000
# 6 0.0000 0.0000 0.0000 0.0000 0.0000 35.1068
#
#
#
# Elastic Compliance Matrix: (Units=1/GPa)
#
#
# Indices 1 2 3 4 5 6 
#
# 1 0.011199 -0.003641 -0.000725 0.000000 0.000000 0.000000
# 2 -0.003641 0.007661 -0.002763 0.000000 0.000000 0.000000
# 3 -0.000725 -0.002763 0.016183 0.000000 0.000000 0.000000
# 4 0.000000 0.000000 0.000000 0.076212 0.000000 0.000000
# 5 0.000000 0.000000 0.000000 0.000000 0.042269 0.000000
# 6 0.000000 0.000000 0.000000 0.000000 0.000000 0.028485
#
#
# Mechanical properties :
#
#
# Convention : Reuss Voigt Hill
#
# Bulk Modulus (GPa) = 48.11504 61.26525 54.69014
# Shear Modulus (GPa) = 24.60686 30.54646 27.57666
#
# Velocity S-wave (km/s) = 3.71754 4.14198 3.93549
# Velocity P-wave (km/s) = 6.74166 7.56859 7.16706
#
# Compressibility (1/GPa) = 0.02078352
#
# Stress axis : x y z
#
# Youngs Moduli (GPa) = 89.29328 130.53203 61.79475
#
# Poissons Ratio (x) = 0.47526 0.04483
# Poissons Ratio (y) = 0.32511 0.17075
# Poissons Ratio (z) = 0.06477 0.36069
#
# Static dielectric constant tensor:
#      x y z
#    x 1.613530 0.000000 0.000000 
#    y 0.000000 1.564300 0.000000 
#    z 0.000000 0.000000 1.629750 
# 
# From -- ./inp_files/69384.got.cif
#   From: 2010.05.17/outbox.cif.g08.bks.cpg/sg66_35_cif.got.tgz:69384.got - 2010.06.03 17:51:23.
