data_PCOD9497984
_publ_section_title
;
Structure prediction by ZEFSAII (Michael W. Deem and Ramdas Pophale) SiO2 
 PCOD9497984
Probable space group: C C C M
;
_chemical_formula_sum "Si O2"
_cell_formula_units_Z 64
_cell_length_a 17.707148
_cell_length_b 9.962854
_cell_length_c 17.654808
_cell_angle_alpha 90.000000
_cell_angle_beta 90.000000
_cell_angle_gamma 90.000000
_cell_volume 3114.550537
_symmetry_space_group_name_H-M "C C C M"
_symmetry_group_IT_number 66
_symmetry_cell_setting 'orthorhombic'
loop_
_space_group_symop_operation_xyz
x,y,z
-x,-y,z
x,-y,1/2-z
-x,y,1/2-z
-x,-y,-z
x,y,-z
-x,y,1/2+z
x,-y,1/2+z
1/2+x,1/2+y,z
1/2-x,1/2-y,z
1/2+x,1/2-y,1/2-z
1/2-x,1/2+y,1/2-z
1/2-x,1/2-y,-z
1/2+x,1/2+y,-z
1/2-x,1/2+y,1/2+z
1/2+x,1/2-y,1/2+z
loop_
_atom_site_type_symbol
_atom_site_label
_atom_site_fract_x
_atom_site_fract_y
_atom_site_fract_z
Si Si1 0.928463 0.865219 0.808093
Si Si2 0.687054 0.901391 0.589051
Si Si3 0.848672 0.132170 0.838996
Si Si4 0.440186 0.110177 0.910831
O O1 0.859208 0.838477 0.750115
O O2 0.941915 0.747290 0.865998
O O3 0.000000 0.866697 0.750000
O O4 0.904593 0.004300 0.849870
O O5 0.704337 0.885325 0.500000
O O6 0.764125 0.905564 0.636368
O O7 0.638786 0.771058 0.615776
O O8 0.639769 0.036164 0.598158
O O9 0.500000 0.000000 0.882620
O O10 0.454766 0.132245 0.000000
#
# Coordination Sequence:
#
# PCOD9497984 Si02
#       4
#    16  16  16  16
#     4  11  24  40  61  93 125 159 210 259 303 368
#     4  10  22  40  63  93 125 161 207 252 304 374
#     4  10  21  37  60  88 124 161 196 250 310 361
#     4  10  23  43  65  89 121 164 210 257 311 367
#
# _framework density 20.548711999999998
#
# number of rings (size 3 to 8) (size 9 to 14) (size 15 to 20)
#    0.000    1.750    0.000    4.500    0.000   14.500 
#    0.000    3.750    0.000   18.000    0.000    0.000 
#    0.000    0.000    0.000    0.000    0.000    0.000 
#
# Total GULP energy -178460.574839 kJ/mol
# GULP energy per Si atom -5576.892964 kJ/mol
# Density = 2.050194 g / cm^3
# Si number density = 20.548712 Si / 1000 Ang^3
#
#
#
# Elastic Constant Matrix: (Units=GPa)
#
#
# Indices 1 2 3 4 5 6 
#
# 1 85.5409 55.8692 46.4575 0.0000 0.0000 0.0000
# 2 55.8692 173.4600 66.4939 0.0000 0.0000 0.0000
# 3 46.4575 66.4939 77.0968 0.0000 0.0000 0.0000
# 4 0.0000 0.0000 0.0000 57.8676 0.0000 0.0000
# 5 0.0000 0.0000 0.0000 0.0000 31.2469 0.0000
# 6 0.0000 0.0000 0.0000 0.0000 0.0000 32.8567
#
#
#
# Elastic Compliance Matrix: (Units=1/GPa)
#
#
# Indices 1 2 3 4 5 6 
#
# 1 0.018052 -0.002457 -0.008759 0.000000 0.000000 0.000000
# 2 -0.002457 0.008947 -0.006236 0.000000 0.000000 0.000000
# 3 -0.008759 -0.006236 0.023627 0.000000 0.000000 0.000000
# 4 0.000000 0.000000 0.000000 0.017281 0.000000 0.000000
# 5 0.000000 0.000000 0.000000 0.000000 0.032003 0.000000
# 6 0.000000 0.000000 0.000000 0.000000 0.000000 0.030435
#
#
# Mechanical properties :
#
#
# Convention : Reuss Voigt Hill
#
# Bulk Modulus (GPa) = 63.60330 74.85988 69.23159
# Shear Modulus (GPa) = 29.32738 35.54606 32.43672
#
# Velocity S-wave (km/s) = 3.78195 4.16365 3.97738
# Velocity P-wave (km/s) = 7.07746 7.72167 7.40657
#
# Compressibility (1/GPa) = 0.01572246
#
# Stress axis : x y z
#
# Youngs Moduli (GPa) = 55.39602 111.77225 42.32408
#
# Poissons Ratio (x) = 0.27458 0.37072
# Poissons Ratio (y) = 0.13608 0.26393
# Poissons Ratio (z) = 0.48522 0.69702
#
# Static dielectric constant tensor:
#      x y z
#    x 1.806150 0.000000 0.000000 
#    y 0.000000 1.755400 0.000000 
#    z 0.000000 0.000000 1.711410 
# 
# From -- ./inp_files/29563.got.cif
#   From: 2010.05.17/outbox.cif.g08.bks.cpg/sg66_15_cif.got.tgz:29563.got - 2010.06.03 17:51:23.
