data_PCOD9497878
_publ_section_title
;
Structure prediction by ZEFSAII (Michael W. Deem and Ramdas Pophale) SiO2 
 PCOD9497878
Probable space group: C C C M
;
_chemical_formula_sum "Si O2"
_cell_formula_units_Z 60
_cell_length_a 8.081335
_cell_length_b 30.995142
_cell_length_c 9.346165
_cell_angle_alpha 90.000000
_cell_angle_beta 90.000000
_cell_angle_gamma 90.000000
_cell_volume 2341.047278
_symmetry_space_group_name_H-M "C C C M"
_symmetry_group_IT_number 66
_symmetry_cell_setting 'orthorhombic'
loop_
_space_group_symop_operation_xyz
x,y,z
-x,-y,z
x,-y,1/2-z
-x,y,1/2-z
-x,-y,-z
x,y,-z
-x,y,1/2+z
x,-y,1/2+z
1/2+x,1/2+y,z
1/2-x,1/2-y,z
1/2+x,1/2-y,1/2-z
1/2-x,1/2+y,1/2-z
1/2-x,1/2-y,-z
1/2+x,1/2+y,-z
1/2-x,1/2+y,1/2+z
1/2+x,1/2-y,1/2+z
loop_
_atom_site_type_symbol
_atom_site_label
_atom_site_fract_x
_atom_site_fract_y
_atom_site_fract_z
Si Si1 0.756971 0.300457 0.000000
Si Si2 0.716356 0.015056 0.000000
Si Si3 0.000000 0.500000 0.750000
Si Si4 0.854415 0.796306 0.000000
Si Si5 0.800339 0.411508 0.500000
Si Si6 0.716347 0.855468 0.749580
Si Si7 0.913039 0.904939 0.500000
O O1 0.750000 0.250000 0.000000
O O2 0.852738 0.321933 0.132966
O O3 0.554889 0.304972 0.000000
O O4 0.709345 0.963210 0.000000
O O5 0.616387 0.026640 0.143399
O O6 0.877896 0.043670 0.000000
O O7 0.750000 0.750000 0.000000
O O8 0.800445 0.821675 0.857849
O O9 0.871445 0.388872 0.641572
O O10 0.606955 0.399206 0.500000
O O11 0.830413 0.884467 0.642223
#
# Coordination Sequence:
#
# PCOD9497878 Si02
#       7
#     8   8   4   8   8  16   8
#     4  11  21  37  61  84 118 162 199 243 302 367
#     4  11  23  40  64  86 117 165 204 248 282 351
#     4  10  24  42  58  74 116 170 224 208 292 366
#     4  11  21  37  61  84 118 162 199 243 302 367
#     4  11  20  36  63  95 121 143 197 257 307 346
#     4  10  21  36  59  90 121 155 187 238 312 368
#     4  11  20  36  63  95 121 143 197 257 307 346
#
# _framework density 25.629556000000001
#
# number of rings (size 3 to 8) (size 9 to 14) (size 15 to 20)
#    0.000    1.333    0.000    9.200    0.000    0.000 
#    0.000    4.000   58.667    0.000    0.000    0.000 
#    0.000    0.000    0.000    0.000    0.000    0.000 
#
# Total GULP energy -167322.197971 kJ/mol
# GULP energy per Si atom -5577.406599 kJ/mol
# Density = 2.557122 g / cm^3
# Si number density = 25.629556 Si / 1000 Ang^3
#
#
#
# Elastic Constant Matrix: (Units=GPa)
#
#
# Indices 1 2 3 4 5 6 
#
# 1 65.0653 27.3297 27.1299 0.0000 0.0000 0.0000
# 2 27.3297 221.6741 70.2869 0.0000 0.0000 0.0000
# 3 27.1299 70.2869 233.3972 0.0000 0.0000 0.0000
# 4 0.0000 0.0000 0.0000 9.0450 0.0000 0.0000
# 5 0.0000 0.0000 0.0000 0.0000 23.2175 0.0000
# 6 0.0000 0.0000 0.0000 0.0000 0.0000 49.6894
#
#
#
# Elastic Compliance Matrix: (Units=1/GPa)
#
#
# Indices 1 2 3 4 5 6 
#
# 1 0.016644 -0.001590 -0.001456 0.000000 0.000000 0.000000
# 2 -0.001590 0.005139 -0.001363 0.000000 0.000000 0.000000
# 3 -0.001456 -0.001363 0.004864 0.000000 0.000000 0.000000
# 4 0.000000 0.000000 0.000000 0.110559 0.000000 0.000000
# 5 0.000000 0.000000 0.000000 0.000000 0.043071 0.000000
# 6 0.000000 0.000000 0.000000 0.000000 0.000000 0.020125
#
#
# Mechanical properties :
#
#
# Convention : Reuss Voigt Hill
#
# Bulk Modulus (GPa) = 56.08630 85.51440 70.80035
# Shear Modulus (GPa) = 23.23813 42.74972 32.99392
#
# Velocity S-wave (km/s) = 3.01440 4.08853 3.59184
# Velocity P-wave (km/s) = 5.83493 7.46499 6.69972
#
# Compressibility (1/GPa) = 0.01782967
#
# Stress axis : x y z
#
# Youngs Moduli (GPa) = 60.08093 194.57819 205.58514
#
# Poissons Ratio (x) = 0.30947 0.29928
# Poissons Ratio (y) = 0.09556 0.28018
# Poissons Ratio (z) = 0.08746 0.26517
#
# Static dielectric constant tensor:
#      x y z
#    x 2.145020 0.000000 0.000000 
#    y 0.000000 2.112180 0.000000 
#    z 0.000000 0.000000 1.997320 
# 
# From -- ./inp_files/3802.got.cif
#   From: 2010.05.17/outbox.cif.g08.bks.cpg/sg66_2_cif.got.tgz:3802.got - 2010.06.03 17:51:23.
