data_PCOD9497416
_publ_section_title
;
Structure prediction by ZEFSAII (Michael W. Deem and Ramdas Pophale) SiO2 
 PCOD9497416
Probable space group: C C C M
;
_chemical_formula_sum "Si O2"
_cell_formula_units_Z 116
_cell_length_a 23.397855
_cell_length_b 28.790785
_cell_length_c 8.128028
_cell_angle_alpha 90.000000
_cell_angle_beta 90.000000
_cell_angle_gamma 90.000000
_cell_volume 5475.386019
_symmetry_space_group_name_H-M "C C C M"
_symmetry_group_IT_number 66
_symmetry_cell_setting 'orthorhombic'
loop_
_space_group_symop_operation_xyz
x,y,z
-x,-y,z
x,-y,1/2-z
-x,y,1/2-z
-x,-y,-z
x,y,-z
-x,y,1/2+z
x,-y,1/2+z
1/2+x,1/2+y,z
1/2-x,1/2-y,z
1/2+x,1/2-y,1/2-z
1/2-x,1/2+y,1/2-z
1/2-x,1/2-y,-z
1/2+x,1/2+y,-z
1/2-x,1/2+y,1/2+z
1/2+x,1/2-y,1/2+z
loop_
_atom_site_type_symbol
_atom_site_label
_atom_site_fract_x
_atom_site_fract_y
_atom_site_fract_z
Si Si1 0.411873 0.074081 0.309651
Si Si2 0.876668 0.328263 0.696649
Si Si3 0.000000 0.500000 0.750000
Si Si4 0.562433 0.369147 0.304137
Si Si5 0.786016 0.449088 0.307483
Si Si6 0.563155 0.736465 0.801841
Si Si7 0.182306 0.885811 0.804131
Si Si8 0.753474 0.302671 0.801405
O O1 0.412943 0.128989 0.269295
O O2 0.345039 0.062590 0.284858
O O3 0.451794 0.039694 0.202200
O O4 0.571687 0.065374 0.000000
O O5 0.882724 0.330716 0.500000
O O6 0.895774 0.277327 0.757792
O O7 0.809778 0.329545 0.740690
O O8 0.500000 0.385997 0.250000
O O9 0.562758 0.367208 0.500000
O O10 0.569586 0.316083 0.237515
O O11 0.617952 0.396821 0.246942
O O12 0.769124 0.500000 0.250000
O O13 0.799558 0.447192 0.500000
O O14 0.732006 0.416962 0.270796
O O15 0.500000 0.751405 0.750000
O O16 0.567654 0.734660 0.000000
O O17 0.198850 0.833144 0.752382
O O18 0.186898 0.888798 0.000000
O O19 0.750000 0.250000 0.738365
O O20 0.756294 0.301063 0.000000
#
# Coordination Sequence:
#
# PCOD9497416 Si02
#       8
#    16  16   4  16  16  16  16  16
#     4  12  26  45  67  91 121 161 210 269 331 391
#     4  11  23  38  57  85 121 162 209 264 322 382
#     4  12  30  48  72  94 126 160 224 280 346 404
#     4  10  20  37  61  90 127 168 213 260 309 370
#     4  12  25  44  70  97 127 163 207 261 321 384
#     4   9  20  36  54  81 117 163 212 259 310 372
#     4  11  22  38  62  93 128 166 211 259 317 381
#     4  10  21  36  57  87 124 167 212 260 317 382
#
# _framework density 21.18572
#
# number of rings (size 3 to 8) (size 9 to 14) (size 15 to 20)
#    0.000    1.241    2.069    3.931    0.966    4.138 
#    0.000    0.000    0.000    0.414    0.000    2.897 
#    0.000    0.000    0.000    0.000    0.000    0.000 
#
# Total GULP energy -323708.739393 kJ/mol
# GULP energy per Si atom -5581.185162 kJ/mol
# Density = 2.113750 g / cm^3
# Si number density = 21.185720 Si / 1000 Ang^3
#
#
#
# Elastic Constant Matrix: (Units=GPa)
#
#
# Indices 1 2 3 4 5 6 
#
# 1 119.5259 21.0687 2.4183 0.0000 0.0000 0.0000
# 2 21.0687 63.0014 5.7087 0.0000 0.0000 0.0000
# 3 2.4183 5.7087 51.4746 0.0000 0.0000 0.0000
# 4 0.0000 0.0000 0.0000 16.7646 0.0000 0.0000
# 5 0.0000 0.0000 0.0000 0.0000 13.6942 0.0000
# 6 0.0000 0.0000 0.0000 0.0000 0.0000 47.3028
#
#
#
# Elastic Compliance Matrix: (Units=1/GPa)
#
#
# Indices 1 2 3 4 5 6 
#
# 1 0.008891 -0.002965 -0.000089 0.000000 0.000000 0.000000
# 2 -0.002965 0.017023 -0.001749 0.000000 0.000000 0.000000
# 3 -0.000089 -0.001749 0.019625 0.000000 0.000000 0.000000
# 4 0.000000 0.000000 0.000000 0.059649 0.000000 0.000000
# 5 0.000000 0.000000 0.000000 0.000000 0.073024 0.000000
# 6 0.000000 0.000000 0.000000 0.000000 0.000000 0.021140
#
#
# Mechanical properties :
#
#
# Convention : Reuss Voigt Hill
#
# Bulk Modulus (GPa) = 27.82920 32.48815 30.15867
# Shear Modulus (GPa) = 22.63104 29.20607 25.91855
#
# Velocity S-wave (km/s) = 3.27191 3.71694 3.50150
# Velocity P-wave (km/s) = 5.23815 5.81284 5.53296
#
# Compressibility (1/GPa) = 0.03593349
#
# Stress axis : x y z
#
# Youngs Moduli (GPa) = 112.47506 58.74505 50.95506
#
# Poissons Ratio (x) = 0.17419 0.00453
# Poissons Ratio (y) = 0.33351 0.08910
# Poissons Ratio (z) = 0.00999 0.10272
#
# Static dielectric constant tensor:
#      x y z
#    x 1.743410 0.000000 0.000000 
#    y 0.000000 1.784130 0.000000 
#    z 0.000000 0.000000 1.760920 
# 
# From -- ./inp_files/9401.got.cif
#   From: 2010.05.17/outbox.cif.g08.bks.cpg/sg66_5_cif.got.tgz:9401.got - 2010.06.03 17:51:23.
