data_PCOD9497581
_publ_section_title
;
Structure prediction by ZEFSAII (Michael W. Deem and Ramdas Pophale) SiO2 
 PCOD9497581
Probable space group: C C C M
;
_chemical_formula_sum "Si O2"
_cell_formula_units_Z 64
_cell_length_a 11.471674
_cell_length_b 17.511864
_cell_length_c 14.161315
_cell_angle_alpha 90.000000
_cell_angle_beta 90.000000
_cell_angle_gamma 90.000000
_cell_volume 2844.872163
_symmetry_space_group_name_H-M "C C C M"
_symmetry_group_IT_number 66
_symmetry_cell_setting 'orthorhombic'
loop_
_space_group_symop_operation_xyz
x,y,z
-x,-y,z
x,-y,1/2-z
-x,y,1/2-z
-x,-y,-z
x,y,-z
-x,y,1/2+z
x,-y,1/2+z
1/2+x,1/2+y,z
1/2-x,1/2-y,z
1/2+x,1/2-y,1/2-z
1/2-x,1/2+y,1/2-z
1/2-x,1/2-y,-z
1/2+x,1/2+y,-z
1/2-x,1/2+y,1/2+z
1/2+x,1/2-y,1/2+z
loop_
_atom_site_type_symbol
_atom_site_label
_atom_site_fract_x
_atom_site_fract_y
_atom_site_fract_z
Si Si1 0.526780 0.587249 0.890827
Si Si2 0.871476 0.518191 0.861424
Si Si3 0.748445 0.163660 0.687628
Si Si4 0.264205 0.370050 0.397843
O O1 0.500000 0.500000 0.862967
O O2 0.624905 0.625303 0.826678
O O3 0.403866 0.631005 0.890721
O O4 0.568598 0.586231 0.000000
O O5 0.872026 0.500000 0.750000
O O6 0.836613 0.606356 0.868191
O O7 0.777138 0.458571 0.899300
O O8 0.000000 0.500000 0.897419
O O9 0.750000 0.250000 0.653115
O O10 0.716285 0.163373 0.799561
O O11 0.227511 0.337472 0.500000
#
# Coordination Sequence:
#
# PCOD9497581 Si02
#       4
#    16  16  16  16
#     4  10  20  38  67  96 124 164 218 265 311 382
#     4   9  19  38  61  86 119 165 216 255 301 377
#     4  11  23  39  64  96 130 163 204 269 331 374
#     4  10  21  39  63  90 124 172 221 256 304 385
#
# _framework density 22.496618000000002
#
# number of rings (size 3 to 8) (size 9 to 14) (size 15 to 20)
#    0.000    2.000    2.500    0.750    0.000    2.500 
#   18.000    0.000    0.000    0.000    0.000    0.000 
#    0.000    0.000    0.000    0.000    0.000    0.000 
#
# Total GULP energy -178724.659070 kJ/mol
# GULP energy per Si atom -5585.145596 kJ/mol
# Density = 2.244541 g / cm^3
# Si number density = 22.496618 Si / 1000 Ang^3
#
#
#
# Elastic Constant Matrix: (Units=GPa)
#
#
# Indices 1 2 3 4 5 6 
#
# 1 94.8391 32.5735 13.3463 0.0000 0.0000 0.0000
# 2 32.5735 158.9134 7.6198 0.0000 0.0000 0.0000
# 3 13.3463 7.6198 113.9250 0.0000 0.0000 0.0000
# 4 0.0000 0.0000 0.0000 4.6520 0.0000 0.0000
# 5 0.0000 0.0000 0.0000 0.0000 86.3477 0.0000
# 6 0.0000 0.0000 0.0000 0.0000 0.0000 12.3228
#
#
#
# Elastic Compliance Matrix: (Units=1/GPa)
#
#
# Indices 1 2 3 4 5 6 
#
# 1 0.011502 -0.002300 -0.001194 0.000000 0.000000 0.000000
# 2 -0.002300 0.006773 -0.000184 0.000000 0.000000 0.000000
# 3 -0.001194 -0.000184 0.008930 0.000000 0.000000 0.000000
# 4 0.000000 0.000000 0.000000 0.214962 0.000000 0.000000
# 5 0.000000 0.000000 0.000000 0.000000 0.011581 0.000000
# 6 0.000000 0.000000 0.000000 0.000000 0.000000 0.081150
#
#
# Mechanical properties :
#
#
# Convention : Reuss Voigt Hill
#
# Bulk Modulus (GPa) = 50.37795 52.75074 51.56435
# Shear Modulus (GPa) = 14.33198 41.60703 27.96951
#
# Velocity S-wave (km/s) = 2.52677 4.30522 3.52984
# Velocity P-wave (km/s) = 5.56371 6.94352 6.29156
#
# Compressibility (1/GPa) = 0.01984996
#
# Stress axis : x y z
#
# Youngs Moduli (GPa) = 86.93938 147.64345 111.98447
#
# Poissons Ratio (x) = 0.33965 0.13367
# Poissons Ratio (y) = 0.20000 0.02055
# Poissons Ratio (z) = 0.10377 0.02709
#
# Static dielectric constant tensor:
#      x y z
#    x 1.820570 0.000000 0.000000 
#    y 0.000000 1.814210 0.000000 
#    z 0.000000 0.000000 1.888630 
# 
# From -- ./inp_files/25755.got.cif
#   From: 2010.05.17/outbox.cif.g08.bks.cpg/sg66_13_cif.got.tgz:25755.got - 2010.06.03 17:51:23.
