data_PCOD9497976
_publ_section_title
;
Structure prediction by ZEFSAII (Michael W. Deem and Ramdas Pophale) SiO2 
 PCOD9497976
Probable space group: C C C M
;
_chemical_formula_sum "Si O2"
_cell_formula_units_Z 72
_cell_length_a 27.771816
_cell_length_b 8.690822
_cell_length_c 13.545265
_cell_angle_alpha 90.000000
_cell_angle_beta 90.000000
_cell_angle_gamma 90.000000
_cell_volume 3269.283934
_symmetry_space_group_name_H-M "C C C M"
_symmetry_group_IT_number 66
_symmetry_cell_setting 'orthorhombic'
loop_
_space_group_symop_operation_xyz
x,y,z
-x,-y,z
x,-y,1/2-z
-x,y,1/2-z
-x,-y,-z
x,y,-z
-x,y,1/2+z
x,-y,1/2+z
1/2+x,1/2+y,z
1/2-x,1/2-y,z
1/2+x,1/2-y,1/2-z
1/2-x,1/2+y,1/2-z
1/2-x,1/2-y,-z
1/2+x,1/2+y,-z
1/2-x,1/2+y,1/2+z
1/2+x,1/2-y,1/2+z
loop_
_atom_site_type_symbol
_atom_site_label
_atom_site_fract_x
_atom_site_fract_y
_atom_site_fract_z
Si Si1 0.804311 0.718840 0.115886
Si Si2 0.866439 0.500000 0.250000
Si Si3 0.523845 0.161282 0.612846
Si Si4 0.896739 0.907277 0.882240
Si Si5 0.918312 0.246727 0.115656
O O1 0.750000 0.750000 0.149054
O O2 0.831278 0.590828 0.177781
O O3 0.841217 0.860112 0.126497
O O4 0.802561 0.677569 0.000000
O O5 0.898090 0.389004 0.179312
O O6 0.538503 0.123168 0.500000
O O7 0.567309 0.268428 0.652645
O O8 0.476143 0.263906 0.616007
O O9 0.500000 0.000000 0.649493
O O10 0.901647 0.081159 0.845208
O O11 0.908398 0.917577 0.000000
O O12 0.903972 0.268351 0.000000
#
# Coordination Sequence:
#
# PCOD9497976 Si02
#       5
#    16   8  16  16  16
#     4  10  23  44  66  88 118 158 204 255 310 366
#     4  12  24  38  63  92 122 162 207 256 312 372
#     4   9  16  30  57  89 121 159 199 242 300 368
#     4   9  18  36  62  88 119 161 205 253 308 366
#     4  10  21  37  59  91 127 162 204 252 306 371
#
# _framework density 22.02317
#
# number of rings (size 3 to 8) (size 9 to 14) (size 15 to 20)
#    0.000    2.222    0.000    2.667    0.000    8.889 
#    0.000    5.000    0.000   12.000    0.000    0.000 
#    0.000    3.556    0.000    0.000    0.000    0.000 
#
# Total GULP energy -200926.431590 kJ/mol
# GULP energy per Si atom -5581.289766 kJ/mol
# Density = 2.197304 g / cm^3
# Si number density = 22.023170 Si / 1000 Ang^3
#
#
#
# Elastic Constant Matrix: (Units=GPa)
#
#
# Indices 1 2 3 4 5 6 
#
# 1 162.4705 68.4943 50.9859 0.0000 0.0000 0.0000
# 2 68.4943 136.3401 52.1374 0.0000 0.0000 0.0000
# 3 50.9859 52.1374 93.5967 0.0000 0.0000 0.0000
# 4 0.0000 0.0000 0.0000 41.9550 0.0000 0.0000
# 5 0.0000 0.0000 0.0000 0.0000 23.6708 0.0000
# 6 0.0000 0.0000 0.0000 0.0000 0.0000 20.0060
#
#
#
# Elastic Compliance Matrix: (Units=1/GPa)
#
#
# Indices 1 2 3 4 5 6 
#
# 1 0.008353 -0.003121 -0.002812 0.000000 0.000000 0.000000
# 2 -0.003121 0.010486 -0.004141 0.000000 0.000000 0.000000
# 3 -0.002812 -0.004141 0.014522 0.000000 0.000000 0.000000
# 4 0.000000 0.000000 0.000000 0.023835 0.000000 0.000000
# 5 0.000000 0.000000 0.000000 0.000000 0.042246 0.000000
# 6 0.000000 0.000000 0.000000 0.000000 0.000000 0.049985
#
#
# Mechanical properties :
#
#
# Convention : Reuss Voigt Hill
#
# Bulk Modulus (GPa) = 75.67697 81.73806 78.70751
# Shear Modulus (GPa) = 28.73885 31.84566 30.29226
#
# Velocity S-wave (km/s) = 3.61631 3.80677 3.71276
# Velocity P-wave (km/s) = 7.20236 7.51779 7.36176
#
# Compressibility (1/GPa) = 0.01321406
#
# Stress axis : x y z
#
# Youngs Moduli (GPa) = 119.71518 95.36343 68.85882
#
# Poissons Ratio (x) = 0.29765 0.19361
# Poissons Ratio (y) = 0.37366 0.28514
# Poissons Ratio (z) = 0.33659 0.39490
#
# Static dielectric constant tensor:
#      x y z
#    x 1.767070 0.000000 0.000000 
#    y 0.000000 1.860270 0.000000 
#    z 0.000000 0.000000 1.911190 
# 
# From -- ./inp_files/32988.got.cif
#   From: 2010.05.17/outbox.cif.g08.bks.cpg/sg66_17_cif.got.tgz:32988.got - 2010.06.03 17:51:23.
