data_PCOD9497767
_publ_section_title
;
Structure prediction by ZEFSAII (Michael W. Deem and Ramdas Pophale) SiO2 
 PCOD9497767
Probable space group: C C C M
;
_chemical_formula_sum "Si O2"
_cell_formula_units_Z 104
_cell_length_a 23.614551
_cell_length_b 9.648749
_cell_length_c 24.312356
_cell_angle_alpha 90.000000
_cell_angle_beta 90.000000
_cell_angle_gamma 90.000000
_cell_volume 5539.591596
_symmetry_space_group_name_H-M "C C C M"
_symmetry_group_IT_number 66
_symmetry_cell_setting 'orthorhombic'
loop_
_space_group_symop_operation_xyz
x,y,z
-x,-y,z
x,-y,1/2-z
-x,y,1/2-z
-x,-y,-z
x,y,-z
-x,y,1/2+z
x,-y,1/2+z
1/2+x,1/2+y,z
1/2-x,1/2-y,z
1/2+x,1/2-y,1/2-z
1/2-x,1/2+y,1/2-z
1/2-x,1/2-y,-z
1/2+x,1/2+y,-z
1/2-x,1/2+y,1/2+z
1/2+x,1/2-y,1/2+z
loop_
_atom_site_type_symbol
_atom_site_label
_atom_site_fract_x
_atom_site_fract_y
_atom_site_fract_z
Si Si1 0.338519 0.669607 0.564177
Si Si2 0.418668 0.896212 0.604334
Si Si3 0.439287 0.340653 0.726438
Si Si4 0.250000 0.250000 0.148805
Si Si5 0.355700 0.858898 0.283888
Si Si6 0.454095 0.789960 0.895342
Si Si7 0.061360 0.982156 0.938048
O O1 0.324371 0.644040 0.500000
O O2 0.369825 0.818842 0.569845
O O3 0.286368 0.658923 0.605721
O O4 0.386383 0.563892 0.586192
O O5 0.400670 0.877041 0.667216
O O6 0.479154 0.821661 0.595458
O O7 0.425494 0.060536 0.597841
O O8 0.435771 0.500000 0.750000
O O9 0.500000 0.289059 0.750000
O O10 0.383442 0.262963 0.748189
O O11 0.443602 0.291865 0.662444
O O12 0.296200 0.177220 0.187472
O O13 0.351488 0.000000 0.250000
O O14 0.430040 0.680850 0.938544
O O15 0.056445 0.039864 0.000000
O O16 0.000000 0.000000 0.910507
#
# Coordination Sequence:
#
# PCOD9497767 Si02
#       7
#    16  16  16   8  16  16  16
#     4  10  21  41  65  87 118 158 209 261 308 369
#     4  10  21  34  57  88 121 164 189 240 296 367
#     4  11  24  34  58  93 124 160 197 244 301 365
#     4  10  25  40  64  90 112 160 217 260 312 364
#     4  11  22  43  58  82 123 157 203 252 300 360
#     4  11  21  34  55  89 128 157 196 233 300 378
#     4  10  21  36  57  87 121 153 189 250 312 360
#
# _framework density 18.773945999999999
#
# number of rings (size 3 to 8) (size 9 to 14) (size 15 to 20)
#    0.000    1.538    4.615    0.231    6.462    1.538 
#    0.000    1.538    0.000    2.769    0.000    9.692 
#    0.000    0.000    0.000    0.000    0.000    0.000 
#
# Total GULP energy -289569.835462 kJ/mol
# GULP energy per Si atom -5568.650682 kJ/mol
# Density = 1.873122 g / cm^3
# Si number density = 18.773946 Si / 1000 Ang^3
#
#
#
# Elastic Constant Matrix: (Units=GPa)
#
#
# Indices 1 2 3 4 5 6 
#
# 1 102.4800 36.8362 27.2011 0.0000 0.0000 0.0000
# 2 36.8362 98.7452 20.6044 0.0000 0.0000 0.0000
# 3 27.2011 20.6044 65.6910 0.0000 0.0000 0.0000
# 4 0.0000 0.0000 0.0000 16.6175 0.0000 0.0000
# 5 0.0000 0.0000 0.0000 0.0000 11.8786 0.0000
# 6 0.0000 0.0000 0.0000 0.0000 0.0000 22.5243
#
#
#
# Elastic Compliance Matrix: (Units=1/GPa)
#
#
# Indices 1 2 3 4 5 6 
#
# 1 0.012116 -0.003716 -0.003851 0.000000 0.000000 0.000000
# 2 -0.003716 0.011976 -0.002218 0.000000 0.000000 0.000000
# 3 -0.003851 -0.002218 0.017513 0.000000 0.000000 0.000000
# 4 0.000000 0.000000 0.000000 0.060178 0.000000 0.000000
# 5 0.000000 0.000000 0.000000 0.000000 0.084185 0.000000
# 6 0.000000 0.000000 0.000000 0.000000 0.000000 0.044396
#
#
# Mechanical properties :
#
#
# Convention : Reuss Voigt Hill
#
# Bulk Modulus (GPa) = 45.38240 48.46661 46.92451
# Shear Modulus (GPa) = 19.43413 22.35573 20.89493
#
# Velocity S-wave (km/s) = 3.22089 3.45452 3.33975
# Velocity P-wave (km/s) = 6.16909 6.46402 6.31828
#
# Compressibility (1/GPa) = 0.02203497
#
# Stress axis : x y z
#
# Youngs Moduli (GPa) = 82.53536 83.49967 57.10015
#
# Poissons Ratio (x) = 0.31030 0.21991
# Poissons Ratio (y) = 0.30671 0.12663
# Poissons Ratio (z) = 0.31787 0.18517
#
# Static dielectric constant tensor:
#      x y z
#    x 1.658540 0.000000 0.000000 
#    y 0.000000 1.730450 0.000000 
#    z 0.000000 0.000000 1.724620 
# 
# From -- ./inp_files/66054.got.cif
#   From: 2010.05.17/outbox.cif.g08.bks.cpg/sg66_34_cif.got.tgz:66054.got - 2010.06.03 17:51:23.
