data_PCOD9497505
_publ_section_title
;
Structure prediction by ZEFSAII (Michael W. Deem and Ramdas Pophale) SiO2 
 PCOD9497505
Probable space group: C C C M
;
_chemical_formula_sum "Si O2"
_cell_formula_units_Z 80
_cell_length_a 25.780575
_cell_length_b 5.414967
_cell_length_c 26.013506
_cell_angle_alpha 90.000000
_cell_angle_beta 90.000000
_cell_angle_gamma 90.000000
_cell_volume 3631.510485
_symmetry_space_group_name_H-M "C C C M"
_symmetry_group_IT_number 66
_symmetry_cell_setting 'orthorhombic'
loop_
_space_group_symop_operation_xyz
x,y,z
-x,-y,z
x,-y,1/2-z
-x,y,1/2-z
-x,-y,-z
x,y,-z
-x,y,1/2+z
x,-y,1/2+z
1/2+x,1/2+y,z
1/2-x,1/2-y,z
1/2+x,1/2-y,1/2-z
1/2-x,1/2+y,1/2-z
1/2-x,1/2-y,-z
1/2+x,1/2+y,-z
1/2-x,1/2+y,1/2+z
1/2+x,1/2-y,1/2+z
loop_
_atom_site_type_symbol
_atom_site_label
_atom_site_fract_x
_atom_site_fract_y
_atom_site_fract_z
Si Si1 0.192861 0.713324 0.590426
Si Si2 0.195675 0.608390 0.806338
Si Si3 0.380093 0.434981 0.638722
Si Si4 0.969526 0.742643 0.135325
Si Si5 0.410426 0.955931 0.942540
O O1 0.250000 0.750000 0.567832
O O2 0.197701 0.581803 0.646095
O O3 0.148072 0.566003 0.560264
O O4 0.167061 0.974885 0.602894
O O5 0.191445 0.500000 0.750000
O O6 0.250000 0.750000 0.808667
O O7 0.146421 0.782994 0.816504
O O8 0.413418 0.670176 0.657484
O O9 0.412263 0.255904 0.600814
O O10 0.950960 0.661410 0.078014
O O11 0.000000 0.500000 0.156362
O O12 0.000000 0.000000 0.139591
O O13 0.421766 0.873514 0.000000
#
# Coordination Sequence:
#
# PCOD9497505 Si02
#       5
#    16  16  16  16  16
#     4  10  20  38  59  85 131 179 218 264 319 397
#     4  11  22  36  63 100 135 168 210 267 334 402
#     4  10  22  40  61  92 138 170 218 277 328 392
#     4  11  22  43  67  95 127 174 223 277 338 392
#     4  10  23  39  60  94 132 171 223 281 332 393
#
# _framework density 22.029402999999999
#
# number of rings (size 3 to 8) (size 9 to 14) (size 15 to 20)
#    0.000    1.600    4.000    0.600    0.000    4.400 
#    0.000    1.000    0.000    0.000    0.000   40.600 
#    0.000    0.000    0.000    0.000    0.000    0.000 
#
# Total GULP energy -223050.217843 kJ/mol
# GULP energy per Si atom -5576.255446 kJ/mol
# Density = 2.197926 g / cm^3
# Si number density = 22.029403 Si / 1000 Ang^3
#
#
#
# Elastic Constant Matrix: (Units=GPa)
#
#
# Indices 1 2 3 4 5 6 
#
# 1 44.1572 23.1929 -22.8624 0.0000 0.0000 0.0000
# 2 23.1929 99.2920 14.5329 0.0000 0.0000 0.0000
# 3 -22.8624 14.5329 69.6800 0.0000 0.0000 0.0000
# 4 0.0000 0.0000 0.0000 -6.2261 0.0000 0.0000
# 5 0.0000 0.0000 0.0000 0.0000 6.9789 0.0000
# 6 0.0000 0.0000 0.0000 0.0000 0.0000 69.9841
#
#
#
# Elastic Compliance Matrix: (Units=1/GPa)
#
#
# Indices 1 2 3 4 5 6 
#
# 1 0.035046 -0.010180 0.013622 0.000000 0.000000 0.000000
# 2 -0.010180 0.013345 -0.006123 0.000000 0.000000 0.000000
# 3 0.013622 -0.006123 0.020098 0.000000 0.000000 0.000000
# 4 0.000000 0.000000 0.000000 -0.160615 0.000000 0.000000
# 5 0.000000 0.000000 0.000000 0.000000 0.143288 0.000000
# 6 0.000000 0.000000 0.000000 0.000000 0.000000 0.014289
#
#
# Mechanical properties :
#
#
# Convention : Reuss Voigt Hill
#
# Bulk Modulus (GPa) = 15.84122 26.98400 21.41261
# Shear Modulus (GPa) = 54.43251 27.36511 40.89881
#
# Velocity S-wave (km/s) = 4.97621 3.52832 4.31345
# Velocity P-wave (km/s) = 6.34220 5.37349 5.87783
#
# Compressibility (1/GPa) = 0.06312646
#
# Stress axis : x y z
#
# Youngs Moduli (GPa) = 28.53390 74.93203 49.75643
#
# Poissons Ratio (x) = 0.76280 -0.67778
# Poissons Ratio (y) = 0.29047 0.30468
# Poissons Ratio (z) = -0.38869 0.45885
#
# Static dielectric constant tensor:
#      x y z
#    x 1.963250 0.000000 0.000000 
#    y 0.000000 1.904830 0.000000 
#    z 0.000000 0.000000 1.727550 
# 
# From -- ./inp_files/61553.got.cif
#   From: 2010.05.17/outbox.cif.g08.bks.cpg/sg66_31_cif.got.tgz:61553.got - 2010.06.03 17:51:23.
