data_PCOD9497762
_publ_section_title
;
Structure prediction by ZEFSAII (Michael W. Deem and Ramdas Pophale) SiO2 
 PCOD9497762
Probable space group: C C C M
;
_chemical_formula_sum "Si O2"
_cell_formula_units_Z 116
_cell_length_a 16.090736
_cell_length_b 22.766899
_cell_length_c 17.500607
_cell_angle_alpha 90.000000
_cell_angle_beta 90.000000
_cell_angle_gamma 90.000000
_cell_volume 6411.105190
_symmetry_space_group_name_H-M "C C C M"
_symmetry_group_IT_number 66
_symmetry_cell_setting 'orthorhombic'
loop_
_space_group_symop_operation_xyz
x,y,z
-x,-y,z
x,-y,1/2-z
-x,y,1/2-z
-x,-y,-z
x,y,-z
-x,y,1/2+z
x,-y,1/2+z
1/2+x,1/2+y,z
1/2-x,1/2-y,z
1/2+x,1/2-y,1/2-z
1/2-x,1/2+y,1/2-z
1/2-x,1/2-y,-z
1/2+x,1/2+y,-z
1/2-x,1/2+y,1/2+z
1/2+x,1/2-y,1/2+z
loop_
_atom_site_type_symbol
_atom_site_label
_atom_site_fract_x
_atom_site_fract_y
_atom_site_fract_z
Si Si1 0.195610 0.308826 0.912967
Si Si2 0.096323 0.325558 0.240723
Si Si3 0.250000 0.250000 0.500000
Si Si4 0.842994 0.960923 0.412483
Si Si5 0.139708 0.780445 0.853488
Si Si6 0.328704 0.594383 0.632810
Si Si7 0.989547 0.124642 0.908142
Si Si8 0.247491 0.887317 0.206516
O O1 0.250000 0.250000 0.900059
O O2 0.127166 0.313923 0.846189
O O3 0.259721 0.363393 0.904777
O O4 0.162858 0.306972 0.000000
O O5 0.114414 0.268695 0.293017
O O6 0.157417 0.375960 0.272885
O O7 0.000000 0.340243 0.250000
O O8 0.179171 0.243561 0.568284
O O9 0.830927 0.943226 0.500000
O O10 0.932107 0.932547 0.389763
O O11 0.772297 0.930216 0.362681
O O12 0.838040 0.030427 0.404202
O O13 0.061711 0.820631 0.876405
O O14 0.206529 0.824603 0.814952
O O15 0.419541 0.622514 0.627236
O O16 0.300204 0.588172 0.719971
O O17 0.998063 0.127414 0.000000
#
# Coordination Sequence:
#
# PCOD9497762 Si02
#       8
#    16  16   4  16  16  16  16  16
#     4  10  22  40  60  84 116 159 199 240 294 364
#     4  11  23  39  60  84 119 151 201 257 306 344
#     4  12  20  40  60  80 124 166 214 236 298 350
#     4  10  21  36  59  86 117 154 194 238 286 359
#     4  11  22  36  58  85 119 162 200 243 291 361
#     4  11  21  37  60  84 120 157 191 238 295 358
#     4  10  21  34  54  90 122 153 193 238 288 351
#     4  10  22  38  57  82 114 156 198 239 296 356
#
# _framework density 18.093605
#
# number of rings (size 3 to 8) (size 9 to 14) (size 15 to 20)
#    0.000    1.517    2.069    3.724    4.828    2.759 
#    1.241    2.759    0.000    6.621    0.000    4.828 
#    0.000    0.000    0.000    0.000    0.000    0.000 
#
# Total GULP energy -323394.691439 kJ/mol
# GULP energy per Si atom -5575.770542 kJ/mol
# Density = 1.805242 g / cm^3
# Si number density = 18.093605 Si / 1000 Ang^3
#
#
#
# Elastic Constant Matrix: (Units=GPa)
#
#
# Indices 1 2 3 4 5 6 
#
# 1 149.0884 36.0429 62.4042 0.0000 0.0000 0.0000
# 2 36.0429 44.2776 18.0281 0.0000 0.0000 0.0000
# 3 62.4042 18.0281 103.8284 0.0000 0.0000 0.0000
# 4 0.0000 0.0000 0.0000 7.7147 0.0000 0.0000
# 5 0.0000 0.0000 0.0000 0.0000 -13.6984 0.0000
# 6 0.0000 0.0000 0.0000 0.0000 0.0000 2.6407
#
#
#
# Elastic Compliance Matrix: (Units=1/GPa)
#
#
# Indices 1 2 3 4 5 6 
#
# 1 0.010402 -0.006372 -0.005145 0.000000 0.000000 0.000000
# 2 -0.006372 0.028207 -0.001068 0.000000 0.000000 0.000000
# 3 -0.005145 -0.001068 0.012909 0.000000 0.000000 0.000000
# 4 0.000000 0.000000 0.000000 0.129622 0.000000 0.000000
# 5 0.000000 0.000000 0.000000 0.000000 -0.073001 0.000000
# 6 0.000000 0.000000 0.000000 0.000000 0.000000 0.378684
#
#
# Mechanical properties :
#
#
# Convention : Reuss Voigt Hill
#
# Bulk Modulus (GPa) = 37.95500 58.90497 48.42999
# Shear Modulus (GPa) = 9.60107 11.37934 10.49020
#
# Velocity S-wave (km/s) = 2.30605 2.51054 2.41046
# Velocity P-wave (km/s) = 5.30217 6.40547 5.87976
#
# Compressibility (1/GPa) = 0.02634699
#
# Stress axis : x y z
#
# Youngs Moduli (GPa) = 96.13907 35.45267 77.46444
#
# Poissons Ratio (x) = 0.22591 0.39858
# Poissons Ratio (y) = 0.61261 0.08271
# Poissons Ratio (z) = 0.49466 0.03785
#
# Static dielectric constant tensor:
#      x y z
#    x 1.607730 0.000000 0.000000 
#    y 0.000000 1.632290 0.000000 
#    z 0.000000 0.000000 1.627720 
# 
# From -- ./inp_files/40700.got.cif
#   From: 2010.05.17/outbox.cif.g08.bks.cpg/sg66_21_cif.got.tgz:40700.got - 2010.06.03 17:51:23.
