data_PCOD9497774
_publ_section_title
;
Structure prediction by ZEFSAII (Michael W. Deem and Ramdas Pophale) SiO2 
 PCOD9497774
Probable space group: C C C M
;
_chemical_formula_sum "Si O2"
_cell_formula_units_Z 64
_cell_length_a 10.437958
_cell_length_b 17.526827
_cell_length_c 14.922096
_cell_angle_alpha 90.000000
_cell_angle_beta 90.000000
_cell_angle_gamma 90.000000
_cell_volume 2729.912170
_symmetry_space_group_name_H-M "C C C M"
_symmetry_group_IT_number 66
_symmetry_cell_setting 'orthorhombic'
loop_
_space_group_symop_operation_xyz
x,y,z
-x,-y,z
x,-y,1/2-z
-x,y,1/2-z
-x,-y,-z
x,y,-z
-x,y,1/2+z
x,-y,1/2+z
1/2+x,1/2+y,z
1/2-x,1/2-y,z
1/2+x,1/2-y,1/2-z
1/2-x,1/2+y,1/2-z
1/2-x,1/2-y,-z
1/2+x,1/2+y,-z
1/2-x,1/2+y,1/2+z
1/2+x,1/2-y,1/2+z
loop_
_atom_site_type_symbol
_atom_site_label
_atom_site_fract_x
_atom_site_fract_y
_atom_site_fract_z
Si Si1 0.612719 0.294315 0.103372
Si Si2 0.461024 0.863458 0.894052
Si Si3 0.781519 0.085851 0.219889
Si Si4 0.248511 0.342092 0.902790
O O1 0.750000 0.250000 0.111100
O O2 0.525707 0.225267 0.136469
O O3 0.622919 0.374927 0.149837
O O4 0.584110 0.305641 0.000000
O O5 0.359275 0.903344 0.828264
O O6 0.609577 0.885172 0.896165
O O7 0.417174 0.866518 0.000000
O O8 0.806106 0.135147 0.308757
O O9 0.799670 0.000000 0.250000
O O10 0.250000 0.250000 0.906105
O O11 0.302535 0.366298 0.000000
#
# Coordination Sequence:
#
# PCOD9497774 Si02
#       4
#    16  16  16  16
#     4   8  15  31  54  74  92 123 172 216 242 278
#     4   9  18  34  56  76  94 127 176 218 247 286
#     4  11  21  31  48  77 108 135 159 197 256 313
#     4  10  21  35  51  73 101 134 171 210 252 296
#
# _framework density 23.443975999999999
#
# number of rings (size 3 to 8) (size 9 to 14) (size 15 to 20)
#    0.000    2.500    0.000    5.250    0.000    4.000 
#    0.000    2.500    0.000    3.000    0.000    7.000 
#    0.000    0.000    0.000    0.000    0.000    0.000 
#
# Total GULP energy -178278.951272 kJ/mol
# GULP energy per Si atom -5571.217227 kJ/mol
# Density = 2.339062 g / cm^3
# Si number density = 23.443976 Si / 1000 Ang^3
#
#
#
# Elastic Constant Matrix: (Units=GPa)
#
#
# Indices 1 2 3 4 5 6 
#
# 1 53.1279 -22.0194 -10.5111 0.0000 0.0000 0.0000
# 2 -22.0194 106.5266 41.5932 0.0000 0.0000 0.0000
# 3 -10.5111 41.5932 116.6757 0.0000 0.0000 0.0000
# 4 0.0000 0.0000 0.0000 -47.2493 0.0000 0.0000
# 5 0.0000 0.0000 0.0000 0.0000 -42.1100 0.0000
# 6 0.0000 0.0000 0.0000 0.0000 0.0000 6.8146
#
#
#
# Elastic Compliance Matrix: (Units=1/GPa)
#
#
# Indices 1 2 3 4 5 6 
#
# 1 0.020602 0.004105 0.000393 0.000000 0.000000 0.000000
# 2 0.004105 0.011723 -0.003809 0.000000 0.000000 0.000000
# 3 0.000393 -0.003809 0.009964 0.000000 0.000000 0.000000
# 4 0.000000 0.000000 0.000000 -0.021164 0.000000 0.000000
# 5 0.000000 0.000000 0.000000 0.000000 -0.023747 0.000000
# 6 0.000000 0.000000 0.000000 0.000000 0.000000 0.146744
#
#
# Mechanical properties :
#
#
# Convention : Reuss Voigt Hill
#
# Bulk Modulus (GPa) = 22.90132 32.71731 27.80932
# Shear Modulus (GPa) = 31.78648 1.30888 16.54768
#
# Velocity S-wave (km/s) = 3.68618 0.74800 2.65965
# Velocity P-wave (km/s) = 5.28270 3.83821 4.61729
#
# Compressibility (1/GPa) = 0.04366560
#
# Stress axis : x y z
#
# Youngs Moduli (GPa) = 48.53993 85.30073 100.36025
#
# Poissons Ratio (x) = -0.35017 -0.03939
# Poissons Ratio (y) = -0.19926 0.38231
# Poissons Ratio (z) = -0.01905 0.32494
#
# Static dielectric constant tensor:
#      x y z
#    x 2.095210 0.000000 0.000000 
#    y 0.000000 2.042710 0.000000 
#    z 0.000000 0.000000 1.912220 
# 
# From -- ./inp_files/25751.got.cif
#   From: 2010.05.17/outbox.cif.g08.bks.cpg/sg66_13_cif.got.tgz:25751.got - 2010.06.03 17:51:23.
