data_PCOD9497696
_publ_section_title
;
Structure prediction by ZEFSAII (Michael W. Deem and Ramdas Pophale) SiO2 
 PCOD9497696
Probable space group: C C C M
;
_chemical_formula_sum "Si O2"
_cell_formula_units_Z 64
_cell_length_a 16.295000
_cell_length_b 7.471580
_cell_length_c 25.185618
_cell_angle_alpha 90.000000
_cell_angle_beta 90.000000
_cell_angle_gamma 90.000000
_cell_volume 3066.333782
_symmetry_space_group_name_H-M "C C C M"
_symmetry_group_IT_number 66
_symmetry_cell_setting 'orthorhombic'
loop_
_space_group_symop_operation_xyz
x,y,z
-x,-y,z
x,-y,1/2-z
-x,y,1/2-z
-x,-y,-z
x,y,-z
-x,y,1/2+z
x,-y,1/2+z
1/2+x,1/2+y,z
1/2-x,1/2-y,z
1/2+x,1/2-y,1/2-z
1/2-x,1/2+y,1/2-z
1/2-x,1/2-y,-z
1/2+x,1/2+y,-z
1/2-x,1/2+y,1/2+z
1/2+x,1/2-y,1/2+z
loop_
_atom_site_type_symbol
_atom_site_label
_atom_site_fract_x
_atom_site_fract_y
_atom_site_fract_z
Si Si1 0.154507 0.304518 0.114597
Si Si2 0.425039 0.147217 0.500000
Si Si3 0.654010 0.774449 0.603036
Si Si4 0.597684 0.488709 0.689968
Si Si5 0.344821 0.205144 0.000000
O O1 0.250000 0.250000 0.113688
O O2 0.143485 0.516991 0.118585
O O3 0.119340 0.240197 0.056978
O O4 0.116763 0.200248 0.163084
O O5 0.409074 0.255595 0.553848
O O6 0.500000 0.000000 0.500000
O O7 0.348510 0.009511 0.500000
O O8 0.750000 0.750000 0.587843
O O9 0.633986 0.641091 0.651207
O O10 0.500000 0.500000 0.691715
O O11 0.630424 0.500000 0.750000
O O12 0.250000 0.250000 0.000000
#
# Coordination Sequence:
#
# PCOD9497696 Si02
#       5
#    16   8  16  16   8
#     4  10  20  41  66  96 130 161 214 266 316 390
#     4  10  23  38  65 104 134 165 216 262 329 413
#     4  11  23  43  68  96 132 178 210 269 333 386
#     4  11  27  45  63  93 128 171 226 273 324 385
#     4   8  18  34  61  91 127 162 195 251 314 378
#
# _framework density 20.871829999999999
#
# number of rings (size 3 to 8) (size 9 to 14) (size 15 to 20)
#    0.000    1.750    2.500    0.375    7.000    3.000 
#    0.000    3.750    0.000    0.000    0.000    0.000 
#    0.000    0.000    0.000    0.000    0.000    0.000 
#
# Total GULP energy -178474.730837 kJ/mol
# GULP energy per Si atom -5577.335339 kJ/mol
# Density = 2.082432 g / cm^3
# Si number density = 20.871830 Si / 1000 Ang^3
#
#
#
# Elastic Constant Matrix: (Units=GPa)
#
#
# Indices 1 2 3 4 5 6 
#
# 1 69.6127 15.2100 33.9090 0.0000 0.0000 0.0000
# 2 15.2100 108.0129 57.7874 0.0000 0.0000 0.0000
# 3 33.9090 57.7874 173.4591 0.0000 0.0000 0.0000
# 4 0.0000 0.0000 0.0000 39.2799 0.0000 0.0000
# 5 0.0000 0.0000 0.0000 0.0000 24.2279 0.0000
# 6 0.0000 0.0000 0.0000 0.0000 0.0000 20.5914
#
#
#
# Elastic Compliance Matrix: (Units=1/GPa)
#
#
# Indices 1 2 3 4 5 6 
#
# 1 0.015921 -0.000702 -0.002878 0.000000 0.000000 0.000000
# 2 -0.000702 0.011297 -0.003626 0.000000 0.000000 0.000000
# 3 -0.002878 -0.003626 0.007536 0.000000 0.000000 0.000000
# 4 0.000000 0.000000 0.000000 0.025458 0.000000 0.000000
# 5 0.000000 0.000000 0.000000 0.000000 0.041275 0.000000
# 6 0.000000 0.000000 0.000000 0.000000 0.000000 0.048564
#
#
# Mechanical properties :
#
#
# Convention : Reuss Voigt Hill
#
# Bulk Modulus (GPa) = 49.16378 62.76639 55.96508
# Shear Modulus (GPa) = 29.19808 33.09840 31.14824
#
# Velocity S-wave (km/s) = 3.74428 3.98652 3.86730
# Velocity P-wave (km/s) = 6.50377 7.16431 6.84202
#
# Compressibility (1/GPa) = 0.02034018
#
# Stress axis : x y z
#
# Youngs Moduli (GPa) = 62.81136 88.51800 132.69870
#
# Poissons Ratio (x) = 0.06213 0.38197
# Poissons Ratio (y) = 0.04409 0.48122
# Poissons Ratio (z) = 0.18080 0.32100
#
# Static dielectric constant tensor:
#      x y z
#    x 1.766060 0.000000 0.000000 
#    y 0.000000 1.733410 0.000000 
#    z 0.000000 0.000000 1.836120 
# 
# From -- ./inp_files/50536.got.cif
#   From: 2010.05.17/outbox.cif.g08.bks.cpg/sg66_26_cif.got.tgz:50536.got - 2010.06.03 17:51:23.
