data_PCOD9497074
_publ_section_title
;
Structure prediction by ZEFSAII (Michael W. Deem and Ramdas Pophale) SiO2 
 PCOD9497074
Probable space group: C C C M
;
_chemical_formula_sum "Si O2"
_cell_formula_units_Z 96
_cell_length_a 25.755307
_cell_length_b 24.137057
_cell_length_c 8.661780
_cell_angle_alpha 90.000000
_cell_angle_beta 90.000000
_cell_angle_gamma 90.000000
_cell_volume 5384.658882
_symmetry_space_group_name_H-M "C C C M"
_symmetry_group_IT_number 66
_symmetry_cell_setting 'orthorhombic'
loop_
_space_group_symop_operation_xyz
x,y,z
-x,-y,z
x,-y,1/2-z
-x,y,1/2-z
-x,-y,-z
x,y,-z
-x,y,1/2+z
x,-y,1/2+z
1/2+x,1/2+y,z
1/2-x,1/2-y,z
1/2+x,1/2-y,1/2-z
1/2-x,1/2+y,1/2-z
1/2-x,1/2-y,-z
1/2+x,1/2+y,-z
1/2-x,1/2+y,1/2+z
1/2+x,1/2-y,1/2+z
loop_
_atom_site_type_symbol
_atom_site_label
_atom_site_fract_x
_atom_site_fract_y
_atom_site_fract_z
Si Si1 0.057601 0.939973 0.815688
Si Si2 0.249185 0.561543 0.314286
Si Si3 0.057299 0.439634 0.814663
Si Si4 0.189106 0.246295 0.684820
Si Si5 0.850578 0.130953 0.685265
Si Si6 0.652326 0.861715 0.813418
O O1 0.097689 0.893753 0.759850
O O2 0.000000 0.929720 0.750000
O O3 0.074551 0.000000 0.750000
O O4 0.055666 0.942833 0.000000
O O5 0.245770 0.500000 0.250000
O O6 0.248551 0.558879 0.500000
O O7 0.302300 0.591788 0.267090
O O8 0.200401 0.599061 0.266141
O O9 0.073030 0.500000 0.750000
O O10 0.099316 0.393267 0.771512
O O11 0.000000 0.427600 0.750000
O O12 0.055054 0.443174 0.000000
O O13 0.187190 0.241294 0.500000
O O14 0.250000 0.250000 0.731592
O O15 0.163279 0.192532 0.760358
O O16 0.160699 0.302090 0.738612
O O17 0.854958 0.129463 0.500000
O O18 0.653748 0.855944 0.000000
#
# Coordination Sequence:
#
# PCOD9497074 Si02
#       6
#    16  16  16  16  16  16
#     4  11  22  39  62  89 121 155 196 240 289 347
#     4  10  21  34  53  81 113 146 183 229 285 343
#     4  10  20  35  58  84 115 150 190 233 284 339
#     4  11  23  38  58  85 114 151 194 241 291 345
#     4  11  22  38  60  84 115 155 194 238 290 346
#     4  10  21  38  57  81 111 151 193 234 285 347
#
# _framework density 17.828427999999999
#
# number of rings (size 3 to 8) (size 9 to 14) (size 15 to 20)
#    0.000    1.500    1.667    5.000    0.000    5.333 
#    0.000    0.833    0.000    2.000    0.000    0.000 
#    0.000    0.000    0.000    0.000    0.000    0.000 
#
# Total GULP energy -268276.726202 kJ/mol
# GULP energy per Si atom -5589.098463 kJ/mol
# Density = 1.778785 g / cm^3
# Si number density = 17.828428 Si / 1000 Ang^3
#
#
#
# Elastic Constant Matrix: (Units=GPa)
#
#
# Indices 1 2 3 4 5 6 
#
# 1 99.8433 75.6530 46.3922 0.0000 0.0000 0.0000
# 2 75.6530 149.0285 49.8172 0.0000 0.0000 0.0000
# 3 46.3922 49.8172 74.5185 0.0000 0.0000 0.0000
# 4 0.0000 0.0000 0.0000 36.4446 0.0000 0.0000
# 5 0.0000 0.0000 0.0000 0.0000 21.8558 0.0000
# 6 0.0000 0.0000 0.0000 0.0000 0.0000 24.0790
#
#
#
# Elastic Compliance Matrix: (Units=1/GPa)
#
#
# Indices 1 2 3 4 5 6 
#
# 1 0.018607 -0.007177 -0.006786 0.000000 0.000000 0.000000
# 2 -0.007177 0.011410 -0.003159 0.000000 0.000000 0.000000
# 3 -0.006786 -0.003159 0.019756 0.000000 0.000000 0.000000
# 4 0.000000 0.000000 0.000000 0.027439 0.000000 0.000000
# 5 0.000000 0.000000 0.000000 0.000000 0.045754 0.000000
# 6 0.000000 0.000000 0.000000 0.000000 0.000000 0.041530
#
#
# Mechanical properties :
#
#
# Convention : Reuss Voigt Hill
#
# Bulk Modulus (GPa) = 64.39984 74.12392 69.26188
# Shear Modulus (GPa) = 24.51972 26.57774 25.54873
#
# Velocity S-wave (km/s) = 3.71255 3.86521 3.78965
# Velocity P-wave (km/s) = 7.38768 7.84770 7.62116
#
# Compressibility (1/GPa) = 0.01552799
#
# Stress axis : x y z
#
# Youngs Moduli (GPa) = 53.74271 87.64423 50.61723
#
# Poissons Ratio (x) = 0.62906 0.34348
# Poissons Ratio (y) = 0.38573 0.15992
# Poissons Ratio (z) = 0.36469 0.27690
#
# Static dielectric constant tensor:
#      x y z
#    x 1.599090 0.000000 0.000000 
#    y 0.000000 1.572430 0.000000 
#    z 0.000000 0.000000 1.602420 
# 
# From -- ./inp_files/10270.got.cif
#   From: 2010.05.17/outbox.cif.g08.bks.cpg/sg66_6_cif.got.tgz:10270.got - 2010.06.03 17:51:23.
