data_PCOD9497607
_publ_section_title
;
Structure prediction by ZEFSAII (Michael W. Deem and Ramdas Pophale) SiO2 
 PCOD9497607
Probable space group: C C C M
;
_chemical_formula_sum "Si O2"
_cell_formula_units_Z 80
_cell_length_a 5.726290
_cell_length_b 25.007394
_cell_length_c 26.287453
_cell_angle_alpha 90.000000
_cell_angle_beta 90.000000
_cell_angle_gamma 90.000000
_cell_volume 3764.352497
_symmetry_space_group_name_H-M "C C C M"
_symmetry_group_IT_number 66
_symmetry_cell_setting 'orthorhombic'
loop_
_space_group_symop_operation_xyz
x,y,z
-x,-y,z
x,-y,1/2-z
-x,y,1/2-z
-x,-y,-z
x,y,-z
-x,y,1/2+z
x,-y,1/2+z
1/2+x,1/2+y,z
1/2-x,1/2-y,z
1/2+x,1/2-y,1/2-z
1/2-x,1/2+y,1/2-z
1/2-x,1/2-y,-z
1/2+x,1/2+y,-z
1/2-x,1/2+y,1/2+z
1/2+x,1/2-y,1/2+z
loop_
_atom_site_type_symbol
_atom_site_label
_atom_site_fract_x
_atom_site_fract_y
_atom_site_fract_z
Si Si1 0.840732 0.053250 0.944197
Si Si2 0.750000 0.750000 0.303128
Si Si3 0.506418 0.940218 0.346091
Si Si4 0.250000 0.250000 0.135521
Si Si5 0.612659 0.635667 0.889351
Si Si6 0.313234 0.635765 0.211428
O O1 0.669299 0.053995 0.896275
O O2 0.992919 0.107219 0.937133
O O3 0.726623 0.052909 0.000000
O O4 0.000000 0.000000 0.940864
O O5 0.501056 0.754442 0.334162
O O6 0.743546 0.695576 0.270726
O O7 0.280151 0.910182 0.366784
O O8 0.603016 0.902231 0.302099
O O9 0.500000 0.000000 0.325622
O O10 0.269622 0.306266 0.104897
O O11 0.426142 0.643927 0.844284
O O12 0.500000 0.611716 0.250000
#
# Coordination Sequence:
#
# PCOD9497607 Si02
#       6
#    16   8  16   8  16  16
#     4  10  21  37  62  93 120 155 209 270 325 382
#     4  10  20  39  62  94 124 162 218 280 312 369
#     4  11  21  39  63  87 126 166 206 257 321 391
#     4  10  20  39  65  90 129 170 213 262 325 383
#     4  10  21  39  60  87 124 162 209 258 320 382
#     4  10  23  39  60  91 125 164 214 262 317 372
#
# _framework density 21.251995000000001
#
# number of rings (size 3 to 8) (size 9 to 14) (size 15 to 20)
#    0.000    1.800    4.000    0.000    0.000    5.200 
#    0.000    3.500    0.000    1.200    0.000    0.000 
#    0.000    0.000    0.000    0.000    0.000    0.000 
#
# Total GULP energy -222979.840879 kJ/mol
# GULP energy per Si atom -5574.496022 kJ/mol
# Density = 2.120362 g / cm^3
# Si number density = 21.251995 Si / 1000 Ang^3
#
#
#
# Elastic Constant Matrix: (Units=GPa)
#
#
# Indices 1 2 3 4 5 6 
#
# 1 62.7530 10.6022 7.4341 0.0000 0.0000 0.0000
# 2 10.6022 136.2806 4.6320 0.0000 0.0000 0.0000
# 3 7.4341 4.6320 71.9793 0.0000 0.0000 0.0000
# 4 0.0000 0.0000 0.0000 347.8303 0.0000 0.0000
# 5 0.0000 0.0000 0.0000 0.0000 22.5770 0.0000
# 6 0.0000 0.0000 0.0000 0.0000 0.0000 24.4274
#
#
#
# Elastic Compliance Matrix: (Units=1/GPa)
#
#
# Indices 1 2 3 4 5 6 
#
# 1 0.016331 -0.001216 -0.001608 0.000000 0.000000 0.000000
# 2 -0.001216 0.007444 -0.000353 0.000000 0.000000 0.000000
# 3 -0.001608 -0.000353 0.014082 0.000000 0.000000 0.000000
# 4 0.000000 0.000000 0.000000 0.002875 0.000000 0.000000
# 5 0.000000 0.000000 0.000000 0.000000 0.044293 0.000000
# 6 0.000000 0.000000 0.000000 0.000000 0.000000 0.040938
#
#
# Mechanical properties :
#
#
# Convention : Reuss Voigt Hill
#
# Bulk Modulus (GPa) = 31.74408 35.14995 33.44702
# Shear Modulus (GPa) = 35.00929 95.52326 65.26627
#
# Velocity S-wave (km/s) = 4.06315 6.71159 5.54773
# Velocity P-wave (km/s) = 6.08125 8.75421 7.53717
#
# Compressibility (1/GPa) = 0.03150194
#
# Stress axis : x y z
#
# Youngs Moduli (GPa) = 61.23148 134.32908 71.01387
#
# Poissons Ratio (x) = 0.16333 0.11423
# Poissons Ratio (y) = 0.07445 0.02510
# Poissons Ratio (z) = 0.09849 0.04748
#
# Static dielectric constant tensor:
#      x y z
#    x 1.826510 0.000000 0.000000 
#    y 0.000000 2.143160 0.000000 
#    z 0.000000 0.000000 1.710090 
# 
# From -- ./inp_files/67224.got.cif
#   From: 2010.05.17/outbox.cif.g08.bks.cpg/sg66_34_cif.got.tgz:67224.got - 2010.06.03 17:51:23.
