data_PCOD9497609
_publ_section_title
;
Structure prediction by ZEFSAII (Michael W. Deem and Ramdas Pophale) SiO2 
 PCOD9497609
Probable space group: C C C M
;
_chemical_formula_sum "Si O2"
_cell_formula_units_Z 68
_cell_length_a 21.068116
_cell_length_b 21.248520
_cell_length_c 7.968531
_cell_angle_alpha 90.000000
_cell_angle_beta 90.000000
_cell_angle_gamma 90.000000
_cell_volume 3567.242663
_symmetry_space_group_name_H-M "C C C M"
_symmetry_group_IT_number 66
_symmetry_cell_setting 'orthorhombic'
loop_
_space_group_symop_operation_xyz
x,y,z
-x,-y,z
x,-y,1/2-z
-x,y,1/2-z
-x,-y,-z
x,y,-z
-x,y,1/2+z
x,-y,1/2+z
1/2+x,1/2+y,z
1/2-x,1/2-y,z
1/2+x,1/2-y,1/2-z
1/2-x,1/2+y,1/2-z
1/2-x,1/2-y,-z
1/2+x,1/2+y,-z
1/2-x,1/2+y,1/2+z
1/2+x,1/2-y,1/2+z
loop_
_atom_site_type_symbol
_atom_site_label
_atom_site_fract_x
_atom_site_fract_y
_atom_site_fract_z
Si Si1 0.695976 0.199521 0.296552
Si Si2 0.930285 0.768245 0.303198
Si Si3 0.000000 0.000000 0.250000
Si Si4 0.745080 0.569608 0.798729
Si Si5 0.099873 0.092356 0.198032
O O1 0.695765 0.200085 0.500000
O O2 0.750000 0.250000 0.243455
O O3 0.627178 0.221450 0.237089
O O4 0.715312 0.129750 0.237480
O O5 0.931156 0.781314 0.500000
O O6 0.915358 0.834224 0.212496
O O7 0.000000 0.745451 0.250000
O O8 0.051719 0.051554 0.309013
O O9 0.767115 0.500000 0.750000
O O10 0.671713 0.579012 0.747264
O O11 0.744982 0.573029 0.000000
O O12 0.091708 0.074439 0.000000
#
# Coordination Sequence:
#
# PCOD9497609 Si02
#       5
#    16  16   4  16  16
#     4  10  20  39  63  86 117 158 201 247 299 352
#     4  12  25  39  59  86 117 154 198 249 299 354
#     4  12  22  32  56  82 122 168 202 232 274 344
#     4  10  21  37  58  84 118 157 195 243 295 348
#     4  11  22  36  53  81 118 160 201 237 283 341
#
# _framework density 19.062342000000001
#
# number of rings (size 3 to 8) (size 9 to 14) (size 15 to 20)
#    0.000    1.176    4.706    2.471    0.000    3.294 
#    0.000    0.000    0.000    0.706    0.000    4.941 
#    0.000    0.000    0.000    0.000    0.000    0.000 
#
# Total GULP energy -189733.288425 kJ/mol
# GULP energy per Si atom -5580.390836 kJ/mol
# Density = 1.901895 g / cm^3
# Si number density = 19.062342 Si / 1000 Ang^3
#
#
#
# Elastic Constant Matrix: (Units=GPa)
#
#
# Indices 1 2 3 4 5 6 
#
# 1 135.2993 95.3902 12.4020 0.0000 0.0000 0.0000
# 2 95.3902 155.7603 15.0733 0.0000 0.0000 0.0000
# 3 12.4020 15.0733 51.3418 0.0000 0.0000 0.0000
# 4 0.0000 0.0000 0.0000 37.3136 0.0000 0.0000
# 5 0.0000 0.0000 0.0000 0.0000 11.2212 0.0000
# 6 0.0000 0.0000 0.0000 0.0000 0.0000 42.2142
#
#
#
# Elastic Compliance Matrix: (Units=1/GPa)
#
#
# Indices 1 2 3 4 5 6 
#
# 1 0.013041 -0.007907 -0.000829 0.000000 0.000000 0.000000
# 2 -0.007907 0.011401 -0.001437 0.000000 0.000000 0.000000
# 3 -0.000829 -0.001437 0.020100 0.000000 0.000000 0.000000
# 4 0.000000 0.000000 0.000000 0.026800 0.000000 0.000000
# 5 0.000000 0.000000 0.000000 0.000000 0.089117 0.000000
# 6 0.000000 0.000000 0.000000 0.000000 0.000000 0.023689
#
#
# Mechanical properties :
#
#
# Convention : Reuss Voigt Hill
#
# Bulk Modulus (GPa) = 41.32844 65.34804 53.33824
# Shear Modulus (GPa) = 23.52285 32.78554 28.15419
#
# Velocity S-wave (km/s) = 3.51664 4.15168 3.84728
# Velocity P-wave (km/s) = 6.18197 7.57216 6.91210
#
# Compressibility (1/GPa) = 0.02419641
#
# Stress axis : x y z
#
# Youngs Moduli (GPa) = 76.67927 87.70933 49.75234
#
# Poissons Ratio (x) = 0.69347 0.04124
# Poissons Ratio (y) = 0.60627 0.07151
# Poissons Ratio (z) = 0.06357 0.12607
#
# Static dielectric constant tensor:
#      x y z
#    x 1.642850 0.000000 0.000000 
#    y 0.000000 1.662990 0.000000 
#    z 0.000000 0.000000 1.744360 
# 
# From -- ./inp_files/6248.got.cif
#   From: 2010.05.17/outbox.cif.g08.bks.cpg/sg66_4_cif.got.tgz:6248.got - 2010.06.03 17:51:23.
