data_PCOD9497218
_publ_section_title
;
Structure prediction by ZEFSAII (Michael W. Deem and Ramdas Pophale) SiO2 
 PCOD9497218
Probable space group: C C C M
;
_chemical_formula_sum "Si O2"
_cell_formula_units_Z 104
_cell_length_a 28.113716
_cell_length_b 21.170728
_cell_length_c 9.287742
_cell_angle_alpha 90.000000
_cell_angle_beta 90.000000
_cell_angle_gamma 90.000000
_cell_volume 5527.951048
_symmetry_space_group_name_H-M "C C C M"
_symmetry_group_IT_number 66
_symmetry_cell_setting 'orthorhombic'
loop_
_space_group_symop_operation_xyz
x,y,z
-x,-y,z
x,-y,1/2-z
-x,y,1/2-z
-x,-y,-z
x,y,-z
-x,y,1/2+z
x,-y,1/2+z
1/2+x,1/2+y,z
1/2-x,1/2-y,z
1/2+x,1/2-y,1/2-z
1/2-x,1/2+y,1/2-z
1/2-x,1/2-y,-z
1/2+x,1/2+y,-z
1/2-x,1/2+y,1/2+z
1/2+x,1/2-y,1/2+z
loop_
_atom_site_type_symbol
_atom_site_label
_atom_site_fract_x
_atom_site_fract_y
_atom_site_fract_z
Si Si1 0.951242 0.887714 0.334802
Si Si2 0.950349 0.564201 0.328424
Si Si3 0.693560 0.595694 0.159498
Si Si4 0.615309 0.500000 0.750000
Si Si5 0.286550 0.064036 0.671153
Si Si6 0.866930 0.664979 0.330297
Si Si7 0.380051 0.295870 0.829649
O O1 0.960784 0.870644 0.500000
O O2 0.921550 0.832905 0.254856
O O3 0.000000 0.899266 0.250000
O O4 0.918735 0.950659 0.330476
O O5 0.933514 0.500000 0.250000
O O6 0.957018 0.553547 0.500000
O O7 0.912313 0.619503 0.311101
O O8 0.000000 0.580087 0.250000
O O9 0.651254 0.544225 0.161239
O O10 0.733456 0.578978 0.274609
O O11 0.667458 0.661796 0.188778
O O12 0.715425 0.596274 0.000000
O O13 0.287562 0.054424 0.500000
O O14 0.321059 0.122416 0.705924
O O15 0.302321 0.000000 0.750000
O O16 0.864031 0.682146 0.500000
O O17 0.872075 0.727069 0.235332
O O18 0.390648 0.294069 0.000000
#
# Coordination Sequence:
#
# PCOD9497218 Si02
#       7
#    16  16  16   8  16  16  16
#     4  11  23  39  61  89 123 161 202 251 302 356
#     4  10  20  36  59  86 115 147 187 234 286 346
#     4  10  21  38  59  86 118 152 197 244 295 356
#     4  10  21  36  62  90 120 158 201 246 300 354
#     4  11  23  38  60  89 119 154 196 244 299 356
#     4  10  23  41  59  84 119 157 195 239 295 356
#     4  10  23  41  61  85 115 155 200 246 297 355
#
# _framework density 18.813479999999998
#
# number of rings (size 3 to 8) (size 9 to 14) (size 15 to 20)
#    0.000    1.692    0.769    3.462    0.000    9.231 
#    0.000    4.615    0.000    0.000    0.000    0.000 
#    0.000    0.000    0.000    0.000    0.000    0.000 
#
# Total GULP energy -290421.820072 kJ/mol
# GULP energy per Si atom -5585.035001 kJ/mol
# Density = 1.877066 g / cm^3
# Si number density = 18.813480 Si / 1000 Ang^3
#
#
#
# Elastic Constant Matrix: (Units=GPa)
#
#
# Indices 1 2 3 4 5 6 
#
# 1 86.7433 63.2146 53.7096 0.0000 0.0000 0.0000
# 2 63.2146 138.6333 77.0982 0.0000 0.0000 0.0000
# 3 53.7096 77.0982 124.9613 0.0000 0.0000 0.0000
# 4 0.0000 0.0000 0.0000 11.0787 0.0000 0.0000
# 5 0.0000 0.0000 0.0000 0.0000 13.0026 0.0000
# 6 0.0000 0.0000 0.0000 0.0000 0.0000 10.3192
#
#
#
# Elastic Compliance Matrix: (Units=1/GPa)
#
#
# Indices 1 2 3 4 5 6 
#
# 1 0.018613 -0.006148 -0.004207 0.000000 0.000000 0.000000
# 2 -0.006148 0.013012 -0.005386 0.000000 0.000000 0.000000
# 3 -0.004207 -0.005386 0.013134 0.000000 0.000000 0.000000
# 4 0.000000 0.000000 0.000000 0.090263 0.000000 0.000000
# 5 0.000000 0.000000 0.000000 0.000000 0.076908 0.000000
# 6 0.000000 0.000000 0.000000 0.000000 0.000000 0.096906
#
#
# Mechanical properties :
#
#
# Convention : Reuss Voigt Hill
#
# Bulk Modulus (GPa) = 75.31443 82.04254 78.67848
# Shear Modulus (GPa) = 14.50357 17.30114 15.90236
#
# Velocity S-wave (km/s) = 2.77955 3.03580 2.91050
# Velocity P-wave (km/s) = 7.10072 7.48273 7.29422
#
# Compressibility (1/GPa) = 0.01327767
#
# Stress axis : x y z
#
# Youngs Moduli (GPa) = 53.72453 76.85481 76.14090
#
# Poissons Ratio (x) = 0.47248 0.32035
# Poissons Ratio (y) = 0.33028 0.41006
# Poissons Ratio (z) = 0.22604 0.41390
#
# Static dielectric constant tensor:
#      x y z
#    x 1.636100 0.000000 0.000000 
#    y 0.000000 1.631700 0.000000 
#    z 0.000000 0.000000 1.646120 
# 
# From -- ./inp_files/10365.got.cif
#   From: 2010.05.17/outbox.cif.g08.bks.cpg/sg66_6_cif.got.tgz:10365.got - 2010.06.03 17:51:23.
