data_PCOD9497403
_publ_section_title
;
Structure prediction by ZEFSAII (Michael W. Deem and Ramdas Pophale) SiO2 
 PCOD9497403
Probable space group: C C C M
;
_chemical_formula_sum "Si O2"
_cell_formula_units_Z 96
_cell_length_a 20.697421
_cell_length_b 27.528881
_cell_length_c 8.719878
_cell_angle_alpha 90.000000
_cell_angle_beta 90.000000
_cell_angle_gamma 90.000000
_cell_volume 4968.384530
_symmetry_space_group_name_H-M "C C C M"
_symmetry_group_IT_number 66
_symmetry_cell_setting 'orthorhombic'
loop_
_space_group_symop_operation_xyz
x,y,z
-x,-y,z
x,-y,1/2-z
-x,y,1/2-z
-x,-y,-z
x,y,-z
-x,y,1/2+z
x,-y,1/2+z
1/2+x,1/2+y,z
1/2-x,1/2-y,z
1/2+x,1/2-y,1/2-z
1/2-x,1/2+y,1/2-z
1/2-x,1/2-y,-z
1/2+x,1/2+y,-z
1/2-x,1/2+y,1/2+z
1/2+x,1/2-y,1/2+z
loop_
_atom_site_type_symbol
_atom_site_label
_atom_site_fract_x
_atom_site_fract_y
_atom_site_fract_z
Si Si1 0.699643 0.207270 0.315053
Si Si2 0.805515 0.602698 0.317232
Si Si3 0.570352 0.371990 0.684236
Si Si4 0.431427 0.054299 0.816917
Si Si5 0.327046 0.447322 0.316391
Si Si6 0.930822 0.240585 0.684154
O O1 0.701342 0.200391 0.500000
O O2 0.750000 0.250000 0.278439
O O3 0.713983 0.156698 0.234065
O O4 0.628498 0.225710 0.269015
O O5 0.814771 0.600638 0.500000
O O6 0.871335 0.586787 0.235040
O O7 0.746385 0.567271 0.275057
O O8 0.500000 0.385346 0.750000
O O9 0.569604 0.374747 0.500000
O O10 0.624706 0.407094 0.749934
O O11 0.582108 0.315589 0.728963
O O12 0.500000 0.072077 0.750000
O O13 0.421679 0.000000 0.750000
O O14 0.435229 0.051855 0.000000
O O15 0.342804 0.500000 0.250000
O O16 0.332109 0.447785 0.500000
O O17 0.934223 0.241587 0.500000
O O18 0.000000 0.255284 0.750000
#
# Coordination Sequence:
#
# PCOD9497403 Si02
#       6
#    16  16  16  16  16  16
#     4  10  21  38  59  83 113 151 195 240 289 343
#     4  11  24  40  59  86 118 153 195 242 292 345
#     4  10  20  37  61  87 117 151 189 233 283 339
#     4  11  22  39  63  89 119 154 193 237 288 346
#     4  11  24  40  59  84 114 149 191 237 286 340
#     4   9  19  35  57  84 113 148 186 228 279 335
#
# _framework density 19.322175999999999
#
# number of rings (size 3 to 8) (size 9 to 14) (size 15 to 20)
#    0.000    1.667    0.000    5.000    0.000    8.000 
#    0.000    3.333    0.000    0.000    0.000    0.000 
#    0.000    0.000    0.000    0.000    0.000    0.000 
#
# Total GULP energy -268355.166876 kJ/mol
# GULP energy per Si atom -5590.732643 kJ/mol
# Density = 1.927820 g / cm^3
# Si number density = 19.322176 Si / 1000 Ang^3
#
#
#
# Elastic Constant Matrix: (Units=GPa)
#
#
# Indices 1 2 3 4 5 6 
#
# 1 45.5360 -4.0702 17.4378 0.0000 0.0000 0.0000
# 2 -4.0702 25.8511 6.4361 0.0000 0.0000 0.0000
# 3 17.4378 6.4361 58.1708 0.0000 0.0000 0.0000
# 4 0.0000 0.0000 0.0000 30.0402 0.0000 0.0000
# 5 0.0000 0.0000 0.0000 0.0000 85.2559 0.0000
# 6 0.0000 0.0000 0.0000 0.0000 0.0000 36.2450
#
#
#
# Elastic Compliance Matrix: (Units=1/GPa)
#
#
# Indices 1 2 3 4 5 6 
#
# 1 0.025722 0.006139 -0.008390 0.000000 0.000000 0.000000
# 2 0.006139 0.041244 -0.006404 0.000000 0.000000 0.000000
# 3 -0.008390 -0.006404 0.020414 0.000000 0.000000 0.000000
# 4 0.000000 0.000000 0.000000 0.033289 0.000000 0.000000
# 5 0.000000 0.000000 0.000000 0.000000 0.011729 0.000000
# 6 0.000000 0.000000 0.000000 0.000000 0.000000 0.027590
#
#
# Mechanical properties :
#
#
# Convention : Reuss Voigt Hill
#
# Bulk Modulus (GPa) = 14.27123 18.79615 16.53369
# Shear Modulus (GPa) = 24.91840 37.62517 31.27179
#
# Velocity S-wave (km/s) = 3.59503 4.41756 4.02735
# Velocity P-wave (km/s) = 4.96330 5.98069 5.49559
#
# Compressibility (1/GPa) = 0.07007106
#
# Stress axis : x y z
#
# Youngs Moduli (GPa) = 38.87688 24.24599 48.98532
#
# Poissons Ratio (x) = -0.14884 0.41098
# Poissons Ratio (y) = -0.23865 0.31368
# Poissons Ratio (z) = 0.32617 0.15526
#
# Static dielectric constant tensor:
#      x y z
#    x 1.659930 0.000000 0.000000 
#    y 0.000000 1.652290 0.000000 
#    z 0.000000 0.000000 1.649010 
# 
# From -- ./inp_files/8008.got.cif
#   From: 2010.05.17/outbox.cif.g08.bks.cpg/sg66_5_cif.got.tgz:8008.got - 2010.06.03 17:51:23.
