data_PCOD9497906
_publ_section_title
;
Structure prediction by ZEFSAII (Michael W. Deem and Ramdas Pophale) SiO2 
 PCOD9497906
Probable space group: C C C M
;
_chemical_formula_sum "Si O2"
_cell_formula_units_Z 52
_cell_length_a 7.443513
_cell_length_b 18.814531
_cell_length_c 17.587868
_cell_angle_alpha 90.000000
_cell_angle_beta 90.000000
_cell_angle_gamma 90.000000
_cell_volume 2463.114187
_symmetry_space_group_name_H-M "C C C M"
_symmetry_group_IT_number 66
_symmetry_cell_setting 'orthorhombic'
loop_
_space_group_symop_operation_xyz
x,y,z
-x,-y,z
x,-y,1/2-z
-x,y,1/2-z
-x,-y,-z
x,y,-z
-x,y,1/2+z
x,-y,1/2+z
1/2+x,1/2+y,z
1/2-x,1/2-y,z
1/2+x,1/2-y,1/2-z
1/2-x,1/2+y,1/2-z
1/2-x,1/2-y,-z
1/2+x,1/2+y,-z
1/2-x,1/2+y,1/2+z
1/2+x,1/2-y,1/2+z
loop_
_atom_site_type_symbol
_atom_site_label
_atom_site_fract_x
_atom_site_fract_y
_atom_site_fract_z
Si Si1 0.298394 0.368007 0.816152
Si Si2 0.828440 0.175859 0.142975
Si Si3 0.500000 0.500000 0.250000
Si Si4 0.024181 0.417177 0.411563
O O1 0.457181 0.329673 0.862426
O O2 0.285379 0.332775 0.733115
O O3 0.376328 0.447239 0.799203
O O4 0.111977 0.372987 0.859141
O O5 0.750000 0.250000 0.114817
O O6 0.723930 0.111419 0.103294
O O7 0.978312 0.408598 0.500000
O O8 0.000000 0.500000 0.392030
#
# Coordination Sequence:
#
# PCOD9497906 Si02
#       4
#    16  16   4  16
#     4  10  21  36  64  87 118 156 202 254 308 355
#     4  10  23  39  62  90 122 155 206 258 303 359
#     4   8  16  36  56  92 112 146 202 262 298 348
#     4  11  24  40  61  90 125 164 203 248 307 372
#
# _framework density 21.111483
#
# number of rings (size 3 to 8) (size 9 to 14) (size 15 to 20)
#    0.000    2.154    0.000    4.615    8.615    3.077 
#    0.000    5.385    0.000    0.000    0.000    0.000 
#    0.000    0.000    0.000    0.000    0.000    0.000 
#
# Total GULP energy -145311.502279 kJ/mol
# GULP energy per Si atom -5588.903934 kJ/mol
# Density = 2.106343 g / cm^3
# Si number density = 21.111483 Si / 1000 Ang^3
#
#
#
# Elastic Constant Matrix: (Units=GPa)
#
#
# Indices 1 2 3 4 5 6 
#
# 1 58.7608 -15.0192 12.4272 0.0000 0.0000 0.0000
# 2 -15.0192 75.5372 -11.8753 0.0000 0.0000 0.0000
# 3 12.4272 -11.8753 16.1596 0.0000 0.0000 0.0000
# 4 0.0000 0.0000 0.0000 261.7436 0.0000 0.0000
# 5 0.0000 0.0000 0.0000 0.0000 -0.6682 0.0000
# 6 0.0000 0.0000 0.0000 0.0000 0.0000 12.4494
#
#
#
# Elastic Compliance Matrix: (Units=1/GPa)
#
#
# Indices 1 2 3 4 5 6 
#
# 1 0.020540 0.001810 -0.014466 0.000000 0.000000 0.000000
# 2 0.001810 0.015127 0.009725 0.000000 0.000000 0.000000
# 3 -0.014466 0.009725 0.080154 0.000000 0.000000 0.000000
# 4 0.000000 0.000000 0.000000 0.003821 0.000000 0.000000
# 5 0.000000 0.000000 0.000000 0.000000 -1.496615 0.000000
# 6 0.000000 0.000000 0.000000 0.000000 0.000000 0.080325
#
#
# Mechanical properties :
#
#
# Convention : Reuss Voigt Hill
#
# Bulk Modulus (GPa) = 9.09432 13.50256 11.29844
# Shear Modulus (GPa) = -3.98682 65.69995 30.85657
#
# Velocity S-wave (km/s) = -1.37570 5.58463 3.82724
# Velocity P-wave (km/s) = 1.33929 6.92775 4.98936
#
# Compressibility (1/GPa) = 0.10995879
#
# Stress axis : x y z
#
# Youngs Moduli (GPa) = 48.68516 66.10602 12.47595
#
# Poissons Ratio (x) = -0.11964 0.18048
# Poissons Ratio (y) = -0.08811 -0.12133
# Poissons Ratio (z) = 0.70428 -0.64287
#
# Static dielectric constant tensor:
#      x y z
#    x 1.744770 0.000000 0.000000 
#    y 0.000000 1.785830 0.000000 
#    z 0.000000 0.000000 1.744460 
# 
# From -- ./inp_files/35936.got.cif
#   From: 2010.05.17/outbox.cif.g08.bks.cpg/sg66_18_cif.got.tgz:35936.got - 2010.06.03 17:51:23.
