data_PCOD9497219
_publ_section_title
;
Structure prediction by ZEFSAII (Michael W. Deem and Ramdas Pophale) SiO2 
 PCOD9497219
Probable space group: C C C M
;
_chemical_formula_sum "Si O2"
_cell_formula_units_Z 96
_cell_length_a 23.920311
_cell_length_b 10.944908
_cell_length_c 15.356581
_cell_angle_alpha 90.000000
_cell_angle_beta 90.000000
_cell_angle_gamma 90.000000
_cell_volume 4020.438952
_symmetry_space_group_name_H-M "C C C M"
_symmetry_group_IT_number 66
_symmetry_cell_setting 'orthorhombic'
loop_
_space_group_symop_operation_xyz
x,y,z
-x,-y,z
x,-y,1/2-z
-x,y,1/2-z
-x,-y,-z
x,y,-z
-x,y,1/2+z
x,-y,1/2+z
1/2+x,1/2+y,z
1/2-x,1/2-y,z
1/2+x,1/2-y,1/2-z
1/2-x,1/2+y,1/2-z
1/2-x,1/2-y,-z
1/2+x,1/2+y,-z
1/2-x,1/2+y,1/2+z
1/2+x,1/2-y,1/2+z
loop_
_atom_site_type_symbol
_atom_site_label
_atom_site_fract_x
_atom_site_fract_y
_atom_site_fract_z
Si Si1 0.939483 0.525627 0.897326
Si Si2 0.276577 0.946001 0.842906
Si Si3 0.631282 0.776596 0.398384
Si Si4 0.440716 0.451006 0.395545
Si Si5 0.673670 0.433543 0.603117
Si Si6 0.340119 0.174379 0.899367
O O1 0.905123 0.400322 0.895624
O O2 0.898609 0.628811 0.858470
O O3 0.000000 0.500000 0.858592
O O4 0.947787 0.558388 0.000000
O O5 0.309652 0.821618 0.859066
O O6 0.291932 0.000000 0.750000
O O7 0.210260 0.959284 0.854356
O O8 0.300796 0.055973 0.902447
O O9 0.642662 0.745123 0.500000
O O10 0.590615 0.671163 0.361800
O O11 0.500000 0.500000 0.361388
O O12 0.448849 0.430072 0.500000
O O13 0.392264 0.550532 0.383595
O O14 0.684557 0.444988 0.500000
O O15 0.686779 0.297530 0.637759
O O16 0.351670 0.207243 0.000000
#
# Coordination Sequence:
#
# PCOD9497219 Si02
#       6
#    16  16  16  16  16  16
#     4   8  14  24  47  82 110 138 177 225 283 336
#     4  11  22  37  55  84 114 153 196 243 291 349
#     4   9  18  34  55  82 120 153 184 237 294 347
#     4   9  19  34  56  89 120 147 185 235 291 355
#     4  10  20  36  59  86 115 150 193 242 294 347
#     4   9  18  34  57  84 112 143 186 244 296 341
#
# _framework density 23.87799
#
# number of rings (size 3 to 8) (size 9 to 14) (size 15 to 20)
#    0.000    2.667    0.000    3.000    2.333    2.000 
#    6.000    2.500    0.000    8.500    0.000    0.000 
#    0.000    0.000    0.000    0.000    0.000    0.333 
#
# Total GULP energy -267648.828335 kJ/mol
# GULP energy per Si atom -5576.017257 kJ/mol
# Density = 2.382364 g / cm^3
# Si number density = 23.877990 Si / 1000 Ang^3
#
#
#
# Elastic Constant Matrix: (Units=GPa)
#
#
# Indices 1 2 3 4 5 6 
#
# 1 182.4570 49.4359 15.6307 0.0000 0.0000 0.0000
# 2 49.4359 128.8959 13.8328 0.0000 0.0000 0.0000
# 3 15.6307 13.8328 37.6076 0.0000 0.0000 0.0000
# 4 0.0000 0.0000 0.0000 -3.2895 0.0000 0.0000
# 5 0.0000 0.0000 0.0000 0.0000 -8.5676 0.0000
# 6 0.0000 0.0000 0.0000 0.0000 0.0000 32.9970
#
#
#
# Elastic Compliance Matrix: (Units=1/GPa)
#
#
# Indices 1 2 3 4 5 6 
#
# 1 0.006229 -0.002198 -0.001780 0.000000 0.000000 0.000000
# 2 -0.002198 0.008853 -0.002343 0.000000 0.000000 0.000000
# 3 -0.001780 -0.002343 0.028192 0.000000 0.000000 0.000000
# 4 0.000000 0.000000 0.000000 -0.303993 0.000000 0.000000
# 5 0.000000 0.000000 0.000000 0.000000 -0.116718 0.000000
# 6 0.000000 0.000000 0.000000 0.000000 0.000000 0.030306
#
#
# Mechanical properties :
#
#
# Convention : Reuss Voigt Hill
#
# Bulk Modulus (GPa) = 32.64614 56.30660 44.47637
# Shear Modulus (GPa) = -15.41879 22.23203 3.40662
#
# Velocity S-wave (km/s) = -2.54388 3.05465 1.19573
# Velocity P-wave (km/s) = 2.25240 6.00611 4.53578
#
# Compressibility (1/GPa) = 0.03063149
#
# Stress axis : x y z
#
# Youngs Moduli (GPa) = 160.54533 112.96161 35.47098
#
# Poissons Ratio (x) = 0.24828 0.06315
# Poissons Ratio (y) = 0.35286 0.08310
# Poissons Ratio (z) = 0.28584 0.26463
#
# Static dielectric constant tensor:
#      x y z
#    x 1.967360 0.000000 0.000000 
#    y 0.000000 1.970570 0.000000 
#    z 0.000000 0.000000 2.153220 
# 
# From -- ./inp_files/43603.got.cif
#   From: 2010.05.17/outbox.cif.g08.bks.cpg/sg66_22_cif.got.tgz:43603.got - 2010.06.03 17:51:23.
