data_PCOD9497963
_publ_section_title
;
Structure prediction by ZEFSAII (Michael W. Deem and Ramdas Pophale) SiO2 
 PCOD9497963
Probable space group: C C C M
;
_chemical_formula_sum "Si O2"
_cell_formula_units_Z 116
_cell_length_a 11.503229
_cell_length_b 27.126699
_cell_length_c 16.344423
_cell_angle_alpha 90.000000
_cell_angle_beta 90.000000
_cell_angle_gamma 90.000000
_cell_volume 5100.189438
_symmetry_space_group_name_H-M "C C C M"
_symmetry_group_IT_number 66
_symmetry_cell_setting 'orthorhombic'
loop_
_space_group_symop_operation_xyz
x,y,z
-x,-y,z
x,-y,1/2-z
-x,y,1/2-z
-x,-y,-z
x,y,-z
-x,y,1/2+z
x,-y,1/2+z
1/2+x,1/2+y,z
1/2-x,1/2-y,z
1/2+x,1/2-y,1/2-z
1/2-x,1/2+y,1/2-z
1/2-x,1/2-y,-z
1/2+x,1/2+y,-z
1/2-x,1/2+y,1/2+z
1/2+x,1/2-y,1/2+z
loop_
_atom_site_type_symbol
_atom_site_label
_atom_site_fract_x
_atom_site_fract_y
_atom_site_fract_z
Si Si1 0.161372 0.095686 0.594642
Si Si2 0.262200 0.511280 0.600701
Si Si3 0.750000 0.750000 0.000000
Si Si4 0.874155 0.349430 0.098170
Si Si5 0.556290 0.073560 0.592825
Si Si6 0.880220 0.272335 0.224407
Si Si7 0.425387 0.596851 0.331982
Si Si8 0.283709 0.836135 0.635710
O O1 0.192509 0.091417 0.500000
O O2 0.242046 0.139612 0.624789
O O3 0.026578 0.105709 0.602720
O O4 0.199924 0.042867 0.629276
O O5 0.268577 0.514898 0.500000
O O6 0.131218 0.527570 0.625491
O O7 0.352470 0.549322 0.640473
O O8 0.738245 0.792917 0.071605
O O9 0.906887 0.298004 0.138011
O O10 0.945562 0.397682 0.128492
O O11 0.889504 0.346179 0.000000
O O12 0.522760 0.060448 0.500000
O O13 0.650753 0.117932 0.593876
O O14 0.750000 0.250000 0.222374
O O15 0.863025 0.315626 0.291256
O O16 0.000000 0.244257 0.250000
O O17 0.500000 0.589777 0.250000
O O18 0.335946 0.641829 0.329076
#
# Coordination Sequence:
#
# PCOD9497963 Si02
#       8
#    16  16   4  16  16  16  16  16
#     4  10  21  37  58  94 132 170 217 269 324 388
#     4   9  19  35  60  93 127 170 223 269 315 377
#     4  12  24  44  68 100 118 150 224 278 324 392
#     4  10  22  41  66  90 127 175 217 267 331 401
#     4   9  17  35  63  88 120 162 213 263 314 378
#     4  12  26  46  68  96 132 169 218 279 345 405
#     4  11  23  38  61  89 133 175 210 257 331 396
#     4  11  23  42  66  94 121 163 210 271 324 391
#
# _framework density 22.744254000000002
#
# number of rings (size 3 to 8) (size 9 to 14) (size 15 to 20)
#    0.000    1.655    2.759    1.655    1.931    4.690 
#    0.000    2.759    0.000    0.000    0.000    0.000 
#    0.000    0.000    0.000    0.000    0.000    0.000 
#
# Total GULP energy -323074.103269 kJ/mol
# GULP energy per Si atom -5570.243160 kJ/mol
# Density = 2.269249 g / cm^3
# Si number density = 22.744254 Si / 1000 Ang^3
#
#
#
# Elastic Constant Matrix: (Units=GPa)
#
#
# Indices 1 2 3 4 5 6 
#
# 1 129.8791 10.9946 5.3959 0.0000 0.0000 0.0000
# 2 10.9946 34.4300 10.9391 0.0000 0.0000 0.0000
# 3 5.3959 10.9391 65.6228 0.0000 0.0000 0.0000
# 4 0.0000 0.0000 0.0000 3.8175 0.0000 0.0000
# 5 0.0000 0.0000 0.0000 0.0000 22.5070 0.0000
# 6 0.0000 0.0000 0.0000 0.0000 0.0000 29.7823
#
#
#
# Elastic Compliance Matrix: (Units=1/GPa)
#
#
# Indices 1 2 3 4 5 6 
#
# 1 0.007917 -0.002451 -0.000242 0.000000 0.000000 0.000000
# 2 -0.002451 0.031428 -0.005037 0.000000 0.000000 0.000000
# 3 -0.000242 -0.005037 0.016098 0.000000 0.000000 0.000000
# 4 0.000000 0.000000 0.000000 0.261952 0.000000 0.000000
# 5 0.000000 0.000000 0.000000 0.000000 0.044431 0.000000
# 6 0.000000 0.000000 0.000000 0.000000 0.000000 0.033577
#
#
# Mechanical properties :
#
#
# Convention : Reuss Voigt Hill
#
# Bulk Modulus (GPa) = 25.01180 31.62125 28.31652
# Shear Modulus (GPa) = 11.78715 24.72818 18.25766
#
# Velocity S-wave (km/s) = 2.27897 3.30089 2.83634
# Velocity P-wave (km/s) = 4.23625 5.33488 4.81699
#
# Compressibility (1/GPa) = 0.03998113
#
# Stress axis : x y z
#
# Youngs Moduli (GPa) = 126.30990 31.81915 62.11853
#
# Poissons Ratio (x) = 0.07799 0.01506
# Poissons Ratio (y) = 0.30961 0.31291
# Poissons Ratio (z) = 0.03062 0.16028
#
# Static dielectric constant tensor:
#      x y z
#    x 1.926140 0.000000 0.000000 
#    y 0.000000 1.832720 0.000000 
#    z 0.000000 0.000000 1.918220 
# 
# From -- ./inp_files/39213.got.cif
#   From: 2010.05.17/outbox.cif.g08.bks.cpg/sg66_20_cif.got.tgz:39213.got - 2010.06.03 17:51:23.
