data_PCOD9497073
_publ_section_title
;
Structure prediction by ZEFSAII (Michael W. Deem and Ramdas Pophale) SiO2 
 PCOD9497073
Probable space group: C C C M
;
_chemical_formula_sum "Si O2"
_cell_formula_units_Z 96
_cell_length_a 9.708067
_cell_length_b 19.065617
_cell_length_c 29.651238
_cell_angle_alpha 90.000000
_cell_angle_beta 90.000000
_cell_angle_gamma 90.000000
_cell_volume 5488.156158
_symmetry_space_group_name_H-M "C C C M"
_symmetry_group_IT_number 66
_symmetry_cell_setting 'orthorhombic'
loop_
_space_group_symop_operation_xyz
x,y,z
-x,-y,z
x,-y,1/2-z
-x,y,1/2-z
-x,-y,-z
x,y,-z
-x,y,1/2+z
x,-y,1/2+z
1/2+x,1/2+y,z
1/2-x,1/2-y,z
1/2+x,1/2-y,1/2-z
1/2-x,1/2+y,1/2-z
1/2-x,1/2-y,-z
1/2+x,1/2+y,-z
1/2-x,1/2+y,1/2+z
1/2+x,1/2-y,1/2+z
loop_
_atom_site_type_symbol
_atom_site_label
_atom_site_fract_x
_atom_site_fract_y
_atom_site_fract_z
Si Si1 0.691952 0.863764 0.141024
Si Si2 0.906766 0.725000 0.450231
Si Si3 0.143068 0.189097 0.722958
Si Si4 0.048291 0.580446 0.552462
Si Si5 0.469587 0.720294 0.361068
Si Si6 0.150909 0.580502 0.737075
O O1 0.650970 0.897032 0.092845
O O2 0.595907 0.795873 0.151460
O O3 0.847484 0.835668 0.141405
O O4 0.670924 0.913439 0.183560
O O5 0.962662 0.740845 0.500000
O O6 0.750000 0.750000 0.448635
O O7 0.930072 0.641130 0.443684
O O8 0.984537 0.767497 0.412025
O O9 0.250000 0.250000 0.735807
O O10 0.227546 0.120172 0.736477
O O11 0.000000 0.193209 0.750000
O O12 0.095053 0.199153 0.671353
O O13 0.098844 0.584816 0.500000
O O14 0.000000 0.500000 0.559238
O O15 0.152300 0.500000 0.750000
O O16 0.000000 0.610476 0.750000
#
# Coordination Sequence:
#
# PCOD9497073 Si02
#       6
#    16  16  16  16  16  16
#     4  10  20  38  56  83 116 144 193 242 286 345
#     4   9  18  34  56  85 116 144 185 238 289 342
#     4  12  22  37  60  83 113 149 196 241 290 347
#     4   9  19  35  60  86 113 150 189 236 291 354
#     4  10  20  35  58  84 111 148 191 238 289 339
#     4  11  25  41  58  83 114 157 197 241 296 346
#
# _framework density 17.492214000000001
#
# number of rings (size 3 to 8) (size 9 to 14) (size 15 to 20)
#    0.000    1.833    1.667    3.000    2.333    2.333 
#    0.000    3.333    0.000    0.000    0.000    4.667 
#    0.000    0.000    0.000    0.000    0.000    0.000 
#
# Total GULP energy -267556.083748 kJ/mol
# GULP energy per Si atom -5574.085078 kJ/mol
# Density = 1.745240 g / cm^3
# Si number density = 17.492214 Si / 1000 Ang^3
#
#
#
# Elastic Constant Matrix: (Units=GPa)
#
#
# Indices 1 2 3 4 5 6 
#
# 1 99.5392 46.6779 48.6865 0.0000 0.0000 0.0000
# 2 46.6779 78.6298 58.1459 0.0000 0.0000 0.0000
# 3 48.6865 58.1459 124.4249 0.0000 0.0000 0.0000
# 4 0.0000 0.0000 0.0000 14.1664 0.0000 0.0000
# 5 0.0000 0.0000 0.0000 0.0000 27.8073 0.0000
# 6 0.0000 0.0000 0.0000 0.0000 0.0000 21.6517
#
#
#
# Elastic Compliance Matrix: (Units=1/GPa)
#
#
# Indices 1 2 3 4 5 6 
#
# 1 0.014417 -0.006703 -0.002509 0.000000 0.000000 0.000000
# 2 -0.006703 0.022550 -0.007915 0.000000 0.000000 0.000000
# 3 -0.002509 -0.007915 0.012717 0.000000 0.000000 0.000000
# 4 0.000000 0.000000 0.000000 0.070589 0.000000 0.000000
# 5 0.000000 0.000000 0.000000 0.000000 0.035962 0.000000
# 6 0.000000 0.000000 0.000000 0.000000 0.000000 0.046186
#
#
# Mechanical properties :
#
#
# Convention : Reuss Voigt Hill
#
# Bulk Modulus (GPa) = 64.80719 67.73493 66.27106
# Shear Modulus (GPa) = 20.67660 22.66400 21.67030
#
# Velocity S-wave (km/s) = 3.44182 3.60344 3.52355
# Velocity P-wave (km/s) = 7.27492 7.49133 7.38391
#
# Compressibility (1/GPa) = 0.01543039
#
# Stress axis : x y z
#
# Youngs Moduli (GPa) = 69.36389 44.34512 78.63181
#
# Poissons Ratio (x) = 0.29726 0.19726
# Poissons Ratio (y) = 0.46497 0.62239
# Poissons Ratio (z) = 0.17401 0.35100
#
# Static dielectric constant tensor:
#      x y z
#    x 1.603180 0.000000 0.000000 
#    y 0.000000 1.579040 0.000000 
#    z 0.000000 0.000000 1.626340 
# 
# From -- ./inp_files/62604.got.cif
#   From: 2010.05.17/outbox.cif.g08.bks.cpg/sg66_32_cif.got.tgz:62604.got - 2010.06.03 17:51:23.
