data_PCOD9497101
_publ_section_title
;
Structure prediction by ZEFSAII (Michael W. Deem and Ramdas Pophale) SiO2 
 PCOD9497101
Probable space group: C C C M
;
_chemical_formula_sum "Si O2"
_cell_formula_units_Z 96
_cell_length_a 16.142624
_cell_length_b 19.551645
_cell_length_c 14.256135
_cell_angle_alpha 90.000000
_cell_angle_beta 90.000000
_cell_angle_gamma 90.000000
_cell_volume 4499.447964
_symmetry_space_group_name_H-M "C C C M"
_symmetry_group_IT_number 66
_symmetry_cell_setting 'orthorhombic'
loop_
_space_group_symop_operation_xyz
x,y,z
-x,-y,z
x,-y,1/2-z
-x,y,1/2-z
-x,-y,-z
x,y,-z
-x,y,1/2+z
x,-y,1/2+z
1/2+x,1/2+y,z
1/2-x,1/2-y,z
1/2+x,1/2-y,1/2-z
1/2-x,1/2+y,1/2-z
1/2-x,1/2-y,-z
1/2+x,1/2+y,-z
1/2-x,1/2+y,1/2+z
1/2+x,1/2-y,1/2+z
loop_
_atom_site_type_symbol
_atom_site_label
_atom_site_fract_x
_atom_site_fract_y
_atom_site_fract_z
Si Si1 0.055484 0.173809 0.605511
Si Si2 0.821424 0.204509 0.268170
Si Si3 0.422525 0.043217 0.893764
Si Si4 0.243927 0.078379 0.885591
Si Si5 0.934744 0.945929 0.887164
Si Si6 0.959365 0.696432 0.849132
O O1 0.081926 0.152963 0.500000
O O2 0.124007 0.169614 0.686429
O O3 0.975761 0.127601 0.633159
O O4 0.023394 0.251654 0.603200
O O5 0.750000 0.250000 0.221295
O O6 0.776173 0.150842 0.336639
O O7 0.879046 0.257074 0.326987
O O8 0.329330 0.043789 0.852520
O O9 0.442667 0.124182 0.896331
O O10 0.500000 0.000000 0.853660
O O11 0.413155 0.016402 0.000000
O O12 0.159151 0.039404 0.859745
O O13 0.248462 0.086408 0.000000
O O14 0.933269 0.949543 0.000000
O O15 0.000000 0.000000 0.851540
O O16 0.000000 0.678281 0.750000
#
# Coordination Sequence:
#
# PCOD9497101 Si02
#       6
#    16  16  16  16  16  16
#     4  10  21  37  59  86 122 165 207 255 319 382
#     4  11  21  36  59  91 126 154 210 267 314 375
#     4  10  21  37  59  89 123 161 204 250 308 378
#     4  10  20  35  60  91 122 157 201 256 315 371
#     4   9  18  35  60  89 120 157 198 247 310 372
#     4  10  20  35  59  86 117 158 202 260 309 368
#
# _framework density 21.33595
#
# number of rings (size 3 to 8) (size 9 to 14) (size 15 to 20)
#    0.000    2.000    3.333    0.500    0.000    1.667 
#    0.000    5.000    3.667    6.000    0.000    0.000 
#    0.000    0.667    0.000    0.000    0.000    0.000 
#
# Total GULP energy -267516.305500 kJ/mol
# GULP energy per Si atom -5573.256365 kJ/mol
# Density = 2.128739 g / cm^3
# Si number density = 21.335950 Si / 1000 Ang^3
#
#
#
# Elastic Constant Matrix: (Units=GPa)
#
#
# Indices 1 2 3 4 5 6 
#
# 1 189.1688 60.4141 37.7322 0.0000 0.0000 0.0000
# 2 60.4141 77.1567 12.5503 0.0000 0.0000 0.0000
# 3 37.7322 12.5503 93.9995 0.0000 0.0000 0.0000
# 4 0.0000 0.0000 0.0000 6.6722 0.0000 0.0000
# 5 0.0000 0.0000 0.0000 0.0000 19.0028 0.0000
# 6 0.0000 0.0000 0.0000 0.0000 0.0000 42.7713
#
#
#
# Elastic Compliance Matrix: (Units=1/GPa)
#
#
# Indices 1 2 3 4 5 6 
#
# 1 0.007496 -0.005500 -0.002275 0.000000 0.000000 0.000000
# 2 -0.005500 0.017283 -0.000100 0.000000 0.000000 0.000000
# 3 -0.002275 -0.000100 0.011565 0.000000 0.000000 0.000000
# 4 0.000000 0.000000 0.000000 0.149876 0.000000 0.000000
# 5 0.000000 0.000000 0.000000 0.000000 0.052624 0.000000
# 6 0.000000 0.000000 0.000000 0.000000 0.000000 0.023380
#
#
# Mechanical properties :
#
#
# Convention : Reuss Voigt Hill
#
# Bulk Modulus (GPa) = 48.55428 64.63535 56.59481
# Shear Modulus (GPa) = 17.55378 30.33116 23.94247
#
# Velocity S-wave (km/s) = 2.87144 3.77450 3.35351
# Velocity P-wave (km/s) = 5.81378 7.02536 6.44809
#
# Compressibility (1/GPa) = 0.02059551
#
# Stress axis : x y z
#
# Youngs Moduli (GPa) = 133.39629 57.85959 86.46899
#
# Poissons Ratio (x) = 0.31821 0.19670
# Poissons Ratio (y) = 0.73365 0.00864
# Poissons Ratio (z) = 0.30346 0.00578
#
# Static dielectric constant tensor:
#      x y z
#    x 1.810880 0.000000 0.000000 
#    y 0.000000 1.792780 0.000000 
#    z 0.000000 0.000000 1.839940 
# 
# From -- ./inp_files/28329.got.cif
#   From: 2010.05.17/outbox.cif.g08.bks.cpg/sg66_15_cif.got.tgz:28329.got - 2010.06.03 17:51:23.
