data_PCOD9497877
_publ_section_title
;
Structure prediction by ZEFSAII (Michael W. Deem and Ramdas Pophale) SiO2 
 PCOD9497877
Probable space group: C C C M
;
_chemical_formula_sum "Si O2"
_cell_formula_units_Z 72
_cell_length_a 8.758297
_cell_length_b 20.976603
_cell_length_c 18.602947
_cell_angle_alpha 90.000000
_cell_angle_beta 90.000000
_cell_angle_gamma 90.000000
_cell_volume 3417.720757
_symmetry_space_group_name_H-M "C C C M"
_symmetry_group_IT_number 66
_symmetry_cell_setting 'orthorhombic'
loop_
_space_group_symop_operation_xyz
x,y,z
-x,-y,z
x,-y,1/2-z
-x,y,1/2-z
-x,-y,-z
x,y,-z
-x,y,1/2+z
x,-y,1/2+z
1/2+x,1/2+y,z
1/2-x,1/2-y,z
1/2+x,1/2-y,1/2-z
1/2-x,1/2+y,1/2-z
1/2-x,1/2-y,-z
1/2+x,1/2+y,-z
1/2-x,1/2+y,1/2+z
1/2+x,1/2-y,1/2+z
loop_
_atom_site_type_symbol
_atom_site_label
_atom_site_fract_x
_atom_site_fract_y
_atom_site_fract_z
Si Si1 0.269928 0.657083 0.116901
Si Si2 0.515332 0.855351 0.500000
Si Si3 0.014151 0.787029 0.000000
Si Si4 0.195610 0.086968 0.000000
Si Si5 0.828288 0.810295 0.772621
Si Si6 0.548471 0.433168 0.355098
O O1 0.237534 0.679356 0.197878
O O2 0.387228 0.599193 0.126232
O O3 0.124481 0.639725 0.069414
O O4 0.375822 0.704796 0.069427
O O5 0.449666 0.783432 0.500000
O O6 0.375263 0.902733 0.500000
O O7 0.892956 0.844251 0.000000
O O8 0.139714 0.053298 0.928066
O O9 0.750000 0.750000 0.812158
O O10 0.855358 0.878038 0.812916
O O11 0.000000 0.791576 0.750000
O O12 0.500000 0.500000 0.321657
#
# Coordination Sequence:
#
# PCOD9497877 Si02
#       6
#    16   8   8   8  16  16
#     4   9  19  34  56  85 119 159 196 239 301 362
#     4  11  19  33  57  88 123 154 189 247 308 354
#     4   9  17  32  54  83 123 162 195 235 295 367
#     4  10  22  35  56  85 111 152 204 254 294 351
#     4  10  21  36  59  90 121 154 197 252 307 358
#     4  10  22  41  60  82 116 163 206 242 292 369
#
# _framework density 21.066670999999999
#
# number of rings (size 3 to 8) (size 9 to 14) (size 15 to 20)
#    0.000    2.222    0.000    4.000    0.000   11.111 
#    0.000    2.222    0.000    0.000    0.000   18.667 
#    0.000    0.000    0.000    0.000    0.000    0.000 
#
# Total GULP energy -200826.078790 kJ/mol
# GULP energy per Si atom -5578.502189 kJ/mol
# Density = 2.101872 g / cm^3
# Si number density = 21.066671 Si / 1000 Ang^3
#
#
#
# Elastic Constant Matrix: (Units=GPa)
#
#
# Indices 1 2 3 4 5 6 
#
# 1 73.2452 23.4524 35.8570 0.0000 0.0000 0.0000
# 2 23.4524 123.2809 48.3606 0.0000 0.0000 0.0000
# 3 35.8570 48.3606 126.7383 0.0000 0.0000 0.0000
# 4 0.0000 0.0000 0.0000 7.8321 0.0000 0.0000
# 5 0.0000 0.0000 0.0000 0.0000 -21.6231 0.0000
# 6 0.0000 0.0000 0.0000 0.0000 0.0000 27.2762
#
#
#
# Elastic Compliance Matrix: (Units=1/GPa)
#
#
# Indices 1 2 3 4 5 6 
#
# 1 0.016080 -0.001499 -0.003977 0.000000 0.000000 0.000000
# 2 -0.001499 0.009679 -0.003269 0.000000 0.000000 0.000000
# 3 -0.003977 -0.003269 0.010263 0.000000 0.000000 0.000000
# 4 0.000000 0.000000 0.000000 0.127679 0.000000 0.000000
# 5 0.000000 0.000000 0.000000 0.000000 -0.046247 0.000000
# 6 0.000000 0.000000 0.000000 0.000000 0.000000 0.036662
#
#
# Mechanical properties :
#
#
# Convention : Reuss Voigt Hill
#
# Bulk Modulus (GPa) = 53.96339 59.84494 56.90417
# Shear Modulus (GPa) = 28.12397 17.07001 22.59699
#
# Velocity S-wave (km/s) = 3.65773 2.84964 3.27867
# Velocity P-wave (km/s) = 6.59619 6.26868 6.43452
#
# Compressibility (1/GPa) = 0.01853108
#
# Stress axis : x y z
#
# Youngs Moduli (GPa) = 62.18990 103.31480 97.43644
#
# Poissons Ratio (x) = 0.15483 0.38755
# Poissons Ratio (y) = 0.09320 0.31855
# Poissons Ratio (z) = 0.24736 0.33777
#
# Static dielectric constant tensor:
#      x y z
#    x 1.712520 0.000000 0.000000 
#    y 0.000000 1.867470 0.000000 
#    z 0.000000 0.000000 1.837030 
# 
# From -- ./inp_files/46965.got.cif
#   From: 2010.05.17/outbox.cif.g08.bks.cpg/sg66_24_cif.got.tgz:46965.got - 2010.06.03 17:51:23.
