data_PCOD9497827
_publ_section_title
;
Structure prediction by ZEFSAII (Michael W. Deem and Ramdas Pophale) SiO2 
 PCOD9497827
Probable space group: C C C M
;
_chemical_formula_sum "Si O2"
_cell_formula_units_Z 116
_cell_length_a 27.034774
_cell_length_b 27.545936
_cell_length_c 9.010856
_cell_angle_alpha 90.000000
_cell_angle_beta 90.000000
_cell_angle_gamma 90.000000
_cell_volume 6710.367833
_symmetry_space_group_name_H-M "C C C M"
_symmetry_group_IT_number 66
_symmetry_cell_setting 'orthorhombic'
loop_
_space_group_symop_operation_xyz
x,y,z
-x,-y,z
x,-y,1/2-z
-x,y,1/2-z
-x,-y,-z
x,y,-z
-x,y,1/2+z
x,-y,1/2+z
1/2+x,1/2+y,z
1/2-x,1/2-y,z
1/2+x,1/2-y,1/2-z
1/2-x,1/2+y,1/2-z
1/2-x,1/2-y,-z
1/2+x,1/2+y,-z
1/2-x,1/2+y,1/2+z
1/2+x,1/2-y,1/2+z
loop_
_atom_site_type_symbol
_atom_site_label
_atom_site_fract_x
_atom_site_fract_y
_atom_site_fract_z
Si Si1 0.681056 0.083196 0.676423
Si Si2 0.135236 0.250559 0.823509
Si Si3 0.788420 0.318418 0.176875
Si Si4 0.291298 0.450966 0.823825
Si Si5 0.814797 0.155643 0.677795
Si Si6 0.000000 0.500000 0.750000
Si Si7 0.414461 0.927998 0.168057
Si Si8 0.447002 0.182070 0.322319
O O1 0.681022 0.092754 0.500000
O O2 0.683108 0.133338 0.767834
O O3 0.732916 0.057029 0.713059
O O4 0.630479 0.057376 0.724256
O O5 0.185341 0.274431 0.760655
O O6 0.140531 0.192888 0.795529
O O7 0.091738 0.279412 0.742637
O O8 0.131801 0.258382 0.000000
O O9 0.732757 0.326002 0.232158
O O10 0.791431 0.312942 0.000000
O O11 0.309478 0.500000 0.750000
O O12 0.319503 0.401153 0.783305
O O13 0.294142 0.456319 0.000000
O O14 0.803428 0.157786 0.500000
O O15 0.038450 0.536449 0.829068
O O16 0.431562 0.873654 0.212071
O O17 0.395067 0.926425 0.000000
O O18 0.500000 0.190894 0.250000
O O19 0.448956 0.186111 0.500000
#
# Coordination Sequence:
#
# PCOD9497827 Si02
#       8
#    16  16  16  16  16   4  16  16
#     4  10  21  36  54  73  99 135 175 218 268 324
#     4  11  21  35  56  78 104 140 176 214 266 321
#     4  11  20  31  50  78 108 137 172 216 264 318
#     4   9  19  35  52  75 104 139 175 211 254 304
#     4   9  20  36  52  75 108 142 177 214 257 316
#     4  12  26  44  56  74  98 132 180 230 292 336
#     4  11  24  40  57  75  97 128 173 230 281 324
#     4  11  23  40  59  80 105 134 174 222 275 329
#
# _framework density 17.286683
#
# number of rings (size 3 to 8) (size 9 to 14) (size 15 to 20)
#    0.000    1.655    2.069    3.931    0.966    7.172 
#    0.000    0.000    0.000    0.000    0.000    0.000 
#    0.000    0.552    0.000    6.345    0.000    1.931 
#
# Total GULP energy -323672.007359 kJ/mol
# GULP energy per Si atom -5580.551851 kJ/mol
# Density = 1.724734 g / cm^3
# Si number density = 17.286683 Si / 1000 Ang^3
#
#
#
# Elastic Constant Matrix: (Units=GPa)
#
#
# Indices 1 2 3 4 5 6 
#
# 1 49.2170 45.7009 24.4712 0.0000 0.0000 0.0000
# 2 45.7009 138.1031 40.6649 0.0000 0.0000 0.0000
# 3 24.4712 40.6649 48.5503 0.0000 0.0000 0.0000
# 4 0.0000 0.0000 0.0000 9.2577 0.0000 0.0000
# 5 0.0000 0.0000 0.0000 0.0000 13.3581 0.0000
# 6 0.0000 0.0000 0.0000 0.0000 0.0000 25.8400
#
#
#
# Elastic Compliance Matrix: (Units=1/GPa)
#
#
# Indices 1 2 3 4 5 6 
#
# 1 0.032492 -0.007871 -0.009784 0.000000 0.000000 0.000000
# 2 -0.007871 0.011518 -0.005680 0.000000 0.000000 0.000000
# 3 -0.009784 -0.005680 0.030286 0.000000 0.000000 0.000000
# 4 0.000000 0.000000 0.000000 0.108018 0.000000 0.000000
# 5 0.000000 0.000000 0.000000 0.000000 0.074861 0.000000
# 6 0.000000 0.000000 0.000000 0.000000 0.000000 0.038700
#
#
# Mechanical properties :
#
#
# Convention : Reuss Voigt Hill
#
# Bulk Modulus (GPa) = 36.19875 50.83827 43.51851
# Shear Modulus (GPa) = 14.21445 18.02674 16.12059
#
# Velocity S-wave (km/s) = 2.87065 3.23276 3.05707
# Velocity P-wave (km/s) = 5.65449 6.58841 6.13923
#
# Compressibility (1/GPa) = 0.02762526
#
# Stress axis : x y z
#
# Youngs Moduli (GPa) = 30.77689 86.81916 33.01809
#
# Poissons Ratio (x) = 0.68337 0.32306
# Poissons Ratio (y) = 0.24225 0.18755
# Poissons Ratio (z) = 0.30113 0.49314
#
# Static dielectric constant tensor:
#      x y z
#    x 1.588530 0.000000 0.000000 
#    y 0.000000 1.644120 0.000000 
#    z 0.000000 0.000000 1.582350 
# 
# From -- ./inp_files/10751.got.cif
#   From: 2010.05.17/outbox.cif.g08.bks.cpg/sg66_6_cif.got.tgz:10751.got - 2010.06.03 17:51:23.
