data_PCOD9497985
_publ_section_title
;
Structure prediction by ZEFSAII (Michael W. Deem and Ramdas Pophale) SiO2 
 PCOD9497985
Probable space group: C C C M
;
_chemical_formula_sum "Si O2"
_cell_formula_units_Z 112
_cell_length_a 5.051781
_cell_length_b 32.046581
_cell_length_c 33.468061
_cell_angle_alpha 90.000000
_cell_angle_beta 90.000000
_cell_angle_gamma 90.000000
_cell_volume 5418.221673
_symmetry_space_group_name_H-M "C C C M"
_symmetry_group_IT_number 66
_symmetry_cell_setting 'orthorhombic'
loop_
_space_group_symop_operation_xyz
x,y,z
-x,-y,z
x,-y,1/2-z
-x,y,1/2-z
-x,-y,-z
x,y,-z
-x,y,1/2+z
x,-y,1/2+z
1/2+x,1/2+y,z
1/2-x,1/2-y,z
1/2+x,1/2-y,1/2-z
1/2-x,1/2+y,1/2-z
1/2-x,1/2-y,-z
1/2+x,1/2+y,-z
1/2-x,1/2+y,1/2+z
1/2+x,1/2-y,1/2+z
loop_
_atom_site_type_symbol
_atom_site_label
_atom_site_fract_x
_atom_site_fract_y
_atom_site_fract_z
Si Si1 0.861465 0.608625 0.544370
Si Si2 0.861515 0.836326 0.954858
Si Si3 0.869579 0.796506 0.794012
Si Si4 0.003905 0.779459 0.879635
Si Si5 0.013770 0.950762 0.163627
Si Si6 0.979662 0.549014 0.114850
Si Si7 0.753611 0.615155 0.777146
O O1 0.915421 0.591856 0.500000
O O2 0.561949 0.624630 0.545812
O O3 0.926963 0.576066 0.578208
O O4 0.061391 0.647771 0.549793
O O5 0.949580 0.809338 0.917036
O O6 0.887776 0.817539 0.000000
O O7 0.750000 0.750000 0.796121
O O8 0.687723 0.838540 0.795281
O O9 0.000000 0.795588 0.750000
O O10 0.037348 0.800116 0.835400
O O11 0.250000 0.750000 0.887750
O O12 0.750000 0.750000 0.877283
O O13 0.826645 0.944312 0.125205
O O14 0.864844 0.920448 0.194267
O O15 0.316918 0.941300 0.151709
O O16 0.000000 0.000000 0.175267
O O17 0.000000 0.500000 0.107095
O O18 0.500000 0.623101 0.750000
O O19 0.000000 0.601523 0.750000
#
# Coordination Sequence:
#
# PCOD9497985 Si02
#       7
#    16  16  16  16  16  16  16
#     4  10  21  37  60  89 123 162 206 254 319 378
#     4  10  22  40  60  90 125 162 207 264 320 379
#     4  10  22  40  63  89 129 165 204 268 315 374
#     4  11  24  40  61  92 119 163 216 253 322 388
#     4  10  22  41  61  91 126 163 208 265 318 374
#     4  10  21  37  61  89 122 163 207 252 319 376
#     4  11  24  41  63  94 121 163 217 251 318 389
#
# _framework density 20.670988999999999
#
# number of rings (size 3 to 8) (size 9 to 14) (size 15 to 20)
#    0.000    1.714    0.000    3.429    4.000    4.571 
#    0.000    0.714    0.000    5.143    0.000    0.000 
#    0.000    0.000    0.000    0.000    0.000    0.000 
#
# Total GULP energy -312076.494906 kJ/mol
# GULP energy per Si atom -5572.794552 kJ/mol
# Density = 2.062394 g / cm^3
# Si number density = 20.670989 Si / 1000 Ang^3
#
#
#
# Elastic Constant Matrix: (Units=GPa)
#
#
# Indices 1 2 3 4 5 6 
#
# 1 69.0581 15.1522 0.3090 0.0000 0.0000 0.0000
# 2 15.1522 82.0805 64.4779 0.0000 0.0000 0.0000
# 3 0.3090 64.4779 122.5839 0.0000 0.0000 0.0000
# 4 0.0000 0.0000 0.0000 46.5665 0.0000 0.0000
# 5 0.0000 0.0000 0.0000 0.0000 22.6633 0.0000
# 6 0.0000 0.0000 0.0000 0.0000 0.0000 15.9732
#
#
#
# Elastic Compliance Matrix: (Units=1/GPa)
#
#
# Indices 1 2 3 4 5 6 
#
# 1 0.015530 -0.004833 0.002503 0.000000 0.000000 0.000000
# 2 -0.004833 0.022266 -0.011699 0.000000 0.000000 0.000000
# 3 0.002503 -0.011699 0.014305 0.000000 0.000000 0.000000
# 4 0.000000 0.000000 0.000000 0.021475 0.000000 0.000000
# 5 0.000000 0.000000 0.000000 0.000000 0.044124 0.000000
# 6 0.000000 0.000000 0.000000 0.000000 0.000000 0.062605
#
#
# Mechanical properties :
#
#
# Convention : Reuss Voigt Hill
#
# Bulk Modulus (GPa) = 41.59420 48.17784 44.88602
# Shear Modulus (GPa) = 23.10779 29.95950 26.53365
#
# Velocity S-wave (km/s) = 3.34711 3.81116 3.58665
# Velocity P-wave (km/s) = 5.92479 6.53637 6.23808
#
# Compressibility (1/GPa) = 0.02404182
#
# Stress axis : x y z
#
# Youngs Moduli (GPa) = 64.39237 44.91208 69.90499
#
# Poissons Ratio (x) = 0.21706 -0.17497
# Poissons Ratio (y) = 0.31121 0.81784
# Poissons Ratio (z) = -0.16117 0.52544
#
# Static dielectric constant tensor:
#      x y z
#    x 1.726980 0.000000 0.000000 
#    y 0.000000 1.780670 0.000000 
#    z 0.000000 0.000000 1.767960 
# 
# From -- ./inp_files/67524.got.cif
#   From: 2010.05.17/outbox.cif.g08.bks.cpg/sg66_34_cif.got.tgz:67524.got - 2010.06.03 17:51:23.
