data_PCOD9497597
_publ_section_title
;
Structure prediction by ZEFSAII (Michael W. Deem and Ramdas Pophale) SiO2 
 PCOD9497597
Probable space group: C C C M
;
_chemical_formula_sum "Si O2"
_cell_formula_units_Z 84
_cell_length_a 18.363827
_cell_length_b 25.263855
_cell_length_c 10.343804
_cell_angle_alpha 90.000000
_cell_angle_beta 90.000000
_cell_angle_gamma 90.000000
_cell_volume 4798.915419
_symmetry_space_group_name_H-M "C C C M"
_symmetry_group_IT_number 66
_symmetry_cell_setting 'orthorhombic'
loop_
_space_group_symop_operation_xyz
x,y,z
-x,-y,z
x,-y,1/2-z
-x,y,1/2-z
-x,-y,-z
x,y,-z
-x,y,1/2+z
x,-y,1/2+z
1/2+x,1/2+y,z
1/2-x,1/2-y,z
1/2+x,1/2-y,1/2-z
1/2-x,1/2+y,1/2-z
1/2-x,1/2-y,-z
1/2+x,1/2+y,-z
1/2-x,1/2+y,1/2+z
1/2+x,1/2-y,1/2+z
loop_
_atom_site_type_symbol
_atom_site_label
_atom_site_fract_x
_atom_site_fract_y
_atom_site_fract_z
Si Si1 0.439195 0.897178 0.650354
Si Si2 0.265014 0.312425 0.500000
Si Si3 0.500000 0.000000 0.750000
Si Si4 0.911251 0.874110 0.500000
Si Si5 0.920242 0.872502 0.000000
Si Si6 0.722553 0.127118 0.741972
Si Si7 0.282729 0.691855 0.500000
Si Si8 0.363311 0.437338 0.247364
O O1 0.500000 0.874284 0.750000
O O2 0.446047 0.880933 0.500000
O O3 0.359803 0.885985 0.706449
O O4 0.453202 0.960263 0.662752
O O5 0.250000 0.250000 0.500000
O O6 0.351208 0.327302 0.500000
O O7 0.231162 0.340629 0.625619
O O8 0.895781 0.909725 0.374350
O O9 0.995234 0.857803 0.500000
O O10 0.899236 0.908423 0.123968
O O11 0.869040 0.820346 0.000000
O O12 0.753070 0.162973 0.626673
O O13 0.777138 0.076991 0.747083
O O14 0.250000 0.750000 0.500000
O O15 0.375221 0.500000 0.250000
#
# Coordination Sequence:
#
# PCOD9497597 Si02
#       8
#    16   8   4   8   8  16   8  16
#     4  10  21  37  55  85 119 157 201 235 290 352
#     4  10  22  41  61  83 113 151 196 249 307 349
#     4   8  22  32  58  84 118 172 188 228 302 344
#     4  10  21  38  54  83 114 146 190 228 285 343
#     4  10  21  36  56  81 112 146 186 232 275 337
#     4  10  21  37  58  84 114 149 195 244 284 354
#     4  10  20  39  61  81 107 145 194 241 301 337
#     4  10  21  34  54  85 114 153 185 222 276 336
#
# _framework density 17.503955999999999
#
# number of rings (size 3 to 8) (size 9 to 14) (size 15 to 20)
#    0.571    1.524    0.952    2.000    2.667    2.286 
#    0.000    1.905    0.000    0.000    0.000    0.000 
#    0.000    0.000    0.000    0.000    0.000    0.000 
#
# Total GULP energy -234062.883460 kJ/mol
# GULP energy per Si atom -5572.925797 kJ/mol
# Density = 1.746412 g / cm^3
# Si number density = 17.503956 Si / 1000 Ang^3
#
#
#
# Elastic Constant Matrix: (Units=GPa)
#
#
# Indices 1 2 3 4 5 6 
#
# 1 184.6949 51.2950 61.3484 0.0000 0.0000 0.0000
# 2 51.2950 97.6716 31.6363 0.0000 0.0000 0.0000
# 3 61.3484 31.6363 158.7699 0.0000 0.0000 0.0000
# 4 0.0000 0.0000 0.0000 13.8649 0.0000 0.0000
# 5 0.0000 0.0000 0.0000 0.0000 -18.7440 0.0000
# 6 0.0000 0.0000 0.0000 0.0000 0.0000 9.1653
#
#
#
# Elastic Compliance Matrix: (Units=1/GPa)
#
#
# Indices 1 2 3 4 5 6 
#
# 1 0.006931 -0.002964 -0.002088 0.000000 0.000000 0.000000
# 2 -0.002964 0.012212 -0.001288 0.000000 0.000000 0.000000
# 3 -0.002088 -0.001288 0.007362 0.000000 0.000000 0.000000
# 4 0.000000 0.000000 0.000000 0.072124 0.000000 0.000000
# 5 0.000000 0.000000 0.000000 0.000000 -0.053351 0.000000
# 6 0.000000 0.000000 0.000000 0.000000 0.000000 0.109107
#
#
# Mechanical properties :
#
#
# Convention : Reuss Voigt Hill
#
# Bulk Modulus (GPa) = 72.32864 81.07731 76.70297
# Shear Modulus (GPa) = 29.12515 20.64770 24.88642
#
# Velocity S-wave (km/s) = 4.08354 3.43826 3.77471
# Velocity P-wave (km/s) = 7.97777 7.88557 7.93180
#
# Compressibility (1/GPa) = 0.01382578
#
# Stress axis : x y z
#
# Youngs Moduli (GPa) = 144.28245 81.88566 135.83787
#
# Poissons Ratio (x) = 0.24269 0.28356
# Poissons Ratio (y) = 0.42762 0.17498
# Poissons Ratio (z) = 0.30119 0.10548
#
# Static dielectric constant tensor:
#      x y z
#    x 1.606410 0.000000 0.000000 
#    y 0.000000 1.574150 0.000000 
#    z 0.000000 0.000000 1.589110 
# 
# From -- ./inp_files/16519.got.cif
#   From: 2010.05.17/outbox.cif.g08.bks.cpg/sg66_9_cif.got.tgz:16519.got - 2010.06.03 17:51:23.
