data_PCOD9497014
_publ_section_title
;
Structure prediction by ZEFSAII (Michael W. Deem and Ramdas Pophale) SiO2 
 PCOD9497014
Probable space group: C C C M
;
_chemical_formula_sum "Si O2"
_cell_formula_units_Z 72
_cell_length_a 18.245606
_cell_length_b 21.730367
_cell_length_c 9.754166
_cell_angle_alpha 90.000000
_cell_angle_beta 90.000000
_cell_angle_gamma 90.000000
_cell_volume 3867.367968
_symmetry_space_group_name_H-M "C C C M"
_symmetry_group_IT_number 66
_symmetry_cell_setting 'orthorhombic'
loop_
_space_group_symop_operation_xyz
x,y,z
-x,-y,z
x,-y,1/2-z
-x,y,1/2-z
-x,-y,-z
x,y,-z
-x,y,1/2+z
x,-y,1/2+z
1/2+x,1/2+y,z
1/2-x,1/2-y,z
1/2+x,1/2-y,1/2-z
1/2-x,1/2+y,1/2-z
1/2-x,1/2-y,-z
1/2+x,1/2+y,-z
1/2-x,1/2+y,1/2+z
1/2+x,1/2-y,1/2+z
loop_
_atom_site_type_symbol
_atom_site_label
_atom_site_fract_x
_atom_site_fract_y
_atom_site_fract_z
Si Si1 0.361158 0.187994 0.661552
Si Si2 0.781190 0.881271 0.662086
Si Si3 0.933712 0.415434 0.655439
Si Si4 0.073729 0.175155 0.337754
Si Si5 0.690910 0.000000 0.750000
O O1 0.370029 0.169527 0.500000
O O2 0.276794 0.172523 0.698859
O O3 0.406371 0.145207 0.764729
O O4 0.388686 0.257420 0.672326
O O5 0.790511 0.875968 0.500000
O O6 0.862785 0.870729 0.717361
O O7 0.742142 0.946046 0.691935
O O8 0.957279 0.403373 0.500000
O O9 0.866294 0.463457 0.653779
O O10 0.000000 0.437340 0.750000
O O11 0.057881 0.164577 0.500000
O O12 0.000000 0.172584 0.250000
#
# Coordination Sequence:
#
# PCOD9497014 Si02
#       5
#    16  16  16  16   8
#     4   9  18  34  57  82 108 139 174 213 259 314
#     4   9  18  35  57  78 102 138 181 219 259 312
#     4  11  22  34  52  80 112 144 175 211 259 314
#     4  10  20  35  56  81 108 138 174 217 265 315
#     4  10  21  36  55  74 102 138 182 228 265 302
#
# _framework density 18.617312999999999
#
# number of rings (size 3 to 8) (size 9 to 14) (size 15 to 20)
#    0.000    2.222    0.000    3.000    0.000    8.889 
#    0.000    6.111    0.000    9.333    0.000    0.000 
#    0.000    0.000    0.000    0.000    0.000    0.000 
#
# Total GULP energy -200563.619413 kJ/mol
# GULP energy per Si atom -5571.211650 kJ/mol
# Density = 1.857494 g / cm^3
# Si number density = 18.617313 Si / 1000 Ang^3
#
#
#
# Elastic Constant Matrix: (Units=GPa)
#
#
# Indices 1 2 3 4 5 6 
#
# 1 158.3967 42.8740 47.2880 0.0000 0.0000 0.0000
# 2 42.8740 52.5851 16.9557 0.0000 0.0000 0.0000
# 3 47.2880 16.9557 82.5506 0.0000 0.0000 0.0000
# 4 0.0000 0.0000 0.0000 -57.9784 0.0000 0.0000
# 5 0.0000 0.0000 0.0000 0.0000 26.3387 0.0000
# 6 0.0000 0.0000 0.0000 0.0000 0.0000 18.4007
#
#
#
# Elastic Compliance Matrix: (Units=1/GPa)
#
#
# Indices 1 2 3 4 5 6 
#
# 1 0.009182 -0.006201 -0.003986 0.000000 0.000000 0.000000
# 2 -0.006201 0.024553 -0.001491 0.000000 0.000000 0.000000
# 3 -0.003986 -0.001491 0.014703 0.000000 0.000000 0.000000
# 4 0.000000 0.000000 0.000000 -0.017248 0.000000 0.000000
# 5 0.000000 0.000000 0.000000 0.000000 0.037967 0.000000
# 6 0.000000 0.000000 0.000000 0.000000 0.000000 0.054346
#
#
# Mechanical properties :
#
#
# Convention : Reuss Voigt Hill
#
# Bulk Modulus (GPa) = 39.86842 56.41863 48.14352
# Shear Modulus (GPa) = 32.21238 9.77984 20.99611
#
# Velocity S-wave (km/s) = 4.16413 2.29445 3.36188
# Velocity P-wave (km/s) = 6.67691 6.11470 6.40198
#
# Compressibility (1/GPa) = 0.02508251
#
# Stress axis : x y z
#
# Youngs Moduli (GPa) = 108.91314 40.72780 68.01165
#
# Poissons Ratio (x) = 0.25254 0.27109
# Poissons Ratio (y) = 0.67535 0.10141
# Poissons Ratio (z) = 0.43412 0.06073
#
# Static dielectric constant tensor:
#      x y z
#    x 1.701380 0.000000 0.000000 
#    y 0.000000 1.672260 0.000000 
#    z 0.000000 0.000000 1.623140 
# 
# From -- ./inp_files/6470.got.cif
#   From: 2010.05.17/outbox.cif.g08.bks.cpg/sg66_4_cif.got.tgz:6470.got - 2010.06.03 17:51:23.
