data_PCOD9497349
_publ_section_title
;
Structure prediction by ZEFSAII (Michael W. Deem and Ramdas Pophale) SiO2 
 PCOD9497349
Probable space group: C C C M
;
_chemical_formula_sum "Si O2"
_cell_formula_units_Z 116
_cell_length_a 17.418980
_cell_length_b 25.254558
_cell_length_c 13.704874
_cell_angle_alpha 90.000000
_cell_angle_beta 90.000000
_cell_angle_gamma 90.000000
_cell_volume 6028.892492
_symmetry_space_group_name_H-M "C C C M"
_symmetry_group_IT_number 66
_symmetry_cell_setting 'orthorhombic'
loop_
_space_group_symop_operation_xyz
x,y,z
-x,-y,z
x,-y,1/2-z
-x,y,1/2-z
-x,-y,-z
x,y,-z
-x,y,1/2+z
x,-y,1/2+z
1/2+x,1/2+y,z
1/2-x,1/2-y,z
1/2+x,1/2-y,1/2-z
1/2-x,1/2+y,1/2-z
1/2-x,1/2-y,-z
1/2+x,1/2+y,-z
1/2-x,1/2+y,1/2+z
1/2+x,1/2-y,1/2+z
loop_
_atom_site_type_symbol
_atom_site_label
_atom_site_fract_x
_atom_site_fract_y
_atom_site_fract_z
Si Si1 0.677086 0.225140 0.227357
Si Si2 0.944525 0.205165 0.885799
Si Si3 0.512114 0.086739 0.387749
Si Si4 0.440382 0.199317 0.112129
Si Si5 0.000000 0.000000 0.750000
Si Si6 0.080083 0.911080 0.884336
Si Si7 0.743849 0.871188 0.614435
Si Si8 0.130546 0.442357 0.736384
O O1 0.750000 0.250000 0.281785
O O2 0.623274 0.269118 0.177251
O O3 0.623992 0.195704 0.305741
O O4 0.716936 0.187414 0.146970
O O5 0.964318 0.144328 0.862759
O O6 0.015387 0.245415 0.875676
O O7 0.920532 0.205658 0.000000
O O8 0.512521 0.073058 0.500000
O O9 0.500596 0.150237 0.376057
O O10 0.444383 0.056618 0.333422
O O11 0.593739 0.076145 0.337965
O O12 0.412162 0.195634 0.000000
O O13 0.948808 0.959933 0.682165
O O14 0.168395 0.890786 0.870849
O O15 0.070748 0.924039 0.000000
O O16 0.726357 0.878076 0.500000
O O17 0.691498 0.906354 0.684113
O O18 0.163889 0.500000 0.750000
#
# Coordination Sequence:
#
# PCOD9497349 Si02
#       8
#    16  16  16  16   4  16  16  16
#     4  12  22  35  63  94 126 158 197 244 312 376
#     4  10  21  37  60  92 125 157 202 250 303 371
#     4  10  20  37  57  84 120 164 209 251 295 350
#     4  10  22  38  59  87 126 167 201 242 297 371
#     4  12  26  44  76  90 124 162 210 264 310 366
#     4  10  24  44  67  95 123 157 205 261 316 367
#     4  11  23  41  62  91 127 159 199 255 316 369
#     4  11  23  36  57  84 117 160 211 254 301 355
#
# _framework density 19.240682
#
# number of rings (size 3 to 8) (size 9 to 14) (size 15 to 20)
#    0.000    1.379    2.759    3.103    4.828    3.586 
#    0.000    0.000    0.000    1.655    0.000    0.000 
#    0.000    0.000    0.000    0.000    0.000    0.000 
#
# Total GULP energy -323588.566994 kJ/mol
# GULP energy per Si atom -5579.113224 kJ/mol
# Density = 1.919689 g / cm^3
# Si number density = 19.240682 Si / 1000 Ang^3
#
#
#
# Elastic Constant Matrix: (Units=GPa)
#
#
# Indices 1 2 3 4 5 6 
#
# 1 35.3043 4.1613 22.0404 0.0000 0.0000 0.0000
# 2 4.1613 97.4879 19.0854 0.0000 0.0000 0.0000
# 3 22.0404 19.0854 96.9588 0.0000 0.0000 0.0000
# 4 0.0000 0.0000 0.0000 33.8659 0.0000 0.0000
# 5 0.0000 0.0000 0.0000 0.0000 22.1300 0.0000
# 6 0.0000 0.0000 0.0000 0.0000 0.0000 26.7026
#
#
#
# Elastic Compliance Matrix: (Units=1/GPa)
#
#
# Indices 1 2 3 4 5 6 
#
# 1 0.033010 0.000062 -0.007516 0.000000 0.000000 0.000000
# 2 0.000062 0.010669 -0.002114 0.000000 0.000000 0.000000
# 3 -0.007516 -0.002114 0.012438 0.000000 0.000000 0.000000
# 4 0.000000 0.000000 0.000000 0.029528 0.000000 0.000000
# 5 0.000000 0.000000 0.000000 0.000000 0.045188 0.000000
# 6 0.000000 0.000000 0.000000 0.000000 0.000000 0.037450
#
#
# Mechanical properties :
#
#
# Convention : Reuss Voigt Hill
#
# Bulk Modulus (GPa) = 27.04053 35.59169 31.31611
# Shear Modulus (GPa) = 25.03184 28.83729 26.93456
#
# Velocity S-wave (km/s) = 3.61083 3.87559 3.74555
# Velocity P-wave (km/s) = 5.60968 6.21009 5.91750
#
# Compressibility (1/GPa) = 0.03698152
#
# Stress axis : x y z
#
# Youngs Moduli (GPa) = 30.29383 93.73011 80.39652
#
# Poissons Ratio (x) = -0.00585 0.60426
# Poissons Ratio (y) = -0.00189 0.16998
# Poissons Ratio (z) = 0.22769 0.19817
#
# Static dielectric constant tensor:
#      x y z
#    x 1.661710 0.000000 0.000000 
#    y 0.000000 1.718100 0.000000 
#    z 0.000000 0.000000 1.670320 
# 
# From -- ./inp_files/30386.got.cif
#   From: 2010.05.17/outbox.cif.g08.bks.cpg/sg66_16_cif.got.tgz:30386.got - 2010.06.03 17:51:23.
