data_PCOD9497160
_publ_section_title
;
Structure prediction by ZEFSAII (Michael W. Deem and Ramdas Pophale) SiO2 
 PCOD9497160
Probable space group: C C C M
;
_chemical_formula_sum "Si O2"
_cell_formula_units_Z 104
_cell_length_a 8.909334
_cell_length_b 25.012390
_cell_length_c 24.542986
_cell_angle_alpha 90.000000
_cell_angle_beta 90.000000
_cell_angle_gamma 90.000000
_cell_volume 5469.250709
_symmetry_space_group_name_H-M "C C C M"
_symmetry_group_IT_number 66
_symmetry_cell_setting 'orthorhombic'
loop_
_space_group_symop_operation_xyz
x,y,z
-x,-y,z
x,-y,1/2-z
-x,y,1/2-z
-x,-y,-z
x,y,-z
-x,y,1/2+z
x,-y,1/2+z
1/2+x,1/2+y,z
1/2-x,1/2-y,z
1/2+x,1/2-y,1/2-z
1/2-x,1/2+y,1/2-z
1/2-x,1/2-y,-z
1/2+x,1/2+y,-z
1/2-x,1/2+y,1/2+z
1/2+x,1/2-y,1/2+z
loop_
_atom_site_type_symbol
_atom_site_label
_atom_site_fract_x
_atom_site_fract_y
_atom_site_fract_z
Si Si1 0.370391 0.909271 0.864040
Si Si2 0.844054 0.396659 0.560350
Si Si3 0.663821 0.306139 0.851640
Si Si4 0.217738 0.186804 0.769576
Si Si5 0.345921 0.304836 0.108968
Si Si6 0.175607 0.990566 0.936564
Si Si7 0.500000 0.889587 0.250000
O O1 0.521126 0.898234 0.897462
O O2 0.272485 0.855142 0.865307
O O3 0.430888 0.920748 0.802294
O O4 0.267557 0.953434 0.894380
O O5 0.909403 0.392402 0.500000
O O6 0.730282 0.348125 0.570595
O O7 0.754151 0.451847 0.564420
O O8 0.750000 0.250000 0.851371
O O9 0.627949 0.317642 0.787284
O O10 0.525347 0.299137 0.893231
O O11 0.250000 0.250000 0.773442
O O12 0.163861 0.172356 0.829586
O O13 0.366024 0.150923 0.764771
O O14 0.250000 0.250000 0.104555
O O15 0.183442 0.970582 0.000000
O O16 0.000000 0.000000 0.922939
#
# Coordination Sequence:
#
# PCOD9497160 Si02
#       7
#    16  16  16  16  16  16   8
#     4  11  21  39  62  89 124 154 203 249 305 364
#     4  11  23  40  63  88 116 155 204 251 298 360
#     4  10  21  34  56  88 122 160 198 242 299 359
#     4   9  19  29  55  81 119 157 200 239 285 352
#     4  11  21  35  58  86 122 159 197 247 301 356
#     4  10  22  42  68  92 115 154 208 261 308 362
#     4  10  20  36  55  92 122 160 198 247 306 362
#
# _framework density 19.015402000000002
#
# number of rings (size 3 to 8) (size 9 to 14) (size 15 to 20)
#    0.000    1.692    1.538    3.231   10.769    1.538 
#    0.000    2.308    0.000    4.154    0.000    0.000 
#    0.000    0.000    0.000    0.000    0.000    0.000 
#
# Total GULP energy -289652.164614 kJ/mol
# GULP energy per Si atom -5570.233935 kJ/mol
# Density = 1.897212 g / cm^3
# Si number density = 19.015402 Si / 1000 Ang^3
#
#
#
# Elastic Constant Matrix: (Units=GPa)
#
#
# Indices 1 2 3 4 5 6 
#
# 1 91.3601 30.6972 43.5097 0.0000 0.0000 0.0000
# 2 30.6972 83.9538 45.5794 0.0000 0.0000 0.0000
# 3 43.5097 45.5794 92.4116 0.0000 0.0000 0.0000
# 4 0.0000 0.0000 0.0000 31.3541 0.0000 0.0000
# 5 0.0000 0.0000 0.0000 0.0000 25.6745 0.0000
# 6 0.0000 0.0000 0.0000 0.0000 0.0000 24.6051
#
#
#
# Elastic Compliance Matrix: (Units=1/GPa)
#
#
# Indices 1 2 3 4 5 6 
#
# 1 0.014391 -0.002163 -0.005709 0.000000 0.000000 0.000000
# 2 -0.002163 0.016592 -0.007165 0.000000 0.000000 0.000000
# 3 -0.005709 -0.007165 0.017043 0.000000 0.000000 0.000000
# 4 0.000000 0.000000 0.000000 0.031894 0.000000 0.000000
# 5 0.000000 0.000000 0.000000 0.000000 0.038949 0.000000
# 6 0.000000 0.000000 0.000000 0.000000 0.000000 0.040642
#
#
# Mechanical properties :
#
#
# Convention : Reuss Voigt Hill
#
# Bulk Modulus (GPa) = 55.70254 56.36649 56.03451
# Shear Modulus (GPa) = 25.56624 26.18933 25.87778
#
# Velocity S-wave (km/s) = 3.67072 3.71518 3.69302
# Velocity P-wave (km/s) = 6.87914 6.93616 6.90771
#
# Compressibility (1/GPa) = 0.01795250
#
# Stress axis : x y z
#
# Youngs Moduli (GPa) = 69.48661 60.26913 58.67387
#
# Poissons Ratio (x) = 0.13033 0.33498
# Poissons Ratio (y) = 0.15027 0.42043
# Poissons Ratio (z) = 0.39671 0.43186
#
# Static dielectric constant tensor:
#      x y z
#    x 1.733110 0.000000 0.000000 
#    y 0.000000 1.621570 0.000000 
#    z 0.000000 0.000000 1.707950 
# 
# From -- ./inp_files/55868.got.cif
#   From: 2010.05.17/outbox.cif.g08.bks.cpg/sg66_28_cif.got.tgz:55868.got - 2010.06.03 17:51:23.
