data_PCOD9497969
_publ_section_title
;
Structure prediction by ZEFSAII (Michael W. Deem and Ramdas Pophale) SiO2 
 PCOD9497969
Probable space group: C C C M
;
_chemical_formula_sum "Si O2"
_cell_formula_units_Z 96
_cell_length_a 20.890688
_cell_length_b 28.014086
_cell_length_c 8.761859
_cell_angle_alpha 90.000000
_cell_angle_beta 90.000000
_cell_angle_gamma 90.000000
_cell_volume 5127.733674
_symmetry_space_group_name_H-M "C C C M"
_symmetry_group_IT_number 66
_symmetry_cell_setting 'orthorhombic'
loop_
_space_group_symop_operation_xyz
x,y,z
-x,-y,z
x,-y,1/2-z
-x,y,1/2-z
-x,-y,-z
x,y,-z
-x,y,1/2+z
x,-y,1/2+z
1/2+x,1/2+y,z
1/2-x,1/2-y,z
1/2+x,1/2-y,1/2-z
1/2-x,1/2+y,1/2-z
1/2-x,1/2-y,-z
1/2+x,1/2+y,-z
1/2-x,1/2+y,1/2+z
1/2+x,1/2-y,1/2+z
loop_
_atom_site_type_symbol
_atom_site_label
_atom_site_fract_x
_atom_site_fract_y
_atom_site_fract_z
Si Si1 0.694406 0.551774 0.317150
Si Si2 0.930799 0.899976 0.817097
Si Si3 0.431177 0.711722 0.682227
Si Si4 0.431297 0.052670 0.182341
Si Si5 0.817515 0.385161 0.183894
Si Si6 0.816821 0.273845 0.815975
O O1 0.710426 0.500000 0.250000
O O2 0.690273 0.548991 0.500000
O O3 0.627037 0.569569 0.250623
O O4 0.750682 0.589018 0.277142
O O5 0.919995 0.844029 0.776410
O O6 0.000000 0.913777 0.750000
O O7 0.932089 0.904172 0.000000
O O8 0.500000 0.725508 0.750000
O O9 0.433489 0.714801 0.500000
O O10 0.375563 0.744924 0.746137
O O11 0.500000 0.067920 0.250000
O O12 0.375457 0.087652 0.235535
O O13 0.418247 0.000000 0.250000
O O14 0.435069 0.049874 0.000000
O O15 0.817005 0.329536 0.225944
O O16 0.825459 0.388737 0.000000
O O17 0.750000 0.250000 0.768267
O O18 0.820933 0.270759 0.000000
#
# Coordination Sequence:
#
# PCOD9497969 Si02
#       6
#    16  16  16  16  16  16
#     4  11  23  39  60  85 115 150 189 234 284 338
#     4  10  21  38  60  86 116 150 190 234 282 336
#     4  10  21  37  59  86 116 151 190 234 282 335
#     4  11  22  38  61  86 115 150 189 233 283 338
#     4  10  22  39  59  85 116 150 190 235 283 336
#     4  10  21  38  60  85 115 151 190 234 284 337
#
# _framework density 18.721720000000001
#
# number of rings (size 3 to 8) (size 9 to 14) (size 15 to 20)
#    0.000    1.667    0.000    5.000    0.000    8.000 
#    0.000    1.667    0.000    0.000    0.000    0.000 
#    0.000    0.000    0.000    0.000    0.000    0.000 
#
# Total GULP energy -268360.419007 kJ/mol
# GULP energy per Si atom -5590.842063 kJ/mol
# Density = 1.867911 g / cm^3
# Si number density = 18.721720 Si / 1000 Ang^3
#
#
#
# Elastic Constant Matrix: (Units=GPa)
#
#
# Indices 1 2 3 4 5 6 
#
# 1 72.3207 16.7487 25.0874 0.0000 0.0000 0.0000
# 2 16.7487 32.7129 20.4158 0.0000 0.0000 0.0000
# 3 25.0874 20.4158 49.2771 0.0000 0.0000 0.0000
# 4 0.0000 0.0000 0.0000 26.3625 0.0000 0.0000
# 5 0.0000 0.0000 0.0000 0.0000 24.5748 0.0000
# 6 0.0000 0.0000 0.0000 0.0000 0.0000 42.8661
#
#
#
# Elastic Compliance Matrix: (Units=1/GPa)
#
#
# Indices 1 2 3 4 5 6 
#
# 1 0.017276 -0.004526 -0.006920 0.000000 0.000000 0.000000
# 2 -0.004526 0.042415 -0.015268 0.000000 0.000000 0.000000
# 3 -0.006920 -0.015268 0.030142 0.000000 0.000000 0.000000
# 4 0.000000 0.000000 0.000000 0.037933 0.000000 0.000000
# 5 0.000000 0.000000 0.000000 0.000000 0.040692 0.000000
# 6 0.000000 0.000000 0.000000 0.000000 0.000000 0.023328
#
#
# Mechanical properties :
#
#
# Convention : Reuss Voigt Hill
#
# Bulk Modulus (GPa) = 27.46970 30.97939 29.22455
# Shear Modulus (GPa) = 19.42869 24.89795 22.16332
#
# Velocity S-wave (km/s) = 3.22493 3.65073 3.44441
# Velocity P-wave (km/s) = 5.34522 5.86120 5.60915
#
# Compressibility (1/GPa) = 0.03640374
#
# Stress axis : x y z
#
# Youngs Moduli (GPa) = 57.88349 23.57637 33.17603
#
# Poissons Ratio (x) = 0.10672 0.22958
# Poissons Ratio (y) = 0.26201 0.50655
# Poissons Ratio (z) = 0.40056 0.35997
#
# Static dielectric constant tensor:
#      x y z
#    x 1.630000 0.000000 0.000000 
#    y 0.000000 1.632180 0.000000 
#    z 0.000000 0.000000 1.628430 
# 
# From -- ./inp_files/8007.got.cif
#   From: 2010.05.17/outbox.cif.g08.bks.cpg/sg66_5_cif.got.tgz:8007.got - 2010.06.03 17:51:23.
