data_PCOD9497456
_publ_section_title
;
Structure prediction by ZEFSAII (Michael W. Deem and Ramdas Pophale) SiO2 
 PCOD9497456
Probable space group: C C C M
;
_chemical_formula_sum "Si O2"
_cell_formula_units_Z 48
_cell_length_a 12.457724
_cell_length_b 11.823094
_cell_length_c 12.140794
_cell_angle_alpha 90.000000
_cell_angle_beta 90.000000
_cell_angle_gamma 90.000000
_cell_volume 1788.203488
_symmetry_space_group_name_H-M "C C C M"
_symmetry_group_IT_number 66
_symmetry_cell_setting 'orthorhombic'
loop_
_space_group_symop_operation_xyz
x,y,z
-x,-y,z
x,-y,1/2-z
-x,y,1/2-z
-x,-y,-z
x,y,-z
-x,y,1/2+z
x,-y,1/2+z
1/2+x,1/2+y,z
1/2-x,1/2-y,z
1/2+x,1/2-y,1/2-z
1/2-x,1/2+y,1/2-z
1/2-x,1/2-y,-z
1/2+x,1/2+y,-z
1/2-x,1/2+y,1/2+z
1/2+x,1/2-y,1/2+z
loop_
_atom_site_type_symbol
_atom_site_label
_atom_site_fract_x
_atom_site_fract_y
_atom_site_fract_z
Si Si1 0.549064 0.255523 0.384370
Si Si2 0.147670 0.878030 0.807379
Si Si3 0.874938 0.558936 0.626691
O O1 0.606207 0.258089 0.500000
O O2 0.630462 0.284538 0.288167
O O3 0.456640 0.351304 0.379579
O O4 0.478669 0.141166 0.374526
O O5 0.138415 0.000000 0.750000
O O6 0.260552 0.877393 0.868243
O O7 0.875128 0.500000 0.750000
O O8 0.873205 0.507362 0.500000
#
# Coordination Sequence:
#
# PCOD9497456 Si02
#       3
#    16  16  16
#     4  10  20  37  63  95 132 174 223 280 342 407
#     4  10  21  36  62  97 131 169 220 278 342 405
#     4  10  22  42  68  97 132 179 230 281 340 408
#
# _framework density 26.842582
#
# number of rings (size 3 to 8) (size 9 to 14) (size 15 to 20)
#    0.000    2.000    0.000    4.000    0.000   10.667 
#    0.000   11.667    0.000   36.000    0.000    9.333 
#    0.000    0.000    0.000    0.000    0.000    0.000 
#
# Total GULP energy -133973.462427 kJ/mol
# GULP energy per Si atom -5582.227601 kJ/mol
# Density = 2.678149 g / cm^3
# Si number density = 26.842582 Si / 1000 Ang^3
#
#
#
# Elastic Constant Matrix: (Units=GPa)
#
#
# Indices 1 2 3 4 5 6 
#
# 1 166.6039 21.0705 53.6897 0.0000 0.0000 0.0000
# 2 21.0705 88.5757 61.6406 0.0000 0.0000 0.0000
# 3 53.6897 61.6406 254.8479 0.0000 0.0000 0.0000
# 4 0.0000 0.0000 0.0000 22.9854 0.0000 0.0000
# 5 0.0000 0.0000 0.0000 0.0000 20.5811 0.0000
# 6 0.0000 0.0000 0.0000 0.0000 0.0000 32.0153
#
#
#
# Elastic Compliance Matrix: (Units=1/GPa)
#
#
# Indices 1 2 3 4 5 6 
#
# 1 0.006476 -0.000711 -0.001193 0.000000 0.000000 0.000000
# 2 -0.000711 0.013653 -0.003152 0.000000 0.000000 0.000000
# 3 -0.001193 -0.003152 0.004938 0.000000 0.000000 0.000000
# 4 0.000000 0.000000 0.000000 0.043506 0.000000 0.000000
# 5 0.000000 0.000000 0.000000 0.000000 0.048588 0.000000
# 6 0.000000 0.000000 0.000000 0.000000 0.000000 0.031235
#
#
# Mechanical properties :
#
#
# Convention : Reuss Voigt Hill
#
# Bulk Modulus (GPa) = 66.86585 86.98101 76.92343
# Shear Modulus (GPa) = 30.58244 40.02481 35.30363
#
# Velocity S-wave (km/s) = 3.37905 3.86566 3.63052
# Velocity P-wave (km/s) = 6.33943 7.23871 6.80394
#
# Compressibility (1/GPa) = 0.01495532
#
# Stress axis : x y z
#
# Youngs Moduli (GPa) = 154.40572 73.24563 202.52622
#
# Poissons Ratio (x) = 0.05206 0.24151
# Poissons Ratio (y) = 0.10974 0.63846
# Poissons Ratio (z) = 0.18413 0.23090
#
# Static dielectric constant tensor:
#      x y z
#    x 2.016680 0.000000 0.000000 
#    y 0.000000 2.265180 0.000000 
#    z 0.000000 0.000000 2.281780 
# 
# From -- ./inp_files/27453.got.cif
#   From: 2010.05.17/outbox.cif.g08.bks.cpg/sg66_14_cif.got.tgz:27453.got - 2010.06.03 17:51:23.
