data_PCOD9497706
_publ_section_title
;
Structure prediction by ZEFSAII (Michael W. Deem and Ramdas Pophale) SiO2 
 PCOD9497706
Probable space group: C C C M
;
_chemical_formula_sum "Si O2"
_cell_formula_units_Z 88
_cell_length_a 15.994323
_cell_length_b 10.351469
_cell_length_c 26.905027
_cell_angle_alpha 90.000000
_cell_angle_beta 90.000000
_cell_angle_gamma 90.000000
_cell_volume 4454.523765
_symmetry_space_group_name_H-M "C C C M"
_symmetry_group_IT_number 66
_symmetry_cell_setting 'orthorhombic'
loop_
_space_group_symop_operation_xyz
x,y,z
-x,-y,z
x,-y,1/2-z
-x,y,1/2-z
-x,-y,-z
x,y,-z
-x,y,1/2+z
x,-y,1/2+z
1/2+x,1/2+y,z
1/2-x,1/2-y,z
1/2+x,1/2-y,1/2-z
1/2-x,1/2+y,1/2-z
1/2-x,1/2-y,-z
1/2+x,1/2+y,-z
1/2-x,1/2+y,1/2+z
1/2+x,1/2-y,1/2+z
loop_
_atom_site_type_symbol
_atom_site_label
_atom_site_fract_x
_atom_site_fract_y
_atom_site_fract_z
Si Si1 0.951140 0.134558 0.558333
Si Si2 0.093939 0.651746 0.263849
Si Si3 0.338382 0.800374 0.630336
Si Si4 0.238028 0.569165 0.110442
Si Si5 0.250000 0.250000 0.297303
Si Si6 0.130717 0.211626 0.442050
O O1 0.925339 0.126081 0.500000
O O2 0.881416 0.198064 0.593397
O O3 0.032061 0.227696 0.562829
O O4 0.000000 0.000000 0.570351
O O5 0.103796 0.500000 0.250000
O O6 0.104288 0.669880 0.322643
O O7 0.166402 0.730816 0.235164
O O8 0.000000 0.691849 0.250000
O O9 0.250000 0.750000 0.650843
O O10 0.308570 0.934202 0.605965
O O11 0.252728 0.624282 0.166193
O O12 0.177035 0.671966 0.084638
O O13 0.326831 0.584571 0.082567
O O14 0.150378 0.206794 0.500000
#
# Coordination Sequence:
#
# PCOD9497706 Si02
#       6
#    16  16  16  16   8  16
#     4  10  23  42  63  90 131 170 207 267 328 386
#     4  11  24  41  66  94 130 171 213 267 328 390
#     4  12  25  40  63  93 122 169 219 262 319 405
#     4  10  21  35  63  89 123 164 203 265 314 378
#     4  10  20  42  61  92 127 166 208 270 330 384
#     4   9  19  37  61  90 123 163 209 256 317 379
#
# _framework density 19.755199000000001
#
# number of rings (size 3 to 8) (size 9 to 14) (size 15 to 20)
#    0.000    1.818    2.727    2.182    5.091    2.545 
#    0.000    1.818    0.000    0.000    0.000    0.000 
#    0.000    0.000    0.000    0.000    0.000    0.000 
#
# Total GULP energy -245273.094785 kJ/mol
# GULP energy per Si atom -5574.388518 kJ/mol
# Density = 1.971024 g / cm^3
# Si number density = 19.755199 Si / 1000 Ang^3
#
#
#
# Elastic Constant Matrix: (Units=GPa)
#
#
# Indices 1 2 3 4 5 6 
#
# 1 125.1381 28.8029 48.0240 0.0000 0.0000 0.0000
# 2 28.8029 95.5991 34.9246 0.0000 0.0000 0.0000
# 3 48.0240 34.9246 96.7314 0.0000 0.0000 0.0000
# 4 0.0000 0.0000 0.0000 24.3753 0.0000 0.0000
# 5 0.0000 0.0000 0.0000 0.0000 43.8820 0.0000
# 6 0.0000 0.0000 0.0000 0.0000 0.0000 28.5982
#
#
#
# Elastic Compliance Matrix: (Units=1/GPa)
#
#
# Indices 1 2 3 4 5 6 
#
# 1 0.010029 -0.001385 -0.004479 0.000000 0.000000 0.000000
# 2 -0.001385 0.012241 -0.003732 0.000000 0.000000 0.000000
# 3 -0.004479 -0.003732 0.013909 0.000000 0.000000 0.000000
# 4 0.000000 0.000000 0.000000 0.041025 0.000000 0.000000
# 5 0.000000 0.000000 0.000000 0.000000 0.022788 0.000000
# 6 0.000000 0.000000 0.000000 0.000000 0.000000 0.034967
#
#
# Mechanical properties :
#
#
# Convention : Reuss Voigt Hill
#
# Bulk Modulus (GPa) = 58.86931 60.10797 59.48864
# Shear Modulus (GPa) = 31.28642 33.08558 32.18600
#
# Velocity S-wave (km/s) = 3.98390 4.09685 4.04077
# Velocity P-wave (km/s) = 7.14325 7.27127 7.20754
#
# Compressibility (1/GPa) = 0.01698678
#
# Stress axis : x y z
#
# Youngs Moduli (GPa) = 99.71212 81.69226 71.89654
#
# Poissons Ratio (x) = 0.11317 0.32201
# Poissons Ratio (y) = 0.13814 0.26831
# Poissons Ratio (z) = 0.44659 0.30486
#
# Static dielectric constant tensor:
#      x y z
#    x 1.706690 0.000000 0.000000 
#    y 0.000000 1.786010 0.000000 
#    z 0.000000 0.000000 1.684980 
# 
# From -- ./inp_files/64549.got.cif
#   From: 2010.05.17/outbox.cif.g08.bks.cpg/sg66_33_cif.got.tgz:64549.got - 2010.06.03 17:51:23.
