data_PCOD9497345
_publ_section_title
;
Structure prediction by ZEFSAII (Michael W. Deem and Ramdas Pophale) SiO2 
 PCOD9497345
Probable space group: C C C M
;
_chemical_formula_sum "Si O2"
_cell_formula_units_Z 84
_cell_length_a 19.390496
_cell_length_b 19.833446
_cell_length_c 13.300488
_cell_angle_alpha 90.000000
_cell_angle_beta 90.000000
_cell_angle_gamma 90.000000
_cell_volume 5115.106401
_symmetry_space_group_name_H-M "C C C M"
_symmetry_group_IT_number 66
_symmetry_cell_setting 'orthorhombic'
loop_
_space_group_symop_operation_xyz
x,y,z
-x,-y,z
x,-y,1/2-z
-x,y,1/2-z
-x,-y,-z
x,y,-z
-x,y,1/2+z
x,-y,1/2+z
1/2+x,1/2+y,z
1/2-x,1/2-y,z
1/2+x,1/2-y,1/2-z
1/2-x,1/2+y,1/2-z
1/2-x,1/2-y,-z
1/2+x,1/2+y,-z
1/2-x,1/2+y,1/2+z
1/2+x,1/2-y,1/2+z
loop_
_atom_site_type_symbol
_atom_site_label
_atom_site_fract_x
_atom_site_fract_y
_atom_site_fract_z
Si Si1 0.604869 0.415841 0.618755
Si Si2 0.686909 0.803536 0.881613
Si Si3 0.000000 0.000000 0.250000
Si Si4 0.247919 0.926812 0.275408
Si Si5 0.418728 0.279437 0.231061
Si Si6 0.800169 0.184442 0.881499
O O1 0.602689 0.425102 0.500000
O O2 0.545936 0.454839 0.677616
O O3 0.676739 0.440054 0.665496
O O4 0.595189 0.338167 0.649596
O O5 0.750000 0.750000 0.860837
O O6 0.710015 0.877459 0.848146
O O7 0.620637 0.783720 0.816591
O O8 0.673563 0.799622 0.000000
O O9 0.230844 0.879695 0.178528
O O10 0.278324 0.000000 0.250000
O O11 0.500000 0.272152 0.250000
O O12 0.374006 0.299876 0.329480
O O13 0.750000 0.250000 0.869651
O O14 0.807108 0.171152 0.000000
#
# Coordination Sequence:
#
# PCOD9497345 Si02
#       6
#    16  16   4  16  16  16
#     4  11  22  36  53  77 112 154 189 224 271 333
#     4  11  20  36  62  85 110 147 193 248 283 325
#     4  12  22  40  44  78 124 156 182 220 272 350
#     4  11  21  37  55  84 113 142 190 233 281 338
#     4  11  21  37  55  84 113 142 190 233 281 338
#     4  10  20  37  57  77 108 145 181 224 273 327
#
# _framework density 16.421945999999998
#
# number of rings (size 3 to 8) (size 9 to 14) (size 15 to 20)
#    0.000    1.143    7.619    1.429    0.000    3.048 
#    0.000    0.000    0.000    0.571    0.000    1.333 
#    0.000    0.000    0.000    0.000    0.000    0.000 
#
# Total GULP energy -234362.118174 kJ/mol
# GULP energy per Si atom -5580.050433 kJ/mol
# Density = 1.638457 g / cm^3
# Si number density = 16.421946 Si / 1000 Ang^3
#
#
#
# Elastic Constant Matrix: (Units=GPa)
#
#
# Indices 1 2 3 4 5 6 
#
# 1 39.2572 5.4596 7.0902 0.0000 0.0000 0.0000
# 2 5.4596 73.6978 13.8437 0.0000 0.0000 0.0000
# 3 7.0902 13.8437 131.3818 0.0000 0.0000 0.0000
# 4 0.0000 0.0000 0.0000 25.1624 0.0000 0.0000
# 5 0.0000 0.0000 0.0000 0.0000 5.8353 0.0000
# 6 0.0000 0.0000 0.0000 0.0000 0.0000 22.2603
#
#
#
# Elastic Compliance Matrix: (Units=1/GPa)
#
#
# Indices 1 2 3 4 5 6 
#
# 1 0.025929 -0.001691 -0.001221 0.000000 0.000000 0.000000
# 2 -0.001691 0.013953 -0.001379 0.000000 0.000000 0.000000
# 3 -0.001221 -0.001379 0.007823 0.000000 0.000000 0.000000
# 4 0.000000 0.000000 0.000000 0.039742 0.000000 0.000000
# 5 0.000000 0.000000 0.000000 0.000000 0.171370 0.000000
# 6 0.000000 0.000000 0.000000 0.000000 0.000000 0.044923
#
#
# Mechanical properties :
#
#
# Convention : Reuss Voigt Hill
#
# Bulk Modulus (GPa) = 25.56128 33.01377 29.28752
# Shear Modulus (GPa) = 15.36745 25.18116 20.27430
#
# Velocity S-wave (km/s) = 3.06238 3.92009 3.51748
# Velocity P-wave (km/s) = 5.30126 6.37468 5.86259
#
# Compressibility (1/GPa) = 0.03912167
#
# Stress axis : x y z
#
# Youngs Moduli (GPa) = 38.56715 71.66786 127.83472
#
# Poissons Ratio (x) = 0.12122 0.15609
# Poissons Ratio (y) = 0.06523 0.17628
# Poissons Ratio (z) = 0.04709 0.09883
#
# Static dielectric constant tensor:
#      x y z
#    x 1.503790 0.000000 0.000000 
#    y 0.000000 1.599280 0.000000 
#    z 0.000000 0.000000 1.548340 
# 
# From -- ./inp_files/18896.got.cif
#   From: 2010.05.17/outbox.cif.g08.bks.cpg/sg66_10_cif.got.tgz:18896.got - 2010.06.03 17:51:23.
