data_PCOD9497488
_publ_section_title
;
Structure prediction by ZEFSAII (Michael W. Deem and Ramdas Pophale) SiO2 
 PCOD9497488
Probable space group: C C C M
;
_chemical_formula_sum "Si O2"
_cell_formula_units_Z 48
_cell_length_a 5.550375
_cell_length_b 19.046273
_cell_length_c 19.773036
_cell_angle_alpha 90.000000
_cell_angle_beta 90.000000
_cell_angle_gamma 90.000000
_cell_volume 2090.285887
_symmetry_space_group_name_H-M "C C C M"
_symmetry_group_IT_number 66
_symmetry_cell_setting 'orthorhombic'
loop_
_space_group_symop_operation_xyz
x,y,z
-x,-y,z
x,-y,1/2-z
-x,y,1/2-z
-x,-y,-z
x,y,-z
-x,y,1/2+z
x,-y,1/2+z
1/2+x,1/2+y,z
1/2-x,1/2-y,z
1/2+x,1/2-y,1/2-z
1/2-x,1/2+y,1/2-z
1/2-x,1/2-y,-z
1/2+x,1/2+y,-z
1/2-x,1/2+y,1/2+z
1/2+x,1/2-y,1/2+z
loop_
_atom_site_type_symbol
_atom_site_label
_atom_site_fract_x
_atom_site_fract_y
_atom_site_fract_z
Si Si1 0.258293 0.080517 0.723531
Si Si2 0.157059 0.070240 0.572606
Si Si3 0.995813 0.775778 0.078160
O O1 0.500000 0.116582 0.750000
O O2 0.292645 0.075085 0.642975
O O3 0.000000 0.109859 0.750000
O O4 0.254831 0.000000 0.750000
O O5 0.290747 0.071596 0.500000
O O6 0.996155 0.140329 0.574368
O O7 0.000000 0.000000 0.574595
O O8 0.750000 0.750000 0.110964
O O9 0.250000 0.750000 0.108310
O O10 0.997502 0.748070 0.000000
#
# Coordination Sequence:
#
# PCOD9497488 Si02
#       3
#    16  16  16
#     4  10  20  38  57  85 123 171 196 245 322 391
#     4  10  20  38  66 102 127 157 221 279 307 366
#     4   9  19  37  58  86 129 170 197 244 322 381
#
# _framework density 22.963365
#
# number of rings (size 3 to 8) (size 9 to 14) (size 15 to 20)
#    0.000    2.333    3.333    0.000    0.000    2.667 
#    0.000    8.333    0.000    4.000    0.000    0.000 
#    0.000    0.000    0.000    0.000    0.000    0.000 
#
# Total GULP energy -133764.384124 kJ/mol
# GULP energy per Si atom -5573.516005 kJ/mol
# Density = 2.291110 g / cm^3
# Si number density = 22.963365 Si / 1000 Ang^3
#
#
#
# Elastic Constant Matrix: (Units=GPa)
#
#
# Indices 1 2 3 4 5 6 
#
# 1 192.8463 35.5024 36.9068 0.0000 0.0000 0.0000
# 2 35.5024 104.3505 -11.9482 0.0000 0.0000 0.0000
# 3 36.9068 -11.9482 185.2791 0.0000 0.0000 0.0000
# 4 0.0000 0.0000 0.0000 -50.2491 0.0000 0.0000
# 5 0.0000 0.0000 0.0000 0.0000 90.7425 0.0000
# 6 0.0000 0.0000 0.0000 0.0000 0.0000 2.8066
#
#
#
# Elastic Compliance Matrix: (Units=1/GPa)
#
#
# Indices 1 2 3 4 5 6 
#
# 1 0.005826 -0.002131 -0.001298 0.000000 0.000000 0.000000
# 2 -0.002131 0.010434 0.001097 0.000000 0.000000 0.000000
# 3 -0.001298 0.001097 0.005727 0.000000 0.000000 0.000000
# 4 0.000000 0.000000 0.000000 -0.019901 0.000000 0.000000
# 5 0.000000 0.000000 0.000000 0.000000 0.011020 0.000000
# 6 0.000000 0.000000 0.000000 0.000000 0.000000 0.356300
#
#
# Mechanical properties :
#
#
# Convention : Reuss Voigt Hill
#
# Bulk Modulus (GPa) = 57.72517 67.04422 62.38469
# Shear Modulus (GPa) = 13.16332 36.79433 24.97882
#
# Velocity S-wave (km/s) = 2.39682 4.00722 3.30171
# Velocity P-wave (km/s) = 5.73168 7.11829 6.46228
#
# Compressibility (1/GPa) = 0.01732346
#
# Stress axis : x y z
#
# Youngs Moduli (GPa) = 171.63981 95.84343 174.62451
#
# Poissons Ratio (x) = 0.20422 0.22666
# Poissons Ratio (y) = 0.36573 -0.19161
# Poissons Ratio (z) = 0.22278 -0.10517
#
# Static dielectric constant tensor:
#      x y z
#    x 1.976030 0.000000 0.000000 
#    y 0.000000 1.827300 0.000000 
#    z 0.000000 0.000000 1.922900 
# 
# From -- ./inp_files/45266.got.cif
#   From: 2010.05.17/outbox.cif.g08.bks.cpg/sg66_23_cif.got.tgz:45266.got - 2010.06.03 17:51:23.
