data_PCOD9497343
_publ_section_title
;
Structure prediction by ZEFSAII (Michael W. Deem and Ramdas Pophale) SiO2 
 PCOD9497343
Probable space group: C C C M
;
_chemical_formula_sum "Si O2"
_cell_formula_units_Z 88
_cell_length_a 14.013286
_cell_length_b 14.066577
_cell_length_c 22.554040
_cell_angle_alpha 90.000000
_cell_angle_beta 90.000000
_cell_angle_gamma 90.000000
_cell_volume 4445.829056
_symmetry_space_group_name_H-M "C C C M"
_symmetry_group_IT_number 66
_symmetry_cell_setting 'orthorhombic'
loop_
_space_group_symop_operation_xyz
x,y,z
-x,-y,z
x,-y,1/2-z
-x,y,1/2-z
-x,-y,-z
x,y,-z
-x,y,1/2+z
x,-y,1/2+z
1/2+x,1/2+y,z
1/2-x,1/2-y,z
1/2+x,1/2-y,1/2-z
1/2-x,1/2+y,1/2-z
1/2-x,1/2-y,-z
1/2+x,1/2+y,-z
1/2-x,1/2+y,1/2+z
1/2+x,1/2-y,1/2+z
loop_
_atom_site_type_symbol
_atom_site_label
_atom_site_fract_x
_atom_site_fract_y
_atom_site_fract_z
Si Si1 0.846972 0.348047 0.865878
Si Si2 0.630575 0.965595 0.183449
Si Si3 0.391244 0.226565 0.236315
Si Si4 0.849632 0.069309 0.696830
Si Si5 0.500000 0.500000 0.394428
Si Si6 0.356720 0.337370 0.568832
O O1 0.898464 0.450879 0.861690
O O2 0.846111 0.314284 0.797123
O O3 0.740643 0.357544 0.893940
O O4 0.893558 0.262073 0.903022
O O5 0.603055 0.855233 0.186039
O O6 0.745120 0.965341 0.178773
O O7 0.604378 0.000000 0.250000
O O8 0.500000 0.254250 0.250000
O O9 0.340238 0.322344 0.216991
O O10 0.880307 0.000000 0.750000
O O11 0.927095 0.059406 0.646049
O O12 0.567159 0.577420 0.426258
O O13 0.332891 0.324536 0.500000
#
# Coordination Sequence:
#
# PCOD9497343 Si02
#       6
#    16  16  16  16   8  16
#     4  10  20  37  56  82 119 157 192 240 300 359
#     4   9  20  32  52  78 119 157 188 227 283 364
#     4  11  22  34  54  87 123 162 195 233 285 369
#     4  11  20  33  51  87 122 159 186 226 301 380
#     4  12  22  38  58  86 124 146 190 258 318 366
#     4  11  23  38  60  87 114 152 205 261 312 359
#
# _framework density 19.793834
#
# number of rings (size 3 to 8) (size 9 to 14) (size 15 to 20)
#    0.000    1.455    1.818    5.455   12.727    3.273 
#    0.000    0.000    0.000    0.000    0.000   28.000 
#    0.000    0.000    0.000    0.000    0.000    0.000 
#
# Total GULP energy -245504.017627 kJ/mol
# GULP energy per Si atom -5579.636764 kJ/mol
# Density = 1.974878 g / cm^3
# Si number density = 19.793834 Si / 1000 Ang^3
#
#
#
# Elastic Constant Matrix: (Units=GPa)
#
#
# Indices 1 2 3 4 5 6 
#
# 1 71.8833 16.9606 23.5001 0.0000 0.0000 0.0000
# 2 16.9606 175.7922 55.6735 0.0000 0.0000 0.0000
# 3 23.5001 55.6735 78.4514 0.0000 0.0000 0.0000
# 4 0.0000 0.0000 0.0000 36.3322 0.0000 0.0000
# 5 0.0000 0.0000 0.0000 0.0000 -362.3576 0.0000
# 6 0.0000 0.0000 0.0000 0.0000 0.0000 31.0806
#
#
#
# Elastic Compliance Matrix: (Units=1/GPa)
#
#
# Indices 1 2 3 4 5 6 
#
# 1 0.015422 -0.000032 -0.004597 0.000000 0.000000 0.000000
# 2 -0.000032 0.007338 -0.005198 0.000000 0.000000 0.000000
# 3 -0.004597 -0.005198 0.017812 0.000000 0.000000 0.000000
# 4 0.000000 0.000000 0.000000 0.027524 0.000000 0.000000
# 5 0.000000 0.000000 0.000000 0.000000 -0.002760 0.000000
# 6 0.000000 0.000000 0.000000 0.000000 0.000000 0.032174
#
#
# Mechanical properties :
#
#
# Convention : Reuss Voigt Hill
#
# Bulk Modulus (GPa) = 47.80418 57.59947 52.70182
# Shear Modulus (GPa) = 40.27827 -43.65613 -1.68893
#
# Velocity S-wave (km/s) = 4.51587 -4.70141 -0.92472
# Velocity P-wave (km/s) = 7.16898 0.55515 5.05401
#
# Compressibility (1/GPa) = 0.02091867
#
# Stress axis : x y z
#
# Youngs Moduli (GPa) = 64.84326 136.28184 56.14102
#
# Poissons Ratio (x) = 0.00437 0.25807
# Poissons Ratio (y) = 0.00208 0.29180
# Poissons Ratio (z) = 0.29807 0.70835
#
# Static dielectric constant tensor:
#      x y z
#    x 1.752850 0.000000 0.000000 
#    y 0.000000 1.671820 0.000000 
#    z 0.000000 0.000000 1.656380 
# 
# From -- ./inp_files/49874.got.cif
#   From: 2010.05.17/outbox.cif.g08.bks.cpg/sg66_25_cif.got.tgz:49874.got - 2010.06.03 17:51:23.
