data_PCOD9497027
_publ_section_title
;
Structure prediction by ZEFSAII (Michael W. Deem and Ramdas Pophale) SiO2 
 PCOD9497027
Probable space group: C C C M
;
_chemical_formula_sum "Si O2"
_cell_formula_units_Z 64
_cell_length_a 8.490414
_cell_length_b 22.948639
_cell_length_c 16.589516
_cell_angle_alpha 90.000000
_cell_angle_beta 90.000000
_cell_angle_gamma 90.000000
_cell_volume 3232.358462
_symmetry_space_group_name_H-M "C C C M"
_symmetry_group_IT_number 66
_symmetry_cell_setting 'orthorhombic'
loop_
_space_group_symop_operation_xyz
x,y,z
-x,-y,z
x,-y,1/2-z
-x,y,1/2-z
-x,-y,-z
x,y,-z
-x,y,1/2+z
x,-y,1/2+z
1/2+x,1/2+y,z
1/2-x,1/2-y,z
1/2+x,1/2-y,1/2-z
1/2-x,1/2+y,1/2-z
1/2-x,1/2-y,-z
1/2+x,1/2+y,-z
1/2-x,1/2+y,1/2+z
1/2+x,1/2-y,1/2+z
loop_
_atom_site_type_symbol
_atom_site_label
_atom_site_fract_x
_atom_site_fract_y
_atom_site_fract_z
Si Si1 0.677634 0.990048 0.405106
Si Si2 0.687703 0.188352 0.250345
Si Si3 0.112391 0.912697 0.673137
Si Si4 0.318999 0.637549 0.090939
O O1 0.684053 0.006318 0.500000
O O2 0.802445 0.029780 0.358544
O O3 0.500000 0.000000 0.375544
O O4 0.720463 0.922328 0.399318
O O5 0.500000 0.187474 0.250000
O O6 0.750000 0.250000 0.282798
O O7 0.757813 0.134369 0.300166
O O8 0.759781 0.180051 0.160708
O O9 0.000000 0.924018 0.750000
O O10 0.997770 0.882739 0.608007
O O11 0.300447 0.659322 0.000000
#
# Coordination Sequence:
#
# PCOD9497027 Si02
#       4
#    16  16  16  16
#     4  10  20  35  56  84 117 149 184 229 279 331
#     4  11  23  41  61  82 111 147 189 235 280 330
#     4  10  21  36  56  82 114 149 188 229 278 333
#     4  10  21  37  59  86 115 149 187 229 279 333
#
# _framework density 19.799783999999999
#
# number of rings (size 3 to 8) (size 9 to 14) (size 15 to 20)
#    0.000    1.750    0.000    5.250    0.000    9.500 
#    0.000    7.500    0.000    5.250    0.000    0.000 
#    0.000    0.000    0.000    0.000    0.000    0.000 
#
# Total GULP energy -178920.147215 kJ/mol
# GULP energy per Si atom -5591.254600 kJ/mol
# Density = 1.975472 g / cm^3
# Si number density = 19.799784 Si / 1000 Ang^3
#
#
#
# Elastic Constant Matrix: (Units=GPa)
#
#
# Indices 1 2 3 4 5 6 
#
# 1 111.8741 4.4254 -16.4910 0.0000 0.0000 0.0000
# 2 4.4254 46.2229 -2.4918 0.0000 0.0000 0.0000
# 3 -16.4910 -2.4918 26.4500 0.0000 0.0000 0.0000
# 4 0.0000 0.0000 0.0000 16.7925 0.0000 0.0000
# 5 0.0000 0.0000 0.0000 0.0000 15.8483 0.0000
# 6 0.0000 0.0000 0.0000 0.0000 0.0000 29.6285
#
#
#
# Elastic Compliance Matrix: (Units=1/GPa)
#
#
# Indices 1 2 3 4 5 6 
#
# 1 0.009861 -0.000616 0.006090 0.000000 0.000000 0.000000
# 2 -0.000616 0.021783 0.001668 0.000000 0.000000 0.000000
# 3 0.006090 0.001668 0.041761 0.000000 0.000000 0.000000
# 4 0.000000 0.000000 0.000000 0.059550 0.000000 0.000000
# 5 0.000000 0.000000 0.000000 0.000000 0.063098 0.000000
# 6 0.000000 0.000000 0.000000 0.000000 0.000000 0.033751
#
#
# Mechanical properties :
#
#
# Convention : Reuss Voigt Hill
#
# Bulk Modulus (GPa) = 11.40383 17.27024 14.33703
# Shear Modulus (GPa) = 20.42899 25.72749 23.07824
#
# Velocity S-wave (km/s) = 3.21562 3.60861 3.41776
# Velocity P-wave (km/s) = 4.42255 5.10922 4.77824
#
# Compressibility (1/GPa) = 0.08768986
#
# Stress axis : x y z
#
# Youngs Moduli (GPa) = 101.41294 45.90698 23.94560
#
# Poissons Ratio (x) = 0.02827 -0.14583
# Poissons Ratio (y) = 0.06245 -0.03995
# Poissons Ratio (z) = -0.61760 -0.07658
#
# Static dielectric constant tensor:
#      x y z
#    x 1.679380 0.000000 0.000000 
#    y 0.000000 1.658110 0.000000 
#    z 0.000000 0.000000 1.734360 
# 
# From -- ./inp_files/31894.got.cif
#   From: 2010.05.17/outbox.cif.g08.bks.cpg/sg66_16_cif.got.tgz:31894.got - 2010.06.03 17:51:23.
