data_PCOD9497087
_publ_section_title
;
Structure prediction by ZEFSAII (Michael W. Deem and Ramdas Pophale) SiO2 
 PCOD9497087
Probable space group: C C C M
;
_chemical_formula_sum "Si O2"
_cell_formula_units_Z 48
_cell_length_a 9.415175
_cell_length_b 13.583512
_cell_length_c 13.652789
_cell_angle_alpha 90.000000
_cell_angle_beta 90.000000
_cell_angle_gamma 90.000000
_cell_volume 1746.070785
_symmetry_space_group_name_H-M "C C C M"
_symmetry_group_IT_number 66
_symmetry_cell_setting 'orthorhombic'
loop_
_space_group_symop_operation_xyz
x,y,z
-x,-y,z
x,-y,1/2-z
-x,y,1/2-z
-x,-y,-z
x,y,-z
-x,y,1/2+z
x,-y,1/2+z
1/2+x,1/2+y,z
1/2-x,1/2-y,z
1/2+x,1/2-y,1/2-z
1/2-x,1/2+y,1/2-z
1/2-x,1/2-y,-z
1/2+x,1/2+y,-z
1/2-x,1/2+y,1/2+z
1/2+x,1/2-y,1/2+z
loop_
_atom_site_type_symbol
_atom_site_label
_atom_site_fract_x
_atom_site_fract_y
_atom_site_fract_z
Si Si1 0.792863 0.107443 0.888752
Si Si2 0.517698 0.191939 0.635541
Si Si3 0.175737 0.119630 0.155083
O O1 0.625350 0.139850 0.899040
O O2 0.819472 0.139717 0.773315
O O3 0.837059 0.993490 0.873365
O O4 0.839318 0.134023 0.000000
O O5 0.500000 0.177754 0.750000
O O6 0.669906 0.145695 0.611674
O O7 0.552481 0.307556 0.617738
#
# Coordination Sequence:
#
# PCOD9497087 Si02
#       3
#    16  16  16
#     4  10  20  35  58  88 122 164 215 264 315 384
#     4   9  18  35  57  82 117 165 210 257 322 382
#     4   9  19  36  57  84 125 166 205 264 328 375
#
# _framework density 27.490293000000001
#
# number of rings (size 3 to 8) (size 9 to 14) (size 15 to 20)
#    0.000    2.667    0.000    1.000    0.000    8.000 
#    0.000   20.000    0.000   10.000    0.000    0.000 
#    0.000    0.000    0.000    0.000    0.000    0.000 
#
# Total GULP energy -133655.672296 kJ/mol
# GULP energy per Si atom -5568.986346 kJ/mol
# Density = 2.742772 g / cm^3
# Si number density = 27.490293 Si / 1000 Ang^3
#
#
#
# Elastic Constant Matrix: (Units=GPa)
#
#
# Indices 1 2 3 4 5 6 
#
# 1 168.7616 55.2392 117.9378 0.0000 0.0000 0.0000
# 2 55.2392 108.4609 30.9553 0.0000 0.0000 0.0000
# 3 117.9378 30.9553 228.7335 0.0000 0.0000 0.0000
# 4 0.0000 0.0000 0.0000 -180.2703 0.0000 0.0000
# 5 0.0000 0.0000 0.0000 0.0000 51.5340 0.0000
# 6 0.0000 0.0000 0.0000 0.0000 0.0000 30.0862
#
#
#
# Elastic Compliance Matrix: (Units=1/GPa)
#
#
# Indices 1 2 3 4 5 6 
#
# 1 0.010735 -0.004044 -0.004988 0.000000 0.000000 0.000000
# 2 -0.004044 0.011114 0.000581 0.000000 0.000000 0.000000
# 3 -0.004988 0.000581 0.006865 0.000000 0.000000 0.000000
# 4 0.000000 0.000000 0.000000 -0.005547 0.000000 0.000000
# 5 0.000000 0.000000 0.000000 0.000000 0.019405 0.000000
# 6 0.000000 0.000000 0.000000 0.000000 0.000000 0.033238
#
#
# Mechanical properties :
#
#
# Convention : Reuss Voigt Hill
#
# Bulk Modulus (GPa) = 84.65699 101.58006 93.11853
# Shear Modulus (GPa) = 51.73468 0.39155 26.06312
#
# Velocity S-wave (km/s) = 4.34282 0.37781 3.08244
# Velocity P-wave (km/s) = 7.48391 6.10097 6.82754
#
# Compressibility (1/GPa) = 0.01181237
#
# Stress axis : x y z
#
# Youngs Moduli (GPa) = 93.15555 89.98017 145.66627
#
# Poissons Ratio (x) = 0.36385 0.72654
# Poissons Ratio (y) = 0.37669 -0.08462
# Poissons Ratio (z) = 0.46463 -0.05227
#
# Static dielectric constant tensor:
#      x y z
#    x 2.278400 0.000000 0.000000 
#    y 0.000000 2.174650 0.000000 
#    z 0.000000 0.000000 2.466330 
# 
# From -- ./inp_files/25176.got.cif
#   From: 2010.05.17/outbox.cif.g08.bks.cpg/sg66_13_cif.got.tgz:25176.got - 2010.06.03 17:51:23.
