data_PCOD9497545
_publ_section_title
;
Structure prediction by ZEFSAII (Michael W. Deem and Ramdas Pophale) SiO2 
 PCOD9497545
Probable space group: C C C M
;
_chemical_formula_sum "Si O2"
_cell_formula_units_Z 112
_cell_length_a 23.113427
_cell_length_b 11.493092
_cell_length_c 22.690129
_cell_angle_alpha 90.000000
_cell_angle_beta 90.000000
_cell_angle_gamma 90.000000
_cell_volume 6027.513486
_symmetry_space_group_name_H-M "C C C M"
_symmetry_group_IT_number 66
_symmetry_cell_setting 'orthorhombic'
loop_
_space_group_symop_operation_xyz
x,y,z
-x,-y,z
x,-y,1/2-z
-x,y,1/2-z
-x,-y,-z
x,y,-z
-x,y,1/2+z
x,-y,1/2+z
1/2+x,1/2+y,z
1/2-x,1/2-y,z
1/2+x,1/2-y,1/2-z
1/2-x,1/2+y,1/2-z
1/2-x,1/2-y,-z
1/2+x,1/2+y,-z
1/2-x,1/2+y,1/2+z
1/2+x,1/2-y,1/2+z
loop_
_atom_site_type_symbol
_atom_site_label
_atom_site_fract_x
_atom_site_fract_y
_atom_site_fract_z
Si Si1 0.597224 0.722326 0.608398
Si Si2 0.309512 0.175280 0.935544
Si Si3 0.129676 0.163479 0.855242
Si Si4 0.807389 0.395262 0.931937
Si Si5 0.981124 0.864907 0.934048
Si Si6 0.566320 0.638767 0.739501
Si Si7 0.684421 0.462155 0.931245
O O1 0.640483 0.832749 0.602827
O O2 0.533393 0.723481 0.580199
O O3 0.586890 0.677578 0.674983
O O4 0.629543 0.620828 0.572578
O O5 0.250000 0.250000 0.933946
O O6 0.345618 0.218561 0.880890
O O7 0.307453 0.036356 0.931733
O O8 0.335313 0.203195 0.000000
O O9 0.115284 0.172735 0.786876
O O10 0.068140 0.144580 0.885912
O O11 0.171294 0.063196 0.883411
O O12 0.739748 0.382125 0.914789
O O13 0.813883 0.356201 0.000000
O O14 0.959249 0.843659 0.000000
O O15 0.000000 0.000000 0.931381
O O16 0.563141 0.500000 0.750000
O O17 0.500000 0.682297 0.750000
O O18 0.691620 0.502913 0.000000
#
# Coordination Sequence:
#
# PCOD9497545 Si02
#       7
#    16  16  16  16  16  16  16
#     4  12  22  37  58  88 127 161 201 251 314 375
#     4  10  20  38  63  89 121 160 202 252 308 375
#     4  12  21  36  61  90 118 155 211 255 298 364
#     4  10  22  39  61  91 128 164 197 248 320 384
#     4  11  20  31  54  90 122 148 192 258 316 370
#     4  11  22  40  60  85 118 165 206 254 306 363
#     4  11  20  34  61  93 125 154 189 254 326 384
#
# _framework density 18.58146
#
# number of rings (size 3 to 8) (size 9 to 14) (size 15 to 20)
#    0.000    1.000    5.714    3.000    0.000    1.143 
#    0.000    2.857    3.143    3.429    0.000    0.000 
#    0.000    0.000    0.000    0.000    0.000    0.000 
#
# Total GULP energy -311983.053008 kJ/mol
# GULP energy per Si atom -5571.125947 kJ/mol
# Density = 1.853917 g / cm^3
# Si number density = 18.581460 Si / 1000 Ang^3
#
#
#
# Elastic Constant Matrix: (Units=GPa)
#
#
# Indices 1 2 3 4 5 6 
#
# 1 81.6047 26.0679 21.8107 0.0000 0.0000 0.0000
# 2 26.0679 47.9026 15.8682 0.0000 0.0000 0.0000
# 3 21.8107 15.8682 90.9617 0.0000 0.0000 0.0000
# 4 0.0000 0.0000 0.0000 26.2004 0.0000 0.0000
# 5 0.0000 0.0000 0.0000 0.0000 -34.8609 0.0000
# 6 0.0000 0.0000 0.0000 0.0000 0.0000 32.8162
#
#
#
# Elastic Compliance Matrix: (Units=1/GPa)
#
#
# Indices 1 2 3 4 5 6 
#
# 1 0.015292 -0.007543 -0.002351 0.000000 0.000000 0.000000
# 2 -0.007543 0.025877 -0.002706 0.000000 0.000000 0.000000
# 3 -0.002351 -0.002706 0.012029 0.000000 0.000000 0.000000
# 4 0.000000 0.000000 0.000000 0.038167 0.000000 0.000000
# 5 0.000000 0.000000 0.000000 0.000000 -0.028685 0.000000
# 6 0.000000 0.000000 0.000000 0.000000 0.000000 0.030473
#
#
# Mechanical properties :
#
#
# Convention : Reuss Voigt Hill
#
# Bulk Modulus (GPa) = 35.71508 38.66250 37.18879
# Shear Modulus (GPa) = 39.15901 15.27929 27.21915
#
# Velocity S-wave (km/s) = 4.59565 2.87067 3.83149
# Velocity P-wave (km/s) = 6.88640 5.64268 6.29533
#
# Compressibility (1/GPa) = 0.02799938
#
# Stress axis : x y z
#
# Youngs Moduli (GPa) = 65.39346 38.64478 83.13041
#
# Poissons Ratio (x) = 0.29150 0.19543
# Poissons Ratio (y) = 0.49326 0.22491
# Poissons Ratio (z) = 0.15373 0.10455
#
# Static dielectric constant tensor:
#      x y z
#    x 1.733450 0.000000 0.000000 
#    y 0.000000 1.747740 0.000000 
#    z 0.000000 0.000000 1.642830 
# 
# From -- ./inp_files/52621.got.cif
#   From: 2010.05.17/outbox.cif.g08.bks.cpg/sg66_27_cif.got.tgz:52621.got - 2010.06.03 17:51:23.
