data_PCOD9497185
_publ_section_title
;
Structure prediction by ZEFSAII (Michael W. Deem and Ramdas Pophale) SiO2 
 PCOD9497185
Probable space group: C C C M
;
_chemical_formula_sum "Si O2"
_cell_formula_units_Z 116
_cell_length_a 23.187874
_cell_length_b 26.688834
_cell_length_c 9.893541
_cell_angle_alpha 90.000000
_cell_angle_beta 90.000000
_cell_angle_gamma 90.000000
_cell_volume 6122.690269
_symmetry_space_group_name_H-M "C C C M"
_symmetry_group_IT_number 66
_symmetry_cell_setting 'orthorhombic'
loop_
_space_group_symop_operation_xyz
x,y,z
-x,-y,z
x,-y,1/2-z
-x,y,1/2-z
-x,-y,-z
x,y,-z
-x,y,1/2+z
x,-y,1/2+z
1/2+x,1/2+y,z
1/2-x,1/2-y,z
1/2+x,1/2-y,1/2-z
1/2-x,1/2+y,1/2-z
1/2-x,1/2-y,-z
1/2+x,1/2+y,-z
1/2-x,1/2+y,1/2+z
1/2+x,1/2-y,1/2+z
loop_
_atom_site_type_symbol
_atom_site_label
_atom_site_fract_x
_atom_site_fract_y
_atom_site_fract_z
Si Si1 0.125820 0.291727 0.155517
Si Si2 0.732953 0.191826 0.843785
Si Si3 0.553558 0.304679 0.660816
Si Si4 0.000000 0.000000 0.750000
Si Si5 0.832719 0.548557 0.158509
Si Si6 0.446682 0.886851 0.343936
Si Si7 0.284879 0.389549 0.839104
Si Si8 0.089960 0.084677 0.840038
O O1 0.172992 0.309166 0.262320
O O2 0.105358 0.234871 0.175887
O O3 0.071248 0.328593 0.167657
O O4 0.147668 0.297575 0.000000
O O5 0.750000 0.250000 0.844792
O O6 0.777127 0.158537 0.756486
O O7 0.728745 0.174675 0.000000
O O8 0.500000 0.287110 0.750000
O O9 0.539696 0.305962 0.500000
O O10 0.569053 0.360764 0.710050
O O11 0.045792 0.039703 0.812628
O O12 0.833568 0.500000 0.250000
O O13 0.888455 0.582643 0.188370
O O14 0.773226 0.578548 0.179304
O O15 0.835320 0.535326 0.000000
O O16 0.500000 0.899555 0.250000
O O17 0.461380 0.896888 0.500000
O O18 0.342846 0.419845 0.799215
O O19 0.288564 0.376139 0.000000
O O20 0.091228 0.089552 0.000000
#
# Coordination Sequence:
#
# PCOD9497185 Si02
#       8
#    16  16  16   4  16  16  16  16
#     4  10  20  37  61  86 121 165 207 247 299 370
#     4  11  23  37  57  92 131 160 199 253 313 368
#     4  10  20  36  57  86 120 159 207 255 307 369
#     4  12  22  40  64  90 132 160 204 272 320 360
#     4  10  22  40  62  88 121 156 204 259 305 367
#     4  10  21  38  59  89 121 157 203 248 299 361
#     4  10  21  42  66  88 121 164 212 255 302 376
#     4  10  22  39  61  89 119 161 210 254 312 377
#
# _framework density 18.945919
#
# number of rings (size 3 to 8) (size 9 to 14) (size 15 to 20)
#    0.000    1.793    2.069    1.862    0.966    4.690 
#    0.000    3.448    0.000    0.000    0.000    0.000 
#    0.000    0.000    0.000    0.000    0.000    0.000 
#
# Total GULP energy -323402.134469 kJ/mol
# GULP energy per Si atom -5575.898870 kJ/mol
# Density = 1.890280 g / cm^3
# Si number density = 18.945919 Si / 1000 Ang^3
#
#
#
# Elastic Constant Matrix: (Units=GPa)
#
#
# Indices 1 2 3 4 5 6 
#
# 1 132.9271 35.7943 61.5854 0.0000 0.0000 0.0000
# 2 35.7943 96.4676 43.3097 0.0000 0.0000 0.0000
# 3 61.5854 43.3097 63.0020 0.0000 0.0000 0.0000
# 4 0.0000 0.0000 0.0000 29.2444 0.0000 0.0000
# 5 0.0000 0.0000 0.0000 0.0000 25.8057 0.0000
# 6 0.0000 0.0000 0.0000 0.0000 0.0000 23.2052
#
#
#
# Elastic Compliance Matrix: (Units=1/GPa)
#
#
# Indices 1 2 3 4 5 6 
#
# 1 0.013873 0.001361 -0.014496 0.000000 0.000000 0.000000
# 2 0.001361 0.015127 -0.011729 0.000000 0.000000 0.000000
# 3 -0.014496 -0.011729 0.038105 0.000000 0.000000 0.000000
# 4 0.000000 0.000000 0.000000 0.034195 0.000000 0.000000
# 5 0.000000 0.000000 0.000000 0.000000 0.038751 0.000000
# 6 0.000000 0.000000 0.000000 0.000000 0.000000 0.043094
#
#
# Mechanical properties :
#
#
# Convention : Reuss Voigt Hill
#
# Bulk Modulus (GPa) = 57.54890 63.75285 60.65087
# Shear Modulus (GPa) = 20.94984 25.76486 23.35735
#
# Velocity S-wave (km/s) = 3.32892 3.69170 3.51500
# Velocity P-wave (km/s) = 6.72435 7.20379 6.96819
#
# Compressibility (1/GPa) = 0.01737653
#
# Stress axis : x y z
#
# Youngs Moduli (GPa) = 72.08489 66.10662 26.24300
#
# Poissons Ratio (x) = -0.08995 0.38042
# Poissons Ratio (y) = -0.09808 0.30780
# Poissons Ratio (z) = 1.04494 0.77536
#
# Static dielectric constant tensor:
#      x y z
#    x 1.668710 0.000000 0.000000 
#    y 0.000000 1.694590 0.000000 
#    z 0.000000 0.000000 1.639930 
# 
# From -- ./inp_files/9449.got.cif
#   From: 2010.05.17/outbox.cif.g08.bks.cpg/sg66_5_cif.got.tgz:9449.got - 2010.06.03 17:51:23.
