data_PCOD9497357
_publ_section_title
;
Structure prediction by ZEFSAII (Michael W. Deem and Ramdas Pophale) SiO2 
 PCOD9497357
Probable space group: C C C M
;
_chemical_formula_sum "Si O2"
_cell_formula_units_Z 88
_cell_length_a 8.004836
_cell_length_b 20.554678
_cell_length_c 24.085454
_cell_angle_alpha 90.000000
_cell_angle_beta 90.000000
_cell_angle_gamma 90.000000
_cell_volume 3962.944164
_symmetry_space_group_name_H-M "C C C M"
_symmetry_group_IT_number 66
_symmetry_cell_setting 'orthorhombic'
loop_
_space_group_symop_operation_xyz
x,y,z
-x,-y,z
x,-y,1/2-z
-x,y,1/2-z
-x,-y,-z
x,y,-z
-x,y,1/2+z
x,-y,1/2+z
1/2+x,1/2+y,z
1/2-x,1/2-y,z
1/2+x,1/2-y,1/2-z
1/2-x,1/2+y,1/2-z
1/2-x,1/2-y,-z
1/2+x,1/2+y,-z
1/2-x,1/2+y,1/2+z
1/2+x,1/2-y,1/2+z
loop_
_atom_site_type_symbol
_atom_site_label
_atom_site_fract_x
_atom_site_fract_y
_atom_site_fract_z
Si Si1 0.314252 0.606253 0.621987
Si Si2 0.943678 0.658693 0.377941
Si Si3 0.174844 0.959313 0.000000
Si Si4 0.186374 0.525970 0.879850
Si Si5 0.927149 0.714974 0.500000
Si Si6 0.072807 0.146854 0.000000
Si Si7 0.059208 0.222344 0.187457
O O1 0.126339 0.629353 0.633662
O O2 0.315218 0.530257 0.638476
O O3 0.345329 0.620141 0.556568
O O4 0.434513 0.654133 0.655217
O O5 0.942146 0.725811 0.344393
O O6 0.813404 0.601630 0.362359
O O7 0.941670 0.674801 0.443365
O O8 0.280671 0.972897 0.054276
O O9 0.110837 0.885262 0.000000
O O10 0.000000 0.000000 0.000000
O O11 0.000000 0.500000 0.868376
O O12 0.750000 0.750000 0.500000
O O13 0.059357 0.775192 0.500000
O O14 0.250000 0.250000 0.186479
O O15 0.000000 0.215053 0.250000
#
# Coordination Sequence:
#
# PCOD9497357 Si02
#       7
#    16  16   8  16   8   8  16
#     4  10  20  37  62  88 121 160 203 249 312 379
#     4  10  21  37  61  87 120 161 207 251 300 377
#     4  12  21  32  50  88 130 165 193 239 300 368
#     4  10  20  37  58  84 119 163 206 242 297 374
#     4  12  23  33  50  89 131 162 203 251 306 366
#     4  12  21  33  54  88 129 163 197 248 314 366
#     4  10  22  42  64  92 116 156 211 267 324 378
#
# _framework density 22.205712999999999
#
# number of rings (size 3 to 8) (size 9 to 14) (size 15 to 20)
#    0.000    1.455    3.636    2.455    0.000    4.364 
#    3.273    0.000    0.000   13.636    0.000    0.000 
#    0.000    0.000    0.000    0.000    0.000    0.000 
#
# Total GULP energy -245729.571945 kJ/mol
# GULP energy per Si atom -5584.762999 kJ/mol
# Density = 2.215517 g / cm^3
# Si number density = 22.205713 Si / 1000 Ang^3
#
#
#
# Elastic Constant Matrix: (Units=GPa)
#
#
# Indices 1 2 3 4 5 6 
#
# 1 62.3412 48.7869 12.6983 0.0000 0.0000 0.0000
# 2 48.7869 219.5979 64.2730 0.0000 0.0000 0.0000
# 3 12.6983 64.2730 96.7034 0.0000 0.0000 0.0000
# 4 0.0000 0.0000 0.0000 -0.3170 0.0000 0.0000
# 5 0.0000 0.0000 0.0000 0.0000 13.4608 0.0000
# 6 0.0000 0.0000 0.0000 0.0000 0.0000 33.2325
#
#
#
# Elastic Compliance Matrix: (Units=1/GPa)
#
#
# Indices 1 2 3 4 5 6 
#
# 1 0.019429 -0.004432 0.000394 0.000000 0.000000 0.000000
# 2 -0.004432 0.006664 -0.003848 0.000000 0.000000 0.000000
# 3 0.000394 -0.003848 0.012846 0.000000 0.000000 0.000000
# 4 0.000000 0.000000 0.000000 -3.154169 0.000000 0.000000
# 5 0.000000 0.000000 0.000000 0.000000 0.074290 0.000000
# 6 0.000000 0.000000 0.000000 0.000000 0.000000 0.030091
#
#
# Mechanical properties :
#
#
# Convention : Reuss Voigt Hill
#
# Bulk Modulus (GPa) = 43.16022 70.01769 56.58895
# Shear Modulus (GPa) = -1.67372 26.13421 12.23024
#
# Velocity S-wave (km/s) = -0.86912 3.43434 2.34940
# Velocity P-wave (km/s) = 4.29786 6.87940 5.73575
#
# Compressibility (1/GPa) = 0.02316948
#
# Stress axis : x y z
#
# Youngs Moduli (GPa) = 51.47042 150.04927 77.84308
#
# Poissons Ratio (x) = 0.66498 -0.03069
# Poissons Ratio (y) = 0.22811 0.29950
# Poissons Ratio (z) = -0.02030 0.57732
#
# Static dielectric constant tensor:
#      x y z
#    x 1.826100 0.000000 0.000000 
#    y 0.000000 1.920740 0.000000 
#    z 0.000000 0.000000 1.765500 
# 
# From -- ./inp_files/55508.got.cif
#   From: 2010.05.17/outbox.cif.g08.bks.cpg/sg66_28_cif.got.tgz:55508.got - 2010.06.03 17:51:23.
