data_PCOD9497077
_publ_section_title
;
Structure prediction by ZEFSAII (Michael W. Deem and Ramdas Pophale) SiO2 
 PCOD9497077
Probable space group: C C C M
;
_chemical_formula_sum "Si O2"
_cell_formula_units_Z 80
_cell_length_a 27.322153
_cell_length_b 9.125019
_cell_length_c 14.863028
_cell_angle_alpha 90.000000
_cell_angle_beta 90.000000
_cell_angle_gamma 90.000000
_cell_volume 3705.578282
_symmetry_space_group_name_H-M "C C C M"
_symmetry_group_IT_number 66
_symmetry_cell_setting 'orthorhombic'
loop_
_space_group_symop_operation_xyz
x,y,z
-x,-y,z
x,-y,1/2-z
-x,y,1/2-z
-x,-y,-z
x,y,-z
-x,y,1/2+z
x,-y,1/2+z
1/2+x,1/2+y,z
1/2-x,1/2-y,z
1/2+x,1/2-y,1/2-z
1/2-x,1/2+y,1/2-z
1/2-x,1/2-y,-z
1/2+x,1/2+y,-z
1/2-x,1/2+y,1/2+z
1/2+x,1/2-y,1/2+z
loop_
_atom_site_type_symbol
_atom_site_label
_atom_site_fract_x
_atom_site_fract_y
_atom_site_fract_z
Si Si1 0.048486 0.569525 0.151515
Si Si2 0.641432 0.585835 0.110554
Si Si3 0.452994 0.402338 0.390834
Si Si4 0.751675 0.071330 0.396167
Si Si5 0.647043 0.081761 0.605760
O O1 0.049916 0.500000 0.250000
O O2 0.043290 0.742765 0.151272
O O3 0.100742 0.522935 0.112282
O O4 0.000000 0.500000 0.106253
O O5 0.596381 0.485108 0.137333
O O6 0.695054 0.532105 0.141645
O O7 0.634803 0.754943 0.140991
O O8 0.641575 0.586337 0.000000
O O9 0.500000 0.500000 0.368731
O O10 0.452089 0.384213 0.500000
O O11 0.753339 0.020570 0.500000
O O12 0.750000 0.250000 0.396088
O O13 0.699157 0.024893 0.356725
O O14 0.656811 0.103599 0.500000
#
# Coordination Sequence:
#
# PCOD9497077 Si02
#       5
#    16  16  16  16  16
#     4  11  24  39  51  71 105 144 180 218 271 330
#     4   8  14  27  50  81 110 134 169 218 268 314
#     4  10  20  35  58  86 111 137 177 229 277 322
#     4   7  11  22  45  77 107 134 168 212 262 313
#     4   9  16  30  55  80 102 137 182 222 260 309
#
# _framework density 21.589072000000002
#
# number of rings (size 3 to 8) (size 9 to 14) (size 15 to 20)
#    0.000    3.000    0.000    4.200    0.000    3.200 
#    0.000    8.000    0.000   12.000    0.000    0.000 
#    0.000    0.000    0.000    0.000    0.000    0.000 
#
# Total GULP energy -223039.297624 kJ/mol
# GULP energy per Si atom -5575.982441 kJ/mol
# Density = 2.153993 g / cm^3
# Si number density = 21.589072 Si / 1000 Ang^3
#
#
#
# Elastic Constant Matrix: (Units=GPa)
#
#
# Indices 1 2 3 4 5 6 
#
# 1 234.1109 99.5947 12.8030 0.0000 0.0000 0.0000
# 2 99.5947 133.0778 17.0860 0.0000 0.0000 0.0000
# 3 12.8030 17.0860 51.1299 0.0000 0.0000 0.0000
# 4 0.0000 0.0000 0.0000 6.4169 0.0000 0.0000
# 5 0.0000 0.0000 0.0000 0.0000 45.7660 0.0000
# 6 0.0000 0.0000 0.0000 0.0000 0.0000 32.1629
#
#
#
# Elastic Compliance Matrix: (Units=1/GPa)
#
#
# Indices 1 2 3 4 5 6 
#
# 1 0.006267 -0.004690 -0.000002 0.000000 0.000000 0.000000
# 2 -0.004690 0.011361 -0.002622 0.000000 0.000000 0.000000
# 3 -0.000002 -0.002622 0.020435 0.000000 0.000000 0.000000
# 4 0.000000 0.000000 0.000000 0.155838 0.000000 0.000000
# 5 0.000000 0.000000 0.000000 0.000000 0.021850 0.000000
# 6 0.000000 0.000000 0.000000 0.000000 0.000000 0.031092
#
#
# Mechanical properties :
#
#
# Convention : Reuss Voigt Hill
#
# Bulk Modulus (GPa) = 42.67201 75.25399 58.96300
# Shear Modulus (GPa) = 18.56794 36.12482 27.34638
#
# Velocity S-wave (km/s) = 2.93586 4.09503 3.56290
# Velocity P-wave (km/s) = 5.59472 7.56916 6.65556
#
# Compressibility (1/GPa) = 0.02343456
#
# Stress axis : x y z
#
# Youngs Moduli (GPa) = 159.57480 88.02213 48.93619
#
# Poissons Ratio (x) = 0.41279 0.00010
# Poissons Ratio (y) = 0.74835 0.12832
# Poissons Ratio (z) = 0.00033 0.23080
#
# Static dielectric constant tensor:
#      x y z
#    x 1.869550 0.000000 0.000000 
#    y 0.000000 1.731070 0.000000 
#    z 0.000000 0.000000 1.902020 
# 
# From -- ./inp_files/36969.got.cif
#   From: 2010.05.17/outbox.cif.g08.bks.cpg/sg66_19_cif.got.tgz:36969.got - 2010.06.03 17:51:23.
