data_PCOD9497207
_publ_section_title
;
Structure prediction by ZEFSAII (Michael W. Deem and Ramdas Pophale) SiO2 
 PCOD9497207
Probable space group: C C C M
;
_chemical_formula_sum "Si O2"
_cell_formula_units_Z 80
_cell_length_a 22.261949
_cell_length_b 12.227167
_cell_length_c 14.517774
_cell_angle_alpha 90.000000
_cell_angle_beta 90.000000
_cell_angle_gamma 90.000000
_cell_volume 3951.746331
_symmetry_space_group_name_H-M "C C C M"
_symmetry_group_IT_number 66
_symmetry_cell_setting 'orthorhombic'
loop_
_space_group_symop_operation_xyz
x,y,z
-x,-y,z
x,-y,1/2-z
-x,y,1/2-z
-x,-y,-z
x,y,-z
-x,y,1/2+z
x,-y,1/2+z
1/2+x,1/2+y,z
1/2-x,1/2-y,z
1/2+x,1/2-y,1/2-z
1/2-x,1/2+y,1/2-z
1/2-x,1/2-y,-z
1/2+x,1/2+y,-z
1/2-x,1/2+y,1/2+z
1/2+x,1/2-y,1/2+z
loop_
_atom_site_type_symbol
_atom_site_label
_atom_site_fract_x
_atom_site_fract_y
_atom_site_fract_z
Si Si1 0.733873 0.616479 0.500000
Si Si2 0.643680 0.899192 0.188097
Si Si3 0.552037 0.759139 0.315946
Si Si4 0.659496 0.599471 0.680515
Si Si5 0.362794 0.007378 0.500000
Si Si6 0.473526 0.875926 0.000000
Si Si7 0.250000 0.750000 0.704916
O O1 0.750000 0.750000 0.500000
O O2 0.695045 0.578666 0.587131
O O3 0.794936 0.547297 0.500000
O O4 0.593823 0.841641 0.253599
O O5 0.700640 0.826168 0.157408
O O6 0.667062 0.000000 0.250000
O O7 0.618935 0.944114 0.092262
O O8 0.500000 0.715759 0.250000
O O9 0.598861 0.665110 0.342726
O O10 0.518041 0.814443 0.402975
O O11 0.647112 0.500000 0.750000
O O12 0.706546 0.676532 0.733627
O O13 0.401155 0.116723 0.500000
O O14 0.500000 0.000000 0.000000
#
# Coordination Sequence:
#
# PCOD9497207 Si02
#       7
#     8  16  16  16   8   8   8
#     4  12  22  38  66 100 130 171 231 284 336 419
#     4  11  22  37  58  87 129 165 210 270 334 406
#     4  11  25  43  64  93 129 172 227 280 343 420
#     4  11  23  41  65  94 132 177 224 282 347 416
#     4  12  22  35  60  92 126 171 212 267 344 405
#     4  12  24  40  66 100 132 176 226 288 354 413
#     4  10  20  36  58  90 126 168 214 264 338 402
#
# _framework density 20.244215000000001
#
# number of rings (size 3 to 8) (size 9 to 14) (size 15 to 20)
#    0.000    0.800    3.000    6.000    0.000    0.800 
#    0.000    5.000    0.000    2.400    0.000    0.000 
#    0.000    0.000    0.000    0.000    0.000    0.000 
#
# Total GULP energy -223026.614970 kJ/mol
# GULP energy per Si atom -5575.665374 kJ/mol
# Density = 2.019814 g / cm^3
# Si number density = 20.244215 Si / 1000 Ang^3
#
#
#
# Elastic Constant Matrix: (Units=GPa)
#
#
# Indices 1 2 3 4 5 6 
#
# 1 89.5156 14.4917 10.1428 0.0000 0.0000 0.0000
# 2 14.4917 58.0827 25.1639 0.0000 0.0000 0.0000
# 3 10.1428 25.1639 108.8088 0.0000 0.0000 0.0000
# 4 0.0000 0.0000 0.0000 12.9539 0.0000 0.0000
# 5 0.0000 0.0000 0.0000 0.0000 34.2442 0.0000
# 6 0.0000 0.0000 0.0000 0.0000 0.0000 38.9317
#
#
#
# Elastic Compliance Matrix: (Units=1/GPa)
#
#
# Indices 1 2 3 4 5 6 
#
# 1 0.011662 -0.002710 -0.000460 0.000000 0.000000 0.000000
# 2 -0.002710 0.019764 -0.004318 0.000000 0.000000 0.000000
# 3 -0.000460 -0.004318 0.010232 0.000000 0.000000 0.000000
# 4 0.000000 0.000000 0.000000 0.077197 0.000000 0.000000
# 5 0.000000 0.000000 0.000000 0.000000 0.029202 0.000000
# 6 0.000000 0.000000 0.000000 0.000000 0.000000 0.025686
#
#
# Mechanical properties :
#
#
# Convention : Reuss Voigt Hill
#
# Bulk Modulus (GPa) = 37.48042 39.55599 38.51821
# Shear Modulus (GPa) = 25.30192 30.99989 28.15090
#
# Velocity S-wave (km/s) = 3.53914 3.91742 3.73307
# Velocity P-wave (km/s) = 5.93759 6.32799 6.13589
#
# Compressibility (1/GPa) = 0.02668059
#
# Stress axis : x y z
#
# Youngs Moduli (GPa) = 85.74740 50.59743 97.73286
#
# Poissons Ratio (x) = 0.13713 0.04499
# Poissons Ratio (y) = 0.23240 0.42202
# Poissons Ratio (z) = 0.03947 0.21848
#
# Static dielectric constant tensor:
#      x y z
#    x 1.748660 0.000000 0.000000 
#    y 0.000000 1.767230 0.000000 
#    z 0.000000 0.000000 1.895350 
# 
# From -- ./inp_files/32164.got.cif
#   From: 2010.05.17/outbox.cif.g08.bks.cpg/sg66_17_cif.got.tgz:32164.got - 2010.06.03 17:51:23.
