data_PCOD9497516
_publ_section_title
;
Structure prediction by ZEFSAII (Michael W. Deem and Ramdas Pophale) SiO2 
 PCOD9497516
Probable space group: C C C M
;
_chemical_formula_sum "Si O2"
_cell_formula_units_Z 80
_cell_length_a 11.472365
_cell_length_b 23.664057
_cell_length_c 14.953701
_cell_angle_alpha 90.000000
_cell_angle_beta 90.000000
_cell_angle_gamma 90.000000
_cell_volume 4059.671112
_symmetry_space_group_name_H-M "C C C M"
_symmetry_group_IT_number 66
_symmetry_cell_setting 'orthorhombic'
loop_
_space_group_symop_operation_xyz
x,y,z
-x,-y,z
x,-y,1/2-z
-x,y,1/2-z
-x,-y,-z
x,y,-z
-x,y,1/2+z
x,-y,1/2+z
1/2+x,1/2+y,z
1/2-x,1/2-y,z
1/2+x,1/2-y,1/2-z
1/2-x,1/2+y,1/2-z
1/2-x,1/2-y,-z
1/2+x,1/2+y,-z
1/2-x,1/2+y,1/2+z
1/2+x,1/2-y,1/2+z
loop_
_atom_site_type_symbol
_atom_site_label
_atom_site_fract_x
_atom_site_fract_y
_atom_site_fract_z
Si Si1 0.741919 0.519690 0.500000
Si Si2 0.000000 0.647401 0.250000
Si Si3 0.714293 0.190484 0.345367
Si Si4 0.578460 0.373768 0.000000
Si Si5 0.874513 0.139307 0.797395
Si Si6 0.696726 0.387630 0.500000
Si Si7 0.677511 0.946577 0.688460
O O1 0.632129 0.562731 0.500000
O O2 0.706917 0.454732 0.500000
O O3 0.815807 0.533133 0.587508
O O4 0.080998 0.684557 0.314477
O O5 0.087695 0.604737 0.199872
O O6 0.750000 0.250000 0.387270
O O7 0.796270 0.183146 0.258144
O O8 0.744294 0.140027 0.413048
O O9 0.617438 0.348491 0.096184
O O10 0.439488 0.373100 0.000000
O O11 0.803959 0.080192 0.787843
O O12 0.000000 0.136070 0.750000
O O13 0.649936 0.000000 0.750000
#
# Coordination Sequence:
#
# PCOD9497516 Si02
#       7
#     8   8  16   8  16   8  16
#     4  10  21  36  60  90 127 167 198 242 311 379
#     4  10  23  42  60  86 124 160 211 256 304 378
#     4  11  25  42  65  89 120 165 213 266 319 361
#     4  10  21  35  62  94 129 165 203 248 316 380
#     4  10  20  38  60  89 127 164 203 257 306 366
#     4  12  22  39  59  96 128 158 209 262 308 375
#     4  10  21  37  58  89 125 165 203 240 303 378
#
# _framework density 19.706030999999999
#
# number of rings (size 3 to 8) (size 9 to 14) (size 15 to 20)
#    0.000    1.600    2.000    3.300    1.400    1.200 
#    0.000    4.500    0.000    0.000    0.000    0.000 
#    0.000    0.000    0.000    0.000    0.000    0.000 
#
# Total GULP energy -223305.565848 kJ/mol
# GULP energy per Si atom -5582.639146 kJ/mol
# Density = 1.966118 g / cm^3
# Si number density = 19.706031 Si / 1000 Ang^3
#
#
#
# Elastic Constant Matrix: (Units=GPa)
#
#
# Indices 1 2 3 4 5 6 
#
# 1 101.7290 2.3075 29.8405 0.0000 0.0000 0.0000
# 2 2.3075 23.2642 5.8825 0.0000 0.0000 0.0000
# 3 29.8405 5.8825 109.5787 0.0000 0.0000 0.0000
# 4 0.0000 0.0000 0.0000 98.8817 0.0000 0.0000
# 5 0.0000 0.0000 0.0000 0.0000 74.8595 0.0000
# 6 0.0000 0.0000 0.0000 0.0000 0.0000 14.3161
#
#
#
# Elastic Compliance Matrix: (Units=1/GPa)
#
#
# Indices 1 2 3 4 5 6 
#
# 1 0.010686 -0.000329 -0.002892 0.000000 0.000000 0.000000
# 2 -0.000329 0.043586 -0.002250 0.000000 0.000000 0.000000
# 3 -0.002892 -0.002250 0.010034 0.000000 0.000000 0.000000
# 4 0.000000 0.000000 0.000000 0.010113 0.000000 0.000000
# 5 0.000000 0.000000 0.000000 0.000000 0.013358 0.000000
# 6 0.000000 0.000000 0.000000 0.000000 0.000000 0.069852
#
#
# Mechanical properties :
#
#
# Convention : Reuss Voigt Hill
#
# Bulk Modulus (GPa) = 18.73931 34.51479 26.62705
# Shear Modulus (GPa) = 26.82981 50.71421 38.77201
#
# Velocity S-wave (km/s) = 3.69386 5.07851 4.44049
# Velocity P-wave (km/s) = 5.26525 7.20702 6.31126
#
# Compressibility (1/GPa) = 0.05336377
#
# Stress axis : x y z
#
# Youngs Moduli (GPa) = 93.58110 22.94308 99.65802
#
# Poissons Ratio (x) = 0.00754 0.28825
# Poissons Ratio (y) = 0.03075 0.22427
# Poissons Ratio (z) = 0.27067 0.05163
#
# Static dielectric constant tensor:
#      x y z
#    x 1.693800 0.000000 0.000000 
#    y 0.000000 1.678400 0.000000 
#    z 0.000000 0.000000 1.727090 
# 
# From -- ./inp_files/26472.got.cif
#   From: 2010.05.17/outbox.cif.g08.bks.cpg/sg66_14_cif.got.tgz:26472.got - 2010.06.03 17:51:23.
