data_PCOD9497171
_publ_section_title
;
Structure prediction by ZEFSAII (Michael W. Deem and Ramdas Pophale) SiO2 
 PCOD9497171
Probable space group: C C C M
;
_chemical_formula_sum "Si O2"
_cell_formula_units_Z 72
_cell_length_a 14.246964
_cell_length_b 17.871812
_cell_length_c 15.868204
_cell_angle_alpha 90.000000
_cell_angle_beta 90.000000
_cell_angle_gamma 90.000000
_cell_volume 4040.347221
_symmetry_space_group_name_H-M "C C C M"
_symmetry_group_IT_number 66
_symmetry_cell_setting 'orthorhombic'
loop_
_space_group_symop_operation_xyz
x,y,z
-x,-y,z
x,-y,1/2-z
-x,y,1/2-z
-x,-y,-z
x,y,-z
-x,y,1/2+z
x,-y,1/2+z
1/2+x,1/2+y,z
1/2-x,1/2-y,z
1/2+x,1/2-y,1/2-z
1/2-x,1/2+y,1/2-z
1/2-x,1/2-y,-z
1/2+x,1/2+y,-z
1/2-x,1/2+y,1/2+z
1/2+x,1/2-y,1/2+z
loop_
_atom_site_type_symbol
_atom_site_label
_atom_site_fract_x
_atom_site_fract_y
_atom_site_fract_z
Si Si1 0.000000 0.769013 0.750000
Si Si2 0.295016 0.327558 0.755798
Si Si3 0.819723 0.455817 0.663611
Si Si4 0.016854 0.348603 0.097344
Si Si5 0.299833 0.109257 0.591705
O O1 0.905450 0.817106 0.744922
O O2 0.986108 0.716536 0.832461
O O3 0.250000 0.250000 0.787865
O O4 0.260121 0.395714 0.813334
O O5 0.248454 0.344801 0.665502
O O6 0.846662 0.500000 0.750000
O O7 0.907360 0.410351 0.626213
O O8 0.782270 0.521206 0.603992
O O9 0.912064 0.381932 0.098378
O O10 0.036499 0.325401 0.000000
O O11 0.269123 0.135427 0.500000
#
# Coordination Sequence:
#
# PCOD9497171 Si02
#       5
#     8  16  16  16  16
#     4  12  22  40  56  86 122 148 194 238 282 340
#     4  11  21  37  60  82 112 158 191 231 286 342
#     4  10  20  36  56  84 118 153 189 233 291 344
#     4  11  21  34  60  91 119 148 183 237 299 348
#     4  10  21  36  58  87 115 146 190 242 287 339
#
# _framework density 17.820250000000001
#
# number of rings (size 3 to 8) (size 9 to 14) (size 15 to 20)
#    0.000    1.333    4.444    2.667    0.000    5.778 
#    0.000    8.333    0.000    1.333    0.000    0.000 
#    0.000    0.000    0.000    0.000    0.000    0.000 
#
# Total GULP energy -200926.325078 kJ/mol
# GULP energy per Si atom -5581.286808 kJ/mol
# Density = 1.777969 g / cm^3
# Si number density = 17.820250 Si / 1000 Ang^3
#
#
#
# Elastic Constant Matrix: (Units=GPa)
#
#
# Indices 1 2 3 4 5 6 
#
# 1 87.7597 31.1039 11.1153 0.0000 0.0000 0.0000
# 2 31.1039 76.8041 28.4305 0.0000 0.0000 0.0000
# 3 11.1153 28.4305 74.8069 0.0000 0.0000 0.0000
# 4 0.0000 0.0000 0.0000 5.5594 0.0000 0.0000
# 5 0.0000 0.0000 0.0000 0.0000 8.1648 0.0000
# 6 0.0000 0.0000 0.0000 0.0000 0.0000 31.5472
#
#
#
# Elastic Compliance Matrix: (Units=1/GPa)
#
#
# Indices 1 2 3 4 5 6 
#
# 1 0.013305 -0.005419 0.000082 0.000000 0.000000 0.000000
# 2 -0.005419 0.017359 -0.005792 0.000000 0.000000 0.000000
# 3 0.000082 -0.005792 0.015557 0.000000 0.000000 0.000000
# 4 0.000000 0.000000 0.000000 0.179876 0.000000 0.000000
# 5 0.000000 0.000000 0.000000 0.000000 0.122477 0.000000
# 6 0.000000 0.000000 0.000000 0.000000 0.000000 0.031699
#
#
# Mechanical properties :
#
#
# Convention : Reuss Voigt Hill
#
# Bulk Modulus (GPa) = 41.72976 42.29667 42.01321
# Shear Modulus (GPa) = 12.17980 20.30234 16.24107
#
# Velocity S-wave (km/s) = 2.61718 3.37899 3.02219
# Velocity P-wave (km/s) = 5.70971 6.24581 5.98376
#
# Compressibility (1/GPa) = 0.02396371
#
# Stress axis : x y z
#
# Youngs Moduli (GPa) = 75.16089 57.60838 64.28070
#
# Poissons Ratio (x) = 0.31216 -0.00530
# Poissons Ratio (y) = 0.40727 0.37231
# Poissons Ratio (z) = -0.00620 0.33367
#
# Static dielectric constant tensor:
#      x y z
#    x 1.578010 0.000000 0.000000 
#    y 0.000000 1.609990 0.000000 
#    z 0.000000 0.000000 1.648430 
# 
# From -- ./inp_files/40035.got.cif
#   From: 2010.05.17/outbox.cif.g08.bks.cpg/sg66_21_cif.got.tgz:40035.got - 2010.06.03 17:51:23.
