data_PCOD9497181
_publ_section_title
;
Structure prediction by ZEFSAII (Michael W. Deem and Ramdas Pophale) SiO2 
 PCOD9497181
Probable space group: C C C M
;
_chemical_formula_sum "Si O2"
_cell_formula_units_Z 80
_cell_length_a 9.116812
_cell_length_b 26.568679
_cell_length_c 16.169741
_cell_angle_alpha 90.000000
_cell_angle_beta 90.000000
_cell_angle_gamma 90.000000
_cell_volume 3916.661370
_symmetry_space_group_name_H-M "C C C M"
_symmetry_group_IT_number 66
_symmetry_cell_setting 'orthorhombic'
loop_
_space_group_symop_operation_xyz
x,y,z
-x,-y,z
x,-y,1/2-z
-x,y,1/2-z
-x,-y,-z
x,y,-z
-x,y,1/2+z
x,-y,1/2+z
1/2+x,1/2+y,z
1/2-x,1/2-y,z
1/2+x,1/2-y,1/2-z
1/2-x,1/2+y,1/2-z
1/2-x,1/2-y,-z
1/2+x,1/2+y,-z
1/2-x,1/2+y,1/2+z
1/2+x,1/2-y,1/2+z
loop_
_atom_site_type_symbol
_atom_site_label
_atom_site_fract_x
_atom_site_fract_y
_atom_site_fract_z
Si Si1 0.326305 0.299049 0.847359
Si Si2 0.655492 0.297312 0.848894
Si Si3 0.200637 0.398352 0.405879
Si Si4 0.175509 0.491097 0.095743
Si Si5 0.102228 0.608889 0.333417
O O1 0.250000 0.250000 0.884351
O O2 0.490428 0.303180 0.882450
O O3 0.350105 0.289135 0.749546
O O4 0.214940 0.345918 0.848203
O O5 0.750000 0.250000 0.883197
O O6 0.732622 0.350896 0.860291
O O7 0.250757 0.396680 0.500000
O O8 0.236493 0.454819 0.374738
O O9 0.025126 0.391487 0.402089
O O10 0.191052 0.443279 0.155244
O O11 0.000000 0.500000 0.093176
O O12 0.222377 0.481547 0.000000
O O13 0.000000 0.611183 0.250000
#
# Coordination Sequence:
#
# PCOD9497181 Si02
#       5
#    16  16  16  16  16
#     4  10  21  35  57  84 113 142 188 241 290 334
#     4  10  20  37  58  80 113 151 191 234 285 342
#     4  10  20  36  57  83 117 155 190 229 285 340
#     4   8  17  33  53  79 114 150 187 229 275 335
#     4  11  19  33  57  88 111 147 188 239 278 328
#
# _framework density 20.425560000000001
#
# number of rings (size 3 to 8) (size 9 to 14) (size 15 to 20)
#    0.000    2.200    2.000    3.000    2.800    4.000 
#    0.000    3.000    0.000    9.000    0.000    0.000 
#    0.000    0.000    0.000    0.000    0.000    0.000 
#
# Total GULP energy -222668.708453 kJ/mol
# GULP energy per Si atom -5566.717711 kJ/mol
# Density = 2.037907 g / cm^3
# Si number density = 20.425560 Si / 1000 Ang^3
#
#
#
# Elastic Constant Matrix: (Units=GPa)
#
#
# Indices 1 2 3 4 5 6 
#
# 1 96.3305 87.4484 4.1704 0.0000 0.0000 0.0000
# 2 87.4484 196.5808 20.7443 0.0000 0.0000 0.0000
# 3 4.1704 20.7443 28.2024 0.0000 0.0000 0.0000
# 4 0.0000 0.0000 0.0000 37.2547 0.0000 0.0000
# 5 0.0000 0.0000 0.0000 0.0000 5.8205 0.0000
# 6 0.0000 0.0000 0.0000 0.0000 0.0000 11.2397
#
#
#
# Elastic Compliance Matrix: (Units=1/GPa)
#
#
# Indices 1 2 3 4 5 6 
#
# 1 0.017716 -0.008244 0.003444 0.000000 0.000000 0.000000
# 2 -0.008244 0.009352 -0.005660 0.000000 0.000000 0.000000
# 3 0.003444 -0.005660 0.039112 0.000000 0.000000 0.000000
# 4 0.000000 0.000000 0.000000 0.026842 0.000000 0.000000
# 5 0.000000 0.000000 0.000000 0.000000 0.171807 0.000000
# 6 0.000000 0.000000 0.000000 0.000000 0.000000 0.088971
#
#
# Mechanical properties :
#
#
# Convention : Reuss Voigt Hill
#
# Bulk Modulus (GPa) = 22.09440 60.64888 41.37164
# Shear Modulus (GPa) = 12.82693 24.77967 18.80330
#
# Velocity S-wave (km/s) = 2.50868 3.48684 3.03739
# Velocity P-wave (km/s) = 4.38541 6.77996 5.70962
#
# Compressibility (1/GPa) = 0.04526035
#
# Stress axis : x y z
#
# Youngs Moduli (GPa) = 56.44595 106.93234 25.56789
#
# Poissons Ratio (x) = 0.88160 -0.08807
# Poissons Ratio (y) = 0.46536 0.14470
# Poissons Ratio (z) = -0.19443 0.60519
#
# Static dielectric constant tensor:
#      x y z
#    x 1.744140 0.000000 0.000000 
#    y 0.000000 1.779830 0.000000 
#    z 0.000000 0.000000 1.776160 
# 
# From -- ./inp_files/37007.got.cif
#   From: 2010.05.17/outbox.cif.g08.bks.cpg/sg66_19_cif.got.tgz:37007.got - 2010.06.03 17:51:23.
