data_PCOD9497701
_publ_section_title
;
Structure prediction by ZEFSAII (Michael W. Deem and Ramdas Pophale) SiO2 
 PCOD9497701
Probable space group: C C C M
;
_chemical_formula_sum "Si O2"
_cell_formula_units_Z 112
_cell_length_a 10.915458
_cell_length_b 26.263926
_cell_length_c 18.296128
_cell_angle_alpha 90.000000
_cell_angle_beta 90.000000
_cell_angle_gamma 90.000000
_cell_volume 5245.184860
_symmetry_space_group_name_H-M "C C C M"
_symmetry_group_IT_number 66
_symmetry_cell_setting 'orthorhombic'
loop_
_space_group_symop_operation_xyz
x,y,z
-x,-y,z
x,-y,1/2-z
-x,y,1/2-z
-x,-y,-z
x,y,-z
-x,y,1/2+z
x,-y,1/2+z
1/2+x,1/2+y,z
1/2-x,1/2-y,z
1/2+x,1/2-y,1/2-z
1/2-x,1/2+y,1/2-z
1/2-x,1/2-y,-z
1/2+x,1/2+y,-z
1/2-x,1/2+y,1/2+z
1/2+x,1/2-y,1/2+z
loop_
_atom_site_type_symbol
_atom_site_label
_atom_site_fract_x
_atom_site_fract_y
_atom_site_fract_z
Si Si1 0.730418 0.112977 0.651329
Si Si2 0.606291 0.694587 0.299532
Si Si3 0.877381 0.966356 0.417602
Si Si4 0.182238 0.547983 0.205149
Si Si5 0.862276 0.689622 0.751782
Si Si6 0.986687 0.860957 0.917611
Si Si7 0.998985 0.438502 0.581754
O O1 0.727514 0.083927 0.729282
O O2 0.686593 0.170585 0.669891
O O3 0.864755 0.117199 0.619460
O O4 0.634043 0.084427 0.599604
O O5 0.500000 0.667897 0.250000
O O6 0.745895 0.674952 0.299237
O O7 0.620277 0.750833 0.266011
O O8 0.546723 0.687286 0.377968
O O9 0.827312 0.977628 0.500000
O O10 0.785978 0.973340 0.350156
O O11 0.916920 0.907358 0.415581
O O12 0.000000 0.000000 0.409473
O O13 0.130554 0.500000 0.250000
O O14 0.086804 0.574549 0.150006
O O15 0.000000 0.667554 0.750000
O O16 0.955852 0.848475 0.000000
O O17 0.038286 0.422038 0.500000
O O18 0.000000 0.500000 0.581630
#
# Coordination Sequence:
#
# PCOD9497701 Si02
#       7
#    16  16  16  16  16  16  16
#     4  12  23  39  66  98 132 174 236 288 339 411
#     4  10  20  41  69  99 134 174 228 283 362 411
#     4  10  23  40  58  88 133 179 222 280 346 410
#     4  12  23  37  61  93 128 173 233 283 335 406
#     4  10  21  37  67 103 131 171 227 287 351 417
#     4  11  24  42  67 100 137 184 237 289 352 426
#     4  11  24  41  61  89 137 186 221 276 351 416
#
# _framework density 21.352917000000001
#
# number of rings (size 3 to 8) (size 9 to 14) (size 15 to 20)
#    0.000    1.143    2.857    3.857    0.000    1.429 
#    0.000    1.429    0.000   16.286    0.000    0.000 
#    0.000    0.000    0.000    0.000    0.000    0.000 
#
# Total GULP energy -312194.883927 kJ/mol
# GULP energy per Si atom -5574.908642 kJ/mol
# Density = 2.130432 g / cm^3
# Si number density = 21.352917 Si / 1000 Ang^3
#
#
#
# Elastic Constant Matrix: (Units=GPa)
#
#
# Indices 1 2 3 4 5 6 
#
# 1 146.7032 10.2301 72.3452 0.0000 0.0000 0.0000
# 2 10.2301 77.4054 30.7781 0.0000 0.0000 0.0000
# 3 72.3452 30.7781 144.0709 0.0000 0.0000 0.0000
# 4 0.0000 0.0000 0.0000 11.8915 0.0000 0.0000
# 5 0.0000 0.0000 0.0000 0.0000 36.4060 0.0000
# 6 0.0000 0.0000 0.0000 0.0000 0.0000 19.8328
#
#
#
# Elastic Compliance Matrix: (Units=1/GPa)
#
#
# Indices 1 2 3 4 5 6 
#
# 1 0.009092 0.000671 -0.004709 0.000000 0.000000 0.000000
# 2 0.000671 0.014168 -0.003363 0.000000 0.000000 0.000000
# 3 -0.004709 -0.003363 0.010024 0.000000 0.000000 0.000000
# 4 0.000000 0.000000 0.000000 0.084094 0.000000 0.000000
# 5 0.000000 0.000000 0.000000 0.000000 0.027468 0.000000
# 6 0.000000 0.000000 0.000000 0.000000 0.000000 0.050421
#
#
# Mechanical properties :
#
#
# Convention : Reuss Voigt Hill
#
# Bulk Modulus (GPa) = 54.11082 66.09847 60.10464
# Shear Modulus (GPa) = 23.12353 30.61447 26.86900
#
# Velocity S-wave (km/s) = 3.29435 3.79058 3.55114
# Velocity P-wave (km/s) = 6.31399 7.08382 6.70995
#
# Compressibility (1/GPa) = 0.01848059
#
# Stress axis : x y z
#
# Youngs Moduli (GPa) = 109.98966 70.58286 99.76012
#
# Poissons Ratio (x) = -0.04734 0.46974
# Poissons Ratio (y) = -0.07377 0.33554
# Poissons Ratio (z) = 0.51791 0.23740
#
# Static dielectric constant tensor:
#      x y z
#    x 1.815180 0.000000 0.000000 
#    y 0.000000 1.848950 0.000000 
#    z 0.000000 0.000000 1.781010 
# 
# From -- ./inp_files/26984.got.cif
#   From: 2010.05.17/outbox.cif.g08.bks.cpg/sg66_14_cif.got.tgz:26984.got - 2010.06.03 17:51:23.
