data_PCOD9497778
_publ_section_title
;
Structure prediction by ZEFSAII (Michael W. Deem and Ramdas Pophale) SiO2 
 PCOD9497778
Probable space group: C C C M
;
_chemical_formula_sum "Si O2"
_cell_formula_units_Z 96
_cell_length_a 20.397542
_cell_length_b 27.941133
_cell_length_c 10.056324
_cell_angle_alpha 90.000000
_cell_angle_beta 90.000000
_cell_angle_gamma 90.000000
_cell_volume 5731.405101
_symmetry_space_group_name_H-M "C C C M"
_symmetry_group_IT_number 66
_symmetry_cell_setting 'orthorhombic'
loop_
_space_group_symop_operation_xyz
x,y,z
-x,-y,z
x,-y,1/2-z
-x,y,1/2-z
-x,-y,-z
x,y,-z
-x,y,1/2+z
x,-y,1/2+z
1/2+x,1/2+y,z
1/2-x,1/2-y,z
1/2+x,1/2-y,1/2-z
1/2-x,1/2+y,1/2-z
1/2-x,1/2-y,-z
1/2+x,1/2+y,-z
1/2-x,1/2+y,1/2+z
1/2+x,1/2-y,1/2+z
loop_
_atom_site_type_symbol
_atom_site_label
_atom_site_fract_x
_atom_site_fract_y
_atom_site_fract_z
Si Si1 0.086235 0.749551 0.500000
Si Si2 0.196545 0.293733 0.500000
Si Si3 0.556114 0.575157 0.847376
Si Si4 0.096880 0.179765 0.247677
Si Si5 0.558952 0.737321 0.500000
Si Si6 0.214776 0.301082 0.000000
Si Si7 0.242374 0.148177 0.733576
Si Si8 0.707134 0.454417 0.339883
O O1 0.100872 0.782082 0.371013
O O2 0.137232 0.706653 0.500000
O O3 0.010132 0.735416 0.500000
O O4 0.250000 0.250000 0.500000
O O5 0.124480 0.269732 0.500000
O O6 0.210145 0.328395 0.625052
O O7 0.500000 0.556418 0.750000
O O8 0.567494 0.630928 0.810306
O O9 0.627872 0.551815 0.834072
O O10 0.534668 0.571094 0.000000
O O11 0.059503 0.203605 0.370223
O O12 0.169079 0.166084 0.300289
O O13 0.250000 0.250000 0.000000
O O14 0.238464 0.328514 0.127996
O O15 0.237859 0.091882 0.765763
O O16 0.725049 0.500000 0.250000
O O17 0.723256 0.456479 0.500000
#
# Coordination Sequence:
#
# PCOD9497778 Si02
#       8
#     8   8  16  16   8   8  16  16
#     4  12  22  32  52  78 110 152 187 227 274 312
#     4  12  22  38  55  82 117 154 190 229 274 337
#     4  10  21  35  52  76 107 146 190 233 285 334
#     4  11  20  34  50  74 110 150 193 235 267 318
#     4  12  24  34  48  78 118 150 191 229 270 324
#     4  12  20  34  61  80 109 152 190 229 270 335
#     4  11  21  38  58  83 108 148 196 233 275 335
#     4  10  23  41  60  82 108 139 185 245 297 337
#
# _framework density 16.74982
#
# number of rings (size 3 to 8) (size 9 to 14) (size 15 to 20)
#    0.000    1.000    5.000    3.000    2.333    1.000 
#    0.000    1.667    0.000    0.000    0.000    0.000 
#    0.000    4.000    0.000    0.000    0.000    0.000 
#
# Total GULP energy -268042.316565 kJ/mol
# GULP energy per Si atom -5584.214928 kJ/mol
# Density = 1.671170 g / cm^3
# Si number density = 16.749820 Si / 1000 Ang^3
#
#
#
# Elastic Constant Matrix: (Units=GPa)
#
#
# Indices 1 2 3 4 5 6 
#
# 1 63.3418 28.4141 -7.1058 0.0000 0.0000 0.0000
# 2 28.4141 99.3865 39.3552 0.0000 0.0000 0.0000
# 3 -7.1058 39.3552 96.7589 0.0000 0.0000 0.0000
# 4 0.0000 0.0000 0.0000 21.4770 0.0000 0.0000
# 5 0.0000 0.0000 0.0000 0.0000 21.3894 0.0000
# 6 0.0000 0.0000 0.0000 0.0000 0.0000 8.9266
#
#
#
# Elastic Compliance Matrix: (Units=1/GPa)
#
#
# Indices 1 2 3 4 5 6 
#
# 1 0.019582 -0.007352 0.004428 0.000000 0.000000 0.000000
# 2 -0.007352 0.014754 -0.006541 0.000000 0.000000 0.000000
# 3 0.004428 -0.006541 0.013321 0.000000 0.000000 0.000000
# 4 0.000000 0.000000 0.000000 0.046562 0.000000 0.000000
# 5 0.000000 0.000000 0.000000 0.000000 0.046752 0.000000
# 6 0.000000 0.000000 0.000000 0.000000 0.000000 0.112025
#
#
# Mechanical properties :
#
#
# Convention : Reuss Voigt Hill
#
# Bulk Modulus (GPa) = 34.80973 42.31270 38.56121
# Shear Modulus (GPa) = 17.76202 23.61350 20.68776
#
# Velocity S-wave (km/s) = 3.25996 3.75877 3.51822
# Velocity P-wave (km/s) = 5.91583 6.64487 6.29092
#
# Compressibility (1/GPa) = 0.02872760
#
# Stress axis : x y z
#
# Youngs Moduli (GPa) = 51.06697 67.77991 75.07217
#
# Poissons Ratio (x) = 0.49832 -0.33245
# Poissons Ratio (y) = 0.37544 0.49103
# Poissons Ratio (z) = -0.22614 0.44333
#
# Static dielectric constant tensor:
#      x y z
#    x 1.585810 0.000000 0.000000 
#    y 0.000000 1.567840 0.000000 
#    z 0.000000 0.000000 1.569680 
# 
# From -- ./inp_files/9203.got.cif
#   From: 2010.05.17/outbox.cif.g08.bks.cpg/sg66_5_cif.got.tgz:9203.got - 2010.06.03 17:51:23.
