data_PCOD9497201
_publ_section_title
;
Structure prediction by ZEFSAII (Michael W. Deem and Ramdas Pophale) SiO2 
 PCOD9497201
Probable space group: C C C M
;
_chemical_formula_sum "Si O2"
_cell_formula_units_Z 116
_cell_length_a 27.112571
_cell_length_b 24.562343
_cell_length_c 8.990436
_cell_angle_alpha 90.000000
_cell_angle_beta 90.000000
_cell_angle_gamma 90.000000
_cell_volume 5987.165287
_symmetry_space_group_name_H-M "C C C M"
_symmetry_group_IT_number 66
_symmetry_cell_setting 'orthorhombic'
loop_
_space_group_symop_operation_xyz
x,y,z
-x,-y,z
x,-y,1/2-z
-x,y,1/2-z
-x,-y,-z
x,y,-z
-x,y,1/2+z
x,-y,1/2+z
1/2+x,1/2+y,z
1/2-x,1/2-y,z
1/2+x,1/2-y,1/2-z
1/2-x,1/2+y,1/2-z
1/2-x,1/2-y,-z
1/2+x,1/2+y,-z
1/2-x,1/2+y,1/2+z
1/2+x,1/2-y,1/2+z
loop_
_atom_site_type_symbol
_atom_site_label
_atom_site_fract_x
_atom_site_fract_y
_atom_site_fract_z
Si Si1 0.500000 0.500000 0.250000
Si Si2 0.694268 0.745278 0.328102
Si Si3 0.175535 0.059186 0.325050
Si Si4 0.420474 0.410607 0.833419
Si Si5 0.228398 0.560043 0.677578
Si Si6 0.402249 0.708464 0.674644
Si Si7 0.647672 0.133762 0.172885
Si Si8 0.447695 0.823607 0.320932
O O1 0.537373 0.543428 0.173986
O O2 0.698991 0.727021 0.500000
O O3 0.750000 0.750000 0.265023
O O4 0.651477 0.708921 0.252786
O O5 0.672230 0.806238 0.324226
O O6 0.184457 0.056674 0.500000
O O7 0.121528 0.080534 0.288275
O O8 0.221703 0.087253 0.244056
O O9 0.174425 0.000000 0.250000
O O10 0.433416 0.347191 0.810055
O O11 0.398320 0.414796 0.000000
O O12 0.224760 0.500000 0.750000
O O13 0.231300 0.556467 0.500000
O O14 0.182338 0.594194 0.734082
O O15 0.391952 0.715295 0.500000
O O16 0.432691 0.761487 0.722583
O O17 0.594877 0.139441 0.250431
O O18 0.644198 0.117088 0.000000
O O19 0.500000 0.836639 0.250000
O O20 0.448640 0.827439 0.500000
#
# Coordination Sequence:
#
# PCOD9497201 Si02
#       8
#     4  16  16  16  16  16  16  16
#     4  12  26  40  68  82 118 160 210 268 334 376
#     4   9  19  35  55  84 119 153 192 239 295 364
#     4  11  22  38  59  82 111 149 193 242 296 356
#     4  11  24  42  59  83 114 150 201 257 316 373
#     4  11  22  38  61  90 124 160 200 242 290 349
#     4   9  21  38  56  81 114 151 196 248 302 365
#     4  10  20  36  58  87 123 158 198 243 294 356
#     4  10  20  37  60  86 117 154 197 246 300 355
#
# _framework density 19.374777999999999
#
# number of rings (size 3 to 8) (size 9 to 14) (size 15 to 20)
#    0.000    1.793    0.690    4.345    2.897    2.483 
#    0.000    0.000    0.000    0.414    0.000    2.897 
#    0.000    0.000    0.000    0.000    0.000    0.000 
#
# Total GULP energy -323473.873853 kJ/mol
# GULP energy per Si atom -5577.135756 kJ/mol
# Density = 1.933068 g / cm^3
# Si number density = 19.374778 Si / 1000 Ang^3
#
#
#
# Elastic Constant Matrix: (Units=GPa)
#
#
# Indices 1 2 3 4 5 6 
#
# 1 123.4197 19.0003 50.4075 0.0000 0.0000 0.0000
# 2 19.0003 46.1142 25.0886 0.0000 0.0000 0.0000
# 3 50.4075 25.0886 125.2974 0.0000 0.0000 0.0000
# 4 0.0000 0.0000 0.0000 9.8278 0.0000 0.0000
# 5 0.0000 0.0000 0.0000 0.0000 17.9220 0.0000
# 6 0.0000 0.0000 0.0000 0.0000 0.0000 24.5945
#
#
#
# Elastic Compliance Matrix: (Units=1/GPa)
#
#
# Indices 1 2 3 4 5 6 
#
# 1 0.009880 -0.002142 -0.003546 0.000000 0.000000 0.000000
# 2 -0.002142 0.024801 -0.004104 0.000000 0.000000 0.000000
# 3 -0.003546 -0.004104 0.010229 0.000000 0.000000 0.000000
# 4 0.000000 0.000000 0.000000 0.101752 0.000000 0.000000
# 5 0.000000 0.000000 0.000000 0.000000 0.055797 0.000000
# 6 0.000000 0.000000 0.000000 0.000000 0.000000 0.040659
#
#
# Mechanical properties :
#
#
# Convention : Reuss Voigt Hill
#
# Bulk Modulus (GPa) = 39.48456 53.75823 46.62140
# Shear Modulus (GPa) = 18.44029 23.82455 21.13242
#
# Velocity S-wave (km/s) = 3.08842 3.51047 3.30619
# Velocity P-wave (km/s) = 5.75686 6.65116 6.22010
#
# Compressibility (1/GPa) = 0.02532636
#
# Stress axis : x y z
#
# Youngs Moduli (GPa) = 101.20994 40.32144 97.75728
#
# Poissons Ratio (x) = 0.08636 0.34666
# Poissons Ratio (y) = 0.21677 0.40122
# Poissons Ratio (z) = 0.35890 0.16549
#
# Static dielectric constant tensor:
#      x y z
#    x 1.711890 0.000000 0.000000 
#    y 0.000000 1.809160 0.000000 
#    z 0.000000 0.000000 1.668270 
# 
# From -- ./inp_files/10593.got.cif
#   From: 2010.05.17/outbox.cif.g08.bks.cpg/sg66_6_cif.got.tgz:10593.got - 2010.06.03 17:51:23.
