data_PCOD9497815
_publ_section_title
;
Structure prediction by ZEFSAII (Michael W. Deem and Ramdas Pophale) SiO2 
 PCOD9497815
Probable space group: C C C M
;
_chemical_formula_sum "Si O2"
_cell_formula_units_Z 80
_cell_length_a 9.047665
_cell_length_b 22.486620
_cell_length_c 19.005320
_cell_angle_alpha 90.000000
_cell_angle_beta 90.000000
_cell_angle_gamma 90.000000
_cell_volume 3866.659052
_symmetry_space_group_name_H-M "C C C M"
_symmetry_group_IT_number 66
_symmetry_cell_setting 'orthorhombic'
loop_
_space_group_symop_operation_xyz
x,y,z
-x,-y,z
x,-y,1/2-z
-x,y,1/2-z
-x,-y,-z
x,y,-z
-x,y,1/2+z
x,-y,1/2+z
1/2+x,1/2+y,z
1/2-x,1/2-y,z
1/2+x,1/2-y,1/2-z
1/2-x,1/2+y,1/2-z
1/2-x,1/2-y,-z
1/2+x,1/2+y,-z
1/2-x,1/2+y,1/2+z
1/2+x,1/2-y,1/2+z
loop_
_atom_site_type_symbol
_atom_site_label
_atom_site_fract_x
_atom_site_fract_y
_atom_site_fract_z
Si Si1 0.059355 0.921111 0.344388
Si Si2 0.285913 0.181734 0.000000
Si Si3 0.914570 0.079751 0.500000
Si Si4 0.669455 0.017911 0.000000
Si Si5 0.787075 0.319963 0.654724
Si Si6 0.750668 0.039616 0.841137
Si Si7 0.000000 0.601558 0.750000
O O1 0.013413 0.933704 0.426266
O O2 0.135672 0.857684 0.340296
O O3 0.896505 0.925421 0.311367
O O4 0.184322 0.972087 0.331551
O O5 0.250000 0.250000 0.000000
O O6 0.130198 0.147851 0.000000
O O7 0.353645 0.169065 0.924056
O O8 0.763398 0.042885 0.500000
O O9 0.707369 0.047315 0.075913
O O10 0.500000 0.000000 0.000000
O O11 0.750000 0.250000 0.664988
O O12 0.897273 0.353317 0.706269
O O13 0.607546 0.060731 0.798003
#
# Coordination Sequence:
#
# PCOD9497815 Si02
#       7
#    16   8   8   8  16  16   8
#     4   9  19  40  64  88 123 163 202 257 306 379
#     4   8  16  35  62  86 109 149 208 258 298 354
#     4   8  15  30  60  91 114 149 199 245 305 360
#     4  10  21  35  62  93 125 160 195 262 311 372
#     4  10  23  42  65  91 121 166 216 262 316 369
#     4  10  23  39  62  95 125 163 205 250 322 372
#     4  12  28  39  60  94 132 169 206 264 312 389
#
# _framework density 20.689695
#
# number of rings (size 3 to 8) (size 9 to 14) (size 15 to 20)
#    0.000    2.400    0.000    0.600    8.400    6.400 
#    0.000    2.000    0.000    0.000    0.000   11.200 
#    0.000    0.000    0.000    0.000    0.000    0.000 
#
# Total GULP energy -222813.287530 kJ/mol
# GULP energy per Si atom -5570.332188 kJ/mol
# Density = 2.064260 g / cm^3
# Si number density = 20.689695 Si / 1000 Ang^3
#
#
#
# Elastic Constant Matrix: (Units=GPa)
#
#
# Indices 1 2 3 4 5 6 
#
# 1 149.3163 58.0389 62.9673 0.0000 0.0000 0.0000
# 2 58.0389 133.9829 50.6442 0.0000 0.0000 0.0000
# 3 62.9673 50.6442 135.8828 0.0000 0.0000 0.0000
# 4 0.0000 0.0000 0.0000 28.6553 0.0000 0.0000
# 5 0.0000 0.0000 0.0000 0.0000 25.6411 0.0000
# 6 0.0000 0.0000 0.0000 0.0000 0.0000 24.4256
#
#
#
# Elastic Compliance Matrix: (Units=1/GPa)
#
#
# Indices 1 2 3 4 5 6 
#
# 1 0.009111 -0.002736 -0.003202 0.000000 0.000000 0.000000
# 2 -0.002736 0.009509 -0.002276 0.000000 0.000000 0.000000
# 3 -0.003202 -0.002276 0.009692 0.000000 0.000000 0.000000
# 4 0.000000 0.000000 0.000000 0.034898 0.000000 0.000000
# 5 0.000000 0.000000 0.000000 0.000000 0.039000 0.000000
# 6 0.000000 0.000000 0.000000 0.000000 0.000000 0.040941
#
#
# Mechanical properties :
#
#
# Convention : Reuss Voigt Hill
#
# Bulk Modulus (GPa) = 84.15709 84.72031 84.43870
# Shear Modulus (GPa) = 30.57346 32.24651 31.40998
#
# Velocity S-wave (km/s) = 3.84828 3.95217 3.90057
# Velocity P-wave (km/s) = 7.77880 7.86531 7.82218
#
# Compressibility (1/GPa) = 0.01188254
#
# Stress axis : x y z
#
# Youngs Moduli (GPa) = 109.75490 105.15951 103.18311
#
# Poissons Ratio (x) = 0.28776 0.33041
# Poissons Ratio (y) = 0.30033 0.23486
# Poissons Ratio (z) = 0.35146 0.23936
#
# Static dielectric constant tensor:
#      x y z
#    x 1.727650 0.000000 0.000000 
#    y 0.000000 1.726720 0.000000 
#    z 0.000000 0.000000 1.906940 
# 
# From -- ./inp_files/47099.got.cif
#   From: 2010.05.17/outbox.cif.g08.bks.cpg/sg66_24_cif.got.tgz:47099.got - 2010.06.03 17:51:23.
