data_PCOD9497042
_publ_section_title
;
Structure prediction by ZEFSAII (Michael W. Deem and Ramdas Pophale) SiO2 
 PCOD9497042
Probable space group: C C C M
;
_chemical_formula_sum "Si O2"
_cell_formula_units_Z 96
_cell_length_a 27.172336
_cell_length_b 19.259117
_cell_length_c 9.500724
_cell_angle_alpha 90.000000
_cell_angle_beta 90.000000
_cell_angle_gamma 90.000000
_cell_volume 4971.873263
_symmetry_space_group_name_H-M "C C C M"
_symmetry_group_IT_number 66
_symmetry_cell_setting 'orthorhombic'
loop_
_space_group_symop_operation_xyz
x,y,z
-x,-y,z
x,-y,1/2-z
-x,y,1/2-z
-x,-y,-z
x,y,-z
-x,y,1/2+z
x,-y,1/2+z
1/2+x,1/2+y,z
1/2-x,1/2-y,z
1/2+x,1/2-y,1/2-z
1/2-x,1/2+y,1/2-z
1/2-x,1/2-y,-z
1/2+x,1/2+y,-z
1/2-x,1/2+y,1/2+z
1/2+x,1/2-y,1/2+z
loop_
_atom_site_type_symbol
_atom_site_label
_atom_site_fract_x
_atom_site_fract_y
_atom_site_fract_z
Si Si1 0.294173 0.561621 0.654929
Si Si2 0.948520 0.809439 0.667788
Si Si3 0.550887 0.851728 0.666612
Si Si4 0.589273 0.564507 0.839930
Si Si5 0.755243 0.667552 0.337622
Si Si6 0.150957 0.428533 0.668412
O O1 0.273739 0.500000 0.750000
O O2 0.272302 0.559439 0.500000
O O3 0.352536 0.551892 0.644787
O O4 0.282667 0.632486 0.732438
O O5 0.952173 0.823334 0.500000
O O6 0.933255 0.729063 0.684967
O O7 0.916176 0.866270 0.747480
O O8 0.000000 0.815342 0.750000
O O9 0.500000 0.863447 0.750000
O O10 0.541406 0.861304 0.500000
O O11 0.596828 0.899552 0.708247
O O12 0.568022 0.500000 0.750000
O O13 0.568990 0.570151 0.000000
O O14 0.743489 0.649249 0.500000
O O15 0.750000 0.750000 0.325466
O O16 0.808012 0.631536 0.305806
O O17 0.160588 0.500000 0.750000
O O18 0.151100 0.440800 0.500000
#
# Coordination Sequence:
#
# PCOD9497042 Si02
#       6
#    16  16  16  16  16  16
#     4  10  21  37  57  81 113 150 190 237 286 341
#     4  10  20  35  57  81 110 148 187 238 293 350
#     4   9  20  38  60  86 117 151 193 238 291 352
#     4  10  21  36  54  80 111 147 192 239 288 345
#     4  10  22  38  60  87 117 154 196 240 289 347
#     4  10  22  40  60  88 120 155 195 239 291 346
#
# _framework density 19.308619
#
# number of rings (size 3 to 8) (size 9 to 14) (size 15 to 20)
#    0.000    2.167    0.000    2.000    2.333    6.333 
#    0.000    3.333    0.000    0.000    0.000    0.000 
#    0.000    0.000    0.000    0.000    0.000    0.000 
#
# Total GULP energy -267708.599243 kJ/mol
# GULP energy per Si atom -5577.262484 kJ/mol
# Density = 1.926467 g / cm^3
# Si number density = 19.308619 Si / 1000 Ang^3
#
#
#
# Elastic Constant Matrix: (Units=GPa)
#
#
# Indices 1 2 3 4 5 6 
#
# 1 52.1171 42.9692 29.8858 0.0000 0.0000 0.0000
# 2 42.9692 92.9447 73.7807 0.0000 0.0000 0.0000
# 3 29.8858 73.7807 119.3427 0.0000 0.0000 0.0000
# 4 0.0000 0.0000 0.0000 27.0560 0.0000 0.0000
# 5 0.0000 0.0000 0.0000 0.0000 42.1815 0.0000
# 6 0.0000 0.0000 0.0000 0.0000 0.0000 61.5756
#
#
#
# Elastic Compliance Matrix: (Units=1/GPa)
#
#
# Indices 1 2 3 4 5 6 
#
# 1 0.031291 -0.016192 0.002175 0.000000 0.000000 0.000000
# 2 -0.016192 0.029507 -0.014187 0.000000 0.000000 0.000000
# 3 0.002175 -0.014187 0.016605 0.000000 0.000000 0.000000
# 4 0.000000 0.000000 0.000000 0.036960 0.000000 0.000000
# 5 0.000000 0.000000 0.000000 0.000000 0.023707 0.000000
# 6 0.000000 0.000000 0.000000 0.000000 0.000000 0.016240
#
#
# Mechanical properties :
#
#
# Convention : Reuss Voigt Hill
#
# Bulk Modulus (GPa) = 47.63343 61.96399 54.79871
# Shear Modulus (GPa) = 22.96562 34.01390 28.48976
#
# Velocity S-wave (km/s) = 3.45251 4.20168 3.84538
# Velocity P-wave (km/s) = 6.37308 7.46324 6.93960
#
# Compressibility (1/GPa) = 0.02099366
#
# Stress axis : x y z
#
# Youngs Moduli (GPa) = 31.95854 33.89077 60.22160
#
# Poissons Ratio (x) = 0.54876 -0.13096
# Poissons Ratio (y) = 0.51748 0.85436
# Poissons Ratio (z) = -0.06950 0.48080
#
# Static dielectric constant tensor:
#      x y z
#    x 1.696300 0.000000 0.000000 
#    y 0.000000 1.695310 0.000000 
#    z 0.000000 0.000000 1.674590 
# 
# From -- ./inp_files/10259.got.cif
#   From: 2010.05.17/outbox.cif.g08.bks.cpg/sg66_6_cif.got.tgz:10259.got - 2010.06.03 17:51:23.
