data_PCOD9497719
_publ_section_title
;
Structure prediction by ZEFSAII (Michael W. Deem and Ramdas Pophale) SiO2 
 PCOD9497719
Probable space group: C C C M
;
_chemical_formula_sum "Si O2"
_cell_formula_units_Z 44
_cell_length_a 6.736764
_cell_length_b 22.249731
_cell_length_c 10.663593
_cell_angle_alpha 90.000000
_cell_angle_beta 90.000000
_cell_angle_gamma 90.000000
_cell_volume 1598.378610
_symmetry_space_group_name_H-M "C C C M"
_symmetry_group_IT_number 66
_symmetry_cell_setting 'orthorhombic'
loop_
_space_group_symop_operation_xyz
x,y,z
-x,-y,z
x,-y,1/2-z
-x,y,1/2-z
-x,-y,-z
x,y,-z
-x,y,1/2+z
x,-y,1/2+z
1/2+x,1/2+y,z
1/2-x,1/2-y,z
1/2+x,1/2-y,1/2-z
1/2-x,1/2+y,1/2-z
1/2-x,1/2-y,-z
1/2+x,1/2+y,-z
1/2-x,1/2+y,1/2+z
1/2+x,1/2-y,1/2+z
loop_
_atom_site_type_symbol
_atom_site_label
_atom_site_fract_x
_atom_site_fract_y
_atom_site_fract_z
Si Si1 0.414300 0.435096 0.500000
Si Si2 0.988192 0.803451 0.000000
Si Si3 0.000000 0.000000 0.750000
Si Si4 0.000000 0.360799 0.750000
Si Si5 0.154519 0.393332 0.000000
Si Si6 0.250000 0.250000 0.701892
O O1 0.379266 0.363874 0.500000
O O2 0.380493 0.459265 0.645133
O O3 0.659216 0.437826 0.500000
O O4 0.055017 0.764670 0.882619
O O5 0.766696 0.828271 0.000000
O O6 0.190056 0.316192 0.748298
O O7 0.972624 0.398464 0.624289
#
# Coordination Sequence:
#
# PCOD9497719 Si02
#       6
#     8   8   4   8   8   8
#     4   9  23  40  70 100 122 162 217 290 323 402
#     4   9  21  39  62  96 128 173 214 272 321 389
#     4  10  20  44  72 104 120 158 226 292 348 372
#     4  12  24  39  58  93 136 183 221 258 318 394
#     4  10  24  40  61  91 131 177 220 267 326 381
#     4  11  22  35  62  98 136 180 220 264 316 406
#
# _framework density 27.527896999999999
#
# number of rings (size 3 to 8) (size 9 to 14) (size 15 to 20)
#    1.091    0.727    0.000    4.364    5.091    2.182 
#    0.000    0.000    0.000    3.273    0.000    0.000 
#    0.000    0.000    0.000    0.000    0.000    0.000 
#
# Total GULP energy -122476.960801 kJ/mol
# GULP energy per Si atom -5567.134582 kJ/mol
# Density = 2.746524 g / cm^3
# Si number density = 27.527897 Si / 1000 Ang^3
#
#
#
# Elastic Constant Matrix: (Units=GPa)
#
#
# Indices 1 2 3 4 5 6 
#
# 1 97.8585 -18.7309 25.5826 0.0000 0.0000 0.0000
# 2 -18.7309 43.5355 42.6388 0.0000 0.0000 0.0000
# 3 25.5826 42.6388 264.6821 0.0000 0.0000 0.0000
# 4 0.0000 0.0000 0.0000 -13.8884 0.0000 0.0000
# 5 0.0000 0.0000 0.0000 0.0000 8.9178 0.0000
# 6 0.0000 0.0000 0.0000 0.0000 0.0000 30.6310
#
#
#
# Elastic Compliance Matrix: (Units=1/GPa)
#
#
# Indices 1 2 3 4 5 6 
#
# 1 0.012324 0.007681 -0.002428 0.000000 0.000000 0.000000
# 2 0.007681 0.032060 -0.005907 0.000000 0.000000 0.000000
# 3 -0.002428 -0.005907 0.004964 0.000000 0.000000 0.000000
# 4 0.000000 0.000000 0.000000 -0.072003 0.000000 0.000000
# 5 0.000000 0.000000 0.000000 0.000000 0.112135 0.000000
# 6 0.000000 0.000000 0.000000 0.000000 0.000000 0.032647
#
#
# Mechanical properties :
#
#
# Convention : Reuss Voigt Hill
#
# Bulk Modulus (GPa) = 20.81669 56.11747 38.46708
# Shear Modulus (GPa) = 35.85534 28.90447 32.37990
#
# Velocity S-wave (km/s) = 3.61294 3.24390 3.43338
# Velocity P-wave (km/s) = 4.99829 5.87030 5.45176
#
# Compressibility (1/GPa) = 0.04803839
#
# Stress axis : x y z
#
# Youngs Moduli (GPa) = 81.14356 31.19183 201.43313
#
# Poissons Ratio (x) = -0.23958 0.48917
# Poissons Ratio (y) = -0.62324 1.18987
# Poissons Ratio (z) = 0.19705 0.18425
#
# Static dielectric constant tensor:
#      x y z
#    x 2.165980 0.000000 0.000000 
#    y 0.000000 2.112860 0.000000 
#    z 0.000000 0.000000 2.243860 
# 
# From -- ./inp_files/13275.got.cif
#   From: 2010.05.17/outbox.cif.g08.bks.cpg/sg66_7_cif.got.tgz:13275.got - 2010.06.03 17:51:23.
