data_PCOD9497583
_publ_section_title
;
Structure prediction by ZEFSAII (Michael W. Deem and Ramdas Pophale) SiO2 
 PCOD9497583
Probable space group: C C C M
;
_chemical_formula_sum "Si O2"
_cell_formula_units_Z 112
_cell_length_a 25.368980
_cell_length_b 13.604102
_cell_length_c 15.130507
_cell_angle_alpha 90.000000
_cell_angle_beta 90.000000
_cell_angle_gamma 90.000000
_cell_volume 5221.873735
_symmetry_space_group_name_H-M "C C C M"
_symmetry_group_IT_number 66
_symmetry_cell_setting 'orthorhombic'
loop_
_space_group_symop_operation_xyz
x,y,z
-x,-y,z
x,-y,1/2-z
-x,y,1/2-z
-x,-y,-z
x,y,-z
-x,y,1/2+z
x,-y,1/2+z
1/2+x,1/2+y,z
1/2-x,1/2-y,z
1/2+x,1/2-y,1/2-z
1/2-x,1/2+y,1/2-z
1/2-x,1/2-y,-z
1/2+x,1/2+y,-z
1/2-x,1/2+y,1/2+z
1/2+x,1/2-y,1/2+z
loop_
_atom_site_type_symbol
_atom_site_label
_atom_site_fract_x
_atom_site_fract_y
_atom_site_fract_z
Si Si1 0.706307 0.166816 0.904091
Si Si2 0.559571 0.524445 0.646207
Si Si3 0.861579 0.326505 0.399425
Si Si4 0.262281 0.868119 0.285804
Si Si5 0.835307 0.094782 0.598354
Si Si6 0.908337 0.246255 0.100523
Si Si7 0.062077 0.608724 0.745835
O O1 0.750000 0.250000 0.909836
O O2 0.719212 0.107240 0.814343
O O3 0.653865 0.232838 0.895497
O O4 0.703706 0.113813 0.000000
O O5 0.500000 0.500000 0.612129
O O6 0.558384 0.500000 0.750000
O O7 0.609898 0.463644 0.610349
O O8 0.573472 0.638133 0.629124
O O9 0.867672 0.360397 0.500000
O O10 0.812080 0.377107 0.350968
O O11 0.849401 0.210229 0.400104
O O12 0.913402 0.342683 0.340960
O O13 0.250000 0.750000 0.283410
O O14 0.209870 0.917536 0.327175
O O15 0.814026 0.070985 0.500000
O O16 0.927087 0.325875 0.169550
O O17 0.926141 0.262714 0.000000
O O18 0.086014 0.500000 0.750000
O O19 0.000000 0.600078 0.750000
#
# Coordination Sequence:
#
# PCOD9497583 Si02
#       7
#    16  16  16  16  16  16  16
#     4   9  18  34  62  95 131 175 220 270 342 419
#     4  11  26  42  65 102 149 197 243 286 342 431
#     4  10  20  38  67  97 132 174 224 285 352 413
#     4   9  17  33  63  94 132 171 223 280 344 405
#     4  10  21  38  63  99 139 179 223 276 338 412
#     4  11  24  44  71 100 139 185 232 291 359 426
#     4  11  26  46  68  94 128 171 230 294 358 422
#
# _framework density 21.448239000000001
#
# number of rings (size 3 to 8) (size 9 to 14) (size 15 to 20)
#    0.000    1.857    1.429    1.714    8.000    4.000 
#    0.000    3.571    0.000    3.429    0.000    0.000 
#    0.000    0.000    0.000    0.000    0.000    0.000 
#
# Total GULP energy -312576.338270 kJ/mol
# GULP energy per Si atom -5581.720326 kJ/mol
# Density = 2.139942 g / cm^3
# Si number density = 21.448239 Si / 1000 Ang^3
#
#
#
# Elastic Constant Matrix: (Units=GPa)
#
#
# Indices 1 2 3 4 5 6 
#
# 1 136.4126 49.7330 76.8464 0.0000 0.0000 0.0000
# 2 49.7330 86.7828 67.7102 0.0000 0.0000 0.0000
# 3 76.8464 67.7102 211.6480 0.0000 0.0000 0.0000
# 4 0.0000 0.0000 0.0000 -10.0701 0.0000 0.0000
# 5 0.0000 0.0000 0.0000 0.0000 215.1088 0.0000
# 6 0.0000 0.0000 0.0000 0.0000 0.0000 25.1801
#
#
#
# Elastic Compliance Matrix: (Units=1/GPa)
#
#
# Indices 1 2 3 4 5 6 
#
# 1 0.010122 -0.003909 -0.002425 0.000000 0.000000 0.000000
# 2 -0.003909 0.016865 -0.003976 0.000000 0.000000 0.000000
# 3 -0.002425 -0.003976 0.006877 0.000000 0.000000 0.000000
# 4 0.000000 0.000000 0.000000 -0.099304 0.000000 0.000000
# 5 0.000000 0.000000 0.000000 0.000000 0.004649 0.000000
# 6 0.000000 0.000000 0.000000 0.000000 0.000000 0.039714
#
#
# Mechanical properties :
#
#
# Convention : Reuss Voigt Hill
#
# Bulk Modulus (GPa) = 75.49997 91.49141 83.49569
# Shear Modulus (GPa) = 1263.34242 62.08068 662.71155
#
# Velocity S-wave (km/s) = 24.29605 5.38584 17.59695
# Velocity P-wave (km/s) = 28.67649 9.02362 21.25755
#
# Compressibility (1/GPa) = 0.01324504
#
# Stress axis : x y z
#
# Youngs Moduli (GPa) = 98.79901 59.29265 145.40685
#
# Poissons Ratio (x) = 0.23176 0.35254
# Poissons Ratio (y) = 0.38618 0.57819
# Poissons Ratio (z) = 0.23954 0.23577
#
# Static dielectric constant tensor:
#      x y z
#    x 1.732700 0.000000 0.000000 
#    y 0.000000 1.748820 0.000000 
#    z 0.000000 0.000000 1.822950 
# 
# From -- ./inp_files/32457.got.cif
#   From: 2010.05.17/outbox.cif.g08.bks.cpg/sg66_17_cif.got.tgz:32457.got - 2010.06.03 17:51:23.
