data_PCOD9497937
_publ_section_title
;
Structure prediction by ZEFSAII (Michael W. Deem and Ramdas Pophale) SiO2 
 PCOD9497937
Probable space group: C C C M
;
_chemical_formula_sum "Si O2"
_cell_formula_units_Z 80
_cell_length_a 10.537276
_cell_length_b 12.306694
_cell_length_c 30.234092
_cell_angle_alpha 90.000000
_cell_angle_beta 90.000000
_cell_angle_gamma 90.000000
_cell_volume 3920.727764
_symmetry_space_group_name_H-M "C C C M"
_symmetry_group_IT_number 66
_symmetry_cell_setting 'orthorhombic'
loop_
_space_group_symop_operation_xyz
x,y,z
-x,-y,z
x,-y,1/2-z
-x,y,1/2-z
-x,-y,-z
x,y,-z
-x,y,1/2+z
x,-y,1/2+z
1/2+x,1/2+y,z
1/2-x,1/2-y,z
1/2+x,1/2-y,1/2-z
1/2-x,1/2+y,1/2-z
1/2-x,1/2-y,-z
1/2+x,1/2+y,-z
1/2-x,1/2+y,1/2+z
1/2+x,1/2-y,1/2+z
loop_
_atom_site_type_symbol
_atom_site_label
_atom_site_fract_x
_atom_site_fract_y
_atom_site_fract_z
Si Si1 0.136318 0.173304 0.751118
Si Si2 0.359003 0.492776 0.825677
Si Si3 0.052024 0.652885 0.446513
Si Si4 0.196351 0.462279 0.408115
Si Si5 0.945895 0.121398 0.051215
O O1 0.250000 0.250000 0.740437
O O2 0.133083 0.081450 0.713372
O O3 0.000000 0.229927 0.750000
O O4 0.154691 0.119193 0.799081
O O5 0.500000 0.500000 0.847674
O O6 0.242692 0.513319 0.858412
O O7 0.039369 0.639292 0.500000
O O8 0.172238 0.579700 0.431740
O O9 0.932198 0.601625 0.420172
O O10 0.041311 0.781309 0.435406
O O11 0.310778 0.387160 0.425367
O O12 0.918510 0.143583 0.000000
O O13 0.000000 0.000000 0.054242
#
# Coordination Sequence:
#
# PCOD9497937 Si02
#       5
#    16  16  16  16  16
#     4   9  19  41  64  88 119 167 199 243 311 384
#     4   9  20  40  61  85 122 154 198 245 312 373
#     4  10  22  39  59  84 122 167 206 259 322 373
#     4  11  20  37  58  88 118 155 204 260 309 365
#     4  10  21  37  57  81 113 158 206 250 309 377
#
# _framework density 20.404375000000002
#
# number of rings (size 3 to 8) (size 9 to 14) (size 15 to 20)
#    0.000    2.200    0.000    4.800    0.000    4.000 
#   18.000    4.000    0.000    0.000    0.000    0.000 
#    0.000    0.000    0.000    0.000    0.000    0.000 
#
# Total GULP energy -222858.159946 kJ/mol
# GULP energy per Si atom -5571.453999 kJ/mol
# Density = 2.035793 g / cm^3
# Si number density = 20.404375 Si / 1000 Ang^3
#
#
#
# Elastic Constant Matrix: (Units=GPa)
#
#
# Indices 1 2 3 4 5 6 
#
# 1 72.0335 21.2046 24.9840 0.0000 0.0000 0.0000
# 2 21.2046 86.8949 1.9008 0.0000 0.0000 0.0000
# 3 24.9840 1.9008 86.7916 0.0000 0.0000 0.0000
# 4 0.0000 0.0000 0.0000 -3.3647 0.0000 0.0000
# 5 0.0000 0.0000 0.0000 0.0000 -3.5509 0.0000
# 6 0.0000 0.0000 0.0000 0.0000 0.0000 27.5167
#
#
#
# Elastic Compliance Matrix: (Units=1/GPa)
#
#
# Indices 1 2 3 4 5 6 
#
# 1 0.016687 -0.003969 -0.004717 0.000000 0.000000 0.000000
# 2 -0.003969 0.012458 0.000870 0.000000 0.000000 0.000000
# 3 -0.004717 0.000870 0.012861 0.000000 0.000000 0.000000
# 4 0.000000 0.000000 0.000000 -0.297207 0.000000 0.000000
# 5 0.000000 0.000000 0.000000 0.000000 -0.281621 0.000000
# 6 0.000000 0.000000 0.000000 0.000000 0.000000 0.036342
#
#
# Mechanical properties :
#
#
# Convention : Reuss Voigt Hill
#
# Bulk Modulus (GPa) = 37.91699 37.98873 37.95286
# Shear Modulus (GPa) = -10.50289 17.29563 3.39637
#
# Velocity S-wave (km/s) = -2.27124 2.91459 1.29157
# Velocity P-wave (km/s) = 3.42711 5.47584 4.56781
#
# Compressibility (1/GPa) = 0.02637340
#
# Stress axis : x y z
#
# Youngs Moduli (GPa) = 59.92839 80.27214 77.75744
#
# Poissons Ratio (x) = 0.31858 0.36674
# Poissons Ratio (y) = 0.23784 -0.06762
# Poissons Ratio (z) = 0.28265 -0.06981
#
# Static dielectric constant tensor:
#      x y z
#    x 1.775190 0.000000 0.000000 
#    y 0.000000 1.786940 0.000000 
#    z 0.000000 0.000000 1.723080 
# 
# From -- ./inp_files/68731.got.cif
#   From: 2010.05.17/outbox.cif.g08.bks.cpg/sg66_35_cif.got.tgz:68731.got - 2010.06.03 17:51:23.
