data_PCOD9497340
_publ_section_title
;
Structure prediction by ZEFSAII (Michael W. Deem and Ramdas Pophale) SiO2 
 PCOD9497340
Probable space group: C C C M
;
_chemical_formula_sum "Si O2"
_cell_formula_units_Z 104
_cell_length_a 10.671153
_cell_length_b 21.163209
_cell_length_c 27.230956
_cell_angle_alpha 90.000000
_cell_angle_beta 90.000000
_cell_angle_gamma 90.000000
_cell_volume 6149.725855
_symmetry_space_group_name_H-M "C C C M"
_symmetry_group_IT_number 66
_symmetry_cell_setting 'orthorhombic'
loop_
_space_group_symop_operation_xyz
x,y,z
-x,-y,z
x,-y,1/2-z
-x,y,1/2-z
-x,-y,-z
x,y,-z
-x,y,1/2+z
x,-y,1/2+z
1/2+x,1/2+y,z
1/2-x,1/2-y,z
1/2+x,1/2-y,1/2-z
1/2-x,1/2+y,1/2-z
1/2-x,1/2-y,-z
1/2+x,1/2+y,-z
1/2-x,1/2+y,1/2+z
1/2+x,1/2-y,1/2+z
loop_
_atom_site_type_symbol
_atom_site_label
_atom_site_fract_x
_atom_site_fract_y
_atom_site_fract_z
Si Si1 0.554934 0.211733 0.942084
Si Si2 0.916947 0.303970 0.339801
Si Si3 0.720241 0.569679 0.733598
Si Si4 0.500000 0.888130 0.250000
Si Si5 0.324617 0.650422 0.943711
Si Si6 0.863419 0.837660 0.816716
Si Si7 0.937788 0.931193 0.362244
O O1 0.466472 0.196392 0.895752
O O2 0.597011 0.284807 0.936142
O O3 0.680383 0.170032 0.935228
O O4 0.513869 0.203941 0.000000
O O5 0.918229 0.232954 0.317507
O O6 0.774543 0.328979 0.339523
O O7 0.988489 0.346630 0.299758
O O8 0.677003 0.500000 0.750000
O O9 0.869235 0.574923 0.743019
O O10 0.658092 0.626464 0.765020
O O11 0.670970 0.574194 0.678567
O O12 0.375401 0.594169 0.911308
O O13 0.336981 0.632992 0.000000
O O14 0.952826 0.882850 0.847316
O O15 0.000000 0.000000 0.364434
#
# Coordination Sequence:
#
# PCOD9497340 Si02
#       7
#    16  16  16   8  16  16  16
#     4   9  17  34  59  81 107 140 180 229 276 328
#     4  10  20  37  54  80 113 141 175 227 280 323
#     4  11  22  38  55  78 107 145 185 220 260 324
#     4  10  23  36  56  82 109 140 176 228 282 316
#     4   9  19  34  55  84 108 135 181 231 274 319
#     4  10  22  35  51  79 115 139 180 224 262 324
#     4  12  22  35  58  78 107 151 184 216 265 325
#
# _framework density 16.911322999999999
#
# number of rings (size 3 to 8) (size 9 to 14) (size 15 to 20)
#    0.000    1.846    3.077    2.538    2.154    0.308 
#    0.000    2.308    0.000    0.000    0.000    2.154 
#    0.000    0.000    0.000    0.000    0.000    0.000 
#
# Total GULP energy -289778.930891 kJ/mol
# GULP energy per Si atom -5572.671748 kJ/mol
# Density = 1.687283 g / cm^3
# Si number density = 16.911323 Si / 1000 Ang^3
#
#
#
# Elastic Constant Matrix: (Units=GPa)
#
#
# Indices 1 2 3 4 5 6 
#
# 1 39.7187 37.5113 40.7009 0.0000 0.0000 0.0000
# 2 37.5113 77.2871 42.4321 0.0000 0.0000 0.0000
# 3 40.7009 42.4321 107.3043 0.0000 0.0000 0.0000
# 4 0.0000 0.0000 0.0000 27.7630 0.0000 0.0000
# 5 0.0000 0.0000 0.0000 0.0000 29.3550 0.0000
# 6 0.0000 0.0000 0.0000 0.0000 0.0000 9.5056
#
#
#
# Elastic Compliance Matrix: (Units=1/GPa)
#
#
# Indices 1 2 3 4 5 6 
#
# 1 0.059879 -0.021194 -0.014331 0.000000 0.000000 0.000000
# 2 -0.021194 0.024028 -0.001463 0.000000 0.000000 0.000000
# 3 -0.014331 -0.001463 0.015334 0.000000 0.000000 0.000000
# 4 0.000000 0.000000 0.000000 0.036019 0.000000 0.000000
# 5 0.000000 0.000000 0.000000 0.000000 0.034066 0.000000
# 6 0.000000 0.000000 0.000000 0.000000 0.000000 0.105202
#
#
# Mechanical properties :
#
#
# Convention : Reuss Voigt Hill
#
# Bulk Modulus (GPa) = 39.58094 51.73318 45.65706
# Shear Modulus (GPa) = 14.00851 20.23577 17.12214
#
# Velocity S-wave (km/s) = 2.88123 3.46292 3.18538
# Velocity P-wave (km/s) = 5.87575 6.82981 6.37067
#
# Compressibility (1/GPa) = 0.02526469
#
# Stress axis : x y z
#
# Youngs Moduli (GPa) = 16.70029 41.61744 65.21585
#
# Poissons Ratio (x) = 0.88204 0.93464
# Poissons Ratio (y) = 0.35395 0.09539
# Poissons Ratio (z) = 0.23934 0.06087
#
# Static dielectric constant tensor:
#      x y z
#    x 1.591700 0.000000 0.000000 
#    y 0.000000 1.563640 0.000000 
#    z 0.000000 0.000000 1.569720 
# 
# From -- ./inp_files/63795.got.cif
#   From: 2010.05.17/outbox.cif.g08.bks.cpg/sg66_32_cif.got.tgz:63795.got - 2010.06.03 17:51:23.
