data_PCOD9497204
_publ_section_title
;
Structure prediction by ZEFSAII (Michael W. Deem and Ramdas Pophale) SiO2 
 PCOD9497204
Probable space group: C C C M
;
_chemical_formula_sum "Si O2"
_cell_formula_units_Z 112
_cell_length_a 12.930398
_cell_length_b 13.276034
_cell_length_c 30.981711
_cell_angle_alpha 90.000000
_cell_angle_beta 90.000000
_cell_angle_gamma 90.000000
_cell_volume 5318.456938
_symmetry_space_group_name_H-M "C C C M"
_symmetry_group_IT_number 66
_symmetry_cell_setting 'orthorhombic'
loop_
_space_group_symop_operation_xyz
x,y,z
-x,-y,z
x,-y,1/2-z
-x,y,1/2-z
-x,-y,-z
x,y,-z
-x,y,1/2+z
x,-y,1/2+z
1/2+x,1/2+y,z
1/2-x,1/2-y,z
1/2+x,1/2-y,1/2-z
1/2-x,1/2+y,1/2-z
1/2-x,1/2-y,-z
1/2+x,1/2+y,-z
1/2-x,1/2+y,1/2+z
1/2+x,1/2-y,1/2+z
loop_
_atom_site_type_symbol
_atom_site_label
_atom_site_fract_x
_atom_site_fract_y
_atom_site_fract_z
Si Si1 0.887987 0.947825 0.548406
Si Si2 0.412617 0.686511 0.784259
Si Si3 0.905408 0.427966 0.132358
Si Si4 0.167425 0.525739 0.546783
Si Si5 0.689356 0.093140 0.781025
Si Si6 0.873232 0.247745 0.549332
Si Si7 0.959368 0.804024 0.382007
O O1 0.881921 0.902403 0.500000
O O2 0.882437 0.866437 0.586771
O O3 0.793088 0.026952 0.550306
O O4 0.000000 0.000000 0.552225
O O5 0.500000 0.662118 0.750000
O O6 0.382981 0.806362 0.779048
O O7 0.306317 0.629098 0.773847
O O8 0.452875 0.658035 0.832555
O O9 0.868245 0.462254 0.086299
O O10 0.820868 0.440668 0.169426
O O11 0.932563 0.311975 0.126042
O O12 0.000000 0.500000 0.145559
O O13 0.144813 0.480563 0.500000
O O14 0.108824 0.631826 0.549275
O O15 0.661055 0.000000 0.750000
O O16 0.896538 0.211095 0.500000
O O17 0.750000 0.250000 0.555327
O O18 0.936241 0.198978 0.588681
#
# Coordination Sequence:
#
# PCOD9497204 Si02
#       7
#    16  16  16  16  16  16  16
#     4  10  21  39  62  90 125 171 218 257 311 382
#     4  10  24  46  64 101 133 158 215 276 324 394
#     4  11  23  40  64  95 125 162 216 260 312 385
#     4  10  21  36  56  88 128 163 206 261 304 363
#     4  10  24  44  73  92 125 174 210 264 332 392
#     4  10  20  36  58  88 126 170 218 261 310 371
#     4  11  22  40  64  89 125 169 205 265 326 372
#
# _framework density 21.058738999999999
#
# number of rings (size 3 to 8) (size 9 to 14) (size 15 to 20)
#    0.000    1.714    1.429    2.143    4.000    5.714 
#   10.286    1.429    0.000    0.000    0.000    0.000 
#    0.000    0.000    0.000    0.000    0.000    0.000 
#
# Total GULP energy -312347.142018 kJ/mol
# GULP energy per Si atom -5577.627536 kJ/mol
# Density = 2.101081 g / cm^3
# Si number density = 21.058739 Si / 1000 Ang^3
#
#
#
# Elastic Constant Matrix: (Units=GPa)
#
#
# Indices 1 2 3 4 5 6 
#
# 1 75.2473 4.0328 36.7606 0.0000 0.0000 0.0000
# 2 4.0328 58.6998 35.7858 0.0000 0.0000 0.0000
# 3 36.7606 35.7858 145.6795 0.0000 0.0000 0.0000
# 4 0.0000 0.0000 0.0000 43.9847 0.0000 0.0000
# 5 0.0000 0.0000 0.0000 0.0000 -219.9511 0.0000
# 6 0.0000 0.0000 0.0000 0.0000 0.0000 20.6230
#
#
#
# Elastic Compliance Matrix: (Units=1/GPa)
#
#
# Indices 1 2 3 4 5 6 
#
# 1 0.015274 0.001529 -0.004230 0.000000 0.000000 0.000000
# 2 0.001529 0.020190 -0.005345 0.000000 0.000000 0.000000
# 3 -0.004230 -0.005345 0.009245 0.000000 0.000000 0.000000
# 4 0.000000 0.000000 0.000000 0.022735 0.000000 0.000000
# 5 0.000000 0.000000 0.000000 0.000000 -0.004546 0.000000
# 6 0.000000 0.000000 0.000000 0.000000 0.000000 0.048490
#
#
# Mechanical properties :
#
#
# Convention : Reuss Voigt Hill
#
# Bulk Modulus (GPa) = 34.94494 48.08721 41.51607
# Shear Modulus (GPa) = 36.49168 -17.53219 9.47975
#
# Velocity S-wave (km/s) = 4.16727 -2.88850 2.12399
# Velocity P-wave (km/s) = 6.30753 3.42925 5.07665
#
# Compressibility (1/GPa) = 0.02861645
#
# Stress axis : x y z
#
# Youngs Moduli (GPa) = 65.47077 49.53053 108.16839
#
# Poissons Ratio (x) = -0.07575 0.45754
# Poissons Ratio (y) = -0.10013 0.57821
# Poissons Ratio (z) = 0.27694 0.26476
#
# Static dielectric constant tensor:
#      x y z
#    x 1.782980 0.000000 0.000000 
#    y 0.000000 1.820550 0.000000 
#    z 0.000000 0.000000 1.743960 
# 
# From -- ./inp_files/58261.got.cif
#   From: 2010.05.17/outbox.cif.g08.bks.cpg/sg66_30_cif.got.tgz:58261.got - 2010.06.03 17:51:23.
