data_PCOD9497472
_publ_section_title
;
Structure prediction by ZEFSAII (Michael W. Deem and Ramdas Pophale) SiO2 
 PCOD9497472
Probable space group: C C C M
;
_chemical_formula_sum "Si O2"
_cell_formula_units_Z 80
_cell_length_a 28.469243
_cell_length_b 5.597194
_cell_length_c 22.316790
_cell_angle_alpha 90.000000
_cell_angle_beta 90.000000
_cell_angle_gamma 90.000000
_cell_volume 3556.133088
_symmetry_space_group_name_H-M "C C C M"
_symmetry_group_IT_number 66
_symmetry_cell_setting 'orthorhombic'
loop_
_space_group_symop_operation_xyz
x,y,z
-x,-y,z
x,-y,1/2-z
-x,y,1/2-z
-x,-y,-z
x,y,-z
-x,y,1/2+z
x,-y,1/2+z
1/2+x,1/2+y,z
1/2-x,1/2-y,z
1/2+x,1/2-y,1/2-z
1/2-x,1/2+y,1/2-z
1/2-x,1/2-y,-z
1/2+x,1/2+y,-z
1/2-x,1/2+y,1/2+z
1/2+x,1/2-y,1/2+z
loop_
_atom_site_type_symbol
_atom_site_label
_atom_site_fract_x
_atom_site_fract_y
_atom_site_fract_z
Si Si1 0.723266 0.498861 0.661036
Si Si2 0.862145 0.000000 0.250000
Si Si3 0.423911 0.841355 0.565509
Si Si4 0.653917 0.446021 0.933438
Si Si5 0.415573 0.208950 0.660566
Si Si6 0.500000 0.500000 0.609210
O O1 0.750000 0.750000 0.678419
O O2 0.674741 0.453449 0.697014
O O3 0.705509 0.526146 0.593356
O O4 0.750000 0.250000 0.669453
O O5 0.893847 0.217151 0.224526
O O6 0.426503 0.972000 0.500000
O O7 0.375691 0.691448 0.565289
O O8 0.468759 0.669189 0.567693
O O9 0.427159 0.954026 0.632382
O O10 0.623647 0.282197 0.889084
O O11 0.655205 0.347800 0.000000
O O12 0.462341 0.360847 0.649516
#
# Coordination Sequence:
#
# PCOD9497472 Si02
#       6
#    16   8  16  16  16   8
#     4  11  25  45  69  99 130 171 225 284 347 413
#     4  10  24  45  66  90 126 172 230 287 338 406
#     4  10  20  37  65  96 139 182 219 272 338 417
#     4   9  21  39  61  96 134 170 216 268 336 410
#     4  10  21  39  62  92 128 177 225 275 334 399
#     4  10  21  37  56 100 136 168 227 271 332 410
#
# _framework density 22.496345999999999
#
# number of rings (size 3 to 8) (size 9 to 14) (size 15 to 20)
#    0.000    2.000    0.000    2.100    5.600    4.400 
#    7.200    0.000    0.000    7.200    0.000    0.000 
#    0.000    0.000    0.000    0.000    0.000    0.000 
#
# Total GULP energy -222677.656635 kJ/mol
# GULP energy per Si atom -5566.941416 kJ/mol
# Density = 2.244514 g / cm^3
# Si number density = 22.496346 Si / 1000 Ang^3
#
#
#
# Elastic Constant Matrix: (Units=GPa)
#
#
# Indices 1 2 3 4 5 6 
#
# 1 80.9974 31.4832 40.1236 0.0000 0.0000 0.0000
# 2 31.4832 80.7291 29.2124 0.0000 0.0000 0.0000
# 3 40.1236 29.2124 97.4949 0.0000 0.0000 0.0000
# 4 0.0000 0.0000 0.0000 12.5653 0.0000 0.0000
# 5 0.0000 0.0000 0.0000 0.0000 80.9713 0.0000
# 6 0.0000 0.0000 0.0000 0.0000 0.0000 -27.0638
#
#
#
# Elastic Compliance Matrix: (Units=1/GPa)
#
#
# Indices 1 2 3 4 5 6 
#
# 1 0.016885 -0.004565 -0.005581 0.000000 0.000000 0.000000
# 2 -0.004565 0.015128 -0.002654 0.000000 0.000000 0.000000
# 3 -0.005581 -0.002654 0.013349 0.000000 0.000000 0.000000
# 4 0.000000 0.000000 0.000000 0.079584 0.000000 0.000000
# 5 0.000000 0.000000 0.000000 0.000000 0.012350 0.000000
# 6 0.000000 0.000000 0.000000 0.000000 0.000000 -0.036950
#
#
# Mechanical properties :
#
#
# Convention : Reuss Voigt Hill
#
# Bulk Modulus (GPa) = 50.60393 51.20664 50.90529
# Shear Modulus (GPa) = 37.72591 23.85471 30.79031
#
# Velocity S-wave (km/s) = 4.09954 3.25988 3.70358
# Velocity P-wave (km/s) = 6.70458 6.08118 6.40047
#
# Compressibility (1/GPa) = 0.01976131
#
# Stress axis : x y z
#
# Youngs Moduli (GPa) = 59.22284 66.10304 74.91185
#
# Poissons Ratio (x) = 0.30179 0.41809
# Poissons Ratio (y) = 0.27038 0.19881
# Poissons Ratio (z) = 0.33053 0.17543
#
# Static dielectric constant tensor:
#      x y z
#    x 1.827100 0.000000 0.000000 
#    y 0.000000 1.963630 0.000000 
#    z 0.000000 0.000000 1.932160 
# 
# From -- ./inp_files/60364.got.cif
#   From: 2010.05.17/outbox.cif.g08.bks.cpg/sg66_31_cif.got.tgz:60364.got - 2010.06.03 17:51:23.
