data_PCOD9497012
_publ_section_title
;
Structure prediction by ZEFSAII (Michael W. Deem and Ramdas Pophale) SiO2 
 PCOD9497012
Probable space group: C C C M
;
_chemical_formula_sum "Si O2"
_cell_formula_units_Z 80
_cell_length_a 9.257667
_cell_length_b 26.862578
_cell_length_c 15.624895
_cell_angle_alpha 90.000000
_cell_angle_beta 90.000000
_cell_angle_gamma 90.000000
_cell_volume 3885.673918
_symmetry_space_group_name_H-M "C C C M"
_symmetry_group_IT_number 66
_symmetry_cell_setting 'orthorhombic'
loop_
_space_group_symop_operation_xyz
x,y,z
-x,-y,z
x,-y,1/2-z
-x,y,1/2-z
-x,-y,-z
x,y,-z
-x,y,1/2+z
x,-y,1/2+z
1/2+x,1/2+y,z
1/2-x,1/2-y,z
1/2+x,1/2-y,1/2-z
1/2-x,1/2+y,1/2-z
1/2-x,1/2-y,-z
1/2+x,1/2+y,-z
1/2-x,1/2+y,1/2+z
1/2+x,1/2-y,1/2+z
loop_
_atom_site_type_symbol
_atom_site_label
_atom_site_fract_x
_atom_site_fract_y
_atom_site_fract_z
Si Si1 0.425453 0.751955 0.599111
Si Si2 0.605781 0.644310 0.105023
Si Si3 0.594140 0.044836 0.099032
Si Si4 0.917614 0.950113 0.604670
Si Si5 0.062450 0.639428 0.342049
O O1 0.467575 0.755436 0.500000
O O2 0.250000 0.750000 0.602683
O O3 0.465325 0.697093 0.631570
O O4 0.478412 0.802858 0.640834
O O5 0.505538 0.598665 0.130062
O O6 0.765275 0.637743 0.144035
O O7 0.622469 0.645869 0.000000
O O8 0.753672 0.050250 0.137167
O O9 0.509893 0.096981 0.100181
O O10 0.500000 0.000000 0.137908
O O11 0.619267 0.030412 0.000000
O O12 0.916892 0.949185 0.500000
O O13 0.000000 0.000000 0.631008
O O14 0.000000 0.626359 0.250000
#
# Coordination Sequence:
#
# PCOD9497012 Si02
#       5
#    16  16  16  16  16
#     4   8  15  31  55  77  99 136 185 226 261 311
#     4   9  17  34  59  81 105 142 187 227 265 321
#     4  10  20  35  56  80 106 138 178 226 276 323
#     4   9  17  31  54  82 105 131 175 226 272 318
#     4  11  21  33  51  79 111 142 176 220 273 327
#
# _framework density 20.588449000000001
#
# number of rings (size 3 to 8) (size 9 to 14) (size 15 to 20)
#    0.000    2.600    0.000    4.200    0.000    3.600 
#    0.000    8.000    0.000    6.000    0.000    0.000 
#    0.000    0.000    0.000    0.000    0.000    0.000 
#
# Total GULP energy -223023.298647 kJ/mol
# GULP energy per Si atom -5575.582466 kJ/mol
# Density = 2.054159 g / cm^3
# Si number density = 20.588449 Si / 1000 Ang^3
#
#
#
# Elastic Constant Matrix: (Units=GPa)
#
#
# Indices 1 2 3 4 5 6 
#
# 1 109.8371 80.3181 9.0202 0.0000 0.0000 0.0000
# 2 80.3181 182.7084 -0.3594 0.0000 0.0000 0.0000
# 3 9.0202 -0.3594 30.5046 0.0000 0.0000 0.0000
# 4 0.0000 0.0000 0.0000 -38.9455 0.0000 0.0000
# 5 0.0000 0.0000 0.0000 0.0000 1.6241 0.0000
# 6 0.0000 0.0000 0.0000 0.0000 0.0000 35.1400
#
#
#
# Elastic Compliance Matrix: (Units=1/GPa)
#
#
# Indices 1 2 3 4 5 6 
#
# 1 0.013934 -0.006134 -0.004193 0.000000 0.000000 0.000000
# 2 -0.006134 0.008173 0.001910 0.000000 0.000000 0.000000
# 3 -0.004193 0.001910 0.034044 0.000000 0.000000 0.000000
# 4 0.000000 0.000000 0.000000 -0.025677 0.000000 0.000000
# 5 0.000000 0.000000 0.000000 0.000000 0.615713 0.000000
# 6 0.000000 0.000000 0.000000 0.000000 0.000000 0.028458
#
#
# Mechanical properties :
#
#
# Convention : Reuss Voigt Hill
#
# Bulk Modulus (GPa) = 25.43291 55.66754 40.55022
# Shear Modulus (GPa) = 7.09639 15.16846 11.13243
#
# Velocity S-wave (km/s) = 1.85857 2.71725 2.32784
# Velocity P-wave (km/s) = 4.12135 6.07796 5.19264
#
# Compressibility (1/GPa) = 0.03931913
#
# Stress axis : x y z
#
# Youngs Moduli (GPa) = 71.76785 122.35056 29.37363
#
# Poissons Ratio (x) = 0.75044 0.12315
# Poissons Ratio (y) = 0.44019 -0.05610
# Poissons Ratio (z) = 0.30089 -0.23369
#
# Static dielectric constant tensor:
#      x y z
#    x 1.714480 0.000000 0.000000 
#    y 0.000000 1.752860 0.000000 
#    z 0.000000 0.000000 1.757470 
# 
# From -- ./inp_files/36970.got.cif
#   From: 2010.05.17/outbox.cif.g08.bks.cpg/sg66_19_cif.got.tgz:36970.got - 2010.06.03 17:51:23.
