data_PCOD9497385
_publ_section_title
;
Structure prediction by ZEFSAII (Michael W. Deem and Ramdas Pophale) SiO2 
 PCOD9497385
Probable space group: C C C M
;
_chemical_formula_sum "Si O2"
_cell_formula_units_Z 112
_cell_length_a 12.590951
_cell_length_b 26.570486
_cell_length_c 16.964598
_cell_angle_alpha 90.000000
_cell_angle_beta 90.000000
_cell_angle_gamma 90.000000
_cell_volume 5675.467026
_symmetry_space_group_name_H-M "C C C M"
_symmetry_group_IT_number 66
_symmetry_cell_setting 'orthorhombic'
loop_
_space_group_symop_operation_xyz
x,y,z
-x,-y,z
x,-y,1/2-z
-x,y,1/2-z
-x,-y,-z
x,y,-z
-x,y,1/2+z
x,-y,1/2+z
1/2+x,1/2+y,z
1/2-x,1/2-y,z
1/2+x,1/2-y,1/2-z
1/2-x,1/2+y,1/2-z
1/2-x,1/2-y,-z
1/2+x,1/2+y,-z
1/2-x,1/2+y,1/2+z
1/2+x,1/2-y,1/2+z
loop_
_atom_site_type_symbol
_atom_site_label
_atom_site_fract_x
_atom_site_fract_y
_atom_site_fract_z
Si Si1 0.894393 0.368078 0.794746
Si Si2 0.176210 0.204984 0.092130
Si Si3 0.226676 0.400327 0.142256
Si Si4 0.936038 0.949709 0.094130
Si Si5 0.023498 0.846310 0.158088
Si Si6 0.746843 0.310004 0.091444
Si Si7 0.997343 0.440291 0.587301
O O1 0.808658 0.385248 0.730191
O O2 0.844526 0.330116 0.857056
O O3 0.933010 0.415900 0.844625
O O4 0.000000 0.348384 0.750000
O O5 0.250000 0.250000 0.124619
O O6 0.235352 0.151591 0.102212
O O7 0.062579 0.195568 0.131597
O O8 0.158312 0.215279 0.000000
O O9 0.322954 0.439840 0.136115
O O10 0.122596 0.421511 0.100091
O O11 0.000723 0.898868 0.113467
O O12 0.917181 0.952460 0.000000
O O13 0.000000 0.000000 0.117800
O O14 0.000000 0.855149 0.250000
O O15 0.140123 0.828510 0.134800
O O16 0.750000 0.250000 0.090766
O O17 0.748530 0.327433 0.000000
O O18 0.034186 0.424938 0.500000
O O19 0.000000 0.500000 0.592544
#
# Coordination Sequence:
#
# PCOD9497385 Si02
#       7
#    16  16  16  16  16  16  16
#     4  10  23  40  60  86 118 156 199 249 299 350
#     4  10  21  39  64  88 112 151 202 250 293 342
#     4  10  20  37  60  88 120 149 190 246 295 345
#     4  10  21  39  63  88 116 153 195 239 289 348
#     4  11  23  39  60  88 124 158 195 245 298 355
#     4  11  24  41  61  87 123 163 199 242 299 362
#     4  10  21  38  61  86 115 155 198 241 291 348
#
# _framework density 19.734058000000001
#
# number of rings (size 3 to 8) (size 9 to 14) (size 15 to 20)
#    0.000    1.714    0.000    5.571    0.000    9.143 
#    0.000    7.143    0.000    0.000    0.000    0.000 
#    0.000    0.571    0.000    0.000    0.000    0.000 
#
# Total GULP energy -312811.885304 kJ/mol
# GULP energy per Si atom -5585.926523 kJ/mol
# Density = 1.968914 g / cm^3
# Si number density = 19.734058 Si / 1000 Ang^3
#
#
#
# Elastic Constant Matrix: (Units=GPa)
#
#
# Indices 1 2 3 4 5 6 
#
# 1 73.4791 36.9404 40.8650 0.0000 0.0000 0.0000
# 2 36.9404 68.8364 20.3988 0.0000 0.0000 0.0000
# 3 40.8650 20.3988 97.4789 0.0000 0.0000 0.0000
# 4 0.0000 0.0000 0.0000 17.5654 0.0000 0.0000
# 5 0.0000 0.0000 0.0000 0.0000 -3.7798 0.0000
# 6 0.0000 0.0000 0.0000 0.0000 0.0000 29.8990
#
#
#
# Elastic Compliance Matrix: (Units=1/GPa)
#
#
# Indices 1 2 3 4 5 6 
#
# 1 0.022797 -0.010023 -0.007459 0.000000 0.000000 0.000000
# 2 -0.010023 0.019895 0.000039 0.000000 0.000000 0.000000
# 3 -0.007459 0.000039 0.013378 0.000000 0.000000 0.000000
# 4 0.000000 0.000000 0.000000 0.056930 0.000000 0.000000
# 5 0.000000 0.000000 0.000000 0.000000 -0.264567 0.000000
# 6 0.000000 0.000000 0.000000 0.000000 0.000000 0.033446
#
#
# Mechanical properties :
#
#
# Convention : Reuss Voigt Hill
#
# Bulk Modulus (GPa) = 47.21146 48.46698 47.83922
# Shear Modulus (GPa) = -65.63938 18.17628 -23.73155
#
# Velocity S-wave (km/s) = -5.77358 3.03819 -3.47157
# Velocity P-wave (km/s) = 4.52436 6.07625 2.86802
#
# Compressibility (1/GPa) = 0.02118130
#
# Stress axis : x y z
#
# Youngs Moduli (GPa) = 43.86590 50.26501 74.75169
#
# Poissons Ratio (x) = 0.50381 0.55760
# Poissons Ratio (y) = 0.43968 -0.00289
# Poissons Ratio (z) = 0.32721 -0.00194
#
# Static dielectric constant tensor:
#      x y z
#    x 1.636090 0.000000 0.000000 
#    y 0.000000 1.657420 0.000000 
#    z 0.000000 0.000000 1.704060 
# 
# From -- ./inp_files/26996.got.cif
#   From: 2010.05.17/outbox.cif.g08.bks.cpg/sg66_14_cif.got.tgz:26996.got - 2010.06.03 17:51:23.
