data_PCOD9497049
_publ_section_title
;
Structure prediction by ZEFSAII (Michael W. Deem and Ramdas Pophale) SiO2 
 PCOD9497049
Probable space group: C C C M
;
_chemical_formula_sum "Si O2"
_cell_formula_units_Z 104
_cell_length_a 28.535346
_cell_length_b 23.559050
_cell_length_c 7.480786
_cell_angle_alpha 90.000000
_cell_angle_beta 90.000000
_cell_angle_gamma 90.000000
_cell_volume 5029.075412
_symmetry_space_group_name_H-M "C C C M"
_symmetry_group_IT_number 66
_symmetry_cell_setting 'orthorhombic'
loop_
_space_group_symop_operation_xyz
x,y,z
-x,-y,z
x,-y,1/2-z
-x,y,1/2-z
-x,-y,-z
x,y,-z
-x,y,1/2+z
x,-y,1/2+z
1/2+x,1/2+y,z
1/2-x,1/2-y,z
1/2+x,1/2-y,1/2-z
1/2-x,1/2+y,1/2-z
1/2-x,1/2-y,-z
1/2+x,1/2+y,-z
1/2-x,1/2+y,1/2+z
1/2+x,1/2-y,1/2+z
loop_
_atom_site_type_symbol
_atom_site_label
_atom_site_fract_x
_atom_site_fract_y
_atom_site_fract_z
Si Si1 0.902101 0.062889 0.298854
Si Si2 0.627395 0.129724 0.500000
Si Si3 0.304828 0.933790 0.214029
Si Si4 0.392631 0.792480 0.204323
Si Si5 0.445113 0.321672 0.213075
Si Si6 0.198433 0.901297 0.215278
Si Si7 0.300595 0.271507 0.717569
O O1 0.917906 0.069540 0.500000
O O2 0.920718 0.120980 0.210961
O O3 0.845748 0.064440 0.286730
O O4 0.918414 0.000000 0.250000
O O5 0.661510 0.102338 0.341157
O O6 0.594413 0.159355 0.342764
O O7 0.309804 0.078573 0.500000
O O8 0.250311 0.921924 0.263033
O O9 0.314413 0.000000 0.250000
O O10 0.424139 0.736012 0.207481
O O11 0.341941 0.769755 0.275566
O O12 0.388432 0.811796 0.000000
O O13 0.500000 0.325842 0.250000
O O14 0.436647 0.316867 0.000000
O O15 0.192199 0.836061 0.274691
O O16 0.195541 0.903088 0.000000
O O17 0.301272 0.271092 0.500000
O O18 0.250000 0.250000 0.775864
#
# Coordination Sequence:
#
# PCOD9497049 Si02
#       7
#    16   8  16  16  16  16  16
#     4  11  24  39  60  87 121 164 226 285 334 394
#     4  12  24  40  65  92 134 172 221 267 321 388
#     4  11  23  40  60  89 130 182 229 270 315 378
#     4  11  22  40  64  94 131 166 214 271 325 394
#     4  11  24  44  67  95 126 167 210 271 343 402
#     4  10  20  35  57  83 120 168 225 273 328 378
#     4   9  17  32  54  83 120 164 209 259 321 382
#
# _framework density 20.679746999999999
#
# number of rings (size 3 to 8) (size 9 to 14) (size 15 to 20)
#    0.000    1.385    3.077    2.769    1.077    5.846 
#    0.000    2.692    0.000    0.000    0.000    0.000 
#    0.000    1.846    0.000    0.000    0.000    0.000 
#
# Total GULP energy -289482.827434 kJ/mol
# GULP energy per Si atom -5566.977451 kJ/mol
# Density = 2.063268 g / cm^3
# Si number density = 20.679747 Si / 1000 Ang^3
#
#
#
# Elastic Constant Matrix: (Units=GPa)
#
#
# Indices 1 2 3 4 5 6 
#
# 1 35.9098 26.5052 2.2248 0.0000 0.0000 0.0000
# 2 26.5052 72.2089 13.5197 0.0000 0.0000 0.0000
# 3 2.2248 13.5197 116.5450 0.0000 0.0000 0.0000
# 4 0.0000 0.0000 0.0000 15.8911 0.0000 0.0000
# 5 0.0000 0.0000 0.0000 0.0000 11.7951 0.0000
# 6 0.0000 0.0000 0.0000 0.0000 0.0000 9.7845
#
#
#
# Elastic Compliance Matrix: (Units=1/GPa)
#
#
# Indices 1 2 3 4 5 6 
#
# 1 0.038292 -0.014228 0.000920 0.000000 0.000000 0.000000
# 2 -0.014228 0.019443 -0.001984 0.000000 0.000000 0.000000
# 3 0.000920 -0.001984 0.008793 0.000000 0.000000 0.000000
# 4 0.000000 0.000000 0.000000 0.062928 0.000000 0.000000
# 5 0.000000 0.000000 0.000000 0.000000 0.084781 0.000000
# 6 0.000000 0.000000 0.000000 0.000000 0.000000 0.102202
#
#
# Mechanical properties :
#
#
# Convention : Reuss Voigt Hill
#
# Bulk Modulus (GPa) = 27.82139 34.35146 31.08642
# Shear Modulus (GPa) = 13.92740 19.65508 16.79124
#
# Velocity S-wave (km/s) = 2.59796 3.08628 2.85259
# Velocity P-wave (km/s) = 4.74151 5.41732 5.09064
#
# Compressibility (1/GPa) = 0.03594356
#
# Stress axis : x y z
#
# Youngs Moduli (GPa) = 26.11496 51.43334 113.72735
#
# Poissons Ratio (x) = 0.73178 -0.10457
# Poissons Ratio (y) = 0.37156 0.22562
# Poissons Ratio (z) = -0.02401 0.10204
#
# Static dielectric constant tensor:
#      x y z
#    x 1.706340 0.000000 0.000000 
#    y 0.000000 1.796840 0.000000 
#    z 0.000000 0.000000 1.766170 
# 
# From -- ./inp_files/10353.got.cif
#   From: 2010.05.17/outbox.cif.g08.bks.cpg/sg66_6_cif.got.tgz:10353.got - 2010.06.03 17:51:23.
