data_PCOD9497484
_publ_section_title
;
Structure prediction by ZEFSAII (Michael W. Deem and Ramdas Pophale) SiO2 
 PCOD9497484
Probable space group: C C C M
;
_chemical_formula_sum "Si O2"
_cell_formula_units_Z 88
_cell_length_a 6.282467
_cell_length_b 28.112066
_cell_length_c 24.469808
_cell_angle_alpha 90.000000
_cell_angle_beta 90.000000
_cell_angle_gamma 90.000000
_cell_volume 4321.689307
_symmetry_space_group_name_H-M "C C C M"
_symmetry_group_IT_number 66
_symmetry_cell_setting 'orthorhombic'
loop_
_space_group_symop_operation_xyz
x,y,z
-x,-y,z
x,-y,1/2-z
-x,y,1/2-z
-x,-y,-z
x,y,-z
-x,y,1/2+z
x,-y,1/2+z
1/2+x,1/2+y,z
1/2-x,1/2-y,z
1/2+x,1/2-y,1/2-z
1/2-x,1/2+y,1/2-z
1/2-x,1/2-y,-z
1/2+x,1/2+y,-z
1/2-x,1/2+y,1/2+z
1/2+x,1/2-y,1/2+z
loop_
_atom_site_type_symbol
_atom_site_label
_atom_site_fract_x
_atom_site_fract_y
_atom_site_fract_z
Si Si1 0.788945 0.032457 0.500000
Si Si2 0.500000 0.000000 0.900039
Si Si3 0.697778 0.905607 0.382847
Si Si4 0.742829 0.193319 0.500000
Si Si5 0.483584 0.113310 0.500000
Si Si6 0.550967 0.171329 0.311572
Si Si7 0.547516 0.332922 0.384943
Si Si8 0.750000 0.250000 0.148328
O O1 0.676989 0.018301 0.557058
O O2 0.719104 0.088474 0.500000
O O3 0.000000 0.000000 0.500000
O O4 0.381998 0.958183 0.866867
O O5 0.642084 0.902859 0.446936
O O6 0.553576 0.867854 0.351025
O O7 0.935447 0.884437 0.377821
O O8 0.750000 0.250000 0.500000
O O9 0.508937 0.169904 0.500000
O O10 0.840632 0.174458 0.443152
O O11 0.500000 0.155986 0.250000
O O12 0.790034 0.175355 0.334624
O O13 0.428393 0.221305 0.318453
O O14 0.370520 0.291439 0.383986
#
# Coordination Sequence:
#
# PCOD9497484 Si02
#       8
#     8   8  16   8   8  16  16   8
#     4   9  19  31  58  85 117 161 210 258 315 372
#     4   9  20  36  57  90 122 156 211 259 318 380
#     4  10  22  40  61  89 127 162 207 269 322 385
#     4  12  23  34  62  85 132 177 212 250 319 399
#     4  10  20  38  55  88 126 167 211 261 312 379
#     4  11  24  41  63  89 122 164 214 267 322 381
#     4  11  24  40  62  92 127 169 215 261 326 386
#     4  10  24  39  62  88 122 159 216 270 312 376
#
# _framework density 20.362407999999999
#
# number of rings (size 3 to 8) (size 9 to 14) (size 15 to 20)
#    0.000    1.636    1.818    2.727    7.636    2.545 
#    0.000    0.455    0.000    0.000    0.000    5.091 
#    0.000    0.000    0.000    0.000    0.000    0.000 
#
# Total GULP energy -245111.334801 kJ/mol
# GULP energy per Si atom -5570.712155 kJ/mol
# Density = 2.031606 g / cm^3
# Si number density = 20.362408 Si / 1000 Ang^3
#
#
#
# Elastic Constant Matrix: (Units=GPa)
#
#
# Indices 1 2 3 4 5 6 
#
# 1 90.1923 35.3008 27.5120 0.0000 0.0000 0.0000
# 2 35.3008 125.8507 14.2300 0.0000 0.0000 0.0000
# 3 27.5120 14.2300 81.6048 0.0000 0.0000 0.0000
# 4 0.0000 0.0000 0.0000 -5.7893 0.0000 0.0000
# 5 0.0000 0.0000 0.0000 0.0000 3.4979 0.0000
# 6 0.0000 0.0000 0.0000 0.0000 0.0000 42.0902
#
#
#
# Elastic Compliance Matrix: (Units=1/GPa)
#
#
# Indices 1 2 3 4 5 6 
#
# 1 0.013629 -0.003370 -0.004007 0.000000 0.000000 0.000000
# 2 -0.003370 0.008939 -0.000423 0.000000 0.000000 0.000000
# 3 -0.004007 -0.000423 0.013679 0.000000 0.000000 0.000000
# 4 0.000000 0.000000 0.000000 -0.172733 0.000000 0.000000
# 5 0.000000 0.000000 0.000000 0.000000 0.285883 0.000000
# 6 0.000000 0.000000 0.000000 0.000000 0.000000 0.023759
#
#
# Mechanical properties :
#
#
# Convention : Reuss Voigt Hill
#
# Bulk Modulus (GPa) = 48.43239 50.19262 49.31251
# Shear Modulus (GPa) = 25.55757 22.66676 24.11216
#
# Velocity S-wave (km/s) = 3.54663 3.34003 3.44488
# Velocity P-wave (km/s) = 6.37246 6.29107 6.33190
#
# Compressibility (1/GPa) = 0.02064734
#
# Stress axis : x y z
#
# Youngs Moduli (GPa) = 73.37490 111.87044 73.10567
#
# Poissons Ratio (x) = 0.37697 0.29294
# Poissons Ratio (y) = 0.24725 0.03090
# Poissons Ratio (z) = 0.29402 0.04729
#
# Static dielectric constant tensor:
#      x y z
#    x 1.803130 0.000000 0.000000 
#    y 0.000000 1.824170 0.000000 
#    z 0.000000 0.000000 1.713550 
# 
# From -- ./inp_files/54489.got.cif
#   From: 2010.05.17/outbox.cif.g08.bks.cpg/sg66_28_cif.got.tgz:54489.got - 2010.06.03 17:51:23.
