data_PCOD9497527
_publ_section_title
;
Structure prediction by ZEFSAII (Michael W. Deem and Ramdas Pophale) SiO2 
 PCOD9497527
Probable space group: C C C M
;
_chemical_formula_sum "Si O2"
_cell_formula_units_Z 64
_cell_length_a 10.050992
_cell_length_b 35.435589
_cell_length_c 10.512404
_cell_angle_alpha 90.000000
_cell_angle_beta 90.000000
_cell_angle_gamma 90.000000
_cell_volume 3744.127470
_symmetry_space_group_name_H-M "C C C M"
_symmetry_group_IT_number 66
_symmetry_cell_setting 'orthorhombic'
loop_
_space_group_symop_operation_xyz
x,y,z
-x,-y,z
x,-y,1/2-z
-x,y,1/2-z
-x,-y,-z
x,y,-z
-x,y,1/2+z
x,-y,1/2+z
1/2+x,1/2+y,z
1/2-x,1/2-y,z
1/2+x,1/2-y,1/2-z
1/2-x,1/2+y,1/2-z
1/2-x,1/2-y,-z
1/2+x,1/2+y,-z
1/2-x,1/2+y,1/2+z
1/2+x,1/2-y,1/2+z
loop_
_atom_site_type_symbol
_atom_site_label
_atom_site_fract_x
_atom_site_fract_y
_atom_site_fract_z
Si Si1 0.145246 0.020362 0.135048
Si Si2 0.147351 0.716011 0.500000
Si Si3 0.335764 0.788105 0.000000
Si Si4 0.883545 0.889801 0.848621
Si Si5 0.155089 0.663422 0.255287
O O1 0.126101 0.064731 0.155106
O O2 0.217417 0.000000 0.250000
O O3 0.212615 0.014439 0.000000
O O4 0.000000 0.000000 0.127548
O O5 0.250000 0.750000 0.500000
O O6 0.170391 0.692008 0.372960
O O7 0.990209 0.725085 0.500000
O O8 0.250000 0.750000 0.000000
O O9 0.313020 0.814192 0.124759
O O10 0.751646 0.870801 0.791227
O O11 0.000000 0.878359 0.750000
O O12 0.902878 0.879781 0.000000
O O13 0.000000 0.651837 0.250000
#
# Coordination Sequence:
#
# PCOD9497527 Si02
#       5
#    16   8   8  16  16
#     4   9  16  30  50  78 113 148 187 234 296 345
#     4  10  20  38  62  80 110 153 187 235 291 348
#     4  10  22  38  60  86 110 147 195 241 285 348
#     4  11  22  35  57  88 120 153 195 249 295 346
#     4  10  22  40  57  82 118 157 191 229 297 355
#
# _framework density 17.093436000000001
#
# number of rings (size 3 to 8) (size 9 to 14) (size 15 to 20)
#    0.000    2.000    3.750    0.750    1.750    2.000 
#    0.000    0.000    0.000    0.750    0.000    3.500 
#    0.000    0.000    0.000    0.000    0.000    0.000 
#
# Total GULP energy -178151.756724 kJ/mol
# GULP energy per Si atom -5567.242398 kJ/mol
# Density = 1.705453 g / cm^3
# Si number density = 17.093436 Si / 1000 Ang^3
#
#
#
# Elastic Constant Matrix: (Units=GPa)
#
#
# Indices 1 2 3 4 5 6 
#
# 1 77.9991 76.3199 55.5183 0.0000 0.0000 0.0000
# 2 76.3199 102.6211 53.7199 0.0000 0.0000 0.0000
# 3 55.5183 53.7199 182.1029 0.0000 0.0000 0.0000
# 4 0.0000 0.0000 0.0000 18.0081 0.0000 0.0000
# 5 0.0000 0.0000 0.0000 0.0000 0.8563 0.0000
# 6 0.0000 0.0000 0.0000 0.0000 0.0000 22.4836
#
#
#
# Elastic Compliance Matrix: (Units=1/GPa)
#
#
# Indices 1 2 3 4 5 6 
#
# 1 0.050850 -0.035126 -0.005141 0.000000 0.000000 0.000000
# 2 -0.035126 0.035789 0.000151 0.000000 0.000000 0.000000
# 3 -0.005141 0.000151 0.007014 0.000000 0.000000 0.000000
# 4 0.000000 0.000000 0.000000 0.055531 0.000000 0.000000
# 5 0.000000 0.000000 0.000000 0.000000 1.167766 0.000000
# 6 0.000000 0.000000 0.000000 0.000000 0.000000 0.044477
#
#
# Mechanical properties :
#
#
# Convention : Reuss Voigt Hill
#
# Bulk Modulus (GPa) = 74.50578 81.53770 78.02174
# Shear Modulus (GPa) = 3.45750 20.08059 11.76905
#
# Velocity S-wave (km/s) = 1.42376 3.43119 2.62680
# Velocity P-wave (km/s) = 6.81064 7.96882 7.41239
#
# Compressibility (1/GPa) = 0.01342178
#
# Stress axis : x y z
#
# Youngs Moduli (GPa) = 19.66584 27.94164 142.57295
#
# Poissons Ratio (x) = 0.98148 0.73290
# Poissons Ratio (y) = 0.69079 -0.02159
# Poissons Ratio (z) = 0.10109 -0.00423
#
# Static dielectric constant tensor:
#      x y z
#    x 1.548820 0.000000 0.000000 
#    y 0.000000 1.558530 0.000000 
#    z 0.000000 0.000000 1.659560 
# 
# From -- ./inp_files/13609.got.cif
#   From: 2010.05.17/outbox.cif.g08.bks.cpg/sg66_7_cif.got.tgz:13609.got - 2010.06.03 17:51:23.
