data_PCOD9497994
_publ_section_title
;
Structure prediction by ZEFSAII (Michael W. Deem and Ramdas Pophale) SiO2 
 PCOD9497994
Probable space group: C C C M
;
_chemical_formula_sum "Si O2"
_cell_formula_units_Z 112
_cell_length_a 14.524282
_cell_length_b 24.855738
_cell_length_c 14.488289
_cell_angle_alpha 90.000000
_cell_angle_beta 90.000000
_cell_angle_gamma 90.000000
_cell_volume 5230.442538
_symmetry_space_group_name_H-M "C C C M"
_symmetry_group_IT_number 66
_symmetry_cell_setting 'orthorhombic'
loop_
_space_group_symop_operation_xyz
x,y,z
-x,-y,z
x,-y,1/2-z
-x,y,1/2-z
-x,-y,-z
x,y,-z
-x,y,1/2+z
x,-y,1/2+z
1/2+x,1/2+y,z
1/2-x,1/2-y,z
1/2+x,1/2-y,1/2-z
1/2-x,1/2+y,1/2-z
1/2-x,1/2-y,-z
1/2+x,1/2+y,-z
1/2-x,1/2+y,1/2+z
1/2+x,1/2-y,1/2+z
loop_
_atom_site_type_symbol
_atom_site_label
_atom_site_fract_x
_atom_site_fract_y
_atom_site_fract_z
Si Si1 0.014922 0.868127 0.143967
Si Si2 0.825184 0.408902 0.737436
Si Si3 0.488832 0.248706 0.397937
Si Si4 0.407791 0.472009 0.390386
Si Si5 0.150278 0.718242 0.741017
Si Si6 0.176997 0.922399 0.394759
Si Si7 0.889119 0.505480 0.391359
O O1 0.023826 0.812502 0.094244
O O2 0.926597 0.899664 0.104700
O O3 0.000000 0.854987 0.250000
O O4 0.097229 0.910905 0.138695
O O5 0.856795 0.347151 0.740434
O O6 0.723780 0.398497 0.695171
O O7 0.859807 0.448774 0.655301
O O8 0.850652 0.444387 0.828537
O O9 0.491124 0.224045 0.500000
O O10 0.583914 0.237859 0.342630
O O11 0.402783 0.231852 0.335502
O O12 0.500000 0.500000 0.350675
O O13 0.417061 0.471295 0.500000
O O14 0.327372 0.513757 0.372706
O O15 0.250000 0.750000 0.736429
O O16 0.212518 0.913627 0.500000
O O17 0.863601 0.510773 0.500000
O O18 0.000000 0.500000 0.386294
#
# Coordination Sequence:
#
# PCOD9497994 Si02
#       7
#    16  16  16  16  16  16  16
#     4  11  20  35  60  88 131 181 228 276 323 391
#     4  11  23  41  71  98 136 174 216 284 349 412
#     4  11  25  45  70  99 134 184 238 288 348 415
#     4   8  16  31  52  82 120 164 211 252 302 373
#     4  11  26  47  71 105 144 183 238 294 349 420
#     4  10  21  37  60  95 136 177 222 272 335 408
#     4  10  24  45  71 101 130 169 220 279 354 425
#
# _framework density 21.413103
#
# number of rings (size 3 to 8) (size 9 to 14) (size 15 to 20)
#    0.000    1.714    1.429    4.286    4.000    7.143 
#    0.000    0.000    0.000    0.000    0.000    0.000 
#    0.000    0.571    0.000    0.000    0.000    0.000 
#
# Total GULP energy -311884.191775 kJ/mol
# GULP energy per Si atom -5569.360567 kJ/mol
# Density = 2.136437 g / cm^3
# Si number density = 21.413103 Si / 1000 Ang^3
#
#
#
# Elastic Constant Matrix: (Units=GPa)
#
#
# Indices 1 2 3 4 5 6 
#
# 1 73.2295 23.0613 40.1323 0.0000 0.0000 0.0000
# 2 23.0613 159.5248 39.1486 0.0000 0.0000 0.0000
# 3 40.1323 39.1486 164.8219 0.0000 0.0000 0.0000
# 4 0.0000 0.0000 0.0000 22.5583 0.0000 0.0000
# 5 0.0000 0.0000 0.0000 0.0000 25.6134 0.0000
# 6 0.0000 0.0000 0.0000 0.0000 0.0000 -0.2420
#
#
#
# Elastic Compliance Matrix: (Units=1/GPa)
#
#
# Indices 1 2 3 4 5 6 
#
# 1 0.016067 -0.001447 -0.003568 0.000000 0.000000 0.000000
# 2 -0.001447 0.006787 -0.001260 0.000000 0.000000 0.000000
# 3 -0.003568 -0.001260 0.007235 0.000000 0.000000 0.000000
# 4 0.000000 0.000000 0.000000 0.044330 0.000000 0.000000
# 5 0.000000 0.000000 0.000000 0.000000 0.039042 0.000000
# 6 0.000000 0.000000 0.000000 0.000000 0.000000 -4.132686
#
#
# Mechanical properties :
#
#
# Convention : Reuss Voigt Hill
#
# Bulk Modulus (GPa) = 57.01606 66.91785 61.96695
# Shear Modulus (GPa) = -1.24974 29.26822 14.00924
#
# Velocity S-wave (km/s) = -0.76479 3.70109 2.56058
# Velocity P-wave (km/s) = 5.08966 7.04150 6.14359
#
# Compressibility (1/GPa) = 0.01753892
#
# Stress axis : x y z
#
# Youngs Moduli (GPa) = 62.23934 147.34189 138.21239
#
# Poissons Ratio (x) = 0.21320 0.49320
# Poissons Ratio (y) = 0.09006 0.17411
# Poissons Ratio (z) = 0.22210 0.18561
#
# Static dielectric constant tensor:
#      x y z
#    x 1.917670 0.000000 0.000000 
#    y 0.000000 1.992710 0.000000 
#    z 0.000000 0.000000 1.821460 
# 
# From -- ./inp_files/28719.got.cif
#   From: 2010.05.17/outbox.cif.g08.bks.cpg/sg66_15_cif.got.tgz:28719.got - 2010.06.03 17:51:23.
