data_PCOD9498996
_publ_section_title
;
Structure prediction by ZEFSAII (Michael W. Deem and Ramdas Pophale) SiO2 
 PCOD9498996
Probable space group: C C C M
;
_chemical_formula_sum "Si O2"
_cell_formula_units_Z 64
_cell_length_a 36.513372
_cell_length_b 7.248345
_cell_length_c 11.192780
_cell_angle_alpha 90.000000
_cell_angle_beta 90.000000
_cell_angle_gamma 90.000000
_cell_volume 2962.298138
_symmetry_space_group_name_H-M "C C C M"
_symmetry_group_IT_number 66
_symmetry_cell_setting 'orthorhombic'
loop_
_space_group_symop_operation_xyz
x,y,z
-x,-y,z
x,-y,1/2-z
-x,y,1/2-z
-x,-y,-z
x,y,-z
-x,y,1/2+z
x,-y,1/2+z
1/2+x,1/2+y,z
1/2-x,1/2-y,z
1/2+x,1/2-y,1/2-z
1/2-x,1/2+y,1/2-z
1/2-x,1/2-y,-z
1/2+x,1/2+y,-z
1/2-x,1/2+y,1/2+z
1/2+x,1/2-y,1/2+z
loop_
_atom_site_type_symbol
_atom_site_label
_atom_site_fract_x
_atom_site_fract_y
_atom_site_fract_z
Si Si1 0.484346 0.708394 0.629034
Si Si2 0.603265 0.709668 0.128870
Si Si3 0.366175 0.291522 0.629124
Si Si4 0.212837 0.633261 0.865002
O O1 0.500000 0.500000 0.626751
O O2 0.500000 0.794244 0.750000
O O3 0.494606 0.790798 0.500000
O O4 0.440530 0.697143 0.635749
O O5 0.617119 0.795258 0.251766
O O6 0.620686 0.504040 0.127462
O O7 0.613262 0.793763 0.000000
O O8 0.378119 0.215073 0.500000
O O9 0.322632 0.265852 0.637983
O O10 0.210592 0.500000 0.750000
O O11 0.250000 0.750000 0.856067
O O12 0.212475 0.545620 0.000000
#
# Coordination Sequence:
#
# PCOD9498996 Si02
#       4
#    16  16  16  16
#     4   9  15  22  34  58  95 133 168 204 245 297
#     4   9  17  27  44  71  99 133 173 210 253 304
#     4   9  17  30  47  67  95 126 162 205 248 299
#     4  10  23  40  57  80 106 133 171 216 264 319
#
# _framework density 21.604846999999999
#
# number of rings (size 3 to 8) (size 9 to 14) (size 15 to 20)
#    0.000    2.750    0.000    3.000    3.500    4.500 
#    0.000    0.000    0.000    0.000    0.000    0.000 
#    0.000   16.000    0.000  150.000    0.000   45.000 
#
# Total GULP energy -178292.735705 kJ/mol
# GULP energy per Si atom -5571.647991 kJ/mol
# Density = 2.155567 g / cm^3
# Si number density = 21.604847 Si / 1000 Ang^3
#
#
#
# Elastic Constant Matrix: (Units=GPa)
#
#
# Indices 1 2 3 4 5 6 
#
# 1 87.2914 17.7124 79.5688 0.0000 0.0000 0.0000
# 2 17.7124 84.8549 37.1865 0.0000 0.0000 0.0000
# 3 79.5688 37.1865 289.8063 0.0000 0.0000 0.0000
# 4 0.0000 0.0000 0.0000 -27.8343 0.0000 0.0000
# 5 0.0000 0.0000 0.0000 0.0000 36.7167 0.0000
# 6 0.0000 0.0000 0.0000 0.0000 0.0000 5.6335
#
#
#
# Elastic Compliance Matrix: (Units=1/GPa)
#
#
# Indices 1 2 3 4 5 6 
#
# 1 0.015446 -0.001447 -0.004055 0.000000 0.000000 0.000000
# 2 -0.001447 0.012623 -0.001222 0.000000 0.000000 0.000000
# 3 -0.004055 -0.001222 0.004721 0.000000 0.000000 0.000000
# 4 0.000000 0.000000 0.000000 -0.035927 0.000000 0.000000
# 5 0.000000 0.000000 0.000000 0.000000 0.027236 0.000000
# 6 0.000000 0.000000 0.000000 0.000000 0.000000 0.177510
#
#
# Mechanical properties :
#
#
# Convention : Reuss Voigt Hill
#
# Bulk Modulus (GPa) = 51.70580 81.20978 66.45779
# Shear Modulus (GPa) = 22.57303 24.73550 23.65426
#
# Velocity S-wave (km/s) = 3.23586 3.38732 3.31246
# Velocity P-wave (km/s) = 6.16000 7.27797 6.74219
#
# Compressibility (1/GPa) = 0.01934019
#
# Stress axis : x y z
#
# Youngs Moduli (GPa) = 64.74221 79.22327 211.82860
#
# Poissons Ratio (x) = 0.11464 0.85899
# Poissons Ratio (y) = 0.09368 0.25893
# Poissons Ratio (z) = 0.26254 0.09684
#
# Static dielectric constant tensor:
#      x y z
#    x 1.725650 0.000000 0.000000 
#    y 0.000000 1.722860 0.000000 
#    z 0.000000 0.000000 1.902090 
# 
# From -- ./inp_files/13589.got.cif
#   From: 2010.05.17/outbox.cif.g08.bks.cpg/sg66_7_cif.got.tgz:13589.got - 2010.06.03 17:51:23.
