data_PCOD9498117
_publ_section_title
;
Structure prediction by ZEFSAII (Michael W. Deem and Ramdas Pophale) SiO2 
 PCOD9498117
Probable space group: C C C M
;
_chemical_formula_sum "Si O2"
_cell_formula_units_Z 56
_cell_length_a 18.176591
_cell_length_b 10.907307
_cell_length_c 13.066142
_cell_angle_alpha 90.000000
_cell_angle_beta 90.000000
_cell_angle_gamma 90.000000
_cell_volume 2590.462715
_symmetry_space_group_name_H-M "C C C M"
_symmetry_group_IT_number 66
_symmetry_cell_setting 'orthorhombic'
loop_
_space_group_symop_operation_xyz
x,y,z
-x,-y,z
x,-y,1/2-z
-x,y,1/2-z
-x,-y,-z
x,y,-z
-x,y,1/2+z
x,-y,1/2+z
1/2+x,1/2+y,z
1/2-x,1/2-y,z
1/2+x,1/2-y,1/2-z
1/2-x,1/2+y,1/2-z
1/2-x,1/2-y,-z
1/2+x,1/2+y,-z
1/2-x,1/2+y,1/2+z
1/2+x,1/2-y,1/2+z
loop_
_atom_site_type_symbol
_atom_site_label
_atom_site_fract_x
_atom_site_fract_y
_atom_site_fract_z
Si Si1 0.334980 0.084496 0.379668
Si Si2 0.076401 0.347656 0.200132
Si Si3 0.430863 0.411549 0.116639
Si Si4 0.299846 0.500000 0.250000
O O1 0.335225 0.113725 0.500000
O O2 0.373704 0.178690 0.301189
O O3 0.254502 0.065087 0.330938
O O4 0.380214 0.955703 0.360057
O O5 0.054367 0.232247 0.131169
O O6 0.000000 0.384286 0.250000
O O7 0.500000 0.500000 0.144210
O O8 0.357134 0.425325 0.181953
O O9 0.414191 0.441674 0.000000
#
# Coordination Sequence:
#
# PCOD9498117 Si02
#       4
#    16  16  16   8
#     4  10  22  38  60  89 121 161 201 246 302 354
#     4  10  21  38  61  90 121 155 201 252 298 357
#     4  11  23  40  64  89 118 158 200 248 305 361
#     4  10  21  40  59  86 124 154 200 252 297 360
#
# _framework density 21.617759
#
# number of rings (size 3 to 8) (size 9 to 14) (size 15 to 20)
#    0.000    2.000    0.000    5.571    0.000    8.000 
#    0.000   11.429    0.000    0.857    0.000    0.000 
#    0.000    0.000    0.000    0.000    0.000    0.000 
#
# Total GULP energy -155956.304388 kJ/mol
# GULP energy per Si atom -5569.868014 kJ/mol
# Density = 2.156856 g / cm^3
# Si number density = 21.617759 Si / 1000 Ang^3
#
#
#
# Elastic Constant Matrix: (Units=GPa)
#
#
# Indices 1 2 3 4 5 6 
#
# 1 130.1869 30.5846 20.8909 0.0000 0.0000 0.0000
# 2 30.5846 60.0750 8.1491 0.0000 0.0000 0.0000
# 3 20.8909 8.1491 154.0789 0.0000 0.0000 0.0000
# 4 0.0000 0.0000 0.0000 20.4904 0.0000 0.0000
# 5 0.0000 0.0000 0.0000 0.0000 15.3928 0.0000
# 6 0.0000 0.0000 0.0000 0.0000 0.0000 9.6842
#
#
#
# Elastic Compliance Matrix: (Units=1/GPa)
#
#
# Indices 1 2 3 4 5 6 
#
# 1 0.008867 -0.004382 -0.000970 0.000000 0.000000 0.000000
# 2 -0.004382 0.018932 -0.000407 0.000000 0.000000 0.000000
# 3 -0.000970 -0.000407 0.006643 0.000000 0.000000 0.000000
# 4 0.000000 0.000000 0.000000 0.048803 0.000000 0.000000
# 5 0.000000 0.000000 0.000000 0.000000 0.064965 0.000000
# 6 0.000000 0.000000 0.000000 0.000000 0.000000 0.103261
#
#
# Mechanical properties :
#
#
# Convention : Reuss Voigt Hill
#
# Bulk Modulus (GPa) = 43.62578 51.50999 47.56788
# Shear Modulus (GPa) = 18.47524 28.09456 23.28490
#
# Velocity S-wave (km/s) = 2.92658 3.60892 3.28551
# Velocity P-wave (km/s) = 5.62532 6.42223 6.03694
#
# Compressibility (1/GPa) = 0.02292223
#
# Stress axis : x y z
#
# Youngs Moduli (GPa) = 112.78376 52.82009 150.52790
#
# Poissons Ratio (x) = 0.23148 0.14607
# Poissons Ratio (y) = 0.49426 0.06128
# Poissons Ratio (z) = 0.10945 0.02150
#
# Static dielectric constant tensor:
#      x y z
#    x 1.850540 0.000000 0.000000 
#    y 0.000000 2.292100 0.000000 
#    z 0.000000 0.000000 1.786860 
# 
# From -- ./inp_files/27526.got.cif
#   From: 2010.05.17/outbox.cif.g08.bks.cpg/sg66_14_cif.got.tgz:27526.got - 2010.06.03 17:51:23.
