data_PCOD9498777
_publ_section_title
;
Structure prediction by ZEFSAII (Michael W. Deem and Ramdas Pophale) SiO2 
 PCOD9498777
Probable space group: C C C M
;
_chemical_formula_sum "Si O2"
_cell_formula_units_Z 48
_cell_length_a 15.687390
_cell_length_b 9.723281
_cell_length_c 14.149370
_cell_angle_alpha 90.000000
_cell_angle_beta 90.000000
_cell_angle_gamma 90.000000
_cell_volume 2158.244455
_symmetry_space_group_name_H-M "C C C M"
_symmetry_group_IT_number 66
_symmetry_cell_setting 'orthorhombic'
loop_
_space_group_symop_operation_xyz
x,y,z
-x,-y,z
x,-y,1/2-z
-x,y,1/2-z
-x,-y,-z
x,y,-z
-x,y,1/2+z
x,-y,1/2+z
1/2+x,1/2+y,z
1/2-x,1/2-y,z
1/2+x,1/2-y,1/2-z
1/2-x,1/2+y,1/2-z
1/2-x,1/2-y,-z
1/2+x,1/2+y,-z
1/2-x,1/2+y,1/2+z
1/2+x,1/2-y,1/2+z
loop_
_atom_site_type_symbol
_atom_site_label
_atom_site_fract_x
_atom_site_fract_y
_atom_site_fract_z
Si Si1 0.735668 0.394964 0.330967
Si Si2 0.887071 0.896157 0.000000
Si Si3 0.404760 0.039225 0.362005
Si Si4 0.923748 0.781256 0.500000
O O1 0.709343 0.500000 0.250000
O O2 0.750000 0.250000 0.280428
O O3 0.663986 0.362074 0.406368
O O4 0.818579 0.455618 0.385393
O O5 0.975072 0.813014 0.000000
O O6 0.890712 0.062899 0.000000
O O7 0.396534 0.191235 0.408008
O O8 0.500000 0.000000 0.395683
O O9 0.407039 0.000000 0.250000
#
# Coordination Sequence:
#
# PCOD9498777 Si02
#       4
#    16   8  16   8
#     4  11  25  43  71 105 141 184 233 295 348 414
#     4  11  26  45  70  99 146 180 237 290 350 412
#     4  10  22  40  69  98 139 179 234 280 346 418
#     4  11  24  45  68 103 135 193 228 287 352 420
#
# _framework density 22.240299
#
# number of rings (size 3 to 8) (size 9 to 14) (size 15 to 20)
#    0.000    1.333    0.000    4.000    9.333    1.333 
#    0.000    1.667    0.000    0.000    0.000    0.000 
#    0.000    0.000    0.000    0.000    0.000    0.000 
#
# Total GULP energy -133719.980626 kJ/mol
# GULP energy per Si atom -5571.665859 kJ/mol
# Density = 2.218968 g / cm^3
# Si number density = 22.240299 Si / 1000 Ang^3
#
#
#
# Elastic Constant Matrix: (Units=GPa)
#
#
# Indices 1 2 3 4 5 6 
#
# 1 40.4589 -3.7319 -4.8233 0.0000 0.0000 0.0000
# 2 -3.7319 159.4285 48.4105 0.0000 0.0000 0.0000
# 3 -4.8233 48.4105 131.0586 0.0000 0.0000 0.0000
# 4 0.0000 0.0000 0.0000 35.6782 0.0000 0.0000
# 5 0.0000 0.0000 0.0000 0.0000 21.5737 0.0000
# 6 0.0000 0.0000 0.0000 0.0000 0.0000 24.7631
#
#
#
# Elastic Compliance Matrix: (Units=1/GPa)
#
#
# Indices 1 2 3 4 5 6 
#
# 1 0.024842 0.000342 0.000788 0.000000 0.000000 0.000000
# 2 0.000342 0.007070 -0.002599 0.000000 0.000000 0.000000
# 3 0.000788 -0.002599 0.008619 0.000000 0.000000 0.000000
# 4 0.000000 0.000000 0.000000 0.028028 0.000000 0.000000
# 5 0.000000 0.000000 0.000000 0.000000 0.046353 0.000000
# 6 0.000000 0.000000 0.000000 0.000000 0.000000 0.040383
#
#
# Mechanical properties :
#
#
# Convention : Reuss Voigt Hill
#
# Bulk Modulus (GPa) = 26.60051 45.62851 36.11451
# Shear Modulus (GPa) = 29.28039 35.80904 32.54472
#
# Velocity S-wave (km/s) = 3.63236 4.01695 3.82949
# Velocity P-wave (km/s) = 5.43861 6.48654 5.98556
#
# Compressibility (1/GPa) = 0.03759327
#
# Stress axis : x y z
#
# Youngs Moduli (GPa) = 40.25448 141.45221 116.02144
#
# Poissons Ratio (x) = -0.04842 -0.09140
# Poissons Ratio (y) = -0.01378 0.30151
# Poissons Ratio (z) = -0.03171 0.36760
#
# Static dielectric constant tensor:
#      x y z
#    x 1.842550 0.000000 0.000000 
#    y 0.000000 1.822720 0.000000 
#    z 0.000000 0.000000 1.868480 
# 
# From -- ./inp_files/23561.got.cif
#   From: 2010.05.17/outbox.cif.g08.bks.cpg/sg66_12_cif.got.tgz:23561.got - 2010.06.03 17:51:23.
