data_PCOD9498475
_publ_section_title
;
Structure prediction by ZEFSAII (Michael W. Deem and Ramdas Pophale) SiO2 
 PCOD9498475
Probable space group: C C C M
;
_chemical_formula_sum "Si O2"
_cell_formula_units_Z 60
_cell_length_a 26.273970
_cell_length_b 5.290593
_cell_length_c 19.044915
_cell_angle_alpha 90.000000
_cell_angle_beta 90.000000
_cell_angle_gamma 90.000000
_cell_volume 2647.336158
_symmetry_space_group_name_H-M "C C C M"
_symmetry_group_IT_number 66
_symmetry_cell_setting 'orthorhombic'
loop_
_space_group_symop_operation_xyz
x,y,z
-x,-y,z
x,-y,1/2-z
-x,y,1/2-z
-x,-y,-z
x,y,-z
-x,y,1/2+z
x,-y,1/2+z
1/2+x,1/2+y,z
1/2-x,1/2-y,z
1/2+x,1/2-y,1/2-z
1/2-x,1/2+y,1/2-z
1/2-x,1/2-y,-z
1/2+x,1/2+y,-z
1/2-x,1/2+y,1/2+z
1/2+x,1/2-y,1/2+z
loop_
_atom_site_type_symbol
_atom_site_label
_atom_site_fract_x
_atom_site_fract_y
_atom_site_fract_z
Si Si1 0.049683 0.360625 0.364887
Si Si2 0.118546 0.500000 0.750000
Si Si3 0.309466 0.255107 0.165122
Si Si4 0.500000 0.500000 0.250000
Si Si5 0.343841 0.749400 0.081054
O O1 0.081509 0.548447 0.315439
O O2 0.032325 0.163729 0.305205
O O3 0.093919 0.253376 0.414021
O O4 0.000000 0.500000 0.395273
O O5 0.158098 0.273422 0.763069
O O6 0.250000 0.250000 0.180909
O O7 0.324384 0.498976 0.119843
O O8 0.323073 0.001646 0.119621
O O9 0.328495 0.750396 0.000000
#
# Coordination Sequence:
#
# PCOD9498475 Si02
#       5
#    16   8  16   4  16
#     4  11  22  38  64  94 130 179 215 276 342 402
#     4  10  21  42  63  98 136 159 221 276 336 404
#     4  11  25  44  71 100 133 178 222 283 350 397
#     4  12  18  36  68  90 132 166 218 270 338 412
#     4  11  26  45  66  98 137 179 232 276 324 405
#
# _framework density 22.664290999999999
#
# number of rings (size 3 to 8) (size 9 to 14) (size 15 to 20)
#    0.000    1.067    2.667    3.200    3.733   11.200 
#    0.000    0.667    0.000    0.000    0.000    0.000 
#    0.000    0.000    0.000    0.000    0.000    0.000 
#
# Total GULP energy -167262.649409 kJ/mol
# GULP energy per Si atom -5575.421647 kJ/mol
# Density = 2.261271 g / cm^3
# Si number density = 22.664291 Si / 1000 Ang^3
#
#
#
# Elastic Constant Matrix: (Units=GPa)
#
#
# Indices 1 2 3 4 5 6 
#
# 1 146.0119 23.6440 -14.8419 0.0000 0.0000 0.0000
# 2 23.6440 138.6192 19.9692 0.0000 0.0000 0.0000
# 3 -14.8419 19.9692 63.7164 0.0000 0.0000 0.0000
# 4 0.0000 0.0000 0.0000 26.1207 0.0000 0.0000
# 5 0.0000 0.0000 0.0000 0.0000 -360.6570 0.0000
# 6 0.0000 0.0000 0.0000 0.0000 0.0000 8.2908
#
#
#
# Elastic Compliance Matrix: (Units=1/GPa)
#
#
# Indices 1 2 3 4 5 6 
#
# 1 0.007326 -0.001566 0.002197 0.000000 0.000000 0.000000
# 2 -0.001566 0.007890 -0.002838 0.000000 0.000000 0.000000
# 3 0.002197 -0.002838 0.017096 0.000000 0.000000 0.000000
# 4 0.000000 0.000000 0.000000 0.038284 0.000000 0.000000
# 5 0.000000 0.000000 0.000000 0.000000 -0.002773 0.000000
# 6 0.000000 0.000000 0.000000 0.000000 0.000000 0.120616
#
#
# Mechanical properties :
#
#
# Convention : Reuss Voigt Hill
#
# Bulk Modulus (GPa) = 35.84417 45.09889 40.47153
# Shear Modulus (GPa) = 24.73400 -43.94403 -9.60501
#
# Velocity S-wave (km/s) = 3.30710 -4.40808 -2.06086
# Velocity P-wave (km/s) = 5.51653 2.44262 3.49755
#
# Compressibility (1/GPa) = 0.02789854
#
# Stress axis : x y z
#
# Youngs Moduli (GPa) = 136.50571 126.74439 58.49438
#
# Poissons Ratio (x) = 0.19849 -0.12853
# Poissons Ratio (y) = 0.21378 0.16598
# Poissons Ratio (z) = -0.29994 0.35964
#
# Static dielectric constant tensor:
#      x y z
#    x 1.940920 0.000000 0.000000 
#    y 0.000000 1.946780 0.000000 
#    z 0.000000 0.000000 1.884720 
# 
# From -- ./inp_files/52200.got.cif
#   From: 2010.05.17/outbox.cif.g08.bks.cpg/sg66_27_cif.got.tgz:52200.got - 2010.06.03 17:51:23.
