data_PCOD9498717
_publ_section_title
;
Structure prediction by ZEFSAII (Michael W. Deem and Ramdas Pophale) SiO2 
 PCOD9498717
Probable space group: C C C M
;
_chemical_formula_sum "Si O2"
_cell_formula_units_Z 80
_cell_length_a 29.337232
_cell_length_b 4.876806
_cell_length_c 25.375646
_cell_angle_alpha 90.000000
_cell_angle_beta 90.000000
_cell_angle_gamma 90.000000
_cell_volume 3630.544146
_symmetry_space_group_name_H-M "C C C M"
_symmetry_group_IT_number 66
_symmetry_cell_setting 'orthorhombic'
loop_
_space_group_symop_operation_xyz
x,y,z
-x,-y,z
x,-y,1/2-z
-x,y,1/2-z
-x,-y,-z
x,y,-z
-x,y,1/2+z
x,-y,1/2+z
1/2+x,1/2+y,z
1/2-x,1/2-y,z
1/2+x,1/2-y,1/2-z
1/2-x,1/2+y,1/2-z
1/2-x,1/2-y,-z
1/2+x,1/2+y,-z
1/2-x,1/2+y,1/2+z
1/2+x,1/2-y,1/2+z
loop_
_atom_site_type_symbol
_atom_site_label
_atom_site_fract_x
_atom_site_fract_y
_atom_site_fract_z
Si Si1 0.633450 0.917423 0.000000
Si Si2 0.572004 0.000000 0.250000
Si Si3 0.802786 0.278762 0.836170
Si Si4 0.500000 0.000000 0.662770
Si Si5 0.133585 0.000000 0.250000
Si Si6 0.500000 0.500000 0.089534
Si Si7 0.803043 0.221185 0.594324
Si Si8 0.571028 0.421966 0.000000
O O1 0.663372 0.831610 0.050231
O O2 0.588254 0.732881 0.000000
O O3 0.614959 0.226163 0.000000
O O4 0.540251 0.904167 0.298257
O O5 0.601502 0.744790 0.229623
O O6 0.750000 0.250000 0.819707
O O7 0.835400 0.156049 0.792425
O O8 0.809760 0.590825 0.853672
O O9 0.809697 0.091436 0.888189
O O10 0.515522 0.250806 0.626399
O O11 0.539704 0.386563 0.051440
O O12 0.750000 0.250000 0.578044
#
# Coordination Sequence:
#
# PCOD9498717 Si02
#       8
#     8   8  16   8   8   8  16   8
#     4  12  23  39  64  92 126 158 200 261 307 349
#     4  11  26  41  62  99 120 153 216 253 306 389
#     4  10  23  40  60  88 124 166 208 247 301 365
#     4  11  24  45  68  86 124 167 196 253 322 376
#     4  12  24  40  64  93 128 159 204 268 308 354
#     4  11  24  45  66  86 124 165 196 251 318 372
#     4  10  22  40  60  88 124 165 208 247 299 365
#     4  11  26  40  61  98 120 152 213 250 299 386
#
# _framework density 22.035263
#
# number of rings (size 3 to 8) (size 9 to 14) (size 15 to 20)
#    0.000    1.200    0.000    5.100    0.000   16.000 
#    0.000    4.000    0.000    0.000    0.000    0.000 
#    0.000    0.000    0.000    0.000    0.000    0.000 
#
# Total GULP energy -223780.384396 kJ/mol
# GULP energy per Si atom -5594.509610 kJ/mol
# Density = 2.198511 g / cm^3
# Si number density = 22.035263 Si / 1000 Ang^3
#
#
#
# Elastic Constant Matrix: (Units=GPa)
#
#
# Indices 1 2 3 4 5 6 
#
# 1 87.8853 8.2444 42.9375 0.0000 0.0000 0.0000
# 2 8.2444 78.7292 -4.8628 0.0000 0.0000 0.0000
# 3 42.9375 -4.8628 72.0082 0.0000 0.0000 0.0000
# 4 0.0000 0.0000 0.0000 18.5804 0.0000 0.0000
# 5 0.0000 0.0000 0.0000 0.0000 31.0601 0.0000
# 6 0.0000 0.0000 0.0000 0.0000 0.0000 41.8477
#
#
#
# Elastic Compliance Matrix: (Units=1/GPa)
#
#
# Indices 1 2 3 4 5 6 
#
# 1 0.016475 -0.002342 -0.009982 0.000000 0.000000 0.000000
# 2 -0.002342 0.013088 0.002280 0.000000 0.000000 0.000000
# 3 -0.009982 0.002280 0.019993 0.000000 0.000000 0.000000
# 4 0.000000 0.000000 0.000000 0.053820 0.000000 0.000000
# 5 0.000000 0.000000 0.000000 0.000000 0.032196 0.000000
# 6 0.000000 0.000000 0.000000 0.000000 0.000000 0.023896
#
#
# Mechanical properties :
#
#
# Convention : Reuss Voigt Hill
#
# Bulk Modulus (GPa) = 33.93378 36.80678 35.37028
# Shear Modulus (GPa) = 26.40220 31.11789 28.76004
#
# Velocity S-wave (km/s) = 3.46523 3.76198 3.61665
# Velocity P-wave (km/s) = 5.60746 5.96740 5.79023
#
# Compressibility (1/GPa) = 0.02946916
#
# Stress axis : x y z
#
# Youngs Moduli (GPa) = 60.69821 76.40687 50.01656
#
# Poissons Ratio (x) = 0.17893 0.49926
# Poissons Ratio (y) = 0.14214 -0.11405
# Poissons Ratio (z) = 0.60589 -0.17422
#
# Static dielectric constant tensor:
#      x y z
#    x 1.793930 0.000000 0.000000 
#    y 0.000000 1.761930 0.000000 
#    z 0.000000 0.000000 1.778250 
# 
# From -- ./inp_files/60389.got.cif
#   From: 2010.05.17/outbox.cif.g08.bks.cpg/sg66_31_cif.got.tgz:60389.got - 2010.06.03 17:51:23.
