data_PCOD9498031
_publ_section_title
;
Structure prediction by ZEFSAII (Michael W. Deem and Ramdas Pophale) SiO2 
 PCOD9498031
Probable space group: C C C M
;
_chemical_formula_sum "Si O2"
_cell_formula_units_Z 64
_cell_length_a 12.220001
_cell_length_b 8.580966
_cell_length_c 24.976512
_cell_angle_alpha 90.000000
_cell_angle_beta 90.000000
_cell_angle_gamma 90.000000
_cell_volume 2619.022390
_symmetry_space_group_name_H-M "C C C M"
_symmetry_group_IT_number 66
_symmetry_cell_setting 'orthorhombic'
loop_
_space_group_symop_operation_xyz
x,y,z
-x,-y,z
x,-y,1/2-z
-x,y,1/2-z
-x,-y,-z
x,y,-z
-x,y,1/2+z
x,-y,1/2+z
1/2+x,1/2+y,z
1/2-x,1/2-y,z
1/2+x,1/2-y,1/2-z
1/2-x,1/2+y,1/2-z
1/2-x,1/2-y,-z
1/2+x,1/2+y,-z
1/2-x,1/2+y,1/2+z
1/2+x,1/2-y,1/2+z
loop_
_atom_site_type_symbol
_atom_site_label
_atom_site_fract_x
_atom_site_fract_y
_atom_site_fract_z
Si Si1 0.098242 0.617783 0.337972
Si Si2 0.807402 0.093702 0.874767
Si Si3 0.874091 0.185033 0.441184
Si Si4 0.869491 0.822431 0.732491
O O1 0.214367 0.522325 0.346601
O O2 0.080679 0.713112 0.392416
O O3 0.092631 0.722465 0.283993
O O4 0.000000 0.500000 0.330934
O O5 0.750000 0.250000 0.895923
O O6 0.893872 0.154922 0.830586
O O7 0.863273 0.990966 0.920130
O O8 0.925388 0.199152 0.500000
O O9 0.750000 0.250000 0.445690
O O10 0.750000 0.750000 0.726647
O O11 0.874948 0.000000 0.750000
#
# Coordination Sequence:
#
# PCOD9498031 Si02
#       4
#    16  16  16  16
#     4  11  22  38  62  93 128 163 211 268 327 380
#     4  10  21  37  64  88 122 169 213 255 309 388
#     4   9  18  36  63  93 126 171 220 260 308 379
#     4  11  18  36  65  86 117 165 211 253 312 392
#
# _framework density 24.436601
#
# number of rings (size 3 to 8) (size 9 to 14) (size 15 to 20)
#    0.000    1.750    5.000    0.750    0.000    1.000 
#    0.000   11.250    5.500    1.500    0.000    0.000 
#    0.000    3.000    0.000    0.000    0.000    0.250 
#
# Total GULP energy -178643.195008 kJ/mol
# GULP energy per Si atom -5582.599844 kJ/mol
# Density = 2.438098 g / cm^3
# Si number density = 24.436601 Si / 1000 Ang^3
#
#
#
# Elastic Constant Matrix: (Units=GPa)
#
#
# Indices 1 2 3 4 5 6 
#
# 1 64.0988 17.0476 43.4628 0.0000 0.0000 0.0000
# 2 17.0476 177.0942 94.6157 0.0000 0.0000 0.0000
# 3 43.4628 94.6157 216.5221 0.0000 0.0000 0.0000
# 4 0.0000 0.0000 0.0000 5.0607 0.0000 0.0000
# 5 0.0000 0.0000 0.0000 0.0000 30.6652 0.0000
# 6 0.0000 0.0000 0.0000 0.0000 0.0000 22.0700
#
#
#
# Elastic Compliance Matrix: (Units=1/GPa)
#
#
# Indices 1 2 3 4 5 6 
#
# 1 0.018068 0.000259 -0.003740 0.000000 0.000000 0.000000
# 2 0.000259 0.007370 -0.003273 0.000000 0.000000 0.000000
# 3 -0.003740 -0.003273 0.006799 0.000000 0.000000 0.000000
# 4 0.000000 0.000000 0.000000 0.197602 0.000000 0.000000
# 5 0.000000 0.000000 0.000000 0.000000 0.032610 0.000000
# 6 0.000000 0.000000 0.000000 0.000000 0.000000 0.045310
#
#
# Mechanical properties :
#
#
# Convention : Reuss Voigt Hill
#
# Bulk Modulus (GPa) = 53.39005 85.32972 69.35988
# Shear Modulus (GPa) = 15.26666 31.73177 23.49921
#
# Velocity S-wave (km/s) = 2.50220 3.60743 3.10440
# Velocity P-wave (km/s) = 5.49944 7.23505 6.42611
#
# Compressibility (1/GPa) = 0.01873008
#
# Stress axis : x y z
#
# Youngs Moduli (GPa) = 55.34663 135.68072 147.07517
#
# Poissons Ratio (x) = -0.03512 0.55005
# Poissons Ratio (y) = -0.01433 0.48132
# Poissons Ratio (z) = 0.20699 0.44403
#
# Static dielectric constant tensor:
#      x y z
#    x 2.080750 0.000000 0.000000 
#    y 0.000000 1.907250 0.000000 
#    z 0.000000 0.000000 2.001970 
# 
# From -- ./inp_files/54975.got.cif
#   From: 2010.05.17/outbox.cif.g08.bks.cpg/sg66_28_cif.got.tgz:54975.got - 2010.06.03 17:51:23.
