data_PCOD9498693
_publ_section_title
;
Structure prediction by ZEFSAII (Michael W. Deem and Ramdas Pophale) SiO2 
 PCOD9498693
Probable space group: C C C M
;
_chemical_formula_sum "Si O2"
_cell_formula_units_Z 100
_cell_length_a 8.461797
_cell_length_b 28.922330
_cell_length_c 20.731681
_cell_angle_alpha 90.000000
_cell_angle_beta 90.000000
_cell_angle_gamma 90.000000
_cell_volume 5073.765570
_symmetry_space_group_name_H-M "C C C M"
_symmetry_group_IT_number 66
_symmetry_cell_setting 'orthorhombic'
loop_
_space_group_symop_operation_xyz
x,y,z
-x,-y,z
x,-y,1/2-z
-x,y,1/2-z
-x,-y,-z
x,y,-z
-x,y,1/2+z
x,-y,1/2+z
1/2+x,1/2+y,z
1/2-x,1/2-y,z
1/2+x,1/2-y,1/2-z
1/2-x,1/2+y,1/2-z
1/2-x,1/2-y,-z
1/2+x,1/2+y,-z
1/2-x,1/2+y,1/2+z
1/2+x,1/2-y,1/2+z
loop_
_atom_site_type_symbol
_atom_site_label
_atom_site_fract_x
_atom_site_fract_y
_atom_site_fract_z
Si Si1 0.308384 0.361401 0.259124
Si Si2 0.132530 0.932476 0.858150
Si Si3 0.831387 0.490027 0.423923
Si Si4 0.500000 0.500000 0.250000
Si Si5 0.201188 0.892214 0.382611
Si Si6 0.398824 0.221089 0.308201
Si Si7 0.642869 0.203626 0.424775
O O1 0.500000 0.352777 0.250000
O O2 0.275509 0.391657 0.322743
O O3 0.266664 0.387258 0.193464
O O4 0.193047 0.318634 0.268542
O O5 0.982913 0.906426 0.889366
O O6 0.215648 0.968560 0.904408
O O7 0.087239 0.965424 0.798033
O O8 0.842304 0.491728 0.500000
O O9 0.785706 0.438045 0.406873
O O10 0.000000 0.500000 0.392465
O O11 0.256116 0.843671 0.413448
O O12 0.500000 0.244771 0.250000
O O13 0.250000 0.250000 0.334495
O O14 0.509828 0.206699 0.368356
O O15 0.586182 0.203035 0.500000
O O16 0.750000 0.250000 0.417382
#
# Coordination Sequence:
#
# PCOD9498693 Si02
#       7
#    16  16  16   4  16  16  16
#     4  10  22  39  66 101 132 164 215 276 335 398
#     4  11  21  38  67  94 129 171 216 270 327 393
#     4  11  25  41  60  93 135 175 220 268 321 390
#     4  12  16  40  60  92 124 160 210 274 312 376
#     4  11  21  42  68  92 130 173 217 268 330 389
#     4  12  25  41  71 100 133 170 222 279 339 401
#     4  11  27  48  68  96 135 176 224 275 333 402
#
# _framework density 19.709228
#
# number of rings (size 3 to 8) (size 9 to 14) (size 15 to 20)
#    0.000    0.960    5.600    1.440    6.720    2.240 
#    0.000    2.800    0.000    0.000    0.000    0.000 
#    0.000    0.000    0.000    0.000    0.000    0.000 
#
# Total GULP energy -278556.426424 kJ/mol
# GULP energy per Si atom -5571.128528 kJ/mol
# Density = 1.966437 g / cm^3
# Si number density = 19.709228 Si / 1000 Ang^3
#
#
#
# Elastic Constant Matrix: (Units=GPa)
#
#
# Indices 1 2 3 4 5 6 
#
# 1 75.2705 57.5310 58.5847 0.0000 0.0000 0.0000
# 2 57.5310 121.7512 39.0874 0.0000 0.0000 0.0000
# 3 58.5847 39.0874 110.7886 0.0000 0.0000 0.0000
# 4 0.0000 0.0000 0.0000 67.6284 0.0000 0.0000
# 5 0.0000 0.0000 0.0000 0.0000 21.3725 0.0000
# 6 0.0000 0.0000 0.0000 0.0000 0.0000 31.3686
#
#
#
# Elastic Compliance Matrix: (Units=1/GPa)
#
#
# Indices 1 2 3 4 5 6 
#
# 1 0.031541 -0.010769 -0.012879 0.000000 0.000000 0.000000
# 2 -0.010769 0.012940 0.001129 0.000000 0.000000 0.000000
# 3 -0.012879 0.001129 0.015438 0.000000 0.000000 0.000000
# 4 0.000000 0.000000 0.000000 0.014787 0.000000 0.000000
# 5 0.000000 0.000000 0.000000 0.000000 0.046789 0.000000
# 6 0.000000 0.000000 0.000000 0.000000 0.000000 0.031879
#
#
# Mechanical properties :
#
#
# Convention : Reuss Voigt Hill
#
# Bulk Modulus (GPa) = 67.20072 68.69070 67.94571
# Shear Modulus (GPa) = 24.58561 34.24770 29.41666
#
# Velocity S-wave (km/s) = 3.53571 4.17303 3.86752
# Velocity P-wave (km/s) = 7.13011 7.62540 7.38191
#
# Compressibility (1/GPa) = 0.01488079
#
# Stress axis : x y z
#
# Youngs Moduli (GPa) = 31.70520 77.28225 64.77459
#
# Poissons Ratio (x) = 0.83226 0.83424
# Poissons Ratio (y) = 0.34144 -0.07316
# Poissons Ratio (z) = 0.40833 -0.08729
#
# Static dielectric constant tensor:
#      x y z
#    x 1.878710 0.000000 0.000000 
#    y 0.000000 1.645860 0.000000 
#    z 0.000000 0.000000 1.635440 
# 
# From -- ./inp_files/47408.got.cif
#   From: 2010.05.17/outbox.cif.g08.bks.cpg/sg66_24_cif.got.tgz:47408.got - 2010.06.03 17:51:23.
