data_PCOD9498921
_publ_section_title
;
Structure prediction by ZEFSAII (Michael W. Deem and Ramdas Pophale) SiO2 
 PCOD9498921
Probable space group: C C C M
;
_chemical_formula_sum "Si O2"
_cell_formula_units_Z 96
_cell_length_a 25.702366
_cell_length_b 11.739728
_cell_length_c 16.598195
_cell_angle_alpha 90.000000
_cell_angle_beta 90.000000
_cell_angle_gamma 90.000000
_cell_volume 5008.319206
_symmetry_space_group_name_H-M "C C C M"
_symmetry_group_IT_number 66
_symmetry_cell_setting 'orthorhombic'
loop_
_space_group_symop_operation_xyz
x,y,z
-x,-y,z
x,-y,1/2-z
-x,y,1/2-z
-x,-y,-z
x,y,-z
-x,y,1/2+z
x,-y,1/2+z
1/2+x,1/2+y,z
1/2-x,1/2-y,z
1/2+x,1/2-y,1/2-z
1/2-x,1/2+y,1/2-z
1/2-x,1/2-y,-z
1/2+x,1/2+y,-z
1/2-x,1/2+y,1/2+z
1/2+x,1/2-y,1/2+z
loop_
_atom_site_type_symbol
_atom_site_label
_atom_site_fract_x
_atom_site_fract_y
_atom_site_fract_z
Si Si1 0.308045 0.297362 0.905219
Si Si2 0.871584 0.001268 0.846840
Si Si3 0.925368 0.222762 0.154041
Si Si4 0.060518 0.468364 0.409703
Si Si5 0.468261 0.650640 0.406583
Si Si6 0.901799 0.671691 0.828519
O O1 0.250000 0.250000 0.894368
O O2 0.323035 0.427026 0.879390
O O3 0.345826 0.218305 0.852829
O O4 0.321064 0.287835 0.000000
O O5 0.922839 0.934427 0.878418
O O6 0.871157 0.000000 0.750000
O O7 0.880132 0.133548 0.868910
O O8 0.931007 0.333819 0.099237
O O9 0.917551 0.274436 0.243159
O O10 0.979402 0.153320 0.145603
O O11 0.076282 0.502274 0.500000
O O12 0.092281 0.538143 0.342750
O O13 0.000000 0.500000 0.397927
O O14 0.480944 0.631597 0.500000
O O15 0.441863 0.773107 0.392691
#
# Coordination Sequence:
#
# PCOD9498921 Si02
#       6
#    16  16  16  16  16  16
#     4  10  22  43  71  92 113 155 210 265 321 381
#     4  11  22  38  61  91 131 162 205 262 320 381
#     4  12  23  35  59  89 130 170 211 258 314 372
#     4  11  23  36  55  84 128 177 216 252 299 370
#     4  11  22  35  56  88 129 176 213 246 300 378
#     4  11  21  38  61  87 120 164 214 262 307 372
#
# _framework density 19.168106999999999
#
# number of rings (size 3 to 8) (size 9 to 14) (size 15 to 20)
#    0.000    1.000    5.000    5.000    0.000    4.667 
#    0.000    1.667    0.000    0.000    0.000    3.500 
#    0.000    0.000    0.000    0.000    0.000    0.000 
#
# Total GULP energy -267891.409021 kJ/mol
# GULP energy per Si atom -5581.071021 kJ/mol
# Density = 1.912448 g / cm^3
# Si number density = 19.168107 Si / 1000 Ang^3
#
#
#
# Elastic Constant Matrix: (Units=GPa)
#
#
# Indices 1 2 3 4 5 6 
#
# 1 72.0717 23.7543 44.7498 0.0000 0.0000 0.0000
# 2 23.7543 117.3983 18.6031 0.0000 0.0000 0.0000
# 3 44.7498 18.6031 120.6773 0.0000 0.0000 0.0000
# 4 0.0000 0.0000 0.0000 22.5180 0.0000 0.0000
# 5 0.0000 0.0000 0.0000 0.0000 23.8638 0.0000
# 6 0.0000 0.0000 0.0000 0.0000 0.0000 27.2670
#
#
#
# Elastic Compliance Matrix: (Units=1/GPa)
#
#
# Indices 1 2 3 4 5 6 
#
# 1 0.018869 -0.002777 -0.006569 0.000000 0.000000 0.000000
# 2 -0.002777 0.009140 -0.000379 0.000000 0.000000 0.000000
# 3 -0.006569 -0.000379 0.010781 0.000000 0.000000 0.000000
# 4 0.000000 0.000000 0.000000 0.044409 0.000000 0.000000
# 5 0.000000 0.000000 0.000000 0.000000 0.041904 0.000000
# 6 0.000000 0.000000 0.000000 0.000000 0.000000 0.036674
#
#
# Mechanical properties :
#
#
# Convention : Reuss Voigt Hill
#
# Bulk Modulus (GPa) = 51.70735 53.81797 52.76266
# Shear Modulus (GPa) = 26.64184 29.59910 28.12047
#
# Velocity S-wave (km/s) = 3.73219 3.93387 3.83436
# Velocity P-wave (km/s) = 6.75326 6.98367 6.86943
#
# Compressibility (1/GPa) = 0.01933961
#
# Stress axis : x y z
#
# Youngs Moduli (GPa) = 52.99676 109.40921 92.75623
#
# Poissons Ratio (x) = 0.30383 0.60931
# Poissons Ratio (y) = 0.14717 0.03517
# Poissons Ratio (z) = 0.34813 0.04149
#
# Static dielectric constant tensor:
#      x y z
#    x 1.647550 0.000000 0.000000 
#    y 0.000000 1.742950 0.000000 
#    z 0.000000 0.000000 1.681590 
# 
# From -- ./inp_files/43564.got.cif
#   From: 2010.05.17/outbox.cif.g08.bks.cpg/sg66_22_cif.got.tgz:43564.got - 2010.06.03 17:51:23.
