data_PCOD9498327
_publ_section_title
;
Structure prediction by ZEFSAII (Michael W. Deem and Ramdas Pophale) SiO2 
 PCOD9498327
Probable space group: C C C M
;
_chemical_formula_sum "Si O2"
_cell_formula_units_Z 52
_cell_length_a 17.612927
_cell_length_b 11.202911
_cell_length_c 11.067969
_cell_angle_alpha 90.000000
_cell_angle_beta 90.000000
_cell_angle_gamma 90.000000
_cell_volume 2183.887965
_symmetry_space_group_name_H-M "C C C M"
_symmetry_group_IT_number 66
_symmetry_cell_setting 'orthorhombic'
loop_
_space_group_symop_operation_xyz
x,y,z
-x,-y,z
x,-y,1/2-z
-x,y,1/2-z
-x,-y,-z
x,y,-z
-x,y,1/2+z
x,-y,1/2+z
1/2+x,1/2+y,z
1/2-x,1/2-y,z
1/2+x,1/2-y,1/2-z
1/2-x,1/2+y,1/2-z
1/2-x,1/2-y,-z
1/2+x,1/2+y,-z
1/2-x,1/2+y,1/2+z
1/2+x,1/2-y,1/2+z
loop_
_atom_site_type_symbol
_atom_site_label
_atom_site_fract_x
_atom_site_fract_y
_atom_site_fract_z
Si Si1 0.372635 0.663602 0.639133
Si Si2 0.772553 0.887989 0.370158
Si Si3 0.000000 0.000000 0.750000
Si Si4 0.619755 0.949510 0.867668
O O1 0.348395 0.647077 0.500000
O O2 0.317753 0.615853 0.744100
O O3 0.449181 0.589337 0.667768
O O4 0.374424 0.807259 0.651352
O O5 0.814303 0.909260 0.500000
O O6 0.750000 0.750000 0.377657
O O7 0.699262 0.974940 0.370918
O O8 0.579925 0.000000 0.750000
O O9 0.585589 0.968343 0.000000
#
# Coordination Sequence:
#
# PCOD9498327 Si02
#       4
#    16  16   4  16
#     4  11  26  47  72  99 135 185 238 286 336 407
#     4  10  21  39  69 110 149 178 209 269 351 423
#     4  12  30  52  66  90 130 184 248 302 346 388
#     4  10  21  40  68 107 143 176 217 272 343 413
#
# _framework density 23.810746999999999
#
# number of rings (size 3 to 8) (size 9 to 14) (size 15 to 20)
#    0.000    1.538    3.077    0.462    2.154    4.308 
#    0.000    0.769    0.000    3.692    0.000    0.000 
#    0.000    0.000    0.000    0.000    0.000    0.000 
#
# Total GULP energy -144941.186720 kJ/mol
# GULP energy per Si atom -5574.661028 kJ/mol
# Density = 2.375655 g / cm^3
# Si number density = 23.810747 Si / 1000 Ang^3
#
#
#
# Elastic Constant Matrix: (Units=GPa)
#
#
# Indices 1 2 3 4 5 6 
#
# 1 97.5776 61.5577 66.3399 0.0000 0.0000 0.0000
# 2 61.5577 249.3969 75.6615 0.0000 0.0000 0.0000
# 3 66.3399 75.6615 299.0807 0.0000 0.0000 0.0000
# 4 0.0000 0.0000 0.0000-3021.4330 0.0000 0.0000
# 5 0.0000 0.0000 0.0000 0.0000 -1.1344 0.0000
# 6 0.0000 0.0000 0.0000 0.0000 0.0000 8.6939
#
#
#
# Elastic Compliance Matrix: (Units=1/GPa)
#
#
# Indices 1 2 3 4 5 6 
#
# 1 0.013485 -0.002622 -0.002328 0.000000 0.000000 0.000000
# 2 -0.002622 0.004853 -0.000646 0.000000 0.000000 0.000000
# 3 -0.002328 -0.000646 0.004023 0.000000 0.000000 0.000000
# 4 0.000000 0.000000 0.000000 -0.000331 0.000000 0.000000
# 5 0.000000 0.000000 0.000000 0.000000 -0.881559 0.000000
# 6 0.000000 0.000000 0.000000 0.000000 0.000000 0.115024
#
#
# Mechanical properties :
#
#
# Convention : Reuss Voigt Hill
#
# Bulk Modulus (GPa) = 89.53208 117.01926 103.27567
# Shear Modulus (GPa) = -6.85316 -573.27497 -290.06407
#
# Velocity S-wave (km/s) = -1.69836 -15.53338 -11.04921
# Velocity P-wave (km/s) = 5.81698 16.50643 10.92302
#
# Compressibility (1/GPa) = 0.01116918
#
# Stress axis : x y z
#
# Youngs Moduli (GPa) = 74.15572 206.06172 248.54931
#
# Poissons Ratio (x) = 0.54035 0.57857
# Poissons Ratio (y) = 0.19446 0.16057
# Poissons Ratio (z) = 0.17262 0.13312
#
# Static dielectric constant tensor:
#      x y z
#    x 1.965870 0.000000 0.000000 
#    y 0.000000 1.979970 0.000000 
#    z 0.000000 0.000000 1.998740 
# 
# From -- ./inp_files/18407.got.cif
#   From: 2010.05.17/outbox.cif.g08.bks.cpg/sg66_10_cif.got.tgz:18407.got - 2010.06.03 17:51:23.
