data_PCOD9498644
_publ_section_title
;
Structure prediction by ZEFSAII (Michael W. Deem and Ramdas Pophale) SiO2 
 PCOD9498644
Probable space group: C C C M
;
_chemical_formula_sum "Si O2"
_cell_formula_units_Z 64
_cell_length_a 24.731585
_cell_length_b 14.844032
_cell_length_c 8.456101
_cell_angle_alpha 90.000000
_cell_angle_beta 90.000000
_cell_angle_gamma 90.000000
_cell_volume 3104.373688
_symmetry_space_group_name_H-M "C C C M"
_symmetry_group_IT_number 66
_symmetry_cell_setting 'orthorhombic'
loop_
_space_group_symop_operation_xyz
x,y,z
-x,-y,z
x,-y,1/2-z
-x,y,1/2-z
-x,-y,-z
x,y,-z
-x,y,1/2+z
x,-y,1/2+z
1/2+x,1/2+y,z
1/2-x,1/2-y,z
1/2+x,1/2-y,1/2-z
1/2-x,1/2+y,1/2-z
1/2-x,1/2-y,-z
1/2+x,1/2+y,-z
1/2-x,1/2+y,1/2+z
1/2+x,1/2-y,1/2+z
loop_
_atom_site_type_symbol
_atom_site_label
_atom_site_fract_x
_atom_site_fract_y
_atom_site_fract_z
Si Si1 0.968388 0.353324 0.500000
Si Si2 0.896464 0.897848 0.314414
Si Si3 0.583183 0.951553 0.500000
Si Si4 0.212031 0.625561 0.500000
Si Si5 0.836781 0.817533 0.000000
Si Si6 0.838796 0.500000 0.250000
Si Si7 0.500000 0.284486 0.250000
O O1 0.931502 0.441454 0.500000
O O2 0.028947 0.395520 0.500000
O O3 0.965906 0.285159 0.355792
O O4 0.875069 0.896990 0.500000
O O5 0.954647 0.848617 0.323918
O O6 0.902328 0.000000 0.250000
O O7 0.864115 0.850497 0.166200
O O8 0.620981 0.937677 0.350922
O O9 0.171242 0.709938 0.500000
O O10 0.274598 0.649870 0.500000
O O11 0.197986 0.563570 0.352702
#
# Coordination Sequence:
#
# PCOD9498644 Si02
#       7
#     8  16   8   8   8   8   8
#     4  11  23  37  62  94 143 185 231 285 338 427
#     4  12  27  46  73 103 137 186 234 295 360 429
#     4  10  22  39  58 100 137 186 231 277 349 421
#     4  10  26  47  70 106 135 186 235 301 355 423
#     4  11  27  51  74 102 145 181 241 301 352 429
#     4  10  22  39  72  92 144 175 232 294 352 422
#     4  12  25  39  64  98 136 182 236 287 341 430
#
# _framework density 20.616074999999999
#
# number of rings (size 3 to 8) (size 9 to 14) (size 15 to 20)
#    0.000    1.000    2.500    2.625   12.250    3.000 
#    4.500    1.250    0.000    0.000    0.000    0.000 
#    0.000    0.000    0.000    0.000    0.000    0.000 
#
# Total GULP energy -178418.280416 kJ/mol
# GULP energy per Si atom -5575.571263 kJ/mol
# Density = 2.056915 g / cm^3
# Si number density = 20.616075 Si / 1000 Ang^3
#
#
#
# Elastic Constant Matrix: (Units=GPa)
#
#
# Indices 1 2 3 4 5 6 
#
# 1 71.3863 39.0804 37.3981 0.0000 0.0000 0.0000
# 2 39.0804 146.9381 59.0228 0.0000 0.0000 0.0000
# 3 37.3981 59.0228 157.6478 0.0000 0.0000 0.0000
# 4 0.0000 0.0000 0.0000 19.2879 0.0000 0.0000
# 5 0.0000 0.0000 0.0000 0.0000 52.1998 0.0000
# 6 0.0000 0.0000 0.0000 0.0000 0.0000 30.6732
#
#
#
# Elastic Compliance Matrix: (Units=1/GPa)
#
#
# Indices 1 2 3 4 5 6 
#
# 1 0.017398 -0.003495 -0.002819 0.000000 0.000000 0.000000
# 2 -0.003495 0.008712 -0.002433 0.000000 0.000000 0.000000
# 3 -0.002819 -0.002433 0.007923 0.000000 0.000000 0.000000
# 4 0.000000 0.000000 0.000000 0.051846 0.000000 0.000000
# 5 0.000000 0.000000 0.000000 0.000000 0.019157 0.000000
# 6 0.000000 0.000000 0.000000 0.000000 0.000000 0.032602
#
#
# Mechanical properties :
#
#
# Convention : Reuss Voigt Hill
#
# Bulk Modulus (GPa) = 60.45866 71.88608 66.17237
# Shear Modulus (GPa) = 31.12451 36.46358 33.79405
#
# Velocity S-wave (km/s) = 3.88973 4.21015 4.05311
# Velocity P-wave (km/s) = 7.04010 7.65366 7.35328
#
# Compressibility (1/GPa) = 0.01654023
#
# Stress axis : x y z
#
# Youngs Moduli (GPa) = 57.47657 114.77941 126.21871
#
# Poissons Ratio (x) = 0.40117 0.35578
# Poissons Ratio (y) = 0.20089 0.30706
# Poissons Ratio (z) = 0.16201 0.27923
#
# Static dielectric constant tensor:
#      x y z
#    x 1.690610 0.000000 0.000000 
#    y 0.000000 1.705360 0.000000 
#    z 0.000000 0.000000 2.028010 
# 
# From -- ./inp_files/8735.got.cif
#   From: 2010.05.17/outbox.cif.g08.bks.cpg/sg66_5_cif.got.tgz:8735.got - 2010.06.03 17:51:23.
