data_PCOD9498614
_publ_section_title
;
Structure prediction by ZEFSAII (Michael W. Deem and Ramdas Pophale) SiO2 
 PCOD9498614
Probable space group: C C C M
;
_chemical_formula_sum "Si O2"
_cell_formula_units_Z 112
_cell_length_a 12.155553
_cell_length_b 29.338582
_cell_length_c 15.396493
_cell_angle_alpha 90.000000
_cell_angle_beta 90.000000
_cell_angle_gamma 90.000000
_cell_volume 5490.800312
_symmetry_space_group_name_H-M "C C C M"
_symmetry_group_IT_number 66
_symmetry_cell_setting 'orthorhombic'
loop_
_space_group_symop_operation_xyz
x,y,z
-x,-y,z
x,-y,1/2-z
-x,y,1/2-z
-x,-y,-z
x,y,-z
-x,y,1/2+z
x,-y,1/2+z
1/2+x,1/2+y,z
1/2-x,1/2-y,z
1/2+x,1/2-y,1/2-z
1/2-x,1/2+y,1/2-z
1/2-x,1/2-y,-z
1/2+x,1/2+y,-z
1/2-x,1/2+y,1/2+z
1/2+x,1/2-y,1/2+z
loop_
_atom_site_type_symbol
_atom_site_label
_atom_site_fract_x
_atom_site_fract_y
_atom_site_fract_z
Si Si1 0.509832 0.223256 0.602147
Si Si2 0.770953 0.397539 0.403213
Si Si3 0.239072 0.702485 0.652677
Si Si4 0.980522 0.374603 0.147157
Si Si5 0.241263 0.108080 0.599500
Si Si6 0.369663 0.554232 0.251180
Si Si7 0.329507 0.290748 0.345872
O O1 0.538393 0.228572 0.500000
O O2 0.608468 0.207634 0.666444
O O3 0.447040 0.175199 0.608742
O O4 0.448279 0.268480 0.634308
O O5 0.747877 0.414437 0.500000
O O6 0.737076 0.344129 0.394823
O O7 0.702141 0.424137 0.330127
O O8 0.904197 0.394164 0.390099
O O9 0.250000 0.750000 0.602271
O O10 0.303478 0.704021 0.743149
O O11 0.868871 0.400549 0.124637
O O12 0.000000 0.373492 0.250000
O O13 0.224368 0.096728 0.500000
O O14 0.174146 0.076779 0.664016
O O15 0.199129 0.160325 0.614557
O O16 0.355134 0.500000 0.250000
O O17 0.500000 0.564322 0.250000
O O18 0.250000 0.250000 0.378858
#
# Coordination Sequence:
#
# PCOD9498614 Si02
#       7
#    16  16  16  16  16  16  16
#     4  11  23  36  55  88 129 177 223 269 321 383
#     4  11  23  44  72 102 133 176 224 277 342 409
#     4  10  22  38  60  89 131 177 224 266 322 386
#     4  11  20  38  67  99 139 178 219 265 335 405
#     4  12  23  42  70 104 138 177 229 281 337 405
#     4  11  27  52  75  98 131 173 224 285 350 416
#     4  11  22  36  59  93 137 184 222 265 322 385
#
# _framework density 20.397755
#
# number of rings (size 3 to 8) (size 9 to 14) (size 15 to 20)
#    0.000    1.000    4.286    3.857    4.000    4.000 
#    0.000    2.857    0.000    1.714    0.000    0.000 
#    0.000    0.000    0.000    0.000    0.000    0.000 
#
# Total GULP energy -312194.459738 kJ/mol
# GULP energy per Si atom -5574.901067 kJ/mol
# Density = 2.035133 g / cm^3
# Si number density = 20.397755 Si / 1000 Ang^3
#
#
#
# Elastic Constant Matrix: (Units=GPa)
#
#
# Indices 1 2 3 4 5 6 
#
# 1 97.7726 64.7448 72.5335 0.0000 0.0000 0.0000
# 2 64.7448 80.7325 54.9483 0.0000 0.0000 0.0000
# 3 72.5335 54.9483 192.1849 0.0000 0.0000 0.0000
# 4 0.0000 0.0000 0.0000 -67.7678 0.0000 0.0000
# 5 0.0000 0.0000 0.0000 0.0000 13.6528 0.0000
# 6 0.0000 0.0000 0.0000 0.0000 0.0000 28.8909
#
#
#
# Elastic Compliance Matrix: (Units=1/GPa)
#
#
# Indices 1 2 3 4 5 6 
#
# 1 0.024622 -0.016664 -0.004528 0.000000 0.000000 0.000000
# 2 -0.016664 0.026658 -0.001332 0.000000 0.000000 0.000000
# 3 -0.004528 -0.001332 0.007293 0.000000 0.000000 0.000000
# 4 0.000000 0.000000 0.000000 -0.014756 0.000000 0.000000
# 5 0.000000 0.000000 0.000000 0.000000 0.073245 0.000000
# 6 0.000000 0.000000 0.000000 0.000000 0.000000 0.034613
#
#
# Mechanical properties :
#
#
# Convention : Reuss Voigt Hill
#
# Bulk Modulus (GPa) = 73.94631 83.90481 78.92556
# Shear Modulus (GPa) = 24.84697 6.85275 15.84986
#
# Velocity S-wave (km/s) = 3.49395 1.83490 2.79057
# Velocity P-wave (km/s) = 7.25312 6.76112 7.01144
#
# Compressibility (1/GPa) = 0.01352333
#
# Stress axis : x y z
#
# Youngs Moduli (GPa) = 40.61402 37.51284 137.11158
#
# Poissons Ratio (x) = 0.62512 0.62088
# Poissons Ratio (y) = 0.67679 0.18270
# Poissons Ratio (z) = 0.18391 0.04999
#
# Static dielectric constant tensor:
#      x y z
#    x 1.992270 0.000000 0.000000 
#    y 0.000000 1.809720 0.000000 
#    z 0.000000 0.000000 1.715590 
# 
# From -- ./inp_files/26985.got.cif
#   From: 2010.05.17/outbox.cif.g08.bks.cpg/sg66_14_cif.got.tgz:26985.got - 2010.06.03 17:51:23.
