data_PCOD9498578
_publ_section_title
;
Structure prediction by ZEFSAII (Michael W. Deem and Ramdas Pophale) SiO2 
 PCOD9498578
Probable space group: C C C M
;
_chemical_formula_sum "Si O2"
_cell_formula_units_Z 88
_cell_length_a 25.533425
_cell_length_b 12.640359
_cell_length_c 14.150958
_cell_angle_alpha 90.000000
_cell_angle_beta 90.000000
_cell_angle_gamma 90.000000
_cell_volume 4567.245164
_symmetry_space_group_name_H-M "C C C M"
_symmetry_group_IT_number 66
_symmetry_cell_setting 'orthorhombic'
loop_
_space_group_symop_operation_xyz
x,y,z
-x,-y,z
x,-y,1/2-z
-x,y,1/2-z
-x,-y,-z
x,y,-z
-x,y,1/2+z
x,-y,1/2+z
1/2+x,1/2+y,z
1/2-x,1/2-y,z
1/2+x,1/2-y,1/2-z
1/2-x,1/2+y,1/2-z
1/2-x,1/2-y,-z
1/2+x,1/2+y,-z
1/2-x,1/2+y,1/2+z
1/2+x,1/2-y,1/2+z
loop_
_atom_site_type_symbol
_atom_site_label
_atom_site_fract_x
_atom_site_fract_y
_atom_site_fract_z
Si Si1 0.408880 0.156559 0.768520
Si Si2 0.993649 0.340731 0.886942
Si Si3 0.315256 0.000000 0.750000
Si Si4 0.019501 0.107320 0.393191
Si Si5 0.123086 0.112814 0.699723
Si Si6 0.237757 0.124767 0.611360
O O1 0.450968 0.118683 0.847754
O O2 0.441539 0.129356 0.671735
O O3 0.391950 0.281265 0.759659
O O4 0.355394 0.092296 0.780819
O O5 0.000643 0.217787 0.856653
O O6 0.987726 0.352960 0.000000
O O7 0.278796 0.948137 0.831170
O O8 0.000460 0.105965 0.500000
O O9 0.081606 0.113627 0.385588
O O10 0.000000 0.000000 0.348110
O O11 0.181349 0.114318 0.660163
O O12 0.115263 0.000000 0.750000
O O13 0.236757 0.096598 0.500000
O O14 0.250000 0.250000 0.617829
#
# Coordination Sequence:
#
# PCOD9498578 Si02
#       6
#    16  16   8  16  16  16
#     4  10  22  37  60  90 122 166 205 256 320 373
#     4   9  19  36  56  86 126 163 206 252 306 381
#     4  12  24  43  64  90 127 156 212 274 320 366
#     4   9  17  30  51  82 118 156 200 248 296 357
#     4  11  20  35  61  88 123 161 206 256 311 371
#     4  11  24  43  67  91 118 162 219 268 315 377
#
# _framework density 19.267633
#
# number of rings (size 3 to 8) (size 9 to 14) (size 15 to 20)
#    0.000    1.818    2.727    1.636    0.000    5.455 
#    0.000    1.818    0.000    1.636    0.000    0.000 
#    0.000    0.000    0.000    0.000    0.000    0.000 
#
# Total GULP energy -244963.004364 kJ/mol
# GULP energy per Si atom -5567.341008 kJ/mol
# Density = 1.922378 g / cm^3
# Si number density = 19.267633 Si / 1000 Ang^3
#
#
#
# Elastic Constant Matrix: (Units=GPa)
#
#
# Indices 1 2 3 4 5 6 
#
# 1 136.7814 26.4769 34.3134 0.0000 0.0000 0.0000
# 2 26.4769 112.7867 16.5668 0.0000 0.0000 0.0000
# 3 34.3134 16.5668 113.0230 0.0000 0.0000 0.0000
# 4 0.0000 0.0000 0.0000 185.0164 0.0000 0.0000
# 5 0.0000 0.0000 0.0000 0.0000 20.9294 0.0000
# 6 0.0000 0.0000 0.0000 0.0000 0.0000 21.7585
#
#
#
# Elastic Compliance Matrix: (Units=1/GPa)
#
#
# Indices 1 2 3 4 5 6 
#
# 1 0.008184 -0.001590 -0.002251 0.000000 0.000000 0.000000
# 2 -0.001590 0.009370 -0.000891 0.000000 0.000000 0.000000
# 3 -0.002251 -0.000891 0.009662 0.000000 0.000000 0.000000
# 4 0.000000 0.000000 0.000000 0.005405 0.000000 0.000000
# 5 0.000000 0.000000 0.000000 0.000000 0.047780 0.000000
# 6 0.000000 0.000000 0.000000 0.000000 0.000000 0.045959
#
#
# Mechanical properties :
#
#
# Convention : Reuss Voigt Hill
#
# Bulk Modulus (GPa) = 56.33506 57.47837 56.90671
# Shear Modulus (GPa) = 35.27546 64.55644 49.91595
#
# Velocity S-wave (km/s) = 4.28344 5.79464 5.09538
# Velocity P-wave (km/s) = 7.33250 8.64100 8.01350
#
# Compressibility (1/GPa) = 0.01775094
#
# Stress axis : x y z
#
# Youngs Moduli (GPa) = 122.19583 106.71815 103.50017
#
# Poissons Ratio (x) = 0.16973 0.23302
# Poissons Ratio (y) = 0.19434 0.09218
# Poissons Ratio (z) = 0.27511 0.09505
#
# Static dielectric constant tensor:
#      x y z
#    x 1.641490 0.000000 0.000000 
#    y 0.000000 1.774840 0.000000 
#    z 0.000000 0.000000 1.674610 
# 
# From -- ./inp_files/32239.got.cif
#   From: 2010.05.17/outbox.cif.g08.bks.cpg/sg66_17_cif.got.tgz:32239.got - 2010.06.03 17:51:23.
