data_PCOD9498816
_publ_section_title
;
Structure prediction by ZEFSAII (Michael W. Deem and Ramdas Pophale) SiO2 
 PCOD9498816
Probable space group: C C C M
;
_chemical_formula_sum "Si O2"
_cell_formula_units_Z 96
_cell_length_a 22.404562
_cell_length_b 15.607107
_cell_length_c 14.405844
_cell_angle_alpha 90.000000
_cell_angle_beta 90.000000
_cell_angle_gamma 90.000000
_cell_volume 5037.297182
_symmetry_space_group_name_H-M "C C C M"
_symmetry_group_IT_number 66
_symmetry_cell_setting 'orthorhombic'
loop_
_space_group_symop_operation_xyz
x,y,z
-x,-y,z
x,-y,1/2-z
-x,y,1/2-z
-x,-y,-z
x,y,-z
-x,y,1/2+z
x,-y,1/2+z
1/2+x,1/2+y,z
1/2-x,1/2-y,z
1/2+x,1/2-y,1/2-z
1/2-x,1/2+y,1/2-z
1/2-x,1/2-y,-z
1/2+x,1/2+y,-z
1/2-x,1/2+y,1/2+z
1/2+x,1/2-y,1/2+z
loop_
_atom_site_type_symbol
_atom_site_label
_atom_site_fract_x
_atom_site_fract_y
_atom_site_fract_z
Si Si1 0.726191 0.846318 0.102926
Si Si2 0.071131 0.510541 0.107978
Si Si3 0.662828 0.544484 0.840710
Si Si4 0.617768 0.863683 0.232270
Si Si5 0.481149 0.354078 0.000000
Si Si6 0.440099 0.316882 0.803632
Si Si7 0.906835 0.966321 0.500000
O O1 0.750000 0.750000 0.103038
O O2 0.784039 0.906178 0.109557
O O3 0.685523 0.855688 0.194972
O O4 0.697449 0.860629 0.000000
O O5 0.092530 0.420191 0.147842
O O6 0.100980 0.582567 0.175102
O O7 0.000000 0.500000 0.118239
O O8 0.085247 0.525555 0.000000
O O9 0.687705 0.500000 0.750000
O O10 0.610712 0.610463 0.809143
O O11 0.633144 0.475207 0.908843
O O12 0.587196 0.770630 0.236014
O O13 0.461916 0.303617 0.090909
O O14 0.445077 0.444731 0.000000
O O15 0.549434 0.385546 0.000000
O O16 0.500000 0.345123 0.750000
#
# Coordination Sequence:
#
# PCOD9498816 Si02
#       7
#    16  16  16  16   8  16   8
#     4  11  23  40  64  89 119 157 212 266 304 350
#     4  10  22  41  66  94 125 159 195 256 324 378
#     4  11  22  37  62  86 123 164 201 252 303 367
#     4  11  22  39  62  90 126 156 207 260 303 374
#     4   9  20  32  59  82 121 162 193 256 296 357
#     4  11  22  37  58  92 120 160 207 247 311 366
#     4   9  18  38  52  87 122 154 205 245 303 355
#
# _framework density 19.057839999999999
#
# number of rings (size 3 to 8) (size 9 to 14) (size 15 to 20)
#    0.000    1.500    2.500    3.500    4.667    1.667 
#    1.500    0.000    0.000    0.500    0.000    0.000 
#    0.000    0.000    0.000    0.000    0.000    0.000 
#
# Total GULP energy -267644.970222 kJ/mol
# GULP energy per Si atom -5575.936880 kJ/mol
# Density = 1.901446 g / cm^3
# Si number density = 19.057840 Si / 1000 Ang^3
#
#
#
# Elastic Constant Matrix: (Units=GPa)
#
#
# Indices 1 2 3 4 5 6 
#
# 1 59.1054 5.6657 27.1075 0.0000 0.0000 0.0000
# 2 5.6657 36.5229 8.5396 0.0000 0.0000 0.0000
# 3 27.1075 8.5396 118.6434 0.0000 0.0000 0.0000
# 4 0.0000 0.0000 0.0000 4.3416 0.0000 0.0000
# 5 0.0000 0.0000 0.0000 0.0000 29.1499 0.0000
# 6 0.0000 0.0000 0.0000 0.0000 0.0000 19.0033
#
#
#
# Elastic Compliance Matrix: (Units=1/GPa)
#
#
# Indices 1 2 3 4 5 6 
#
# 1 0.019038 -0.001969 -0.004208 0.000000 0.000000 0.000000
# 2 -0.001969 0.028052 -0.001569 0.000000 0.000000 0.000000
# 3 -0.004208 -0.001569 0.009503 0.000000 0.000000 0.000000
# 4 0.000000 0.000000 0.000000 0.230332 0.000000 0.000000
# 5 0.000000 0.000000 0.000000 0.000000 0.034305 0.000000
# 6 0.000000 0.000000 0.000000 0.000000 0.000000 0.052622
#
#
# Mechanical properties :
#
#
# Convention : Reuss Voigt Hill
#
# Bulk Modulus (GPa) = 24.33086 32.98860 28.65973
# Shear Modulus (GPa) = 12.40554 22.02955 17.21755
#
# Velocity S-wave (km/s) = 2.55412 3.40359 3.00898
# Velocity P-wave (km/s) = 4.63601 5.72653 5.20989
#
# Compressibility (1/GPa) = 0.04110006
#
# Stress axis : x y z
#
# Youngs Moduli (GPa) = 52.52762 35.64747 105.23005
#
# Poissons Ratio (x) = 0.07020 0.44280
# Poissons Ratio (y) = 0.10345 0.16512
# Poissons Ratio (z) = 0.22103 0.05594
#
# Static dielectric constant tensor:
#      x y z
#    x 1.714830 0.000000 0.000000 
#    y 0.000000 1.627290 0.000000 
#    z 0.000000 0.000000 1.687390 
# 
# From -- ./inp_files/31228.got.cif
#   From: 2010.05.17/outbox.cif.g08.bks.cpg/sg66_16_cif.got.tgz:31228.got - 2010.06.03 17:51:23.
