data_PCOD9498859
_publ_section_title
;
Structure prediction by ZEFSAII (Michael W. Deem and Ramdas Pophale) SiO2 
 PCOD9498859
Probable space group: C C C M
;
_chemical_formula_sum "Si O2"
_cell_formula_units_Z 64
_cell_length_a 29.842890
_cell_length_b 5.415290
_cell_length_c 16.490134
_cell_angle_alpha 90.000000
_cell_angle_beta 90.000000
_cell_angle_gamma 90.000000
_cell_volume 2664.935989
_symmetry_space_group_name_H-M "C C C M"
_symmetry_group_IT_number 66
_symmetry_cell_setting 'orthorhombic'
loop_
_space_group_symop_operation_xyz
x,y,z
-x,-y,z
x,-y,1/2-z
-x,y,1/2-z
-x,-y,-z
x,y,-z
-x,y,1/2+z
x,-y,1/2+z
1/2+x,1/2+y,z
1/2-x,1/2-y,z
1/2+x,1/2-y,1/2-z
1/2-x,1/2+y,1/2-z
1/2-x,1/2-y,-z
1/2+x,1/2+y,-z
1/2-x,1/2+y,1/2+z
1/2+x,1/2-y,1/2+z
loop_
_atom_site_type_symbol
_atom_site_label
_atom_site_fract_x
_atom_site_fract_y
_atom_site_fract_z
Si Si1 0.799569 0.820998 0.678900
Si Si2 0.024876 0.244251 0.597920
Si Si3 0.108147 0.558645 0.160298
Si Si4 0.627297 0.830405 0.000000
Si Si5 0.182619 0.153106 0.500000
O O1 0.750000 0.750000 0.707270
O O2 0.839272 0.623314 0.668966
O O3 0.816895 0.000000 0.750000
O O4 0.792861 0.905265 0.585222
O O5 0.025967 0.247176 0.500000
O O6 0.075603 0.228171 0.629658
O O7 0.000000 0.500000 0.623321
O O8 0.000000 0.000000 0.625694
O O9 0.092525 0.500000 0.250000
O O10 0.102755 0.368862 0.085665
O O11 0.663093 0.065049 0.000000
O O12 0.644880 0.554821 0.000000
#
# Coordination Sequence:
#
# PCOD9498859 Si02
#       5
#    16  16  16   8   8
#     4  11  24  44  68 104 145 192 237 294 353 425
#     4  10  23  45  72 103 139 184 234 293 361 424
#     4  11  23  43  70 106 142 190 237 296 355 422
#     4  10  22  42  67 101 138 180 232 289 347 418
#     4  10  23  42  68  97 136 184 238 287 342 410
#
# _framework density 24.015585999999999
#
# number of rings (size 3 to 8) (size 9 to 14) (size 15 to 20)
#    0.000    1.500    1.250    2.625    0.000    8.500 
#    0.000    6.875    0.000    0.000    0.000    0.000 
#    0.000    0.000    0.000    0.000    0.000    0.000 
#
# Total GULP energy -178467.432958 kJ/mol
# GULP energy per Si atom -5577.107280 kJ/mol
# Density = 2.396093 g / cm^3
# Si number density = 24.015586 Si / 1000 Ang^3
#
#
#
# Elastic Constant Matrix: (Units=GPa)
#
#
# Indices 1 2 3 4 5 6 
#
# 1 89.2178 37.9645 -7.7765 0.0000 0.0000 0.0000
# 2 37.9645 82.4588 26.5156 0.0000 0.0000 0.0000
# 3 -7.7765 26.5156 143.2121 0.0000 0.0000 0.0000
# 4 0.0000 0.0000 0.0000 -5.1990 0.0000 0.0000
# 5 0.0000 0.0000 0.0000 0.0000 69.6765 0.0000
# 6 0.0000 0.0000 0.0000 0.0000 0.0000 23.2432
#
#
#
# Elastic Compliance Matrix: (Units=1/GPa)
#
#
# Indices 1 2 3 4 5 6 
#
# 1 0.014540 -0.007388 0.002157 0.000000 0.000000 0.000000
# 2 -0.007388 0.016649 -0.003484 0.000000 0.000000 0.000000
# 3 0.002157 -0.003484 0.007745 0.000000 0.000000 0.000000
# 4 0.000000 0.000000 0.000000 -0.192346 0.000000 0.000000
# 5 0.000000 0.000000 0.000000 0.000000 0.014352 0.000000
# 6 0.000000 0.000000 0.000000 0.000000 0.000000 0.043023
#
#
# Mechanical properties :
#
#
# Convention : Reuss Voigt Hill
#
# Bulk Modulus (GPa) = 46.50012 47.58842 47.04427
# Shear Modulus (GPa) = -69.99003 34.75649 -17.61677
#
# Velocity S-wave (km/s) = -5.40434 3.80840 -2.71136
# Velocity P-wave (km/s) = 4.42018 6.26076 3.13522
#
# Compressibility (1/GPa) = 0.02150532
#
# Stress axis : x y z
#
# Youngs Moduli (GPa) = 68.77347 60.06320 129.11858
#
# Poissons Ratio (x) = 0.44376 -0.27857
# Poissons Ratio (y) = 0.50812 0.44982
# Poissons Ratio (z) = -0.14838 0.20925
#
# Static dielectric constant tensor:
#      x y z
#    x 1.980020 0.000000 0.000000 
#    y 0.000000 1.975000 0.000000 
#    z 0.000000 0.000000 2.103290 
# 
# From -- ./inp_files/35071.got.cif
#   From: 2010.05.17/outbox.cif.g08.bks.cpg/sg66_18_cif.got.tgz:35071.got - 2010.06.03 17:51:23.
