data_PCOD9498809
_publ_section_title
;
Structure prediction by ZEFSAII (Michael W. Deem and Ramdas Pophale) SiO2 
 PCOD9498809
Probable space group: C C C M
;
_chemical_formula_sum "Si O2"
_cell_formula_units_Z 80
_cell_length_a 11.371732
_cell_length_b 12.550917
_cell_length_c 24.817771
_cell_angle_alpha 90.000000
_cell_angle_beta 90.000000
_cell_angle_gamma 90.000000
_cell_volume 3542.132857
_symmetry_space_group_name_H-M "C C C M"
_symmetry_group_IT_number 66
_symmetry_cell_setting 'orthorhombic'
loop_
_space_group_symop_operation_xyz
x,y,z
-x,-y,z
x,-y,1/2-z
-x,y,1/2-z
-x,-y,-z
x,y,-z
-x,y,1/2+z
x,-y,1/2+z
1/2+x,1/2+y,z
1/2-x,1/2-y,z
1/2+x,1/2-y,1/2-z
1/2-x,1/2+y,1/2-z
1/2-x,1/2-y,-z
1/2+x,1/2+y,-z
1/2-x,1/2+y,1/2+z
1/2+x,1/2-y,1/2+z
loop_
_atom_site_type_symbol
_atom_site_label
_atom_site_fract_x
_atom_site_fract_y
_atom_site_fract_z
Si Si1 0.211942 0.908787 0.622743
Si Si2 0.932384 0.610354 0.938782
Si Si3 0.991965 0.844145 0.440412
Si Si4 0.193202 0.868155 0.151540
Si Si5 0.370423 0.318703 0.234887
O O1 0.332286 0.854620 0.603651
O O2 0.119925 0.890527 0.574424
O O3 0.142502 0.870749 0.676192
O O4 0.263282 0.027147 0.634761
O O5 0.011978 0.715336 0.940464
O O6 0.000000 0.500000 0.927050
O O7 0.882973 0.597848 0.000000
O O8 0.955526 0.879336 0.500000
O O9 0.909346 0.875513 0.391821
O O10 0.250000 0.750000 0.148861
O O11 0.147665 0.889422 0.211896
O O12 0.500000 0.268636 0.250000
O O13 0.250000 0.250000 0.235853
#
# Coordination Sequence:
#
# PCOD9498809 Si02
#       5
#    16  16  16  16  16
#     4  12  23  40  68  97 129 176 226 282 343 412
#     4  10  22  41  65  96 136 178 224 281 349 419
#     4  11  23  39  63  95 129 171 224 278 338 411
#     4  11  25  42  63  92 132 172 221 279 340 405
#     4  11  24  44  72 102 137 179 225 284 347 414
#
# _framework density 22.585262
#
# number of rings (size 3 to 8) (size 9 to 14) (size 15 to 20)
#    0.000    1.000    2.000    4.800    0.000    5.200 
#    0.000    0.000    0.000    0.000    0.000    0.000 
#    0.000    0.000    0.000    0.000    0.000    0.000 
#
# Total GULP energy -222694.418971 kJ/mol
# GULP energy per Si atom -5567.360474 kJ/mol
# Density = 2.253386 g / cm^3
# Si number density = 22.585262 Si / 1000 Ang^3
#
#
#
# Elastic Constant Matrix: (Units=GPa)
#
#
# Indices 1 2 3 4 5 6 
#
# 1 79.6416 8.7501 37.5578 0.0000 0.0000 0.0000
# 2 8.7501 78.9740 21.8597 0.0000 0.0000 0.0000
# 3 37.5578 21.8597 135.9888 0.0000 0.0000 0.0000
# 4 0.0000 0.0000 0.0000 6.1913 0.0000 0.0000
# 5 0.0000 0.0000 0.0000 0.0000 35.5113 0.0000
# 6 0.0000 0.0000 0.0000 0.0000 0.0000 23.5685
#
#
#
# Elastic Compliance Matrix: (Units=1/GPa)
#
#
# Indices 1 2 3 4 5 6 
#
# 1 0.014457 -0.000520 -0.003909 0.000000 0.000000 0.000000
# 2 -0.000520 0.013271 -0.001990 0.000000 0.000000 0.000000
# 3 -0.003909 -0.001990 0.008753 0.000000 0.000000 0.000000
# 4 0.000000 0.000000 0.000000 0.161518 0.000000 0.000000
# 5 0.000000 0.000000 0.000000 0.000000 0.028160 0.000000
# 6 0.000000 0.000000 0.000000 0.000000 0.000000 0.042430
#
#
# Mechanical properties :
#
#
# Convention : Reuss Voigt Hill
#
# Bulk Modulus (GPa) = 42.29509 47.88218 45.08864
# Shear Modulus (GPa) = 17.28270 28.14999 22.71634
#
# Velocity S-wave (km/s) = 2.76926 3.53425 3.17488
# Velocity P-wave (km/s) = 5.38448 6.15640 5.78333
#
# Compressibility (1/GPa) = 0.02364341
#
# Stress axis : x y z
#
# Youngs Moduli (GPa) = 69.17120 75.35393 114.24609
#
# Poissons Ratio (x) = 0.03916 0.44661
# Poissons Ratio (y) = 0.03595 0.22731
# Poissons Ratio (z) = 0.27040 0.14993
#
# Static dielectric constant tensor:
#      x y z
#    x 1.899380 0.000000 0.000000 
#    y 0.000000 1.912870 0.000000 
#    z 0.000000 0.000000 1.834270 
# 
# From -- ./inp_files/56587.got.cif
#   From: 2010.05.17/outbox.cif.g08.bks.cpg/sg66_29_cif.got.tgz:56587.got - 2010.06.03 17:51:23.
