data_PCOD9498544
_publ_section_title
;
Structure prediction by ZEFSAII (Michael W. Deem and Ramdas Pophale) SiO2 
 PCOD9498544
Probable space group: C C C M
;
_chemical_formula_sum "Si O2"
_cell_formula_units_Z 80
_cell_length_a 14.220863
_cell_length_b 8.434614
_cell_length_c 26.875415
_cell_angle_alpha 90.000000
_cell_angle_beta 90.000000
_cell_angle_gamma 90.000000
_cell_volume 3223.638576
_symmetry_space_group_name_H-M "C C C M"
_symmetry_group_IT_number 66
_symmetry_cell_setting 'orthorhombic'
loop_
_space_group_symop_operation_xyz
x,y,z
-x,-y,z
x,-y,1/2-z
-x,y,1/2-z
-x,-y,-z
x,y,-z
-x,y,1/2+z
x,-y,1/2+z
1/2+x,1/2+y,z
1/2-x,1/2-y,z
1/2+x,1/2-y,1/2-z
1/2-x,1/2+y,1/2-z
1/2-x,1/2-y,-z
1/2+x,1/2+y,-z
1/2-x,1/2+y,1/2+z
1/2+x,1/2-y,1/2+z
loop_
_atom_site_type_symbol
_atom_site_label
_atom_site_fract_x
_atom_site_fract_y
_atom_site_fract_z
Si Si1 0.860623 0.775501 0.666272
Si Si2 0.750000 0.750000 0.870796
Si Si3 0.888761 0.296649 0.056667
Si Si4 0.887557 0.334871 0.445543
Si Si5 0.143795 0.445045 0.198701
Si Si6 0.500000 0.297639 0.750000
O O1 0.750000 0.750000 0.679417
O O2 0.863774 0.803268 0.606297
O O3 0.902267 0.595636 0.672343
O O4 0.926424 0.867647 0.707261
O O5 0.839928 0.770957 0.904410
O O6 0.772186 0.606652 0.835682
O O7 0.856234 0.481256 0.061102
O O8 0.001314 0.316746 0.057069
O O9 0.862958 0.240635 0.000000
O O10 0.857488 0.283967 0.500000
O O11 0.186568 0.500000 0.250000
O O12 0.072164 0.308560 0.216436
#
# Coordination Sequence:
#
# PCOD9498544 Si02
#       6
#    16   8  16  16  16   8
#     4  11  21  36  59  88 118 147 197 242 292 350
#     4  12  19  32  60  84 116 144 191 242 300 338
#     4   9  18  35  55  84 120 151 189 240 290 346
#     4   9  18  31  56  89 116 143 189 244 290 339
#     4  10  22  35  55  82 112 147 194 238 291 340
#     4  10  23  40  60  81 112 151 200 248 289 338
#
# _framework density 24.816679000000001
#
# number of rings (size 3 to 8) (size 9 to 14) (size 15 to 20)
#    0.000    2.000    2.000    5.400    8.400    0.400 
#    0.000    0.000    0.000    6.000    0.000    2.800 
#    0.000    0.000    0.000    0.000    0.000    0.000 
#
# Total GULP energy -222837.186676 kJ/mol
# GULP energy per Si atom -5570.929667 kJ/mol
# Density = 2.476019 g / cm^3
# Si number density = 24.816679 Si / 1000 Ang^3
#
#
#
# Elastic Constant Matrix: (Units=GPa)
#
#
# Indices 1 2 3 4 5 6 
#
# 1 120.7150 14.2094 68.4063 0.0000 0.0000 0.0000
# 2 14.2094 23.5247 16.8059 0.0000 0.0000 0.0000
# 3 68.4063 16.8059 223.1412 0.0000 0.0000 0.0000
# 4 0.0000 0.0000 0.0000 16.6292 0.0000 0.0000
# 5 0.0000 0.0000 0.0000 0.0000 37.3410 0.0000
# 6 0.0000 0.0000 0.0000 0.0000 0.0000 30.8827
#
#
#
# Elastic Compliance Matrix: (Units=1/GPa)
#
#
# Indices 1 2 3 4 5 6 
#
# 1 0.010410 -0.004236 -0.002872 0.000000 0.000000 0.000000
# 2 -0.004236 0.046649 -0.002215 0.000000 0.000000 0.000000
# 3 -0.002872 -0.002215 0.005529 0.000000 0.000000 0.000000
# 4 0.000000 0.000000 0.000000 0.060135 0.000000 0.000000
# 5 0.000000 0.000000 0.000000 0.000000 0.026780 0.000000
# 6 0.000000 0.000000 0.000000 0.000000 0.000000 0.032381
#
#
# Mechanical properties :
#
#
# Convention : Reuss Voigt Hill
#
# Bulk Modulus (GPa) = 22.75717 62.91379 42.83548
# Shear Modulus (GPa) = 23.23653 34.83454 29.03553
#
# Velocity S-wave (km/s) = 3.06327 3.75063 3.42424
# Velocity P-wave (km/s) = 4.65848 6.64551 5.73865
#
# Compressibility (1/GPa) = 0.04394220
#
# Stress axis : x y z
#
# Youngs Moduli (GPa) = 96.05885 21.43646 180.87024
#
# Poissons Ratio (x) = 0.09081 0.51952
# Poissons Ratio (y) = 0.40691 0.40059
# Poissons Ratio (z) = 0.27591 0.04748
#
# Static dielectric constant tensor:
#      x y z
#    x 2.004470 0.000000 0.000000 
#    y 0.000000 2.176400 0.000000 
#    z 0.000000 0.000000 2.029700 
# 
# From -- ./inp_files/64505.got.cif
#   From: 2010.05.17/outbox.cif.g08.bks.cpg/sg66_33_cif.got.tgz:64505.got - 2010.06.03 17:51:23.
