data_PCOD9498945
_publ_section_title
;
Structure prediction by ZEFSAII (Michael W. Deem and Ramdas Pophale) SiO2 
 PCOD9498945
Probable space group: C C C M
;
_chemical_formula_sum "Si O2"
_cell_formula_units_Z 88
_cell_length_a 19.762581
_cell_length_b 10.365273
_cell_length_c 17.152079
_cell_angle_alpha 90.000000
_cell_angle_beta 90.000000
_cell_angle_gamma 90.000000
_cell_volume 3513.509857
_symmetry_space_group_name_H-M "C C C M"
_symmetry_group_IT_number 66
_symmetry_cell_setting 'orthorhombic'
loop_
_space_group_symop_operation_xyz
x,y,z
-x,-y,z
x,-y,1/2-z
-x,y,1/2-z
-x,-y,-z
x,y,-z
-x,y,1/2+z
x,-y,1/2+z
1/2+x,1/2+y,z
1/2-x,1/2-y,z
1/2+x,1/2-y,1/2-z
1/2-x,1/2+y,1/2-z
1/2-x,1/2-y,-z
1/2+x,1/2+y,-z
1/2-x,1/2+y,1/2+z
1/2+x,1/2-y,1/2+z
loop_
_atom_site_type_symbol
_atom_site_label
_atom_site_fract_x
_atom_site_fract_y
_atom_site_fract_z
Si Si1 0.375970 0.233109 0.792971
Si Si2 0.042342 0.372679 0.919474
Si Si3 0.280294 0.000000 0.750000
Si Si4 0.922003 0.039439 0.409125
Si Si5 0.090536 0.760214 0.880792
Si Si6 0.279860 0.106446 0.413634
O O1 0.415438 0.127141 0.842264
O O2 0.312281 0.144908 0.766560
O O3 0.385178 0.356964 0.851463
O O4 0.411278 0.267822 0.712412
O O5 0.984199 0.265098 0.912931
O O6 0.000000 0.500000 0.921901
O O7 0.082344 0.360523 0.000000
O O8 0.254047 0.029029 0.662103
O O9 0.922155 0.080356 0.500000
O O10 0.885277 0.900135 0.407992
O O11 0.000000 0.000000 0.385186
O O12 0.139930 0.642974 0.904732
O O13 0.268538 0.049034 0.500000
O O14 0.250000 0.250000 0.411735
#
# Coordination Sequence:
#
# PCOD9498945 Si02
#       6
#    16  16   8  16  16  16
#     4  11  22  36  57  84 124 162 203 250 316 371
#     4  11  21  32  51  82 121 165 207 250 302 367
#     4  10  24  44  65 102 128 160 219 272 322 392
#     4  11  22  36  56  86 127 171 211 249 304 380
#     4  11  22  37  58  86 121 161 211 257 307 380
#     4  10  22  44  71  93 122 166 213 269 333 385
#
# _framework density 25.04618
#
# number of rings (size 3 to 8) (size 9 to 14) (size 15 to 20)
#    0.000    1.273    1.818    5.455    0.000    4.364 
#    6.545    0.000    0.000    0.545    0.000    0.000 
#    0.000    0.000    0.000    0.000    0.000    0.000 
#
# Total GULP energy -245270.379209 kJ/mol
# GULP energy per Si atom -5574.326800 kJ/mol
# Density = 2.498917 g / cm^3
# Si number density = 25.046180 Si / 1000 Ang^3
#
#
#
# Elastic Constant Matrix: (Units=GPa)
#
#
# Indices 1 2 3 4 5 6 
#
# 1 49.3357 4.8315 17.2398 0.0000 0.0000 0.0000
# 2 4.8315 136.5424 42.8182 0.0000 0.0000 0.0000
# 3 17.2398 42.8182 255.6411 0.0000 0.0000 0.0000
# 4 0.0000 0.0000 0.0000 1695.8058 0.0000 0.0000
# 5 0.0000 0.0000 0.0000 0.0000 29.6320 0.0000
# 6 0.0000 0.0000 0.0000 0.0000 0.0000 28.6870
#
#
#
# Elastic Compliance Matrix: (Units=1/GPa)
#
#
# Indices 1 2 3 4 5 6 
#
# 1 0.020771 -0.000312 -0.001348 0.000000 0.000000 0.000000
# 2 -0.000312 0.007734 -0.001274 0.000000 0.000000 0.000000
# 3 -0.001348 -0.001274 0.004216 0.000000 0.000000 0.000000
# 4 0.000000 0.000000 0.000000 0.000590 0.000000 0.000000
# 5 0.000000 0.000000 0.000000 0.000000 0.033747 0.000000
# 6 0.000000 0.000000 0.000000 0.000000 0.000000 0.034859
#
#
# Mechanical properties :
#
#
# Convention : Reuss Voigt Hill
#
# Bulk Modulus (GPa) = 37.24170 63.47757 50.35964
# Shear Modulus (GPa) = 42.83089 375.93359 209.38224
#
# Velocity S-wave (km/s) = 4.13979 12.26467 9.15314
# Velocity P-wave (km/s) = 6.14427 15.03203 11.48290
#
# Compressibility (1/GPa) = 0.02685162
#
# Stress axis : x y z
#
# Youngs Moduli (GPa) = 48.14387 129.29214 237.18446
#
# Poissons Ratio (x) = 0.04035 0.31984
# Poissons Ratio (y) = 0.01503 0.30227
# Poissons Ratio (z) = 0.06492 0.16477
#
# Static dielectric constant tensor:
#      x y z
#    x 2.088200 0.000000 0.000000 
#    y 0.000000 2.081870 0.000000 
#    z 0.000000 0.000000 1.967060 
# 
# From -- ./inp_files/32238.got.cif
#   From: 2010.05.17/outbox.cif.g08.bks.cpg/sg66_17_cif.got.tgz:32238.got - 2010.06.03 17:51:23.
