data_PCOD9498624
_publ_section_title
;
Structure prediction by ZEFSAII (Michael W. Deem and Ramdas Pophale) SiO2 
 PCOD9498624
Probable space group: C C C M
;
_chemical_formula_sum "Si O2"
_cell_formula_units_Z 56
_cell_length_a 23.464443
_cell_length_b 8.542555
_cell_length_c 11.744248
_cell_angle_alpha 90.000000
_cell_angle_beta 90.000000
_cell_angle_gamma 90.000000
_cell_volume 2354.090998
_symmetry_space_group_name_H-M "C C C M"
_symmetry_group_IT_number 66
_symmetry_cell_setting 'orthorhombic'
loop_
_space_group_symop_operation_xyz
x,y,z
-x,-y,z
x,-y,1/2-z
-x,y,1/2-z
-x,-y,-z
x,y,-z
-x,y,1/2+z
x,-y,1/2+z
1/2+x,1/2+y,z
1/2-x,1/2-y,z
1/2+x,1/2-y,1/2-z
1/2-x,1/2+y,1/2-z
1/2-x,1/2-y,-z
1/2+x,1/2+y,-z
1/2-x,1/2+y,1/2+z
1/2+x,1/2-y,1/2+z
loop_
_atom_site_type_symbol
_atom_site_label
_atom_site_fract_x
_atom_site_fract_y
_atom_site_fract_z
Si Si1 0.130663 0.815091 0.258507
Si Si2 0.147118 0.258722 0.000000
Si Si3 0.248387 0.512206 0.500000
Si Si4 0.750000 0.250000 0.814105
Si Si5 0.521288 0.315426 0.872622
O O1 0.110382 0.769058 0.385668
O O2 0.191857 0.733965 0.253460
O O3 0.088784 0.788653 0.152521
O O4 0.138833 0.000000 0.250000
O O5 0.184929 0.415695 0.000000
O O6 0.198770 0.131442 0.000000
O O7 0.255633 0.401579 0.608086
O O8 0.500000 0.500000 0.872296
O O9 0.500000 0.251314 0.750000
O O10 0.509289 0.255672 0.000000
#
# Coordination Sequence:
#
# PCOD9498624 Si02
#       5
#    16   8   8   8  16
#     4  12  24  37  62  96 139 173 218 275 346 399
#     4  11  24  38  59  91 133 176 227 275 322 409
#     4  10  22  40  60  87 132 184 230 265 329 400
#     4  11  24  39  62  94 138 185 217 278 340 414
#     4  10  22  38  62  93 134 166 221 285 341 382
#
# _framework density 23.788374999999998
#
# number of rings (size 3 to 8) (size 9 to 14) (size 15 to 20)
#    0.000    1.143    5.714    1.714    8.000    0.000 
#    0.000    0.000    0.000    0.000    0.000    6.000 
#    0.000    0.000    0.000    0.000    0.000    0.000 
#
# Total GULP energy -156219.620170 kJ/mol
# GULP energy per Si atom -5579.272149 kJ/mol
# Density = 2.373423 g / cm^3
# Si number density = 23.788375 Si / 1000 Ang^3
#
#
#
# Elastic Constant Matrix: (Units=GPa)
#
#
# Indices 1 2 3 4 5 6 
#
# 1 90.7390 -5.0320 52.9611 0.0000 0.0000 0.0000
# 2 -5.0320 18.3254 11.1253 0.0000 0.0000 0.0000
# 3 52.9611 11.1253 216.1888 0.0000 0.0000 0.0000
# 4 0.0000 0.0000 0.0000 -26.8567 0.0000 0.0000
# 5 0.0000 0.0000 0.0000 0.0000 45.5493 0.0000
# 6 0.0000 0.0000 0.0000 0.0000 0.0000 17.2781
#
#
#
# Elastic Compliance Matrix: (Units=1/GPa)
#
#
# Indices 1 2 3 4 5 6 
#
# 1 0.013445 0.005875 -0.003596 0.000000 0.000000 0.000000
# 2 0.005875 0.058896 -0.004470 0.000000 0.000000 0.000000
# 3 -0.003596 -0.004470 0.005737 0.000000 0.000000 0.000000
# 4 0.000000 0.000000 0.000000 -0.037235 0.000000 0.000000
# 5 0.000000 0.000000 0.000000 0.000000 0.021954 0.000000
# 6 0.000000 0.000000 0.000000 0.000000 0.000000 0.057877
#
#
# Mechanical properties :
#
#
# Convention : Reuss Voigt Hill
#
# Bulk Modulus (GPa) = 13.56926 49.26243 31.41585
# Shear Modulus (GPa) = 33.41759 24.94075 29.17917
#
# Velocity S-wave (km/s) = 3.75211 3.24148 3.50611
# Velocity P-wave (km/s) = 4.94850 5.89603 5.44292
#
# Compressibility (1/GPa) = 0.07369597
#
# Stress axis : x y z
#
# Youngs Moduli (GPa) = 74.37507 16.97902 174.31961
#
# Poissons Ratio (x) = -0.09975 0.62688
# Poissons Ratio (y) = -0.43697 0.77923
# Poissons Ratio (z) = 0.26746 0.07590
#
# Static dielectric constant tensor:
#      x y z
#    x 2.363850 0.000000 0.000000 
#    y 0.000000 1.860360 0.000000 
#    z 0.000000 0.000000 1.966430 
# 
# From -- ./inp_files/13424.got.cif
#   From: 2010.05.17/outbox.cif.g08.bks.cpg/sg66_7_cif.got.tgz:13424.got - 2010.06.03 17:51:23.
