data_PCOD9498757
_publ_section_title
;
Structure prediction by ZEFSAII (Michael W. Deem and Ramdas Pophale) SiO2 
 PCOD9498757
Probable space group: C C C M
;
_chemical_formula_sum "Si O2"
_cell_formula_units_Z 36
_cell_length_a 8.004588
_cell_length_b 6.893616
_cell_length_c 29.600600
_cell_angle_alpha 90.000000
_cell_angle_beta 90.000000
_cell_angle_gamma 90.000000
_cell_volume 1633.377563
_symmetry_space_group_name_H-M "C C C M"
_symmetry_group_IT_number 66
_symmetry_cell_setting 'orthorhombic'
loop_
_space_group_symop_operation_xyz
x,y,z
-x,-y,z
x,-y,1/2-z
-x,y,1/2-z
-x,-y,-z
x,y,-z
-x,y,1/2+z
x,-y,1/2+z
1/2+x,1/2+y,z
1/2-x,1/2-y,z
1/2+x,1/2-y,1/2-z
1/2-x,1/2+y,1/2-z
1/2-x,1/2-y,-z
1/2+x,1/2+y,-z
1/2-x,1/2+y,1/2+z
1/2+x,1/2-y,1/2+z
loop_
_atom_site_type_symbol
_atom_site_label
_atom_site_fract_x
_atom_site_fract_y
_atom_site_fract_z
Si Si1 0.500000 0.500000 0.130991
Si Si2 0.000000 0.500000 0.250000
Si Si3 0.052877 0.278441 0.951484
Si Si4 0.250000 0.250000 0.310981
O O1 0.487270 0.325486 0.095034
O O2 0.346526 0.578861 0.161250
O O3 0.885820 0.638522 0.280809
O O4 0.250000 0.250000 0.955248
O O5 0.000000 0.500000 0.947608
O O6 0.976967 0.209834 0.000000
#
# Coordination Sequence:
#
# PCOD9498757 Si02
#       4
#     8   4  16   8
#     4  12  25  41  72 110 130 194 230 307 325 450
#     4  12  28  56  68 112 132 190 220 314 372 454
#     4  10  22  40  64  99 148 190 230 285 343 406
#     4  12  28  46  81  98 148 172 247 288 382 418
#
# _framework density 22.040216999999998
#
# number of rings (size 3 to 8) (size 9 to 14) (size 15 to 20)
#    0.000    0.889    0.000    6.000    9.333    0.000 
#    0.000    8.889    0.000    0.000    0.000    0.000 
#    0.000    0.000    0.000    0.000    0.000    0.000 
#
# Total GULP energy -100418.400191 kJ/mol
# GULP energy per Si atom -5578.800011 kJ/mol
# Density = 2.199005 g / cm^3
# Si number density = 22.040217 Si / 1000 Ang^3
#
#
#
# Elastic Constant Matrix: (Units=GPa)
#
#
# Indices 1 2 3 4 5 6 
#
# 1 115.5839 62.4571 88.5877 0.0000 0.0000 0.0000
# 2 62.4571 175.4613 76.9725 0.0000 0.0000 0.0000
# 3 88.5877 76.9725 182.4971 0.0000 0.0000 0.0000
# 4 0.0000 0.0000 0.0000 5.0197 0.0000 0.0000
# 5 0.0000 0.0000 0.0000 0.0000 47.7641 0.0000
# 6 0.0000 0.0000 0.0000 0.0000 0.0000 57.2113
#
#
#
# Elastic Compliance Matrix: (Units=1/GPa)
#
#
# Indices 1 2 3 4 5 6 
#
# 1 0.014667 -0.002574 -0.006034 0.000000 0.000000 0.000000
# 2 -0.002574 0.007445 -0.001891 0.000000 0.000000 0.000000
# 3 -0.006034 -0.001891 0.009206 0.000000 0.000000 0.000000
# 4 0.000000 0.000000 0.000000 0.199216 0.000000 0.000000
# 5 0.000000 0.000000 0.000000 0.000000 0.020936 0.000000
# 6 0.000000 0.000000 0.000000 0.000000 0.000000 0.017479
#
#
# Mechanical properties :
#
#
# Convention : Reuss Voigt Hill
#
# Bulk Modulus (GPa) = 96.89122 103.28632 100.08877
# Shear Modulus (GPa) = 17.04233 38.36735 27.70484
#
# Velocity S-wave (km/s) = 2.78373 4.17680 3.54928
# Velocity P-wave (km/s) = 7.37487 8.38005 7.89348
#
# Compressibility (1/GPa) = 0.01032085
#
# Stress axis : x y z
#
# Youngs Moduli (GPa) = 68.17827 134.32102 108.62342
#
# Poissons Ratio (x) = 0.34572 0.65546
# Poissons Ratio (y) = 0.17548 0.20537
# Poissons Ratio (z) = 0.41141 0.25395
#
# Static dielectric constant tensor:
#      x y z
#    x 1.833400 0.000000 0.000000 
#    y 0.000000 1.828320 0.000000 
#    z 0.000000 0.000000 1.900250 
# 
# From -- ./inp_files/61746.got.cif
#   From: 2010.05.17/outbox.cif.g08.bks.cpg/sg66_31_cif.got.tgz:61746.got - 2010.06.03 17:51:23.
