data_PCOD9498040
_publ_section_title
;
Structure prediction by ZEFSAII (Michael W. Deem and Ramdas Pophale) SiO2 
 PCOD9498040
Probable space group: C C C M
;
_chemical_formula_sum "Si O2"
_cell_formula_units_Z 84
_cell_length_a 10.830551
_cell_length_b 21.379302
_cell_length_c 18.394064
_cell_angle_alpha 90.000000
_cell_angle_beta 90.000000
_cell_angle_gamma 90.000000
_cell_volume 4259.138542
_symmetry_space_group_name_H-M "C C C M"
_symmetry_group_IT_number 66
_symmetry_cell_setting 'orthorhombic'
loop_
_space_group_symop_operation_xyz
x,y,z
-x,-y,z
x,-y,1/2-z
-x,y,1/2-z
-x,-y,-z
x,y,-z
-x,y,1/2+z
x,-y,1/2+z
1/2+x,1/2+y,z
1/2-x,1/2-y,z
1/2+x,1/2-y,1/2-z
1/2-x,1/2+y,1/2-z
1/2-x,1/2-y,-z
1/2+x,1/2+y,-z
1/2-x,1/2+y,1/2+z
1/2+x,1/2-y,1/2+z
loop_
_atom_site_type_symbol
_atom_site_label
_atom_site_fract_x
_atom_site_fract_y
_atom_site_fract_z
Si Si1 0.372626 0.525059 0.128316
Si Si2 0.180624 0.537890 0.000000
Si Si3 0.500000 0.000000 0.250000
Si Si4 0.584568 0.822642 0.500000
Si Si5 0.250000 0.250000 0.385262
Si Si6 0.642404 0.894423 0.000000
Si Si7 0.706847 0.916154 0.168183
Si Si8 0.132576 0.850065 0.780100
O O1 0.500000 0.500000 0.095374
O O2 0.269888 0.540361 0.069079
O O3 0.314674 0.467650 0.171562
O O4 0.391062 0.585146 0.177426
O O5 0.107298 0.602329 0.000000
O O6 0.114605 0.470428 0.000000
O O7 0.413715 0.046278 0.200124
O O8 0.650568 0.788385 0.433217
O O9 0.437934 0.830157 0.500000
O O10 0.179739 0.200309 0.336756
O O11 0.696638 0.894121 0.916236
O O12 0.758917 0.862488 0.221116
O O13 0.000000 0.830129 0.750000
#
# Coordination Sequence:
#
# PCOD9498040 Si02
#       8
#    16   8   4   8   8   8  16  16
#     4  11  20  39  66 102 137 168 210 283 351 408
#     4  10  21  37  67 105 136 172 216 274 353 418
#     4  12  24  34  62 104 140 182 212 278 346 422
#     4  11  23  47  65  91 140 182 229 277 332 409
#     4  11  28  44  68  97 126 190 240 269 328 404
#     4  10  26  40  66 102 141 181 214 290 353 402
#     4  11  25  39  64 105 139 175 222 277 361 407
#     4  12  24  45  68  96 136 178 230 282 336 403
#
# _framework density 19.722297000000001
#
# number of rings (size 3 to 8) (size 9 to 14) (size 15 to 20)
#    0.000    0.952    5.714    0.571    8.000    1.524 
#    0.000    1.905    0.000    1.714    0.000    0.000 
#    0.000    0.000    0.000    0.000    0.000    0.000 
#
# Total GULP energy -233877.746540 kJ/mol
# GULP energy per Si atom -5568.517775 kJ/mol
# Density = 1.967741 g / cm^3
# Si number density = 19.722297 Si / 1000 Ang^3
#
#
#
# Elastic Constant Matrix: (Units=GPa)
#
#
# Indices 1 2 3 4 5 6 
#
# 1 79.6587 35.6945 42.8733 0.0000 0.0000 0.0000
# 2 35.6945 75.0874 62.1162 0.0000 0.0000 0.0000
# 3 42.8733 62.1162 130.9673 0.0000 0.0000 0.0000
# 4 0.0000 0.0000 0.0000 40.3462 0.0000 0.0000
# 5 0.0000 0.0000 0.0000 0.0000 8.2538 0.0000
# 6 0.0000 0.0000 0.0000 0.0000 0.0000 27.9253
#
#
#
# Elastic Compliance Matrix: (Units=1/GPa)
#
#
# Indices 1 2 3 4 5 6 
#
# 1 0.016542 -0.005569 -0.002774 0.000000 0.000000 0.000000
# 2 -0.005569 0.023792 -0.009461 0.000000 0.000000 0.000000
# 3 -0.002774 -0.009461 0.013031 0.000000 0.000000 0.000000
# 4 0.000000 0.000000 0.000000 0.024785 0.000000 0.000000
# 5 0.000000 0.000000 0.000000 0.000000 0.121156 0.000000
# 6 0.000000 0.000000 0.000000 0.000000 0.000000 0.035810
#
#
# Mechanical properties :
#
#
# Convention : Reuss Voigt Hill
#
# Bulk Modulus (GPa) = 56.31651 63.00903 59.66277
# Shear Modulus (GPa) = 18.07388 24.97368 21.52378
#
# Velocity S-wave (km/s) = 3.03052 3.56232 3.30713
# Velocity P-wave (km/s) = 6.39235 6.99555 6.70074
#
# Compressibility (1/GPa) = 0.01775678
#
# Stress axis : x y z
#
# Youngs Moduli (GPa) = 60.45270 42.03113 76.74074
#
# Poissons Ratio (x) = 0.23406 0.21287
# Poissons Ratio (y) = 0.33665 0.72606
# Poissons Ratio (z) = 0.16769 0.39766
#
# Static dielectric constant tensor:
#      x y z
#    x 1.399880 0.000000 0.000000 
#    y 0.000000 1.400100 0.000000 
#    z 0.000000 0.000000 1.755200 
# 
# From -- ./inp_files/47136.got.cif
#   From: 2010.05.17/outbox.cif.g08.bks.cpg/sg66_24_cif.got.tgz:47136.got - 2010.06.03 17:51:23.
