data_PCOD9498298
_publ_section_title
;
Structure prediction by ZEFSAII (Michael W. Deem and Ramdas Pophale) SiO2 
 PCOD9498298
Probable space group: C C C M
;
_chemical_formula_sum "Si O2"
_cell_formula_units_Z 80
_cell_length_a 25.275345
_cell_length_b 5.053332
_cell_length_c 32.792842
_cell_angle_alpha 90.000000
_cell_angle_beta 90.000000
_cell_angle_gamma 90.000000
_cell_volume 4188.456225
_symmetry_space_group_name_H-M "C C C M"
_symmetry_group_IT_number 66
_symmetry_cell_setting 'orthorhombic'
loop_
_space_group_symop_operation_xyz
x,y,z
-x,-y,z
x,-y,1/2-z
-x,y,1/2-z
-x,-y,-z
x,y,-z
-x,y,1/2+z
x,-y,1/2+z
1/2+x,1/2+y,z
1/2-x,1/2-y,z
1/2+x,1/2-y,1/2-z
1/2-x,1/2+y,1/2-z
1/2-x,1/2-y,-z
1/2+x,1/2+y,-z
1/2-x,1/2+y,1/2+z
1/2+x,1/2-y,1/2+z
loop_
_atom_site_type_symbol
_atom_site_label
_atom_site_fract_x
_atom_site_fract_y
_atom_site_fract_z
Si Si1 0.963940 0.239767 0.088100
Si Si2 0.694674 0.872432 0.911116
Si Si3 0.339445 0.801368 0.500000
Si Si4 0.644671 0.617267 0.374074
Si Si5 0.911564 0.794916 0.500000
Si Si6 0.211525 0.002006 0.703153
O O1 0.912582 0.241650 0.117186
O O2 0.000000 0.500000 0.087797
O O3 0.943667 0.178030 0.042005
O O4 0.000000 0.000000 0.102095
O O5 0.750000 0.750000 0.896910
O O6 0.692826 0.873990 0.959776
O O7 0.650309 0.658492 0.898386
O O8 0.683701 0.159365 0.892677
O O9 0.362923 0.504423 0.500000
O O10 0.389481 0.997318 0.500000
O O11 0.664357 0.540918 0.328995
O O12 0.250000 0.750000 0.696692
O O13 0.192313 0.000000 0.750000
O O14 0.250000 0.250000 0.698413
#
# Coordination Sequence:
#
# PCOD9498298 Si02
#       6
#    16  16   8  16   8  16
#     4  12  24  40  60  84 114 160 209 261 306 344
#     4  12  23  37  58  84 121 162 198 238 296 359
#     4  12  21  39  54  81 118 163 198 249 291 358
#     4  12  23  40  60  88 122 153 200 250 296 354
#     4  12  22  41  59  77 116 157 215 265 306 330
#     4  10  21  39  65  97 126 153 187 230 294 371
#
# _framework density 19.100117000000001
#
# number of rings (size 3 to 8) (size 9 to 14) (size 15 to 20)
#    0.000    0.400    4.000    6.900    0.000    0.000 
#    0.000    3.000    0.000    0.600    0.000    1.400 
#    0.000    0.000    0.000    0.000    0.000    0.000 
#
# Total GULP energy -223591.859197 kJ/mol
# GULP energy per Si atom -5589.796480 kJ/mol
# Density = 1.905664 g / cm^3
# Si number density = 19.100117 Si / 1000 Ang^3
#
#
#
# Elastic Constant Matrix: (Units=GPa)
#
#
# Indices 1 2 3 4 5 6 
#
# 1 88.1255 12.9581 45.6451 0.0000 0.0000 0.0000
# 2 12.9581 108.2778 25.4796 0.0000 0.0000 0.0000
# 3 45.6451 25.4796 156.8384 0.0000 0.0000 0.0000
# 4 0.0000 0.0000 0.0000 30.5933 0.0000 0.0000
# 5 0.0000 0.0000 0.0000 0.0000 -104.0786 0.0000
# 6 0.0000 0.0000 0.0000 0.0000 0.0000 31.8848
#
#
#
# Elastic Compliance Matrix: (Units=1/GPa)
#
#
# Indices 1 2 3 4 5 6 
#
# 1 0.013414 -0.000714 -0.003788 0.000000 0.000000 0.000000
# 2 -0.000714 0.009641 -0.001358 0.000000 0.000000 0.000000
# 3 -0.003788 -0.001358 0.007699 0.000000 0.000000 0.000000
# 4 0.000000 0.000000 0.000000 0.032687 0.000000 0.000000
# 5 0.000000 0.000000 0.000000 0.000000 -0.009608 0.000000
# 6 0.000000 0.000000 0.000000 0.000000 0.000000 0.031363
#
#
# Mechanical properties :
#
#
# Convention : Reuss Voigt Hill
#
# Bulk Modulus (GPa) = 52.53938 57.93412 55.23675
# Shear Modulus (GPa) = 48.42094 9.62384 29.02239
#
# Velocity S-wave (km/s) = 5.04045 2.24712 3.90229
# Velocity P-wave (km/s) = 7.83849 6.09347 7.02041
#
# Compressibility (1/GPa) = 0.01903334
#
# Stress axis : x y z
#
# Youngs Moduli (GPa) = 74.54633 103.72794 129.88498
#
# Poissons Ratio (x) = 0.07406 0.49201
# Poissons Ratio (y) = 0.05322 0.17644
# Poissons Ratio (z) = 0.28239 0.14090
#
# Static dielectric constant tensor:
#      x y z
#    x 1.655660 0.000000 0.000000 
#    y 0.000000 1.653230 0.000000 
#    z 0.000000 0.000000 1.692350 
# 
# From -- ./inp_files/70318.got.cif
#   From: 2010.05.17/outbox.cif.g08.bks.cpg/sg66_36_cif.got.tgz:70318.got - 2010.06.03 17:51:23.
