data_PCOD9498513
_publ_section_title
;
Structure prediction by ZEFSAII (Michael W. Deem and Ramdas Pophale) SiO2 
 PCOD9498513
Probable space group: C C C M
;
_chemical_formula_sum "Si O2"
_cell_formula_units_Z 36
_cell_length_a 7.610824
_cell_length_b 7.061062
_cell_length_c 25.427836
_cell_angle_alpha 90.000000
_cell_angle_beta 90.000000
_cell_angle_gamma 90.000000
_cell_volume 1366.504624
_symmetry_space_group_name_H-M "C C C M"
_symmetry_group_IT_number 66
_symmetry_cell_setting 'orthorhombic'
loop_
_space_group_symop_operation_xyz
x,y,z
-x,-y,z
x,-y,1/2-z
-x,y,1/2-z
-x,-y,-z
x,y,-z
-x,y,1/2+z
x,-y,1/2+z
1/2+x,1/2+y,z
1/2-x,1/2-y,z
1/2+x,1/2-y,1/2-z
1/2-x,1/2+y,1/2-z
1/2-x,1/2-y,-z
1/2+x,1/2+y,-z
1/2-x,1/2+y,1/2+z
1/2+x,1/2-y,1/2+z
loop_
_atom_site_type_symbol
_atom_site_label
_atom_site_fract_x
_atom_site_fract_y
_atom_site_fract_z
Si Si1 0.545280 0.221743 0.692250
Si Si2 0.250000 0.250000 0.000000
Si Si3 0.052154 0.275722 0.420137
O O1 0.500000 0.298393 0.750000
O O2 0.750000 0.250000 0.683405
O O3 0.449267 0.294322 0.640148
O O4 0.500000 0.000000 0.694146
O O5 0.395711 0.308621 0.954431
O O6 0.250000 0.250000 0.440573
O O7 0.000000 0.500000 0.422171
#
# Coordination Sequence:
#
# PCOD9498513 Si02
#       3
#    16   4  16
#     4  10  21  43  68 102 138 182 233 292 353 421
#     4  12  24  46  68 100 136 186 232 288 346 422
#     4  11  25  44  66 100 136 181 233 288 350 417
#
# _framework density 26.344587000000001
#
# number of rings (size 3 to 8) (size 9 to 14) (size 15 to 20)
#    0.000    1.333    2.222    2.667    0.000    3.556 
#    0.000   17.778    0.000    0.000    0.000    0.000 
#    0.000    0.000    0.000    0.000    0.000    0.000 
#
# Total GULP energy -100318.202274 kJ/mol
# GULP energy per Si atom -5573.233460 kJ/mol
# Density = 2.628463 g / cm^3
# Si number density = 26.344587 Si / 1000 Ang^3
#
#
#
# Elastic Constant Matrix: (Units=GPa)
#
#
# Indices 1 2 3 4 5 6 
#
# 1 284.7475 18.5094 75.2670 0.0000 0.0000 0.0000
# 2 18.5094 133.4353 -17.5470 0.0000 0.0000 0.0000
# 3 75.2670 -17.5470 251.2992 0.0000 0.0000 0.0000
# 4 0.0000 0.0000 0.0000 -25.0110 0.0000 0.0000
# 5 0.0000 0.0000 0.0000 0.0000 50.5770 0.0000
# 6 0.0000 0.0000 0.0000 0.0000 0.0000 44.2719
#
#
#
# Elastic Compliance Matrix: (Units=1/GPa)
#
#
# Indices 1 2 3 4 5 6 
#
# 1 0.003877 -0.000697 -0.001210 0.000000 0.000000 0.000000
# 2 -0.000697 0.007689 0.000746 0.000000 0.000000 0.000000
# 3 -0.001210 0.000746 0.004394 0.000000 0.000000 0.000000
# 4 0.000000 0.000000 0.000000 -0.039982 0.000000 0.000000
# 5 0.000000 0.000000 0.000000 0.000000 0.019772 0.000000
# 6 0.000000 0.000000 0.000000 0.000000 0.000000 0.022588
#
#
# Mechanical properties :
#
#
# Convention : Reuss Voigt Hill
#
# Bulk Modulus (GPa) = 73.32756 91.32674 82.32715
# Shear Modulus (GPa) = 198.37437 53.51777 125.94607
#
# Velocity S-wave (km/s) = 8.68696 4.51205 6.92178
# Velocity P-wave (km/s) = 11.33632 7.86679 9.75701
#
# Compressibility (1/GPa) = 0.01363744
#
# Stress axis : x y z
#
# Youngs Moduli (GPa) = 257.93237 130.05615 227.59601
#
# Poissons Ratio (x) = 0.09064 0.27536
# Poissons Ratio (y) = 0.17975 -0.16970
# Poissons Ratio (z) = 0.31206 -0.09697
#
# Static dielectric constant tensor:
#      x y z
#    x 1.958380 0.000000 0.000000 
#    y 0.000000 2.180110 0.000000 
#    z 0.000000 0.000000 2.109540 
# 
# From -- ./inp_files/53543.got.cif
#   From: 2010.05.17/outbox.cif.g08.bks.cpg/sg66_27_cif.got.tgz:53543.got - 2010.06.03 17:51:23.
