data_PCOD9498918
_publ_section_title
;
Structure prediction by ZEFSAII (Michael W. Deem and Ramdas Pophale) SiO2 
 PCOD9498918
Probable space group: C C C M
;
_chemical_formula_sum "Si O2"
_cell_formula_units_Z 56
_cell_length_a 5.479965
_cell_length_b 30.138982
_cell_length_c 14.612966
_cell_angle_alpha 90.000000
_cell_angle_beta 90.000000
_cell_angle_gamma 90.000000
_cell_volume 2413.485743
_symmetry_space_group_name_H-M "C C C M"
_symmetry_group_IT_number 66
_symmetry_cell_setting 'orthorhombic'
loop_
_space_group_symop_operation_xyz
x,y,z
-x,-y,z
x,-y,1/2-z
-x,y,1/2-z
-x,-y,-z
x,y,-z
-x,y,1/2+z
x,-y,1/2+z
1/2+x,1/2+y,z
1/2-x,1/2-y,z
1/2+x,1/2-y,1/2-z
1/2-x,1/2+y,1/2-z
1/2-x,1/2-y,-z
1/2+x,1/2+y,-z
1/2-x,1/2+y,1/2+z
1/2+x,1/2-y,1/2+z
loop_
_atom_site_type_symbol
_atom_site_label
_atom_site_fract_x
_atom_site_fract_y
_atom_site_fract_z
Si Si1 0.828640 0.369642 0.901623
Si Si2 0.608093 0.045530 0.647280
Si Si3 0.999235 0.273832 0.360449
Si Si4 0.500000 0.411071 0.750000
O O1 0.668217 0.378630 0.810912
O O2 0.006098 0.411823 0.902766
O O3 0.979670 0.324701 0.890198
O O4 0.694800 0.367829 0.000000
O O5 0.500000 0.047068 0.750000
O O6 0.887650 0.055930 0.672399
O O7 0.500000 0.000000 0.608046
O O8 0.750000 0.250000 0.390876
O O9 0.000000 0.272731 0.250000
O O10 0.250000 0.250000 0.390835
#
# Coordination Sequence:
#
# PCOD9498918 Si02
#       4
#    16  16  16   8
#     4  11  25  41  65 101 137 180 229 286 348 417
#     4   9  20  39  65  94 130 176 226 280 343 413
#     4  10  23  42  70 101 134 183 232 285 350 416
#     4  10  22  43  70  96 140 182 230 288 351 420
#
# _framework density 23.202953999999998
#
# number of rings (size 3 to 8) (size 9 to 14) (size 15 to 20)
#    0.000    2.000    0.000    2.571   10.000   12.000 
#    0.000    1.429    0.000    0.000    0.000    0.000 
#    0.000    0.000    0.000    0.000    0.000    0.000 
#
# Total GULP energy -156148.621580 kJ/mol
# GULP energy per Si atom -5576.736485 kJ/mol
# Density = 2.315014 g / cm^3
# Si number density = 23.202954 Si / 1000 Ang^3
#
#
#
# Elastic Constant Matrix: (Units=GPa)
#
#
# Indices 1 2 3 4 5 6 
#
# 1 108.6286 84.5635 34.3923 0.0000 0.0000 0.0000
# 2 84.5635 235.9588 40.7650 0.0000 0.0000 0.0000
# 3 34.3923 40.7650 115.8268 0.0000 0.0000 0.0000
# 4 0.0000 0.0000 0.0000 777.5681 0.0000 0.0000
# 5 0.0000 0.0000 0.0000 0.0000 2.7117 0.0000
# 6 0.0000 0.0000 0.0000 0.0000 0.0000 22.2039
#
#
#
# Elastic Compliance Matrix: (Units=1/GPa)
#
#
# Indices 1 2 3 4 5 6 
#
# 1 0.013382 -0.004376 -0.002434 0.000000 0.000000 0.000000
# 2 -0.004376 0.005943 -0.000792 0.000000 0.000000 0.000000
# 3 -0.002434 -0.000792 0.009635 0.000000 0.000000 0.000000
# 4 0.000000 0.000000 0.000000 0.001286 0.000000 0.000000
# 5 0.000000 0.000000 0.000000 0.000000 0.368772 0.000000
# 6 0.000000 0.000000 0.000000 0.000000 0.000000 0.045037
#
#
# Mechanical properties :
#
#
# Convention : Reuss Voigt Hill
#
# Bulk Modulus (GPa) = 72.68874 86.65064 79.66969
# Shear Modulus (GPa) = 10.77946 180.54298 95.66122
#
# Velocity S-wave (km/s) = 2.15773 8.83059 6.42787
# Velocity P-wave (km/s) = 6.13214 11.89109 9.46048
#
# Compressibility (1/GPa) = 0.01375729
#
# Stress axis : x y z
#
# Youngs Moduli (GPa) = 74.72489 168.26355 103.78733
#
# Poissons Ratio (x) = 0.73625 0.25258
# Poissons Ratio (y) = 0.32696 0.08224
# Poissons Ratio (z) = 0.18185 0.13333
#
# Static dielectric constant tensor:
#      x y z
#    x 2.129140 0.000000 0.000000 
#    y 0.000000 1.849470 0.000000 
#    z 0.000000 0.000000 1.927870 
# 
# From -- ./inp_files/22483.got.cif
#   From: 2010.05.17/outbox.cif.g08.bks.cpg/sg66_12_cif.got.tgz:22483.got - 2010.06.03 17:51:23.
