data_PCOD9498366
_publ_section_title
;
Structure prediction by ZEFSAII (Michael W. Deem and Ramdas Pophale) SiO2 
 PCOD9498366
Probable space group: C C C M
;
_chemical_formula_sum "Si O2"
_cell_formula_units_Z 96
_cell_length_a 11.227524
_cell_length_b 22.751546
_cell_length_c 18.734941
_cell_angle_alpha 90.000000
_cell_angle_beta 90.000000
_cell_angle_gamma 90.000000
_cell_volume 4785.719440
_symmetry_space_group_name_H-M "C C C M"
_symmetry_group_IT_number 66
_symmetry_cell_setting 'orthorhombic'
loop_
_space_group_symop_operation_xyz
x,y,z
-x,-y,z
x,-y,1/2-z
-x,y,1/2-z
-x,-y,-z
x,y,-z
-x,y,1/2+z
x,-y,1/2+z
1/2+x,1/2+y,z
1/2-x,1/2-y,z
1/2+x,1/2-y,1/2-z
1/2-x,1/2+y,1/2-z
1/2-x,1/2-y,-z
1/2+x,1/2+y,-z
1/2-x,1/2+y,1/2+z
1/2+x,1/2-y,1/2+z
loop_
_atom_site_type_symbol
_atom_site_label
_atom_site_fract_x
_atom_site_fract_y
_atom_site_fract_z
Si Si1 0.000000 0.344605 0.750000
Si Si2 0.666263 0.435106 0.736415
Si Si3 0.042197 0.869689 0.152351
Si Si4 0.113058 0.738231 0.146523
Si Si5 0.477061 0.220530 0.000000
Si Si6 0.676039 0.103175 0.500000
Si Si7 0.551238 0.359827 0.500000
Si Si8 0.910832 0.555880 0.150384
O O1 0.900096 0.302666 0.783899
O O2 0.971408 0.386854 0.684223
O O3 0.620023 0.500000 0.750000
O O4 0.656298 0.400908 0.811684
O O5 0.576138 0.397777 0.687392
O O6 0.791976 0.446071 0.698880
O O7 0.051202 0.800309 0.164755
O O8 0.024959 0.877385 0.068706
O O9 0.250000 0.750000 0.130592
O O10 0.052195 0.714837 0.073571
O O11 0.432038 0.288550 0.000000
O O12 0.379197 0.169120 0.000000
O O13 0.818972 0.110397 0.500000
O O14 0.629929 0.069085 0.430033
O O15 0.000000 0.500000 0.156067
#
# Coordination Sequence:
#
# PCOD9498366 Si02
#       8
#     8  16  16  16   8   8   8  16
#     4  12  23  40  62  96 133 168 218 276 328 420
#     4  11  22  42  67  93 134 180 222 284 339 398
#     4  10  21  40  65 100 134 176 225 273 341 410
#     4  11  23  40  65  98 135 176 219 275 342 407
#     4  10  22  43  67  93 136 176 223 271 337 420
#     4  12  22  47  68  96 136 175 226 281 347 409
#     4  10  21  40  70 104 136 172 219 284 341 416
#     4  12  26  44  69  95 133 179 233 281 345 407
#
# _framework density 20.05968
#
# number of rings (size 3 to 8) (size 9 to 14) (size 15 to 20)
#    0.000    1.000    3.333    5.000    0.000    0.000 
#    0.000    2.500    0.000    0.000    0.000    0.583 
#    0.000    0.000    0.000    0.000    0.000    0.000 
#
# Total GULP energy -267804.706226 kJ/mol
# GULP energy per Si atom -5579.264713 kJ/mol
# Density = 2.001402 g / cm^3
# Si number density = 20.059680 Si / 1000 Ang^3
#
#
#
# Elastic Constant Matrix: (Units=GPa)
#
#
# Indices 1 2 3 4 5 6 
#
# 1 100.3262 41.3533 58.8859 0.0000 0.0000 0.0000
# 2 41.3533 98.1880 66.3434 0.0000 0.0000 0.0000
# 3 58.8859 66.3434 153.6558 0.0000 0.0000 0.0000
# 4 0.0000 0.0000 0.0000 37.2993 0.0000 0.0000
# 5 0.0000 0.0000 0.0000 0.0000 40.2392 0.0000
# 6 0.0000 0.0000 0.0000 0.0000 0.0000 11.7856
#
#
#
# Elastic Compliance Matrix: (Units=1/GPa)
#
#
# Indices 1 2 3 4 5 6 
#
# 1 0.013493 -0.003091 -0.003837 0.000000 0.000000 0.000000
# 2 -0.003091 0.015087 -0.005330 0.000000 0.000000 0.000000
# 3 -0.003837 -0.005330 0.010280 0.000000 0.000000 0.000000
# 4 0.000000 0.000000 0.000000 0.026810 0.000000 0.000000
# 5 0.000000 0.000000 0.000000 0.000000 0.024851 0.000000
# 6 0.000000 0.000000 0.000000 0.000000 0.000000 0.084849
#
#
# Mechanical properties :
#
#
# Convention : Reuss Voigt Hill
#
# Bulk Modulus (GPa) = 69.70473 76.14835 72.92654
# Shear Modulus (GPa) = 24.42989 30.23731 27.33360
#
# Velocity S-wave (km/s) = 3.49357 3.88670 3.69536
# Velocity P-wave (km/s) = 7.14825 7.62792 7.39198
#
# Compressibility (1/GPa) = 0.01434623
#
# Stress axis : x y z
#
# Youngs Moduli (GPa) = 74.11088 66.28034 97.27976
#
# Poissons Ratio (x) = 0.20484 0.37323
# Poissons Ratio (y) = 0.22904 0.51849
# Poissons Ratio (z) = 0.28434 0.35326
#
# Static dielectric constant tensor:
#      x y z
#    x 1.758350 0.000000 0.000000 
#    y 0.000000 1.716970 0.000000 
#    z 0.000000 0.000000 1.725070 
# 
# From -- ./inp_files/38938.got.cif
#   From: 2010.05.17/outbox.cif.g08.bks.cpg/sg66_20_cif.got.tgz:38938.got - 2010.06.03 17:51:23.
