data_PCOD9498142
_publ_section_title
;
Structure prediction by ZEFSAII (Michael W. Deem and Ramdas Pophale) SiO2 
 PCOD9498142
Probable space group: C C C M
;
_chemical_formula_sum "Si O2"
_cell_formula_units_Z 96
_cell_length_a 22.691487
_cell_length_b 15.026420
_cell_length_c 14.612489
_cell_angle_alpha 90.000000
_cell_angle_beta 90.000000
_cell_angle_gamma 90.000000
_cell_volume 4982.446883
_symmetry_space_group_name_H-M "C C C M"
_symmetry_group_IT_number 66
_symmetry_cell_setting 'orthorhombic'
loop_
_space_group_symop_operation_xyz
x,y,z
-x,-y,z
x,-y,1/2-z
-x,y,1/2-z
-x,-y,-z
x,y,-z
-x,y,1/2+z
x,-y,1/2+z
1/2+x,1/2+y,z
1/2-x,1/2-y,z
1/2+x,1/2-y,1/2-z
1/2-x,1/2+y,1/2-z
1/2-x,1/2-y,-z
1/2+x,1/2+y,-z
1/2-x,1/2+y,1/2+z
1/2+x,1/2-y,1/2+z
loop_
_atom_site_type_symbol
_atom_site_label
_atom_site_fract_x
_atom_site_fract_y
_atom_site_fract_z
Si Si1 0.912457 0.763282 0.391361
Si Si2 0.661608 0.913786 0.608029
Si Si3 0.639500 0.111899 0.391465
Si Si4 0.121685 0.102641 0.762470
Si Si5 0.254126 0.853619 0.256888
Si Si6 0.550714 0.732989 0.890559
O O1 0.906076 0.779046 0.500000
O O2 0.879107 0.671030 0.370027
O O3 0.885962 0.842375 0.331474
O O4 0.981785 0.757326 0.369653
O O5 0.675890 0.910590 0.500000
O O6 0.719247 0.907082 0.670962
O O7 0.629489 0.007382 0.626506
O O8 0.649178 0.121844 0.500000
O O9 0.697620 0.138965 0.336534
O O10 0.586485 0.177469 0.365839
O O11 0.190558 0.112001 0.787434
O O12 0.080900 0.152652 0.836018
O O13 0.105777 0.000000 0.750000
O O14 0.250000 0.750000 0.230239
O O15 0.556223 0.719612 0.000000
#
# Coordination Sequence:
#
# PCOD9498142 Si02
#       6
#    16  16  16  16  16  16
#     4  10  22  40  61  87 118 152 193 239 287 342
#     4  10  21  38  62  91 120 150 186 233 292 354
#     4  10  21  38  62  91 120 150 186 233 292 354
#     4  12  25  40  59  84 115 156 201 243 287 334
#     4  12  22  39  62  84 117 156 194 238 290 345
#     4  10  22  40  61  87 118 152 193 239 287 342
#
# _framework density 19.267641000000001
#
# number of rings (size 3 to 8) (size 9 to 14) (size 15 to 20)
#    0.000    1.333    3.333    2.000    0.000    4.667 
#    0.000    5.000    0.000    4.000    0.000    0.000 
#    0.000    0.000    0.000    0.000    0.000    0.000 
#
# Total GULP energy -268275.537678 kJ/mol
# GULP energy per Si atom -5589.073702 kJ/mol
# Density = 1.922379 g / cm^3
# Si number density = 19.267641 Si / 1000 Ang^3
#
#
#
# Elastic Constant Matrix: (Units=GPa)
#
#
# Indices 1 2 3 4 5 6 
#
# 1 79.8448 12.1972 14.5814 0.0000 0.0000 0.0000
# 2 12.1972 118.4008 14.8350 0.0000 0.0000 0.0000
# 3 14.5814 14.8350 36.6000 0.0000 0.0000 0.0000
# 4 0.0000 0.0000 0.0000 29.3822 0.0000 0.0000
# 5 0.0000 0.0000 0.0000 0.0000 6.7982 0.0000
# 6 0.0000 0.0000 0.0000 0.0000 0.0000 5.3052
#
#
#
# Elastic Compliance Matrix: (Units=1/GPa)
#
#
# Indices 1 2 3 4 5 6 
#
# 1 0.013571 -0.000759 -0.005099 0.000000 0.000000 0.000000
# 2 -0.000759 0.008940 -0.003321 0.000000 0.000000 0.000000
# 3 -0.005099 -0.003321 0.030700 0.000000 0.000000 0.000000
# 4 0.000000 0.000000 0.000000 0.034034 0.000000 0.000000
# 5 0.000000 0.000000 0.000000 0.000000 0.147098 0.000000
# 6 0.000000 0.000000 0.000000 0.000000 0.000000 0.188494
#
#
# Mechanical properties :
#
#
# Convention : Reuss Voigt Hill
#
# Bulk Modulus (GPa) = 28.69226 35.34144 32.01685
# Shear Modulus (GPa) = 11.04203 21.17926 16.11065
#
# Velocity S-wave (km/s) = 2.39652 3.31904 2.89476
# Velocity P-wave (km/s) = 4.75200 5.75067 5.27502
#
# Compressibility (1/GPa) = 0.03485260
#
# Stress axis : x y z
#
# Youngs Moduli (GPa) = 73.68392 111.85393 32.57318
#
# Poissons Ratio (x) = 0.08492 0.16610
# Poissons Ratio (y) = 0.05594 0.10818
# Poissons Ratio (z) = 0.37573 0.37150
#
# Static dielectric constant tensor:
#      x y z
#    x 1.641280 0.000000 0.000000 
#    y 0.000000 1.666320 0.000000 
#    z 0.000000 0.000000 1.680110 
# 
# From -- ./inp_files/28318.got.cif
#   From: 2010.05.17/outbox.cif.g08.bks.cpg/sg66_15_cif.got.tgz:28318.got - 2010.06.03 17:51:23.
