data_PCOD9498375
_publ_section_title
;
Structure prediction by ZEFSAII (Michael W. Deem and Ramdas Pophale) SiO2 
 PCOD9498375
Probable space group: C C C M
;
_chemical_formula_sum "Si O2"
_cell_formula_units_Z 52
_cell_length_a 6.807835
_cell_length_b 17.388775
_cell_length_c 16.413278
_cell_angle_alpha 90.000000
_cell_angle_beta 90.000000
_cell_angle_gamma 90.000000
_cell_volume 1943.002390
_symmetry_space_group_name_H-M "C C C M"
_symmetry_group_IT_number 66
_symmetry_cell_setting 'orthorhombic'
loop_
_space_group_symop_operation_xyz
x,y,z
-x,-y,z
x,-y,1/2-z
-x,y,1/2-z
-x,-y,-z
x,y,-z
-x,y,1/2+z
x,-y,1/2+z
1/2+x,1/2+y,z
1/2-x,1/2-y,z
1/2+x,1/2-y,1/2-z
1/2-x,1/2+y,1/2-z
1/2-x,1/2-y,-z
1/2+x,1/2+y,-z
1/2-x,1/2+y,1/2+z
1/2+x,1/2-y,1/2+z
loop_
_atom_site_type_symbol
_atom_site_label
_atom_site_fract_x
_atom_site_fract_y
_atom_site_fract_z
Si Si1 0.221693 0.888606 0.000000
Si Si2 0.217134 0.834983 0.350608
Si Si3 0.739753 0.371862 0.825722
Si Si4 0.746175 0.569225 0.000000
Si Si5 0.000000 0.500000 0.250000
O O1 0.289641 0.846973 0.917636
O O2 0.984881 0.903131 0.000000
O O3 0.283220 0.978492 0.000000
O O4 0.250000 0.750000 0.385415
O O5 0.296098 0.830146 0.258121
O O6 0.311914 0.893451 0.414839
O O7 0.996761 0.866565 0.334198
O O8 0.847474 0.452167 0.806252
#
# Coordination Sequence:
#
# PCOD9498375 Si02
#       5
#     8  16  16   8   4
#     4   9  18  37  61  97 132 169 227 286 354 395
#     4  10  21  40  65  97 137 183 228 274 338 417
#     4  10  23  40  66  97 135 177 224 289 343 408
#     4   9  17  32  66 101 132 170 220 291 347 406
#     4  12  24  40  64 100 136 180 232 286 356 392
#
# _framework density 26.762706000000001
#
# number of rings (size 3 to 8) (size 9 to 14) (size 15 to 20)
#    0.000    2.154    0.000    2.308    0.000   12.923 
#    0.000    2.308    0.000    7.385    0.000    0.000 
#    0.000    0.000    0.000    0.000    0.000    0.000 
#
# Total GULP energy -144873.650791 kJ/mol
# GULP energy per Si atom -5572.063492 kJ/mol
# Density = 2.670179 g / cm^3
# Si number density = 26.762706 Si / 1000 Ang^3
#
#
#
# Elastic Constant Matrix: (Units=GPa)
#
#
# Indices 1 2 3 4 5 6 
#
# 1 203.7639 4.3059 -20.5801 0.0000 0.0000 0.0000
# 2 4.3059 109.3974 38.6185 0.0000 0.0000 0.0000
# 3 -20.5801 38.6185 248.3605 0.0000 0.0000 0.0000
# 4 0.0000 0.0000 0.0000 75.7583 0.0000 0.0000
# 5 0.0000 0.0000 0.0000 0.0000 -51.0285 0.0000
# 6 0.0000 0.0000 0.0000 0.0000 0.0000 -14.9395
#
#
#
# Elastic Compliance Matrix: (Units=1/GPa)
#
#
# Indices 1 2 3 4 5 6 
#
# 1 0.004962 -0.000360 0.000467 0.000000 0.000000 0.000000
# 2 -0.000360 0.009698 -0.001538 0.000000 0.000000 0.000000
# 3 0.000467 -0.001538 0.004304 0.000000 0.000000 0.000000
# 4 0.000000 0.000000 0.000000 0.013200 0.000000 0.000000
# 5 0.000000 0.000000 0.000000 0.000000 -0.019597 0.000000
# 6 0.000000 0.000000 0.000000 0.000000 0.000000 -0.066937
#
#
# Mechanical properties :
#
#
# Convention : Reuss Voigt Hill
#
# Bulk Modulus (GPa) = 62.10029 67.35672 64.72851
# Shear Modulus (GPa) = -108.36675 37.90322 -35.23177
#
# Velocity S-wave (km/s) = -6.37021 3.76742 -3.63223
# Velocity P-wave (km/s) = 5.55443 6.64435 2.57834
#
# Compressibility (1/GPa) = 0.01610298
#
# Stress axis : x y z
#
# Youngs Moduli (GPa) = 201.51366 103.11365 232.32874
#
# Poissons Ratio (x) = 0.03715 -0.10855
# Poissons Ratio (y) = 0.07260 0.35728
# Poissons Ratio (z) = -0.09415 0.15857
#
# Static dielectric constant tensor:
#      x y z
#    x 2.081240 0.000000 0.000000 
#    y 0.000000 2.220950 0.000000 
#    z 0.000000 0.000000 2.128510 
# 
# From -- ./inp_files/35999.got.cif
#   From: 2010.05.17/outbox.cif.g08.bks.cpg/sg66_18_cif.got.tgz:35999.got - 2010.06.03 17:51:23.
