data_PCOD9498669
_publ_section_title
;
Structure prediction by ZEFSAII (Michael W. Deem and Ramdas Pophale) SiO2 
 PCOD9498669
Probable space group: C C C M
;
_chemical_formula_sum "Si O2"
_cell_formula_units_Z 88
_cell_length_a 10.770963
_cell_length_b 14.192868
_cell_length_c 29.005244
_cell_angle_alpha 90.000000
_cell_angle_beta 90.000000
_cell_angle_gamma 90.000000
_cell_volume 4434.056481
_symmetry_space_group_name_H-M "C C C M"
_symmetry_group_IT_number 66
_symmetry_cell_setting 'orthorhombic'
loop_
_space_group_symop_operation_xyz
x,y,z
-x,-y,z
x,-y,1/2-z
-x,y,1/2-z
-x,-y,-z
x,y,-z
-x,y,1/2+z
x,-y,1/2+z
1/2+x,1/2+y,z
1/2-x,1/2-y,z
1/2+x,1/2-y,1/2-z
1/2-x,1/2+y,1/2-z
1/2-x,1/2-y,-z
1/2+x,1/2+y,-z
1/2-x,1/2+y,1/2+z
1/2+x,1/2-y,1/2+z
loop_
_atom_site_type_symbol
_atom_site_label
_atom_site_fract_x
_atom_site_fract_y
_atom_site_fract_z
Si Si1 0.847943 0.516260 0.000000
Si Si2 0.148580 0.112472 0.250725
Si Si3 0.750000 0.250000 0.827840
Si Si4 0.696084 0.649909 0.146719
Si Si5 0.161732 0.160239 0.500000
Si Si6 0.095719 0.585533 0.592357
Si Si7 0.464223 0.287164 0.596701
O O1 0.825607 0.573374 0.045987
O O2 0.000000 0.500000 0.000000
O O3 0.757915 0.426858 0.000000
O O4 0.223125 0.163439 0.292099
O O5 0.187651 0.150468 0.201152
O O6 0.000000 0.130727 0.250000
O O7 0.166884 0.000000 0.250000
O O8 0.636675 0.261537 0.863930
O O9 0.750000 0.750000 0.130787
O O10 0.803346 0.578629 0.132438
O O11 0.564601 0.643714 0.120996
O O12 0.250000 0.250000 0.500000
O O13 0.085855 0.169282 0.548446
O O14 0.000000 0.500000 0.596976
O O15 0.024426 0.684267 0.587684
#
# Coordination Sequence:
#
# PCOD9498669 Si02
#       7
#     8  16   8  16   8  16  16
#     4  10  22  39  62  93 135 169 211 280 321 387
#     4  11  24  42  65  94 131 175 221 274 338 397
#     4  12  24  41  72  94 134 171 230 274 338 396
#     4  10  22  43  65  93 132 173 217 275 332 398
#     4  12  22  39  64  97 132 170 225 266 333 401
#     4  10  22  41  66  92 130 171 221 270 333 389
#     4  11  24  40  67  97 129 177 219 273 331 404
#
# _framework density 19.846387
#
# number of rings (size 3 to 8) (size 9 to 14) (size 15 to 20)
#    0.000    1.273    3.636    2.727    2.545    0.727 
#    0.000    3.636    0.000    0.000    0.000    0.000 
#    0.000    0.000    0.000    0.000    0.000    0.000 
#
# Total GULP energy -245037.499992 kJ/mol
# GULP energy per Si atom -5569.034091 kJ/mol
# Density = 1.980122 g / cm^3
# Si number density = 19.846387 Si / 1000 Ang^3
#
#
#
# Elastic Constant Matrix: (Units=GPa)
#
#
# Indices 1 2 3 4 5 6 
#
# 1 104.0001 44.3448 75.2627 0.0000 0.0000 0.0000
# 2 44.3448 63.9472 47.3647 0.0000 0.0000 0.0000
# 3 75.2627 47.3647 170.0984 0.0000 0.0000 0.0000
# 4 0.0000 0.0000 0.0000 3.9167 0.0000 0.0000
# 5 0.0000 0.0000 0.0000 0.0000 44.2727 0.0000
# 6 0.0000 0.0000 0.0000 0.0000 0.0000 31.9335
#
#
#
# Elastic Compliance Matrix: (Units=1/GPa)
#
#
# Indices 1 2 3 4 5 6 
#
# 1 0.016688 -0.007689 -0.005243 0.000000 0.000000 0.000000
# 2 -0.007689 0.023244 -0.003070 0.000000 0.000000 0.000000
# 3 -0.005243 -0.003070 0.009054 0.000000 0.000000 0.000000
# 4 0.000000 0.000000 0.000000 0.255317 0.000000 0.000000
# 5 0.000000 0.000000 0.000000 0.000000 0.022587 0.000000
# 6 0.000000 0.000000 0.000000 0.000000 0.000000 0.031315
#
#
# Mechanical properties :
#
#
# Convention : Reuss Voigt Hill
#
# Bulk Modulus (GPa) = 58.88820 74.66556 66.77688
# Shear Modulus (GPa) = 12.63041 27.42949 20.02995
#
# Velocity S-wave (km/s) = 2.52545 3.72168 3.18031
# Velocity P-wave (km/s) = 6.18387 7.49475 6.87065
#
# Compressibility (1/GPa) = 0.01698133
#
# Stress axis : x y z
#
# Youngs Moduli (GPa) = 59.92285 43.02158 110.45300
#
# Poissons Ratio (x) = 0.33080 0.57908
# Poissons Ratio (y) = 0.46076 0.33911
# Poissons Ratio (z) = 0.31416 0.13208
#
# Static dielectric constant tensor:
#      x y z
#    x 1.697760 0.000000 0.000000 
#    y 0.000000 1.712490 0.000000 
#    z 0.000000 0.000000 1.673710 
# 
# From -- ./inp_files/56806.got.cif
#   From: 2010.05.17/outbox.cif.g08.bks.cpg/sg66_29_cif.got.tgz:56806.got - 2010.06.03 17:51:23.
