data_PCOD9498721
_publ_section_title
;
Structure prediction by ZEFSAII (Michael W. Deem and Ramdas Pophale) SiO2 
 PCOD9498721
Probable space group: C C C M
;
_chemical_formula_sum "Si O2"
_cell_formula_units_Z 116
_cell_length_a 11.737897
_cell_length_b 27.679486
_cell_length_c 15.175300
_cell_angle_alpha 90.000000
_cell_angle_beta 90.000000
_cell_angle_gamma 90.000000
_cell_volume 4930.439122
_symmetry_space_group_name_H-M "C C C M"
_symmetry_group_IT_number 66
_symmetry_cell_setting 'orthorhombic'
loop_
_space_group_symop_operation_xyz
x,y,z
-x,-y,z
x,-y,1/2-z
-x,y,1/2-z
-x,-y,-z
x,y,-z
-x,y,1/2+z
x,-y,1/2+z
1/2+x,1/2+y,z
1/2-x,1/2-y,z
1/2+x,1/2-y,1/2-z
1/2-x,1/2+y,1/2-z
1/2-x,1/2-y,-z
1/2+x,1/2+y,-z
1/2-x,1/2+y,1/2+z
1/2+x,1/2-y,1/2+z
loop_
_atom_site_type_symbol
_atom_site_label
_atom_site_fract_x
_atom_site_fract_y
_atom_site_fract_z
Si Si1 0.158886 0.091661 0.607131
Si Si2 0.239118 0.508983 0.607335
Si Si3 0.750000 0.750000 0.000000
Si Si4 0.867850 0.352083 0.104883
Si Si5 0.546183 0.074116 0.599977
Si Si6 0.879873 0.271210 0.219922
Si Si7 0.400330 0.598583 0.392611
Si Si8 0.294854 0.836912 0.635744
O O1 0.154667 0.087978 0.500000
O O2 0.237173 0.137223 0.628736
O O3 0.030036 0.096193 0.636561
O O4 0.219751 0.042878 0.639351
O O5 0.230520 0.507033 0.500000
O O6 0.118006 0.529865 0.639676
O O7 0.336329 0.548464 0.626283
O O8 0.718256 0.790424 0.075207
O O9 0.902494 0.297674 0.127524
O O10 0.940760 0.397416 0.141979
O O11 0.879336 0.356934 0.000000
O O12 0.513243 0.059653 0.500000
O O13 0.638393 0.117803 0.594876
O O14 0.750000 0.250000 0.221021
O O15 0.864949 0.318424 0.281450
O O16 0.000000 0.246295 0.250000
O O17 0.396052 0.606302 0.500000
O O18 0.330395 0.641723 0.348254
#
# Coordination Sequence:
#
# PCOD9498721 Si02
#       8
#    16  16   4  16  16  16  16  16
#     4   9  17  30  51  86 126 163 205 251 307 372
#     4   8  14  25  49  87 122 156 201 255 302 355
#     4  12  20  36  64 100 118 146 204 278 308 364
#     4  10  22  40  61  84 122 168 205 253 314 378
#     4   9  16  31  56  82 117 158 200 243 300 366
#     4  12  27  46  66  92 123 160 210 265 322 383
#     4   9  16  29  53  86 127 164 201 250 312 374
#     4  11  20  36  60  90 119 152 201 256 313 366
#
# _framework density 23.527315999999999
#
# number of rings (size 3 to 8) (size 9 to 14) (size 15 to 20)
#    0.000    2.207    3.448    1.241    0.000    3.586 
#    0.000    2.759    0.000    3.310    0.000    3.862 
#    0.000    0.000    0.000    0.000    0.000    0.000 
#
# Total GULP energy -323024.050003 kJ/mol
# GULP energy per Si atom -5569.380172 kJ/mol
# Density = 2.347377 g / cm^3
# Si number density = 23.527316 Si / 1000 Ang^3
#
#
#
# Elastic Constant Matrix: (Units=GPa)
#
#
# Indices 1 2 3 4 5 6 
#
# 1 176.5889 32.1602 2.7076 0.0000 0.0000 0.0000
# 2 32.1602 37.7981 6.4236 0.0000 0.0000 0.0000
# 3 2.7076 6.4236 26.2920 0.0000 0.0000 0.0000
# 4 0.0000 0.0000 0.0000 25.4377 0.0000 0.0000
# 5 0.0000 0.0000 0.0000 0.0000 18.2856 0.0000
# 6 0.0000 0.0000 0.0000 0.0000 0.0000 32.9561
#
#
#
# Elastic Compliance Matrix: (Units=1/GPa)
#
#
# Indices 1 2 3 4 5 6 
#
# 1 0.006715 -0.005838 0.000735 0.000000 0.000000 0.000000
# 2 -0.005838 0.032678 -0.007383 0.000000 0.000000 0.000000
# 3 0.000735 -0.007383 0.039762 0.000000 0.000000 0.000000
# 4 0.000000 0.000000 0.000000 0.039312 0.000000 0.000000
# 5 0.000000 0.000000 0.000000 0.000000 0.054688 0.000000
# 6 0.000000 0.000000 0.000000 0.000000 0.000000 0.030343
#
#
# Mechanical properties :
#
#
# Convention : Reuss Voigt Hill
#
# Bulk Modulus (GPa) = 18.45572 35.91798 27.18685
# Shear Modulus (GPa) = 20.28135 28.62838 24.45486
#
# Velocity S-wave (km/s) = 2.93923 3.49207 3.22751
# Velocity P-wave (km/s) = 4.40229 5.61774 5.04674
#
# Compressibility (1/GPa) = 0.05418373
#
# Stress axis : x y z
#
# Youngs Moduli (GPa) = 148.92376 30.60127 25.14933
#
# Poissons Ratio (x) = 0.17866 -0.01848
# Poissons Ratio (y) = 0.86944 0.18567
# Poissons Ratio (z) = -0.10944 0.22592
#
# Static dielectric constant tensor:
#      x y z
#    x 1.945870 0.000000 0.000000 
#    y 0.000000 1.836740 0.000000 
#    z 0.000000 0.000000 2.070910 
# 
# From -- ./inp_files/39212.got.cif
#   From: 2010.05.17/outbox.cif.g08.bks.cpg/sg66_20_cif.got.tgz:39212.got - 2010.06.03 17:51:23.
