data_PCOD9498148
_publ_section_title
;
Structure prediction by ZEFSAII (Michael W. Deem and Ramdas Pophale) SiO2 
 PCOD9498148
Probable space group: C C C M
;
_chemical_formula_sum "Si O2"
_cell_formula_units_Z 116
_cell_length_a 26.787927
_cell_length_b 22.228466
_cell_length_c 8.882582
_cell_angle_alpha 90.000000
_cell_angle_beta 90.000000
_cell_angle_gamma 90.000000
_cell_volume 5289.173641
_symmetry_space_group_name_H-M "C C C M"
_symmetry_group_IT_number 66
_symmetry_cell_setting 'orthorhombic'
loop_
_space_group_symop_operation_xyz
x,y,z
-x,-y,z
x,-y,1/2-z
-x,y,1/2-z
-x,-y,-z
x,y,-z
-x,y,1/2+z
x,-y,1/2+z
1/2+x,1/2+y,z
1/2-x,1/2-y,z
1/2+x,1/2-y,1/2-z
1/2-x,1/2+y,1/2-z
1/2-x,1/2-y,-z
1/2+x,1/2+y,-z
1/2-x,1/2+y,1/2+z
1/2+x,1/2-y,1/2+z
loop_
_atom_site_type_symbol
_atom_site_label
_atom_site_fract_x
_atom_site_fract_y
_atom_site_fract_z
Si Si1 0.278524 0.939457 0.678389
Si Si2 0.674503 0.593333 0.671216
Si Si3 0.641800 0.139748 0.829002
Si Si4 0.159312 0.771577 0.741967
Si Si5 0.073634 0.061476 0.178497
Si Si6 0.555471 0.934762 0.816617
Si Si7 0.750000 0.750000 0.000000
Si Si8 0.952975 0.808126 0.172762
O O1 0.271981 0.943945 0.500000
O O2 0.226807 0.927215 0.761868
O O3 0.315287 0.886254 0.721812
O O4 0.300318 0.000000 0.750000
O O5 0.667605 0.572190 0.500000
O O6 0.671298 0.665782 0.675461
O O7 0.631722 0.567791 0.778469
O O8 0.650943 0.210709 0.833555
O O9 0.591137 0.116733 0.750789
O O10 0.644891 0.115731 0.000000
O O11 0.205731 0.761240 0.629207
O O12 0.102969 0.781824 0.677256
O O13 0.052093 0.124363 0.240103
O O14 0.054823 0.000000 0.250000
O O15 0.067280 0.059499 0.000000
O O16 0.500000 0.925928 0.750000
O O17 0.572053 0.000000 0.750000
O O18 0.555795 0.935695 0.000000
O O19 0.000000 0.775806 0.250000
O O20 0.967073 0.813784 0.000000
#
# Coordination Sequence:
#
# PCOD9498148 Si02
#       8
#    16  16  16  16  16  16   4  16
#     4  12  26  43  65  93 129 173 220 278 347 413
#     4  11  23  41  65  95 134 178 230 281 345 417
#     4  12  26  44  66  98 138 174 228 286 348 425
#     4  11  26  43  73 101 138 185 237 288 362 416
#     4  10  21  38  62  95 134 181 235 288 350 414
#     4  11  23  43  71 101 137 184 235 289 358 427
#     4  12  24  44  74  96 140 172 238 298 340 430
#     4  10  23  43  67  98 138 181 237 290 354 425
#
# _framework density 21.931592999999999
#
# number of rings (size 3 to 8) (size 9 to 14) (size 15 to 20)
#    0.000    0.966    0.690    6.207    5.793    4.138 
#    0.000    3.448    0.000    0.000    0.000    0.000 
#    0.000    0.000    0.000    0.000    0.000    0.000 
#
# Total GULP energy -323529.624296 kJ/mol
# GULP energy per Si atom -5578.096971 kJ/mol
# Density = 2.188168 g / cm^3
# Si number density = 21.931593 Si / 1000 Ang^3
#
#
#
# Elastic Constant Matrix: (Units=GPa)
#
#
# Indices 1 2 3 4 5 6 
#
# 1 130.0857 3.7548 5.3694 0.0000 0.0000 0.0000
# 2 3.7548 84.8290 3.2665 0.0000 0.0000 0.0000
# 3 5.3694 3.2665 93.7005 0.0000 0.0000 0.0000
# 4 0.0000 0.0000 0.0000 3.8626 0.0000 0.0000
# 5 0.0000 0.0000 0.0000 0.0000 5.8072 0.0000
# 6 0.0000 0.0000 0.0000 0.0000 0.0000 7.7441
#
#
#
# Elastic Compliance Matrix: (Units=1/GPa)
#
#
# Indices 1 2 3 4 5 6 
#
# 1 0.007714 -0.000325 -0.000431 0.000000 0.000000 0.000000
# 2 -0.000325 0.011818 -0.000393 0.000000 0.000000 0.000000
# 3 -0.000431 -0.000393 0.010711 0.000000 0.000000 0.000000
# 4 0.000000 0.000000 0.000000 0.258895 0.000000 0.000000
# 5 0.000000 0.000000 0.000000 0.000000 0.172199 0.000000
# 6 0.000000 0.000000 0.000000 0.000000 0.000000 0.129131
#
#
# Mechanical properties :
#
#
# Convention : Reuss Voigt Hill
#
# Bulk Modulus (GPa) = 35.78450 37.04409 36.41430
# Shear Modulus (GPa) = 8.30452 23.23107 15.76780
#
# Velocity S-wave (km/s) = 1.94802 3.25815 2.68424
# Velocity P-wave (km/s) = 4.62726 5.57507 5.12313
#
# Compressibility (1/GPa) = 0.02794506
#
# Stress axis : x y z
#
# Youngs Moduli (GPa) = 129.62775 84.61704 93.36463
#
# Poissons Ratio (x) = 0.02749 0.04022
# Poissons Ratio (y) = 0.04211 0.03673
# Poissons Ratio (z) = 0.05584 0.03329
#
# Static dielectric constant tensor:
#      x y z
#    x 1.811660 0.000000 0.000000 
#    y 0.000000 1.830040 0.000000 
#    z 0.000000 0.000000 1.748100 
# 
# From -- ./inp_files/10604.got.cif
#   From: 2010.05.17/outbox.cif.g08.bks.cpg/sg66_6_cif.got.tgz:10604.got - 2010.06.03 17:51:23.
