data_PCOD9498726
_publ_section_title
;
Structure prediction by ZEFSAII (Michael W. Deem and Ramdas Pophale) SiO2 
 PCOD9498726
Probable space group: C C C M
;
_chemical_formula_sum "Si O2"
_cell_formula_units_Z 88
_cell_length_a 27.512322
_cell_length_b 10.794214
_cell_length_c 14.764383
_cell_angle_alpha 90.000000
_cell_angle_beta 90.000000
_cell_angle_gamma 90.000000
_cell_volume 4384.636272
_symmetry_space_group_name_H-M "C C C M"
_symmetry_group_IT_number 66
_symmetry_cell_setting 'orthorhombic'
loop_
_space_group_symop_operation_xyz
x,y,z
-x,-y,z
x,-y,1/2-z
-x,y,1/2-z
-x,-y,-z
x,y,-z
-x,y,1/2+z
x,-y,1/2+z
1/2+x,1/2+y,z
1/2-x,1/2-y,z
1/2+x,1/2-y,1/2-z
1/2-x,1/2+y,1/2-z
1/2-x,1/2-y,-z
1/2+x,1/2+y,-z
1/2-x,1/2+y,1/2+z
1/2+x,1/2-y,1/2+z
loop_
_atom_site_type_symbol
_atom_site_label
_atom_site_fract_x
_atom_site_fract_y
_atom_site_fract_z
Si Si1 0.619400 0.623436 0.709136
Si Si2 0.694542 0.208791 0.000000
Si Si3 0.964907 0.116065 0.500000
Si Si4 0.150524 0.385226 0.683086
Si Si5 0.885428 0.923010 0.500000
Si Si6 0.558240 0.001225 0.607112
Si Si7 0.041574 0.749125 0.319374
O O1 0.643392 0.500000 0.750000
O O2 0.652334 0.745697 0.721486
O O3 0.601721 0.612010 0.604778
O O4 0.572728 0.646722 0.771101
O O5 0.750000 0.250000 0.000000
O O6 0.680048 0.128150 0.088782
O O7 0.664821 0.340410 0.000000
O O8 0.977520 0.197029 0.412998
O O9 0.909207 0.063417 0.500000
O O10 0.000000 0.000000 0.500000
O O11 0.163357 0.500000 0.750000
O O12 0.093636 0.403331 0.653469
O O13 0.565960 0.995032 0.500000
O O14 0.573401 0.132302 0.649464
O O15 0.500000 0.000000 0.621547
O O16 0.000000 0.711253 0.250000
#
# Coordination Sequence:
#
# PCOD9498726 Si02
#       7
#    16   8   8  16   8  16  16
#     4  11  22  37  59  89 125 169 220 264 332 390
#     4  10  24  47  72 103 135 173 225 298 363 413
#     4  12  24  37  54  86 131 178 230 267 323 404
#     4  11  22  41  70 101 132 176 225 281 342 413
#     4  10  22  40  62  87 122 167 207 268 332 404
#     4  11  23  39  58  92 135 185 230 276 329 400
#     4  12  24  36  53  84 130 180 227 273 321 381
#
# _framework density 20.070079
#
# number of rings (size 3 to 8) (size 9 to 14) (size 15 to 20)
#    0.000    0.909    5.455    2.182    0.000    1.455 
#    0.000    4.545    0.000    0.000    0.000    7.000 
#    0.000    0.000    0.000    0.000    0.000    0.000 
#
# Total GULP energy -245000.685944 kJ/mol
# GULP energy per Si atom -5568.197408 kJ/mol
# Density = 2.002440 g / cm^3
# Si number density = 20.070079 Si / 1000 Ang^3
#
#
#
# Elastic Constant Matrix: (Units=GPa)
#
#
# Indices 1 2 3 4 5 6 
#
# 1 56.5458 16.0474 30.6615 0.0000 0.0000 0.0000
# 2 16.0474 127.6319 50.7720 0.0000 0.0000 0.0000
# 3 30.6615 50.7720 159.2168 0.0000 0.0000 0.0000
# 4 0.0000 0.0000 0.0000 31.4622 0.0000 0.0000
# 5 0.0000 0.0000 0.0000 0.0000 8.7037 0.0000
# 6 0.0000 0.0000 0.0000 0.0000 0.0000 17.0457
#
#
#
# Elastic Compliance Matrix: (Units=1/GPa)
#
#
# Indices 1 2 3 4 5 6 
#
# 1 0.019885 -0.001119 -0.003473 0.000000 0.000000 0.000000
# 2 -0.001119 0.009036 -0.002666 0.000000 0.000000 0.000000
# 3 -0.003473 -0.002666 0.007800 0.000000 0.000000 0.000000
# 4 0.000000 0.000000 0.000000 0.031784 0.000000 0.000000
# 5 0.000000 0.000000 0.000000 0.000000 0.114894 0.000000
# 6 0.000000 0.000000 0.000000 0.000000 0.000000 0.058666
#
#
# Mechanical properties :
#
#
# Convention : Reuss Voigt Hill
#
# Bulk Modulus (GPa) = 45.03258 59.81737 52.42498
# Shear Modulus (GPa) = 18.94068 27.83656 23.38862
#
# Velocity S-wave (km/s) = 3.07535 3.72824 3.41742
# Velocity P-wave (km/s) = 5.92425 6.95716 6.46138
#
# Compressibility (1/GPa) = 0.02220615
#
# Stress axis : x y z
#
# Youngs Moduli (GPa) = 50.28838 110.66516 128.21036
#
# Poissons Ratio (x) = 0.12381 0.44523
# Poissons Ratio (y) = 0.05626 0.34182
# Poissons Ratio (z) = 0.17464 0.29504
#
# Static dielectric constant tensor:
#      x y z
#    x 1.710520 0.000000 0.000000 
#    y 0.000000 1.805370 0.000000 
#    z 0.000000 0.000000 1.586960 
# 
# From -- ./inp_files/33719.got.cif
#   From: 2010.05.17/outbox.cif.g08.bks.cpg/sg66_17_cif.got.tgz:33719.got - 2010.06.03 17:51:23.
