data_PCOD9498248
_publ_section_title
;
Structure prediction by ZEFSAII (Michael W. Deem and Ramdas Pophale) SiO2 
 PCOD9498248
Probable space group: C C C M
;
_chemical_formula_sum "Si O2"
_cell_formula_units_Z 48
_cell_length_a 5.226174
_cell_length_b 28.468656
_cell_length_c 14.174355
_cell_angle_alpha 90.000000
_cell_angle_beta 90.000000
_cell_angle_gamma 90.000000
_cell_volume 2108.891009
_symmetry_space_group_name_H-M "C C C M"
_symmetry_group_IT_number 66
_symmetry_cell_setting 'orthorhombic'
loop_
_space_group_symop_operation_xyz
x,y,z
-x,-y,z
x,-y,1/2-z
-x,y,1/2-z
-x,-y,-z
x,y,-z
-x,y,1/2+z
x,-y,1/2+z
1/2+x,1/2+y,z
1/2-x,1/2-y,z
1/2+x,1/2-y,1/2-z
1/2-x,1/2+y,1/2-z
1/2-x,1/2-y,-z
1/2+x,1/2+y,-z
1/2-x,1/2+y,1/2+z
1/2+x,1/2-y,1/2+z
loop_
_atom_site_type_symbol
_atom_site_label
_atom_site_fract_x
_atom_site_fract_y
_atom_site_fract_z
Si Si1 0.435235 0.635986 0.500000
Si Si2 0.504555 0.280197 0.362042
Si Si3 0.240891 0.552416 0.206553
Si Si4 0.080230 0.425719 0.500000
O O1 0.439574 0.670122 0.410468
O O2 0.720994 0.616350 0.500000
O O3 0.209788 0.595859 0.500000
O O4 0.500000 0.286403 0.250000
O O5 0.250000 0.250000 0.388397
O O6 0.750000 0.250000 0.387969
O O7 0.244906 0.500000 0.250000
O O8 0.500000 0.573719 0.250000
O O9 0.172263 0.548124 0.095912
O O10 0.000000 0.579356 0.250000
#
# Coordination Sequence:
#
# PCOD9498248 Si02
#       4
#     8  16  16   8
#     4  12  24  39  63  94 136 168 206 274 332 379
#     4  10  21  39  63  90 124 173 223 259 307 385
#     4  10  23  43  68  92 123 168 218 272 326 399
#     4  12  26  41  63 100 132 168 216 274 340 387
#
# _framework density 22.760777000000001
#
# number of rings (size 3 to 8) (size 9 to 14) (size 15 to 20)
#    0.000    1.333    0.000    5.000    0.000    9.333 
#    0.000    0.000    0.000    0.000    0.000    0.000 
#    0.000    0.000    0.000    0.000    0.000    0.000 
#
# Total GULP energy -133732.557684 kJ/mol
# GULP energy per Si atom -5572.189904 kJ/mol
# Density = 2.270897 g / cm^3
# Si number density = 22.760777 Si / 1000 Ang^3
#
#
#
# Elastic Constant Matrix: (Units=GPa)
#
#
# Indices 1 2 3 4 5 6 
#
# 1 182.2831 -7.7099 23.6508 0.0000 0.0000 0.0000
# 2 -7.7099 42.0705 15.1272 0.0000 0.0000 0.0000
# 3 23.6508 15.1272 184.2756 0.0000 0.0000 0.0000
# 4 0.0000 0.0000 0.0000 102.0425 0.0000 0.0000
# 5 0.0000 0.0000 0.0000 0.0000 -82.8505 0.0000
# 6 0.0000 0.0000 0.0000 0.0000 0.0000 20.5446
#
#
#
# Elastic Compliance Matrix: (Units=1/GPa)
#
#
# Indices 1 2 3 4 5 6 
#
# 1 0.005651 0.001336 -0.000835 0.000000 0.000000 0.000000
# 2 0.001336 0.024808 -0.002208 0.000000 0.000000 0.000000
# 3 -0.000835 -0.002208 0.005715 0.000000 0.000000 0.000000
# 4 0.000000 0.000000 0.000000 0.009800 0.000000 0.000000
# 5 0.000000 0.000000 0.000000 0.000000 -0.012070 0.000000
# 6 0.000000 0.000000 0.000000 0.000000 0.000000 0.048675
#
#
# Mechanical properties :
#
#
# Convention : Reuss Voigt Hill
#
# Bulk Modulus (GPa) = 30.52502 52.30726 41.41614
# Shear Modulus (GPa) = 51.59274 33.11807 42.35541
#
# Velocity S-wave (km/s) = 4.76619 3.81865 4.31849
# Velocity P-wave (km/s) = 6.61280 6.51721 6.56518
#
# Compressibility (1/GPa) = 0.03276001
#
# Stress axis : x y z
#
# Youngs Moduli (GPa) = 176.96617 40.30908 174.97628
#
# Poissons Ratio (x) = -0.05384 0.14609
# Poissons Ratio (y) = -0.23639 0.38634
# Poissons Ratio (z) = 0.14775 0.08900
#
# Static dielectric constant tensor:
#      x y z
#    x 1.985090 0.000000 0.000000 
#    y 0.000000 2.088870 0.000000 
#    z 0.000000 0.000000 2.341970 
# 
# From -- ./inp_files/22320.got.cif
#   From: 2010.05.17/outbox.cif.g08.bks.cpg/sg66_12_cif.got.tgz:22320.got - 2010.06.03 17:51:23.
