data_PCOD9498657
_publ_section_title
;
Structure prediction by ZEFSAII (Michael W. Deem and Ramdas Pophale) SiO2 
 PCOD9498657
Probable space group: C C C M
;
_chemical_formula_sum "Si O2"
_cell_formula_units_Z 80
_cell_length_a 10.151893
_cell_length_b 11.495983
_cell_length_c 33.290425
_cell_angle_alpha 90.000000
_cell_angle_beta 90.000000
_cell_angle_gamma 90.000000
_cell_volume 3885.191985
_symmetry_space_group_name_H-M "C C C M"
_symmetry_group_IT_number 66
_symmetry_cell_setting 'orthorhombic'
loop_
_space_group_symop_operation_xyz
x,y,z
-x,-y,z
x,-y,1/2-z
-x,y,1/2-z
-x,-y,-z
x,y,-z
-x,y,1/2+z
x,-y,1/2+z
1/2+x,1/2+y,z
1/2-x,1/2-y,z
1/2+x,1/2-y,1/2-z
1/2-x,1/2+y,1/2-z
1/2-x,1/2-y,-z
1/2+x,1/2+y,-z
1/2-x,1/2+y,1/2+z
1/2+x,1/2-y,1/2+z
loop_
_atom_site_type_symbol
_atom_site_label
_atom_site_fract_x
_atom_site_fract_y
_atom_site_fract_z
Si Si1 0.053119 0.375486 0.595674
Si Si2 0.727095 0.500000 0.750000
Si Si3 0.500000 0.312178 0.250000
Si Si4 0.071464 0.179834 0.954250
Si Si5 0.788969 0.052878 0.045327
Si Si6 0.868213 0.342892 0.813695
O O1 0.955424 0.278713 0.578194
O O2 0.195822 0.376490 0.574776
O O3 0.073132 0.372054 0.643259
O O4 0.000000 0.500000 0.583087
O O5 0.626609 0.606598 0.758953
O O6 0.813907 0.451692 0.787217
O O7 0.528518 0.228209 0.212956
O O8 0.180656 0.082146 0.944186
O O9 0.931625 0.112811 0.955483
O O10 0.095264 0.222808 0.000000
O O11 0.734201 0.057136 0.000000
O O12 0.750000 0.250000 0.819903
#
# Coordination Sequence:
#
# PCOD9498657 Si02
#       6
#    16   8   8  16  16  16
#     4  12  25  35  52  89 124 156 188 236 298 356
#     4   9  20  39  62  86 110 145 192 239 296 360
#     4   9  20  39  62  86 110 145 192 239 296 360
#     4   9  19  38  62  83 110 156 207 249 288 338
#     4   9  19  38  62  83 110 156 207 249 288 338
#     4  10  22  39  61  84 110 149 190 235 288 344
#
# _framework density 20.591004000000002
#
# number of rings (size 3 to 8) (size 9 to 14) (size 15 to 20)
#    0.000    2.200    0.000    3.600    2.800    5.600 
#    0.000    6.000    0.000    0.000    0.000    0.000 
#    0.000    0.000    0.000    0.000    0.000    0.000 
#
# Total GULP energy -223308.429765 kJ/mol
# GULP energy per Si atom -5582.710744 kJ/mol
# Density = 2.054414 g / cm^3
# Si number density = 20.591004 Si / 1000 Ang^3
#
#
#
# Elastic Constant Matrix: (Units=GPa)
#
#
# Indices 1 2 3 4 5 6 
#
# 1 51.8161 23.8212 34.6114 0.0000 0.0000 0.0000
# 2 23.8212 107.9072 65.3815 0.0000 0.0000 0.0000
# 3 34.6114 65.3815 108.4348 0.0000 0.0000 0.0000
# 4 0.0000 0.0000 0.0000 33.0294 0.0000 0.0000
# 5 0.0000 0.0000 0.0000 0.0000 -9.2193 0.0000
# 6 0.0000 0.0000 0.0000 0.0000 0.0000 12.3473
#
#
#
# Elastic Compliance Matrix: (Units=1/GPa)
#
#
# Indices 1 2 3 4 5 6 
#
# 1 0.024606 -0.001061 -0.007214 0.000000 0.000000 0.000000
# 2 -0.001061 0.014647 -0.008493 0.000000 0.000000 0.000000
# 3 -0.007214 -0.008493 0.016646 0.000000 0.000000 0.000000
# 4 0.000000 0.000000 0.000000 0.030276 0.000000 0.000000
# 5 0.000000 0.000000 0.000000 0.000000 -0.108469 0.000000
# 6 0.000000 0.000000 0.000000 0.000000 0.000000 0.080989
#
#
# Mechanical properties :
#
#
# Convention : Reuss Voigt Hill
#
# Bulk Modulus (GPa) = 44.71768 57.30958 51.01363
# Shear Modulus (GPa) = 50.15731 16.85443 33.50587
#
# Velocity S-wave (km/s) = 4.94082 2.86411 4.03824
# Velocity P-wave (km/s) = 7.36975 6.23139 6.82435
#
# Compressibility (1/GPa) = 0.02236252
#
# Stress axis : x y z
#
# Youngs Moduli (GPa) = 40.64123 68.27126 60.07473
#
# Poissons Ratio (x) = 0.07241 0.43340
# Poissons Ratio (y) = 0.04310 0.51023
# Poissons Ratio (z) = 0.29320 0.57984
#
# Static dielectric constant tensor:
#      x y z
#    x 1.827540 0.000000 0.000000 
#    y 0.000000 1.763680 0.000000 
#    z 0.000000 0.000000 1.695880 
# 
# From -- ./inp_files/68792.got.cif
#   From: 2010.05.17/outbox.cif.g08.bks.cpg/sg66_35_cif.got.tgz:68792.got - 2010.06.03 17:51:23.
