data_PCOD9498542
_publ_section_title
;
Structure prediction by ZEFSAII (Michael W. Deem and Ramdas Pophale) SiO2 
 PCOD9498542
Probable space group: C C C M
;
_chemical_formula_sum "Si O2"
_cell_formula_units_Z 80
_cell_length_a 16.576378
_cell_length_b 12.516804
_cell_length_c 20.638113
_cell_angle_alpha 90.000000
_cell_angle_beta 90.000000
_cell_angle_gamma 90.000000
_cell_volume 4282.063264
_symmetry_space_group_name_H-M "C C C M"
_symmetry_group_IT_number 66
_symmetry_cell_setting 'orthorhombic'
loop_
_space_group_symop_operation_xyz
x,y,z
-x,-y,z
x,-y,1/2-z
-x,y,1/2-z
-x,-y,-z
x,y,-z
-x,y,1/2+z
x,-y,1/2+z
1/2+x,1/2+y,z
1/2-x,1/2-y,z
1/2+x,1/2-y,1/2-z
1/2-x,1/2+y,1/2-z
1/2-x,1/2-y,-z
1/2+x,1/2+y,-z
1/2-x,1/2+y,1/2+z
1/2+x,1/2-y,1/2+z
loop_
_atom_site_type_symbol
_atom_site_label
_atom_site_fract_x
_atom_site_fract_y
_atom_site_fract_z
Si Si1 0.872605 0.450175 0.576949
Si Si2 0.515400 0.615776 0.354850
Si Si3 0.687715 0.106019 0.713816
Si Si4 0.128117 0.835702 0.737213
Si Si5 0.953737 0.334121 0.075110
O O1 0.847398 0.444304 0.500000
O O2 0.820094 0.402884 0.635618
O O3 0.957808 0.387651 0.581114
O O4 0.891012 0.573758 0.595619
O O5 0.500000 0.500000 0.386501
O O6 0.429331 0.644885 0.323770
O O7 0.580837 0.610014 0.296723
O O8 0.545227 0.718002 0.394079
O O9 0.781783 0.121891 0.729819
O O10 0.638487 0.207469 0.741062
O O11 0.658289 0.000000 0.750000
O O12 0.937519 0.319230 0.000000
#
# Coordination Sequence:
#
# PCOD9498542 Si02
#       5
#    16  16  16  16  16
#     4   9  18  35  57  82 116 145 179 240 294 337
#     4  11  20  36  54  76 111 153 184 231 277 344
#     4  11  20  35  56  83 110 146 187 239 284 345
#     4  10  22  35  51  79 112 143 190 229 287 330
#     4   9  18  34  56  83 110 143 187 232 284 338
#
# _framework density 18.682582
#
# number of rings (size 3 to 8) (size 9 to 14) (size 15 to 20)
#    0.000    2.000    2.000    4.800    0.000    0.400 
#    0.000    3.000    0.000    3.600    0.000   14.000 
#    0.000    0.000    0.000    0.000    0.000    0.000 
#
# Total GULP energy -222814.066624 kJ/mol
# GULP energy per Si atom -5570.351666 kJ/mol
# Density = 1.864006 g / cm^3
# Si number density = 18.682582 Si / 1000 Ang^3
#
#
#
# Elastic Constant Matrix: (Units=GPa)
#
#
# Indices 1 2 3 4 5 6 
#
# 1 28.9087 7.3642 -8.7778 0.0000 0.0000 0.0000
# 2 7.3642 123.4505 26.2019 0.0000 0.0000 0.0000
# 3 -8.7778 26.2019 41.0401 0.0000 0.0000 0.0000
# 4 0.0000 0.0000 0.0000 20.2475 0.0000 0.0000
# 5 0.0000 0.0000 0.0000 0.0000 7.3863 0.0000
# 6 0.0000 0.0000 0.0000 0.0000 0.0000 12.1229
#
#
#
# Elastic Compliance Matrix: (Units=1/GPa)
#
#
# Indices 1 2 3 4 5 6 
#
# 1 0.039284 -0.004774 0.011450 0.000000 0.000000 0.000000
# 2 -0.004774 0.009950 -0.007374 0.000000 0.000000 0.000000
# 3 0.011450 -0.007374 0.031523 0.000000 0.000000 0.000000
# 4 0.000000 0.000000 0.000000 0.049389 0.000000 0.000000
# 5 0.000000 0.000000 0.000000 0.000000 0.135385 0.000000
# 6 0.000000 0.000000 0.000000 0.000000 0.000000 0.082488
#
#
# Mechanical properties :
#
#
# Convention : Reuss Voigt Hill
#
# Bulk Modulus (GPa) = 12.60034 26.99732 19.79883
# Shear Modulus (GPa) = 13.30251 19.19208 16.24730
#
# Velocity S-wave (km/s) = 2.67128 3.20858 2.95218
# Velocity P-wave (km/s) = 4.03403 5.31118 4.71603
#
# Compressibility (1/GPa) = 0.07936294
#
# Stress axis : x y z
#
# Youngs Moduli (GPa) = 25.45540 100.50043 31.72285
#
# Poissons Ratio (x) = 0.47975 -0.36323
# Poissons Ratio (y) = 0.12152 0.23391
# Poissons Ratio (z) = -0.29146 0.74106
#
# Static dielectric constant tensor:
#      x y z
#    x 1.621170 0.000000 0.000000 
#    y 0.000000 1.737730 0.000000 
#    z 0.000000 0.000000 1.658490 
# 
# From -- ./inp_files/56629.got.cif
#   From: 2010.05.17/outbox.cif.g08.bks.cpg/sg66_29_cif.got.tgz:56629.got - 2010.06.03 17:51:23.
