data_PCOD9498103
_publ_section_title
;
Structure prediction by ZEFSAII (Michael W. Deem and Ramdas Pophale) SiO2 
 PCOD9498103
Probable space group: C C C M
;
_chemical_formula_sum "Si O2"
_cell_formula_units_Z 56
_cell_length_a 5.053632
_cell_length_b 18.975544
_cell_length_c 26.984256
_cell_angle_alpha 90.000000
_cell_angle_beta 90.000000
_cell_angle_gamma 90.000000
_cell_volume 2587.666465
_symmetry_space_group_name_H-M "C C C M"
_symmetry_group_IT_number 66
_symmetry_cell_setting 'orthorhombic'
loop_
_space_group_symop_operation_xyz
x,y,z
-x,-y,z
x,-y,1/2-z
-x,y,1/2-z
-x,-y,-z
x,y,-z
-x,y,1/2+z
x,-y,1/2+z
1/2+x,1/2+y,z
1/2-x,1/2-y,z
1/2+x,1/2-y,1/2-z
1/2-x,1/2+y,1/2-z
1/2-x,1/2-y,-z
1/2+x,1/2+y,-z
1/2-x,1/2+y,1/2+z
1/2+x,1/2-y,1/2+z
loop_
_atom_site_type_symbol
_atom_site_label
_atom_site_fract_x
_atom_site_fract_y
_atom_site_fract_z
Si Si1 0.098603 0.825331 0.303913
Si Si2 0.638374 0.425758 0.611393
Si Si3 0.618227 0.867926 0.558695
Si Si4 0.250000 0.250000 0.378618
O O1 0.250000 0.750000 0.298969
O O2 0.224632 0.886710 0.337230
O O3 0.000000 0.847171 0.250000
O O4 0.858396 0.806389 0.339955
O O5 0.500000 0.500000 0.622934
O O6 0.412398 0.387346 0.577809
O O7 0.901834 0.422893 0.578354
O O8 0.612794 0.862244 0.500000
O O9 0.555340 0.792837 0.585402
#
# Coordination Sequence:
#
# PCOD9498103 Si02
#       4
#    16  16  16   8
#     4  11  21  39  66  91 123 164 213 262 324 382
#     4  11  25  42  62  94 132 167 211 265 321 387
#     4  11  23  40  65  92 128 171 215 263 318 381
#     4  10  21  38  60  96 128 160 211 272 320 374
#
# _framework density 21.641119
#
# number of rings (size 3 to 8) (size 9 to 14) (size 15 to 20)
#    0.000    1.143    4.286    2.143    0.000    4.000 
#    0.000    4.286    0.000    3.429    0.000    0.000 
#    0.000    0.000    0.000    0.000    0.000    0.000 
#
# Total GULP energy -155987.046554 kJ/mol
# GULP energy per Si atom -5570.965948 kJ/mol
# Density = 2.159186 g / cm^3
# Si number density = 21.641119 Si / 1000 Ang^3
#
#
#
# Elastic Constant Matrix: (Units=GPa)
#
#
# Indices 1 2 3 4 5 6 
#
# 1 79.0129 5.6587 38.0651 0.0000 0.0000 0.0000
# 2 5.6587 66.3487 52.2584 0.0000 0.0000 0.0000
# 3 38.0651 52.2584 217.6768 0.0000 0.0000 0.0000
# 4 0.0000 0.0000 0.0000 10.7413 0.0000 0.0000
# 5 0.0000 0.0000 0.0000 0.0000 -79.1760 0.0000
# 6 0.0000 0.0000 0.0000 0.0000 0.0000 41.2699
#
#
#
# Elastic Compliance Matrix: (Units=1/GPa)
#
#
# Indices 1 2 3 4 5 6 
#
# 1 0.013864 0.000897 -0.002640 0.000000 0.000000 0.000000
# 2 0.000897 0.018644 -0.004633 0.000000 0.000000 0.000000
# 3 -0.002640 -0.004633 0.006168 0.000000 0.000000 0.000000
# 4 0.000000 0.000000 0.000000 0.093098 0.000000 0.000000
# 5 0.000000 0.000000 0.000000 0.000000 -0.012630 0.000000
# 6 0.000000 0.000000 0.000000 0.000000 0.000000 0.024231
#
#
# Mechanical properties :
#
#
# Convention : Reuss Voigt Hill
#
# Bulk Modulus (GPa) = 38.57397 61.66695 50.12046
# Shear Modulus (GPa) = 30.34575 12.37078 21.35826
#
# Velocity S-wave (km/s) = 3.74869 2.39348 3.14495
# Velocity P-wave (km/s) = 6.04980 6.01627 6.03305
#
# Compressibility (1/GPa) = 0.02592422
#
# Stress axis : x y z
#
# Youngs Moduli (GPa) = 72.13139 53.63548 162.13330
#
# Poissons Ratio (x) = -0.04809 0.42796
# Poissons Ratio (y) = -0.06468 0.75113
# Poissons Ratio (z) = 0.19040 0.24848
#
# Static dielectric constant tensor:
#      x y z
#    x 1.877530 0.000000 0.000000 
#    y 0.000000 1.984120 0.000000 
#    z 0.000000 0.000000 1.719660 
# 
# From -- ./inp_files/53877.got.cif
#   From: 2010.05.17/outbox.cif.g08.bks.cpg/sg66_27_cif.got.tgz:53877.got - 2010.06.03 17:51:23.
