data_PCOD9498597
_publ_section_title
;
Structure prediction by ZEFSAII (Michael W. Deem and Ramdas Pophale) SiO2 
 PCOD9498597
Probable space group: C C C M
;
_chemical_formula_sum "Si O2"
_cell_formula_units_Z 80
_cell_length_a 11.809176
_cell_length_b 10.973332
_cell_length_c 29.316897
_cell_angle_alpha 90.000000
_cell_angle_beta 90.000000
_cell_angle_gamma 90.000000
_cell_volume 3799.059675
_symmetry_space_group_name_H-M "C C C M"
_symmetry_group_IT_number 66
_symmetry_cell_setting 'orthorhombic'
loop_
_space_group_symop_operation_xyz
x,y,z
-x,-y,z
x,-y,1/2-z
-x,y,1/2-z
-x,-y,-z
x,y,-z
-x,y,1/2+z
x,-y,1/2+z
1/2+x,1/2+y,z
1/2-x,1/2-y,z
1/2+x,1/2-y,1/2-z
1/2-x,1/2+y,1/2-z
1/2-x,1/2-y,-z
1/2+x,1/2+y,-z
1/2-x,1/2+y,1/2+z
1/2+x,1/2-y,1/2+z
loop_
_atom_site_type_symbol
_atom_site_label
_atom_site_fract_x
_atom_site_fract_y
_atom_site_fract_z
Si Si1 0.874940 0.195701 0.752232
Si Si2 0.098595 0.787855 0.446734
Si Si3 0.877519 0.005270 0.172448
Si Si4 0.862528 0.313706 0.945469
Si Si5 0.219237 0.441697 0.908032
O O1 0.750000 0.250000 0.743551
O O2 0.886823 0.093162 0.713099
O O3 0.000000 0.261685 0.750000
O O4 0.865071 0.133424 0.801930
O O5 0.114724 0.752547 0.500000
O O6 0.149806 0.682797 0.414233
O O7 0.168569 0.911156 0.438524
O O8 0.966340 0.776976 0.437027
O O9 0.772837 0.971875 0.140634
O O10 0.000000 0.000000 0.148014
O O11 0.750000 0.250000 0.928043
O O12 0.859444 0.448286 0.924593
O O13 0.855631 0.330111 0.000000
#
# Coordination Sequence:
#
# PCOD9498597 Si02
#       5
#    16  16  16  16  16
#     4   9  19  41  64  85 116 161 191 236 297 367
#     4  10  22  39  59  84 116 162 204 247 308 359
#     4   9  21  38  58  86 119 150 192 233 299 357
#     4  10  22  38  56  82 118 159 201 245 300 360
#     4  11  21  36  60  86 115 153 195 254 293 355
#
# _framework density 21.057842000000001
#
# number of rings (size 3 to 8) (size 9 to 14) (size 15 to 20)
#    0.000    2.200    0.000    4.200    5.600    2.400 
#    3.600    7.000    0.000    0.000    0.000    0.000 
#    0.000    0.000    0.000    0.000    0.000    0.000 
#
# Total GULP energy -222765.582666 kJ/mol
# GULP energy per Si atom -5569.139567 kJ/mol
# Density = 2.100991 g / cm^3
# Si number density = 21.057842 Si / 1000 Ang^3
#
#
#
# Elastic Constant Matrix: (Units=GPa)
#
#
# Indices 1 2 3 4 5 6 
#
# 1 142.1974 7.9849 11.6086 0.0000 0.0000 0.0000
# 2 7.9849 24.7490 -5.5878 0.0000 0.0000 0.0000
# 3 11.6086 -5.5878 56.5619 0.0000 0.0000 0.0000
# 4 0.0000 0.0000 0.0000 -6.2829 0.0000 0.0000
# 5 0.0000 0.0000 0.0000 0.0000 -21.5401 0.0000
# 6 0.0000 0.0000 0.0000 0.0000 0.0000 32.7476
#
#
#
# Elastic Compliance Matrix: (Units=1/GPa)
#
#
# Indices 1 2 3 4 5 6 
#
# 1 0.007333 -0.002767 -0.001778 0.000000 0.000000 0.000000
# 2 -0.002767 0.042372 0.004754 0.000000 0.000000 0.000000
# 3 -0.001778 0.004754 0.018514 0.000000 0.000000 0.000000
# 4 0.000000 0.000000 0.000000 -0.159161 0.000000 0.000000
# 5 0.000000 0.000000 0.000000 0.000000 -0.046425 0.000000
# 6 0.000000 0.000000 0.000000 0.000000 0.000000 0.030537
#
#
# Mechanical properties :
#
#
# Convention : Reuss Voigt Hill
#
# Bulk Modulus (GPa) = 14.56969 27.94661 21.25815
# Shear Modulus (GPa) = -59.26441 14.95174 -22.15634
#
# Velocity S-wave (km/s) = -5.31081 2.66753 -3.24723
# Velocity P-wave (km/s) = 5.53827 4.77366 1.98552
#
# Compressibility (1/GPa) = 0.06863566
#
# Stress axis : x y z
#
# Youngs Moduli (GPa) = 136.36861 23.60051 54.01200
#
# Poissons Ratio (x) = 0.06531 0.09606
# Poissons Ratio (y) = 0.37739 -0.25677
# Poissons Ratio (z) = 0.24252 -0.11220
#
# Static dielectric constant tensor:
#      x y z
#    x 1.855360 0.000000 0.000000 
#    y 0.000000 1.844470 0.000000 
#    z 0.000000 0.000000 1.750510 
# 
# From -- ./inp_files/68778.got.cif
#   From: 2010.05.17/outbox.cif.g08.bks.cpg/sg66_35_cif.got.tgz:68778.got - 2010.06.03 17:51:23.
