data_PCOD9498480
_publ_section_title
;
Structure prediction by ZEFSAII (Michael W. Deem and Ramdas Pophale) SiO2 
 PCOD9498480
Probable space group: C C C M
;
_chemical_formula_sum "Si O2"
_cell_formula_units_Z 64
_cell_length_a 5.387225
_cell_length_b 27.671025
_cell_length_c 19.797032
_cell_angle_alpha 90.000000
_cell_angle_beta 90.000000
_cell_angle_gamma 90.000000
_cell_volume 2951.144306
_symmetry_space_group_name_H-M "C C C M"
_symmetry_group_IT_number 66
_symmetry_cell_setting 'orthorhombic'
loop_
_space_group_symop_operation_xyz
x,y,z
-x,-y,z
x,-y,1/2-z
-x,y,1/2-z
-x,-y,-z
x,y,-z
-x,y,1/2+z
x,-y,1/2+z
1/2+x,1/2+y,z
1/2-x,1/2-y,z
1/2+x,1/2-y,1/2-z
1/2-x,1/2+y,1/2-z
1/2-x,1/2-y,-z
1/2+x,1/2+y,-z
1/2-x,1/2+y,1/2+z
1/2+x,1/2-y,1/2+z
loop_
_atom_site_type_symbol
_atom_site_label
_atom_site_fract_x
_atom_site_fract_y
_atom_site_fract_z
Si Si1 0.500000 0.780902 0.250000
Si Si2 0.651221 0.854163 0.145468
Si Si3 0.340187 0.572261 0.000000
Si Si4 0.500000 0.403394 0.250000
Si Si5 0.342482 0.952347 0.857385
Si Si6 0.334459 0.865624 0.500000
O O1 0.750000 0.750000 0.244306
O O2 0.486063 0.815915 0.185168
O O3 0.874236 0.868115 0.195225
O O4 0.518973 0.905762 0.136824
O O5 0.709647 0.837595 0.069925
O O6 0.297674 0.544288 0.929531
O O7 0.617258 0.593767 0.000000
O O8 0.116589 0.612729 0.000000
O O9 0.673837 0.438268 0.206022
O O10 0.500000 0.000000 0.845988
#
# Coordination Sequence:
#
# PCOD9498480 Si02
#       6
#     8  16   8   8  16   8
#     4  12  27  46  76 104 139 185 238 305 378 436
#     4  11  24  44  68 104 139 183 241 294 358 430
#     4  10  21  42  64  99 142 195 237 281 344 419
#     4  12  21  41  69  90 150 183 244 291 353 408
#     4  11  24  40  65 103 143 191 238 290 348 424
#     4  10  22  42  73  99 138 189 233 294 353 419
#
# _framework density 21.686502999999998
#
# number of rings (size 3 to 8) (size 9 to 14) (size 15 to 20)
#    0.000    1.000    5.000    1.125    0.000    4.000 
#    0.000    3.750    0.000    0.000    0.000    0.875 
#    0.000    0.000    0.000    0.000    0.000    0.000 
#
# Total GULP energy -178854.970011 kJ/mol
# GULP energy per Si atom -5589.217813 kJ/mol
# Density = 2.163714 g / cm^3
# Si number density = 21.686503 Si / 1000 Ang^3
#
#
#
# Elastic Constant Matrix: (Units=GPa)
#
#
# Indices 1 2 3 4 5 6 
#
# 1 54.3087 9.0974 13.6153 0.0000 0.0000 0.0000
# 2 9.0974 67.0850 13.3892 0.0000 0.0000 0.0000
# 3 13.6153 13.3892 191.1115 0.0000 0.0000 0.0000
# 4 0.0000 0.0000 0.0000 -5.5548 0.0000 0.0000
# 5 0.0000 0.0000 0.0000 0.0000 -660.7418 0.0000
# 6 0.0000 0.0000 0.0000 0.0000 0.0000 7.5608
#
#
#
# Elastic Compliance Matrix: (Units=1/GPa)
#
#
# Indices 1 2 3 4 5 6 
#
# 1 0.019107 -0.002352 -0.001196 0.000000 0.000000 0.000000
# 2 -0.002352 0.015407 -0.000912 0.000000 0.000000 0.000000
# 3 -0.001196 -0.000912 0.005382 0.000000 0.000000 0.000000
# 4 0.000000 0.000000 0.000000 -0.180023 0.000000 0.000000
# 5 0.000000 0.000000 0.000000 0.000000 -0.001513 0.000000
# 6 0.000000 0.000000 0.000000 0.000000 0.000000 0.132262
#
#
# Mechanical properties :
#
#
# Convention : Reuss Voigt Hill
#
# Bulk Modulus (GPa) = 32.28401 42.74545 37.51473
# Shear Modulus (GPa) = 506.70036 -113.32029 196.69004
#
# Velocity S-wave (km/s) = 15.30212 -7.23652 9.53383
# Velocity P-wave (km/s) = 18.08662 7.07599 11.76979
#
# Compressibility (1/GPa) = 0.03097509
#
# Stress axis : x y z
#
# Youngs Moduli (GPa) = 52.33613 64.90359 185.81588
#
# Poissons Ratio (x) = 0.15268 0.22232
# Poissons Ratio (y) = 0.12311 0.16944
# Poissons Ratio (z) = 0.06262 0.05918
#
# Static dielectric constant tensor:
#      x y z
#    x 1.851560 0.000000 0.000000 
#    y 0.000000 1.802750 0.000000 
#    z 0.000000 0.000000 1.913550 
# 
# From -- ./inp_files/45728.got.cif
#   From: 2010.05.17/outbox.cif.g08.bks.cpg/sg66_23_cif.got.tgz:45728.got - 2010.06.03 17:51:23.
