data_PCOD9498745
_publ_section_title
;
Structure prediction by ZEFSAII (Michael W. Deem and Ramdas Pophale) SiO2 
 PCOD9498745
Probable space group: C C C M
;
_chemical_formula_sum "Si O2"
_cell_formula_units_Z 112
_cell_length_a 23.583329
_cell_length_b 16.275595
_cell_length_c 14.713725
_cell_angle_alpha 90.000000
_cell_angle_beta 90.000000
_cell_angle_gamma 90.000000
_cell_volume 5647.608964
_symmetry_space_group_name_H-M "C C C M"
_symmetry_group_IT_number 66
_symmetry_cell_setting 'orthorhombic'
loop_
_space_group_symop_operation_xyz
x,y,z
-x,-y,z
x,-y,1/2-z
-x,y,1/2-z
-x,-y,-z
x,y,-z
-x,y,1/2+z
x,-y,1/2+z
1/2+x,1/2+y,z
1/2-x,1/2-y,z
1/2+x,1/2-y,1/2-z
1/2-x,1/2+y,1/2-z
1/2-x,1/2-y,-z
1/2+x,1/2+y,-z
1/2-x,1/2+y,1/2+z
1/2+x,1/2-y,1/2+z
loop_
_atom_site_type_symbol
_atom_site_label
_atom_site_fract_x
_atom_site_fract_y
_atom_site_fract_z
Si Si1 0.637019 0.075760 0.396854
Si Si2 0.617043 0.495870 0.104053
Si Si3 0.751604 0.995486 0.641552
Si Si4 0.904481 0.308328 0.763450
Si Si5 0.566583 0.620073 0.756017
Si Si6 0.549673 0.065007 0.893569
Si Si7 0.299147 0.816999 0.102370
O O1 0.622225 0.098939 0.500000
O O2 0.704255 0.061380 0.388308
O O3 0.611909 0.139043 0.324991
O O4 0.607353 0.987292 0.379619
O O5 0.685036 0.505335 0.105493
O O6 0.591084 0.574544 0.155401
O O7 0.598251 0.419961 0.168615
O O8 0.598000 0.486511 0.000000
O O9 0.754483 0.000000 0.750000
O O10 0.728550 0.906439 0.612982
O O11 0.924137 0.217165 0.741008
O O12 0.948709 0.359025 0.825721
O O13 0.848026 0.303591 0.824992
O O14 0.500000 0.601882 0.750000
O O15 0.500000 0.000000 0.874543
O O16 0.545626 0.088585 0.000000
O O17 0.250000 0.750000 0.113452
O O18 0.322703 0.809884 0.000000
#
# Coordination Sequence:
#
# PCOD9498745 Si02
#       7
#    16  16  16  16  16  16  16
#     4  11  23  39  60  94 135 178 220 258 312 385
#     4  11  24  47  74  96 127 169 214 278 350 404
#     4  12  20  40  68  98 131 170 219 269 330 398
#     4  12  24  39  64  95 134 174 216 268 325 380
#     4  11  27  46  67 101 130 164 225 281 327 405
#     4  10  22  40  63  93 131 176 224 263 308 378
#     4  11  23  38  61  95 130 163 209 268 326 385
#
# _framework density 19.831401
#
# number of rings (size 3 to 8) (size 9 to 14) (size 15 to 20)
#    0.000    0.857    4.286    3.857    2.000    4.571 
#    0.000    0.000    0.000    2.143    0.000    0.000 
#    0.000    0.000    0.000    0.000    0.000    0.000 
#
# Total GULP energy -313300.220341 kJ/mol
# GULP energy per Si atom -5594.646792 kJ/mol
# Density = 1.978626 g / cm^3
# Si number density = 19.831401 Si / 1000 Ang^3
#
#
#
# Elastic Constant Matrix: (Units=GPa)
#
#
# Indices 1 2 3 4 5 6 
#
# 1 94.9687 21.7322 2.7791 0.0000 0.0000 0.0000
# 2 21.7322 118.9346 41.0202 0.0000 0.0000 0.0000
# 3 2.7791 41.0202 122.4174 0.0000 0.0000 0.0000
# 4 0.0000 0.0000 0.0000 25.4120 0.0000 0.0000
# 5 0.0000 0.0000 0.0000 0.0000 25.9341 0.0000
# 6 0.0000 0.0000 0.0000 0.0000 0.0000 25.8135
#
#
#
# Elastic Compliance Matrix: (Units=1/GPa)
#
#
# Indices 1 2 3 4 5 6 
#
# 1 0.011014 -0.002178 0.000480 0.000000 0.000000 0.000000
# 2 -0.002178 0.009937 -0.003280 0.000000 0.000000 0.000000
# 3 0.000480 -0.003280 0.009257 0.000000 0.000000 0.000000
# 4 0.000000 0.000000 0.000000 0.039352 0.000000 0.000000
# 5 0.000000 0.000000 0.000000 0.000000 0.038559 0.000000
# 6 0.000000 0.000000 0.000000 0.000000 0.000000 0.038739
#
#
# Mechanical properties :
#
#
# Convention : Reuss Voigt Hill
#
# Bulk Modulus (GPa) = 49.37952 51.93150 50.65551
# Shear Modulus (GPa) = 30.56859 33.48453 32.02656
#
# Velocity S-wave (km/s) = 3.93036 4.11355 4.02299
# Velocity P-wave (km/s) = 6.74912 6.98606 6.86861
#
# Compressibility (1/GPa) = 0.02025131
#
# Stress axis : x y z
#
# Youngs Moduli (GPa) = 90.79225 100.63031 108.02516
#
# Poissons Ratio (x) = 0.21918 -0.05183
# Poissons Ratio (y) = 0.19775 0.35437
# Poissons Ratio (z) = -0.04356 0.33011
#
# Static dielectric constant tensor:
#      x y z
#    x 1.718710 0.000000 0.000000 
#    y 0.000000 1.670010 0.000000 
#    z 0.000000 0.000000 1.695890 
# 
# From -- ./inp_files/32472.got.cif
#   From: 2010.05.17/outbox.cif.g08.bks.cpg/sg66_17_cif.got.tgz:32472.got - 2010.06.03 17:51:23.
