data_PCOD9498136
_publ_section_title
;
Structure prediction by ZEFSAII (Michael W. Deem and Ramdas Pophale) SiO2 
 PCOD9498136
Probable space group: C C C M
;
_chemical_formula_sum "Si O2"
_cell_formula_units_Z 104
_cell_length_a 9.035089
_cell_length_b 18.402441
_cell_length_c 27.803402
_cell_angle_alpha 90.000000
_cell_angle_beta 90.000000
_cell_angle_gamma 90.000000
_cell_volume 4622.807487
_symmetry_space_group_name_H-M "C C C M"
_symmetry_group_IT_number 66
_symmetry_cell_setting 'orthorhombic'
loop_
_space_group_symop_operation_xyz
x,y,z
-x,-y,z
x,-y,1/2-z
-x,y,1/2-z
-x,-y,-z
x,y,-z
-x,y,1/2+z
x,-y,1/2+z
1/2+x,1/2+y,z
1/2-x,1/2-y,z
1/2+x,1/2-y,1/2-z
1/2-x,1/2+y,1/2-z
1/2-x,1/2-y,-z
1/2+x,1/2+y,-z
1/2-x,1/2+y,1/2+z
1/2+x,1/2-y,1/2+z
loop_
_atom_site_type_symbol
_atom_site_label
_atom_site_fract_x
_atom_site_fract_y
_atom_site_fract_z
Si Si1 0.456906 0.126517 0.909248
Si Si2 0.709803 0.542489 0.864323
Si Si3 0.714458 0.123943 0.162074
Si Si4 0.250000 0.750000 0.401689
Si Si5 0.140502 0.823254 0.000000
Si Si6 0.670780 0.413066 0.259195
Si Si7 0.989668 0.843478 0.604821
Si Si8 0.888149 0.429501 0.000000
O O1 0.349126 0.060237 0.897470
O O2 0.557271 0.140260 0.862154
O O3 0.343521 0.187894 0.927255
O O4 0.566923 0.110338 0.951433
O O5 0.731938 0.458564 0.851279
O O6 0.718950 0.588206 0.814455
O O7 0.563159 0.576186 0.889166
O O8 0.727311 0.125906 0.219671
O O9 0.843234 0.168446 0.135819
O O10 0.380078 0.707755 0.375263
O O11 0.250000 0.750000 0.000000
O O12 0.047018 0.822999 0.049647
O O13 0.214779 0.905506 0.000000
O O14 0.672283 0.500000 0.250000
O O15 0.500000 0.389990 0.250000
O O16 0.000000 0.500000 0.000000
#
# Coordination Sequence:
#
# PCOD9498136 Si02
#       8
#    16  16  16   8   8  16  16   8
#     4  11  24  41  65  89 133 174 216 274 326 402
#     4  10  21  38  62 100 135 164 211 263 337 405
#     4  11  20  37  66  98 127 173 206 265 341 392
#     4  10  26  45  62  90 122 170 228 272 324 375
#     4  12  26  44  70  99 128 184 242 268 315 422
#     4   9  17  32  59  94 135 168 204 254 323 406
#     4  11  23  40  65  90 125 167 219 271 314 393
#     4  12  24  42  65 104 140 169 213 288 354 388
#
# _framework density 22.497150999999999
#
# number of rings (size 3 to 8) (size 9 to 14) (size 15 to 20)
#    0.000    1.385    3.077    2.769    0.000    3.692 
#    0.000    4.615    0.000   14.769    2.000    0.000 
#    0.000    0.000    0.000    0.000    0.000    0.000 
#
# Total GULP energy -289524.005321 kJ/mol
# GULP energy per Si atom -5567.769333 kJ/mol
# Density = 2.244595 g / cm^3
# Si number density = 22.497151 Si / 1000 Ang^3
#
#
#
# Elastic Constant Matrix: (Units=GPa)
#
#
# Indices 1 2 3 4 5 6 
#
# 1 81.5543 11.3375 11.2321 0.0000 0.0000 0.0000
# 2 11.3375 60.9169 5.0038 0.0000 0.0000 0.0000
# 3 11.2321 5.0038 116.6956 0.0000 0.0000 0.0000
# 4 0.0000 0.0000 0.0000 -61.4248 0.0000 0.0000
# 5 0.0000 0.0000 0.0000 0.0000 48.9473 0.0000
# 6 0.0000 0.0000 0.0000 0.0000 0.0000 37.0517
#
#
#
# Elastic Compliance Matrix: (Units=1/GPa)
#
#
# Indices 1 2 3 4 5 6 
#
# 1 0.012734 -0.002277 -0.001128 0.000000 0.000000 0.000000
# 2 -0.002277 0.016881 -0.000505 0.000000 0.000000 0.000000
# 3 -0.001128 -0.000505 0.008700 0.000000 0.000000 0.000000
# 4 0.000000 0.000000 0.000000 -0.016280 0.000000 0.000000
# 5 0.000000 0.000000 0.000000 0.000000 0.020430 0.000000
# 6 0.000000 0.000000 0.000000 0.000000 0.000000 0.026989
#
#
# Mechanical properties :
#
#
# Convention : Reuss Voigt Hill
#
# Bulk Modulus (GPa) = 32.79281 34.92372 33.85827
# Shear Modulus (GPa) = 57.18310 20.35437 38.76874
#
# Velocity S-wave (km/s) = 5.04709 3.01117 4.15574
# Velocity P-wave (km/s) = 6.96938 5.25803 6.17329
#
# Compressibility (1/GPa) = 0.03049449
#
# Stress axis : x y z
#
# Youngs Moduli (GPa) = 78.53174 59.23784 114.94894
#
# Poissons Ratio (x) = 0.13490 0.12966
# Poissons Ratio (y) = 0.17884 0.05801
# Poissons Ratio (z) = 0.08858 0.02989
#
# Static dielectric constant tensor:
#      x y z
#    x 1.833910 0.000000 0.000000 
#    y 0.000000 1.965670 0.000000 
#    z 0.000000 0.000000 1.706690 
# 
# From -- ./inp_files/62724.got.cif
#   From: 2010.05.17/outbox.cif.g08.bks.cpg/sg66_32_cif.got.tgz:62724.got - 2010.06.03 17:51:23.
