data_PCOD9498981
_publ_section_title
;
Structure prediction by ZEFSAII (Michael W. Deem and Ramdas Pophale) SiO2 
 PCOD9498981
Probable space group: C C C M
;
_chemical_formula_sum "Si O2"
_cell_formula_units_Z 108
_cell_length_a 5.573561
_cell_length_b 33.189999
_cell_length_c 31.277934
_cell_angle_alpha 90.000000
_cell_angle_beta 90.000000
_cell_angle_gamma 90.000000
_cell_volume 5785.995038
_symmetry_space_group_name_H-M "C C C M"
_symmetry_group_IT_number 66
_symmetry_cell_setting 'orthorhombic'
loop_
_space_group_symop_operation_xyz
x,y,z
-x,-y,z
x,-y,1/2-z
-x,y,1/2-z
-x,-y,-z
x,y,-z
-x,y,1/2+z
x,-y,1/2+z
1/2+x,1/2+y,z
1/2-x,1/2-y,z
1/2+x,1/2-y,1/2-z
1/2-x,1/2+y,1/2-z
1/2-x,1/2-y,-z
1/2+x,1/2+y,-z
1/2-x,1/2+y,1/2+z
1/2+x,1/2-y,1/2+z
loop_
_atom_site_type_symbol
_atom_site_label
_atom_site_fract_x
_atom_site_fract_y
_atom_site_fract_z
Si Si1 0.350775 0.063810 0.293912
Si Si2 0.251449 0.084625 0.952859
Si Si3 0.236879 0.576752 0.356209
Si Si4 0.500000 0.500000 0.380962
Si Si5 0.747774 0.035807 0.954349
Si Si6 0.013520 0.136308 0.699055
Si Si7 0.000000 0.000000 0.750000
Si Si8 0.001359 0.771370 0.197861
O O1 0.500000 0.069650 0.250000
O O2 0.513384 0.053587 0.334767
O O3 0.235218 0.106324 0.307683
O O4 0.166196 0.029130 0.278704
O O5 0.271728 0.097858 0.902837
O O6 0.499250 0.059260 0.954023
O O7 0.987203 0.063688 0.953197
O O8 0.256307 0.106534 0.000000
O O9 0.437962 0.541733 0.358491
O O10 0.300742 0.611350 0.322429
O O11 0.719698 0.507902 0.413582
O O12 0.756994 0.013567 0.000000
O O13 0.016190 0.182098 0.683563
O O14 0.000000 0.138223 0.750000
O O15 0.250000 0.750000 0.184490
O O16 0.000000 0.770736 0.250000
O O17 0.750000 0.750000 0.184701
#
# Coordination Sequence:
#
# PCOD9498981 Si02
#       8
#    16  16  16   8  16  16   4  16
#     4  12  25  43  59  76 114 163 215 261 295 345
#     4   9  20  39  58  80 110 146 196 256 312 362
#     4  11  25  40  58  81 113 162 206 259 307 355
#     4  10  23  39  49  81 108 146 217 252 294 349
#     4   9  18  36  56  74 102 143 195 260 317 355
#     4  11  23  42  59  86 119 154 195 242 302 353
#     4  12  26  46  52  80 102 168 228 264 288 336
#     4   9  20  37  64  92 117 148 186 231 296 375
#
# _framework density 18.665762000000001
#
# number of rings (size 3 to 8) (size 9 to 14) (size 15 to 20)
#    0.000    1.778    2.222    0.444    6.222    7.111 
#    2.667    6.667    0.000    0.000    0.000    0.000 
#    0.000    1.185    0.000    0.148    0.000    0.000 
#
# Total GULP energy -300639.658765 kJ/mol
# GULP energy per Si atom -5567.401088 kJ/mol
# Density = 1.862328 g / cm^3
# Si number density = 18.665762 Si / 1000 Ang^3
#
#
#
# Elastic Constant Matrix: (Units=GPa)
#
#
# Indices 1 2 3 4 5 6 
#
# 1 120.4732 46.3435 22.9760 0.0000 0.0000 0.0000
# 2 46.3435 112.0187 25.5797 0.0000 0.0000 0.0000
# 3 22.9760 25.5797 110.7882 0.0000 0.0000 0.0000
# 4 0.0000 0.0000 0.0000 -150.1098 0.0000 0.0000
# 5 0.0000 0.0000 0.0000 0.0000 24.5784 0.0000
# 6 0.0000 0.0000 0.0000 0.0000 0.0000 13.8420
#
#
#
# Elastic Compliance Matrix: (Units=1/GPa)
#
#
# Indices 1 2 3 4 5 6 
#
# 1 0.010016 -0.003874 -0.001183 0.000000 0.000000 0.000000
# 2 -0.003874 0.010922 -0.001718 0.000000 0.000000 0.000000
# 3 -0.001183 -0.001718 0.009668 0.000000 0.000000 0.000000
# 4 0.000000 0.000000 0.000000 -0.006662 0.000000 0.000000
# 5 0.000000 0.000000 0.000000 0.000000 0.040686 0.000000
# 6 0.000000 0.000000 0.000000 0.000000 0.000000 0.072244
#
#
# Mechanical properties :
#
#
# Convention : Reuss Voigt Hill
#
# Bulk Modulus (GPa) = 58.62806 59.23093 58.92950
# Shear Modulus (GPa) = 32.02856 -5.77914 13.12471
#
# Velocity S-wave (km/s) = 4.14683 -1.76149 2.65456
# Velocity P-wave (km/s) = 7.37604 5.25967 6.40586
#
# Compressibility (1/GPa) = 0.01705668
#
# Stress axis : x y z
#
# Youngs Moduli (GPa) = 99.83675 91.55735 103.43081
#
# Poissons Ratio (x) = 0.35467 0.12234
# Poissons Ratio (y) = 0.38675 0.17774
# Poissons Ratio (z) = 0.11809 0.15733
#
# Static dielectric constant tensor:
#      x y z
#    x 1.771770 0.000000 0.000000 
#    y 0.000000 1.636970 0.000000 
#    z 0.000000 0.000000 1.728660 
# 
# From -- ./inp_files/67563.got.cif
#   From: 2010.05.17/outbox.cif.g08.bks.cpg/sg66_34_cif.got.tgz:67563.got - 2010.06.03 17:51:23.
