data_PCOD9498675
_publ_section_title
;
Structure prediction by ZEFSAII (Michael W. Deem and Ramdas Pophale) SiO2 
 PCOD9498675
Probable space group: C C C M
;
_chemical_formula_sum "Si O2"
_cell_formula_units_Z 72
_cell_length_a 9.563408
_cell_length_b 14.943513
_cell_length_c 25.560322
_cell_angle_alpha 90.000000
_cell_angle_beta 90.000000
_cell_angle_gamma 90.000000
_cell_volume 3652.848922
_symmetry_space_group_name_H-M "C C C M"
_symmetry_group_IT_number 66
_symmetry_cell_setting 'orthorhombic'
loop_
_space_group_symop_operation_xyz
x,y,z
-x,-y,z
x,-y,1/2-z
-x,y,1/2-z
-x,-y,-z
x,y,-z
-x,y,1/2+z
x,-y,1/2+z
1/2+x,1/2+y,z
1/2-x,1/2-y,z
1/2+x,1/2-y,1/2-z
1/2-x,1/2+y,1/2-z
1/2-x,1/2-y,-z
1/2+x,1/2+y,-z
1/2-x,1/2+y,1/2+z
1/2+x,1/2-y,1/2+z
loop_
_atom_site_type_symbol
_atom_site_label
_atom_site_fract_x
_atom_site_fract_y
_atom_site_fract_z
Si Si1 0.967443 0.276383 0.896966
Si Si2 0.500000 0.500000 0.672704
Si Si3 0.892861 0.196517 0.295520
Si Si4 0.864645 0.675481 0.000000
Si Si5 0.216913 0.108930 0.601854
Si Si6 0.168153 0.513709 0.000000
O O1 0.880056 0.190851 0.916281
O O2 0.854575 0.345637 0.872822
O O3 0.065026 0.238194 0.851588
O O4 0.045068 0.317443 0.946963
O O5 0.581793 0.413308 0.699434
O O6 0.622061 0.547381 0.638693
O O7 0.750000 0.250000 0.282315
O O8 0.000000 0.222167 0.250000
O O9 0.750000 0.750000 0.000000
O O10 0.776060 0.585790 0.000000
O O11 0.276618 0.060173 0.551504
O O12 0.000000 0.500000 0.000000
#
# Coordination Sequence:
#
# PCOD9498675 Si02
#       6
#    16   8  16   8  16   8
#     4  10  22  43  65  93 132 176 223 273 346 418
#     4  10  25  43  72  98 136 175 232 296 341 428
#     4  11  26  46  75 102 138 181 231 289 353 412
#     4  12  25  37  62  93 133 173 217 277 338 405
#     4  10  22  39  63  90 132 175 220 273 347 398
#     4  12  23  36  57  95 133 173 225 279 330 409
#
# _framework density 19.710642
#
# number of rings (size 3 to 8) (size 9 to 14) (size 15 to 20)
#    0.000    1.333    2.222    1.667   15.556    2.222 
#    0.000    0.000    0.000    0.000    0.000    0.000 
#    0.000    0.000    0.000    0.000    0.000    0.000 
#
# Total GULP energy -200474.781469 kJ/mol
# GULP energy per Si atom -5568.743930 kJ/mol
# Density = 1.966578 g / cm^3
# Si number density = 19.710642 Si / 1000 Ang^3
#
#
#
# Elastic Constant Matrix: (Units=GPa)
#
#
# Indices 1 2 3 4 5 6 
#
# 1 120.5138 62.8057 37.7187 0.0000 0.0000 0.0000
# 2 62.8057 126.6169 36.9109 0.0000 0.0000 0.0000
# 3 37.7187 36.9109 70.8853 0.0000 0.0000 0.0000
# 4 0.0000 0.0000 0.0000 88.4424 0.0000 0.0000
# 5 0.0000 0.0000 0.0000 0.0000 23.5587 0.0000
# 6 0.0000 0.0000 0.0000 0.0000 0.0000 31.5094
#
#
#
# Elastic Compliance Matrix: (Units=1/GPa)
#
#
# Indices 1 2 3 4 5 6 
#
# 1 0.012035 -0.004837 -0.003885 0.000000 0.000000 0.000000
# 2 -0.004837 0.011255 -0.003287 0.000000 0.000000 0.000000
# 3 -0.003885 -0.003287 0.017886 0.000000 0.000000 0.000000
# 4 0.000000 0.000000 0.000000 0.011307 0.000000 0.000000
# 5 0.000000 0.000000 0.000000 0.000000 0.042447 0.000000
# 6 0.000000 0.000000 0.000000 0.000000 0.000000 0.031737
#
#
# Mechanical properties :
#
#
# Convention : Reuss Voigt Hill
#
# Bulk Modulus (GPa) = 58.28170 65.87630 62.07900
# Shear Modulus (GPa) = 31.96852 40.74081 36.35467
#
# Velocity S-wave (km/s) = 4.03164 4.55130 4.29933
# Velocity P-wave (km/s) = 7.16275 7.81750 7.49728
#
# Compressibility (1/GPa) = 0.01715805
#
# Stress axis : x y z
#
# Youngs Moduli (GPa) = 83.09436 88.84688 55.90918
#
# Poissons Ratio (x) = 0.42975 0.21721
# Poissons Ratio (y) = 0.40192 0.18377
# Poissons Ratio (z) = 0.32282 0.29204
#
# Static dielectric constant tensor:
#      x y z
#    x 1.710840 0.000000 0.000000 
#    y 0.000000 1.821020 0.000000 
#    z 0.000000 0.000000 1.678260 
# 
# From -- ./inp_files/62251.got.cif
#   From: 2010.05.17/outbox.cif.g08.bks.cpg/sg66_32_cif.got.tgz:62251.got - 2010.06.03 17:51:23.
