data_PCOD9498983
_publ_section_title
;
Structure prediction by ZEFSAII (Michael W. Deem and Ramdas Pophale) SiO2 
 PCOD9498983
Probable space group: C C C M
;
_chemical_formula_sum "Si O2"
_cell_formula_units_Z 112
_cell_length_a 14.642227
_cell_length_b 13.612001
_cell_length_c 29.552345
_cell_angle_alpha 90.000000
_cell_angle_beta 90.000000
_cell_angle_gamma 90.000000
_cell_volume 5890.078135
_symmetry_space_group_name_H-M "C C C M"
_symmetry_group_IT_number 66
_symmetry_cell_setting 'orthorhombic'
loop_
_space_group_symop_operation_xyz
x,y,z
-x,-y,z
x,-y,1/2-z
-x,y,1/2-z
-x,-y,-z
x,y,-z
-x,y,1/2+z
x,-y,1/2+z
1/2+x,1/2+y,z
1/2-x,1/2-y,z
1/2+x,1/2-y,1/2-z
1/2-x,1/2+y,1/2-z
1/2-x,1/2-y,-z
1/2+x,1/2+y,-z
1/2-x,1/2+y,1/2+z
1/2+x,1/2-y,1/2+z
loop_
_atom_site_type_symbol
_atom_site_label
_atom_site_fract_x
_atom_site_fract_y
_atom_site_fract_z
Si Si1 0.977052 0.776451 0.392653
Si Si2 0.315847 0.344625 0.448940
Si Si3 0.571824 0.090893 0.632586
Si Si4 0.655556 0.807719 0.316025
Si Si5 0.640151 0.228473 0.285533
Si Si6 0.423400 0.420782 0.829739
Si Si7 0.244054 0.480935 0.368924
O O1 0.916182 0.809768 0.434299
O O2 0.909638 0.749367 0.350595
O O3 0.028618 0.674165 0.399310
O O4 0.041167 0.863209 0.374450
O O5 0.313139 0.383219 0.500000
O O6 0.250000 0.250000 0.446375
O O7 0.282839 0.418858 0.410441
O O8 0.599066 0.150163 0.678730
O O9 0.500000 0.000000 0.638053
O O10 0.669027 0.056818 0.613716
O O11 0.750000 0.750000 0.314728
O O12 0.621231 0.809221 0.264913
O O13 0.683374 0.912555 0.335928
O O14 0.750000 0.250000 0.291761
O O15 0.593645 0.334142 0.293954
O O16 0.500000 0.500000 0.816653
O O17 0.328140 0.473203 0.841543
#
# Coordination Sequence:
#
# PCOD9498983 Si02
#       7
#    16  16  16  16  16  16  16
#     4  11  21  40  59  91 123 161 200 257 315 362
#     4  11  21  39  69  96 119 155 208 259 314 377
#     4  11  22  38  62  88 123 166 204 249 306 366
#     4  11  20  39  60  80 126 161 209 262 292 348
#     4  10  23  39  56  90 124 166 210 256 296 354
#     4  11  22  39  65  87 124 168 208 251 306 366
#     4  12  21  41  61  90 120 163 203 253 314 365
#
# _framework density 19.015028000000001
#
# number of rings (size 3 to 8) (size 9 to 14) (size 15 to 20)
#    0.000    1.000    7.143    0.000    0.000    2.857 
#    2.571    7.857    0.000    2.571    0.000    3.000 
#    0.000    0.000    0.000    0.000    0.000    0.000 
#
# Total GULP energy -312694.862957 kJ/mol
# GULP energy per Si atom -5583.836839 kJ/mol
# Density = 1.897175 g / cm^3
# Si number density = 19.015028 Si / 1000 Ang^3
#
#
#
# Elastic Constant Matrix: (Units=GPa)
#
#
# Indices 1 2 3 4 5 6 
#
# 1 84.9919 30.5346 17.8770 0.0000 0.0000 0.0000
# 2 30.5346 92.0694 34.5327 0.0000 0.0000 0.0000
# 3 17.8770 34.5327 71.8225 0.0000 0.0000 0.0000
# 4 0.0000 0.0000 0.0000 -31.7684 0.0000 0.0000
# 5 0.0000 0.0000 0.0000 0.0000 21.9417 0.0000
# 6 0.0000 0.0000 0.0000 0.0000 0.0000 47.5557
#
#
#
# Elastic Compliance Matrix: (Units=1/GPa)
#
#
# Indices 1 2 3 4 5 6 
#
# 1 0.013484 -0.003920 -0.001471 0.000000 0.000000 0.000000
# 2 -0.003920 0.014391 -0.005943 0.000000 0.000000 0.000000
# 3 -0.001471 -0.005943 0.017147 0.000000 0.000000 0.000000
# 4 0.000000 0.000000 0.000000 -0.031478 0.000000 0.000000
# 5 0.000000 0.000000 0.000000 0.000000 0.045575 0.000000
# 6 0.000000 0.000000 0.000000 0.000000 0.000000 0.021028
#
#
# Mechanical properties :
#
#
# Convention : Reuss Voigt Hill
#
# Bulk Modulus (GPa) = 44.73912 46.08584 45.41248
# Shear Modulus (GPa) = 45.34450 18.60842 31.97646
#
# Velocity S-wave (km/s) = 4.88860 3.13168 4.10523
# Velocity P-wave (km/s) = 7.44607 6.11275 6.81211
#
# Compressibility (1/GPa) = 0.02235180
#
# Stress axis : x y z
#
# Youngs Moduli (GPa) = 74.16411 69.48973 58.31901
#
# Poissons Ratio (x) = 0.27239 0.08581
# Poissons Ratio (y) = 0.29072 0.34661
# Poissons Ratio (z) = 0.10913 0.41300
#
# Static dielectric constant tensor:
#      x y z
#    x 1.726070 0.000000 0.000000 
#    y 0.000000 1.848330 0.000000 
#    z 0.000000 0.000000 1.649340 
# 
# From -- ./inp_files/69549.got.cif
#   From: 2010.05.17/outbox.cif.g08.bks.cpg/sg66_35_cif.got.tgz:69549.got - 2010.06.03 17:51:23.
