data_PCOD9498391
_publ_section_title
;
Structure prediction by ZEFSAII (Michael W. Deem and Ramdas Pophale) SiO2 
 PCOD9498391
Probable space group: C C C M
;
_chemical_formula_sum "Si O2"
_cell_formula_units_Z 48
_cell_length_a 12.128327
_cell_length_b 7.531864
_cell_length_c 21.339059
_cell_angle_alpha 90.000000
_cell_angle_beta 90.000000
_cell_angle_gamma 90.000000
_cell_volume 1949.299770
_symmetry_space_group_name_H-M "C C C M"
_symmetry_group_IT_number 66
_symmetry_cell_setting 'orthorhombic'
loop_
_space_group_symop_operation_xyz
x,y,z
-x,-y,z
x,-y,1/2-z
-x,y,1/2-z
-x,-y,-z
x,y,-z
-x,y,1/2+z
x,-y,1/2+z
1/2+x,1/2+y,z
1/2-x,1/2-y,z
1/2+x,1/2-y,1/2-z
1/2-x,1/2+y,1/2-z
1/2-x,1/2-y,-z
1/2+x,1/2+y,-z
1/2-x,1/2+y,1/2+z
1/2+x,1/2-y,1/2+z
loop_
_atom_site_type_symbol
_atom_site_label
_atom_site_fract_x
_atom_site_fract_y
_atom_site_fract_z
Si Si1 0.193458 0.436971 0.686259
Si Si2 0.422128 0.228809 0.429657
Si Si3 0.662245 0.388570 0.595227
O O1 0.137663 0.500000 0.750000
O O2 0.250000 0.250000 0.699356
O O3 0.119366 0.401805 0.624712
O O4 0.291187 0.569146 0.664559
O O5 0.419960 0.154689 0.500000
O O6 0.349423 0.410812 0.430810
O O7 0.543493 0.299424 0.411775
O O8 0.750000 0.250000 0.567871
#
# Coordination Sequence:
#
# PCOD9498391 Si02
#       3
#    16  16  16
#     4  10  22  43  68  95 131 175 222 272 327 389
#     4  10  23  42  65  97 134 172 217 272 330 388
#     4  10  21  40  66  97 131 172 215 266 328 391
#
# _framework density 24.624227000000001
#
# number of rings (size 3 to 8) (size 9 to 14) (size 15 to 20)
#    0.000    2.000    0.000    3.000    0.000   11.333 
#    0.000   35.000    0.000    3.000    0.000    0.000 
#    0.000    0.000    0.000    0.000    0.000    0.000 
#
# Total GULP energy -134124.908954 kJ/mol
# GULP energy per Si atom -5588.537873 kJ/mol
# Density = 2.456818 g / cm^3
# Si number density = 24.624227 Si / 1000 Ang^3
#
#
#
# Elastic Constant Matrix: (Units=GPa)
#
#
# Indices 1 2 3 4 5 6 
#
# 1 118.9669 30.7102 66.9620 0.0000 0.0000 0.0000
# 2 30.7102 111.2014 61.5546 0.0000 0.0000 0.0000
# 3 66.9620 61.5546 245.5675 0.0000 0.0000 0.0000
# 4 0.0000 0.0000 0.0000 12.0168 0.0000 0.0000
# 5 0.0000 0.0000 0.0000 0.0000 50.3111 0.0000
# 6 0.0000 0.0000 0.0000 0.0000 0.0000 41.4330
#
#
#
# Elastic Compliance Matrix: (Units=1/GPa)
#
#
# Indices 1 2 3 4 5 6 
#
# 1 0.010133 -0.001473 -0.002394 0.000000 0.000000 0.000000
# 2 -0.001473 0.010656 -0.002269 0.000000 0.000000 0.000000
# 3 -0.002394 -0.002269 0.005294 0.000000 0.000000 0.000000
# 4 0.000000 0.000000 0.000000 0.083217 0.000000 0.000000
# 5 0.000000 0.000000 0.000000 0.000000 0.019876 0.000000
# 6 0.000000 0.000000 0.000000 0.000000 0.000000 0.024135
#
#
# Mechanical properties :
#
#
# Convention : Reuss Voigt Hill
#
# Bulk Modulus (GPa) = 72.41170 88.24327 80.32749
# Shear Modulus (GPa) = 29.37927 41.85278 35.61603
#
# Velocity S-wave (km/s) = 3.45788 4.12716 3.80726
# Velocity P-wave (km/s) = 6.73893 7.65670 7.21243
#
# Compressibility (1/GPa) = 0.01380992
#
# Stress axis : x y z
#
# Youngs Moduli (GPa) = 98.68280 93.84647 188.90093
#
# Poissons Ratio (x) = 0.13827 0.45221
# Poissons Ratio (y) = 0.14540 0.42866
# Poissons Ratio (z) = 0.23624 0.21296
#
# Static dielectric constant tensor:
#      x y z
#    x 1.967120 0.000000 0.000000 
#    y 0.000000 1.999040 0.000000 
#    z 0.000000 0.000000 1.939680 
# 
# From -- ./inp_files/56173.got.cif
#   From: 2010.05.17/outbox.cif.g08.bks.cpg/sg66_29_cif.got.tgz:56173.got - 2010.06.03 17:51:23.
