data_PCOD9498336
_publ_section_title
;
Structure prediction by ZEFSAII (Michael W. Deem and Ramdas Pophale) SiO2 
 PCOD9498336
Probable space group: C C C M
;
_chemical_formula_sum "Si O2"
_cell_formula_units_Z 108
_cell_length_a 11.839635
_cell_length_b 28.466853
_cell_length_c 15.718324
_cell_angle_alpha 90.000000
_cell_angle_beta 90.000000
_cell_angle_gamma 90.000000
_cell_volume 5297.659110
_symmetry_space_group_name_H-M "C C C M"
_symmetry_group_IT_number 66
_symmetry_cell_setting 'orthorhombic'
loop_
_space_group_symop_operation_xyz
x,y,z
-x,-y,z
x,-y,1/2-z
-x,y,1/2-z
-x,-y,-z
x,y,-z
-x,y,1/2+z
x,-y,1/2+z
1/2+x,1/2+y,z
1/2-x,1/2-y,z
1/2+x,1/2-y,1/2-z
1/2-x,1/2+y,1/2-z
1/2-x,1/2-y,-z
1/2+x,1/2+y,-z
1/2-x,1/2+y,1/2+z
1/2+x,1/2-y,1/2+z
loop_
_atom_site_type_symbol
_atom_site_label
_atom_site_fract_x
_atom_site_fract_y
_atom_site_fract_z
Si Si1 0.967397 0.130880 0.152800
Si Si2 0.095884 0.962290 0.399134
Si Si3 0.335956 0.997098 0.651323
Si Si4 0.222419 0.602757 0.099915
Si Si5 0.000000 0.500000 0.000000
Si Si6 0.590419 0.814121 0.676623
Si Si7 0.750000 0.250000 0.279218
Si Si8 0.453774 0.270103 0.095780
O O1 0.839281 0.113795 0.146221
O O2 0.000000 0.138697 0.250000
O O3 0.046155 0.089440 0.116157
O O4 0.983853 0.180212 0.105416
O O5 0.114427 0.969986 0.500000
O O6 0.214563 0.971125 0.352833
O O7 0.000000 0.000000 0.371428
O O8 0.418810 0.977766 0.577607
O O9 0.373025 0.000000 0.750000
O O10 0.316050 0.050455 0.620588
O O11 0.128650 0.640389 0.126127
O O12 0.244758 0.605945 0.000000
O O13 0.500000 0.825867 0.750000
O O14 0.699127 0.791088 0.721626
O O15 0.535423 0.773024 0.619969
O O16 0.648787 0.268466 0.337800
O O17 0.412123 0.264490 0.000000
#
# Coordination Sequence:
#
# PCOD9498336 Si02
#       8
#    16  16  16  16   4  16   8  16
#     4  12  24  38  66 101 136 172 226 278 347 419
#     4  11  22  41  67  99 136 175 220 281 347 409
#     4  12  26  46  73  99 137 182 228 287 351 402
#     4  12  23  43  67  98 133 176 223 287 344 408
#     4  12  26  52  66  98 132 184 230 286 320 422
#     4  10  22  39  65  93 129 174 228 277 338 409
#     4  10  21  40  61  86 132 172 214 278 331 401
#     4  11  22  40  62  94 130 177 219 276 339 403
#
# _framework density 20.386361999999998
#
# number of rings (size 3 to 8) (size 9 to 14) (size 15 to 20)
#    0.000    0.741    2.963    6.222    0.000    1.185 
#    0.000    3.704    0.000    0.000    0.000    0.000 
#    0.000    0.000    0.000    0.000    0.000    0.000 
#
# Total GULP energy -301521.746617 kJ/mol
# GULP energy per Si atom -5583.736048 kJ/mol
# Density = 2.033996 g / cm^3
# Si number density = 20.386362 Si / 1000 Ang^3
#
#
#
# Elastic Constant Matrix: (Units=GPa)
#
#
# Indices 1 2 3 4 5 6 
#
# 1 67.8724 4.8576 -4.5651 0.0000 0.0000 0.0000
# 2 4.8576 65.6070 -26.9857 0.0000 0.0000 0.0000
# 3 -4.5651 -26.9857 88.4770 0.0000 0.0000 0.0000
# 4 0.0000 0.0000 0.0000 27.1387 0.0000 0.0000
# 5 0.0000 0.0000 0.0000 0.0000 -4.2100 0.0000
# 6 0.0000 0.0000 0.0000 0.0000 0.0000 26.6507
#
#
#
# Elastic Compliance Matrix: (Units=1/GPa)
#
#
# Indices 1 2 3 4 5 6 
#
# 1 0.014831 -0.000896 0.000492 0.000000 0.000000 0.000000
# 2 -0.000896 0.017483 0.005286 0.000000 0.000000 0.000000
# 3 0.000492 0.005286 0.012940 0.000000 0.000000 0.000000
# 4 0.000000 0.000000 0.000000 0.036848 0.000000 0.000000
# 5 0.000000 0.000000 0.000000 0.000000 -0.237532 0.000000
# 6 0.000000 0.000000 0.000000 0.000000 0.000000 0.037522
#
#
# Mechanical properties :
#
#
# Convention : Reuss Voigt Hill
#
# Bulk Modulus (GPa) = 18.17570 18.73001 18.45286
# Shear Modulus (GPa) = -45.73170 26.49252 -9.61959
#
# Velocity S-wave (km/s) = -4.74143 3.60880 -2.17460
# Velocity P-wave (km/s) = 4.58693 5.15481 1.66314
#
# Compressibility (1/GPa) = 0.05501850
#
# Stress axis : x y z
#
# Youngs Moduli (GPa) = 67.42755 57.19873 77.27959
#
# Poissons Ratio (x) = 0.05123 -0.03802
# Poissons Ratio (y) = 0.06040 -0.40851
# Poissons Ratio (z) = -0.03318 -0.30236
#
# Static dielectric constant tensor:
#      x y z
#    x 1.735720 0.000000 0.000000 
#    y 0.000000 1.703740 0.000000 
#    z 0.000000 0.000000 1.714240 
# 
# From -- ./inp_files/27068.got.cif
#   From: 2010.05.17/outbox.cif.g08.bks.cpg/sg66_14_cif.got.tgz:27068.got - 2010.06.03 17:51:23.
