data_PCOD9498587
_publ_section_title
;
Structure prediction by ZEFSAII (Michael W. Deem and Ramdas Pophale) SiO2 
 PCOD9498587
Probable space group: C C C M
;
_chemical_formula_sum "Si O2"
_cell_formula_units_Z 104
_cell_length_a 9.880450
_cell_length_b 25.714121
_cell_length_c 21.070890
_cell_angle_alpha 90.000000
_cell_angle_beta 90.000000
_cell_angle_gamma 90.000000
_cell_volume 5353.419639
_symmetry_space_group_name_H-M "C C C M"
_symmetry_group_IT_number 66
_symmetry_cell_setting 'orthorhombic'
loop_
_space_group_symop_operation_xyz
x,y,z
-x,-y,z
x,-y,1/2-z
-x,y,1/2-z
-x,-y,-z
x,y,-z
-x,y,1/2+z
x,-y,1/2+z
1/2+x,1/2+y,z
1/2-x,1/2-y,z
1/2+x,1/2-y,1/2-z
1/2-x,1/2+y,1/2-z
1/2-x,1/2-y,-z
1/2+x,1/2+y,-z
1/2-x,1/2+y,1/2+z
1/2+x,1/2-y,1/2+z
loop_
_atom_site_type_symbol
_atom_site_label
_atom_site_fract_x
_atom_site_fract_y
_atom_site_fract_z
Si Si1 0.487838 0.142820 0.107732
Si Si2 0.790342 0.559033 0.633723
Si Si3 0.591581 0.550498 0.000000
Si Si4 0.839583 0.107534 0.748747
Si Si5 0.160317 0.302763 0.500000
Si Si6 0.279890 0.942202 0.619115
Si Si7 0.351180 0.798165 0.720333
Si Si8 0.328685 0.595505 0.000000
O O1 0.597169 0.104279 0.140362
O O2 0.384323 0.097854 0.085922
O O3 0.397588 0.177275 0.154046
O O4 0.564784 0.181624 0.059906
O O5 0.688619 0.569721 0.691646
O O6 0.838333 0.499305 0.635697
O O7 0.725877 0.568537 0.564111
O O8 0.500000 0.500000 0.000000
O O9 0.671391 0.549721 0.064735
O O10 0.488827 0.598085 0.000000
O O11 0.788523 0.081028 0.682958
O O12 0.741657 0.158052 0.754766
O O13 0.000000 0.120320 0.750000
O O14 0.250000 0.250000 0.500000
O O15 0.271442 0.347355 0.500000
O O16 0.500000 0.786130 0.750000
O O17 0.250000 0.750000 0.714288
#
# Coordination Sequence:
#
# PCOD9498587 Si02
#       8
#    16  16   8  16   8  16  16   8
#     4  10  23  43  64  95 129 161 223 270 331 409
#     4  11  20  40  63  93 133 175 215 268 329 397
#     4  12  21  39  58  93 134 172 225 263 324 395
#     4  11  24  39  61  99 137 170 222 275 326 395
#     4  10  23  46  67  93 123 168 223 279 341 394
#     4  11  23  36  65  93 133 179 213 269 333 398
#     4  11  23  45  67  93 125 174 221 275 337 394
#     4  10  22  37  63  88 126 171 219 266 321 396
#
# _framework density 19.426833999999999
#
# number of rings (size 3 to 8) (size 9 to 14) (size 15 to 20)
#    0.000    1.231    3.077    2.769    0.000    1.231 
#   11.077    5.000    0.000    0.000    0.000    0.000 
#    0.000    0.000    0.000    0.000    0.000    0.000 
#
# Total GULP energy -289564.575301 kJ/mol
# GULP energy per Si atom -5568.549525 kJ/mol
# Density = 1.938262 g / cm^3
# Si number density = 19.426834 Si / 1000 Ang^3
#
#
#
# Elastic Constant Matrix: (Units=GPa)
#
#
# Indices 1 2 3 4 5 6 
#
# 1 135.8602 71.5138 47.0706 0.0000 0.0000 0.0000
# 2 71.5138 134.6308 51.3011 0.0000 0.0000 0.0000
# 3 47.0706 51.3011 84.0674 0.0000 0.0000 0.0000
# 4 0.0000 0.0000 0.0000 19.0465 0.0000 0.0000
# 5 0.0000 0.0000 0.0000 0.0000 13.1435 0.0000
# 6 0.0000 0.0000 0.0000 0.0000 0.0000 47.1105
#
#
#
# Elastic Compliance Matrix: (Units=1/GPa)
#
#
# Indices 1 2 3 4 5 6 
#
# 1 0.010895 -0.004512 -0.003347 0.000000 0.000000 0.000000
# 2 -0.004512 0.011547 -0.004520 0.000000 0.000000 0.000000
# 3 -0.003347 -0.004520 0.016527 0.000000 0.000000 0.000000
# 4 0.000000 0.000000 0.000000 0.052503 0.000000 0.000000
# 5 0.000000 0.000000 0.000000 0.000000 0.076083 0.000000
# 6 0.000000 0.000000 0.000000 0.000000 0.000000 0.021227
#
#
# Mechanical properties :
#
#
# Convention : Reuss Voigt Hill
#
# Bulk Modulus (GPa) = 70.36513 77.14771 73.75642
# Shear Modulus (GPa) = 22.90663 28.17161 25.53912
#
# Velocity S-wave (km/s) = 3.43756 3.81220 3.62972
# Velocity P-wave (km/s) = 7.21491 7.69255 7.45756
#
# Compressibility (1/GPa) = 0.01421159
#
# Stress axis : x y z
#
# Youngs Moduli (GPa) = 91.78436 86.60461 60.50531
#
# Poissons Ratio (x) = 0.39076 0.20251
# Poissons Ratio (y) = 0.41413 0.27348
# Poissons Ratio (z) = 0.30720 0.39145
#
# Static dielectric constant tensor:
#      x y z
#    x 1.738200 0.000000 0.000000 
#    y 0.000000 1.709130 0.000000 
#    z 0.000000 0.000000 1.688610 
# 
# From -- ./inp_files/47463.got.cif
#   From: 2010.05.17/outbox.cif.g08.bks.cpg/sg66_24_cif.got.tgz:47463.got - 2010.06.03 17:51:23.
