data_PCOD9498034
_publ_section_title
;
Structure prediction by ZEFSAII (Michael W. Deem and Ramdas Pophale) SiO2 
 PCOD9498034
Probable space group: C C C M
;
_chemical_formula_sum "Si O2"
_cell_formula_units_Z 112
_cell_length_a 17.582981
_cell_length_b 20.317854
_cell_length_c 14.200799
_cell_angle_alpha 90.000000
_cell_angle_beta 90.000000
_cell_angle_gamma 90.000000
_cell_volume 5073.213301
_symmetry_space_group_name_H-M "C C C M"
_symmetry_group_IT_number 66
_symmetry_cell_setting 'orthorhombic'
loop_
_space_group_symop_operation_xyz
x,y,z
-x,-y,z
x,-y,1/2-z
-x,y,1/2-z
-x,-y,-z
x,y,-z
-x,y,1/2+z
x,-y,1/2+z
1/2+x,1/2+y,z
1/2-x,1/2-y,z
1/2+x,1/2-y,1/2-z
1/2-x,1/2+y,1/2-z
1/2-x,1/2-y,-z
1/2+x,1/2+y,-z
1/2-x,1/2+y,1/2+z
1/2+x,1/2-y,1/2+z
loop_
_atom_site_type_symbol
_atom_site_label
_atom_site_fract_x
_atom_site_fract_y
_atom_site_fract_z
Si Si1 0.187036 0.397068 0.187939
Si Si2 0.154628 0.817926 0.892539
Si Si3 0.590551 0.575274 0.247158
Si Si4 0.787271 0.404797 0.104733
Si Si5 0.409170 0.223261 0.756279
Si Si6 0.664766 0.668746 0.110089
Si Si7 0.914159 0.492185 0.863253
O O1 0.224740 0.426407 0.284709
O O2 0.119026 0.349776 0.222321
O O3 0.249802 0.350005 0.141342
O O4 0.149806 0.451213 0.119081
O O5 0.120872 0.879405 0.832718
O O6 0.245084 0.834084 0.891981
O O7 0.126335 0.753920 0.838376
O O8 0.128869 0.817380 0.000000
O O9 0.615117 0.500000 0.250000
O O10 0.500000 0.577963 0.250000
O O11 0.617744 0.607113 0.149834
O O12 0.876163 0.424470 0.102410
O O13 0.758895 0.429832 0.000000
O O14 0.500000 0.228086 0.750000
O O15 0.372303 0.269716 0.836307
O O16 0.660845 0.677792 0.000000
O O17 0.918993 0.500000 0.750000
O O18 0.000000 0.500000 0.897660
#
# Coordination Sequence:
#
# PCOD9498034 Si02
#       7
#    16  16  16  16  16  16  16
#     4  11  23  41  66  96 128 170 218 267 324 388
#     4  10  21  39  64  93 126 165 212 264 317 376
#     4  10  22  39  63  96 128 167 214 264 326 389
#     4  10  21  37  64  94 126 165 211 261 315 380
#     4  11  25  42  66  93 126 171 217 267 324 385
#     4  11  24  43  66  93 130 173 220 271 324 387
#     4   9  21  39  63  93 131 171 208 260 323 387
#
# _framework density 22.076737999999999
#
# number of rings (size 3 to 8) (size 9 to 14) (size 15 to 20)
#    0.000    1.714    2.857    2.143    6.000    5.429 
#    0.000    2.857    0.000    0.000    0.000    0.000 
#    0.000    0.000    0.000    0.000    0.000    0.000 
#
# Total GULP energy -311857.183711 kJ/mol
# GULP energy per Si atom -5568.878281 kJ/mol
# Density = 2.202649 g / cm^3
# Si number density = 22.076738 Si / 1000 Ang^3
#
#
#
# Elastic Constant Matrix: (Units=GPa)
#
#
# Indices 1 2 3 4 5 6 
#
# 1 153.1979 47.3207 35.2243 0.0000 0.0000 0.0000
# 2 47.3207 79.8645 19.6104 0.0000 0.0000 0.0000
# 3 35.2243 19.6104 159.8824 0.0000 0.0000 0.0000
# 4 0.0000 0.0000 0.0000 1875.3887 0.0000 0.0000
# 5 0.0000 0.0000 0.0000 0.0000 -5.4270 0.0000
# 6 0.0000 0.0000 0.0000 0.0000 0.0000 38.6042
#
#
#
# Elastic Compliance Matrix: (Units=1/GPa)
#
#
# Indices 1 2 3 4 5 6 
#
# 1 0.008226 -0.004566 -0.001252 0.000000 0.000000 0.000000
# 2 -0.004566 0.015445 -0.000888 0.000000 0.000000 0.000000
# 3 -0.001252 -0.000888 0.006639 0.000000 0.000000 0.000000
# 4 0.000000 0.000000 0.000000 0.000533 0.000000 0.000000
# 5 0.000000 0.000000 0.000000 0.000000 -0.184263 0.000000
# 6 0.000000 0.000000 0.000000 0.000000 0.000000 0.025904
#
#
# Mechanical properties :
#
#
# Convention : Reuss Voigt Hill
#
# Bulk Modulus (GPa) = 59.18441 66.36173 62.77307
# Shear Modulus (GPa) = -46.09619 401.09912 177.50146
#
# Velocity S-wave (km/s) = -4.57442 13.49365 8.97645
# Velocity P-wave (km/s) = 1.01672 16.51957 11.65895
#
# Compressibility (1/GPa) = 0.01689634
#
# Stress axis : x y z
#
# Youngs Moduli (GPa) = 121.56658 64.74573 150.61529
#
# Poissons Ratio (x) = 0.29566 0.18860
# Poissons Ratio (y) = 0.55513 0.13380
# Poissons Ratio (z) = 0.15222 0.05752
#
# Static dielectric constant tensor:
#      x y z
#    x 1.849550 0.000000 0.000000 
#    y 0.000000 1.836190 0.000000 
#    z 0.000000 0.000000 1.820600 
# 
# From -- ./inp_files/28697.got.cif
#   From: 2010.05.17/outbox.cif.g08.bks.cpg/sg66_15_cif.got.tgz:28697.got - 2010.06.03 17:51:23.
