data_PCOD9498474
_publ_section_title
;
Structure prediction by ZEFSAII (Michael W. Deem and Ramdas Pophale) SiO2 
 PCOD9498474
Probable space group: C C C M
;
_chemical_formula_sum "Si O2"
_cell_formula_units_Z 52
_cell_length_a 6.775196
_cell_length_b 12.539089
_cell_length_c 25.028510
_cell_angle_alpha 90.000000
_cell_angle_beta 90.000000
_cell_angle_gamma 90.000000
_cell_volume 2126.291702
_symmetry_space_group_name_H-M "C C C M"
_symmetry_group_IT_number 66
_symmetry_cell_setting 'orthorhombic'
loop_
_space_group_symop_operation_xyz
x,y,z
-x,-y,z
x,-y,1/2-z
-x,y,1/2-z
-x,-y,-z
x,y,-z
-x,y,1/2+z
x,-y,1/2+z
1/2+x,1/2+y,z
1/2-x,1/2-y,z
1/2+x,1/2-y,1/2-z
1/2-x,1/2+y,1/2-z
1/2-x,1/2-y,-z
1/2+x,1/2+y,-z
1/2-x,1/2+y,1/2+z
1/2+x,1/2-y,1/2+z
loop_
_atom_site_type_symbol
_atom_site_label
_atom_site_fract_x
_atom_site_fract_y
_atom_site_fract_z
Si Si1 0.709436 0.124756 0.058488
Si Si2 0.464274 0.649498 0.839656
Si Si3 0.569900 0.114149 0.647404
Si Si4 0.000000 0.000000 0.250000
O O1 0.750000 0.250000 0.051909
O O2 0.858354 0.102352 0.107558
O O3 0.492594 0.112681 0.084499
O O4 0.734501 0.074330 0.000000
O O5 0.300987 0.629023 0.655466
O O6 0.391062 0.582457 0.789099
O O7 0.042318 0.721809 0.833329
O O8 0.500000 0.000000 0.669216
#
# Coordination Sequence:
#
# PCOD9498474 Si02
#       4
#    16  16  16   4
#     4   9  19  39  69 100 135 177 220 275 341 412
#     4  10  23  43  65  95 136 175 227 279 336 402
#     4  10  21  42  63  97 135 170 220 275 337 411
#     4  12  24  48  66  88 128 178 228 280 330 408
#
# _framework density 24.455722000000002
#
# number of rings (size 3 to 8) (size 9 to 14) (size 15 to 20)
#    0.000    2.154    0.000    1.846    0.000    1.846 
#   27.692   13.077    0.000    0.000    0.000    0.000 
#    0.000    0.000    0.000    0.000    0.000    0.000 
#
# Total GULP energy -144996.757070 kJ/mol
# GULP energy per Si atom -5576.798349 kJ/mol
# Density = 2.440006 g / cm^3
# Si number density = 24.455722 Si / 1000 Ang^3
#
#
#
# Elastic Constant Matrix: (Units=GPa)
#
#
# Indices 1 2 3 4 5 6 
#
# 1 105.2026 11.9357 39.9521 0.0000 0.0000 0.0000
# 2 11.9357 179.7292 63.5463 0.0000 0.0000 0.0000
# 3 39.9521 63.5463 168.3362 0.0000 0.0000 0.0000
# 4 0.0000 0.0000 0.0000 43.9609 0.0000 0.0000
# 5 0.0000 0.0000 0.0000 0.0000 40.8371 0.0000
# 6 0.0000 0.0000 0.0000 0.0000 0.0000 31.9142
#
#
#
# Elastic Compliance Matrix: (Units=1/GPa)
#
#
# Indices 1 2 3 4 5 6 
#
# 1 0.010454 0.000211 -0.002561 0.000000 0.000000 0.000000
# 2 0.000211 0.006425 -0.002476 0.000000 0.000000 0.000000
# 3 -0.002561 -0.002476 0.007483 0.000000 0.000000 0.000000
# 4 0.000000 0.000000 0.000000 0.022747 0.000000 0.000000
# 5 0.000000 0.000000 0.000000 0.000000 0.024488 0.000000
# 6 0.000000 0.000000 0.000000 0.000000 0.000000 0.031334
#
#
# Mechanical properties :
#
#
# Convention : Reuss Voigt Hill
#
# Bulk Modulus (GPa) = 67.97403 76.01514 71.99458
# Shear Modulus (GPa) = 42.55849 45.86470 44.21160
#
# Velocity S-wave (km/s) = 4.17613 4.33531 4.25646
# Velocity P-wave (km/s) = 7.14902 7.49734 7.32525
#
# Compressibility (1/GPa) = 0.01471150
#
# Stress axis : x y z
#
# Youngs Moduli (GPa) = 95.65699 155.63735 133.63986
#
# Poissons Ratio (x) = -0.03287 0.34223
# Poissons Ratio (y) = -0.02020 0.33084
# Poissons Ratio (z) = 0.24496 0.38530
#
# Static dielectric constant tensor:
#      x y z
#    x 2.022590 0.000000 0.000000 
#    y 0.000000 2.037750 0.000000 
#    z 0.000000 0.000000 1.978190 
# 
# From -- ./inp_files/35976.got.cif
#   From: 2010.05.17/outbox.cif.g08.bks.cpg/sg66_18_cif.got.tgz:35976.got - 2010.06.03 17:51:23.
