data_PCOD9498146
_publ_section_title
;
Structure prediction by ZEFSAII (Michael W. Deem and Ramdas Pophale) SiO2 
 PCOD9498146
Probable space group: C C C M
;
_chemical_formula_sum "Si O2"
_cell_formula_units_Z 68
_cell_length_a 29.875994
_cell_length_b 5.246049
_cell_length_c 24.056379
_cell_angle_alpha 90.000000
_cell_angle_beta 90.000000
_cell_angle_gamma 90.000000
_cell_volume 3770.378616
_symmetry_space_group_name_H-M "C C C M"
_symmetry_group_IT_number 66
_symmetry_cell_setting 'orthorhombic'
loop_
_space_group_symop_operation_xyz
x,y,z
-x,-y,z
x,-y,1/2-z
-x,y,1/2-z
-x,-y,-z
x,y,-z
-x,y,1/2+z
x,-y,1/2+z
1/2+x,1/2+y,z
1/2-x,1/2-y,z
1/2+x,1/2-y,1/2-z
1/2-x,1/2+y,1/2-z
1/2-x,1/2-y,-z
1/2+x,1/2+y,-z
1/2-x,1/2+y,1/2+z
1/2+x,1/2-y,1/2+z
loop_
_atom_site_type_symbol
_atom_site_label
_atom_site_fract_x
_atom_site_fract_y
_atom_site_fract_z
Si Si1 0.370587 0.465740 0.615773
Si Si2 0.541217 0.682623 0.846957
Si Si3 0.000000 0.500000 0.250000
Si Si4 0.405595 0.951169 0.563845
Si Si5 0.220388 0.000706 0.315835
O O1 0.413193 0.518801 0.656150
O O2 0.375328 0.698236 0.572113
O O3 0.324587 0.485526 0.648523
O O4 0.379675 0.196920 0.586618
O O5 0.500000 0.500000 0.861821
O O6 0.552813 0.885895 0.895451
O O7 0.529521 0.825183 0.790366
O O8 0.418444 0.985331 0.500000
O O9 0.250000 0.750000 0.327496
O O10 0.209283 0.000000 0.250000
O O11 0.250000 0.250000 0.326911
#
# Coordination Sequence:
#
# PCOD9498146 Si02
#       5
#    16  16   4  16  16
#     4  10  22  40  64  92 122 169 203 259 319 359
#     4  10  24  39  63  93 126 169 202 258 306 379
#     4  12  22  44  58  94 140 154 216 244 316 378
#     4  10  22  41  64  92 124 166 216 257 307 364
#     4  10  21  38  62  94 127 162 206 258 310 378
#
# _framework density 18.035323999999999
#
# number of rings (size 3 to 8) (size 9 to 14) (size 15 to 20)
#    1.412    0.471    0.000    3.882    0.000    4.235 
#    2.118    1.765    0.000   14.118    0.000    0.000 
#    0.000    0.000    0.000    0.000    0.000    0.000 
#
# Total GULP energy -189509.015983 kJ/mol
# GULP energy per Si atom -5573.794588 kJ/mol
# Density = 1.799427 g / cm^3
# Si number density = 18.035324 Si / 1000 Ang^3
#
#
#
# Elastic Constant Matrix: (Units=GPa)
#
#
# Indices 1 2 3 4 5 6 
#
# 1 112.8603 53.1160 73.4872 0.0000 0.0000 0.0000
# 2 53.1160 152.6759 59.3222 0.0000 0.0000 0.0000
# 3 73.4872 59.3222 128.3553 0.0000 0.0000 0.0000
# 4 0.0000 0.0000 0.0000 13.2272 0.0000 0.0000
# 5 0.0000 0.0000 0.0000 0.0000 -55.6074 0.0000
# 6 0.0000 0.0000 0.0000 0.0000 0.0000 12.7828
#
#
#
# Elastic Compliance Matrix: (Units=1/GPa)
#
#
# Indices 1 2 3 4 5 6 
#
# 1 0.014737 -0.002253 -0.007396 0.000000 0.000000 0.000000
# 2 -0.002253 0.008328 -0.002559 0.000000 0.000000 0.000000
# 3 -0.007396 -0.002559 0.013208 0.000000 0.000000 0.000000
# 4 0.000000 0.000000 0.000000 0.075602 0.000000 0.000000
# 5 0.000000 0.000000 0.000000 0.000000 -0.017983 0.000000
# 6 0.000000 0.000000 0.000000 0.000000 0.000000 0.078230
#
#
# Mechanical properties :
#
#
# Convention : Reuss Voigt Hill
#
# Bulk Modulus (GPa) = 84.34131 85.08248 84.71190
# Shear Modulus (GPa) = 24.93894 7.94491 16.44193
#
# Velocity S-wave (km/s) = 3.72261 2.10113 3.02263
# Velocity P-wave (km/s) = 8.08351 7.29138 7.69764
#
# Compressibility (1/GPa) = 0.01185659
#
# Stress axis : x y z
#
# Youngs Moduli (GPa) = 67.85826 120.07702 75.71276
#
# Poissons Ratio (x) = 0.27056 0.55995
# Poissons Ratio (y) = 0.15290 0.19374
# Poissons Ratio (z) = 0.50186 0.30727
#
# Static dielectric constant tensor:
#      x y z
#    x 1.589670 0.000000 0.000000 
#    y 0.000000 1.637250 0.000000 
#    z 0.000000 0.000000 1.594350 
# 
# From -- ./inp_files/60028.got.cif
#   From: 2010.05.17/outbox.cif.g08.bks.cpg/sg66_31_cif.got.tgz:60028.got - 2010.06.03 17:51:23.
