data_PCOD9498463
_publ_section_title
;
Structure prediction by ZEFSAII (Michael W. Deem and Ramdas Pophale) SiO2 
 PCOD9498463
Probable space group: C C C M
;
_chemical_formula_sum "Si O2"
_cell_formula_units_Z 116
_cell_length_a 24.871306
_cell_length_b 9.589261
_cell_length_c 25.182095
_cell_angle_alpha 90.000000
_cell_angle_beta 90.000000
_cell_angle_gamma 90.000000
_cell_volume 6005.865308
_symmetry_space_group_name_H-M "C C C M"
_symmetry_group_IT_number 66
_symmetry_cell_setting 'orthorhombic'
loop_
_space_group_symop_operation_xyz
x,y,z
-x,-y,z
x,-y,1/2-z
-x,y,1/2-z
-x,-y,-z
x,y,-z
-x,y,1/2+z
x,-y,1/2+z
1/2+x,1/2+y,z
1/2-x,1/2-y,z
1/2+x,1/2-y,1/2-z
1/2-x,1/2+y,1/2-z
1/2-x,1/2-y,-z
1/2+x,1/2+y,-z
1/2-x,1/2+y,1/2+z
1/2+x,1/2-y,1/2+z
loop_
_atom_site_type_symbol
_atom_site_label
_atom_site_fract_x
_atom_site_fract_y
_atom_site_fract_z
Si Si1 0.108265 0.760975 0.122693
Si Si2 0.435375 0.295810 0.166685
Si Si3 0.874917 0.521206 0.812884
Si Si4 0.742076 0.084307 0.361312
Si Si5 0.210119 0.879250 0.941829
Si Si6 0.649698 0.502562 0.312049
Si Si7 0.001862 0.168111 0.439208
Si Si8 0.000000 0.000000 0.250000
O O1 0.108307 0.613090 0.152063
O O2 0.161555 0.815408 0.092414
O O3 0.059584 0.780619 0.082121
O O4 0.110907 0.872059 0.170187
O O5 0.420655 0.140077 0.184199
O O6 0.377549 0.369778 0.160981
O O7 0.462591 0.290936 0.108965
O O8 0.467957 0.393022 0.209445
O O9 0.865806 0.500000 0.750000
O O10 0.817368 0.559921 0.838917
O O11 0.750000 0.250000 0.363341
O O12 0.787237 0.005825 0.325425
O O13 0.756846 0.007179 0.416398
O O14 0.250000 0.750000 0.945527
O O15 0.189679 0.919148 0.000000
O O16 0.645837 0.500000 0.250000
O O17 0.991006 0.216093 0.500000
O O18 0.000000 0.000000 0.440301
#
# Coordination Sequence:
#
# PCOD9498463 Si02
#       8
#    16  16  16  16  16  16  16   4
#     4  11  23  43  65  96 132 172 222 273 334 401
#     4  12  24  44  69  99 129 177 225 273 342 393
#     4  12  27  43  64 102 142 176 217 274 337 407
#     4  11  23  41  63  97 142 174 222 273 330 402
#     4  10  21  41  69  96 127 175 225 274 333 398
#     4  11  21  38  66  94 130 178 219 264 327 404
#     4  11  24  45  70  97 127 169 230 286 331 397
#     4  12  24  44  72  96 136 172 230 286 324 418
#
# _framework density 19.314454000000001
#
# number of rings (size 3 to 8) (size 9 to 14) (size 15 to 20)
#    0.000    0.828    5.517    1.655    1.931    0.828 
#    0.000    2.759    0.000    0.000    0.000    0.000 
#    0.000    0.000    0.000    0.000    0.000    0.000 
#
# Total GULP energy -323102.098525 kJ/mol
# GULP energy per Si atom -5570.725837 kJ/mol
# Density = 1.927049 g / cm^3
# Si number density = 19.314454 Si / 1000 Ang^3
#
#
#
# Elastic Constant Matrix: (Units=GPa)
#
#
# Indices 1 2 3 4 5 6 
#
# 1 49.2863 18.3268 46.0208 0.0000 0.0000 0.0000
# 2 18.3268 117.7198 52.4514 0.0000 0.0000 0.0000
# 3 46.0208 52.4514 139.9312 0.0000 0.0000 0.0000
# 4 0.0000 0.0000 0.0000 -728.2250 0.0000 0.0000
# 5 0.0000 0.0000 0.0000 0.0000 -3.4486 0.0000
# 6 0.0000 0.0000 0.0000 0.0000 0.0000 29.1985
#
#
#
# Elastic Compliance Matrix: (Units=1/GPa)
#
#
# Indices 1 2 3 4 5 6 
#
# 1 0.029292 -0.000322 -0.009513 0.000000 0.000000 0.000000
# 2 -0.000322 0.010201 -0.003718 0.000000 0.000000 0.000000
# 3 -0.009513 -0.003718 0.011669 0.000000 0.000000 0.000000
# 4 0.000000 0.000000 0.000000 -0.001373 0.000000 0.000000
# 5 0.000000 0.000000 0.000000 0.000000 -0.289974 0.000000
# 6 0.000000 0.000000 0.000000 0.000000 0.000000 0.034248
#
#
# Mechanical properties :
#
#
# Convention : Reuss Voigt Hill
#
# Bulk Modulus (GPa) = 41.56856 60.05947 50.81402
# Shear Modulus (GPa) = -29.27192 -127.81912 -78.54552
#
# Velocity S-wave (km/s) = -3.89722 -8.14381 -6.38396
# Velocity P-wave (km/s) = 1.14786 7.56741 5.28905
#
# Compressibility (1/GPa) = 0.02405664
#
# Stress axis : x y z
#
# Youngs Moduli (GPa) = 34.13912 98.02508 85.69915
#
# Poissons Ratio (x) = 0.03152 0.81526
# Poissons Ratio (y) = 0.01098 0.31864
# Poissons Ratio (z) = 0.32477 0.36447
#
# Static dielectric constant tensor:
#      x y z
#    x 1.668280 0.000000 0.000000 
#    y 0.000000 1.708210 0.000000 
#    z 0.000000 0.000000 1.721940 
# 
# From -- ./inp_files/62879.got.cif
#   From: 2010.05.17/outbox.cif.g08.bks.cpg/sg66_32_cif.got.tgz:62879.got - 2010.06.03 17:51:23.
