data_PCOD9498771
_publ_section_title
;
Structure prediction by ZEFSAII (Michael W. Deem and Ramdas Pophale) SiO2 
 PCOD9498771
Probable space group: C C C M
;
_chemical_formula_sum "Si O2"
_cell_formula_units_Z 116
_cell_length_a 12.383920
_cell_length_b 17.489052
_cell_length_c 26.985104
_cell_angle_alpha 90.000000
_cell_angle_beta 90.000000
_cell_angle_gamma 90.000000
_cell_volume 5844.515342
_symmetry_space_group_name_H-M "C C C M"
_symmetry_group_IT_number 66
_symmetry_cell_setting 'orthorhombic'
loop_
_space_group_symop_operation_xyz
x,y,z
-x,-y,z
x,-y,1/2-z
-x,y,1/2-z
-x,-y,-z
x,y,-z
-x,y,1/2+z
x,-y,1/2+z
1/2+x,1/2+y,z
1/2-x,1/2-y,z
1/2+x,1/2-y,1/2-z
1/2-x,1/2+y,1/2-z
1/2-x,1/2-y,-z
1/2+x,1/2+y,-z
1/2-x,1/2+y,1/2+z
1/2+x,1/2-y,1/2+z
loop_
_atom_site_type_symbol
_atom_site_label
_atom_site_fract_x
_atom_site_fract_y
_atom_site_fract_z
Si Si1 0.250000 0.750000 0.000000
Si Si2 0.578413 0.926358 0.890921
Si Si3 0.344291 0.699030 0.285200
Si Si4 0.749360 0.475943 0.058626
Si Si5 0.609642 0.457608 0.143266
Si Si6 0.080414 0.784967 0.825315
Si Si7 0.712160 0.952373 0.796750
Si Si8 0.883894 0.325218 0.913298
O O1 0.159123 0.729714 0.956481
O O2 0.624377 0.918068 0.834978
O O3 0.506677 0.857975 0.912989
O O4 0.500000 0.000000 0.889334
O O5 0.678169 0.951601 0.925523
O O6 0.250000 0.750000 0.307162
O O7 0.371543 0.724614 0.229421
O O8 0.451386 0.710293 0.317121
O O9 0.295462 0.614133 0.281323
O O10 0.635591 0.477855 0.086386
O O11 0.809614 0.400374 0.079746
O O12 0.742285 0.467954 0.000000
O O13 0.500000 0.500000 0.159675
O O14 0.606216 0.367787 0.152338
O O15 0.712700 0.489750 0.172562
O O16 0.122013 0.718942 0.861312
O O17 0.667573 0.000000 0.750000
#
# Coordination Sequence:
#
# PCOD9498771 Si02
#       8
#     4  16  16  16  16  16  16  16
#     4  12  24  36  70  92 120 176 206 272 342 380
#     4   9  22  39  64  91 127 165 203 271 321 381
#     4  11  24  38  61  91 124 178 216 255 323 383
#     4  10  22  40  67  95 122 165 213 264 336 390
#     4  11  22  39  64  92 124 168 210 269 317 380
#     4  11  24  39  61  91 132 170 210 271 319 378
#     4  11  21  39  64  90 125 169 219 256 314 392
#     4  11  23  41  61  95 132 159 216 268 330 390
#
# _framework density 19.847667999999999
#
# number of rings (size 3 to 8) (size 9 to 14) (size 15 to 20)
#    0.000    1.379    3.448    1.655    3.862    2.759 
#    0.000    0.000    0.000    0.000    0.000    2.414 
#    0.000    0.000    0.000    0.000    0.000    0.000 
#
# Total GULP energy -323174.398880 kJ/mol
# GULP energy per Si atom -5571.972394 kJ/mol
# Density = 1.980249 g / cm^3
# Si number density = 19.847668 Si / 1000 Ang^3
#
#
#
# Elastic Constant Matrix: (Units=GPa)
#
#
# Indices 1 2 3 4 5 6 
#
# 1 82.3131 6.1724 28.8273 0.0000 0.0000 0.0000
# 2 6.1724 46.1205 26.6189 0.0000 0.0000 0.0000
# 3 28.8273 26.6189 116.6211 0.0000 0.0000 0.0000
# 4 0.0000 0.0000 0.0000 10.2501 0.0000 0.0000
# 5 0.0000 0.0000 0.0000 0.0000 25.2973 0.0000
# 6 0.0000 0.0000 0.0000 0.0000 0.0000 24.9446
#
#
#
# Elastic Compliance Matrix: (Units=1/GPa)
#
#
# Indices 1 2 3 4 5 6 
#
# 1 0.013301 0.000135 -0.003319 0.000000 0.000000 0.000000
# 2 0.000135 0.024973 -0.005734 0.000000 0.000000 0.000000
# 3 -0.003319 -0.005734 0.010704 0.000000 0.000000 0.000000
# 4 0.000000 0.000000 0.000000 0.097560 0.000000 0.000000
# 5 0.000000 0.000000 0.000000 0.000000 0.039530 0.000000
# 6 0.000000 0.000000 0.000000 0.000000 0.000000 0.040089
#
#
# Mechanical properties :
#
#
# Convention : Reuss Voigt Hill
#
# Bulk Modulus (GPa) = 32.10886 40.92133 36.51509
# Shear Modulus (GPa) = 19.65620 24.32747 21.99183
#
# Velocity S-wave (km/s) = 3.15040 3.50481 3.33232
# Velocity P-wave (km/s) = 5.42643 6.08611 5.76571
#
# Compressibility (1/GPa) = 0.03114406
#
# Stress axis : x y z
#
# Youngs Moduli (GPa) = 75.18325 40.04254 93.42452
#
# Poissons Ratio (x) = -0.00542 0.31005
# Poissons Ratio (y) = -0.01017 0.53566
# Poissons Ratio (z) = 0.24951 0.22959
#
# Static dielectric constant tensor:
#      x y z
#    x 1.712430 0.000000 0.000000 
#    y 0.000000 1.725800 0.000000 
#    z 0.000000 0.000000 1.703940 
# 
# From -- ./inp_files/63845.got.cif
#   From: 2010.05.17/outbox.cif.g08.bks.cpg/sg66_32_cif.got.tgz:63845.got - 2010.06.03 17:51:23.
