data_PCOD9498784
_publ_section_title
;
Structure prediction by ZEFSAII (Michael W. Deem and Ramdas Pophale) SiO2 
 PCOD9498784
Probable space group: C C C M
;
_chemical_formula_sum "Si O2"
_cell_formula_units_Z 80
_cell_length_a 6.828389
_cell_length_b 17.861028
_cell_length_c 27.071054
_cell_angle_alpha 90.000000
_cell_angle_beta 90.000000
_cell_angle_gamma 90.000000
_cell_volume 3301.641164
_symmetry_space_group_name_H-M "C C C M"
_symmetry_group_IT_number 66
_symmetry_cell_setting 'orthorhombic'
loop_
_space_group_symop_operation_xyz
x,y,z
-x,-y,z
x,-y,1/2-z
-x,y,1/2-z
-x,-y,-z
x,y,-z
-x,y,1/2+z
x,-y,1/2+z
1/2+x,1/2+y,z
1/2-x,1/2-y,z
1/2+x,1/2-y,1/2-z
1/2-x,1/2+y,1/2-z
1/2-x,1/2-y,-z
1/2+x,1/2+y,-z
1/2-x,1/2+y,1/2+z
1/2+x,1/2-y,1/2+z
loop_
_atom_site_type_symbol
_atom_site_label
_atom_site_fract_x
_atom_site_fract_y
_atom_site_fract_z
Si Si1 0.265077 0.002800 0.946559
Si Si2 0.198968 0.336060 0.158487
Si Si3 0.907713 0.927299 0.348974
Si Si4 0.270792 0.661577 0.764479
Si Si5 0.354593 0.168485 0.946269
O O1 0.179281 0.959111 0.900082
O O2 0.500000 0.000000 0.942892
O O3 0.226302 0.092181 0.948502
O O4 0.207785 0.970696 0.000000
O O5 0.250000 0.250000 0.166210
O O6 0.406113 0.373655 0.144138
O O7 0.153625 0.360579 0.214567
O O8 0.061800 0.339912 0.109727
O O9 0.752986 0.887614 0.313523
O O10 0.000000 0.000000 0.322646
O O11 0.500000 0.651862 0.750000
O O12 0.250000 0.750000 0.776162
O O13 0.250000 0.250000 0.945314
O O14 0.463477 0.167479 0.000000
#
# Coordination Sequence:
#
# PCOD9498784 Si02
#       5
#    16  16  16  16  16
#     4  10  22  41  60  88 131 166 197 254 325 373
#     4   9  18  35  59  85 119 158 203 252 304 356
#     4  11  21  38  61  93 117 160 210 255 305 370
#     4   9  20  39  59  85 122 163 202 250 309 365
#     4   9  17  33  59  87 114 154 207 250 294 362
#
# _framework density 24.230374999999999
#
# number of rings (size 3 to 8) (size 9 to 14) (size 15 to 20)
#    0.000    2.400    2.000    0.000    0.000    4.800 
#   18.000    0.000    0.000    1.800    0.000    0.000 
#    0.000    0.000    0.000    0.000    0.000    0.000 
#
# Total GULP energy -222712.565182 kJ/mol
# GULP energy per Si atom -5567.814130 kJ/mol
# Density = 2.417523 g / cm^3
# Si number density = 24.230375 Si / 1000 Ang^3
#
#
#
# Elastic Constant Matrix: (Units=GPa)
#
#
# Indices 1 2 3 4 5 6 
#
# 1 73.7710 36.5663 36.7314 0.0000 0.0000 0.0000
# 2 36.5663 141.3991 71.8059 0.0000 0.0000 0.0000
# 3 36.7314 71.8059 287.9554 0.0000 0.0000 0.0000
# 4 0.0000 0.0000 0.0000 63.4250 0.0000 0.0000
# 5 0.0000 0.0000 0.0000 0.0000 -104.0593 0.0000
# 6 0.0000 0.0000 0.0000 0.0000 0.0000 23.5679
#
#
#
# Elastic Compliance Matrix: (Units=1/GPa)
#
#
# Indices 1 2 3 4 5 6 
#
# 1 0.015872 -0.003523 -0.001146 0.000000 0.000000 0.000000
# 2 -0.003523 0.008879 -0.001765 0.000000 0.000000 0.000000
# 3 -0.001146 -0.001765 0.004059 0.000000 0.000000 0.000000
# 4 0.000000 0.000000 0.000000 0.015767 0.000000 0.000000
# 5 0.000000 0.000000 0.000000 0.000000 -0.009610 0.000000
# 6 0.000000 0.000000 0.000000 0.000000 0.000000 0.042431
#
#
# Mechanical properties :
#
#
# Convention : Reuss Voigt Hill
#
# Bulk Modulus (GPa) = 62.72203 88.14809 75.43506
# Shear Modulus (GPa) = 52.31233 20.45484 36.38359
#
# Velocity S-wave (km/s) = 4.65150 2.90863 3.87921
# Velocity P-wave (km/s) = 7.40206 6.90929 7.15992
#
# Compressibility (1/GPa) = 0.01594336
#
# Stress axis : x y z
#
# Youngs Moduli (GPa) = 63.00319 112.62073 246.36173
#
# Poissons Ratio (x) = 0.39671 0.28239
# Poissons Ratio (y) = 0.22193 0.43480
# Poissons Ratio (z) = 0.07222 0.19876
#
# Static dielectric constant tensor:
#      x y z
#    x 2.110910 0.000000 0.000000 
#    y 0.000000 1.638750 0.000000 
#    z 0.000000 0.000000 2.097340 
# 
# From -- ./inp_files/68130.got.cif
#   From: 2010.05.17/outbox.cif.g08.bks.cpg/sg66_35_cif.got.tgz:68130.got - 2010.06.03 17:51:23.
