data_PCOD9498163
_publ_section_title
;
Structure prediction by ZEFSAII (Michael W. Deem and Ramdas Pophale) SiO2 
 PCOD9498163
Probable space group: C C C M
;
_chemical_formula_sum "Si O2"
_cell_formula_units_Z 64
_cell_length_a 7.644992
_cell_length_b 17.808420
_cell_length_c 21.829533
_cell_angle_alpha 90.000000
_cell_angle_beta 90.000000
_cell_angle_gamma 90.000000
_cell_volume 2971.986757
_symmetry_space_group_name_H-M "C C C M"
_symmetry_group_IT_number 66
_symmetry_cell_setting 'orthorhombic'
loop_
_space_group_symop_operation_xyz
x,y,z
-x,-y,z
x,-y,1/2-z
-x,y,1/2-z
-x,-y,-z
x,y,-z
-x,y,1/2+z
x,-y,1/2+z
1/2+x,1/2+y,z
1/2-x,1/2-y,z
1/2+x,1/2-y,1/2-z
1/2-x,1/2+y,1/2-z
1/2-x,1/2-y,-z
1/2+x,1/2+y,-z
1/2-x,1/2+y,1/2+z
1/2+x,1/2-y,1/2+z
loop_
_atom_site_type_symbol
_atom_site_label
_atom_site_fract_x
_atom_site_fract_y
_atom_site_fract_z
Si Si1 0.906950 0.106108 0.608428
Si Si2 0.455173 0.263794 0.681333
Si Si3 0.256747 0.040019 0.569514
Si Si4 0.946269 0.661975 0.932071
O O1 0.760242 0.148016 0.569492
O O2 0.964357 0.153534 0.667908
O O3 0.088910 0.094549 0.573077
O O4 0.806770 0.025787 0.615442
O O5 0.500000 0.239892 0.750000
O O6 0.250000 0.250000 0.675675
O O7 0.526636 0.215241 0.625328
O O8 0.266693 0.008938 0.500000
O O9 0.433284 0.087315 0.579908
O O10 0.999811 0.688526 0.000000
#
# Coordination Sequence:
#
# PCOD9498163 Si02
#       4
#    16  16  16  16
#     4  11  21  39  65  97 132 178 217 270 340 401
#     4  12  26  47  68  93 134 182 231 284 340 405
#     4  10  21  38  64 100 140 172 214 277 335 402
#     4  11  23  40  68 103 136 174 225 280 339 407
#
# _framework density 21.534416
#
# number of rings (size 3 to 8) (size 9 to 14) (size 15 to 20)
#    0.000    1.000    2.500    6.000    0.000    6.500 
#    0.000    2.500    0.000    1.500    0.000    0.000 
#    0.000    0.000    0.000    0.000    0.000    0.000 
#
# Total GULP energy -178393.323263 kJ/mol
# GULP energy per Si atom -5574.791352 kJ/mol
# Density = 2.148540 g / cm^3
# Si number density = 21.534416 Si / 1000 Ang^3
#
#
#
# Elastic Constant Matrix: (Units=GPa)
#
#
# Indices 1 2 3 4 5 6 
#
# 1 142.0262 31.4089 38.8090 0.0000 0.0000 0.0000
# 2 31.4089 77.8761 62.2456 0.0000 0.0000 0.0000
# 3 38.8090 62.2456 129.9840 0.0000 0.0000 0.0000
# 4 0.0000 0.0000 0.0000 64.0280 0.0000 0.0000
# 5 0.0000 0.0000 0.0000 0.0000 14.4229 0.0000
# 6 0.0000 0.0000 0.0000 0.0000 0.0000 -225.2384
#
#
#
# Elastic Compliance Matrix: (Units=1/GPa)
#
#
# Indices 1 2 3 4 5 6 
#
# 1 0.007873 -0.002100 -0.001345 0.000000 0.000000 0.000000
# 2 -0.002100 0.021364 -0.009603 0.000000 0.000000 0.000000
# 3 -0.001345 -0.009603 0.012694 0.000000 0.000000 0.000000
# 4 0.000000 0.000000 0.000000 0.015618 0.000000 0.000000
# 5 0.000000 0.000000 0.000000 0.000000 0.069334 0.000000
# 6 0.000000 0.000000 0.000000 0.000000 0.000000 -0.004440
#
#
# Mechanical properties :
#
#
# Convention : Reuss Voigt Hill
#
# Bulk Modulus (GPa) = 63.15860 68.31257 65.73559
# Shear Modulus (GPa) = 32.50592 -14.86264 8.82164
#
# Velocity S-wave (km/s) = 3.88943 -2.62998 2.02618
# Velocity P-wave (km/s) = 7.04010 4.75068 6.00550
#
# Compressibility (1/GPa) = 0.01583316
#
# Stress axis : x y z
#
# Youngs Moduli (GPa) = 127.01765 46.80760 78.77990
#
# Poissons Ratio (x) = 0.09832 0.10594
# Poissons Ratio (y) = 0.26679 0.75656
# Poissons Ratio (z) = 0.17081 0.44952
#
# Static dielectric constant tensor:
#      x y z
#    x 1.787650 0.000000 0.000000 
#    y 0.000000 1.957410 0.000000 
#    z 0.000000 0.000000 1.630050 
# 
# From -- ./inp_files/36335.got.cif
#   From: 2010.05.17/outbox.cif.g08.bks.cpg/sg66_19_cif.got.tgz:36335.got - 2010.06.03 17:51:23.
