data_PCOD9498440
_publ_section_title
;
Structure prediction by ZEFSAII (Michael W. Deem and Ramdas Pophale) SiO2 
 PCOD9498440
Probable space group: C C C M
;
_chemical_formula_sum "Si O2"
_cell_formula_units_Z 112
_cell_length_a 11.112788
_cell_length_b 15.419197
_cell_length_c 31.725156
_cell_angle_alpha 90.000000
_cell_angle_beta 90.000000
_cell_angle_gamma 90.000000
_cell_volume 5436.113964
_symmetry_space_group_name_H-M "C C C M"
_symmetry_group_IT_number 66
_symmetry_cell_setting 'orthorhombic'
loop_
_space_group_symop_operation_xyz
x,y,z
-x,-y,z
x,-y,1/2-z
-x,y,1/2-z
-x,-y,-z
x,y,-z
-x,y,1/2+z
x,-y,1/2+z
1/2+x,1/2+y,z
1/2-x,1/2-y,z
1/2+x,1/2-y,1/2-z
1/2-x,1/2+y,1/2-z
1/2-x,1/2-y,-z
1/2+x,1/2+y,-z
1/2-x,1/2+y,1/2+z
1/2+x,1/2-y,1/2+z
loop_
_atom_site_type_symbol
_atom_site_label
_atom_site_fract_x
_atom_site_fract_y
_atom_site_fract_z
Si Si1 0.625718 0.028067 0.298402
Si Si2 0.887897 0.269718 0.282821
Si Si3 0.795590 0.841437 0.403593
Si Si4 0.634402 0.511035 0.656690
Si Si5 0.859300 0.181996 0.368457
Si Si6 0.579058 0.918722 0.451903
Si Si7 0.005641 0.773485 0.453758
O O1 0.625719 0.131977 0.299547
O O2 0.500000 0.000000 0.319749
O O3 0.619444 0.000000 0.250000
O O4 0.747651 0.983835 0.314526
O O5 0.750000 0.250000 0.266685
O O6 0.916476 0.207926 0.322924
O O7 0.000000 0.265379 0.250000
O O8 0.750000 0.750000 0.384087
O O9 0.868290 0.903860 0.372511
O O10 0.685279 0.898253 0.419973
O O11 0.873098 0.811391 0.444024
O O12 0.500000 0.500000 0.675709
O O13 0.662191 0.420818 0.632531
O O14 0.750000 0.250000 0.369229
O O15 0.924722 0.199425 0.412277
O O16 0.622741 0.934561 0.500000
O O17 0.502506 0.830409 0.453420
O O18 0.500000 0.000000 0.438902
O O19 0.048751 0.801856 0.500000
#
# Coordination Sequence:
#
# PCOD9498440 Si02
#       7
#    16  16  16  16  16  16  16
#     4  11  24  47  70 104 140 184 235 289 358 423
#     4  11  23  47  74 104 145 189 229 290 355 427
#     4  10  22  41  64  94 132 182 233 287 359 417
#     4  12  25  46  69 103 144 183 238 293 350 430
#     4  11  24  44  68  96 141 184 231 289 363 418
#     4   9  19  35  59  93 127 168 234 294 351 417
#     4  10  21  41  65  94 137 185 239 299 355 423
#
# _framework density 20.602951999999998
#
# number of rings (size 3 to 8) (size 9 to 14) (size 15 to 20)
#    0.000    1.429    5.714    0.429    2.000    6.286 
#    0.000    2.143    0.000    0.000    0.000    0.000 
#    0.000    0.000    0.000    0.000    0.000    0.000 
#
# Total GULP energy -312090.549881 kJ/mol
# GULP energy per Si atom -5573.045534 kJ/mol
# Density = 2.055606 g / cm^3
# Si number density = 20.602952 Si / 1000 Ang^3
#
#
#
# Elastic Constant Matrix: (Units=GPa)
#
#
# Indices 1 2 3 4 5 6 
#
# 1 123.7450 33.1701 42.7837 0.0000 0.0000 0.0000
# 2 33.1701 117.6505 23.0522 0.0000 0.0000 0.0000
# 3 42.7837 23.0522 90.9510 0.0000 0.0000 0.0000
# 4 0.0000 0.0000 0.0000 36.4506 0.0000 0.0000
# 5 0.0000 0.0000 0.0000 0.0000 -19.5011 0.0000
# 6 0.0000 0.0000 0.0000 0.0000 0.0000 88.0690
#
#
#
# Elastic Compliance Matrix: (Units=1/GPa)
#
#
# Indices 1 2 3 4 5 6 
#
# 1 0.010085 -0.002014 -0.004233 0.000000 0.000000 0.000000
# 2 -0.002014 0.009346 -0.001422 0.000000 0.000000 0.000000
# 3 -0.004233 -0.001422 0.013347 0.000000 0.000000 0.000000
# 4 0.000000 0.000000 0.000000 0.027434 0.000000 0.000000
# 5 0.000000 0.000000 0.000000 0.000000 -0.051279 0.000000
# 6 0.000000 0.000000 0.000000 0.000000 0.000000 0.011355
#
#
# Mechanical properties :
#
#
# Convention : Reuss Voigt Hill
#
# Bulk Modulus (GPa) = 57.33995 58.92870 58.13432
# Shear Modulus (GPa) = 120.66207 36.55974 78.61090
#
# Velocity S-wave (km/s) = 7.66111 4.21704 6.18369
# Velocity P-wave (km/s) = 10.30282 7.23708 8.90291
#
# Compressibility (1/GPa) = 0.01743985
#
# Stress axis : x y z
#
# Youngs Moduli (GPa) = 99.16122 106.99723 74.92518
#
# Poissons Ratio (x) = 0.21546 0.31719
# Poissons Ratio (y) = 0.19968 0.10651
# Poissons Ratio (z) = 0.41979 0.15210
#
# Static dielectric constant tensor:
#      x y z
#    x 1.861950 0.000000 0.000000 
#    y 0.000000 1.728890 0.000000 
#    z 0.000000 0.000000 1.731040 
# 
# From -- ./inp_files/69079.got.cif
#   From: 2010.05.17/outbox.cif.g08.bks.cpg/sg66_35_cif.got.tgz:69079.got - 2010.06.03 17:51:23.
