data_PCOD9498308
_publ_section_title
;
Structure prediction by ZEFSAII (Michael W. Deem and Ramdas Pophale) SiO2 
 PCOD9498308
Probable space group: C C C M
;
_chemical_formula_sum "Si O2"
_cell_formula_units_Z 92
_cell_length_a 18.160822
_cell_length_b 12.523586
_cell_length_c 20.407822
_cell_angle_alpha 90.000000
_cell_angle_beta 90.000000
_cell_angle_gamma 90.000000
_cell_volume 4641.526794
_symmetry_space_group_name_H-M "C C C M"
_symmetry_group_IT_number 66
_symmetry_cell_setting 'orthorhombic'
loop_
_space_group_symop_operation_xyz
x,y,z
-x,-y,z
x,-y,1/2-z
-x,y,1/2-z
-x,-y,-z
x,y,-z
-x,y,1/2+z
x,-y,1/2+z
1/2+x,1/2+y,z
1/2-x,1/2-y,z
1/2+x,1/2-y,1/2-z
1/2-x,1/2+y,1/2-z
1/2-x,1/2-y,-z
1/2+x,1/2+y,-z
1/2-x,1/2+y,1/2+z
1/2+x,1/2-y,1/2+z
loop_
_atom_site_type_symbol
_atom_site_label
_atom_site_fract_x
_atom_site_fract_y
_atom_site_fract_z
Si Si1 0.500000 0.000000 0.750000
Si Si2 0.020524 0.317424 0.500000
Si Si3 0.940830 0.906157 0.000000
Si Si4 0.936100 0.841677 0.700841
Si Si5 0.144836 0.990134 0.109589
Si Si6 0.827252 0.808837 0.815675
Si Si7 0.463112 0.164741 0.859371
Si Si8 0.674450 0.313191 0.000000
O O1 0.543382 0.924554 0.802012
O O2 0.106156 0.273475 0.500000
O O3 0.979826 0.204388 0.500000
O O4 0.989289 0.370318 0.567530
O O5 0.890226 0.924679 0.061384
O O6 0.000000 0.000000 0.000000
O O7 0.918236 0.933900 0.650979
O O8 0.864116 0.817930 0.743817
O O9 0.000000 0.874347 0.750000
O O10 0.968986 0.739659 0.663932
O O11 0.173459 0.893722 0.063112
O O12 0.187297 0.070109 0.158016
O O13 0.750000 0.750000 0.815553
O O14 0.888990 0.737124 0.854760
O O15 0.750000 0.250000 0.000000
#
# Coordination Sequence:
#
# PCOD9498308 Si02
#       8
#     4   8   8  16  16  16  16   8
#     4  12  24  50  68  94 140 190 222 284 328 388
#     4  12  21  42  73  99 128 174 225 284 324 404
#     4  11  18  32  68 101 126 158 205 269 349 390
#     4  10  21  39  66 102 128 166 226 286 328 392
#     4  11  22  39  66  99 134 170 212 283 347 390
#     4  11  24  42  62 100 137 179 226 279 341 401
#     4  11  23  44  72  98 132 178 231 281 329 405
#     4  11  25  42  62 103 138 170 215 273 359 409
#
# _framework density 19.821064
#
# number of rings (size 3 to 8) (size 9 to 14) (size 15 to 20)
#    0.000    1.043    7.826    0.522    2.435    3.130 
#    6.261    3.913    0.000    0.000    0.000    0.000 
#    0.000    0.000    0.000    0.000    0.000    0.000 
#
# Total GULP energy -256197.865011 kJ/mol
# GULP energy per Si atom -5569.518805 kJ/mol
# Density = 1.977595 g / cm^3
# Si number density = 19.821064 Si / 1000 Ang^3
#
#
#
# Elastic Constant Matrix: (Units=GPa)
#
#
# Indices 1 2 3 4 5 6 
#
# 1 84.8917 26.8268 40.1345 0.0000 0.0000 0.0000
# 2 26.8268 79.1852 38.6371 0.0000 0.0000 0.0000
# 3 40.1345 38.6371 130.8582 0.0000 0.0000 0.0000
# 4 0.0000 0.0000 0.0000 -0.2891 0.0000 0.0000
# 5 0.0000 0.0000 0.0000 0.0000 39.1515 0.0000
# 6 0.0000 0.0000 0.0000 0.0000 0.0000 -5.5549
#
#
#
# Elastic Compliance Matrix: (Units=1/GPa)
#
#
# Indices 1 2 3 4 5 6 
#
# 1 0.014436 -0.003190 -0.003486 0.000000 0.000000 0.000000
# 2 -0.003190 0.015459 -0.003586 0.000000 0.000000 0.000000
# 3 -0.003486 -0.003586 0.009770 0.000000 0.000000 0.000000
# 4 0.000000 0.000000 0.000000 -3.459141 0.000000 0.000000
# 5 0.000000 0.000000 0.000000 0.000000 0.025542 0.000000
# 6 0.000000 0.000000 0.000000 0.000000 0.000000 -0.180021
#
#
# Mechanical properties :
#
#
# Convention : Reuss Voigt Hill
#
# Bulk Modulus (GPa) = 52.24296 56.23688 54.23992
# Shear Modulus (GPa) = -1.40962 19.28394 8.93716
#
# Velocity S-wave (km/s) = -0.84423 3.12252 2.12573
# Velocity P-wave (km/s) = 5.04621 6.43693 5.78352
#
# Compressibility (1/GPa) = 0.01914133
#
# Stress axis : x y z
#
# Youngs Moduli (GPa) = 69.27295 64.68688 102.35689
#
# Poissons Ratio (x) = 0.20634 0.35678
# Poissons Ratio (y) = 0.22097 0.36706
# Poissons Ratio (z) = 0.24146 0.23197
#
# Static dielectric constant tensor:
#      x y z
#    x 1.659240 0.000000 0.000000 
#    y 0.000000 1.766900 0.000000 
#    z 0.000000 0.000000 1.913950 
# 
# From -- ./inp_files/50979.got.cif
#   From: 2010.05.17/outbox.cif.g08.bks.cpg/sg66_26_cif.got.tgz:50979.got - 2010.06.03 17:51:23.
