data_PCOD9498132
_publ_section_title
;
Structure prediction by ZEFSAII (Michael W. Deem and Ramdas Pophale) SiO2 
 PCOD9498132
Probable space group: C C C M
;
_chemical_formula_sum "Si O2"
_cell_formula_units_Z 64
_cell_length_a 17.715387
_cell_length_b 5.071045
_cell_length_c 26.077533
_cell_angle_alpha 90.000000
_cell_angle_beta 90.000000
_cell_angle_gamma 90.000000
_cell_volume 2342.688859
_symmetry_space_group_name_H-M "C C C M"
_symmetry_group_IT_number 66
_symmetry_cell_setting 'orthorhombic'
loop_
_space_group_symop_operation_xyz
x,y,z
-x,-y,z
x,-y,1/2-z
-x,y,1/2-z
-x,-y,-z
x,y,-z
-x,y,1/2+z
x,-y,1/2+z
1/2+x,1/2+y,z
1/2-x,1/2-y,z
1/2+x,1/2-y,1/2-z
1/2-x,1/2+y,1/2-z
1/2-x,1/2-y,-z
1/2+x,1/2+y,-z
1/2-x,1/2+y,1/2+z
1/2+x,1/2-y,1/2+z
loop_
_atom_site_type_symbol
_atom_site_label
_atom_site_fract_x
_atom_site_fract_y
_atom_site_fract_z
Si Si1 0.089057 0.073964 0.443388
Si Si2 0.413977 0.589044 0.332554
Si Si3 0.834772 0.574072 0.302926
Si Si4 0.298597 0.998378 0.081353
O O1 0.115562 0.995039 0.500000
O O2 0.117082 0.378820 0.433756
O O3 0.114158 0.918751 0.392084
O O4 0.000000 0.000000 0.444058
O O5 0.500000 0.500000 0.331927
O O6 0.364295 0.369158 0.304929
O O7 0.404397 0.870851 0.307382
O O8 0.795264 0.500000 0.250000
O O9 0.794177 0.511616 0.356405
O O10 0.250000 0.750000 0.062280
O O11 0.250000 0.250000 0.063134
#
# Coordination Sequence:
#
# PCOD9498132 Si02
#       4
#    16  16  16  16
#     4   9  20  42  70  99 135 182 234 291 358 431
#     4  10  21  38  61  93 131 169 218 279 341 411
#     4  11  23  39  61  90 127 174 222 275 340 414
#     4  11  24  43  66  96 136 179 229 290 353 424
#
# _framework density 27.319036000000001
#
# number of rings (size 3 to 8) (size 9 to 14) (size 15 to 20)
#    0.000    1.750    0.000    4.500    0.000    5.000 
#    0.000   13.750    0.000   34.500    0.000    0.000 
#    0.000    0.000    0.000    0.000    0.000    0.000 
#
# Total GULP energy -178814.035601 kJ/mol
# GULP energy per Si atom -5587.938613 kJ/mol
# Density = 2.725686 g / cm^3
# Si number density = 27.319036 Si / 1000 Ang^3
#
#
#
# Elastic Constant Matrix: (Units=GPa)
#
#
# Indices 1 2 3 4 5 6 
#
# 1 154.2929 62.3938 39.0419 0.0000 0.0000 0.0000
# 2 62.3938 148.6360 42.8001 0.0000 0.0000 0.0000
# 3 39.0419 42.8001 201.2411 0.0000 0.0000 0.0000
# 4 0.0000 0.0000 0.0000 21.4825 0.0000 0.0000
# 5 0.0000 0.0000 0.0000 0.0000 18.7789 0.0000
# 6 0.0000 0.0000 0.0000 0.0000 0.0000 62.7067
#
#
#
# Elastic Compliance Matrix: (Units=1/GPa)
#
#
# Indices 1 2 3 4 5 6 
#
# 1 0.007952 -0.003083 -0.000887 0.000000 0.000000 0.000000
# 2 -0.003083 0.008362 -0.001180 0.000000 0.000000 0.000000
# 3 -0.000887 -0.001180 0.005392 0.000000 0.000000 0.000000
# 4 0.000000 0.000000 0.000000 0.046550 0.000000 0.000000
# 5 0.000000 0.000000 0.000000 0.000000 0.053251 0.000000
# 6 0.000000 0.000000 0.000000 0.000000 0.000000 0.015947
#
#
# Mechanical properties :
#
#
# Convention : Reuss Voigt Hill
#
# Bulk Modulus (GPa) = 87.67338 88.07130 87.87234
# Shear Modulus (GPa) = 32.99092 44.58922 38.79007
#
# Velocity S-wave (km/s) = 3.47885 4.04439 3.77223
# Velocity P-wave (km/s) = 6.94972 7.35646 7.15598
#
# Compressibility (1/GPa) = 0.01140597
#
# Stress axis : x y z
#
# Youngs Moduli (GPa) = 125.75027 119.59184 185.44936
#
# Poissons Ratio (x) = 0.36867 0.16452
# Poissons Ratio (y) = 0.38765 0.21889
# Poissons Ratio (z) = 0.11156 0.14116
#
# Static dielectric constant tensor:
#      x y z
#    x 2.238030 0.000000 0.000000 
#    y 0.000000 2.227200 0.000000 
#    z 0.000000 0.000000 2.112720 
# 
# From -- ./inp_files/69775.got.cif
#   From: 2010.05.17/outbox.cif.g08.bks.cpg/sg66_35_cif.got.tgz:69775.got - 2010.06.03 17:51:23.
