data_PCOD9498481
_publ_section_title
;
Structure prediction by ZEFSAII (Michael W. Deem and Ramdas Pophale) SiO2 
 PCOD9498481
Probable space group: C C C M
;
_chemical_formula_sum "Si O2"
_cell_formula_units_Z 68
_cell_length_a 10.949528
_cell_length_b 11.508487
_cell_length_c 27.458995
_cell_angle_alpha 90.000000
_cell_angle_beta 90.000000
_cell_angle_gamma 90.000000
_cell_volume 3460.176625
_symmetry_space_group_name_H-M "C C C M"
_symmetry_group_IT_number 66
_symmetry_cell_setting 'orthorhombic'
loop_
_space_group_symop_operation_xyz
x,y,z
-x,-y,z
x,-y,1/2-z
-x,y,1/2-z
-x,-y,-z
x,y,-z
-x,y,1/2+z
x,-y,1/2+z
1/2+x,1/2+y,z
1/2-x,1/2-y,z
1/2+x,1/2-y,1/2-z
1/2-x,1/2+y,1/2-z
1/2-x,1/2-y,-z
1/2+x,1/2+y,-z
1/2-x,1/2+y,1/2+z
1/2+x,1/2-y,1/2+z
loop_
_atom_site_type_symbol
_atom_site_label
_atom_site_fract_x
_atom_site_fract_y
_atom_site_fract_z
Si Si1 0.565877 0.888165 0.654765
Si Si2 0.951036 0.698220 0.000000
Si Si3 0.692878 0.455276 0.896429
Si Si4 0.560440 0.318784 0.604492
Si Si5 0.000000 0.500000 0.250000
Si Si6 0.187604 0.547741 0.000000
O O1 0.701739 0.890045 0.633669
O O2 0.474406 0.784757 0.641242
O O3 0.500000 0.000000 0.630537
O O4 0.571559 0.918258 0.712051
O O5 0.924141 0.768501 0.049663
O O6 0.091167 0.653652 0.000000
O O7 0.878145 0.577306 0.000000
O O8 0.669347 0.591292 0.883289
O O9 0.564395 0.391789 0.893155
O O10 0.732929 0.447652 0.952016
#
# Coordination Sequence:
#
# PCOD9498481 Si02
#       6
#    16   8  16  16   4   8
#     4  10  21  42  65  89 115 154 208 254 315 369
#     4  11  22  35  56  91 128 169 212 247 291 357
#     4  11  23  38  60  92 130 168 204 248 304 367
#     4  11  23  38  60  92 130 168 204 248 304 367
#     4   8  24  44  68  90 112 148 200 256 324 362
#     4  11  22  35  56  91 128 169 212 247 291 357
#
# _framework density 19.652175
#
# number of rings (size 3 to 8) (size 9 to 14) (size 15 to 20)
#    0.706    0.706    2.353    3.529    0.000    7.529 
#    0.000    4.706    0.000    2.824    0.000    0.000 
#    0.000    0.000    0.000    0.000    0.000    0.000 
#
# Total GULP energy -189615.386518 kJ/mol
# GULP energy per Si atom -5576.923133 kJ/mol
# Density = 1.960745 g / cm^3
# Si number density = 19.652175 Si / 1000 Ang^3
#
#
#
# Elastic Constant Matrix: (Units=GPa)
#
#
# Indices 1 2 3 4 5 6 
#
# 1 41.5565 -9.9495 7.8410 0.0000 0.0000 0.0000
# 2 -9.9495 75.0729 15.2317 0.0000 0.0000 0.0000
# 3 7.8410 15.2317 108.6681 0.0000 0.0000 0.0000
# 4 0.0000 0.0000 0.0000 -35.8452 0.0000 0.0000
# 5 0.0000 0.0000 0.0000 0.0000 52.0124 0.0000
# 6 0.0000 0.0000 0.0000 0.0000 0.0000 25.5099
#
#
#
# Elastic Compliance Matrix: (Units=1/GPa)
#
#
# Indices 1 2 3 4 5 6 
#
# 1 0.025434 0.003853 -0.002375 0.000000 0.000000 0.000000
# 2 0.003853 0.014294 -0.002282 0.000000 0.000000 0.000000
# 3 -0.002375 -0.002282 0.009694 0.000000 0.000000 0.000000
# 4 0.000000 0.000000 0.000000 -0.027898 0.000000 0.000000
# 5 0.000000 0.000000 0.000000 0.000000 0.019226 0.000000
# 6 0.000000 0.000000 0.000000 0.000000 0.000000 0.039200
#
#
# Mechanical properties :
#
#
# Convention : Reuss Voigt Hill
#
# Bulk Modulus (GPa) = 20.91456 27.94933 24.43195
# Shear Modulus (GPa) = 51.28395 22.48040 36.88217
#
# Velocity S-wave (km/s) = 5.11395 3.38585 4.33684
# Velocity P-wave (km/s) = 6.74799 5.43490 6.12673
#
# Compressibility (1/GPa) = 0.04781359
#
# Stress axis : x y z
#
# Youngs Moduli (GPa) = 39.31709 69.95991 103.16172
#
# Poissons Ratio (x) = -0.26954 0.24504
# Poissons Ratio (y) = -0.15148 0.23537
# Poissons Ratio (z) = 0.09339 0.15962
#
# Static dielectric constant tensor:
#      x y z
#    x 1.727110 0.000000 0.000000 
#    y 0.000000 1.794720 0.000000 
#    z 0.000000 0.000000 1.641880 
# 
# From -- ./inp_files/68703.got.cif
#   From: 2010.05.17/outbox.cif.g08.bks.cpg/sg66_35_cif.got.tgz:68703.got - 2010.06.03 17:51:23.
