data_PCOD9498392
_publ_section_title
;
Structure prediction by ZEFSAII (Michael W. Deem and Ramdas Pophale) SiO2 
 PCOD9498392
Probable space group: C C C M
;
_chemical_formula_sum "Si O2"
_cell_formula_units_Z 112
_cell_length_a 14.494931
_cell_length_b 22.228678
_cell_length_c 15.195878
_cell_angle_alpha 90.000000
_cell_angle_beta 90.000000
_cell_angle_gamma 90.000000
_cell_volume 4896.159817
_symmetry_space_group_name_H-M "C C C M"
_symmetry_group_IT_number 66
_symmetry_cell_setting 'orthorhombic'
loop_
_space_group_symop_operation_xyz
x,y,z
-x,-y,z
x,-y,1/2-z
-x,y,1/2-z
-x,-y,-z
x,y,-z
-x,y,1/2+z
x,-y,1/2+z
1/2+x,1/2+y,z
1/2-x,1/2-y,z
1/2+x,1/2-y,1/2-z
1/2-x,1/2+y,1/2-z
1/2-x,1/2-y,-z
1/2+x,1/2+y,-z
1/2-x,1/2+y,1/2+z
1/2+x,1/2-y,1/2+z
loop_
_atom_site_type_symbol
_atom_site_label
_atom_site_fract_x
_atom_site_fract_y
_atom_site_fract_z
Si Si1 0.743275 0.425885 0.660362
Si Si2 0.204762 0.443192 0.362833
Si Si3 0.352685 0.186960 0.901061
Si Si4 0.041089 0.934579 0.604047
Si Si5 0.635913 0.352226 0.902240
Si Si6 0.607451 0.746495 0.732978
Si Si7 0.936140 0.650241 0.599075
O O1 0.776651 0.487622 0.614361
O O2 0.781660 0.432817 0.758694
O O3 0.780691 0.365853 0.616200
O O4 0.632607 0.424106 0.659752
O O5 0.284397 0.401799 0.403774
O O6 0.106568 0.415673 0.389077
O O7 0.350174 0.237841 0.826883
O O8 0.454065 0.156135 0.891205
O O9 0.345809 0.210904 0.000000
O O10 0.066657 0.934778 0.500000
O O11 0.961024 0.885664 0.615389
O O12 0.000000 0.000000 0.625151
O O13 0.653328 0.305100 0.824873
O O14 0.630330 0.324030 0.000000
O O15 0.500000 0.730891 0.750000
O O16 0.606877 0.806282 0.672498
O O17 0.912930 0.670795 0.500000
#
# Coordination Sequence:
#
# PCOD9498392 Si02
#       7
#    16  16  16  16  16  16  16
#     4  11  23  41  66 100 141 183 225 273 343 412
#     4  11  24  39  64 101 139 178 222 279 341 412
#     4  10  22  43  71  97 134 182 228 281 341 406
#     4  10  21  40  66  97 137 180 222 278 339 409
#     4  11  24  42  67 100 135 179 228 282 348 408
#     4  10  22  42  67  95 133 176 226 284 339 403
#     4  10  21  41  67  97 132 175 224 278 338 400
#
# _framework density 22.875070999999998
#
# number of rings (size 3 to 8) (size 9 to 14) (size 15 to 20)
#    0.000    1.571    2.857    1.286    2.000    3.429 
#    0.000    4.286    0.000    0.857    0.000    0.000 
#    0.000    0.571    0.000    0.000    0.000    0.000 
#
# Total GULP energy -313581.296119 kJ/mol
# GULP energy per Si atom -5599.666002 kJ/mol
# Density = 2.282301 g / cm^3
# Si number density = 22.875071 Si / 1000 Ang^3
#
#
#
# Elastic Constant Matrix: (Units=GPa)
#
#
# Indices 1 2 3 4 5 6 
#
# 1 84.5763 28.3072 27.5597 0.0000 0.0000 0.0000
# 2 28.3072 90.8556 50.9107 0.0000 0.0000 0.0000
# 3 27.5597 50.9107 147.4937 0.0000 0.0000 0.0000
# 4 0.0000 0.0000 0.0000 38.4856 0.0000 0.0000
# 5 0.0000 0.0000 0.0000 0.0000 14.4061 0.0000
# 6 0.0000 0.0000 0.0000 0.0000 0.0000 30.7860
#
#
#
# Elastic Compliance Matrix: (Units=1/GPa)
#
#
# Indices 1 2 3 4 5 6 
#
# 1 0.013404 -0.003438 -0.001318 0.000000 0.000000 0.000000
# 2 -0.003438 0.014527 -0.004372 0.000000 0.000000 0.000000
# 3 -0.001318 -0.004372 0.008535 0.000000 0.000000 0.000000
# 4 0.000000 0.000000 0.000000 0.025984 0.000000 0.000000
# 5 0.000000 0.000000 0.000000 0.000000 0.069415 0.000000
# 6 0.000000 0.000000 0.000000 0.000000 0.000000 0.032482
#
#
# Mechanical properties :
#
#
# Convention : Reuss Voigt Hill
#
# Bulk Modulus (GPa) = 54.91160 59.60899 57.26030
# Shear Modulus (GPa) = 26.50086 31.14541 28.82313
#
# Velocity S-wave (km/s) = 3.40737 3.69391 3.55353
# Velocity P-wave (km/s) = 6.28787 6.65645 6.47479
#
# Compressibility (1/GPa) = 0.01821109
#
# Stress axis : x y z
#
# Youngs Moduli (GPa) = 74.60659 68.83542 117.15972
#
# Poissons Ratio (x) = 0.23663 0.15441
# Poissons Ratio (y) = 0.25646 0.51224
# Poissons Ratio (z) = 0.09833 0.30096
#
# Static dielectric constant tensor:
#      x y z
#    x 1.824130 0.000000 0.000000 
#    y 0.000000 1.820190 0.000000 
#    z 0.000000 0.000000 1.875750 
# 
# From -- ./inp_files/28684.got.cif
#   From: 2010.05.17/outbox.cif.g08.bks.cpg/sg66_15_cif.got.tgz:28684.got - 2010.06.03 17:51:23.
