data_PCOD9498676
_publ_section_title
;
Structure prediction by ZEFSAII (Michael W. Deem and Ramdas Pophale) SiO2 
 PCOD9498676
Probable space group: C C C M
;
_chemical_formula_sum "Si O2"
_cell_formula_units_Z 116
_cell_length_a 22.694971
_cell_length_b 9.168390
_cell_length_c 28.821103
_cell_angle_alpha 90.000000
_cell_angle_beta 90.000000
_cell_angle_gamma 90.000000
_cell_volume 5996.989776
_symmetry_space_group_name_H-M "C C C M"
_symmetry_group_IT_number 66
_symmetry_cell_setting 'orthorhombic'
loop_
_space_group_symop_operation_xyz
x,y,z
-x,-y,z
x,-y,1/2-z
-x,y,1/2-z
-x,-y,-z
x,y,-z
-x,y,1/2+z
x,-y,1/2+z
1/2+x,1/2+y,z
1/2-x,1/2-y,z
1/2+x,1/2-y,1/2-z
1/2-x,1/2+y,1/2-z
1/2-x,1/2-y,-z
1/2+x,1/2+y,-z
1/2-x,1/2+y,1/2+z
1/2+x,1/2-y,1/2+z
loop_
_atom_site_type_symbol
_atom_site_label
_atom_site_fract_x
_atom_site_fract_y
_atom_site_fract_z
Si Si1 0.429474 0.210238 0.553597
Si Si2 0.435278 0.928364 0.796546
Si Si3 0.253404 0.912276 0.095008
Si Si4 0.750000 0.250000 0.000000
Si Si5 0.123721 0.960581 0.105433
Si Si6 0.564306 0.425684 0.203319
Si Si7 0.880100 0.539180 0.107988
Si Si8 0.066319 0.210656 0.945308
O O1 0.414234 0.234522 0.500000
O O2 0.384654 0.296497 0.586426
O O3 0.497089 0.255245 0.561631
O O4 0.417662 0.045501 0.568227
O O5 0.438916 0.751535 0.793333
O O6 0.500000 0.000000 0.799807
O O7 0.408334 0.000000 0.750000
O O8 0.403346 0.982979 0.842771
O O9 0.250000 0.750000 0.118671
O O10 0.192469 0.994867 0.104284
O O11 0.311616 0.000951 0.106571
O O12 0.255816 0.873236 0.040833
O O13 0.099197 0.966694 0.157072
O O14 0.083317 0.047020 0.068679
O O15 0.500000 0.500000 0.198339
O O16 0.589551 0.500000 0.250000
O O17 0.895664 0.702236 0.092940
O O18 0.079437 0.237210 0.000000
#
# Coordination Sequence:
#
# PCOD9498676 Si02
#       8
#    16  16  16   4  16  16  16  16
#     4  11  21  39  62  90 122 164 209 253 319 386
#     4  11  23  40  67  97 126 164 210 267 326 387
#     4  10  22  39  63  91 117 172 221 255 307 371
#     4   8  20  36  68  86 116 164 228 274 280 358
#     4  12  24  40  64  90 129 166 214 261 317 376
#     4  11  23  40  67  97 126 164 210 267 326 387
#     4  12  24  40  64  90 129 166 214 261 317 376
#     4  11  26  38  58  93 132 166 203 265 330 383
#
# _framework density 19.343038
#
# number of rings (size 3 to 8) (size 9 to 14) (size 15 to 20)
#    0.414    0.552    2.759    4.966    9.655    2.759 
#    0.000    1.379    0.000    0.000    0.000    0.000 
#    0.000    0.000    0.000    0.000    0.000    0.000 
#
# Total GULP energy -323133.173705 kJ/mol
# GULP energy per Si atom -5571.261616 kJ/mol
# Density = 1.929901 g / cm^3
# Si number density = 19.343038 Si / 1000 Ang^3
#
#
#
# Elastic Constant Matrix: (Units=GPa)
#
#
# Indices 1 2 3 4 5 6 
#
# 1 95.0608 5.4630 51.3676 0.0000 0.0000 0.0000
# 2 5.4630 53.7698 15.6539 0.0000 0.0000 0.0000
# 3 51.3676 15.6539 140.2526 0.0000 0.0000 0.0000
# 4 0.0000 0.0000 0.0000 29.6896 0.0000 0.0000
# 5 0.0000 0.0000 0.0000 0.0000 -10.7814 0.0000
# 6 0.0000 0.0000 0.0000 0.0000 0.0000 15.2668
#
#
#
# Elastic Compliance Matrix: (Units=1/GPa)
#
#
# Indices 1 2 3 4 5 6 
#
# 1 0.013115 0.000068 -0.004811 0.000000 0.000000 0.000000
# 2 0.000068 0.019223 -0.002170 0.000000 0.000000 0.000000
# 3 -0.004811 -0.002170 0.009134 0.000000 0.000000 0.000000
# 4 0.000000 0.000000 0.000000 0.033682 0.000000 0.000000
# 5 0.000000 0.000000 0.000000 0.000000 -0.092752 0.000000
# 6 0.000000 0.000000 0.000000 0.000000 0.000000 0.065502
#
#
# Mechanical properties :
#
#
# Convention : Reuss Voigt Hill
#
# Bulk Modulus (GPa) = 36.17209 48.22801 42.20005
# Shear Modulus (GPa) = 70.47627 21.27491 45.87559
#
# Velocity S-wave (km/s) = 6.04269 3.32003 4.87528
# Velocity P-wave (km/s) = 8.21135 6.29952 7.31814
#
# Compressibility (1/GPa) = 0.02764562
#
# Stress axis : x y z
#
# Youngs Moduli (GPa) = 76.24600 52.02168 109.47717
#
# Poissons Ratio (x) = -0.00355 0.52671
# Poissons Ratio (y) = -0.00520 0.23762
# Poissons Ratio (z) = 0.36683 0.11291
#
# Static dielectric constant tensor:
#      x y z
#    x 1.672030 0.000000 0.000000 
#    y 0.000000 1.677160 0.000000 
#    z 0.000000 0.000000 1.669550 
# 
# From -- ./inp_files/70478.got.cif
#   From: 2010.05.17/outbox.cif.g08.bks.cpg/sg66_36_cif.got.tgz:70478.got - 2010.06.03 17:51:23.
