data_PCOD9498882
_publ_section_title
;
Structure prediction by ZEFSAII (Michael W. Deem and Ramdas Pophale) SiO2 
 PCOD9498882
Probable space group: C C C M
;
_chemical_formula_sum "Si O2"
_cell_formula_units_Z 88
_cell_length_a 15.896611
_cell_length_b 9.873948
_cell_length_c 24.382922
_cell_angle_alpha 90.000000
_cell_angle_beta 90.000000
_cell_angle_gamma 90.000000
_cell_volume 3827.199771
_symmetry_space_group_name_H-M "C C C M"
_symmetry_group_IT_number 66
_symmetry_cell_setting 'orthorhombic'
loop_
_space_group_symop_operation_xyz
x,y,z
-x,-y,z
x,-y,1/2-z
-x,y,1/2-z
-x,-y,-z
x,y,-z
-x,y,1/2+z
x,-y,1/2+z
1/2+x,1/2+y,z
1/2-x,1/2-y,z
1/2+x,1/2-y,1/2-z
1/2-x,1/2+y,1/2-z
1/2-x,1/2-y,-z
1/2+x,1/2+y,-z
1/2-x,1/2+y,1/2+z
1/2+x,1/2-y,1/2+z
loop_
_atom_site_type_symbol
_atom_site_label
_atom_site_fract_x
_atom_site_fract_y
_atom_site_fract_z
Si Si1 0.835770 0.385574 0.289954
Si Si2 0.592558 0.355701 0.773571
Si Si3 0.246416 0.597691 0.408476
Si Si4 0.089335 0.074404 0.401623
Si Si5 0.607594 0.870199 0.560767
Si Si6 0.500000 0.000000 0.346775
O O1 0.802532 0.500000 0.250000
O O2 0.846535 0.254300 0.252552
O O3 0.784507 0.381297 0.345944
O O4 0.929005 0.430814 0.310290
O O5 0.615688 0.500000 0.750000
O O6 0.500000 0.324610 0.750000
O O7 0.588504 0.373874 0.838607
O O8 0.250000 0.750000 0.433369
O O9 0.339434 0.538131 0.408743
O O10 0.184043 0.479094 0.431513
O O11 0.119593 0.207875 0.434882
O O12 0.000000 0.000000 0.414237
O O13 0.572987 0.895657 0.500000
O O14 0.545065 0.898853 0.611066
#
# Coordination Sequence:
#
# PCOD9498882 Si02
#       6
#    16  16  16  16  16   8
#     4  11  22  39  65 100 144 191 233 281 352 428
#     4  11  20  35  64  97 133 185 228 276 336 426
#     4  11  27  46  69 104 148 191 242 306 360 433
#     4  12  26  46  73 106 147 190 242 301 365 435
#     4  11  26  48  77 103 140 190 245 310 379 438
#     4  10  22  42  72 104 144 178 238 296 362 426
#
# _framework density 22.993313000000001
#
# number of rings (size 3 to 8) (size 9 to 14) (size 15 to 20)
#    0.000    0.909    1.818    6.545    5.091    4.364 
#    0.000    0.000    0.000    0.000    0.000    0.000 
#    0.000    0.000    0.000    0.000    0.000    0.000 
#
# Total GULP energy -245994.503937 kJ/mol
# GULP energy per Si atom -5590.784180 kJ/mol
# Density = 2.294098 g / cm^3
# Si number density = 22.993313 Si / 1000 Ang^3
#
#
#
# Elastic Constant Matrix: (Units=GPa)
#
#
# Indices 1 2 3 4 5 6 
#
# 1 121.1927 57.6010 16.2416 0.0000 0.0000 0.0000
# 2 57.6010 192.9532 43.8876 0.0000 0.0000 0.0000
# 3 16.2416 43.8876 93.8806 0.0000 0.0000 0.0000
# 4 0.0000 0.0000 0.0000 -8.9380 0.0000 0.0000
# 5 0.0000 0.0000 0.0000 0.0000 -10.3512 0.0000
# 6 0.0000 0.0000 0.0000 0.0000 0.0000 -22.5212
#
#
#
# Elastic Compliance Matrix: (Units=1/GPa)
#
#
# Indices 1 2 3 4 5 6 
#
# 1 0.009627 -0.002792 -0.000360 0.000000 0.000000 0.000000
# 2 -0.002792 0.006609 -0.002607 0.000000 0.000000 0.000000
# 3 -0.000360 -0.002607 0.011933 0.000000 0.000000 0.000000
# 4 0.000000 0.000000 0.000000 -0.111882 0.000000 0.000000
# 5 0.000000 0.000000 0.000000 0.000000 -0.096607 0.000000
# 6 0.000000 0.000000 0.000000 0.000000 0.000000 -0.044403
#
#
# Mechanical properties :
#
#
# Convention : Reuss Voigt Hill
#
# Bulk Modulus (GPa) = 60.05724 71.49856 65.77790
# Shear Modulus (GPa) = -24.07828 10.99101 -6.54364
#
# Velocity S-wave (km/s) = -3.23954 2.18871 -1.68881
# Velocity P-wave (km/s) = 3.49046 6.12782 4.98666
#
# Compressibility (1/GPa) = 0.01665078
#
# Stress axis : x y z
#
# Youngs Moduli (GPa) = 103.87991 151.31144 83.80347
#
# Poissons Ratio (x) = 0.42243 0.03019
# Poissons Ratio (y) = 0.29001 0.21844
# Poissons Ratio (z) = 0.03743 0.39440
#
# Static dielectric constant tensor:
#      x y z
#    x 1.848780 0.000000 0.000000 
#    y 0.000000 1.907660 0.000000 
#    z 0.000000 0.000000 1.835370 
# 
# From -- ./inp_files/69931.got.cif
#   From: 2010.05.17/outbox.cif.g08.bks.cpg/sg66_35_cif.got.tgz:69931.got - 2010.06.03 17:51:23.
