data_PCOD9498593
_publ_section_title
;
Structure prediction by ZEFSAII (Michael W. Deem and Ramdas Pophale) SiO2 
 PCOD9498593
Probable space group: C C C M
;
_chemical_formula_sum "Si O2"
_cell_formula_units_Z 116
_cell_length_a 17.577461
_cell_length_b 28.215168
_cell_length_c 15.044295
_cell_angle_alpha 90.000000
_cell_angle_beta 90.000000
_cell_angle_gamma 90.000000
_cell_volume 7461.233377
_symmetry_space_group_name_H-M "C C C M"
_symmetry_group_IT_number 66
_symmetry_cell_setting 'orthorhombic'
loop_
_space_group_symop_operation_xyz
x,y,z
-x,-y,z
x,-y,1/2-z
-x,y,1/2-z
-x,-y,-z
x,y,-z
-x,y,1/2+z
x,-y,1/2+z
1/2+x,1/2+y,z
1/2-x,1/2-y,z
1/2+x,1/2-y,1/2-z
1/2-x,1/2+y,1/2-z
1/2-x,1/2-y,-z
1/2+x,1/2+y,-z
1/2-x,1/2+y,1/2+z
1/2+x,1/2-y,1/2+z
loop_
_atom_site_type_symbol
_atom_site_label
_atom_site_fract_x
_atom_site_fract_y
_atom_site_fract_z
Si Si1 0.000000 0.249957 0.395989
Si Si2 0.632500 1.000000 0.350819
Si Si3 0.727603 0.828473 0.250000
Si Si4 0.500000 0.000000 0.500000
Si Si5 0.874935 0.234184 0.750000
Si Si6 0.832745 0.602119 0.102312
Si Si7 0.332745 0.897881 0.102312
Si Si8 0.000000 0.638573 0.143055
O O1 0.000000 0.236341 0.500000
O O2 0.927640 0.233069 0.337868
O O3 0.072360 0.233068 0.337868
O O4 0.000000 0.307397 0.390410
O O5 0.678727 0.048380 0.365976
O O6 0.602926 0.000000 0.250000
O O7 0.566121 1.000000 0.422838
O O8 0.678727 0.951620 0.365976
O O9 0.811253 0.806238 0.250000
O O10 0.668651 0.784583 0.250000
O O11 0.709637 0.860735 0.164889
O O12 0.709638 0.860735 0.335111
O O13 0.923466 0.612784 0.111644
O O14 0.811587 0.607579 0.000000
O O15 0.423466 0.887216 0.111645
O O16 0.311587 0.892421 0.000000
O O17 0.000000 0.639437 0.250000
#
# Coordination Sequence:
#
# PCOD9498593 Si02
#       8
#    16  16  16   4  16  16  16  16
#     4  11  19  35  57  77 101 136 177 226 266 312
#     4  12  23  37  49  70 105 143 182 226 259 293
#     4  11  22  37  54  72 108 140 177 225 265 317
#     4  12  22  36  44  82 104 144 190 238 240 290
#     4  10  22  38  52  79 103 134 180 224 269 314
#     4  12  22  35  52  74 103 142 184 223 260 304
#     4  12  22  35  52  74 103 142 184 223 260 304
#     4  12  19  33  49  71 103 144 186 218 258 302
#
# _framework density 15.547027999999999
#
# number of rings (size 3 to 8) (size 9 to 14) (size 15 to 20)
#    0.000    0.552    8.276    2.276    0.000    1.103 
#    0.000    2.759    0.000    0.000    0.000    0.000 
#    0.000    8.828    0.000   15.448    0.000    0.000 
#
# Total GULP energy -323538.113471 kJ/mol
# GULP energy per Si atom -5578.243336 kJ/mol
# Density = 1.551164 g / cm^3
# Si number density = 15.547028 Si / 1000 Ang^3
#
#
#
# Elastic Constant Matrix: (Units=GPa)
#
#
# Indices 1 2 3 4 5 6 
#
# 1 82.5469 55.5001 46.5613 0.0000 0.0000 0.0000
# 2 55.5001 111.9999 53.4578 0.0000 0.0000 0.0000
# 3 46.5613 53.4578 186.1503 0.0000 0.0000 0.0000
# 4 0.0000 0.0000 0.0000 5.7586 0.0000 0.0000
# 5 0.0000 0.0000 0.0000 0.0000 16.4890 0.0000
# 6 0.0000 0.0000 0.0000 0.0000 0.0000 -14.5296
#
#
#
# Elastic Compliance Matrix: (Units=1/GPa)
#
#
# Indices 1 2 3 4 5 6 
#
# 1 0.019034 -0.008297 -0.002378 0.000000 0.000000 0.000000
# 2 -0.008297 0.013963 -0.001935 0.000000 0.000000 0.000000
# 3 -0.002378 -0.001935 0.006522 0.000000 0.000000 0.000000
# 4 0.000000 0.000000 0.000000 0.173654 0.000000 0.000000
# 5 0.000000 0.000000 0.000000 0.000000 0.060647 0.000000
# 6 0.000000 0.000000 0.000000 0.000000 0.000000 -0.068825
#
#
# Mechanical properties :
#
#
# Convention : Reuss Voigt Hill
#
# Bulk Modulus (GPa) = 69.92870 76.85949 73.39409
# Shear Modulus (GPa) = 21.27816 16.55544 18.91680
#
# Velocity S-wave (km/s) = 3.70352 3.26676 3.49197
# Velocity P-wave (km/s) = 7.96018 7.98581 7.97300
#
# Compressibility (1/GPa) = 0.01430028
#
# Stress axis : x y z
#
# Youngs Moduli (GPa) = 52.53670 71.61534 153.31632
#
# Poissons Ratio (x) = 0.59420 0.36463
# Poissons Ratio (y) = 0.43590 0.29661
# Poissons Ratio (z) = 0.12495 0.13855
#
# Static dielectric constant tensor:
#      x y z
#    x 1.490760 0.000000 0.000000 
#    y 0.000000 1.533020 0.000000 
#    z 0.000000 0.000000 1.529850 
# 
# From -- ./inp_files/30457.got.cif
#   From: 2010.05.17/outbox.cif.g08.bks.cpg/sg66_16_cif.got.tgz:30457.got - 2010.06.03 17:51:23.
