data_PCOD9498815
_publ_section_title
;
Structure prediction by ZEFSAII (Michael W. Deem and Ramdas Pophale) SiO2 
 PCOD9498815
Probable space group: C C C M
;
_chemical_formula_sum "Si O2"
_cell_formula_units_Z 80
_cell_length_a 15.520195
_cell_length_b 9.829146
_cell_length_c 25.461710
_cell_angle_alpha 90.000000
_cell_angle_beta 90.000000
_cell_angle_gamma 90.000000
_cell_volume 3884.190547
_symmetry_space_group_name_H-M "C C C M"
_symmetry_group_IT_number 66
_symmetry_cell_setting 'orthorhombic'
loop_
_space_group_symop_operation_xyz
x,y,z
-x,-y,z
x,-y,1/2-z
-x,y,1/2-z
-x,-y,-z
x,y,-z
-x,y,1/2+z
x,-y,1/2+z
1/2+x,1/2+y,z
1/2-x,1/2-y,z
1/2+x,1/2-y,1/2-z
1/2-x,1/2+y,1/2-z
1/2-x,1/2-y,-z
1/2+x,1/2+y,-z
1/2-x,1/2+y,1/2+z
1/2+x,1/2-y,1/2+z
loop_
_atom_site_type_symbol
_atom_site_label
_atom_site_fract_x
_atom_site_fract_y
_atom_site_fract_z
Si Si1 0.349918 0.000000 0.750000
Si Si2 0.000000 0.500000 0.832761
Si Si3 0.862064 0.340093 0.616625
Si Si4 0.392895 0.770182 0.500000
Si Si5 0.219669 0.602819 0.088371
Si Si6 0.356978 0.535721 0.000000
Si Si7 0.419000 0.169284 0.500000
Si Si8 0.250000 0.250000 0.200300
O O1 0.419616 0.040056 0.704495
O O2 0.288639 0.126867 0.765289
O O3 0.959772 0.618709 0.868917
O O4 0.849603 0.303586 0.555805
O O5 0.805928 0.477975 0.624873
O O6 0.828294 0.229720 0.658158
O O7 0.401454 0.608356 0.500000
O O8 0.480230 0.857848 0.500000
O O9 0.250000 0.750000 0.109944
O O10 0.295433 0.552948 0.050245
O O11 0.136352 0.624145 0.050504
O O12 0.415829 0.667198 0.000000
#
# Coordination Sequence:
#
# PCOD9498815 Si02
#       8
#     8   8  16   8  16   8   8   8
#     4   9  20  44  72  87 116 152 198 281 328 352
#     4   9  20  39  62  90 120 155 204 257 320 366
#     4  11  21  34  58  95 123 161 204 243 298 374
#     4  12  21  30  53  82 136 168 196 242 293 356
#     4   9  18  33  49  74 112 157 210 251 274 340
#     4   9  18  31  46  66 109 172 214 242 287 319
#     4   9  18  31  48  68 109 178 222 230 279 339
#     4  10  22  41  66  94 116 147 208 260 318 380
#
# _framework density 20.596311
#
# number of rings (size 3 to 8) (size 9 to 14) (size 15 to 20)
#    0.000    2.200    0.000    5.100    0.000    2.400 
#    7.200    0.000    8.800    8.400    0.000    0.000 
#    0.000    0.000    0.000    0.000    0.000    0.000 
#
# Total GULP energy -222801.293864 kJ/mol
# GULP energy per Si atom -5570.032347 kJ/mol
# Density = 2.054943 g / cm^3
# Si number density = 20.596311 Si / 1000 Ang^3
#
#
#
# Elastic Constant Matrix: (Units=GPa)
#
#
# Indices 1 2 3 4 5 6 
#
# 1 105.3308 41.7661 35.2767 0.0000 0.0000 0.0000
# 2 41.7661 112.8723 32.3917 0.0000 0.0000 0.0000
# 3 35.2767 32.3917 94.7973 0.0000 0.0000 0.0000
# 4 0.0000 0.0000 0.0000 19.3798 0.0000 0.0000
# 5 0.0000 0.0000 0.0000 0.0000 6.8763 0.0000
# 6 0.0000 0.0000 0.0000 0.0000 0.0000 36.8972
#
#
#
# Elastic Compliance Matrix: (Units=1/GPa)
#
#
# Indices 1 2 3 4 5 6 
#
# 1 0.011972 -0.003494 -0.003261 0.000000 0.000000 0.000000
# 2 -0.003494 0.010843 -0.002405 0.000000 0.000000 0.000000
# 3 -0.003261 -0.002405 0.012584 0.000000 0.000000 0.000000
# 4 0.000000 0.000000 0.000000 0.051600 0.000000 0.000000
# 5 0.000000 0.000000 0.000000 0.000000 0.145427 0.000000
# 6 0.000000 0.000000 0.000000 0.000000 0.000000 0.027102
#
#
# Mechanical properties :
#
#
# Convention : Reuss Voigt Hill
#
# Bulk Modulus (GPa) = 58.55239 59.09659 58.82449
# Shear Modulus (GPa) = 17.63424 26.20172 21.91798
#
# Velocity S-wave (km/s) = 2.92924 3.57060 3.26570
# Velocity P-wave (km/s) = 6.31909 6.76417 6.54541
#
# Compressibility (1/GPa) = 0.01707872
#
# Stress axis : x y z
#
# Youngs Moduli (GPa) = 83.53163 92.22957 79.46596
#
# Poissons Ratio (x) = 0.32225 0.25914
# Poissons Ratio (y) = 0.29186 0.19109
# Poissons Ratio (z) = 0.27240 0.22178
#
# Static dielectric constant tensor:
#      x y z
#    x 1.783810 0.000000 0.000000 
#    y 0.000000 1.750410 0.000000 
#    z 0.000000 0.000000 1.822990 
# 
# From -- ./inp_files/64520.got.cif
#   From: 2010.05.17/outbox.cif.g08.bks.cpg/sg66_33_cif.got.tgz:64520.got - 2010.06.03 17:51:23.
