data_PCOD9498176
_publ_section_title
;
Structure prediction by ZEFSAII (Michael W. Deem and Ramdas Pophale) SiO2 
 PCOD9498176
Probable space group: C C C M
;
_chemical_formula_sum "Si O2"
_cell_formula_units_Z 96
_cell_length_a 14.503253
_cell_length_b 23.506278
_cell_length_c 14.778749
_cell_angle_alpha 90.000000
_cell_angle_beta 90.000000
_cell_angle_gamma 90.000000
_cell_volume 5038.334117
_symmetry_space_group_name_H-M "C C C M"
_symmetry_group_IT_number 66
_symmetry_cell_setting 'orthorhombic'
loop_
_space_group_symop_operation_xyz
x,y,z
-x,-y,z
x,-y,1/2-z
-x,y,1/2-z
-x,-y,-z
x,y,-z
-x,y,1/2+z
x,-y,1/2+z
1/2+x,1/2+y,z
1/2-x,1/2-y,z
1/2+x,1/2-y,1/2-z
1/2-x,1/2+y,1/2-z
1/2-x,1/2-y,-z
1/2+x,1/2+y,-z
1/2-x,1/2+y,1/2+z
1/2+x,1/2-y,1/2+z
loop_
_atom_site_type_symbol
_atom_site_label
_atom_site_fract_x
_atom_site_fract_y
_atom_site_fract_z
Si Si1 0.884077 0.124743 0.500000
Si Si2 0.917975 0.165375 0.000000
Si Si3 0.772666 0.599212 0.500000
Si Si4 0.282297 0.690052 0.346587
Si Si5 0.909546 0.769012 0.310009
Si Si6 0.280804 0.034817 0.000000
Si Si7 0.088952 0.366225 0.654937
Si Si8 0.384563 0.101831 0.150668
O O1 0.855972 0.160439 0.411277
O O2 0.815883 0.070112 0.500000
O O3 0.994270 0.122908 0.500000
O O4 0.918215 0.204189 0.090434
O O5 0.824942 0.129581 0.000000
O O6 0.762824 0.531578 0.500000
O O7 0.832580 0.618934 0.585050
O O8 0.250000 0.750000 0.385202
O O9 0.326086 0.703373 0.248189
O O10 0.192481 0.650933 0.350534
O O11 0.902871 0.700371 0.317958
O O12 0.000000 0.780594 0.250000
O O13 0.341763 0.053551 0.912888
O O14 0.102115 0.406754 0.742289
O O15 0.985279 0.377199 0.618613
#
# Coordination Sequence:
#
# PCOD9498176 Si02
#       8
#     8   8   8  16  16   8  16  16
#     4  10  23  39  64  96 122 160 230 264 310 374
#     4  12  27  40  63 101 127 172 213 251 322 406
#     4  12  28  45  64  86 133 174 216 268 328 368
#     4  11  19  36  62  94 132 172 200 255 319 383
#     4  12  22  40  65  98 140 167 193 253 322 401
#     4  10  25  46  63  91 117 172 223 287 306 356
#     4  11  22  41  62  98 131 169 201 262 321 396
#     4  10  21  38  65  92 126 162 222 260 313 377
#
# _framework density 19.053916999999998
#
# number of rings (size 3 to 8) (size 9 to 14) (size 15 to 20)
#    0.000    1.000    5.000    2.250    0.000    3.000 
#    0.000    1.667    0.000    0.000    0.000    0.000 
#    0.000    0.000    0.000    0.000    0.000    0.000 
#
# Total GULP energy -267961.731828 kJ/mol
# GULP energy per Si atom -5582.536080 kJ/mol
# Density = 1.901055 g / cm^3
# Si number density = 19.053917 Si / 1000 Ang^3
#
#
#
# Elastic Constant Matrix: (Units=GPa)
#
#
# Indices 1 2 3 4 5 6 
#
# 1 152.9322 37.9903 64.6825 0.0000 0.0000 0.0000
# 2 37.9903 73.7005 52.2107 0.0000 0.0000 0.0000
# 3 64.6825 52.2107 131.3451 0.0000 0.0000 0.0000
# 4 0.0000 0.0000 0.0000 -340.0663 0.0000 0.0000
# 5 0.0000 0.0000 0.0000 0.0000 41.0103 0.0000
# 6 0.0000 0.0000 0.0000 0.0000 0.0000 10.4835
#
#
#
# Elastic Compliance Matrix: (Units=1/GPa)
#
#
# Indices 1 2 3 4 5 6 
#
# 1 0.008458 -0.001961 -0.003386 0.000000 0.000000 0.000000
# 2 -0.001961 0.019342 -0.006723 0.000000 0.000000 0.000000
# 3 -0.003386 -0.006723 0.011953 0.000000 0.000000 0.000000
# 4 0.000000 0.000000 0.000000 -0.002941 0.000000 0.000000
# 5 0.000000 0.000000 0.000000 0.000000 0.024384 0.000000
# 6 0.000000 0.000000 0.000000 0.000000 0.000000 0.095388
#
#
# Mechanical properties :
#
#
# Convention : Reuss Voigt Hill
#
# Bulk Modulus (GPa) = 64.04613 74.19390 69.12001
# Shear Modulus (GPa) = 26.89205 -44.17490 -8.64143
#
# Velocity S-wave (km/s) = 3.76089 -4.82022 -2.13192
# Velocity P-wave (km/s) = 7.24880 2.83622 5.50406
#
# Compressibility (1/GPa) = 0.01561375
#
# Stress axis : x y z
#
# Youngs Moduli (GPa) = 118.23107 51.70112 83.66036
#
# Poissons Ratio (x) = 0.10141 0.28324
# Poissons Ratio (y) = 0.23191 0.56242
# Poissons Ratio (z) = 0.40028 0.34757
#
# Static dielectric constant tensor:
#      x y z
#    x 1.683520 0.000000 0.000000 
#    y 0.000000 1.627500 0.000000 
#    z 0.000000 0.000000 1.709120 
# 
# From -- ./inp_files/28469.got.cif
#   From: 2010.05.17/outbox.cif.g08.bks.cpg/sg66_15_cif.got.tgz:28469.got - 2010.06.03 17:51:23.
