data_PCOD9498812
_publ_section_title
;
Structure prediction by ZEFSAII (Michael W. Deem and Ramdas Pophale) SiO2 
 PCOD9498812
Probable space group: C C C M
;
_chemical_formula_sum "Si O2"
_cell_formula_units_Z 56
_cell_length_a 7.306716
_cell_length_b 16.686989
_cell_length_c 18.902692
_cell_angle_alpha 90.000000
_cell_angle_beta 90.000000
_cell_angle_gamma 90.000000
_cell_volume 2304.750220
_symmetry_space_group_name_H-M "C C C M"
_symmetry_group_IT_number 66
_symmetry_cell_setting 'orthorhombic'
loop_
_space_group_symop_operation_xyz
x,y,z
-x,-y,z
x,-y,1/2-z
-x,y,1/2-z
-x,-y,-z
x,y,-z
-x,y,1/2+z
x,-y,1/2+z
1/2+x,1/2+y,z
1/2-x,1/2-y,z
1/2+x,1/2-y,1/2-z
1/2-x,1/2+y,1/2-z
1/2-x,1/2-y,-z
1/2+x,1/2+y,-z
1/2-x,1/2+y,1/2+z
1/2+x,1/2-y,1/2+z
loop_
_atom_site_type_symbol
_atom_site_label
_atom_site_fract_x
_atom_site_fract_y
_atom_site_fract_z
Si Si1 0.291112 0.586694 0.225430
Si Si2 0.372498 0.924393 0.921910
Si Si3 0.029451 0.747613 0.921561
Si Si4 0.750000 0.250000 0.697690
O O1 0.212328 0.500000 0.250000
O O2 0.500000 0.586760 0.250000
O O3 0.269171 0.585217 0.141141
O O4 0.209245 0.670196 0.256152
O O5 0.504768 0.847645 0.921509
O O6 0.500000 0.000000 0.910813
O O7 0.286517 0.928468 0.000000
O O8 0.250000 0.750000 0.915147
O O9 0.914843 0.776174 0.854831
O O10 0.980850 0.779809 0.000000
#
# Coordination Sequence:
#
# PCOD9498812 Si02
#       4
#    16  16  16   8
#     4  11  26  45  66 104 145 180 235 296 357 422
#     4  10  22  43  70  98 134 185 235 289 356 424
#     4  10  22  41  66 101 139 179 233 289 345 426
#     4  12  25  40  73  98 138 194 234 282 369 424
#
# _framework density 24.297642
#
# number of rings (size 3 to 8) (size 9 to 14) (size 15 to 20)
#    0.000    1.429    0.000    3.857    6.000    2.857 
#    0.000    5.714    0.000    0.000    0.000    0.000 
#    0.000    0.000    0.000    0.000    0.000    0.000 
#
# Total GULP energy -156541.766919 kJ/mol
# GULP energy per Si atom -5590.777390 kJ/mol
# Density = 2.424234 g / cm^3
# Si number density = 24.297642 Si / 1000 Ang^3
#
#
#
# Elastic Constant Matrix: (Units=GPa)
#
#
# Indices 1 2 3 4 5 6 
#
# 1 99.7808 17.5659 78.6985 0.0000 0.0000 0.0000
# 2 17.5659 157.4185 51.5890 0.0000 0.0000 0.0000
# 3 78.6985 51.5890 254.1071 0.0000 0.0000 0.0000
# 4 0.0000 0.0000 0.0000 33.0775 0.0000 0.0000
# 5 0.0000 0.0000 0.0000 0.0000 45.8312 0.0000
# 6 0.0000 0.0000 0.0000 0.0000 0.0000 18.1985
#
#
#
# Elastic Compliance Matrix: (Units=1/GPa)
#
#
# Indices 1 2 3 4 5 6 
#
# 1 0.013264 -0.000143 -0.004079 0.000000 0.000000 0.000000
# 2 -0.000143 0.006807 -0.001338 0.000000 0.000000 0.000000
# 3 -0.004079 -0.001338 0.005470 0.000000 0.000000 0.000000
# 4 0.000000 0.000000 0.000000 0.030232 0.000000 0.000000
# 5 0.000000 0.000000 0.000000 0.000000 0.021819 0.000000
# 6 0.000000 0.000000 0.000000 0.000000 0.000000 0.054950
#
#
# Mechanical properties :
#
#
# Convention : Reuss Voigt Hill
#
# Bulk Modulus (GPa) = 69.34028 89.66813 79.50421
# Shear Modulus (GPa) = 33.67706 43.65163 38.66435
#
# Velocity S-wave (km/s) = 3.72697 4.24316 3.99341
# Velocity P-wave (km/s) = 6.86442 7.80961 7.35222
#
# Compressibility (1/GPa) = 0.01442163
#
# Stress axis : x y z
#
# Youngs Moduli (GPa) = 75.39023 146.91138 182.81003
#
# Poissons Ratio (x) = 0.02107 0.74567
# Poissons Ratio (y) = 0.01081 0.24451
# Poissons Ratio (z) = 0.30751 0.19650
#
# Static dielectric constant tensor:
#      x y z
#    x 1.947910 0.000000 0.000000 
#    y 0.000000 2.010310 0.000000 
#    z 0.000000 0.000000 1.980010 
# 
# From -- ./inp_files/36068.got.cif
#   From: 2010.05.17/outbox.cif.g08.bks.cpg/sg66_19_cif.got.tgz:36068.got - 2010.06.03 17:51:23.
