data_PCOD9498187
_publ_section_title
;
Structure prediction by ZEFSAII (Michael W. Deem and Ramdas Pophale) SiO2 
 PCOD9498187
Probable space group: C C C M
;
_chemical_formula_sum "Si O2"
_cell_formula_units_Z 68
_cell_length_a 21.738691
_cell_length_b 4.972355
_cell_length_c 28.354254
_cell_angle_alpha 90.000000
_cell_angle_beta 90.000000
_cell_angle_gamma 90.000000
_cell_volume 3064.881885
_symmetry_space_group_name_H-M "C C C M"
_symmetry_group_IT_number 66
_symmetry_cell_setting 'orthorhombic'
loop_
_space_group_symop_operation_xyz
x,y,z
-x,-y,z
x,-y,1/2-z
-x,y,1/2-z
-x,-y,-z
x,y,-z
-x,y,1/2+z
x,-y,1/2+z
1/2+x,1/2+y,z
1/2-x,1/2-y,z
1/2+x,1/2-y,1/2-z
1/2-x,1/2+y,1/2-z
1/2-x,1/2-y,-z
1/2+x,1/2+y,-z
1/2-x,1/2+y,1/2+z
1/2+x,1/2-y,1/2+z
loop_
_atom_site_type_symbol
_atom_site_label
_atom_site_fract_x
_atom_site_fract_y
_atom_site_fract_z
Si Si1 0.750000 0.250000 0.811357
Si Si2 0.062746 0.618827 0.174373
Si Si3 0.000000 0.000000 0.250000
Si Si4 0.662290 0.421441 0.886748
Si Si5 0.354131 0.000000 0.250000
Si Si6 0.183334 0.397586 0.054083
O O1 0.717695 0.454710 0.848556
O O2 0.693548 0.192200 0.776681
O O3 0.040186 0.815714 0.215808
O O4 0.105005 0.782774 0.139098
O O5 0.104401 0.410250 0.205061
O O6 0.000000 0.500000 0.153610
O O7 0.645809 0.700785 0.911358
O O8 0.682445 0.197358 0.925287
O O9 0.250000 0.250000 0.054622
O O10 0.162258 0.399785 0.000000
#
# Coordination Sequence:
#
# PCOD9498187 Si02
#       6
#     8  16   4  16   8  16
#     4  10  22  34  57  92 132 172 209 258 326 378
#     4  11  24  42  63  93 128 178 232 270 313 376
#     4  12  22  42  64  90 120 180 238 264 316 352
#     4  11  24  40  65  98 133 168 215 272 324 397
#     4  10  21  39  54  86 134 170 214 264 312 378
#     4  11  22  42  68  98 131 165 210 266 342 411
#
# _framework density 22.186824000000001
#
# number of rings (size 3 to 8) (size 9 to 14) (size 15 to 20)
#    0.000    1.176    4.706    0.706    3.294    9.412 
#    0.000    0.000    0.000    4.235    0.000    0.000 
#    0.000    0.000    0.000    0.000    0.000    0.000 
#
# Total GULP energy -189768.036417 kJ/mol
# GULP energy per Si atom -5581.412836 kJ/mol
# Density = 2.213633 g / cm^3
# Si number density = 22.186824 Si / 1000 Ang^3
#
#
#
# Elastic Constant Matrix: (Units=GPa)
#
#
# Indices 1 2 3 4 5 6 
#
# 1 102.2603 3.2402 24.8161 0.0000 0.0000 0.0000
# 2 3.2402 85.3888 27.7739 0.0000 0.0000 0.0000
# 3 24.8161 27.7739 113.1083 0.0000 0.0000 0.0000
# 4 0.0000 0.0000 0.0000 -5.6412 0.0000 0.0000
# 5 0.0000 0.0000 0.0000 0.0000 15.7728 0.0000
# 6 0.0000 0.0000 0.0000 0.0000 0.0000 21.5689
#
#
#
# Elastic Compliance Matrix: (Units=1/GPa)
#
#
# Indices 1 2 3 4 5 6 
#
# 1 0.010340 0.000376 -0.002361 0.000000 0.000000 0.000000
# 2 0.000376 0.012741 -0.003211 0.000000 0.000000 0.000000
# 3 -0.002361 -0.003211 0.010148 0.000000 0.000000 0.000000
# 4 0.000000 0.000000 0.000000 -0.177266 0.000000 0.000000
# 5 0.000000 0.000000 0.000000 0.000000 0.063400 0.000000
# 6 0.000000 0.000000 0.000000 0.000000 0.000000 0.046363
#
#
# Mechanical properties :
#
#
# Convention : Reuss Voigt Hill
#
# Bulk Modulus (GPa) = 43.79017 45.82419 44.80718
# Shear Modulus (GPa) = -307.32391 22.66858 -142.32766
#
# Velocity S-wave (km/s) = -11.78207 3.19989 -8.01804
# Velocity P-wave (km/s) = 12.85728 5.86098 8.09193
#
# Compressibility (1/GPa) = 0.02283617
#
# Stress axis : x y z
#
# Youngs Moduli (GPa) = 96.71194 78.48481 98.54626
#
# Poissons Ratio (x) = -0.02947 0.23265
# Poissons Ratio (y) = -0.03632 0.31644
# Poissons Ratio (z) = 0.22832 0.25202
#
# Static dielectric constant tensor:
#      x y z
#    x 1.935650 0.000000 0.000000 
#    y 0.000000 1.884940 0.000000 
#    z 0.000000 0.000000 1.809350 
# 
# From -- ./inp_files/61485.got.cif
#   From: 2010.05.17/outbox.cif.g08.bks.cpg/sg66_31_cif.got.tgz:61485.got - 2010.06.03 17:51:23.
