data_PCOD9498532
_publ_section_title
;
Structure prediction by ZEFSAII (Michael W. Deem and Ramdas Pophale) SiO2 
 PCOD9498532
Probable space group: C C C M
;
_chemical_formula_sum "Si O2"
_cell_formula_units_Z 72
_cell_length_a 10.980755
_cell_length_b 19.298088
_cell_length_c 19.482354
_cell_angle_alpha 90.000000
_cell_angle_beta 90.000000
_cell_angle_gamma 90.000000
_cell_volume 4128.458417
_symmetry_space_group_name_H-M "C C C M"
_symmetry_group_IT_number 66
_symmetry_cell_setting 'orthorhombic'
loop_
_space_group_symop_operation_xyz
x,y,z
-x,-y,z
x,-y,1/2-z
-x,y,1/2-z
-x,-y,-z
x,y,-z
-x,y,1/2+z
x,-y,1/2+z
1/2+x,1/2+y,z
1/2-x,1/2-y,z
1/2+x,1/2-y,1/2-z
1/2-x,1/2+y,1/2-z
1/2-x,1/2-y,-z
1/2+x,1/2+y,-z
1/2-x,1/2+y,1/2+z
1/2+x,1/2-y,1/2+z
loop_
_atom_site_type_symbol
_atom_site_label
_atom_site_fract_x
_atom_site_fract_y
_atom_site_fract_z
Si Si1 0.146543 0.079070 0.254174
Si Si2 0.611624 0.281931 0.500000
Si Si3 0.353825 0.692091 0.352782
Si Si4 0.500000 0.786073 0.750000
Si Si5 0.202699 0.670212 0.849103
Si Si6 0.638107 0.194381 0.000000
O O1 0.187556 0.125572 0.189500
O O2 0.193966 0.118278 0.322024
O O3 0.000000 0.078816 0.250000
O O4 0.189311 0.000000 0.250000
O O5 0.750000 0.250000 0.500000
O O6 0.601221 0.323585 0.429129
O O7 0.497220 0.228591 0.500000
O O8 0.250000 0.750000 0.358142
O O9 0.450816 0.733627 0.307633
O O10 0.401985 0.831303 0.790985
O O11 0.250000 0.750000 0.846697
O O12 0.156168 0.656632 0.926487
O O13 0.750000 0.250000 0.000000
#
# Coordination Sequence:
#
# PCOD9498532 Si02
#       6
#    16   8  16   8  16   8
#     4  11  22  36  55  80 113 152 191 230 281 344
#     4  10  22  34  55  89 119 147 183 238 294 344
#     4  11  19  34  57  84 110 142 186 233 279 337
#     4  12  16  30  62  82 106 138 188 230 284 318
#     4  11  20  35  57  84 111 145 188 238 283 334
#     4  10  22  32  53  89 119 141 185 246 294 328
#
# _framework density 17.439924000000001
#
# number of rings (size 3 to 8) (size 9 to 14) (size 15 to 20)
#    0.000    1.111    7.778    0.000    3.111    0.000 
#    0.000    1.667    0.000    2.667    0.000    4.667 
#    0.000    0.000    0.000    0.000    0.000    0.000 
#
# Total GULP energy -200496.347652 kJ/mol
# GULP energy per Si atom -5569.342990 kJ/mol
# Density = 1.740023 g / cm^3
# Si number density = 17.439924 Si / 1000 Ang^3
#
#
#
# Elastic Constant Matrix: (Units=GPa)
#
#
# Indices 1 2 3 4 5 6 
#
# 1 75.2496 17.2457 37.9461 0.0000 0.0000 0.0000
# 2 17.2457 91.6847 39.9267 0.0000 0.0000 0.0000
# 3 37.9461 39.9267 166.4458 0.0000 0.0000 0.0000
# 4 0.0000 0.0000 0.0000 12.9969 0.0000 0.0000
# 5 0.0000 0.0000 0.0000 0.0000 -20.2743 0.0000
# 6 0.0000 0.0000 0.0000 0.0000 0.0000 17.7090
#
#
#
# Elastic Compliance Matrix: (Units=1/GPa)
#
#
# Indices 1 2 3 4 5 6 
#
# 1 0.015200 -0.001507 -0.003104 0.000000 0.000000 0.000000
# 2 -0.001507 0.012329 -0.002614 0.000000 0.000000 0.000000
# 3 -0.003104 -0.002614 0.007342 0.000000 0.000000 0.000000
# 4 0.000000 0.000000 0.000000 0.076942 0.000000 0.000000
# 5 0.000000 0.000000 0.000000 0.000000 -0.049324 0.000000
# 6 0.000000 0.000000 0.000000 0.000000 0.000000 0.056469
#
#
# Mechanical properties :
#
#
# Convention : Reuss Voigt Hill
#
# Bulk Modulus (GPa) = 48.96852 58.17970 53.57411
# Shear Modulus (GPa) = 35.65972 17.97040 26.81506
#
# Velocity S-wave (km/s) = 4.52676 3.21349 3.92544
# Velocity P-wave (km/s) = 7.44724 6.87031 7.16459
#
# Compressibility (1/GPa) = 0.02042128
#
# Stress axis : x y z
#
# Youngs Moduli (GPa) = 65.79101 81.11146 136.19360
#
# Poissons Ratio (x) = 0.12227 0.42269
# Poissons Ratio (y) = 0.09918 0.35597
# Poissons Ratio (z) = 0.20419 0.21200
#
# Static dielectric constant tensor:
#      x y z
#    x 1.678030 0.000000 0.000000 
#    y 0.000000 1.579970 0.000000 
#    z 0.000000 0.000000 1.647250 
# 
# From -- ./inp_files/41340.got.cif
#   From: 2010.05.17/outbox.cif.g08.bks.cpg/sg66_21_cif.got.tgz:41340.got - 2010.06.03 17:51:23.
