data_PCOD9498586
_publ_section_title
;
Structure prediction by ZEFSAII (Michael W. Deem and Ramdas Pophale) SiO2 
 PCOD9498586
Probable space group: C C C M
;
_chemical_formula_sum "Si O2"
_cell_formula_units_Z 104
_cell_length_a 19.244329
_cell_length_b 9.333339
_cell_length_c 28.527158
_cell_angle_alpha 90.000000
_cell_angle_beta 90.000000
_cell_angle_gamma 90.000000
_cell_volume 5123.872575
_symmetry_space_group_name_H-M "C C C M"
_symmetry_group_IT_number 66
_symmetry_cell_setting 'orthorhombic'
loop_
_space_group_symop_operation_xyz
x,y,z
-x,-y,z
x,-y,1/2-z
-x,y,1/2-z
-x,-y,-z
x,y,-z
-x,y,1/2+z
x,-y,1/2+z
1/2+x,1/2+y,z
1/2-x,1/2-y,z
1/2+x,1/2-y,1/2-z
1/2-x,1/2+y,1/2-z
1/2-x,1/2-y,-z
1/2+x,1/2+y,-z
1/2-x,1/2+y,1/2+z
1/2+x,1/2-y,1/2+z
loop_
_atom_site_type_symbol
_atom_site_label
_atom_site_fract_x
_atom_site_fract_y
_atom_site_fract_z
Si Si1 0.145372 0.891988 0.500000
Si Si2 0.117246 0.711615 0.840299
Si Si3 0.874572 0.017617 0.098475
Si Si4 0.609053 0.224219 0.357207
Si Si5 0.500000 0.000000 0.856163
Si Si6 0.291815 0.003869 0.103329
Si Si7 0.083341 0.827884 0.254199
Si Si8 0.686523 0.069693 0.500000
O O1 0.114946 0.974692 0.455385
O O2 0.229787 0.903948 0.500000
O O3 0.141534 0.717541 0.500000
O O4 0.177016 0.618062 0.863612
O O5 0.129180 0.776448 0.789688
O O6 0.053884 0.602920 0.830752
O O7 0.099730 0.836062 0.877956
O O8 0.904994 0.883714 0.126142
O O9 0.790728 0.011352 0.103902
O O10 0.551834 0.115457 0.378808
O O11 0.606138 0.243151 0.301118
O O12 0.680284 0.155552 0.376622
O O13 0.321777 0.991376 0.050075
O O14 0.000000 0.802320 0.250000
O O15 0.090726 0.000000 0.250000
#
# Coordination Sequence:
#
# PCOD9498586 Si02
#       8
#     8  16  16  16   8  16  16   8
#     4   9  18  33  63  92 116 162 218 244 286 374
#     4  11  23  40  61  90 128 155 211 254 305 358
#     4  11  21  39  64  93 124 163 202 248 310 368
#     4  11  21  38  64  90 124 154 209 250 304 363
#     4  10  24  39  58  93 110 160 202 267 302 341
#     4  10  22  37  62  97 127 163 196 251 307 369
#     4  11  22  39  63  92 113 161 219 258 289 356
#     4   9  16  35  61  90 125 160 208 250 291 355
#
# _framework density 20.297146999999999
#
# number of rings (size 3 to 8) (size 9 to 14) (size 15 to 20)
#    0.000    1.538    4.615    0.923    0.000    4.308 
#    0.000    6.923    0.000   17.538    0.000    0.000 
#    0.000    0.000    0.000    0.000    0.000    0.000 
#
# Total GULP energy -289526.323590 kJ/mol
# GULP energy per Si atom -5567.813915 kJ/mol
# Density = 2.025095 g / cm^3
# Si number density = 20.297147 Si / 1000 Ang^3
#
#
#
# Elastic Constant Matrix: (Units=GPa)
#
#
# Indices 1 2 3 4 5 6 
#
# 1 33.5623 16.1810 19.5430 0.0000 0.0000 0.0000
# 2 16.1810 87.9875 20.3509 0.0000 0.0000 0.0000
# 3 19.5430 20.3509 132.8935 0.0000 0.0000 0.0000
# 4 0.0000 0.0000 0.0000 132.8333 0.0000 0.0000
# 5 0.0000 0.0000 0.0000 0.0000 5.0773 0.0000
# 6 0.0000 0.0000 0.0000 0.0000 0.0000 31.2839
#
#
#
# Elastic Compliance Matrix: (Units=1/GPa)
#
#
# Indices 1 2 3 4 5 6 
#
# 1 0.034917 -0.005426 -0.004304 0.000000 0.000000 0.000000
# 2 -0.005426 0.012626 -0.001136 0.000000 0.000000 0.000000
# 3 -0.004304 -0.001136 0.008332 0.000000 0.000000 0.000000
# 4 0.000000 0.000000 0.000000 0.007528 0.000000 0.000000
# 5 0.000000 0.000000 0.000000 0.000000 0.196956 0.000000
# 6 0.000000 0.000000 0.000000 0.000000 0.000000 0.031965
#
#
# Mechanical properties :
#
#
# Convention : Reuss Voigt Hill
#
# Bulk Modulus (GPa) = 29.28771 40.73256 35.01013
# Shear Modulus (GPa) = 15.36396 47.06346 31.21371
#
# Velocity S-wave (km/s) = 2.75426 4.82054 3.92578
# Velocity P-wave (km/s) = 4.95736 7.14808 6.15104
#
# Compressibility (1/GPa) = 0.03414401
#
# Stress axis : x y z
#
# Youngs Moduli (GPa) = 28.63900 79.20340 120.02431
#
# Poissons Ratio (x) = 0.42975 0.51658
# Poissons Ratio (y) = 0.15539 0.13629
# Poissons Ratio (z) = 0.12326 0.08994
#
# Static dielectric constant tensor:
#      x y z
#    x 1.759650 0.000000 0.000000 
#    y 0.000000 1.741210 0.000000 
#    z 0.000000 0.000000 1.761390 
# 
# From -- ./inp_files/65765.got.cif
#   From: 2010.05.17/outbox.cif.g08.bks.cpg/sg66_33_cif.got.tgz:65765.got - 2010.06.03 17:51:23.
