data_PCOD9498101
_publ_section_title
;
Structure prediction by ZEFSAII (Michael W. Deem and Ramdas Pophale) SiO2 
 PCOD9498101
Probable space group: C C C M
;
_chemical_formula_sum "Si O2"
_cell_formula_units_Z 96
_cell_length_a 13.473165
_cell_length_b 21.892960
_cell_length_c 14.987456
_cell_angle_alpha 90.000000
_cell_angle_beta 90.000000
_cell_angle_gamma 90.000000
_cell_volume 4420.811864
_symmetry_space_group_name_H-M "C C C M"
_symmetry_group_IT_number 66
_symmetry_cell_setting 'orthorhombic'
loop_
_space_group_symop_operation_xyz
x,y,z
-x,-y,z
x,-y,1/2-z
-x,y,1/2-z
-x,-y,-z
x,y,-z
-x,y,1/2+z
x,-y,1/2+z
1/2+x,1/2+y,z
1/2-x,1/2-y,z
1/2+x,1/2-y,1/2-z
1/2-x,1/2+y,1/2-z
1/2-x,1/2-y,-z
1/2+x,1/2+y,-z
1/2-x,1/2+y,1/2+z
1/2+x,1/2-y,1/2+z
loop_
_atom_site_type_symbol
_atom_site_label
_atom_site_fract_x
_atom_site_fract_y
_atom_site_fract_z
Si Si1 0.900262 0.317340 0.103526
Si Si2 0.771106 0.412820 0.598190
Si Si3 0.738146 0.907693 0.294029
Si Si4 0.111350 0.996862 0.897193
Si Si5 0.114296 0.204691 0.736073
Si Si6 0.873738 0.711401 0.903445
O O1 0.847227 0.375631 0.147491
O O2 0.877135 0.254358 0.156172
O O3 0.019745 0.321851 0.108957
O O4 0.871672 0.312482 0.000000
O O5 0.809254 0.436900 0.500000
O O6 0.805967 0.430145 0.698663
O O7 0.657875 0.435415 0.600544
O O8 0.793140 0.341571 0.595119
O O9 0.807563 0.956810 0.344394
O O10 0.813938 0.851793 0.276201
O O11 0.105605 0.974199 0.000000
O O12 0.000000 0.000000 0.860685
O O13 0.139082 0.243057 0.823614
O O14 0.000000 0.185037 0.750000
O O15 0.876610 0.742458 0.000000
#
# Coordination Sequence:
#
# PCOD9498101 Si02
#       6
#    16  16  16  16  16  16
#     4  10  21  38  60  89 127 164 201 257 320 376
#     4  10  22  39  62  88 119 163 211 255 310 369
#     4  12  23  36  63  92 122 165 210 262 310 377
#     4  10  24  45  64  89 126 167 214 265 313 369
#     4  10  22  37  56  90 126 162 206 251 310 379
#     4   9  19  40  64  88 127 167 205 260 318 382
#
# _framework density 21.715468000000001
#
# number of rings (size 3 to 8) (size 9 to 14) (size 15 to 20)
#    0.000    1.833    1.667    1.500    2.333    3.333 
#    0.000    2.500    0.000    6.000    0.000    0.000 
#    0.000    0.000    0.000    0.000    0.000    0.000 
#
# Total GULP energy -267798.388892 kJ/mol
# GULP energy per Si atom -5579.133102 kJ/mol
# Density = 2.166604 g / cm^3
# Si number density = 21.715468 Si / 1000 Ang^3
#
#
#
# Elastic Constant Matrix: (Units=GPa)
#
#
# Indices 1 2 3 4 5 6 
#
# 1 101.2887 53.2503 45.0045 0.0000 0.0000 0.0000
# 2 53.2503 73.1357 40.3333 0.0000 0.0000 0.0000
# 3 45.0045 40.3333 178.2947 0.0000 0.0000 0.0000
# 4 0.0000 0.0000 0.0000 18.8077 0.0000 0.0000
# 5 0.0000 0.0000 0.0000 0.0000 22.4850 0.0000
# 6 0.0000 0.0000 0.0000 0.0000 0.0000 30.1459
#
#
#
# Elastic Compliance Matrix: (Units=1/GPa)
#
#
# Indices 1 2 3 4 5 6 
#
# 1 0.016407 -0.011039 -0.001644 0.000000 0.000000 0.000000
# 2 -0.011039 0.023050 -0.002428 0.000000 0.000000 0.000000
# 3 -0.001644 -0.002428 0.006573 0.000000 0.000000 0.000000
# 4 0.000000 0.000000 0.000000 0.053170 0.000000 0.000000
# 5 0.000000 0.000000 0.000000 0.000000 0.044474 0.000000
# 6 0.000000 0.000000 0.000000 0.000000 0.000000 0.033172
#
#
# Mechanical properties :
#
#
# Convention : Reuss Voigt Hill
#
# Bulk Modulus (GPa) = 63.26158 69.98836 66.62497
# Shear Modulus (GPa) = 23.54751 28.56312 26.05531
#
# Velocity S-wave (km/s) = 3.29654 3.63069 3.46764
# Velocity P-wave (km/s) = 6.60945 7.06226 6.83961
#
# Compressibility (1/GPa) = 0.01580738
#
# Stress axis : x y z
#
# Youngs Moduli (GPa) = 60.95004 43.38444 152.13989
#
# Poissons Ratio (x) = 0.47893 0.25014
# Poissons Ratio (y) = 0.67284 0.36936
# Poissons Ratio (z) = 0.10021 0.10533
#
# Static dielectric constant tensor:
#      x y z
#    x 1.813010 0.000000 0.000000 
#    y 0.000000 1.775080 0.000000 
#    z 0.000000 0.000000 1.881620 
# 
# From -- ./inp_files/28360.got.cif
#   From: 2010.05.17/outbox.cif.g08.bks.cpg/sg66_15_cif.got.tgz:28360.got - 2010.06.03 17:51:23.
