data_PCOD9498679
_publ_section_title
;
Structure prediction by ZEFSAII (Michael W. Deem and Ramdas Pophale) SiO2 
 PCOD9498679
Probable space group: C C C M
;
_chemical_formula_sum "Si O2"
_cell_formula_units_Z 96
_cell_length_a 15.227381
_cell_length_b 19.475640
_cell_length_c 14.058681
_cell_angle_alpha 90.000000
_cell_angle_beta 90.000000
_cell_angle_gamma 90.000000
_cell_volume 4169.284480
_symmetry_space_group_name_H-M "C C C M"
_symmetry_group_IT_number 66
_symmetry_cell_setting 'orthorhombic'
loop_
_space_group_symop_operation_xyz
x,y,z
-x,-y,z
x,-y,1/2-z
-x,y,1/2-z
-x,-y,-z
x,y,-z
-x,y,1/2+z
x,-y,1/2+z
1/2+x,1/2+y,z
1/2-x,1/2-y,z
1/2+x,1/2-y,1/2-z
1/2-x,1/2+y,1/2-z
1/2-x,1/2-y,-z
1/2+x,1/2+y,-z
1/2-x,1/2+y,1/2+z
1/2+x,1/2-y,1/2+z
loop_
_atom_site_type_symbol
_atom_site_label
_atom_site_fract_x
_atom_site_fract_y
_atom_site_fract_z
Si Si1 0.138765 0.312190 0.604987
Si Si2 0.586727 0.963667 0.388911
Si Si3 0.484972 0.717196 0.637837
Si Si4 0.179713 0.693993 0.325469
Si Si5 0.450469 0.435288 0.851128
Si Si6 0.250648 0.452531 0.113485
O O1 0.184751 0.318702 0.500000
O O2 0.082280 0.381969 0.616238
O O3 0.183424 0.307945 0.709018
O O4 0.075295 0.246969 0.598980
O O5 0.589145 0.983392 0.500000
O O6 0.500000 0.000000 0.349472
O O7 0.681939 0.988990 0.353906
O O8 0.500000 0.711579 0.750000
O O9 0.410466 0.775591 0.632395
O O10 0.458758 0.641069 0.604904
O O11 0.250000 0.750000 0.356791
O O12 0.203088 0.619285 0.363562
O O13 0.500000 0.500000 0.898040
O O14 0.500000 0.429908 0.750000
O O15 0.347440 0.451733 0.841857
O O16 0.265357 0.458879 0.000000
#
# Coordination Sequence:
#
# PCOD9498679 Si02
#       6
#    16  16  16  16  16  16
#     4  10  22  39  63  93 128 173 213 259 331 409
#     4   9  19  39  65  98 138 170 211 272 335 406
#     4   9  19  39  61  92 127 167 220 272 333 396
#     4  11  22  40  65  91 129 162 212 282 329 388
#     4  10  22  41  66  91 128 180 231 284 340 389
#     4  11  24  42  67 100 133 174 227 279 334 399
#
# _framework density 23.025534
#
# number of rings (size 3 to 8) (size 9 to 14) (size 15 to 20)
#    0.000    2.000    1.667    1.000    0.000    7.000 
#    0.000    0.833    0.000    0.000    0.000    0.000 
#    0.000    0.000    0.000    0.000    0.000    0.000 
#
# Total GULP energy -267737.428875 kJ/mol
# GULP energy per Si atom -5577.863102 kJ/mol
# Density = 2.297313 g / cm^3
# Si number density = 23.025534 Si / 1000 Ang^3
#
#
#
# Elastic Constant Matrix: (Units=GPa)
#
#
# Indices 1 2 3 4 5 6 
#
# 1 115.5158 45.9219 1.1858 0.0000 0.0000 0.0000
# 2 45.9219 126.2077 -8.1844 0.0000 0.0000 0.0000
# 3 1.1858 -8.1844 110.5726 0.0000 0.0000 0.0000
# 4 0.0000 0.0000 0.0000 -81.9881 0.0000 0.0000
# 5 0.0000 0.0000 0.0000 0.0000 19.7956 0.0000
# 6 0.0000 0.0000 0.0000 0.0000 0.0000 40.3773
#
#
#
# Elastic Compliance Matrix: (Units=1/GPa)
#
#
# Indices 1 2 3 4 5 6 
#
# 1 0.010137 -0.003713 -0.000384 0.000000 0.000000 0.000000
# 2 -0.003713 0.009322 0.000730 0.000000 0.000000 0.000000
# 3 -0.000384 0.000730 0.009102 0.000000 0.000000 0.000000
# 4 0.000000 0.000000 0.000000 -0.012197 0.000000 0.000000
# 5 0.000000 0.000000 0.000000 0.000000 0.050516 0.000000
# 6 0.000000 0.000000 0.000000 0.000000 0.000000 0.024766
#
#
# Mechanical properties :
#
#
# Convention : Reuss Voigt Hill
#
# Bulk Modulus (GPa) = 45.81545 47.79364 46.80454
# Shear Modulus (GPa) = 47.32324 16.52848 31.92586
#
# Velocity S-wave (km/s) = 4.53841 2.68215 3.72767
# Velocity P-wave (km/s) = 6.88503 5.51305 6.23688
#
# Compressibility (1/GPa) = 0.02182670
#
# Stress axis : x y z
#
# Youngs Moduli (GPa) = 98.64906 107.27432 109.86643
#
# Poissons Ratio (x) = 0.39834 0.04214
# Poissons Ratio (y) = 0.36631 -0.08018
# Poissons Ratio (z) = 0.03784 -0.07829
#
# Static dielectric constant tensor:
#      x y z
#    x 2.875320 0.000000 0.000000 
#    y 0.000000 1.903120 0.000000 
#    z 0.000000 0.000000 1.958670 
# 
# From -- ./inp_files/28326.got.cif
#   From: 2010.05.17/outbox.cif.g08.bks.cpg/sg66_15_cif.got.tgz:28326.got - 2010.06.03 17:51:23.
