data_PCOD9498008
_publ_section_title
;
Structure prediction by ZEFSAII (Michael W. Deem and Ramdas Pophale) SiO2 
 PCOD9498008
Probable space group: C C C M
;
_chemical_formula_sum "Si O2"
_cell_formula_units_Z 116
_cell_length_a 24.831405
_cell_length_b 18.734394
_cell_length_c 11.790066
_cell_angle_alpha 90.000000
_cell_angle_beta 90.000000
_cell_angle_gamma 90.000000
_cell_volume 5484.754323
_symmetry_space_group_name_H-M "C C C M"
_symmetry_group_IT_number 66
_symmetry_cell_setting 'orthorhombic'
loop_
_space_group_symop_operation_xyz
x,y,z
-x,-y,z
x,-y,1/2-z
-x,y,1/2-z
-x,-y,-z
x,y,-z
-x,y,1/2+z
x,-y,1/2+z
1/2+x,1/2+y,z
1/2-x,1/2-y,z
1/2+x,1/2-y,1/2-z
1/2-x,1/2+y,1/2-z
1/2-x,1/2-y,-z
1/2+x,1/2+y,-z
1/2-x,1/2+y,1/2+z
1/2+x,1/2-y,1/2+z
loop_
_atom_site_type_symbol
_atom_site_label
_atom_site_fract_x
_atom_site_fract_y
_atom_site_fract_z
Si Si1 0.630126 0.832521 0.231207
Si Si2 0.400235 0.026010 0.127014
Si Si3 0.000000 0.000000 0.250000
Si Si4 0.680200 0.424631 0.205176
Si Si5 0.534859 0.783099 0.635754
Si Si6 0.694450 0.706948 0.133389
Si Si7 0.932059 0.880223 0.626787
Si Si8 0.702091 0.923660 0.623624
O O1 0.605973 0.889083 0.142300
O O2 0.590055 0.825035 0.337860
O O3 0.646129 0.757477 0.177705
O O4 0.683228 0.869627 0.280423
O O5 0.424636 0.000000 0.250000
O O6 0.340894 0.988577 0.126673
O O7 0.423481 0.010115 0.000000
O O8 0.039984 0.056170 0.307864
O O9 0.659435 0.500000 0.250000
O O10 0.693541 0.368203 0.303536
O O11 0.632330 0.387259 0.136485
O O12 0.735904 0.442554 0.141743
O O13 0.500000 0.803081 0.750000
O O14 0.518869 0.793062 0.500000
O O15 0.548253 0.699497 0.654206
O O16 0.750000 0.750000 0.153172
O O17 0.688740 0.696134 0.000000
O O18 0.949698 0.891989 0.500000
O O19 0.696975 0.889572 0.500000
#
# Coordination Sequence:
#
# PCOD9498008 Si02
#       8
#    16  16   4  16  16  16  16  16
#     4  11  20  40  64  94 126 173 218 269 332 402
#     4   9  19  35  60  93 129 172 219 259 314 389
#     4  12  22  48  64  90 120 172 224 272 328 388
#     4  12  23  41  59  93 130 167 220 266 329 387
#     4  11  25  45  68  96 130 168 222 282 337 403
#     4  11  24  39  58  88 131 175 218 268 330 401
#     4  11  24  42  65  90 123 166 218 277 332 387
#     4  10  21  37  61  93 132 175 213 261 322 395
#
# _framework density 21.149533999999999
#
# number of rings (size 3 to 8) (size 9 to 14) (size 15 to 20)
#    0.000    1.241    4.138    2.690    0.000    2.759 
#    0.000    0.690    0.000    3.724    0.000   13.517 
#    0.000    0.000    0.000    0.000    0.000    0.000 
#
# Total GULP energy -323127.734104 kJ/mol
# GULP energy per Si atom -5571.167829 kJ/mol
# Density = 2.110140 g / cm^3
# Si number density = 21.149534 Si / 1000 Ang^3
#
#
#
# Elastic Constant Matrix: (Units=GPa)
#
#
# Indices 1 2 3 4 5 6 
#
# 1 50.4359 -0.8800 12.7915 0.0000 0.0000 0.0000
# 2 -0.8800 80.1677 32.5265 0.0000 0.0000 0.0000
# 3 12.7915 32.5265 112.7308 0.0000 0.0000 0.0000
# 4 0.0000 0.0000 0.0000 55.0143 0.0000 0.0000
# 5 0.0000 0.0000 0.0000 0.0000 18.6376 0.0000
# 6 0.0000 0.0000 0.0000 0.0000 0.0000 14.8489
#
#
#
# Elastic Compliance Matrix: (Units=1/GPa)
#
#
# Indices 1 2 3 4 5 6 
#
# 1 0.020538 0.001326 -0.002713 0.000000 0.000000 0.000000
# 2 0.001326 0.014213 -0.004252 0.000000 0.000000 0.000000
# 3 -0.002713 -0.004252 0.010405 0.000000 0.000000 0.000000
# 4 0.000000 0.000000 0.000000 0.018177 0.000000 0.000000
# 5 0.000000 0.000000 0.000000 0.000000 0.053655 0.000000
# 6 0.000000 0.000000 0.000000 0.000000 0.000000 0.067345
#
#
# Mechanical properties :
#
#
# Convention : Reuss Voigt Hill
#
# Bulk Modulus (GPa) = 29.51575 36.91227 33.21401
# Shear Modulus (GPa) = 24.16579 30.95993 27.56286
#
# Velocity S-wave (km/s) = 3.38393 3.83019 3.61395
# Velocity P-wave (km/s) = 5.40870 6.08698 5.75784
#
# Compressibility (1/GPa) = 0.03388022
#
# Stress axis : x y z
#
# Youngs Moduli (GPa) = 48.68929 70.35627 96.10540
#
# Poissons Ratio (x) = -0.09331 0.26075
# Poissons Ratio (y) = -0.06457 0.40859
# Poissons Ratio (z) = 0.13210 0.29912
#
# Static dielectric constant tensor:
#      x y z
#    x 1.795990 0.000000 0.000000 
#    y 0.000000 1.441230 0.000000 
#    z 0.000000 0.000000 1.788750 
# 
# From -- ./inp_files/18062.got.cif
#   From: 2010.05.17/outbox.cif.g08.bks.cpg/sg66_10_cif.got.tgz:18062.got - 2010.06.03 17:51:23.
