data_PCOD9498682
_publ_section_title
;
Structure prediction by ZEFSAII (Michael W. Deem and Ramdas Pophale) SiO2 
 PCOD9498682
Probable space group: C C C M
;
_chemical_formula_sum "Si O2"
_cell_formula_units_Z 80
_cell_length_a 16.880722
_cell_length_b 9.248304
_cell_length_c 24.796317
_cell_angle_alpha 90.000000
_cell_angle_beta 90.000000
_cell_angle_gamma 90.000000
_cell_volume 3871.152627
_symmetry_space_group_name_H-M "C C C M"
_symmetry_group_IT_number 66
_symmetry_cell_setting 'orthorhombic'
loop_
_space_group_symop_operation_xyz
x,y,z
-x,-y,z
x,-y,1/2-z
-x,y,1/2-z
-x,-y,-z
x,y,-z
-x,y,1/2+z
x,-y,1/2+z
1/2+x,1/2+y,z
1/2-x,1/2-y,z
1/2+x,1/2-y,1/2-z
1/2-x,1/2+y,1/2-z
1/2-x,1/2-y,-z
1/2+x,1/2+y,-z
1/2-x,1/2+y,1/2+z
1/2+x,1/2-y,1/2+z
loop_
_atom_site_type_symbol
_atom_site_label
_atom_site_fract_x
_atom_site_fract_y
_atom_site_fract_z
Si Si1 0.917523 0.413846 0.123958
Si Si2 0.315256 0.852008 0.226408
Si Si3 0.575622 0.350656 0.282116
Si Si4 0.478027 0.656506 0.594211
Si Si5 0.172717 0.337797 0.937625
O O1 0.881115 0.384126 0.182163
O O2 0.854979 0.516588 0.093055
O O3 0.000000 0.500000 0.129306
O O4 0.946358 0.264375 0.096358
O O5 0.250000 0.750000 0.200155
O O6 0.353196 0.759691 0.274747
O O7 0.282634 0.000000 0.250000
O O8 0.592373 0.500000 0.250000
O O9 0.500000 0.289415 0.250000
O O10 0.551651 0.367943 0.343884
O O11 0.500000 0.500000 0.571778
O O12 0.404355 0.734417 0.565840
O O13 0.250000 0.250000 0.916549
O O14 0.188928 0.373860 0.000000
#
# Coordination Sequence:
#
# PCOD9498682 Si02
#       5
#    16  16  16  16  16
#     4  10  22  39  64  88 115 160 206 251 305 375
#     4  12  25  36  56  88 128 164 209 252 303 362
#     4  11  20  37  61  88 129 171 202 244 294 363
#     4  11  21  37  66  96 122 162 207 253 305 365
#     4  10  24  45  65  87 120 160 205 264 325 372
#
# _framework density 20.665679999999998
#
# number of rings (size 3 to 8) (size 9 to 14) (size 15 to 20)
#    0.000    1.200    4.000    3.000    0.000   10.400 
#    0.000    0.000    0.000    3.000    0.000    0.000 
#    0.000    0.000    0.000    0.000    0.000    0.000 
#
# Total GULP energy -223395.469094 kJ/mol
# GULP energy per Si atom -5584.886727 kJ/mol
# Density = 2.061864 g / cm^3
# Si number density = 20.665680 Si / 1000 Ang^3
#
#
#
# Elastic Constant Matrix: (Units=GPa)
#
#
# Indices 1 2 3 4 5 6 
#
# 1 72.1770 49.1855 21.3421 0.0000 0.0000 0.0000
# 2 49.1855 152.9964 19.8786 0.0000 0.0000 0.0000
# 3 21.3421 19.8786 48.9249 0.0000 0.0000 0.0000
# 4 0.0000 0.0000 0.0000 13.3356 0.0000 0.0000
# 5 0.0000 0.0000 0.0000 0.0000 27.0018 0.0000
# 6 0.0000 0.0000 0.0000 0.0000 0.0000 26.3314
#
#
#
# Elastic Compliance Matrix: (Units=1/GPa)
#
#
# Indices 1 2 3 4 5 6 
#
# 1 0.019402 -0.005424 -0.006260 0.000000 0.000000 0.000000
# 2 -0.005424 0.008417 -0.001054 0.000000 0.000000 0.000000
# 3 -0.006260 -0.001054 0.023598 0.000000 0.000000 0.000000
# 4 0.000000 0.000000 0.000000 0.074987 0.000000 0.000000
# 5 0.000000 0.000000 0.000000 0.000000 0.037035 0.000000
# 6 0.000000 0.000000 0.000000 0.000000 0.000000 0.037977
#
#
# Mechanical properties :
#
#
# Convention : Reuss Voigt Hill
#
# Bulk Modulus (GPa) = 38.54750 50.54563 44.54656
# Shear Modulus (GPa) = 21.22794 25.57991 23.40393
#
# Velocity S-wave (km/s) = 3.20849 3.52205 3.36892
# Velocity P-wave (km/s) = 5.69379 6.40715 6.06098
#
# Compressibility (1/GPa) = 0.02594202
#
# Stress axis : x y z
#
# Youngs Moduli (GPa) = 51.54097 118.81073 42.37602
#
# Poissons Ratio (x) = 0.64444 0.26526
# Poissons Ratio (y) = 0.27956 0.04465
# Poissons Ratio (z) = 0.32263 0.12519
#
# Static dielectric constant tensor:
#      x y z
#    x 1.754730 0.000000 0.000000 
#    y 0.000000 1.749950 0.000000 
#    z 0.000000 0.000000 1.719620 
# 
# From -- ./inp_files/65091.got.cif
#   From: 2010.05.17/outbox.cif.g08.bks.cpg/sg66_33_cif.got.tgz:65091.got - 2010.06.03 17:51:23.
