data_PCOD9498643
_publ_section_title
;
Structure prediction by ZEFSAII (Michael W. Deem and Ramdas Pophale) SiO2 
 PCOD9498643
Probable space group: C C C M
;
_chemical_formula_sum "Si O2"
_cell_formula_units_Z 96
_cell_length_a 21.201651
_cell_length_b 26.446495
_cell_length_c 8.812672
_cell_angle_alpha 90.000000
_cell_angle_beta 90.000000
_cell_angle_gamma 90.000000
_cell_volume 4941.347652
_symmetry_space_group_name_H-M "C C C M"
_symmetry_group_IT_number 66
_symmetry_cell_setting 'orthorhombic'
loop_
_space_group_symop_operation_xyz
x,y,z
-x,-y,z
x,-y,1/2-z
-x,y,1/2-z
-x,-y,-z
x,y,-z
-x,y,1/2+z
x,-y,1/2+z
1/2+x,1/2+y,z
1/2-x,1/2-y,z
1/2+x,1/2-y,1/2-z
1/2-x,1/2+y,1/2-z
1/2-x,1/2-y,-z
1/2+x,1/2+y,-z
1/2-x,1/2+y,1/2+z
1/2+x,1/2-y,1/2+z
loop_
_atom_site_type_symbol
_atom_site_label
_atom_site_fract_x
_atom_site_fract_y
_atom_site_fract_z
Si Si1 0.811371 0.881157 0.822204
Si Si2 0.936573 0.390297 0.673826
Si Si3 0.308007 0.944666 0.683870
Si Si4 0.724956 0.805939 0.333630
Si Si5 0.066185 0.831901 0.817816
Si Si6 0.598183 0.777315 0.824208
O O1 0.761886 0.924523 0.769836
O O2 0.766685 0.832992 0.792294
O O3 0.875472 0.867444 0.733701
O O4 0.825622 0.887611 0.000000
O O5 0.937565 0.406859 0.500000
O O6 0.867959 0.409666 0.732807
O O7 0.941680 0.329047 0.672829
O O8 0.000000 0.410657 0.750000
O O9 0.306877 0.944448 0.500000
O O10 0.318158 0.000000 0.750000
O O11 0.729339 0.831323 0.500000
O O12 0.750000 0.750000 0.350153
O O13 0.655511 0.796936 0.276133
O O14 0.074688 0.775095 0.748709
O O15 0.000000 0.851065 0.750000
O O16 0.064352 0.828465 0.000000
O O17 0.615206 0.766413 0.000000
#
# Coordination Sequence:
#
# PCOD9498643 Si02
#       6
#    16  16  16  16  16  16
#     4  11  22  40  63  85 116 156 197 247 302 357
#     4  10  22  39  57  84 119 159 203 245 290 347
#     4  10  23  43  64  89 116 147 195 248 306 364
#     4  11  21  32  52  86 119 152 200 245 286 347
#     4  12  25  40  58  89 125 161 203 241 290 353
#     4  11  21  36  57  82 120 165 204 244 289 339
#
# _framework density 19.427897999999999
#
# number of rings (size 3 to 8) (size 9 to 14) (size 15 to 20)
#    0.000    1.167    3.333    3.500    0.000    5.667 
#    0.000    1.667    0.000    0.500    0.000    3.500 
#    0.000    0.000    0.000    0.000    0.000    0.000 
#
# Total GULP energy -267430.417725 kJ/mol
# GULP energy per Si atom -5571.467036 kJ/mol
# Density = 1.938368 g / cm^3
# Si number density = 19.427898 Si / 1000 Ang^3
#
#
#
# Elastic Constant Matrix: (Units=GPa)
#
#
# Indices 1 2 3 4 5 6 
#
# 1 114.3641 32.9532 19.8738 0.0000 0.0000 0.0000
# 2 32.9532 64.1073 28.8868 0.0000 0.0000 0.0000
# 3 19.8738 28.8868 55.3295 0.0000 0.0000 0.0000
# 4 0.0000 0.0000 0.0000 25.4848 0.0000 0.0000
# 5 0.0000 0.0000 0.0000 0.0000 17.7113 0.0000
# 6 0.0000 0.0000 0.0000 0.0000 0.0000 2.4441
#
#
#
# Elastic Compliance Matrix: (Units=1/GPa)
#
#
# Indices 1 2 3 4 5 6 
#
# 1 0.010328 -0.004756 -0.001227 0.000000 0.000000 0.000000
# 2 -0.004756 0.022588 -0.010084 0.000000 0.000000 0.000000
# 3 -0.001227 -0.010084 0.023779 0.000000 0.000000 0.000000
# 4 0.000000 0.000000 0.000000 0.039239 0.000000 0.000000
# 5 0.000000 0.000000 0.000000 0.000000 0.056461 0.000000
# 6 0.000000 0.000000 0.000000 0.000000 0.000000 0.409142
#
#
# Mechanical properties :
#
#
# Convention : Reuss Voigt Hill
#
# Bulk Modulus (GPa) = 40.71598 44.13648 42.42623
# Shear Modulus (GPa) = 8.30762 19.26718 13.78740
#
# Velocity S-wave (km/s) = 2.07012 3.15259 2.66685
# Velocity P-wave (km/s) = 5.16884 6.00160 5.60071
#
# Compressibility (1/GPa) = 0.02456038
#
# Stress axis : x y z
#
# Youngs Moduli (GPa) = 96.82833 44.27204 42.05388
#
# Poissons Ratio (x) = 0.21056 0.05158
# Poissons Ratio (y) = 0.46052 0.42409
# Poissons Ratio (z) = 0.11876 0.44646
#
# Static dielectric constant tensor:
#      x y z
#    x 1.715650 0.000000 0.000000 
#    y 0.000000 1.671300 0.000000 
#    z 0.000000 0.000000 1.746420 
# 
# From -- ./inp_files/7969.got.cif
#   From: 2010.05.17/outbox.cif.g08.bks.cpg/sg66_4_cif.got.tgz:7969.got - 2010.06.03 17:51:23.
