data_PCOD9498612
_publ_section_title
;
Structure prediction by ZEFSAII (Michael W. Deem and Ramdas Pophale) SiO2 
 PCOD9498612
Probable space group: C C C M
;
_chemical_formula_sum "Si O2"
_cell_formula_units_Z 44
_cell_length_a 13.573393
_cell_length_b 4.805937
_cell_length_c 28.739726
_cell_angle_alpha 90.000000
_cell_angle_beta 90.000000
_cell_angle_gamma 90.000000
_cell_volume 1874.774857
_symmetry_space_group_name_H-M "C C C M"
_symmetry_group_IT_number 66
_symmetry_cell_setting 'orthorhombic'
loop_
_space_group_symop_operation_xyz
x,y,z
-x,-y,z
x,-y,1/2-z
-x,y,1/2-z
-x,-y,-z
x,y,-z
-x,y,1/2+z
x,-y,1/2+z
1/2+x,1/2+y,z
1/2-x,1/2-y,z
1/2+x,1/2-y,1/2-z
1/2-x,1/2+y,1/2-z
1/2-x,1/2-y,-z
1/2+x,1/2+y,-z
1/2-x,1/2+y,1/2+z
1/2+x,1/2-y,1/2+z
loop_
_atom_site_type_symbol
_atom_site_label
_atom_site_fract_x
_atom_site_fract_y
_atom_site_fract_z
Si Si1 0.616943 0.971646 0.419181
Si Si2 0.250000 0.750000 0.781096
Si Si3 0.250000 0.250000 0.000000
Si Si4 0.615418 0.469666 0.357143
O O1 0.684164 0.086723 0.459797
O O2 0.635481 0.155958 0.372868
O O3 0.364735 0.343190 0.403232
O O4 0.500000 0.000000 0.430844
O O5 0.205313 0.500000 0.750000
O O6 0.326183 0.590225 0.814122
O O7 0.500000 0.500000 0.347581
#
# Coordination Sequence:
#
# PCOD9498612 Si02
#       4
#    16   8   4  16
#     4  10  22  38  60  86 120 164 208 249 306 376
#     4  12  24  39  64  97 124 153 208 269 318 382
#     4  12  22  36  60  92 124 154 206 268 308 348
#     4  10  22  43  62  84 123 168 203 248 317 384
#
# _framework density 23.469486
#
# number of rings (size 3 to 8) (size 9 to 14) (size 15 to 20)
#    0.000    1.455    0.000    4.909    0.000    3.636 
#    0.000    7.273    0.000    0.000    0.000    0.000 
#    0.000    0.000    0.000    0.000    0.000    0.000 
#
# Total GULP energy -122724.588195 kJ/mol
# GULP energy per Si atom -5578.390372 kJ/mol
# Density = 2.341607 g / cm^3
# Si number density = 23.469486 Si / 1000 Ang^3
#
#
#
# Elastic Constant Matrix: (Units=GPa)
#
#
# Indices 1 2 3 4 5 6 
#
# 1 121.9799 26.0067 66.7657 0.0000 0.0000 0.0000
# 2 26.0067 104.9032 27.3756 0.0000 0.0000 0.0000
# 3 66.7657 27.3756 118.7960 0.0000 0.0000 0.0000
# 4 0.0000 0.0000 0.0000 -475.4127 0.0000 0.0000
# 5 0.0000 0.0000 0.0000 0.0000 -5.1063 0.0000
# 6 0.0000 0.0000 0.0000 0.0000 0.0000 40.3773
#
#
#
# Elastic Compliance Matrix: (Units=1/GPa)
#
#
# Indices 1 2 3 4 5 6 
#
# 1 0.012003 -0.001293 -0.006448 0.000000 0.000000 0.000000
# 2 -0.001293 0.010282 -0.001643 0.000000 0.000000 0.000000
# 3 -0.006448 -0.001643 0.012420 0.000000 0.000000 0.000000
# 4 0.000000 0.000000 0.000000 -0.002103 0.000000 0.000000
# 5 0.000000 0.000000 0.000000 0.000000 -0.195838 0.000000
# 6 0.000000 0.000000 0.000000 0.000000 0.000000 0.024766
#
#
# Mechanical properties :
#
#
# Convention : Reuss Voigt Hill
#
# Bulk Modulus (GPa) = 62.74406 65.10834 63.92620
# Shear Modulus (GPa) = -43.71002 -72.99293 -58.35147
#
# Velocity S-wave (km/s) = -4.32026 -5.58290 -4.99166
# Velocity P-wave (km/s) = 1.38065 3.70896 2.43415
#
# Compressibility (1/GPa) = 0.01593776
#
# Stress axis : x y z
#
# Youngs Moduli (GPa) = 83.31216 97.25900 80.51383
#
# Poissons Ratio (x) = 0.12576 0.51915
# Poissons Ratio (y) = 0.10772 0.13226
# Poissons Ratio (z) = 0.53720 0.15976
#
# Static dielectric constant tensor:
#      x y z
#    x 1.907630 0.000000 0.000000 
#    y 0.000000 1.855300 0.000000 
#    z 0.000000 0.000000 1.829410 
# 
# From -- ./inp_files/64075.got.cif
#   From: 2010.05.17/outbox.cif.g08.bks.cpg/sg66_33_cif.got.tgz:64075.got - 2010.06.03 17:51:23.
