data_PCOD9498098
_publ_section_title
;
Structure prediction by ZEFSAII (Michael W. Deem and Ramdas Pophale) SiO2 
 PCOD9498098
Probable space group: C C C M
;
_chemical_formula_sum "Si O2"
_cell_formula_units_Z 88
_cell_length_a 24.100060
_cell_length_b 19.922690
_cell_length_c 9.124967
_cell_angle_alpha 90.000000
_cell_angle_beta 90.000000
_cell_angle_gamma 90.000000
_cell_volume 4381.243628
_symmetry_space_group_name_H-M "C C C M"
_symmetry_group_IT_number 66
_symmetry_cell_setting 'orthorhombic'
loop_
_space_group_symop_operation_xyz
x,y,z
-x,-y,z
x,-y,1/2-z
-x,y,1/2-z
-x,-y,-z
x,y,-z
-x,y,1/2+z
x,-y,1/2+z
1/2+x,1/2+y,z
1/2-x,1/2-y,z
1/2+x,1/2-y,1/2-z
1/2-x,1/2+y,1/2-z
1/2-x,1/2-y,-z
1/2+x,1/2+y,-z
1/2-x,1/2+y,1/2+z
1/2+x,1/2-y,1/2+z
loop_
_atom_site_type_symbol
_atom_site_label
_atom_site_fract_x
_atom_site_fract_y
_atom_site_fract_z
Si Si1 0.656573 0.358218 0.828062
Si Si2 0.945141 0.073162 0.675594
Si Si3 0.638821 0.000000 0.750000
Si Si4 0.346034 0.217813 0.825538
Si Si5 0.778770 0.611830 0.661732
Si Si6 0.057713 0.619331 0.332208
O O1 0.608706 0.387204 0.726045
O O2 0.666227 0.283107 0.769593
O O3 0.713709 0.399971 0.814612
O O4 0.640632 0.358652 0.000000
O O5 0.950410 0.068657 0.500000
O O6 0.000000 0.104450 0.750000
O O7 0.940368 0.000000 0.750000
O O8 0.681559 0.047130 0.838078
O O9 0.597324 0.053788 0.676624
O O10 0.300648 0.161717 0.785931
O O11 0.404355 0.182082 0.781426
O O12 0.346727 0.231352 0.000000
O O13 0.783797 0.644184 0.500000
O O14 0.043918 0.631858 0.500000
O O15 0.000000 0.609816 0.250000
#
# Coordination Sequence:
#
# PCOD9498098 Si02
#       6
#    16  16   8  16  16  16
#     4  11  23  39  62  92 122 158 202 249 302 364
#     4  11  23  42  65  90 121 156 195 244 300 359
#     4  10  21  38  60  88 121 160 200 248 304 360
#     4  10  22  40  59  85 120 160 203 253 307 362
#     4  10  22  39  60  87 121 160 202 249 302 362
#     4  10  22  38  59  86 118 156 202 248 300 360
#
# _framework density 20.085622000000001
#
# number of rings (size 3 to 8) (size 9 to 14) (size 15 to 20)
#    0.000    1.636    0.000    4.636    1.273   10.182 
#    0.000    1.818    0.000    0.000    0.000    0.000 
#    0.000    0.000    0.000    0.000    0.000    0.000 
#
# Total GULP energy -245490.904779 kJ/mol
# GULP energy per Si atom -5579.338745 kJ/mol
# Density = 2.003991 g / cm^3
# Si number density = 20.085622 Si / 1000 Ang^3
#
#
#
# Elastic Constant Matrix: (Units=GPa)
#
#
# Indices 1 2 3 4 5 6 
#
# 1 130.2440 19.6894 52.4691 0.0000 0.0000 0.0000
# 2 19.6894 22.2703 12.1389 0.0000 0.0000 0.0000
# 3 52.4691 12.1389 111.6305 0.0000 0.0000 0.0000
# 4 0.0000 0.0000 0.0000 24.3764 0.0000 0.0000
# 5 0.0000 0.0000 0.0000 0.0000 24.5147 0.0000
# 6 0.0000 0.0000 0.0000 0.0000 0.0000 19.4006
#
#
#
# Elastic Compliance Matrix: (Units=1/GPa)
#
#
# Indices 1 2 3 4 5 6 
#
# 1 0.010390 -0.006935 -0.004129 0.000000 0.000000 0.000000
# 2 -0.006935 0.052361 -0.002434 0.000000 0.000000 0.000000
# 3 -0.004129 -0.002434 0.011164 0.000000 0.000000 0.000000
# 4 0.000000 0.000000 0.000000 0.041023 0.000000 0.000000
# 5 0.000000 0.000000 0.000000 0.000000 0.040792 0.000000
# 6 0.000000 0.000000 0.000000 0.000000 0.000000 0.051545
#
#
# Mechanical properties :
#
#
# Convention : Reuss Voigt Hill
#
# Bulk Modulus (GPa) = 21.31404 48.08217 34.69811
# Shear Modulus (GPa) = 20.00717 25.64818 22.82768
#
# Velocity S-wave (km/s) = 3.15952 3.57731 3.37489
# Velocity P-wave (km/s) = 4.89333 6.40729 5.70080
#
# Compressibility (1/GPa) = 0.04691742
#
# Stress axis : x y z
#
# Youngs Moduli (GPa) = 96.24833 19.09822 89.57590
#
# Poissons Ratio (x) = 0.13245 0.36989
# Poissons Ratio (y) = 0.66748 0.21805
# Poissons Ratio (z) = 0.39744 0.04649
#
# Static dielectric constant tensor:
#      x y z
#    x 1.737410 0.000000 0.000000 
#    y 0.000000 1.729290 0.000000 
#    z 0.000000 0.000000 1.750740 
# 
# From -- ./inp_files/8998.got.cif
#   From: 2010.05.17/outbox.cif.g08.bks.cpg/sg66_5_cif.got.tgz:8998.got - 2010.06.03 17:51:23.
