data_PCOD9498642
_publ_section_title
;
Structure prediction by ZEFSAII (Michael W. Deem and Ramdas Pophale) SiO2 
 PCOD9498642
Probable space group: C C C M
;
_chemical_formula_sum "Si O2"
_cell_formula_units_Z 72
_cell_length_a 13.801911
_cell_length_b 8.348459
_cell_length_c 31.460733
_cell_angle_alpha 90.000000
_cell_angle_beta 90.000000
_cell_angle_gamma 90.000000
_cell_volume 3625.053147
_symmetry_space_group_name_H-M "C C C M"
_symmetry_group_IT_number 66
_symmetry_cell_setting 'orthorhombic'
loop_
_space_group_symop_operation_xyz
x,y,z
-x,-y,z
x,-y,1/2-z
-x,y,1/2-z
-x,-y,-z
x,y,-z
-x,y,1/2+z
x,-y,1/2+z
1/2+x,1/2+y,z
1/2-x,1/2-y,z
1/2+x,1/2-y,1/2-z
1/2-x,1/2+y,1/2-z
1/2-x,1/2-y,-z
1/2+x,1/2+y,-z
1/2-x,1/2+y,1/2+z
1/2+x,1/2-y,1/2+z
loop_
_atom_site_type_symbol
_atom_site_label
_atom_site_fract_x
_atom_site_fract_y
_atom_site_fract_z
Si Si1 0.469093 0.687168 0.086843
Si Si2 0.250000 0.250000 0.427992
Si Si3 0.487165 0.304770 0.178272
Si Si4 0.925376 0.758535 0.000000
Si Si5 0.250336 0.509144 0.500000
Si Si6 0.856370 0.192195 0.246982
O O1 0.500000 0.500000 0.084443
O O2 0.353830 0.715366 0.093562
O O3 0.516540 0.754047 0.130100
O O4 0.509064 0.755928 0.042249
O O5 0.237150 0.401872 0.458595
O O6 0.500000 0.500000 0.175921
O O7 0.576450 0.252507 0.208060
O O8 0.396401 0.255600 0.207068
O O9 0.836700 0.634734 0.000000
O O10 0.860773 0.922557 0.000000
O O11 0.750000 0.250000 0.239555
O O12 0.861651 0.000000 0.250000
#
# Coordination Sequence:
#
# PCOD9498642 Si02
#       6
#    16   8  16   8   8  16
#     4  11  21  37  58  85 115 152 188 238 277 339
#     4  11  22  36  62  82 106 146 206 224 284 333
#     4   8  18  35  55  81 111 146 183 218 275 335
#     4  11  21  39  59  78 122 151 184 232 298 317
#     4  10  22  39  57  84 105 156 193 235 277 346
#     4   9  17  35  60  81 107 144 181 224 274 331
#
# _framework density 19.861778000000001
#
# number of rings (size 3 to 8) (size 9 to 14) (size 15 to 20)
#    0.000    2.222    2.222    3.000    1.556    1.778 
#    4.000    2.222    4.889    0.000    0.000    0.000 
#    0.000    0.000    0.000    0.000    0.000    0.000 
#
# Total GULP energy -200567.315659 kJ/mol
# GULP energy per Si atom -5571.314324 kJ/mol
# Density = 1.981657 g / cm^3
# Si number density = 19.861778 Si / 1000 Ang^3
#
#
#
# Elastic Constant Matrix: (Units=GPa)
#
#
# Indices 1 2 3 4 5 6 
#
# 1 96.3622 2.5408 27.4921 0.0000 0.0000 0.0000
# 2 2.5408 11.1539 1.2603 0.0000 0.0000 0.0000
# 3 27.4921 1.2603 150.0935 0.0000 0.0000 0.0000
# 4 0.0000 0.0000 0.0000 1.2921 0.0000 0.0000
# 5 0.0000 0.0000 0.0000 0.0000 -3.2283 0.0000
# 6 0.0000 0.0000 0.0000 0.0000 0.0000 28.2155
#
#
#
# Elastic Compliance Matrix: (Units=1/GPa)
#
#
# Indices 1 2 3 4 5 6 
#
# 1 0.011007 -0.002282 -0.001997 0.000000 0.000000 0.000000
# 2 -0.002282 0.090213 -0.000340 0.000000 0.000000 0.000000
# 3 -0.001997 -0.000340 0.007031 0.000000 0.000000 0.000000
# 4 0.000000 0.000000 0.000000 0.773912 0.000000 0.000000
# 5 0.000000 0.000000 0.000000 0.000000 -0.309756 0.000000
# 6 0.000000 0.000000 0.000000 0.000000 0.000000 0.035441
#
#
# Mechanical properties :
#
#
# Convention : Reuss Voigt Hill
#
# Bulk Modulus (GPa) = 10.09949 35.57731 22.83840
# Shear Modulus (GPa) = 7.69124 20.34363 14.01743
#
# Velocity S-wave (km/s) = 1.96997 3.20388 2.65948
# Velocity P-wave (km/s) = 3.20473 5.62475 4.57756
#
# Compressibility (1/GPa) = 0.09901485
#
# Stress axis : x y z
#
# Youngs Moduli (GPa) = 90.84770 11.08489 142.22420
#
# Poissons Ratio (x) = 0.02529 0.28403
# Poissons Ratio (y) = 0.20729 0.04829
# Poissons Ratio (z) = 0.18143 0.00376
#
# Static dielectric constant tensor:
#      x y z
#    x 1.673920 0.000000 0.000000 
#    y 0.000000 1.748020 0.000000 
#    z 0.000000 0.000000 1.699420 
# 
# From -- ./inp_files/68061.got.cif
#   From: 2010.05.17/outbox.cif.g08.bks.cpg/sg66_35_cif.got.tgz:68061.got - 2010.06.03 17:51:23.
