data_PCOD9498857
_publ_section_title
;
Structure prediction by ZEFSAII (Michael W. Deem and Ramdas Pophale) SiO2 
 PCOD9498857
Probable space group: C C C M
;
_chemical_formula_sum "Si O2"
_cell_formula_units_Z 116
_cell_length_a 27.227011
_cell_length_b 12.252237
_cell_length_c 18.018926
_cell_angle_alpha 90.000000
_cell_angle_beta 90.000000
_cell_angle_gamma 90.000000
_cell_volume 6010.965807
_symmetry_space_group_name_H-M "C C C M"
_symmetry_group_IT_number 66
_symmetry_cell_setting 'orthorhombic'
loop_
_space_group_symop_operation_xyz
x,y,z
-x,-y,z
x,-y,1/2-z
-x,y,1/2-z
-x,-y,-z
x,y,-z
-x,y,1/2+z
x,-y,1/2+z
1/2+x,1/2+y,z
1/2-x,1/2-y,z
1/2+x,1/2-y,1/2-z
1/2-x,1/2+y,1/2-z
1/2-x,1/2-y,-z
1/2+x,1/2+y,-z
1/2-x,1/2+y,1/2+z
1/2+x,1/2-y,1/2+z
loop_
_atom_site_type_symbol
_atom_site_label
_atom_site_fract_x
_atom_site_fract_y
_atom_site_fract_z
Si Si1 0.740671 0.119789 0.086798
Si Si2 0.666646 0.507694 0.661879
Si Si3 0.912436 0.190400 0.188542
Si Si4 0.000000 0.500000 0.000000
Si Si5 0.096985 0.814026 0.355954
Si Si6 0.003215 0.126647 0.584363
Si Si7 0.910328 0.413006 0.418555
Si Si8 0.857244 0.580047 0.678787
O O1 0.750000 0.250000 0.091976
O O2 0.787932 0.052561 0.115024
O O3 0.695799 0.093088 0.141286
O O4 0.730173 0.095394 0.000000
O O5 0.679336 0.500000 0.750000
O O6 0.622575 0.595554 0.656628
O O7 0.643849 0.392296 0.635793
O O8 0.923681 0.161498 0.273796
O O9 0.960943 0.192458 0.138598
O O10 0.881347 0.301788 0.192335
O O11 0.032261 0.432789 0.936396
O O12 0.105672 0.686278 0.366903
O O13 0.052850 0.835546 0.412308
O O14 0.021963 0.133770 0.500000
O O15 0.000000 0.000000 0.607200
O O16 0.887454 0.395725 0.500000
O O17 0.891235 0.522835 0.382332
O O18 0.855460 0.500000 0.750000
#
# Coordination Sequence:
#
# PCOD9498857 Si02
#       8
#    16  16  16   4  16  16  16  16
#     4  11  24  42  67  99 130 166 214 273 339 404
#     4  10  22  42  66  95 129 168 210 275 337 392
#     4  11  23  40  65  95 128 169 226 272 326 389
#     4   8  24  44  62  88 134 180 228 252 324 370
#     4  11  22  41  65  93 131 172 217 273 325 397
#     4  11  24  38  59  95 134 174 216 268 332 395
#     4  10  23  42  64  93 129 176 215 267 321 384
#     4  12  24  44  67  95 130 173 224 275 325 396
#
# _framework density 19.298064
#
# number of rings (size 3 to 8) (size 9 to 14) (size 15 to 20)
#    0.414    0.828    4.138    1.655    1.931    3.310 
#    0.000    1.034    0.000    1.655    0.000    0.000 
#    0.000    0.000    0.000    0.000    0.000    0.000 
#
# Total GULP energy -322996.624318 kJ/mol
# GULP energy per Si atom -5568.907316 kJ/mol
# Density = 1.925414 g / cm^3
# Si number density = 19.298064 Si / 1000 Ang^3
#
#
#
# Elastic Constant Matrix: (Units=GPa)
#
#
# Indices 1 2 3 4 5 6 
#
# 1 73.4701 29.7387 42.5636 0.0000 0.0000 0.0000
# 2 29.7387 82.9414 19.3966 0.0000 0.0000 0.0000
# 3 42.5636 19.3966 82.3162 0.0000 0.0000 0.0000
# 4 0.0000 0.0000 0.0000 18.9967 0.0000 0.0000
# 5 0.0000 0.0000 0.0000 0.0000 -66.5825 0.0000
# 6 0.0000 0.0000 0.0000 0.0000 0.0000 28.1765
#
#
#
# Elastic Compliance Matrix: (Units=1/GPa)
#
#
# Indices 1 2 3 4 5 6 
#
# 1 0.021503 -0.005408 -0.009844 0.000000 0.000000 0.000000
# 2 -0.005408 0.014120 -0.000531 0.000000 0.000000 0.000000
# 3 -0.009844 -0.000531 0.017364 0.000000 0.000000 0.000000
# 4 0.000000 0.000000 0.000000 0.052641 0.000000 0.000000
# 5 0.000000 0.000000 0.000000 0.000000 -0.015019 0.000000
# 6 0.000000 0.000000 0.000000 0.000000 0.000000 0.035491
#
#
# Mechanical properties :
#
#
# Convention : Reuss Voigt Hill
#
# Bulk Modulus (GPa) = 46.68450 46.90284 46.79367
# Shear Modulus (GPa) = 30.33886 5.92008 18.12947
#
# Velocity S-wave (km/s) = 3.96930 1.75339 3.06836
# Velocity P-wave (km/s) = 6.72688 5.33445 6.07072
#
# Compressibility (1/GPa) = 0.02142039
#
# Stress axis : x y z
#
# Youngs Moduli (GPa) = 46.50499 70.82247 57.59139
#
# Poissons Ratio (x) = 0.38299 0.56696
# Poissons Ratio (y) = 0.25149 0.03058
# Poissons Ratio (z) = 0.45782 0.03760
#
# Static dielectric constant tensor:
#      x y z
#    x 1.723370 0.000000 0.000000 
#    y 0.000000 1.728620 0.000000 
#    z 0.000000 0.000000 1.643280 
# 
# From -- ./inp_files/44358.got.cif
#   From: 2010.05.17/outbox.cif.g08.bks.cpg/sg66_23_cif.got.tgz:44358.got - 2010.06.03 17:51:23.
