data_PCOD9498161
_publ_section_title
;
Structure prediction by ZEFSAII (Michael W. Deem and Ramdas Pophale) SiO2 
 PCOD9498161
Probable space group: C C C M
;
_chemical_formula_sum "Si O2"
_cell_formula_units_Z 56
_cell_length_a 10.895527
_cell_length_b 12.072929
_cell_length_c 21.398617
_cell_angle_alpha 90.000000
_cell_angle_beta 90.000000
_cell_angle_gamma 90.000000
_cell_volume 2814.793850
_symmetry_space_group_name_H-M "C C C M"
_symmetry_group_IT_number 66
_symmetry_cell_setting 'orthorhombic'
loop_
_space_group_symop_operation_xyz
x,y,z
-x,-y,z
x,-y,1/2-z
-x,y,1/2-z
-x,-y,-z
x,y,-z
-x,y,1/2+z
x,-y,1/2+z
1/2+x,1/2+y,z
1/2-x,1/2-y,z
1/2+x,1/2-y,1/2-z
1/2-x,1/2+y,1/2-z
1/2-x,1/2-y,-z
1/2+x,1/2+y,-z
1/2-x,1/2+y,1/2+z
1/2+x,1/2-y,1/2+z
loop_
_atom_site_type_symbol
_atom_site_label
_atom_site_fract_x
_atom_site_fract_y
_atom_site_fract_z
Si Si1 0.133553 0.535815 0.425873
Si Si2 0.750000 0.750000 0.875180
Si Si3 0.474890 0.368604 0.819564
Si Si4 0.335239 0.357136 0.571351
O O1 0.127708 0.517692 0.500000
O O2 0.167172 0.663078 0.413358
O O3 0.246859 0.457149 0.406172
O O4 0.000000 0.500000 0.399712
O O5 0.660722 0.672052 0.835525
O O6 0.500000 0.500000 0.817321
O O7 0.500000 0.323934 0.750000
O O8 0.560845 0.333566 0.877651
O O9 0.381539 0.380683 0.500000
O O10 0.250000 0.250000 0.567286
#
# Coordination Sequence:
#
# PCOD9498161 Si02
#       4
#    16   8  16  16
#     4  10  21  38  63  99 133 166 215 270 327 394
#     4  12  23  42  66  92 125 178 210 268 328 388
#     4  11  25  44  64  93 133 174 220 271 324 400
#     4  10  21  40  67  96 134 174 217 278 333 388
#
# _framework density 19.894887000000001
#
# number of rings (size 3 to 8) (size 9 to 14) (size 15 to 20)
#    0.000    1.429    2.857    2.143    2.000    5.143 
#    0.000    0.000    0.000    0.000    0.000    0.000 
#    0.000    0.000    0.000    0.000    0.000    0.000 
#
# Total GULP energy -156095.439650 kJ/mol
# GULP energy per Si atom -5574.837130 kJ/mol
# Density = 1.984960 g / cm^3
# Si number density = 19.894887 Si / 1000 Ang^3
#
#
#
# Elastic Constant Matrix: (Units=GPa)
#
#
# Indices 1 2 3 4 5 6 
#
# 1 114.9930 25.6294 57.1398 0.0000 0.0000 0.0000
# 2 25.6294 87.6364 -4.2351 0.0000 0.0000 0.0000
# 3 57.1398 -4.2351 88.3687 0.0000 0.0000 0.0000
# 4 0.0000 0.0000 0.0000 524.7713 0.0000 0.0000
# 5 0.0000 0.0000 0.0000 0.0000 14.6992 0.0000
# 6 0.0000 0.0000 0.0000 0.0000 0.0000 40.1240
#
#
#
# Elastic Compliance Matrix: (Units=1/GPa)
#
#
# Indices 1 2 3 4 5 6 
#
# 1 0.014526 -0.004713 -0.009618 0.000000 0.000000 0.000000
# 2 -0.004713 0.012966 0.003669 0.000000 0.000000 0.000000
# 3 -0.009618 0.003669 0.017711 0.000000 0.000000 0.000000
# 4 0.000000 0.000000 0.000000 0.001906 0.000000 0.000000
# 5 0.000000 0.000000 0.000000 0.000000 0.068031 0.000000
# 6 0.000000 0.000000 0.000000 0.000000 0.000000 0.024923
#
#
# Mechanical properties :
#
#
# Convention : Reuss Voigt Hill
#
# Bulk Modulus (GPa) = 41.87843 49.78514 45.83179
# Shear Modulus (GPa) = 29.52502 130.08315 79.80409
#
# Velocity S-wave (km/s) = 3.85652 8.09489 6.34034
# Velocity P-wave (km/s) = 6.39733 10.60415 8.75711
#
# Compressibility (1/GPa) = 0.02387864
#
# Stress axis : x y z
#
# Youngs Moduli (GPa) = 68.84212 77.12240 56.46072
#
# Poissons Ratio (x) = 0.36348 0.54307
# Poissons Ratio (y) = 0.32445 -0.20715
# Poissons Ratio (z) = 0.66216 -0.28295
#
# Static dielectric constant tensor:
#      x y z
#    x 1.734910 0.000000 0.000000 
#    y 0.000000 1.723260 0.000000 
#    z 0.000000 0.000000 1.729690 
# 
# From -- ./inp_files/47890.got.cif
#   From: 2010.05.17/outbox.cif.g08.bks.cpg/sg66_24_cif.got.tgz:47890.got - 2010.06.03 17:51:23.
