data_PCOD9498722
_publ_section_title
;
Structure prediction by ZEFSAII (Michael W. Deem and Ramdas Pophale) SiO2 
 PCOD9498722
Probable space group: C C C M
;
_chemical_formula_sum "Si O2"
_cell_formula_units_Z 72
_cell_length_a 14.523992
_cell_length_b 9.809081
_cell_length_c 25.204572
_cell_angle_alpha 90.000000
_cell_angle_beta 90.000000
_cell_angle_gamma 90.000000
_cell_volume 3590.820111
_symmetry_space_group_name_H-M "C C C M"
_symmetry_group_IT_number 66
_symmetry_cell_setting 'orthorhombic'
loop_
_space_group_symop_operation_xyz
x,y,z
-x,-y,z
x,-y,1/2-z
-x,y,1/2-z
-x,-y,-z
x,y,-z
-x,y,1/2+z
x,-y,1/2+z
1/2+x,1/2+y,z
1/2-x,1/2-y,z
1/2+x,1/2-y,1/2-z
1/2-x,1/2+y,1/2-z
1/2-x,1/2-y,-z
1/2+x,1/2+y,-z
1/2-x,1/2+y,1/2+z
1/2+x,1/2-y,1/2+z
loop_
_atom_site_type_symbol
_atom_site_label
_atom_site_fract_x
_atom_site_fract_y
_atom_site_fract_z
Si Si1 0.688024 0.887006 0.708285
Si Si2 0.938753 0.129846 0.641992
Si Si3 0.500000 0.235731 0.750000
Si Si4 0.940789 0.637533 0.060307
Si Si5 0.263344 0.901564 0.377783
O O1 0.750000 0.750000 0.706378
O O2 0.583469 0.848448 0.723466
O O3 0.724908 0.000000 0.750000
O O4 0.692039 0.976613 0.655229
O O5 0.969568 0.254056 0.604716
O O6 0.843639 0.072432 0.617281
O O7 0.948030 0.181381 0.702981
O O8 0.000000 0.000000 0.639596
O O9 0.831860 0.617055 0.073096
O O10 0.000000 0.500000 0.066185
O O11 0.952345 0.685863 0.000000
O O12 0.250000 0.750000 0.350585
#
# Coordination Sequence:
#
# PCOD9498722 Si02
#       5
#    16  16   8  16  16
#     4  12  23  37  57  83 118 159 206 253 307 372
#     4  11  23  40  63  92 126 162 207 260 316 370
#     4  12  24  38  60  88 126 168 208 252 310 380
#     4  10  22  43  68  93 124 164 212 261 313 376
#     4  10  22  40  61  87 119 159 206 253 309 367
#
# _framework density 20.051129
#
# number of rings (size 3 to 8) (size 9 to 14) (size 15 to 20)
#    0.000    1.111    0.000    8.000    0.000    4.444 
#    0.000    0.000    0.000    3.333    0.000    0.000 
#    0.000    0.000    0.000    0.000    0.000    0.000 
#
# Total GULP energy -200536.725332 kJ/mol
# GULP energy per Si atom -5570.464593 kJ/mol
# Density = 2.000549 g / cm^3
# Si number density = 20.051129 Si / 1000 Ang^3
#
#
#
# Elastic Constant Matrix: (Units=GPa)
#
#
# Indices 1 2 3 4 5 6 
#
# 1 -8.5010 100.2048 11.7754 0.0000 0.0000 0.0000
# 2 100.2048 52.6318 32.0796 0.0000 0.0000 0.0000
# 3 11.7754 32.0796 96.7961 0.0000 0.0000 0.0000
# 4 0.0000 0.0000 0.0000 44.4391 0.0000 0.0000
# 5 0.0000 0.0000 0.0000 0.0000 7.9705 0.0000
# 6 0.0000 0.0000 0.0000 0.0000 0.0000 37.0568
#
#
#
# Elastic Compliance Matrix: (Units=1/GPa)
#
#
# Indices 1 2 3 4 5 6 
#
# 1 -0.004334 0.009937 -0.002766 0.000000 0.000000 0.000000
# 2 0.009937 0.001025 -0.001549 0.000000 0.000000 0.000000
# 3 -0.002766 -0.001549 0.011181 0.000000 0.000000 0.000000
# 4 0.000000 0.000000 0.000000 0.022503 0.000000 0.000000
# 5 0.000000 0.000000 0.000000 0.000000 0.125463 0.000000
# 6 0.000000 0.000000 0.000000 0.000000 0.000000 0.026986
#
#
# Mechanical properties :
#
#
# Convention : Reuss Voigt Hill
#
# Bulk Modulus (GPa) = 52.31041 47.67182 49.99112
# Shear Modulus (GPa) = 28.09773 17.68443 22.89108
#
# Velocity S-wave (km/s) = 3.74746 2.97301 3.38248
# Velocity P-wave (km/s) = 6.69849 5.96756 6.34356
#
# Compressibility (1/GPa) = 0.01911665
#
# Stress axis : x y z
#
# Youngs Moduli (GPa) = -230.74501 975.62580 89.43991
#
# Poissons Ratio (x) = -9.69475 0.24739
# Poissons Ratio (y) = 2.29290 0.13850
# Poissons Ratio (z) = -0.63825 1.51079
#
# Static dielectric constant tensor:
#      x y z
#    x 1.884260 0.000000 0.000000 
#    y 0.000000 1.800090 0.000000 
#    z 0.000000 0.000000 1.765780 
# 
# From -- ./inp_files/64348.got.cif
#   From: 2010.05.17/outbox.cif.g08.bks.cpg/sg66_33_cif.got.tgz:64348.got - 2010.06.03 17:51:23.
