data_PCOD9498449
_publ_section_title
;
Structure prediction by ZEFSAII (Michael W. Deem and Ramdas Pophale) SiO2 
 PCOD9498449
Probable space group: C C C M
;
_chemical_formula_sum "Si O2"
_cell_formula_units_Z 64
_cell_length_a 28.279866
_cell_length_b 5.783257
_cell_length_c 19.848935
_cell_angle_alpha 90.000000
_cell_angle_beta 90.000000
_cell_angle_gamma 90.000000
_cell_volume 3246.288020
_symmetry_space_group_name_H-M "C C C M"
_symmetry_group_IT_number 66
_symmetry_cell_setting 'orthorhombic'
loop_
_space_group_symop_operation_xyz
x,y,z
-x,-y,z
x,-y,1/2-z
-x,y,1/2-z
-x,-y,-z
x,y,-z
-x,y,1/2+z
x,-y,1/2+z
1/2+x,1/2+y,z
1/2-x,1/2-y,z
1/2+x,1/2-y,1/2-z
1/2-x,1/2+y,1/2-z
1/2-x,1/2-y,-z
1/2+x,1/2+y,-z
1/2-x,1/2+y,1/2+z
1/2+x,1/2-y,1/2+z
loop_
_atom_site_type_symbol
_atom_site_label
_atom_site_fract_x
_atom_site_fract_y
_atom_site_fract_z
Si Si1 0.250000 0.250000 0.207896
Si Si2 0.092754 0.777714 0.076562
Si Si3 0.060269 0.388050 0.176913
Si Si4 0.500000 0.500000 0.118636
Si Si5 0.346808 0.579857 0.326969
O O1 0.242317 0.500000 0.250000
O O2 0.296485 0.297168 0.162646
O O3 0.070080 0.563564 0.116145
O O4 0.135908 0.883714 0.120560
O O5 0.106560 0.727713 0.000000
O O6 0.047538 0.950090 0.077276
O O7 0.056303 0.500000 0.250000
O O8 0.108634 0.245839 0.176264
O O9 0.016410 0.217544 0.163493
O O10 0.342295 0.500000 0.250000
#
# Coordination Sequence:
#
# PCOD9498449 Si02
#       5
#     8  16  16   8  16
#     4  10  22  38  73 106 135 168 224 282 340 402
#     4  11  24  41  62  89 130 173 215 269 333 398
#     4  11  22  39  62  90 128 168 224 278 336 390
#     4  10  25  39  58  88 126 168 228 266 330 394
#     4  10  21  41  66  96 126 166 218 276 330 402
#
# _framework density 19.714825000000001
#
# number of rings (size 3 to 8) (size 9 to 14) (size 15 to 20)
#    0.000    1.500    2.500    1.875    3.500    9.000 
#    0.000    0.625    0.000    1.500    0.000    0.000 
#    0.000    0.000    0.000    0.000    0.000    0.000 
#
# Total GULP energy -178246.122645 kJ/mol
# GULP energy per Si atom -5570.191333 kJ/mol
# Density = 1.966995 g / cm^3
# Si number density = 19.714825 Si / 1000 Ang^3
#
#
#
# Elastic Constant Matrix: (Units=GPa)
#
#
# Indices 1 2 3 4 5 6 
#
# 1 148.6561 31.8703 36.3062 0.0000 0.0000 0.0000
# 2 31.8703 91.3010 58.6897 0.0000 0.0000 0.0000
# 3 36.3062 58.6897 152.8567 0.0000 0.0000 0.0000
# 4 0.0000 0.0000 0.0000 18.0319 0.0000 0.0000
# 5 0.0000 0.0000 0.0000 0.0000 53.0613 0.0000
# 6 0.0000 0.0000 0.0000 0.0000 0.0000 12.6427
#
#
#
# Elastic Compliance Matrix: (Units=1/GPa)
#
#
# Indices 1 2 3 4 5 6 
#
# 1 0.007388 -0.001926 -0.001015 0.000000 0.000000 0.000000
# 2 -0.001926 0.015044 -0.005319 0.000000 0.000000 0.000000
# 3 -0.001015 -0.005319 0.008825 0.000000 0.000000 0.000000
# 4 0.000000 0.000000 0.000000 0.055457 0.000000 0.000000
# 5 0.000000 0.000000 0.000000 0.000000 0.018846 0.000000
# 6 0.000000 0.000000 0.000000 0.000000 0.000000 0.079097
#
#
# Mechanical properties :
#
#
# Convention : Reuss Voigt Hill
#
# Bulk Modulus (GPa) = 67.85642 71.83847 69.84745
# Shear Modulus (GPa) = 24.26120 34.47703 29.36912
#
# Velocity S-wave (km/s) = 3.51181 4.18639 3.86385
# Velocity P-wave (km/s) = 7.13705 7.73858 7.44389
#
# Compressibility (1/GPa) = 0.01473700
#
# Stress axis : x y z
#
# Youngs Moduli (GPa) = 135.35748 66.47106 113.31045
#
# Poissons Ratio (x) = 0.12804 0.11502
# Poissons Ratio (y) = 0.26074 0.60266
# Poissons Ratio (z) = 0.13741 0.35354
#
# Static dielectric constant tensor:
#      x y z
#    x 1.758240 0.000000 0.000000 
#    y 0.000000 1.443850 0.000000 
#    z 0.000000 0.000000 1.752190 
# 
# From -- ./inp_files/35064.got.cif
#   From: 2010.05.17/outbox.cif.g08.bks.cpg/sg66_18_cif.got.tgz:35064.got - 2010.06.03 17:51:23.
