data_PCOD9498865
_publ_section_title
;
Structure prediction by ZEFSAII (Michael W. Deem and Ramdas Pophale) SiO2 
 PCOD9498865
Probable space group: C C C M
;
_chemical_formula_sum "Si O2"
_cell_formula_units_Z 88
_cell_length_a 12.803351
_cell_length_b 16.512784
_cell_length_c 18.258786
_cell_angle_alpha 90.000000
_cell_angle_beta 90.000000
_cell_angle_gamma 90.000000
_cell_volume 3860.253721
_symmetry_space_group_name_H-M "C C C M"
_symmetry_group_IT_number 66
_symmetry_cell_setting 'orthorhombic'
loop_
_space_group_symop_operation_xyz
x,y,z
-x,-y,z
x,-y,1/2-z
-x,y,1/2-z
-x,-y,-z
x,y,-z
-x,y,1/2+z
x,-y,1/2+z
1/2+x,1/2+y,z
1/2-x,1/2-y,z
1/2+x,1/2-y,1/2-z
1/2-x,1/2+y,1/2-z
1/2-x,1/2-y,-z
1/2+x,1/2+y,-z
1/2-x,1/2+y,1/2+z
1/2+x,1/2-y,1/2+z
loop_
_atom_site_type_symbol
_atom_site_label
_atom_site_fract_x
_atom_site_fract_y
_atom_site_fract_z
Si Si1 0.836392 0.680307 0.086397
Si Si2 0.874961 0.504336 0.581571
Si Si3 0.517114 0.263001 0.163607
Si Si4 0.755885 0.075742 0.198663
Si Si5 0.557579 0.585259 0.416696
Si Si6 0.250000 0.750000 0.197222
O O1 0.750000 0.750000 0.103740
O O2 0.818203 0.583315 0.093147
O O3 0.939058 0.696061 0.134403
O O4 0.860787 0.691962 0.000000
O O5 0.842027 0.533351 0.500000
O O6 0.845731 0.559419 0.650169
O O7 0.000000 0.500000 0.579655
O O8 0.500000 0.275125 0.250000
O O9 0.488812 0.343477 0.118185
O O10 0.640899 0.247100 0.152953
O O11 0.845637 0.078828 0.137751
O O12 0.752884 0.163338 0.237621
O O13 0.774193 0.000000 0.250000
O O14 0.500000 0.500000 0.416876
O O15 0.585943 0.606007 0.500000
#
# Coordination Sequence:
#
# PCOD9498865 Si02
#       6
#    16  16  16  16  16   8
#     4  10  23  41  67 102 141 187 236 295 356 419
#     4  10  22  42  67  98 137 185 236 289 349 420
#     4  11  25  40  70  95 140 180 233 287 347 425
#     4  11  25  42  70  98 137 177 226 284 344 412
#     4  10  24  43  66  96 132 176 226 280 344 411
#     4  10  26  48  61 104 131 186 230 272 362 416
#
# _framework density 22.796427999999999
#
# number of rings (size 3 to 8) (size 9 to 14) (size 15 to 20)
#    0.000    1.636    0.000    2.182   11.455    0.364 
#    0.000   15.455    0.000    0.000    0.000    0.000 
#    0.000    0.000    0.000    0.000    0.000    0.000 
#
# Total GULP energy -245721.374030 kJ/mol
# GULP energy per Si atom -5584.576682 kJ/mol
# Density = 2.274454 g / cm^3
# Si number density = 22.796428 Si / 1000 Ang^3
#
#
#
# Elastic Constant Matrix: (Units=GPa)
#
#
# Indices 1 2 3 4 5 6 
#
# 1 72.2459 6.3665 13.8789 0.0000 0.0000 0.0000
# 2 6.3665 135.0578 55.0280 0.0000 0.0000 0.0000
# 3 13.8789 55.0280 117.7952 0.0000 0.0000 0.0000
# 4 0.0000 0.0000 0.0000 33.3147 0.0000 0.0000
# 5 0.0000 0.0000 0.0000 0.0000 -24.8905 0.0000
# 6 0.0000 0.0000 0.0000 0.0000 0.0000 29.9288
#
#
#
# Elastic Compliance Matrix: (Units=1/GPa)
#
#
# Indices 1 2 3 4 5 6 
#
# 1 0.014162 0.000015 -0.001676 0.000000 0.000000 0.000000
# 2 0.000015 0.009145 -0.004274 0.000000 0.000000 0.000000
# 3 -0.001676 -0.004274 0.010683 0.000000 0.000000 0.000000
# 4 0.000000 0.000000 0.000000 0.030017 0.000000 0.000000
# 5 0.000000 0.000000 0.000000 0.000000 -0.040176 0.000000
# 6 0.000000 0.000000 0.000000 0.000000 0.000000 0.033413
#
#
# Mechanical properties :
#
#
# Convention : Reuss Voigt Hill
#
# Bulk Modulus (GPa) = 45.20468 52.84951 49.02710
# Shear Modulus (GPa) = 65.37113 24.32562 44.84837
#
# Velocity S-wave (km/s) = 5.36081 3.27016 4.44028
# Velocity P-wave (km/s) = 7.62827 6.12309 6.91674
#
# Compressibility (1/GPa) = 0.02212160
#
# Stress axis : x y z
#
# Youngs Moduli (GPa) = 70.61054 109.35122 93.60445
#
# Poissons Ratio (x) = -0.00166 0.15685
# Poissons Ratio (y) = -0.00107 0.40005
# Poissons Ratio (z) = 0.11832 0.46735
#
# Static dielectric constant tensor:
#      x y z
#    x 2.028620 0.000000 0.000000 
#    y 0.000000 1.945470 0.000000 
#    z 0.000000 0.000000 1.828510 
# 
# From -- ./inp_files/40359.got.cif
#   From: 2010.05.17/outbox.cif.g08.bks.cpg/sg66_21_cif.got.tgz:40359.got - 2010.06.03 17:51:23.
