data_PCOD9498476
_publ_section_title
;
Structure prediction by ZEFSAII (Michael W. Deem and Ramdas Pophale) SiO2 
 PCOD9498476
Probable space group: C C C M
;
_chemical_formula_sum "Si O2"
_cell_formula_units_Z 80
_cell_length_a 15.838272
_cell_length_b 14.163065
_cell_length_c 17.057753
_cell_angle_alpha 90.000000
_cell_angle_beta 90.000000
_cell_angle_gamma 90.000000
_cell_volume 3826.369154
_symmetry_space_group_name_H-M "C C C M"
_symmetry_group_IT_number 66
_symmetry_cell_setting 'orthorhombic'
loop_
_space_group_symop_operation_xyz
x,y,z
-x,-y,z
x,-y,1/2-z
-x,y,1/2-z
-x,-y,-z
x,y,-z
-x,y,1/2+z
x,-y,1/2+z
1/2+x,1/2+y,z
1/2-x,1/2-y,z
1/2+x,1/2-y,1/2-z
1/2-x,1/2+y,1/2-z
1/2-x,1/2-y,-z
1/2+x,1/2+y,-z
1/2-x,1/2+y,1/2+z
1/2+x,1/2-y,1/2+z
loop_
_atom_site_type_symbol
_atom_site_label
_atom_site_fract_x
_atom_site_fract_y
_atom_site_fract_z
Si Si1 0.481360 0.105099 0.158283
Si Si2 0.306420 0.628989 0.838600
Si Si3 0.145136 0.316272 0.588075
Si Si4 0.594751 0.540368 0.909908
Si Si5 0.089048 0.215804 0.199573
O O1 0.500000 0.094590 0.250000
O O2 0.550079 0.167394 0.113358
O O3 0.402095 0.177509 0.165387
O O4 0.500000 0.000000 0.125081
O O5 0.205958 0.629133 0.850978
O O6 0.335555 0.705324 0.904069
O O7 0.348227 0.529283 0.857063
O O8 0.339890 0.677730 0.759502
O O9 0.160525 0.349067 0.500000
O O10 0.500000 0.500000 0.908632
O O11 0.589219 0.642749 0.871406
O O12 0.624613 0.541244 0.000000
O O13 0.000000 0.208698 0.250000
#
# Coordination Sequence:
#
# PCOD9498476 Si02
#       5
#    16  16  16  16  16
#     4  10  21  42  64  84 120 158 210 259 307 363
#     4  11  21  37  59  89 127 161 200 258 309 374
#     4  11  22  39  63  91 121 159 213 264 313 364
#     4  11  21  33  55  86 125 163 198 245 305 373
#     4  11  20  38  58  88 123 160 205 245 310 389
#
# _framework density 20.907548999999999
#
# number of rings (size 3 to 8) (size 9 to 14) (size 15 to 20)
#    0.000    1.200    6.000    3.000    0.000    2.800 
#    7.200    0.000    0.000    0.000    0.000    5.600 
#    0.000    0.000    0.000    0.000    0.000    0.000 
#
# Total GULP energy -222796.169754 kJ/mol
# GULP energy per Si atom -5569.904244 kJ/mol
# Density = 2.085996 g / cm^3
# Si number density = 20.907549 Si / 1000 Ang^3
#
#
#
# Elastic Constant Matrix: (Units=GPa)
#
#
# Indices 1 2 3 4 5 6 
#
# 1 20.8652 -3.9702 21.1871 0.0000 0.0000 0.0000
# 2 -3.9702 137.5591 23.9465 0.0000 0.0000 0.0000
# 3 21.1871 23.9465 68.2214 0.0000 0.0000 0.0000
# 4 0.0000 0.0000 0.0000 10.6037 0.0000 0.0000
# 5 0.0000 0.0000 0.0000 0.0000 20.4162 0.0000
# 6 0.0000 0.0000 0.0000 0.0000 0.0000 1590.3459
#
#
#
# Elastic Compliance Matrix: (Units=1/GPa)
#
#
# Indices 1 2 3 4 5 6 
#
# 1 0.075314 0.006652 -0.025725 0.000000 0.000000 0.000000
# 2 0.006652 0.008330 -0.004990 0.000000 0.000000 0.000000
# 3 -0.025725 -0.004990 0.024399 0.000000 0.000000 0.000000
# 4 0.000000 0.000000 0.000000 0.094306 0.000000 0.000000
# 5 0.000000 0.000000 0.000000 0.000000 0.048981 0.000000
# 6 0.000000 0.000000 0.000000 0.000000 0.000000 0.000629
#
#
# Mechanical properties :
#
#
# Convention : Reuss Voigt Hill
#
# Bulk Modulus (GPa) = 16.68958 34.33028 25.50993
# Shear Modulus (GPa) = 15.62225 336.63867 176.13046
#
# Velocity S-wave (km/s) = 2.73647 12.70285 9.18833
# Velocity P-wave (km/s) = 4.24079 15.21860 11.17117
#
# Compressibility (1/GPa) = 0.05991764
#
# Stress axis : x y z
#
# Youngs Moduli (GPa) = 13.27777 120.04476 40.98562
#
# Poissons Ratio (x) = -0.79852 1.05434
# Poissons Ratio (y) = -0.08832 0.20451
# Poissons Ratio (z) = 0.34157 0.59900
#
# Static dielectric constant tensor:
#      x y z
#    x 1.802220 0.000000 0.000000 
#    y 0.000000 1.833030 0.000000 
#    z 0.000000 0.000000 1.769250 
# 
# From -- ./inp_files/41437.got.cif
#   From: 2010.05.17/outbox.cif.g08.bks.cpg/sg66_21_cif.got.tgz:41437.got - 2010.06.03 17:51:23.
