data_PCOD9498458
_publ_section_title
;
Structure prediction by ZEFSAII (Michael W. Deem and Ramdas Pophale) SiO2 
 PCOD9498458
Probable space group: C C C M
;
_chemical_formula_sum "Si O2"
_cell_formula_units_Z 52
_cell_length_a 9.308994
_cell_length_b 15.774122
_cell_length_c 14.128020
_cell_angle_alpha 90.000000
_cell_angle_beta 90.000000
_cell_angle_gamma 90.000000
_cell_volume 2074.575510
_symmetry_space_group_name_H-M "C C C M"
_symmetry_group_IT_number 66
_symmetry_cell_setting 'orthorhombic'
loop_
_space_group_symop_operation_xyz
x,y,z
-x,-y,z
x,-y,1/2-z
-x,y,1/2-z
-x,-y,-z
x,y,-z
-x,y,1/2+z
x,-y,1/2+z
1/2+x,1/2+y,z
1/2-x,1/2-y,z
1/2+x,1/2-y,1/2-z
1/2-x,1/2+y,1/2-z
1/2-x,1/2-y,-z
1/2+x,1/2+y,-z
1/2-x,1/2+y,1/2+z
1/2+x,1/2-y,1/2+z
loop_
_atom_site_type_symbol
_atom_site_label
_atom_site_fract_x
_atom_site_fract_y
_atom_site_fract_z
Si Si1 0.519144 0.127787 0.108597
Si Si2 0.000000 0.500000 0.000000
Si Si3 0.294804 0.596979 0.223838
Si Si4 0.550764 0.674945 0.893414
O O1 0.409195 0.052448 0.089105
O O2 0.634786 0.115181 0.188772
O O3 0.472973 0.223739 0.106554
O O4 0.588738 0.104522 0.000000
O O5 0.321676 0.500000 0.250000
O O6 0.404612 0.629825 0.142732
O O7 0.333381 0.652409 0.315075
O O8 0.586575 0.649628 0.000000
#
# Coordination Sequence:
#
# PCOD9498458 Si02
#       4
#    16   4  16  16
#     4   9  20  44  68  94 130 175 222 277 338 390
#     4   8  20  44  72  94 130 176 224 282 340 390
#     4  11  23  39  65 102 132 176 226 275 335 403
#     4  10  21  41  68  93 132 177 222 275 336 403
#
# _framework density 25.065367999999999
#
# number of rings (size 3 to 8) (size 9 to 14) (size 15 to 20)
#    0.923    1.231    0.000    3.692    0.000    6.154 
#   16.615    0.000    0.000   18.462    0.000    0.000 
#    0.000    0.000    0.000    0.000    0.000    0.000 
#
# Total GULP energy -145002.018539 kJ/mol
# GULP energy per Si atom -5577.000713 kJ/mol
# Density = 2.500832 g / cm^3
# Si number density = 25.065368 Si / 1000 Ang^3
#
#
#
# Elastic Constant Matrix: (Units=GPa)
#
#
# Indices 1 2 3 4 5 6 
#
# 1 77.8739 32.0341 50.4764 0.0000 0.0000 0.0000
# 2 32.0341 213.8176 71.6278 0.0000 0.0000 0.0000
# 3 50.4764 71.6278 174.1245 0.0000 0.0000 0.0000
# 4 0.0000 0.0000 0.0000 55.2089 0.0000 0.0000
# 5 0.0000 0.0000 0.0000 0.0000 29.5491 0.0000
# 6 0.0000 0.0000 0.0000 0.0000 0.0000 37.2797
#
#
#
# Elastic Compliance Matrix: (Units=1/GPa)
#
#
# Indices 1 2 3 4 5 6 
#
# 1 0.015987 -0.000977 -0.004232 0.000000 0.000000 0.000000
# 2 -0.000977 0.005484 -0.001973 0.000000 0.000000 0.000000
# 3 -0.004232 -0.001973 0.007781 0.000000 0.000000 0.000000
# 4 0.000000 0.000000 0.000000 0.018113 0.000000 0.000000
# 5 0.000000 0.000000 0.000000 0.000000 0.033842 0.000000
# 6 0.000000 0.000000 0.000000 0.000000 0.000000 0.026824
#
#
# Mechanical properties :
#
#
# Convention : Reuss Voigt Hill
#
# Bulk Modulus (GPa) = 67.16992 86.01029 76.59011
# Shear Modulus (GPa) = 39.25931 45.18604 42.22268
#
# Velocity S-wave (km/s) = 3.96192 4.25046 4.10872
# Velocity P-wave (km/s) = 6.91268 7.64705 7.28912
#
# Compressibility (1/GPa) = 0.01488762
#
# Stress axis : x y z
#
# Youngs Moduli (GPa) = 62.55250 182.34440 128.51233
#
# Poissons Ratio (x) = 0.17821 0.54390
# Poissons Ratio (y) = 0.06113 0.25351
# Poissons Ratio (z) = 0.26474 0.35970
#
# Static dielectric constant tensor:
#      x y z
#    x 2.082500 0.000000 0.000000 
#    y 0.000000 2.026050 0.000000 
#    z 0.000000 0.000000 2.089540 
# 
# From -- ./inp_files/25557.got.cif
#   From: 2010.05.17/outbox.cif.g08.bks.cpg/sg66_13_cif.got.tgz:25557.got - 2010.06.03 17:51:23.
