data_PCOD9498092
_publ_section_title
;
Structure prediction by ZEFSAII (Michael W. Deem and Ramdas Pophale) SiO2 
 PCOD9498092
Probable space group: C C C M
;
_chemical_formula_sum "Si O2"
_cell_formula_units_Z 64
_cell_length_a 14.238950
_cell_length_b 7.922169
_cell_length_c 27.475839
_cell_angle_alpha 90.000000
_cell_angle_beta 90.000000
_cell_angle_gamma 90.000000
_cell_volume 3099.367186
_symmetry_space_group_name_H-M "C C C M"
_symmetry_group_IT_number 66
_symmetry_cell_setting 'orthorhombic'
loop_
_space_group_symop_operation_xyz
x,y,z
-x,-y,z
x,-y,1/2-z
-x,y,1/2-z
-x,-y,-z
x,y,-z
-x,y,1/2+z
x,-y,1/2+z
1/2+x,1/2+y,z
1/2-x,1/2-y,z
1/2+x,1/2-y,1/2-z
1/2-x,1/2+y,1/2-z
1/2-x,1/2-y,-z
1/2+x,1/2+y,-z
1/2-x,1/2+y,1/2+z
1/2+x,1/2-y,1/2+z
loop_
_atom_site_type_symbol
_atom_site_label
_atom_site_fract_x
_atom_site_fract_y
_atom_site_fract_z
Si Si1 0.921848 0.146247 0.054452
Si Si2 0.083920 0.381461 0.356062
Si Si3 0.110354 0.041583 0.696173
Si Si4 0.730153 0.563691 0.892519
O O1 0.948800 0.279557 0.095827
O O2 0.823741 0.059024 0.070179
O O3 0.916377 0.217014 0.000000
O O4 0.000000 0.000000 0.055150
O O5 0.117138 0.238545 0.318149
O O6 0.173173 0.486121 0.373674
O O7 0.000000 0.500000 0.337959
O O8 0.145753 0.000000 0.750000
O O9 0.162456 0.934545 0.654759
O O10 0.000000 0.000000 0.694334
O O11 0.750000 0.750000 0.912049
#
# Coordination Sequence:
#
# PCOD9498092 Si02
#       4
#    16  16  16  16
#     4  10  21  38  60  87 119 154 194 241 291 345
#     4  11  22  39  61  86 118 155 195 239 291 345
#     4  10  21  39  60  85 115 148 189 240 293 348
#     4  11  22  37  59  85 116 154 193 239 290 344
#
# _framework density 20.649377000000001
#
# number of rings (size 3 to 8) (size 9 to 14) (size 15 to 20)
#    0.000    1.500    0.000    9.000    0.000    5.000 
#    0.000    7.500    0.000    0.000    0.000    0.000 
#    0.000    0.000    0.000    0.000    0.000    0.000 
#
# Total GULP energy -178884.456977 kJ/mol
# GULP energy per Si atom -5590.139281 kJ/mol
# Density = 2.060238 g / cm^3
# Si number density = 20.649377 Si / 1000 Ang^3
#
#
#
# Elastic Constant Matrix: (Units=GPa)
#
#
# Indices 1 2 3 4 5 6 
#
# 1 67.9803 0.4875 -16.8083 0.0000 0.0000 0.0000
# 2 0.4875 78.6754 3.8307 0.0000 0.0000 0.0000
# 3 -16.8083 3.8307 103.0244 0.0000 0.0000 0.0000
# 4 0.0000 0.0000 0.0000 6.8167 0.0000 0.0000
# 5 0.0000 0.0000 0.0000 0.0000 13.8772 0.0000
# 6 0.0000 0.0000 0.0000 0.0000 0.0000 39.5826
#
#
#
# Elastic Compliance Matrix: (Units=1/GPa)
#
#
# Indices 1 2 3 4 5 6 
#
# 1 0.015332 -0.000217 0.002510 0.000000 0.000000 0.000000
# 2 -0.000217 0.012737 -0.000509 0.000000 0.000000 0.000000
# 3 0.002510 -0.000509 0.010135 0.000000 0.000000 0.000000
# 4 0.000000 0.000000 0.000000 0.146698 0.000000 0.000000
# 5 0.000000 0.000000 0.000000 0.000000 0.072060 0.000000
# 6 0.000000 0.000000 0.000000 0.000000 0.000000 0.025264
#
#
# Mechanical properties :
#
#
# Convention : Reuss Voigt Hill
#
# Bulk Modulus (GPa) = 23.94053 24.96664 24.45359
# Shear Modulus (GPa) = 17.08919 29.53332 23.31125
#
# Velocity S-wave (km/s) = 2.87990 3.78594 3.36357
# Velocity P-wave (km/s) = 4.76209 5.58821 5.19161
#
# Compressibility (1/GPa) = 0.04177017
#
# Stress axis : x y z
#
# Youngs Moduli (GPa) = 65.22228 78.51396 98.67006
#
# Poissons Ratio (x) = 0.01705 -0.24761
# Poissons Ratio (y) = 0.01417 0.05022
# Poissons Ratio (z) = -0.16368 0.03996
#
# Static dielectric constant tensor:
#      x y z
#    x 1.743720 0.000000 0.000000 
#    y 0.000000 1.741380 0.000000 
#    z 0.000000 0.000000 1.735370 
# 
# From -- ./inp_files/67886.got.cif
#   From: 2010.05.17/outbox.cif.g08.bks.cpg/sg66_34_cif.got.tgz:67886.got - 2010.06.03 17:51:23.
