data_PCOD9498223
_publ_section_title
;
Structure prediction by ZEFSAII (Michael W. Deem and Ramdas Pophale) SiO2 
 PCOD9498223
Probable space group: C C C M
;
_chemical_formula_sum "Si O2"
_cell_formula_units_Z 88
_cell_length_a 12.433498
_cell_length_b 13.202866
_cell_length_c 25.269195
_cell_angle_alpha 90.000000
_cell_angle_beta 90.000000
_cell_angle_gamma 90.000000
_cell_volume 4148.135661
_symmetry_space_group_name_H-M "C C C M"
_symmetry_group_IT_number 66
_symmetry_cell_setting 'orthorhombic'
loop_
_space_group_symop_operation_xyz
x,y,z
-x,-y,z
x,-y,1/2-z
-x,y,1/2-z
-x,-y,-z
x,y,-z
-x,y,1/2+z
x,-y,1/2+z
1/2+x,1/2+y,z
1/2-x,1/2-y,z
1/2+x,1/2-y,1/2-z
1/2-x,1/2+y,1/2-z
1/2-x,1/2-y,-z
1/2+x,1/2+y,-z
1/2-x,1/2+y,1/2+z
1/2+x,1/2-y,1/2+z
loop_
_atom_site_type_symbol
_atom_site_label
_atom_site_fract_x
_atom_site_fract_y
_atom_site_fract_z
Si Si1 0.172751 0.085019 0.207500
Si Si2 0.183499 0.977853 0.590008
Si Si3 0.905629 0.689238 0.789570
Si Si4 0.522898 0.855335 0.500000
Si Si5 0.573312 0.083904 0.610792
Si Si6 0.730318 0.628933 0.500000
Si Si7 0.862231 0.181898 0.500000
O O1 0.119171 0.193055 0.219712
O O2 0.299870 0.117226 0.213032
O O3 0.147702 0.000000 0.250000
O O4 0.140804 0.039698 0.149630
O O5 0.177595 0.079386 0.553101
O O6 0.309081 0.958179 0.600918
O O7 0.143743 0.888814 0.551470
O O8 0.932940 0.680345 0.851665
O O9 0.000000 0.657120 0.750000
O O10 0.473037 0.893353 0.553963
O O11 0.643374 0.898121 0.500000
O O12 0.476289 0.740255 0.500000
O O13 0.500000 0.000000 0.638337
O O14 0.750000 0.750000 0.500000
O O15 0.750000 0.250000 0.500000
#
# Coordination Sequence:
#
# PCOD9498223 Si02
#       7
#    16  16  16   8  16   8   8
#     4  10  23  43  63  89 126 162 209 257 306 381
#     4  10  21  39  61  90 120 162 196 249 314 358
#     4  10  24  40  63  94 121 160 207 256 316 364
#     4  12  20  34  58  97 119 156 194 244 305 361
#     4  11  20  33  63  94 124 145 197 259 308 369
#     4  11  24  42  58  84 129 165 209 250 294 371
#     4  11  19  31  64  94 126 149 191 246 307 371
#
# _framework density 21.214348000000001
#
# number of rings (size 3 to 8) (size 9 to 14) (size 15 to 20)
#    0.000    1.455    3.636    1.909    7.636    0.364 
#    6.545    1.818    4.000    0.000    0.000    0.000 
#    0.000    0.000    0.000    0.000    0.000    0.000 
#
# Total GULP energy -245164.386245 kJ/mol
# GULP energy per Si atom -5571.917869 kJ/mol
# Density = 2.116606 g / cm^3
# Si number density = 21.214348 Si / 1000 Ang^3
#
#
#
# Elastic Constant Matrix: (Units=GPa)
#
#
# Indices 1 2 3 4 5 6 
#
# 1 25.7772 -5.3476 4.6050 0.0000 0.0000 0.0000
# 2 -5.3476 123.9205 55.6894 0.0000 0.0000 0.0000
# 3 4.6050 55.6894 141.9875 0.0000 0.0000 0.0000
# 4 0.0000 0.0000 0.0000 32.1406 0.0000 0.0000
# 5 0.0000 0.0000 0.0000 0.0000 8.2556 0.0000
# 6 0.0000 0.0000 0.0000 0.0000 0.0000 17.8260
#
#
#
# Elastic Compliance Matrix: (Units=1/GPa)
#
#
# Indices 1 2 3 4 5 6 
#
# 1 0.039799 0.002789 -0.002385 0.000000 0.000000 0.000000
# 2 0.002789 0.009992 -0.004009 0.000000 0.000000 0.000000
# 3 -0.002385 -0.004009 0.008693 0.000000 0.000000 0.000000
# 4 0.000000 0.000000 0.000000 0.031113 0.000000 0.000000
# 5 0.000000 0.000000 0.000000 0.000000 0.121130 0.000000
# 6 0.000000 0.000000 0.000000 0.000000 0.000000 0.056098
#
#
# Mechanical properties :
#
#
# Convention : Reuss Voigt Hill
#
# Bulk Modulus (GPa) = 19.50331 44.61987 32.06159
# Shear Modulus (GPa) = 17.17470 27.42698 22.30084
#
# Velocity S-wave (km/s) = 2.84840 3.59952 3.24576
# Velocity P-wave (km/s) = 4.47563 6.19306 5.40302
#
# Compressibility (1/GPa) = 0.05127335
#
# Stress axis : x y z
#
# Youngs Moduli (GPa) = 25.12646 100.08143 115.03830
#
# Poissons Ratio (x) = -0.27914 0.27433
# Poissons Ratio (y) = -0.07008 0.46124
# Poissons Ratio (z) = 0.05992 0.40127
#
# Static dielectric constant tensor:
#      x y z
#    x 1.889890 0.000000 0.000000 
#    y 0.000000 1.879580 0.000000 
#    z 0.000000 0.000000 1.751950 
# 
# From -- ./inp_files/64565.got.cif
#   From: 2010.05.17/outbox.cif.g08.bks.cpg/sg66_33_cif.got.tgz:64565.got - 2010.06.03 17:51:23.
