data_PCOD9498367
_publ_section_title
;
Structure prediction by ZEFSAII (Michael W. Deem and Ramdas Pophale) SiO2 
 PCOD9498367
Probable space group: C C C M
;
_chemical_formula_sum "Si O2"
_cell_formula_units_Z 40
_cell_length_a 11.632839
_cell_length_b 10.366107
_cell_length_c 13.941827
_cell_angle_alpha 90.000000
_cell_angle_beta 90.000000
_cell_angle_gamma 90.000000
_cell_volume 1681.206631
_symmetry_space_group_name_H-M "C C C M"
_symmetry_group_IT_number 66
_symmetry_cell_setting 'orthorhombic'
loop_
_space_group_symop_operation_xyz
x,y,z
-x,-y,z
x,-y,1/2-z
-x,y,1/2-z
-x,-y,-z
x,y,-z
-x,y,1/2+z
x,-y,1/2+z
1/2+x,1/2+y,z
1/2-x,1/2-y,z
1/2+x,1/2-y,1/2-z
1/2-x,1/2+y,1/2-z
1/2-x,1/2-y,-z
1/2+x,1/2+y,-z
1/2-x,1/2+y,1/2+z
1/2+x,1/2-y,1/2+z
loop_
_atom_site_type_symbol
_atom_site_label
_atom_site_fract_x
_atom_site_fract_y
_atom_site_fract_z
Si Si1 0.049430 0.131397 0.857189
Si Si2 0.250000 0.250000 0.763050
Si Si3 0.414492 0.117838 0.393109
O O1 0.182650 0.153621 0.834838
O O2 0.000000 0.132874 0.750000
O O3 0.996760 0.258155 0.902185
O O4 0.000000 0.000000 0.899490
O O5 0.326078 0.161003 0.690569
O O6 0.362125 0.094043 0.500000
O O7 0.500000 0.000000 0.368848
#
# Coordination Sequence:
#
# PCOD9498367 Si02
#       3
#    16   8  16
#     4   9  20  36  57  87 116 148 199 247 290 349
#     4  10  21  40  65  86 118 164 200 246 303 354
#     4  10  22  38  58  88 122 156 197 244 297 357
#
# _framework density 23.792437
#
# number of rings (size 3 to 8) (size 9 to 14) (size 15 to 20)
#    0.000    2.400    0.000    0.600    0.000   20.800 
#    0.000    1.000    0.000    3.600    0.000    0.000 
#    0.000    0.000    0.000    0.000    0.000    0.000 
#
# Total GULP energy -111481.820272 kJ/mol
# GULP energy per Si atom -5574.091014 kJ/mol
# Density = 2.373828 g / cm^3
# Si number density = 23.792437 Si / 1000 Ang^3
#
#
#
# Elastic Constant Matrix: (Units=GPa)
#
#
# Indices 1 2 3 4 5 6 
#
# 1 105.7481 66.2206 26.5467 0.0000 0.0000 0.0000
# 2 66.2206 214.6973 32.5225 0.0000 0.0000 0.0000
# 3 26.5467 32.5225 103.8408 0.0000 0.0000 0.0000
# 4 0.0000 0.0000 0.0000 39.9664 0.0000 0.0000
# 5 0.0000 0.0000 0.0000 0.0000 18.3726 0.0000
# 6 0.0000 0.0000 0.0000 0.0000 0.0000 20.7128
#
#
#
# Elastic Compliance Matrix: (Units=1/GPa)
#
#
# Indices 1 2 3 4 5 6 
#
# 1 0.012112 -0.003429 -0.002022 0.000000 0.000000 0.000000
# 2 -0.003429 0.005861 -0.000959 0.000000 0.000000 0.000000
# 3 -0.002022 -0.000959 0.010447 0.000000 0.000000 0.000000
# 4 0.000000 0.000000 0.000000 0.025021 0.000000 0.000000
# 5 0.000000 0.000000 0.000000 0.000000 0.054429 0.000000
# 6 0.000000 0.000000 0.000000 0.000000 0.000000 0.048279
#
#
# Mechanical properties :
#
#
# Convention : Reuss Voigt Hill
#
# Bulk Modulus (GPa) = 64.10732 74.98509 69.54621
# Shear Modulus (GPa) = 28.70770 35.74346 32.22558
#
# Velocity S-wave (km/s) = 3.47737 3.88016 3.68427
# Velocity P-wave (km/s) = 6.56702 7.18742 6.88421
#
# Compressibility (1/GPa) = 0.01559884
#
# Stress axis : x y z
#
# Youngs Moduli (GPa) = 82.56559 170.62812 95.71746
#
# Poissons Ratio (x) = 0.58514 0.19357
# Poissons Ratio (y) = 0.28314 0.09178
# Poissons Ratio (z) = 0.16697 0.16361
#
# Static dielectric constant tensor:
#      x y z
#    x 1.868790 0.000000 0.000000 
#    y 0.000000 1.958830 0.000000 
#    z 0.000000 0.000000 1.969880 
# 
# From -- ./inp_files/23100.got.cif
#   From: 2010.05.17/outbox.cif.g08.bks.cpg/sg66_12_cif.got.tgz:23100.got - 2010.06.03 17:51:23.
