data_PCOD9498225
_publ_section_title
;
Structure prediction by ZEFSAII (Michael W. Deem and Ramdas Pophale) SiO2 
 PCOD9498225
Probable space group: C C C M
;
_chemical_formula_sum "Si O2"
_cell_formula_units_Z 80
_cell_length_a 13.693508
_cell_length_b 9.867204
_cell_length_c 24.803760
_cell_angle_alpha 90.000000
_cell_angle_beta 90.000000
_cell_angle_gamma 90.000000
_cell_volume 3351.400634
_symmetry_space_group_name_H-M "C C C M"
_symmetry_group_IT_number 66
_symmetry_cell_setting 'orthorhombic'
loop_
_space_group_symop_operation_xyz
x,y,z
-x,-y,z
x,-y,1/2-z
-x,y,1/2-z
-x,-y,-z
x,y,-z
-x,y,1/2+z
x,-y,1/2+z
1/2+x,1/2+y,z
1/2-x,1/2-y,z
1/2+x,1/2-y,1/2-z
1/2-x,1/2+y,1/2-z
1/2-x,1/2-y,-z
1/2+x,1/2+y,-z
1/2-x,1/2+y,1/2+z
1/2+x,1/2-y,1/2+z
loop_
_atom_site_type_symbol
_atom_site_label
_atom_site_fract_x
_atom_site_fract_y
_atom_site_fract_z
Si Si1 0.995044 0.158704 0.668829
Si Si2 0.047603 0.716946 0.558788
Si Si3 0.838264 0.441082 0.059007
Si Si4 0.164709 0.330329 0.209215
Si Si5 0.162075 0.617292 0.172189
O O1 0.948849 0.185110 0.609479
O O2 0.922001 0.224716 0.711547
O O3 0.090621 0.254474 0.668481
O O4 0.000000 0.000000 0.678157
O O5 0.056554 0.783304 0.500000
O O6 0.128326 0.597865 0.561791
O O7 0.941804 0.640539 0.560130
O O8 0.784767 0.398535 0.114463
O O9 0.792166 0.416362 0.000000
O O10 0.250000 0.250000 0.178839
O O11 0.120690 0.464091 0.180701
O O12 0.206704 0.368034 0.268211
#
# Coordination Sequence:
#
# PCOD9498225 Si02
#       5
#    16  16  16  16  16
#     4  11  22  36  59  90 122 156 201 252 296 356
#     4   8  14  27  51  86 121 148 187 247 303 348
#     4   8  13  27  56  87 112 143 196 251 297 350
#     4  11  24  40  59  84 119 161 202 247 302 362
#     4  10  21  39  62  84 115 159 204 247 295 359
#
# _framework density 23.870618
#
# number of rings (size 3 to 8) (size 9 to 14) (size 15 to 20)
#    0.000    2.400    2.000    2.400    0.000    6.800 
#    0.000    0.000    0.000    3.000    0.000    2.800 
#    0.000    0.000    0.000    0.000    0.000    0.000 
#
# Total GULP energy -222727.403177 kJ/mol
# GULP energy per Si atom -5568.185079 kJ/mol
# Density = 2.381629 g / cm^3
# Si number density = 23.870618 Si / 1000 Ang^3
#
#
#
# Elastic Constant Matrix: (Units=GPa)
#
#
# Indices 1 2 3 4 5 6 
#
# 1 26.9426 34.3733 -5.7346 0.0000 0.0000 0.0000
# 2 34.3733 180.7680 28.5993 0.0000 0.0000 0.0000
# 3 -5.7346 28.5993 171.8824 0.0000 0.0000 0.0000
# 4 0.0000 0.0000 0.0000 22.6274 0.0000 0.0000
# 5 0.0000 0.0000 0.0000 0.0000 -11.6916 0.0000
# 6 0.0000 0.0000 0.0000 0.0000 0.0000 22.7010
#
#
#
# Elastic Compliance Matrix: (Units=1/GPa)
#
#
# Indices 1 2 3 4 5 6 
#
# 1 0.050863 -0.010209 0.003396 0.000000 0.000000 0.000000
# 2 -0.010209 0.007731 -0.001627 0.000000 0.000000 0.000000
# 3 0.003396 -0.001627 0.006202 0.000000 0.000000 0.000000
# 4 0.000000 0.000000 0.000000 0.044194 0.000000 0.000000
# 5 0.000000 0.000000 0.000000 0.000000 -0.085531 0.000000
# 6 0.000000 0.000000 0.000000 0.000000 0.000000 0.044051
#
#
# Mechanical properties :
#
#
# Convention : Reuss Voigt Hill
#
# Bulk Modulus (GPa) = 20.87009 54.89655 37.88332
# Shear Modulus (GPa) = 49.81964 28.21767 39.01865
#
# Velocity S-wave (km/s) = 4.57340 3.44191 4.04739
# Velocity P-wave (km/s) = 6.05392 6.23243 6.14382
#
# Compressibility (1/GPa) = 0.04791546
#
# Stress axis : x y z
#
# Youngs Moduli (GPa) = 19.66052 129.35614 161.24034
#
# Poissons Ratio (x) = 1.32059 -0.54752
# Poissons Ratio (y) = 0.20071 0.26232
# Poissons Ratio (z) = -0.06676 0.21045
#
# Static dielectric constant tensor:
#      x y z
#    x 1.942570 0.000000 0.000000 
#    y 0.000000 1.918560 0.000000 
#    z 0.000000 0.000000 2.001630 
# 
# From -- ./inp_files/65077.got.cif
#   From: 2010.05.17/outbox.cif.g08.bks.cpg/sg66_33_cif.got.tgz:65077.got - 2010.06.03 17:51:23.
