data_PCOD9498727
_publ_section_title
;
Structure prediction by ZEFSAII (Michael W. Deem and Ramdas Pophale) SiO2 
 PCOD9498727
Probable space group: C C C M
;
_chemical_formula_sum "Si O2"
_cell_formula_units_Z 56
_cell_length_a 24.349446
_cell_length_b 5.049647
_cell_length_c 23.631551
_cell_angle_alpha 90.000000
_cell_angle_beta 90.000000
_cell_angle_gamma 90.000000
_cell_volume 2905.643512
_symmetry_space_group_name_H-M "C C C M"
_symmetry_group_IT_number 66
_symmetry_cell_setting 'orthorhombic'
loop_
_space_group_symop_operation_xyz
x,y,z
-x,-y,z
x,-y,1/2-z
-x,y,1/2-z
-x,-y,-z
x,y,-z
-x,y,1/2+z
x,-y,1/2+z
1/2+x,1/2+y,z
1/2-x,1/2-y,z
1/2+x,1/2-y,1/2-z
1/2-x,1/2+y,1/2-z
1/2-x,1/2-y,-z
1/2+x,1/2+y,-z
1/2-x,1/2+y,1/2+z
1/2+x,1/2-y,1/2+z
loop_
_atom_site_type_symbol
_atom_site_label
_atom_site_fract_x
_atom_site_fract_y
_atom_site_fract_z
Si Si1 0.813956 0.251159 0.790269
Si Si2 0.123679 0.628926 0.904717
Si Si3 0.710341 0.000123 0.500000
Si Si4 0.056058 0.135577 0.065687
O O1 0.821369 0.500000 0.750000
O O2 0.750000 0.250000 0.809127
O O3 0.852008 0.286185 0.844524
O O4 0.824125 0.000000 0.750000
O O5 0.171081 0.513029 0.945309
O O6 0.078142 0.395664 0.902601
O O7 0.099652 0.896830 0.931696
O O8 0.750000 0.750000 0.500000
O O9 0.750000 0.250000 0.500000
O O10 0.047437 0.214888 0.000000
O O11 0.000000 0.000000 0.087145
#
# Coordination Sequence:
#
# PCOD9498727 Si02
#       4
#    16  16   8  16
#     4  10  22  40  62  88 120 166 214 251 298 368
#     4  12  22  40  62  90 127 164 205 258 313 370
#     4  12  24  36  55  92 133 164 198 248 324 384
#     4  11  22  39  62  91 125 163 210 254 308 378
#
# _framework density 19.272839000000001
#
# number of rings (size 3 to 8) (size 9 to 14) (size 15 to 20)
#    0.000    0.857    2.857    5.143    0.000    5.714 
#    0.000    0.000    0.000   12.857    0.000    0.000 
#    0.000    0.000    0.000    0.000    0.000    0.000 
#
# Total GULP energy -156519.788953 kJ/mol
# GULP energy per Si atom -5589.992463 kJ/mol
# Density = 1.922897 g / cm^3
# Si number density = 19.272839 Si / 1000 Ang^3
#
#
#
# Elastic Constant Matrix: (Units=GPa)
#
#
# Indices 1 2 3 4 5 6 
#
# 1 71.5744 32.4842 47.8118 0.0000 0.0000 0.0000
# 2 32.4842 144.8624 34.2168 0.0000 0.0000 0.0000
# 3 47.8118 34.2168 92.4767 0.0000 0.0000 0.0000
# 4 0.0000 0.0000 0.0000 149.3362 0.0000 0.0000
# 5 0.0000 0.0000 0.0000 0.0000 16.1055 0.0000
# 6 0.0000 0.0000 0.0000 0.0000 0.0000 48.6674
#
#
#
# Elastic Compliance Matrix: (Units=1/GPa)
#
#
# Indices 1 2 3 4 5 6 
#
# 1 0.022124 -0.002476 -0.010522 0.000000 0.000000 0.000000
# 2 -0.002476 0.007841 -0.001621 0.000000 0.000000 0.000000
# 3 -0.010522 -0.001621 0.016854 0.000000 0.000000 0.000000
# 4 0.000000 0.000000 0.000000 0.006696 0.000000 0.000000
# 5 0.000000 0.000000 0.000000 0.000000 0.062090 0.000000
# 6 0.000000 0.000000 0.000000 0.000000 0.000000 0.020548
#
#
# Mechanical properties :
#
#
# Convention : Reuss Voigt Hill
#
# Bulk Modulus (GPa) = 56.88266 59.77100 58.32683
# Shear Modulus (GPa) = 29.19667 55.78187 42.48927
#
# Velocity S-wave (km/s) = 3.89641 5.38573 4.70043
# Velocity P-wave (km/s) = 7.05841 8.35196 7.73228
#
# Compressibility (1/GPa) = 0.01758005
#
# Stress axis : x y z
#
# Youngs Moduli (GPa) = 45.19956 127.53120 59.33415
#
# Poissons Ratio (x) = 0.31573 0.62434
# Poissons Ratio (y) = 0.11190 0.09620
# Poissons Ratio (z) = 0.47561 0.20677
#
# Static dielectric constant tensor:
#      x y z
#    x 1.679630 0.000000 0.000000 
#    y 0.000000 1.650850 0.000000 
#    z 0.000000 0.000000 1.620800 
# 
# From -- ./inp_files/45449.got.cif
#   From: 2010.05.17/outbox.cif.g08.bks.cpg/sg66_23_cif.got.tgz:45449.got - 2010.06.03 17:51:23.
