data_PCOD9498151
_publ_section_title
;
Structure prediction by ZEFSAII (Michael W. Deem and Ramdas Pophale) SiO2 
 PCOD9498151
Probable space group: C C C M
;
_chemical_formula_sum "Si O2"
_cell_formula_units_Z 88
_cell_length_a 19.716627
_cell_length_b 12.687837
_cell_length_c 14.216659
_cell_angle_alpha 90.000000
_cell_angle_beta 90.000000
_cell_angle_gamma 90.000000
_cell_volume 3556.458602
_symmetry_space_group_name_H-M "C C C M"
_symmetry_group_IT_number 66
_symmetry_cell_setting 'orthorhombic'
loop_
_space_group_symop_operation_xyz
x,y,z
-x,-y,z
x,-y,1/2-z
-x,y,1/2-z
-x,-y,-z
x,y,-z
-x,y,1/2+z
x,-y,1/2+z
1/2+x,1/2+y,z
1/2-x,1/2-y,z
1/2+x,1/2-y,1/2-z
1/2-x,1/2+y,1/2-z
1/2-x,1/2-y,-z
1/2+x,1/2+y,-z
1/2-x,1/2+y,1/2+z
1/2+x,1/2-y,1/2+z
loop_
_atom_site_type_symbol
_atom_site_label
_atom_site_fract_x
_atom_site_fract_y
_atom_site_fract_z
Si Si1 0.660761 0.329838 0.601700
Si Si2 0.242123 0.977978 0.848652
Si Si3 0.250000 0.750000 0.227101
Si Si4 0.996829 0.115684 0.391168
Si Si5 0.892414 0.466885 0.613587
Si Si6 0.020770 0.666381 0.115077
O O1 0.672733 0.272806 0.500000
O O2 0.695347 0.445270 0.591647
O O3 0.690438 0.272557 0.694843
O O4 0.580961 0.348381 0.608655
O O5 0.253126 0.852047 0.842628
O O6 0.315994 0.032311 0.851765
O O7 0.207519 0.000000 0.750000
O O8 0.020619 0.105518 0.500000
O O9 0.035998 0.216262 0.349877
O O10 0.000000 0.000000 0.349738
O O11 0.889893 0.466557 0.500000
O O12 0.946506 0.378078 0.641878
O O13 0.925823 0.577880 0.642985
O O14 0.020740 0.669396 0.000000
#
# Coordination Sequence:
#
# PCOD9498151 Si02
#       6
#    16  16   8  16  16  16
#     4  10  21  38  63  90 112 153 211 247 283 361
#     4  10  22  37  55  81 120 155 189 251 310 352
#     4  10  23  40  57  82 124 160 188 248 315 360
#     4   9  18  32  54  86 117 143 186 247 293 333
#     4   9  17  33  56  81 110 148 194 239 292 356
#     4   8  16  30  52  82 114 146 187 245 295 340
#
# _framework density 24.743715999999999
#
# number of rings (size 3 to 8) (size 9 to 14) (size 15 to 20)
#    0.000    2.727    0.000    1.909    5.091    1.455 
#    0.000    5.455    0.000   11.455    0.000    0.000 
#    0.000    0.000    0.000    0.000    0.000    0.000 
#
# Total GULP energy -245291.001767 kJ/mol
# GULP energy per Si atom -5574.795495 kJ/mol
# Density = 2.468740 g / cm^3
# Si number density = 24.743716 Si / 1000 Ang^3
#
#
#
# Elastic Constant Matrix: (Units=GPa)
#
#
# Indices 1 2 3 4 5 6 
#
# 1 27.3736 6.0728 -5.2498 0.0000 0.0000 0.0000
# 2 6.0728 226.0045 -3.4728 0.0000 0.0000 0.0000
# 3 -5.2498 -3.4728 84.5293 0.0000 0.0000 0.0000
# 4 0.0000 0.0000 0.0000 11.6145 0.0000 0.0000
# 5 0.0000 0.0000 0.0000 0.0000 3.1188 0.0000
# 6 0.0000 0.0000 0.0000 0.0000 0.0000 23.9607
#
#
#
# Elastic Compliance Matrix: (Units=1/GPa)
#
#
# Indices 1 2 3 4 5 6 
#
# 1 0.037181 -0.000964 0.002270 0.000000 0.000000 0.000000
# 2 -0.000964 0.004452 0.000123 0.000000 0.000000 0.000000
# 3 0.002270 0.000123 0.011976 0.000000 0.000000 0.000000
# 4 0.000000 0.000000 0.000000 0.086099 0.000000 0.000000
# 5 0.000000 0.000000 0.000000 0.000000 0.320638 0.000000
# 6 0.000000 0.000000 0.000000 0.000000 0.000000 0.041735
#
#
# Mechanical properties :
#
#
# Convention : Reuss Voigt Hill
#
# Bulk Modulus (GPa) = 17.70972 36.95644 27.33308
# Shear Modulus (GPa) = 9.65164 30.44262 20.04713
#
# Velocity S-wave (km/s) = 1.97715 3.51139 2.84947
# Velocity P-wave (km/s) = 3.51923 5.60428 4.67936
#
# Compressibility (1/GPa) = 0.05646618
#
# Stress axis : x y z
#
# Youngs Moduli (GPa) = 26.89569 224.59344 83.49881
#
# Poissons Ratio (x) = 0.21655 -0.18950
# Poissons Ratio (y) = 0.02593 -0.01027
# Poissons Ratio (z) = -0.06104 -0.02763
#
# Static dielectric constant tensor:
#      x y z
#    x 1.909170 0.000000 0.000000 
#    y 0.000000 2.059600 0.000000 
#    z 0.000000 0.000000 2.064070 
# 
# From -- ./inp_files/32231.got.cif
#   From: 2010.05.17/outbox.cif.g08.bks.cpg/sg66_17_cif.got.tgz:32231.got - 2010.06.03 17:51:23.
