data_PCOD9498841
_publ_section_title
;
Structure prediction by ZEFSAII (Michael W. Deem and Ramdas Pophale) SiO2 
 PCOD9498841
Probable space group: C C C M
;
_chemical_formula_sum "Si O2"
_cell_formula_units_Z 108
_cell_length_a 15.155340
_cell_length_b 15.131275
_cell_length_c 23.847518
_cell_angle_alpha 90.000000
_cell_angle_beta 90.000000
_cell_angle_gamma 90.000000
_cell_volume 5468.703700
_symmetry_space_group_name_H-M "C C C M"
_symmetry_group_IT_number 66
_symmetry_cell_setting 'orthorhombic'
loop_
_space_group_symop_operation_xyz
x,y,z
-x,-y,z
x,-y,1/2-z
-x,y,1/2-z
-x,-y,-z
x,y,-z
-x,y,1/2+z
x,-y,1/2+z
1/2+x,1/2+y,z
1/2-x,1/2-y,z
1/2+x,1/2-y,1/2-z
1/2-x,1/2+y,1/2-z
1/2-x,1/2-y,-z
1/2+x,1/2+y,-z
1/2-x,1/2+y,1/2+z
1/2+x,1/2-y,1/2+z
loop_
_atom_site_type_symbol
_atom_site_label
_atom_site_fract_x
_atom_site_fract_y
_atom_site_fract_z
Si Si1 0.401671 0.616830 0.342191
Si Si2 0.500000 0.500000 0.750000
Si Si3 0.417258 0.701950 0.145657
Si Si4 0.632753 0.951436 0.196317
Si Si5 0.712616 0.461702 0.869324
Si Si6 0.155325 0.257739 0.242672
Si Si7 0.500000 0.000000 0.101212
Si Si8 0.861327 0.639228 0.563650
O O1 0.441274 0.557856 0.291612
O O2 0.485010 0.667098 0.369507
O O3 0.345525 0.550023 0.380806
O O4 0.346059 0.689010 0.308402
O O5 0.354415 0.616170 0.146588
O O6 0.416234 0.739576 0.209091
O O7 0.380456 0.778185 0.104845
O O8 0.647207 0.852890 0.216010
O O9 0.593971 0.000000 0.250000
O O10 0.721225 0.005183 0.179497
O O11 0.569949 0.953928 0.142688
O O12 0.777318 0.418246 0.915401
O O13 0.250000 0.250000 0.272706
O O14 0.554886 0.073199 0.067899
O O15 0.848578 0.669155 0.500000
#
# Coordination Sequence:
#
# PCOD9498841 Si02
#       8
#    16   4  16  16  16  16   8  16
#     4  12  22  37  60  93 132 176 210 251 315 391
#     4  12  20  36  60  84 132 174 208 232 308 384
#     4  12  23  38  60  93 127 166 215 263 318 384
#     4  11  22  35  58  90 131 169 204 249 318 388
#     4  11  23  40  60  89 128 170 213 263 313 390
#     4  12  21  34  56  89 130 170 207 242 300 386
#     4  10  22  42  62  88 118 154 208 266 326 394
#     4  11  25  45  68  88 116 163 221 284 342 384
#
# _framework density 19.748739
#
# number of rings (size 3 to 8) (size 9 to 14) (size 15 to 20)
#    0.000    0.593    4.444    5.333    1.037    2.370 
#    0.000    0.741    0.000    1.778    0.000    5.185 
#    0.000    0.000    0.000    0.000    0.000    0.000 
#
# Total GULP energy -301689.537665 kJ/mol
# GULP energy per Si atom -5586.843290 kJ/mol
# Density = 1.970379 g / cm^3
# Si number density = 19.748739 Si / 1000 Ang^3
#
#
#
# Elastic Constant Matrix: (Units=GPa)
#
#
# Indices 1 2 3 4 5 6 
#
# 1 103.4105 42.2680 27.7562 0.0000 0.0000 0.0000
# 2 42.2680 140.5901 47.6932 0.0000 0.0000 0.0000
# 3 27.7562 47.6932 78.4188 0.0000 0.0000 0.0000
# 4 0.0000 0.0000 0.0000 6.2056 0.0000 0.0000
# 5 0.0000 0.0000 0.0000 0.0000 9.6951 0.0000
# 6 0.0000 0.0000 0.0000 0.0000 0.0000 33.5904
#
#
#
# Elastic Compliance Matrix: (Units=1/GPa)
#
#
# Indices 1 2 3 4 5 6 
#
# 1 0.011388 -0.002591 -0.002455 0.000000 0.000000 0.000000
# 2 -0.002591 0.009551 -0.004892 0.000000 0.000000 0.000000
# 3 -0.002455 -0.004892 0.016596 0.000000 0.000000 0.000000
# 4 0.000000 0.000000 0.000000 0.161144 0.000000 0.000000
# 5 0.000000 0.000000 0.000000 0.000000 0.103145 0.000000
# 6 0.000000 0.000000 0.000000 0.000000 0.000000 0.029770
#
#
# Mechanical properties :
#
#
# Convention : Reuss Voigt Hill
#
# Bulk Modulus (GPa) = 56.62561 61.98382 59.30472
# Shear Modulus (GPa) = 13.99157 23.54502 18.76830
#
# Velocity S-wave (km/s) = 2.66462 3.45661 3.08613
# Velocity P-wave (km/s) = 6.18079 6.88369 6.54169
#
# Compressibility (1/GPa) = 0.01765985
#
# Stress axis : x y z
#
# Youngs Moduli (GPa) = 87.81032 104.69700 60.25475
#
# Poissons Ratio (x) = 0.27127 0.14793
# Poissons Ratio (y) = 0.22752 0.29476
# Poissons Ratio (z) = 0.21558 0.51217
#
# Static dielectric constant tensor:
#      x y z
#    x 1.775100 0.000000 0.000000 
#    y 0.000000 1.688180 0.000000 
#    z 0.000000 0.000000 1.638450 
# 
# From -- ./inp_files/58267.got.cif
#   From: 2010.05.17/outbox.cif.g08.bks.cpg/sg66_30_cif.got.tgz:58267.got - 2010.06.03 17:51:23.
