data_PCOD9498821
_publ_section_title
;
Structure prediction by ZEFSAII (Michael W. Deem and Ramdas Pophale) SiO2 
 PCOD9498821
Probable space group: C C C M
;
_chemical_formula_sum "Si O2"
_cell_formula_units_Z 104
_cell_length_a 8.488880
_cell_length_b 25.252607
_cell_length_c 24.607526
_cell_angle_alpha 90.000000
_cell_angle_beta 90.000000
_cell_angle_gamma 90.000000
_cell_volume 5275.025544
_symmetry_space_group_name_H-M "C C C M"
_symmetry_group_IT_number 66
_symmetry_cell_setting 'orthorhombic'
loop_
_space_group_symop_operation_xyz
x,y,z
-x,-y,z
x,-y,1/2-z
-x,y,1/2-z
-x,-y,-z
x,y,-z
-x,y,1/2+z
x,-y,1/2+z
1/2+x,1/2+y,z
1/2-x,1/2-y,z
1/2+x,1/2-y,1/2-z
1/2-x,1/2+y,1/2-z
1/2-x,1/2-y,-z
1/2+x,1/2+y,-z
1/2-x,1/2+y,1/2+z
1/2+x,1/2-y,1/2+z
loop_
_atom_site_type_symbol
_atom_site_label
_atom_site_fract_x
_atom_site_fract_y
_atom_site_fract_z
Si Si1 0.000000 0.000000 0.911489
Si Si2 0.352602 0.875517 0.710622
Si Si3 0.509171 0.615414 0.592614
Si Si4 0.144417 0.181081 0.500000
Si Si5 0.702757 0.811306 0.893681
Si Si6 0.679719 0.992427 0.840174
Si Si7 0.864230 0.916053 0.711788
Si Si8 0.993349 0.288664 0.500000
O O1 0.999632 0.058172 0.936515
O O2 0.166907 0.004322 0.878900
O O3 0.500000 0.874303 0.750000
O O4 0.369924 0.834524 0.661672
O O5 0.325235 0.933889 0.685014
O O6 0.204562 0.868956 0.751193
O O7 0.624695 0.649049 0.555565
O O8 0.348868 0.648954 0.595587
O O9 0.568009 0.603448 0.654069
O O10 0.002708 0.224544 0.500000
O O11 0.322772 0.199643 0.500000
O O12 0.750000 0.750000 0.885699
O O13 0.590703 0.810493 0.946314
O O14 0.500000 0.000000 0.861711
O O15 0.726164 0.041077 0.800223
O O16 0.000000 0.940414 0.750000
#
# Coordination Sequence:
#
# PCOD9498821 Si02
#       8
#     8  16  16   8  16  16  16   8
#     4  10  22  41  67 102 136 190 217 283 348 418
#     4  12  24  39  62  99 139 177 219 277 341 399
#     4  11  23  43  71  95 139 174 226 279 343 407
#     4  11  25  47  70 107 121 174 232 291 343 401
#     4  12  24  47  70  99 127 179 231 286 344 409
#     4  11  21  37  63  95 138 181 236 272 322 408
#     4  11  22  39  63  98 139 181 222 272 337 414
#     4  11  26  45  79  95 123 170 241 293 332 405
#
# _framework density 19.715544000000001
#
# number of rings (size 3 to 8) (size 9 to 14) (size 15 to 20)
#    0.000    0.769    6.154    2.077    2.154    3.385 
#    2.769    0.000    0.000    0.923    0.000    0.000 
#    0.000    0.000    0.000    0.000    0.000    0.000 
#
# Total GULP energy -289773.423094 kJ/mol
# GULP energy per Si atom -5572.565829 kJ/mol
# Density = 1.967067 g / cm^3
# Si number density = 19.715544 Si / 1000 Ang^3
#
#
#
# Elastic Constant Matrix: (Units=GPa)
#
#
# Indices 1 2 3 4 5 6 
#
# 1 131.2249 44.7847 59.1162 0.0000 0.0000 0.0000
# 2 44.7847 105.8046 57.7868 0.0000 0.0000 0.0000
# 3 59.1162 57.7868 136.3492 0.0000 0.0000 0.0000
# 4 0.0000 0.0000 0.0000 33.6657 0.0000 0.0000
# 5 0.0000 0.0000 0.0000 0.0000 38.8430 0.0000
# 6 0.0000 0.0000 0.0000 0.0000 0.0000 26.1986
#
#
#
# Elastic Compliance Matrix: (Units=1/GPa)
#
#
# Indices 1 2 3 4 5 6 
#
# 1 0.009920 -0.002407 -0.003281 0.000000 0.000000 0.000000
# 2 -0.002407 0.012882 -0.004416 0.000000 0.000000 0.000000
# 3 -0.003281 -0.004416 0.010628 0.000000 0.000000 0.000000
# 4 0.000000 0.000000 0.000000 0.029704 0.000000 0.000000
# 5 0.000000 0.000000 0.000000 0.000000 0.025745 0.000000
# 6 0.000000 0.000000 0.000000 0.000000 0.000000 0.038170
#
#
# Mechanical properties :
#
#
# Convention : Reuss Voigt Hill
#
# Bulk Modulus (GPa) = 75.62885 77.41714 76.52300
# Shear Modulus (GPa) = 32.96760 33.85416 33.41088
#
# Velocity S-wave (km/s) = 4.09365 4.14832 4.12107
# Velocity P-wave (km/s) = 7.79661 7.89285 7.84488
#
# Compressibility (1/GPa) = 0.01322247
#
# Stress axis : x y z
#
# Youngs Moduli (GPa) = 100.80667 77.62702 94.08990
#
# Poissons Ratio (x) = 0.18685 0.30869
# Poissons Ratio (y) = 0.24265 0.41550
# Poissons Ratio (z) = 0.33073 0.34280
#
# Static dielectric constant tensor:
#      x y z
#    x 1.737470 0.000000 0.000000 
#    y 0.000000 1.730900 0.000000 
#    z 0.000000 0.000000 1.710530 
# 
# From -- ./inp_files/62855.got.cif
#   From: 2010.05.17/outbox.cif.g08.bks.cpg/sg66_32_cif.got.tgz:62855.got - 2010.06.03 17:51:23.
