data_PCOD9498166
_publ_section_title
;
Structure prediction by ZEFSAII (Michael W. Deem and Ramdas Pophale) SiO2 
 PCOD9498166
Probable space group: C C C M
;
_chemical_formula_sum "Si O2"
_cell_formula_units_Z 88
_cell_length_a 5.607640
_cell_length_b 26.975149
_cell_length_c 24.987421
_cell_angle_alpha 90.000000
_cell_angle_beta 90.000000
_cell_angle_gamma 90.000000
_cell_volume 3779.770327
_symmetry_space_group_name_H-M "C C C M"
_symmetry_group_IT_number 66
_symmetry_cell_setting 'orthorhombic'
loop_
_space_group_symop_operation_xyz
x,y,z
-x,-y,z
x,-y,1/2-z
-x,y,1/2-z
-x,-y,-z
x,y,-z
-x,y,1/2+z
x,-y,1/2+z
1/2+x,1/2+y,z
1/2-x,1/2-y,z
1/2+x,1/2-y,1/2-z
1/2-x,1/2+y,1/2-z
1/2-x,1/2-y,-z
1/2+x,1/2+y,-z
1/2-x,1/2+y,1/2+z
1/2+x,1/2-y,1/2+z
loop_
_atom_site_type_symbol
_atom_site_label
_atom_site_fract_x
_atom_site_fract_y
_atom_site_fract_z
Si Si1 0.235493 0.152686 0.061305
Si Si2 0.267466 0.809026 0.062430
Si Si3 0.747478 0.303025 0.217082
Si Si4 0.329489 0.913603 0.197932
Si Si5 0.000000 0.000000 0.175548
Si Si6 0.878588 0.548961 0.902311
O O1 0.475057 0.176217 0.086607
O O2 0.277849 0.093670 0.062579
O O3 0.979738 0.168425 0.084966
O O4 0.226219 0.171158 0.000000
O O5 0.250000 0.750000 0.061436
O O6 0.278240 0.827172 0.000000
O O7 0.500000 0.300260 0.250000
O O8 0.750000 0.250000 0.185961
O O9 0.735303 0.357860 0.193031
O O10 0.000000 0.303514 0.250000
O O11 0.500000 0.914907 0.250000
O O12 0.147042 0.958321 0.206142
O O13 0.442898 0.926998 0.140800
O O14 0.826962 0.970614 0.136057
O O15 0.000000 0.500000 0.928026
#
# Coordination Sequence:
#
# PCOD9498166 Si02
#       6
#    16  16  16  16   8  16
#     4  10  21  38  64  93 124 166 209 251 311 379
#     4   9  18  35  63  95 126 161 203 254 312 370
#     4   9  19  37  61  88 118 156 198 245 303 365
#     4  10  23  40  62  92 119 163 210 260 317 378
#     4  10  24  41  61  84 124 162 205 268 318 369
#     4  10  24  41  59  86 123 164 205 265 315 367
#
# _framework density 23.281838
#
# number of rings (size 3 to 8) (size 9 to 14) (size 15 to 20)
#    0.000    2.364    0.000    0.545   10.182    6.545 
#    0.000    1.364    4.000    0.000    0.000    0.000 
#    0.000    0.000    0.000    0.000    0.000    0.000 
#
# Total GULP energy -245395.714821 kJ/mol
# GULP energy per Si atom -5577.175337 kJ/mol
# Density = 2.322885 g / cm^3
# Si number density = 23.281838 Si / 1000 Ang^3
#
#
#
# Elastic Constant Matrix: (Units=GPa)
#
#
# Indices 1 2 3 4 5 6 
#
# 1 168.0824 66.0386 24.2635 0.0000 0.0000 0.0000
# 2 66.0386 189.6039 6.2609 0.0000 0.0000 0.0000
# 3 24.2635 6.2609 43.5758 0.0000 0.0000 0.0000
# 4 0.0000 0.0000 0.0000 36.8823 0.0000 0.0000
# 5 0.0000 0.0000 0.0000 0.0000 13.0611 0.0000
# 6 0.0000 0.0000 0.0000 0.0000 0.0000 24.1760
#
#
#
# Elastic Compliance Matrix: (Units=1/GPa)
#
#
# Indices 1 2 3 4 5 6 
#
# 1 0.007472 -0.002477 -0.003805 0.000000 0.000000 0.000000
# 2 -0.002477 0.006120 0.000500 0.000000 0.000000 0.000000
# 3 -0.003805 0.000500 0.024995 0.000000 0.000000 0.000000
# 4 0.000000 0.000000 0.000000 0.027113 0.000000 0.000000
# 5 0.000000 0.000000 0.000000 0.000000 0.076563 0.000000
# 6 0.000000 0.000000 0.000000 0.000000 0.000000 0.041363
#
#
# Mechanical properties :
#
#
# Convention : Reuss Voigt Hill
#
# Bulk Modulus (GPa) = 37.00401 66.04315 51.52358
# Shear Modulus (GPa) = 24.48606 35.13717 29.81162
#
# Velocity S-wave (km/s) = 3.24655 3.88907 3.58224
# Velocity P-wave (km/s) = 5.47557 6.97100 6.26804
#
# Compressibility (1/GPa) = 0.02702410
#
# Stress axis : x y z
#
# Youngs Moduli (GPa) = 133.83708 163.39054 40.00782
#
# Poissons Ratio (x) = 0.40468 0.15221
# Poissons Ratio (y) = 0.33148 -0.01999
# Poissons Ratio (z) = 0.50918 -0.08165
#
# Static dielectric constant tensor:
#      x y z
#    x 2.201650 0.000000 0.000000 
#    y 0.000000 1.811930 0.000000 
#    z 0.000000 0.000000 1.915360 
# 
# From -- ./inp_files/67393.got.cif
#   From: 2010.05.17/outbox.cif.g08.bks.cpg/sg66_34_cif.got.tgz:67393.got - 2010.06.03 17:51:23.
