data_PCOD9498305
_publ_section_title
;
Structure prediction by ZEFSAII (Michael W. Deem and Ramdas Pophale) SiO2 
 PCOD9498305
Probable space group: C C C M
;
_chemical_formula_sum "Si O2"
_cell_formula_units_Z 88
_cell_length_a 13.183878
_cell_length_b 23.443176
_cell_length_c 13.784032
_cell_angle_alpha 90.000000
_cell_angle_beta 90.000000
_cell_angle_gamma 90.000000
_cell_volume 4260.257957
_symmetry_space_group_name_H-M "C C C M"
_symmetry_group_IT_number 66
_symmetry_cell_setting 'orthorhombic'
loop_
_space_group_symop_operation_xyz
x,y,z
-x,-y,z
x,-y,1/2-z
-x,y,1/2-z
-x,-y,-z
x,y,-z
-x,y,1/2+z
x,-y,1/2+z
1/2+x,1/2+y,z
1/2-x,1/2-y,z
1/2+x,1/2-y,1/2-z
1/2-x,1/2+y,1/2-z
1/2-x,1/2-y,-z
1/2+x,1/2+y,-z
1/2-x,1/2+y,1/2+z
1/2+x,1/2-y,1/2+z
loop_
_atom_site_type_symbol
_atom_site_label
_atom_site_fract_x
_atom_site_fract_y
_atom_site_fract_z
Si Si1 0.250000 0.250000 0.244004
Si Si2 0.933775 0.218511 0.885544
Si Si3 0.164629 0.982359 0.615695
Si Si4 0.844043 0.500000 0.750000
Si Si5 0.000000 0.405782 0.250000
Si Si6 0.893582 0.685198 0.114116
Si Si7 0.472058 0.411519 0.616746
O O1 0.156352 0.237404 0.315274
O O2 0.208849 0.299614 0.172620
O O3 0.958894 0.153750 0.857250
O O4 0.030805 0.260054 0.876997
O O5 0.903663 0.219711 0.000000
O O6 0.174793 0.977721 0.500000
O O7 0.270882 0.975677 0.667434
O O8 0.078175 0.938395 0.649900
O O9 0.118827 0.044935 0.639609
O O10 0.913586 0.551340 0.711656
O O11 0.048001 0.366067 0.167230
O O12 0.875264 0.674955 0.000000
O O13 0.477491 0.413187 0.500000
#
# Coordination Sequence:
#
# PCOD9498305 Si02
#       7
#     8  16  16   8   8  16  16
#     4  12  22  40  64 104 132 168 224 262 312 392
#     4  10  21  39  66 100 138 176 212 264 327 385
#     4   9  19  39  63  94 131 168 211 260 316 386
#     4  11  26  41  68  92 120 167 222 263 326 374
#     4  11  26  50  60  92 130 163 222 276 308 383
#     4  11  25  46  68  93 132 174 212 268 329 385
#     4   8  17  35  61  97 137 167 203 258 321 385
#
# _framework density 20.656026000000001
#
# number of rings (size 3 to 8) (size 9 to 14) (size 15 to 20)
#    0.000    2.000    1.818    1.636    2.545    4.364 
#    3.273    3.636    0.000    0.000    0.000    0.000 
#    0.000    0.000    0.000    0.000    0.000    0.000 
#
# Total GULP energy -245844.536982 kJ/mol
# GULP energy per Si atom -5587.375840 kJ/mol
# Density = 2.060901 g / cm^3
# Si number density = 20.656026 Si / 1000 Ang^3
#
#
#
# Elastic Constant Matrix: (Units=GPa)
#
#
# Indices 1 2 3 4 5 6 
#
# 1 57.3097 -8.8256 18.8562 0.0000 0.0000 0.0000
# 2 -8.8256 61.0714 -5.5025 0.0000 0.0000 0.0000
# 3 18.8562 -5.5025 119.2158 0.0000 0.0000 0.0000
# 4 0.0000 0.0000 0.0000 18.6464 0.0000 0.0000
# 5 0.0000 0.0000 0.0000 0.0000 24.8830 0.0000
# 6 0.0000 0.0000 0.0000 0.0000 0.0000 1.4247
#
#
#
# Elastic Compliance Matrix: (Units=1/GPa)
#
#
# Indices 1 2 3 4 5 6 
#
# 1 0.018766 0.002455 -0.002855 0.000000 0.000000 0.000000
# 2 0.002455 0.016764 0.000385 0.000000 0.000000 0.000000
# 3 -0.002855 0.000385 0.008858 0.000000 0.000000 0.000000
# 4 0.000000 0.000000 0.000000 0.053630 0.000000 0.000000
# 5 0.000000 0.000000 0.000000 0.000000 0.040188 0.000000
# 6 0.000000 0.000000 0.000000 0.000000 0.000000 0.701909
#
#
# Mechanical properties :
#
#
# Convention : Reuss Voigt Hill
#
# Bulk Modulus (GPa) = 22.54372 27.40590 24.97481
# Shear Modulus (GPa) = 5.84843 24.52874 15.18859
#
# Velocity S-wave (km/s) = 1.68449 3.44973 2.71460
# Velocity P-wave (km/s) = 3.83678 5.40038 4.68428
#
# Compressibility (1/GPa) = 0.04435826
#
# Stress axis : x y z
#
# Youngs Moduli (GPa) = 53.28661 59.65248 112.89854
#
# Poissons Ratio (x) = -0.14643 0.32232
# Poissons Ratio (y) = -0.13081 -0.04352
# Poissons Ratio (z) = 0.15213 -0.02299
#
# Static dielectric constant tensor:
#      x y z
#    x 1.713110 0.000000 0.000000 
#    y 0.000000 1.733620 0.000000 
#    z 0.000000 0.000000 1.753340 
# 
# From -- ./inp_files/26594.got.cif
#   From: 2010.05.17/outbox.cif.g08.bks.cpg/sg66_14_cif.got.tgz:26594.got - 2010.06.03 17:51:23.
