data_PCOD9498333
_publ_section_title
;
Structure prediction by ZEFSAII (Michael W. Deem and Ramdas Pophale) SiO2 
 PCOD9498333
Probable space group: C C C M
;
_chemical_formula_sum "Si O2"
_cell_formula_units_Z 88
_cell_length_a 17.593798
_cell_length_b 20.566606
_cell_length_c 11.367947
_cell_angle_alpha 90.000000
_cell_angle_beta 90.000000
_cell_angle_gamma 90.000000
_cell_volume 4113.431503
_symmetry_space_group_name_H-M "C C C M"
_symmetry_group_IT_number 66
_symmetry_cell_setting 'orthorhombic'
loop_
_space_group_symop_operation_xyz
x,y,z
-x,-y,z
x,-y,1/2-z
-x,y,1/2-z
-x,-y,-z
x,y,-z
-x,y,1/2+z
x,-y,1/2+z
1/2+x,1/2+y,z
1/2-x,1/2-y,z
1/2+x,1/2-y,1/2-z
1/2-x,1/2+y,1/2-z
1/2-x,1/2-y,-z
1/2+x,1/2+y,-z
1/2-x,1/2+y,1/2+z
1/2+x,1/2-y,1/2+z
loop_
_atom_site_type_symbol
_atom_site_label
_atom_site_fract_x
_atom_site_fract_y
_atom_site_fract_z
Si Si1 0.849181 0.319105 0.000000
Si Si2 0.687185 0.000000 0.250000
Si Si3 0.285703 0.179382 0.129281
Si Si4 0.410286 0.125518 0.744430
Si Si5 0.539999 0.429329 0.364844
Si Si6 0.814832 0.914858 0.715371
Si Si7 0.334748 0.666845 0.000000
O O1 0.883997 0.353493 0.885556
O O2 0.757655 0.327296 0.000000
O O3 0.863992 0.240976 0.000000
O O4 0.630981 0.941662 0.216189
O O5 0.751278 0.965921 0.333098
O O6 0.250000 0.250000 0.128714
O O7 0.372835 0.179035 0.170214
O O8 0.237517 0.138001 0.220166
O O9 0.279631 0.150250 0.000000
O O10 0.500000 0.120174 0.750000
O O11 0.500000 0.500000 0.373417
O O12 0.500000 0.395785 0.250000
O O13 0.539721 0.402428 0.500000
O O14 0.625533 0.437752 0.314512
O O15 0.856303 0.877023 0.611295
#
# Coordination Sequence:
#
# PCOD9498333 Si02
#       7
#     8   8  16  16  16  16   8
#     4  11  22  46  72  97 127 179 224 294 332 399
#     4  10  21  40  59  98 134 172 220 264 331 416
#     4  10  21  40  66  92 123 166 220 279 331 392
#     4  11  24  42  64  97 136 175 215 268 342 404
#     4  10  22  41  62  91 132 185 224 275 341 409
#     4  11  22  41  66  99 128 176 225 284 334 410
#     4  11  22  42  76 100 127 170 241 292 341 391
#
# _framework density 21.393329999999999
#
# number of rings (size 3 to 8) (size 9 to 14) (size 15 to 20)
#    0.000    1.455    3.636    3.000    2.545    0.000 
#   19.636    4.545    0.000    0.000    0.000    0.000 
#    0.000    0.000    0.000    0.000    0.000    0.000 
#
# Total GULP energy -245063.942940 kJ/mol
# GULP energy per Si atom -5569.635067 kJ/mol
# Density = 2.134464 g / cm^3
# Si number density = 21.393330 Si / 1000 Ang^3
#
#
#
# Elastic Constant Matrix: (Units=GPa)
#
#
# Indices 1 2 3 4 5 6 
#
# 1 136.1612 37.3025 33.1564 0.0000 0.0000 0.0000
# 2 37.3025 74.0114 30.8197 0.0000 0.0000 0.0000
# 3 33.1564 30.8197 151.3763 0.0000 0.0000 0.0000
# 4 0.0000 0.0000 0.0000 19.7387 0.0000 0.0000
# 5 0.0000 0.0000 0.0000 0.0000 3.7755 0.0000
# 6 0.0000 0.0000 0.0000 0.0000 0.0000 19.1033
#
#
#
# Elastic Compliance Matrix: (Units=1/GPa)
#
#
# Indices 1 2 3 4 5 6 
#
# 1 0.008687 -0.003918 -0.001105 0.000000 0.000000 0.000000
# 2 -0.003918 0.016530 -0.002507 0.000000 0.000000 0.000000
# 3 -0.001105 -0.002507 0.007359 0.000000 0.000000 0.000000
# 4 0.000000 0.000000 0.000000 0.050662 0.000000 0.000000
# 5 0.000000 0.000000 0.000000 0.000000 0.264864 0.000000
# 6 0.000000 0.000000 0.000000 0.000000 0.000000 0.052347
#
#
# Mechanical properties :
#
#
# Convention : Reuss Voigt Hill
#
# Bulk Modulus (GPa) = 57.09449 62.67846 59.88647
# Shear Modulus (GPa) = 11.86668 25.87485 18.87076
#
# Velocity S-wave (km/s) = 2.35774 3.48153 2.97322
# Velocity P-wave (km/s) = 5.84447 6.74709 6.31193
#
# Compressibility (1/GPa) = 0.01751483
#
# Stress axis : x y z
#
# Youngs Moduli (GPa) = 115.11868 60.49510 135.89619
#
# Poissons Ratio (x) = 0.23702 0.15016
# Poissons Ratio (y) = 0.45104 0.34073
# Poissons Ratio (z) = 0.12720 0.15168
#
# Static dielectric constant tensor:
#      x y z
#    x 1.803690 0.000000 0.000000 
#    y 0.000000 1.865370 0.000000 
#    z 0.000000 0.000000 1.853030 
# 
# From -- ./inp_files/17701.got.cif
#   From: 2010.05.17/outbox.cif.g08.bks.cpg/sg66_9_cif.got.tgz:17701.got - 2010.06.03 17:51:23.
