data_PCOD9498332
_publ_section_title
;
Structure prediction by ZEFSAII (Michael W. Deem and Ramdas Pophale) SiO2 
 PCOD9498332
Probable space group: C C C M
;
_chemical_formula_sum "Si O2"
_cell_formula_units_Z 96
_cell_length_a 10.404128
_cell_length_b 25.665116
_cell_length_c 18.266624
_cell_angle_alpha 90.000000
_cell_angle_beta 90.000000
_cell_angle_gamma 90.000000
_cell_volume 4877.611517
_symmetry_space_group_name_H-M "C C C M"
_symmetry_group_IT_number 66
_symmetry_cell_setting 'orthorhombic'
loop_
_space_group_symop_operation_xyz
x,y,z
-x,-y,z
x,-y,1/2-z
-x,y,1/2-z
-x,-y,-z
x,y,-z
-x,y,1/2+z
x,-y,1/2+z
1/2+x,1/2+y,z
1/2-x,1/2-y,z
1/2+x,1/2-y,1/2-z
1/2-x,1/2+y,1/2-z
1/2-x,1/2-y,-z
1/2+x,1/2+y,-z
1/2-x,1/2+y,1/2+z
1/2+x,1/2-y,1/2+z
loop_
_atom_site_type_symbol
_atom_site_label
_atom_site_fract_x
_atom_site_fract_y
_atom_site_fract_z
Si Si1 0.259786 0.444780 0.917470
Si Si2 0.967205 0.605826 0.167003
Si Si3 0.220557 0.690027 0.678900
Si Si4 0.613979 0.369790 0.799985
Si Si5 0.720456 0.931655 0.584826
Si Si6 0.431511 0.648087 0.417037
O O1 0.161539 0.423122 0.858331
O O2 0.250125 0.506753 0.913853
O O3 0.394549 0.413766 0.908779
O O4 0.216698 0.429912 0.000000
O O5 0.922759 0.666777 0.168365
O O6 0.000000 0.591252 0.250000
O O7 0.079585 0.586675 0.112851
O O8 0.250000 0.750000 0.693458
O O9 0.286587 0.658449 0.746182
O O10 0.299494 0.675881 0.605415
O O11 0.500000 0.393251 0.750000
O O12 0.686757 0.407417 0.854682
O O13 0.534708 0.334013 0.857155
O O14 0.739403 0.914784 0.500000
O O15 0.469891 0.657646 0.500000
#
# Coordination Sequence:
#
# PCOD9498332 Si02
#       6
#    16  16  16  16  16  16
#     4   9  20  37  58  86 122 165 196 233 302 371
#     4  11  21  37  57  89 121 155 202 251 298 356
#     4  10  22  41  64  83 114 159 202 248 313 369
#     4  10  21  40  58  85 117 157 201 249 300 354
#     4  11  22  38  61  89 126 162 196 244 302 359
#     4   9  19  38  61  86 116 149 198 249 292 360
#
# _framework density 19.681764000000001
#
# number of rings (size 3 to 8) (size 9 to 14) (size 15 to 20)
#    0.000    2.000    1.667    1.500    0.000    6.333 
#    0.000    6.667    0.000    1.000    0.000    0.000 
#    0.000    0.000    0.000    0.000    0.000    0.000 
#
# Total GULP energy -267279.117928 kJ/mol
# GULP energy per Si atom -5568.314957 kJ/mol
# Density = 1.963697 g / cm^3
# Si number density = 19.681764 Si / 1000 Ang^3
#
#
#
# Elastic Constant Matrix: (Units=GPa)
#
#
# Indices 1 2 3 4 5 6 
#
# 1 37.3646 11.9582 14.5784 0.0000 0.0000 0.0000
# 2 11.9582 79.7932 35.4358 0.0000 0.0000 0.0000
# 3 14.5784 35.4358 123.2567 0.0000 0.0000 0.0000
# 4 0.0000 0.0000 0.0000 13.9920 0.0000 0.0000
# 5 0.0000 0.0000 0.0000 0.0000 21.8859 0.0000
# 6 0.0000 0.0000 0.0000 0.0000 0.0000 13.0232
#
#
#
# Elastic Compliance Matrix: (Units=1/GPa)
#
#
# Indices 1 2 3 4 5 6 
#
# 1 0.028757 -0.003209 -0.002479 0.000000 0.000000 0.000000
# 2 -0.003209 0.014725 -0.003854 0.000000 0.000000 0.000000
# 3 -0.002479 -0.003854 0.009514 0.000000 0.000000 0.000000
# 4 0.000000 0.000000 0.000000 0.071469 0.000000 0.000000
# 5 0.000000 0.000000 0.000000 0.000000 0.045692 0.000000
# 6 0.000000 0.000000 0.000000 0.000000 0.000000 0.076786
#
#
# Mechanical properties :
#
#
# Convention : Reuss Voigt Hill
#
# Bulk Modulus (GPa) = 29.48677 40.48438 34.98558
# Shear Modulus (GPa) = 18.02901 21.67636 19.85269
#
# Velocity S-wave (km/s) = 3.02988 3.32225 3.17942
# Velocity P-wave (km/s) = 5.22058 5.94395 5.59397
#
# Compressibility (1/GPa) = 0.03391351
#
# Stress axis : x y z
#
# Youngs Moduli (GPa) = 34.77361 67.91290 105.10518
#
# Poissons Ratio (x) = 0.21793 0.26053
# Poissons Ratio (y) = 0.11159 0.40505
# Poissons Ratio (z) = 0.08620 0.26172
#
# Static dielectric constant tensor:
#      x y z
#    x 1.772160 0.000000 0.000000 
#    y 0.000000 1.725520 0.000000 
#    z 0.000000 0.000000 1.693560 
# 
# From -- ./inp_files/38872.got.cif
#   From: 2010.05.17/outbox.cif.g08.bks.cpg/sg66_20_cif.got.tgz:38872.got - 2010.06.03 17:51:23.
