data_PCOD9498583
_publ_section_title
;
Structure prediction by ZEFSAII (Michael W. Deem and Ramdas Pophale) SiO2 
 PCOD9498583
Probable space group: C C C M
;
_chemical_formula_sum "Si O2"
_cell_formula_units_Z 68
_cell_length_a 22.981200
_cell_length_b 9.232416
_cell_length_c 14.231350
_cell_angle_alpha 90.000000
_cell_angle_beta 90.000000
_cell_angle_gamma 90.000000
_cell_volume 3019.493972
_symmetry_space_group_name_H-M "C C C M"
_symmetry_group_IT_number 66
_symmetry_cell_setting 'orthorhombic'
loop_
_space_group_symop_operation_xyz
x,y,z
-x,-y,z
x,-y,1/2-z
-x,y,1/2-z
-x,-y,-z
x,y,-z
-x,y,1/2+z
x,-y,1/2+z
1/2+x,1/2+y,z
1/2-x,1/2-y,z
1/2+x,1/2-y,1/2-z
1/2-x,1/2+y,1/2-z
1/2-x,1/2-y,-z
1/2+x,1/2+y,-z
1/2-x,1/2+y,1/2+z
1/2+x,1/2-y,1/2+z
loop_
_atom_site_type_symbol
_atom_site_label
_atom_site_fract_x
_atom_site_fract_y
_atom_site_fract_z
Si Si1 0.522304 0.232877 0.892241
Si Si2 0.607680 0.688113 0.887868
Si Si3 0.194605 0.667801 0.267081
Si Si4 0.000000 0.500000 0.750000
Si Si5 0.645752 0.376526 0.108667
O O1 0.461069 0.307784 0.865161
O O2 0.577380 0.336105 0.890387
O O3 0.534398 0.103363 0.820653
O O4 0.515753 0.181036 0.000000
O O5 0.639690 0.818114 0.836030
O O6 0.642603 0.543240 0.858942
O O7 0.611977 0.697684 0.000000
O O8 0.207456 0.500000 0.250000
O O9 0.250000 0.750000 0.310234
O O10 0.178679 0.762222 0.174188
O O11 0.665931 0.369125 0.000000
#
# Coordination Sequence:
#
# PCOD9498583 Si02
#       5
#    16  16  16   4  16
#     4  10  22  37  61  95 133 172 212 252 309 385
#     4  10  22  42  68  96 129 169 213 262 316 377
#     4  12  27  45  66  92 126 167 216 268 321 381
#     4  12  22  32  50  86 136 176 200 252 312 356
#     4  10  22  42  68  96 129 169 213 262 316 377
#
# _framework density 22.520330000000001
#
# number of rings (size 3 to 8) (size 9 to 14) (size 15 to 20)
#    0.000    1.412    0.000    4.588    6.588    4.706 
#    0.000    3.529    0.000    0.000    0.000    0.000 
#    0.000    0.000    0.000    0.000    0.000    0.000 
#
# Total GULP energy -190092.530955 kJ/mol
# GULP energy per Si atom -5590.956793 kJ/mol
# Density = 2.246907 g / cm^3
# Si number density = 22.520330 Si / 1000 Ang^3
#
#
#
# Elastic Constant Matrix: (Units=GPa)
#
#
# Indices 1 2 3 4 5 6 
#
# 1 74.5944 10.8810 5.7536 0.0000 0.0000 0.0000
# 2 10.8810 118.0687 21.6940 0.0000 0.0000 0.0000
# 3 5.7536 21.6940 66.8051 0.0000 0.0000 0.0000
# 4 0.0000 0.0000 0.0000 15.0176 0.0000 0.0000
# 5 0.0000 0.0000 0.0000 0.0000 0.3922 0.0000
# 6 0.0000 0.0000 0.0000 0.0000 0.0000 23.7350
#
#
#
# Elastic Compliance Matrix: (Units=1/GPa)
#
#
# Indices 1 2 3 4 5 6 
#
# 1 0.013630 -0.001106 -0.000815 0.000000 0.000000 0.000000
# 2 -0.001106 0.009097 -0.002859 0.000000 0.000000 0.000000
# 3 -0.000815 -0.002859 0.015967 0.000000 0.000000 0.000000
# 4 0.000000 0.000000 0.000000 0.066588 0.000000 0.000000
# 5 0.000000 0.000000 0.000000 0.000000 2.549869 0.000000
# 6 0.000000 0.000000 0.000000 0.000000 0.000000 0.042132
#
#
# Mechanical properties :
#
#
# Convention : Reuss Voigt Hill
#
# Bulk Modulus (GPa) = 34.32333 37.34728 35.83531
# Shear Modulus (GPa) = 1.84057 22.57159 12.20608
#
# Velocity S-wave (km/s) = 0.90502 3.16931 2.33062
# Velocity P-wave (km/s) = 4.04552 5.47837 4.81553
#
# Compressibility (1/GPa) = 0.02913470
#
# Stress axis : x y z
#
# Youngs Moduli (GPa) = 73.36723 109.92764 62.62751
#
# Poissons Ratio (x) = 0.12163 0.05102
# Poissons Ratio (y) = 0.08118 0.17904
# Poissons Ratio (z) = 0.05976 0.31426
#
# Static dielectric constant tensor:
#      x y z
#    x 1.831990 0.000000 0.000000 
#    y 0.000000 1.849620 0.000000 
#    z 0.000000 0.000000 1.839190 
# 
# From -- ./inp_files/32946.got.cif
#   From: 2010.05.17/outbox.cif.g08.bks.cpg/sg66_17_cif.got.tgz:32946.got - 2010.06.03 17:51:23.
