data_PCOD9498021
_publ_section_title
;
Structure prediction by ZEFSAII (Michael W. Deem and Ramdas Pophale) SiO2 
 PCOD9498021
Probable space group: C C C M
;
_chemical_formula_sum "Si O2"
_cell_formula_units_Z 72
_cell_length_a 7.927971
_cell_length_b 15.727678
_cell_length_c 26.766542
_cell_angle_alpha 90.000000
_cell_angle_beta 90.000000
_cell_angle_gamma 90.000000
_cell_volume 3337.481982
_symmetry_space_group_name_H-M "C C C M"
_symmetry_group_IT_number 66
_symmetry_cell_setting 'orthorhombic'
loop_
_space_group_symop_operation_xyz
x,y,z
-x,-y,z
x,-y,1/2-z
-x,y,1/2-z
-x,-y,-z
x,y,-z
-x,y,1/2+z
x,-y,1/2+z
1/2+x,1/2+y,z
1/2-x,1/2-y,z
1/2+x,1/2-y,1/2-z
1/2-x,1/2+y,1/2-z
1/2-x,1/2-y,-z
1/2+x,1/2+y,-z
1/2-x,1/2+y,1/2+z
1/2+x,1/2-y,1/2+z
loop_
_atom_site_type_symbol
_atom_site_label
_atom_site_fract_x
_atom_site_fract_y
_atom_site_fract_z
Si Si1 0.362780 0.665717 0.356130
Si Si2 0.338386 0.844674 0.212881
Si Si3 0.036692 0.594394 0.614932
Si Si4 0.950967 0.242409 0.944022
Si Si5 0.000000 0.122967 0.250000
O O1 0.250000 0.750000 0.356510
O O2 0.226957 0.592556 0.363766
O O3 0.489457 0.676014 0.402032
O O4 0.446826 0.663278 0.302674
O O5 0.500000 0.843646 0.250000
O O6 0.250000 0.750000 0.212257
O O7 0.412029 0.873385 0.159361
O O8 0.188441 0.906970 0.232232
O O9 0.000000 0.500000 0.597497
O O10 0.023886 0.665901 0.572316
O O11 0.750000 0.250000 0.943025
O O12 0.006143 0.219820 0.000000
#
# Coordination Sequence:
#
# PCOD9498021 Si02
#       5
#    16  16  16  16   8
#     4  10  21  37  62  94 126 170 221 265 323 386
#     4  12  22  37  63  91 126 173 222 267 307 381
#     4  11  24  42  62  95 139 169 213 274 333 399
#     4  10  22  43  69  95 123 166 227 282 324 391
#     4  12  20  36  61  92 129 172 214 266 314 378
#
# _framework density 21.573150999999999
#
# number of rings (size 3 to 8) (size 9 to 14) (size 15 to 20)
#    0.000    1.111    3.333    5.333    0.000    5.778 
#    0.000    5.556    0.000    2.667    0.000    0.000 
#    0.000    0.000    0.000    0.000    0.000    0.000 
#
# Total GULP energy -200726.010256 kJ/mol
# GULP energy per Si atom -5575.722507 kJ/mol
# Density = 2.152405 g / cm^3
# Si number density = 21.573151 Si / 1000 Ang^3
#
#
#
# Elastic Constant Matrix: (Units=GPa)
#
#
# Indices 1 2 3 4 5 6 
#
# 1 117.8367 -2.0845 34.2401 0.0000 0.0000 0.0000
# 2 -2.0845 44.1671 -2.2594 0.0000 0.0000 0.0000
# 3 34.2401 -2.2594 161.2162 0.0000 0.0000 0.0000
# 4 0.0000 0.0000 0.0000 10.9549 0.0000 0.0000
# 5 0.0000 0.0000 0.0000 0.0000 32.3370 0.0000
# 6 0.0000 0.0000 0.0000 0.0000 0.0000 3.4413
#
#
#
# Elastic Compliance Matrix: (Units=1/GPa)
#
#
# Indices 1 2 3 4 5 6 
#
# 1 0.009049 0.000329 -0.001917 0.000000 0.000000 0.000000
# 2 0.000329 0.022669 0.000248 0.000000 0.000000 0.000000
# 3 -0.001917 0.000248 0.006614 0.000000 0.000000 0.000000
# 4 0.000000 0.000000 0.000000 0.091284 0.000000 0.000000
# 5 0.000000 0.000000 0.000000 0.000000 0.030924 0.000000
# 6 0.000000 0.000000 0.000000 0.000000 0.000000 0.290591
#
#
# Mechanical properties :
#
#
# Convention : Reuss Voigt Hill
#
# Bulk Modulus (GPa) = 28.04945 42.55694 35.30319
# Shear Modulus (GPa) = 10.73662 28.90155 19.81909
#
# Velocity S-wave (km/s) = 2.23330 3.66416 3.03428
# Velocity P-wave (km/s) = 4.43626 6.13768 5.35498
#
# Compressibility (1/GPa) = 0.03565132
#
# Stress axis : x y z
#
# Youngs Moduli (GPa) = 110.50618 44.11213 151.20503
#
# Poissons Ratio (x) = -0.01451 0.28991
# Poissons Ratio (y) = -0.03636 -0.03747
# Poissons Ratio (z) = 0.21188 -0.01093
#
# Static dielectric constant tensor:
#      x y z
#    x 1.906060 0.000000 0.000000 
#    y 0.000000 1.880730 0.000000 
#    z 0.000000 0.000000 1.762930 
# 
# From -- ./inp_files/62324.got.cif
#   From: 2010.05.17/outbox.cif.g08.bks.cpg/sg66_32_cif.got.tgz:62324.got - 2010.06.03 17:51:23.
