data_PCOD9498518
_publ_section_title
;
Structure prediction by ZEFSAII (Michael W. Deem and Ramdas Pophale) SiO2 
 PCOD9498518
Probable space group: C C C M
;
_chemical_formula_sum "Si O2"
_cell_formula_units_Z 52
_cell_length_a 21.375397
_cell_length_b 4.821081
_cell_length_c 18.720185
_cell_angle_alpha 90.000000
_cell_angle_beta 90.000000
_cell_angle_gamma 90.000000
_cell_volume 1929.162246
_symmetry_space_group_name_H-M "C C C M"
_symmetry_group_IT_number 66
_symmetry_cell_setting 'orthorhombic'
loop_
_space_group_symop_operation_xyz
x,y,z
-x,-y,z
x,-y,1/2-z
-x,y,1/2-z
-x,-y,-z
x,y,-z
-x,y,1/2+z
x,-y,1/2+z
1/2+x,1/2+y,z
1/2-x,1/2-y,z
1/2+x,1/2-y,1/2-z
1/2-x,1/2+y,1/2-z
1/2-x,1/2-y,-z
1/2+x,1/2+y,-z
1/2-x,1/2+y,1/2+z
1/2+x,1/2-y,1/2+z
loop_
_atom_site_type_symbol
_atom_site_label
_atom_site_fract_x
_atom_site_fract_y
_atom_site_fract_z
Si Si1 0.000000 0.000000 0.250000
Si Si2 0.072383 0.433022 0.500000
Si Si3 0.182713 0.881812 0.662230
Si Si4 0.100964 0.338345 0.660001
Si Si5 0.817346 0.882354 0.000000
O O1 0.957680 0.791674 0.297746
O O2 0.083663 0.290405 0.576545
O O3 0.122700 0.681578 0.500000
O O4 0.000000 0.500000 0.500000
O O5 0.250000 0.750000 0.678633
O O6 0.126277 0.654481 0.663442
O O7 0.186454 0.999651 0.579796
O O8 0.159199 0.169731 0.694822
O O9 0.750000 0.750000 0.000000
#
# Coordination Sequence:
#
# PCOD9498518 Si02
#       5
#     4   8  16  16   8
#     4  12  32  48  72 102 156 204 248 300 372 448
#     4  10  23  43  73 111 145 191 242 308 362 446
#     4  10  21  43  73 106 143 184 241 299 363 435
#     4  11  26  45  71 108 146 192 240 299 369 434
#     4   8  17  34  63 103 142 179 219 294 364 427
#
# _framework density 26.954702999999999
#
# number of rings (size 3 to 8) (size 9 to 14) (size 15 to 20)
#    0.000    1.846    0.000    1.846    8.615    3.077 
#    0.000   12.308    0.000    0.000    0.000    0.000 
#    0.000    0.000    0.000    0.000    0.000    0.000 
#
# Total GULP energy -144965.101540 kJ/mol
# GULP energy per Si atom -5575.580828 kJ/mol
# Density = 2.689335 g / cm^3
# Si number density = 26.954703 Si / 1000 Ang^3
#
#
#
# Elastic Constant Matrix: (Units=GPa)
#
#
# Indices 1 2 3 4 5 6 
#
# 1 205.6814 33.4569 28.6396 0.0000 0.0000 0.0000
# 2 33.4569 68.2670 31.1277 0.0000 0.0000 0.0000
# 3 28.6396 31.1277 154.1131 0.0000 0.0000 0.0000
# 4 0.0000 0.0000 0.0000 9.3750 0.0000 0.0000
# 5 0.0000 0.0000 0.0000 0.0000 37.2368 0.0000
# 6 0.0000 0.0000 0.0000 0.0000 0.0000 48.0446
#
#
#
# Elastic Compliance Matrix: (Units=1/GPa)
#
#
# Indices 1 2 3 4 5 6 
#
# 1 0.005319 -0.002375 -0.000509 0.000000 0.000000 0.000000
# 2 -0.002375 0.017195 -0.003032 0.000000 0.000000 0.000000
# 3 -0.000509 -0.003032 0.007196 0.000000 0.000000 0.000000
# 4 0.000000 0.000000 0.000000 0.106667 0.000000 0.000000
# 5 0.000000 0.000000 0.000000 0.000000 0.026855 0.000000
# 6 0.000000 0.000000 0.000000 0.000000 0.000000 0.020814
#
#
# Mechanical properties :
#
#
# Convention : Reuss Voigt Hill
#
# Bulk Modulus (GPa) = 55.93229 68.27887 62.10558
# Shear Modulus (GPa) = 24.77265 41.25378 33.01321
#
# Velocity S-wave (km/s) = 3.03487 3.91639 3.50346
# Velocity P-wave (km/s) = 5.75118 6.77028 6.28143
#
# Compressibility (1/GPa) = 0.01787876
#
# Stress axis : x y z
#
# Youngs Moduli (GPa) = 188.00427 58.15790 138.97347
#
# Poissons Ratio (x) = 0.13811 0.07071
# Poissons Ratio (y) = 0.44647 0.42132
# Poissons Ratio (z) = 0.09566 0.17631
#
# Static dielectric constant tensor:
#      x y z
#    x 2.027650 0.000000 0.000000 
#    y 0.000000 2.125750 0.000000 
#    z 0.000000 0.000000 2.044450 
# 
# From -- ./inp_files/51484.got.cif
#   From: 2010.05.17/outbox.cif.g08.bks.cpg/sg66_26_cif.got.tgz:51484.got - 2010.06.03 17:51:23.
