data_PCOD9498382
_publ_section_title
;
Structure prediction by ZEFSAII (Michael W. Deem and Ramdas Pophale) SiO2 
 PCOD9498382
Probable space group: C C C M
;
_chemical_formula_sum "Si O2"
_cell_formula_units_Z 80
_cell_length_a 14.600451
_cell_length_b 14.593502
_cell_length_c 19.356378
_cell_angle_alpha 90.000000
_cell_angle_beta 90.000000
_cell_angle_gamma 90.000000
_cell_volume 4124.296577
_symmetry_space_group_name_H-M "C C C M"
_symmetry_group_IT_number 66
_symmetry_cell_setting 'orthorhombic'
loop_
_space_group_symop_operation_xyz
x,y,z
-x,-y,z
x,-y,1/2-z
-x,y,1/2-z
-x,-y,-z
x,y,-z
-x,y,1/2+z
x,-y,1/2+z
1/2+x,1/2+y,z
1/2-x,1/2-y,z
1/2+x,1/2-y,1/2-z
1/2-x,1/2+y,1/2-z
1/2-x,1/2-y,-z
1/2+x,1/2+y,-z
1/2-x,1/2+y,1/2+z
1/2+x,1/2-y,1/2+z
loop_
_atom_site_type_symbol
_atom_site_label
_atom_site_fract_x
_atom_site_fract_y
_atom_site_fract_z
Si Si1 0.733535 0.523059 0.829615
Si Si2 0.468557 0.402744 0.829780
Si Si3 0.318772 0.835402 0.577223
Si Si4 0.788320 0.647352 0.418598
Si Si5 0.025727 0.265224 0.578606
O O1 0.749430 0.500000 0.750000
O O2 0.640725 0.584128 0.833248
O O3 0.807109 0.587624 0.865748
O O4 0.736903 0.428067 0.872548
O O5 0.500000 0.500000 0.859248
O O6 0.500000 0.396983 0.750000
O O7 0.515322 0.320834 0.870960
O O8 0.295138 0.870733 0.500000
O O9 0.250000 0.750000 0.589481
O O10 0.423645 0.804928 0.576756
O O11 0.779439 0.624284 0.500000
O O12 0.750000 0.750000 0.407888
O O13 0.896487 0.661050 0.401568
O O14 0.049918 0.235388 0.500000
#
# Coordination Sequence:
#
# PCOD9498382 Si02
#       5
#    16  16  16  16  16
#     4  12  24  39  63  93 128 167 210 259 316 376
#     4  11  22  38  60  90 126 162 208 260 314 378
#     4  10  21  40  66  94 125 163 214 266 314 374
#     4  10  23  42  64  92 128 167 210 261 319 378
#     4  10  22  41  65  93 124 163 210 264 319 372
#
# _framework density 19.397247
#
# number of rings (size 3 to 8) (size 9 to 14) (size 15 to 20)
#    0.000    1.400    4.000    1.800    0.000    4.400 
#    0.000    4.000    0.000    0.000    0.000    0.000 
#    0.000    0.000    0.000    0.000    0.000    0.000 
#
# Total GULP energy -223117.982723 kJ/mol
# GULP energy per Si atom -5577.949568 kJ/mol
# Density = 1.935310 g / cm^3
# Si number density = 19.397247 Si / 1000 Ang^3
#
#
#
# Elastic Constant Matrix: (Units=GPa)
#
#
# Indices 1 2 3 4 5 6 
#
# 1 81.7940 5.2912 14.4561 0.0000 0.0000 0.0000
# 2 5.2912 44.5554 43.3697 0.0000 0.0000 0.0000
# 3 14.4561 43.3697 92.0510 0.0000 0.0000 0.0000
# 4 0.0000 0.0000 0.0000 79.3444 0.0000 0.0000
# 5 0.0000 0.0000 0.0000 0.0000 -1.2427 0.0000
# 6 0.0000 0.0000 0.0000 0.0000 0.0000 26.4470
#
#
#
# Elastic Compliance Matrix: (Units=1/GPa)
#
#
# Indices 1 2 3 4 5 6 
#
# 1 0.012590 0.000793 -0.002351 0.000000 0.000000 0.000000
# 2 0.000793 0.041506 -0.019680 0.000000 0.000000 0.000000
# 3 -0.002351 -0.019680 0.020505 0.000000 0.000000 0.000000
# 4 0.000000 0.000000 0.000000 0.012603 0.000000 0.000000
# 5 0.000000 0.000000 0.000000 0.000000 -0.804678 0.000000
# 6 0.000000 0.000000 0.000000 0.000000 0.000000 0.037812
#
#
# Mechanical properties :
#
#
# Convention : Reuss Voigt Hill
#
# Bulk Modulus (GPa) = 31.12790 38.29272 34.71031
# Shear Modulus (GPa) = -7.98113 31.26194 11.64040
#
# Velocity S-wave (km/s) = -2.03064 4.01891 2.45236
# Velocity P-wave (km/s) = 3.25337 6.42804 5.09432
#
# Compressibility (1/GPa) = 0.03212552
#
# Stress axis : x y z
#
# Youngs Moduli (GPa) = 79.42797 24.09276 48.76849
#
# Poissons Ratio (x) = -0.01911 0.11465
# Poissons Ratio (y) = -0.06300 0.95977
# Poissons Ratio (z) = 0.18673 0.47415
#
# Static dielectric constant tensor:
#      x y z
#    x 1.745400 0.000000 0.000000 
#    y 0.000000 1.671380 0.000000 
#    z 0.000000 0.000000 1.662930 
# 
# From -- ./inp_files/49763.got.cif
#   From: 2010.05.17/outbox.cif.g08.bks.cpg/sg66_25_cif.got.tgz:49763.got - 2010.06.03 17:51:23.
