data_PCOD9498230
_publ_section_title
;
Structure prediction by ZEFSAII (Michael W. Deem and Ramdas Pophale) SiO2 
 PCOD9498230
Probable space group: C C C M
;
_chemical_formula_sum "Si O2"
_cell_formula_units_Z 104
_cell_length_a 24.530156
_cell_length_b 18.973731
_cell_length_c 9.585841
_cell_angle_alpha 90.000000
_cell_angle_beta 90.000000
_cell_angle_gamma 90.000000
_cell_volume 4461.524378
_symmetry_space_group_name_H-M "C C C M"
_symmetry_group_IT_number 66
_symmetry_cell_setting 'orthorhombic'
loop_
_space_group_symop_operation_xyz
x,y,z
-x,-y,z
x,-y,1/2-z
-x,y,1/2-z
-x,-y,-z
x,y,-z
-x,y,1/2+z
x,-y,1/2+z
1/2+x,1/2+y,z
1/2-x,1/2-y,z
1/2+x,1/2-y,1/2-z
1/2-x,1/2+y,1/2-z
1/2-x,1/2-y,-z
1/2+x,1/2+y,-z
1/2-x,1/2+y,1/2+z
1/2+x,1/2-y,1/2+z
loop_
_atom_site_type_symbol
_atom_site_label
_atom_site_fract_x
_atom_site_fract_y
_atom_site_fract_z
Si Si1 0.326164 0.260849 0.657934
Si Si2 0.089945 0.062439 0.662666
Si Si3 0.049054 0.221696 0.346505
Si Si4 0.196964 0.107900 0.833334
Si Si5 0.299455 0.100562 0.341558
Si Si6 0.509732 0.870788 0.000000
Si Si7 0.425147 0.082843 0.260892
O O1 0.321572 0.293886 0.500000
O O2 0.390943 0.248929 0.677449
O O3 0.307586 0.310734 0.782647
O O4 0.297680 0.186037 0.653161
O O5 0.099030 0.043588 0.500000
O O6 0.058315 0.136964 0.661216
O O7 0.145867 0.075916 0.747959
O O8 0.062322 0.000000 0.750000
O O9 0.029610 0.244091 0.500000
O O10 0.000000 0.241114 0.250000
O O11 0.253230 0.079466 0.768665
O O12 0.192886 0.099896 0.000000
O O13 0.289010 0.074808 0.500000
O O14 0.360852 0.084321 0.295964
O O15 0.557673 0.877597 0.878849
O O16 0.537847 0.115417 0.880852
O O17 0.439192 0.000000 0.250000
#
# Coordination Sequence:
#
# PCOD9498230 Si02
#       7
#    16  16  16  16  16   8  16
#     4   9  20  41  61  81 113 158 197 235 296 359
#     4  10  21  39  62  88 119 157 198 236 291 351
#     4   9  19  36  57  83 117 154 191 236 286 343
#     4  11  23  39  61  85 118 154 194 242 293 348
#     4  11  23  39  59  88 116 151 197 244 299 354
#     4  10  21  40  62  80 112 158 196 232 285 354
#     4  11  21  38  61  85 114 153 195 238 292 348
#
# _framework density 23.310419
#
# number of rings (size 3 to 8) (size 9 to 14) (size 15 to 20)
#    0.000    1.846    0.769    5.077    1.077    6.462 
#    2.769    3.077    0.000    0.000    0.000    0.000 
#    0.000    0.000    0.000    0.000    0.000    0.000 
#
# Total GULP energy -289929.724092 kJ/mol
# GULP energy per Si atom -5575.571617 kJ/mol
# Density = 2.325736 g / cm^3
# Si number density = 23.310419 Si / 1000 Ang^3
#
#
#
# Elastic Constant Matrix: (Units=GPa)
#
#
# Indices 1 2 3 4 5 6 
#
# 1 135.7049 -18.7717 81.9471 0.0000 0.0000 0.0000
# 2 -18.7717 41.9398 24.3710 0.0000 0.0000 0.0000
# 3 81.9471 24.3710 242.6045 0.0000 0.0000 0.0000
# 4 0.0000 0.0000 0.0000 6.5893 0.0000 0.0000
# 5 0.0000 0.0000 0.0000 0.0000 32.7398 0.0000
# 6 0.0000 0.0000 0.0000 0.0000 0.0000 -6.7933
#
#
#
# Elastic Compliance Matrix: (Units=1/GPa)
#
#
# Indices 1 2 3 4 5 6 
#
# 1 0.011166 0.007635 -0.004539 0.000000 0.000000 0.000000
# 2 0.007635 0.030543 -0.005647 0.000000 0.000000 0.000000
# 3 -0.004539 -0.005647 0.006222 0.000000 0.000000 0.000000
# 4 0.000000 0.000000 0.000000 0.151761 0.000000 0.000000
# 5 0.000000 0.000000 0.000000 0.000000 0.030544 0.000000
# 6 0.000000 0.000000 0.000000 0.000000 0.000000 -0.147204
#
#
# Mechanical properties :
#
#
# Convention : Reuss Voigt Hill
#
# Bulk Modulus (GPa) = 23.34862 66.14912 44.74887
# Shear Modulus (GPa) = 48.82378 28.68733 38.75555
#
# Velocity S-wave (km/s) = 4.58154 3.51189 4.08190
# Velocity P-wave (km/s) = 6.16648 6.69952 6.43852
#
# Compressibility (1/GPa) = 0.04282908
#
# Stress axis : x y z
#
# Youngs Moduli (GPa) = 89.55997 32.74122 160.71359
#
# Poissons Ratio (x) = -0.24998 0.72940
# Poissons Ratio (y) = -0.68379 0.90757
# Poissons Ratio (z) = 0.40647 0.18489
#
# Static dielectric constant tensor:
#      x y z
#    x 1.870560 0.000000 0.000000 
#    y 0.000000 1.927840 0.000000 
#    z 0.000000 0.000000 2.109780 
# 
# From -- ./inp_files/10527.got.cif
#   From: 2010.05.17/outbox.cif.g08.bks.cpg/sg66_6_cif.got.tgz:10527.got - 2010.06.03 17:51:23.
