data_PCOD9498351
_publ_section_title
;
Structure prediction by ZEFSAII (Michael W. Deem and Ramdas Pophale) SiO2 
 PCOD9498351
Probable space group: C C C M
;
_chemical_formula_sum "Si O2"
_cell_formula_units_Z 88
_cell_length_a 12.073295
_cell_length_b 21.317214
_cell_length_c 16.437131
_cell_angle_alpha 90.000000
_cell_angle_beta 90.000000
_cell_angle_gamma 90.000000
_cell_volume 4230.408185
_symmetry_space_group_name_H-M "C C C M"
_symmetry_group_IT_number 66
_symmetry_cell_setting 'orthorhombic'
loop_
_space_group_symop_operation_xyz
x,y,z
-x,-y,z
x,-y,1/2-z
-x,y,1/2-z
-x,-y,-z
x,y,-z
-x,y,1/2+z
x,-y,1/2+z
1/2+x,1/2+y,z
1/2-x,1/2-y,z
1/2+x,1/2-y,1/2-z
1/2-x,1/2+y,1/2-z
1/2-x,1/2-y,-z
1/2+x,1/2+y,-z
1/2-x,1/2+y,1/2+z
1/2+x,1/2-y,1/2+z
loop_
_atom_site_type_symbol
_atom_site_label
_atom_site_fract_x
_atom_site_fract_y
_atom_site_fract_z
Si Si1 0.250000 0.250000 0.297566
Si Si2 0.890216 0.034933 0.405468
Si Si3 0.027955 0.265262 0.403707
Si Si4 0.490645 0.905881 0.403631
Si Si5 0.677634 0.010680 0.843913
Si Si6 0.395286 0.339249 0.191293
O O1 0.143366 0.264819 0.353856
O O2 0.295255 0.306891 0.241061
O O3 0.904765 0.051690 0.500000
O O4 0.789178 0.987201 0.394661
O O5 0.864536 0.097111 0.354417
O O6 0.000000 0.000000 0.376133
O O7 0.048837 0.258172 0.500000
O O8 0.972028 0.332884 0.389080
O O9 0.946443 0.211670 0.371030
O O10 0.508215 0.915316 0.500000
O O11 0.393195 0.951377 0.375481
O O12 0.599778 0.929639 0.357253
O O13 0.703043 0.000000 0.750000
O O14 0.500000 0.353047 0.250000
#
# Coordination Sequence:
#
# PCOD9498351 Si02
#       6
#     8  16  16  16  16  16
#     4  10  23  40  63  98 128 164 214 274 323 386
#     4  11  26  45  65  90 128 173 217 261 315 385
#     4  10  22  41  66  92 129 172 214 265 324 391
#     4  10  21  40  63  92 127 164 210 260 321 382
#     4  11  24  37  63  93 127 165 207 264 317 379
#     4  10  24  41  64  94 128 165 214 267 316 376
#
# _framework density 20.801774999999999
#
# number of rings (size 3 to 8) (size 9 to 14) (size 15 to 20)
#    0.000    1.636    0.000    4.091    7.636    4.364 
#    0.000    4.545    0.000    0.000    0.000    0.000 
#    0.000    0.000    0.000    0.000    0.000    0.000 
#
# Total GULP energy -246022.079479 kJ/mol
# GULP energy per Si atom -5591.410897 kJ/mol
# Density = 2.075443 g / cm^3
# Si number density = 20.801775 Si / 1000 Ang^3
#
#
#
# Elastic Constant Matrix: (Units=GPa)
#
#
# Indices 1 2 3 4 5 6 
#
# 1 82.8028 3.1214 4.7926 0.0000 0.0000 0.0000
# 2 3.1214 36.8508 29.0562 0.0000 0.0000 0.0000
# 3 4.7926 29.0562 78.6380 0.0000 0.0000 0.0000
# 4 0.0000 0.0000 0.0000 50.4788 0.0000 0.0000
# 5 0.0000 0.0000 0.0000 0.0000 26.3638 0.0000
# 6 0.0000 0.0000 0.0000 0.0000 0.0000 14.6505
#
#
#
# Elastic Compliance Matrix: (Units=1/GPa)
#
#
# Indices 1 2 3 4 5 6 
#
# 1 0.012130 -0.000627 -0.000507 0.000000 0.000000 0.000000
# 2 -0.000627 0.038325 -0.014123 0.000000 0.000000 0.000000
# 3 -0.000507 -0.014123 0.017966 0.000000 0.000000 0.000000
# 4 0.000000 0.000000 0.000000 0.019810 0.000000 0.000000
# 5 0.000000 0.000000 0.000000 0.000000 0.037931 0.000000
# 6 0.000000 0.000000 0.000000 0.000000 0.000000 0.068257
#
#
# Mechanical properties :
#
#
# Convention : Reuss Voigt Hill
#
# Bulk Modulus (GPa) = 26.38118 30.24800 28.31459
# Shear Modulus (GPa) = 21.04655 29.05339 25.04997
#
# Velocity S-wave (km/s) = 3.18428 3.74127 3.47396
# Velocity P-wave (km/s) = 5.12145 5.76502 5.45274
#
# Compressibility (1/GPa) = 0.03790580
#
# Stress axis : x y z
#
# Youngs Moduli (GPa) = 82.44086 26.09259 55.66181
#
# Poissons Ratio (x) = 0.01637 0.02825
# Poissons Ratio (y) = 0.05172 0.78609
# Poissons Ratio (z) = 0.04184 0.36850
#
# Static dielectric constant tensor:
#      x y z
#    x 1.717240 0.000000 0.000000 
#    y 0.000000 1.713300 0.000000 
#    z 0.000000 0.000000 1.733860 
# 
# From -- ./inp_files/26515.got.cif
#   From: 2010.05.17/outbox.cif.g08.bks.cpg/sg66_14_cif.got.tgz:26515.got - 2010.06.03 17:51:23.
