data_PCOD9498091
_publ_section_title
;
Structure prediction by ZEFSAII (Michael W. Deem and Ramdas Pophale) SiO2 
 PCOD9498091
Probable space group: C C C M
;
_chemical_formula_sum "Si O2"
_cell_formula_units_Z 68
_cell_length_a 7.660546
_cell_length_b 26.130193
_cell_length_c 13.473915
_cell_angle_alpha 90.000000
_cell_angle_beta 90.000000
_cell_angle_gamma 90.000000
_cell_volume 2697.094389
_symmetry_space_group_name_H-M "C C C M"
_symmetry_group_IT_number 66
_symmetry_cell_setting 'orthorhombic'
loop_
_space_group_symop_operation_xyz
x,y,z
-x,-y,z
x,-y,1/2-z
-x,y,1/2-z
-x,-y,-z
x,y,-z
-x,y,1/2+z
x,-y,1/2+z
1/2+x,1/2+y,z
1/2-x,1/2-y,z
1/2+x,1/2-y,1/2-z
1/2-x,1/2+y,1/2-z
1/2-x,1/2-y,-z
1/2+x,1/2+y,-z
1/2-x,1/2+y,1/2+z
1/2+x,1/2-y,1/2+z
loop_
_atom_site_type_symbol
_atom_site_label
_atom_site_fract_x
_atom_site_fract_y
_atom_site_fract_z
Si Si1 0.846412 0.586361 0.608366
Si Si2 0.000000 0.500000 0.750000
Si Si3 0.550458 0.554061 0.109518
Si Si4 0.761273 0.808266 0.675747
Si Si5 0.343196 0.660317 0.618693
O O1 0.927848 0.578806 0.500000
O O2 0.901504 0.540192 0.679336
O O3 0.638288 0.579528 0.600344
O O4 0.864566 0.646138 0.637524
O O5 0.500000 0.500000 0.154354
O O6 0.669642 0.599657 0.150389
O O7 0.623524 0.542291 0.000000
O O8 0.750000 0.750000 0.640907
O O9 0.957382 0.823099 0.640763
O O10 0.741151 0.809792 0.795795
O O11 0.307405 0.665207 0.500000
#
# Coordination Sequence:
#
# PCOD9498091 Si02
#       5
#    16   4  16  16  16
#     4  10  23  42  60  85 121 162 204 248 303 369
#     4  12  26  40  58  90 128 172 206 248 292 390
#     4   8  15  31  59  87 111 141 180 235 305 358
#     4  10  21  38  60  86 117 160 209 254 304 371
#     4   9  19  35  56  89 120 145 193 258 309 357
#
# _framework density 25.212318
#
# number of rings (size 3 to 8) (size 9 to 14) (size 15 to 20)
#    0.000    2.588    0.000    2.471    3.294    4.235 
#    0.000    1.176    0.000    0.000    0.000    0.000 
#    0.000    0.000    0.000    0.000    0.000    0.000 
#
# Total GULP energy -189505.430862 kJ/mol
# GULP energy per Si atom -5573.689143 kJ/mol
# Density = 2.515493 g / cm^3
# Si number density = 25.212318 Si / 1000 Ang^3
#
#
#
# Elastic Constant Matrix: (Units=GPa)
#
#
# Indices 1 2 3 4 5 6 
#
# 1 22.6897 8.8010 9.9745 0.0000 0.0000 0.0000
# 2 8.8010 228.6407 46.3771 0.0000 0.0000 0.0000
# 3 9.9745 46.3771 154.5280 0.0000 0.0000 0.0000
# 4 0.0000 0.0000 0.0000 12.9546 0.0000 0.0000
# 5 0.0000 0.0000 0.0000 0.0000 6.7830 0.0000
# 6 0.0000 0.0000 0.0000 0.0000 0.0000 23.5686
#
#
#
# Elastic Compliance Matrix: (Units=1/GPa)
#
#
# Indices 1 2 3 4 5 6 
#
# 1 0.045685 -0.001236 -0.002578 0.000000 0.000000 0.000000
# 2 -0.001236 0.004691 -0.001328 0.000000 0.000000 0.000000
# 3 -0.002578 -0.001328 0.007036 0.000000 0.000000 0.000000
# 4 0.000000 0.000000 0.000000 0.077193 0.000000 0.000000
# 5 0.000000 0.000000 0.000000 0.000000 0.147428 0.000000
# 6 0.000000 0.000000 0.000000 0.000000 0.000000 0.042429
#
#
# Mechanical properties :
#
#
# Convention : Reuss Voigt Hill
#
# Bulk Modulus (GPa) = 21.21838 59.57371 40.39604
# Shear Modulus (GPa) = 14.26716 31.37496 22.82106
#
# Velocity S-wave (km/s) = 2.38141 3.53147 3.01184
# Velocity P-wave (km/s) = 3.99945 6.34890 5.30585
#
# Compressibility (1/GPa) = 0.04712896
#
# Stress axis : x y z
#
# Youngs Moduli (GPa) = 21.88881 213.19214 142.12037
#
# Poissons Ratio (x) = 0.26342 0.36640
# Poissons Ratio (y) = 0.02705 0.18873
# Poissons Ratio (z) = 0.05643 0.28312
#
# Static dielectric constant tensor:
#      x y z
#    x 2.010010 0.000000 0.000000 
#    y 0.000000 2.045970 0.000000 
#    z 0.000000 0.000000 2.056510 
# 
# From -- ./inp_files/26089.got.cif
#   From: 2010.05.17/outbox.cif.g08.bks.cpg/sg66_14_cif.got.tgz:26089.got - 2010.06.03 17:51:23.
