data_PCOD9498522
_publ_section_title
;
Structure prediction by ZEFSAII (Michael W. Deem and Ramdas Pophale) SiO2 
 PCOD9498522
Probable space group: C C C M
;
_chemical_formula_sum "Si O2"
_cell_formula_units_Z 84
_cell_length_a 19.468644
_cell_length_b 8.363448
_cell_length_c 25.275334
_cell_angle_alpha 90.000000
_cell_angle_beta 90.000000
_cell_angle_gamma 90.000000
_cell_volume 4115.456049
_symmetry_space_group_name_H-M "C C C M"
_symmetry_group_IT_number 66
_symmetry_cell_setting 'orthorhombic'
loop_
_space_group_symop_operation_xyz
x,y,z
-x,-y,z
x,-y,1/2-z
-x,y,1/2-z
-x,-y,-z
x,y,-z
-x,y,1/2+z
x,-y,1/2+z
1/2+x,1/2+y,z
1/2-x,1/2-y,z
1/2+x,1/2-y,1/2-z
1/2-x,1/2+y,1/2-z
1/2-x,1/2-y,-z
1/2+x,1/2+y,-z
1/2-x,1/2+y,1/2+z
1/2+x,1/2-y,1/2+z
loop_
_atom_site_type_symbol
_atom_site_label
_atom_site_fract_x
_atom_site_fract_y
_atom_site_fract_z
Si Si1 0.500000 0.500000 0.250000
Si Si2 0.396545 0.247279 0.211985
Si Si3 0.205942 0.988586 0.665423
Si Si4 0.652240 0.846385 0.677309
Si Si5 0.172786 0.182568 0.057996
Si Si6 0.924194 0.450663 0.606792
O O1 0.451950 0.387640 0.215749
O O2 0.325942 0.344473 0.199728
O O3 0.390091 0.159431 0.268152
O O4 0.422027 0.136045 0.164410
O O5 0.180760 0.939515 0.606651
O O6 0.286677 0.020171 0.676604
O O7 0.177737 0.164764 0.675616
O O8 0.613248 0.885109 0.622911
O O9 0.250000 0.250000 0.055440
O O10 0.120132 0.327735 0.071495
O O11 0.155258 0.115483 0.000000
O O12 0.000000 0.500000 0.588563
#
# Coordination Sequence:
#
# PCOD9498522 Si02
#       6
#     4  16  16  16  16  16
#     4  12  20  40  50  84 118 180 208 228 304 368
#     4  11  23  36  58  83 128 173 201 247 298 373
#     4  10  22  39  59  91 119 162 203 260 303 364
#     4  11  21  38  58  89 126 160 206 247 302 365
#     4  10  21  44  69  88 118 159 208 262 326 380
#     4  11  24  39  61  93 124 162 204 258 310 371
#
# _framework density 20.410862000000002
#
# number of rings (size 3 to 8) (size 9 to 14) (size 15 to 20)
#    0.000    1.333    3.810    1.714    0.000    7.238 
#    0.000    2.857    0.000    1.143    0.000    0.000 
#    0.000    0.000    0.000    0.000    0.000    0.000 
#
# Total GULP energy -234158.348782 kJ/mol
# GULP energy per Si atom -5575.198781 kJ/mol
# Density = 2.036441 g / cm^3
# Si number density = 20.410862 Si / 1000 Ang^3
#
#
#
# Elastic Constant Matrix: (Units=GPa)
#
#
# Indices 1 2 3 4 5 6 
#
# 1 95.7098 20.8719 9.8590 0.0000 0.0000 0.0000
# 2 20.8719 83.1835 18.5840 0.0000 0.0000 0.0000
# 3 9.8590 18.5840 101.7474 0.0000 0.0000 0.0000
# 4 0.0000 0.0000 0.0000 19.6145 0.0000 0.0000
# 5 0.0000 0.0000 0.0000 0.0000 45.9656 0.0000
# 6 0.0000 0.0000 0.0000 0.0000 0.0000 34.5518
#
#
#
# Elastic Compliance Matrix: (Units=1/GPa)
#
#
# Indices 1 2 3 4 5 6 
#
# 1 0.011087 -0.002650 -0.000590 0.000000 0.000000 0.000000
# 2 -0.002650 0.013166 -0.002148 0.000000 0.000000 0.000000
# 3 -0.000590 -0.002148 0.010278 0.000000 0.000000 0.000000
# 4 0.000000 0.000000 0.000000 0.050983 0.000000 0.000000
# 5 0.000000 0.000000 0.000000 0.000000 0.021755 0.000000
# 6 0.000000 0.000000 0.000000 0.000000 0.000000 0.028942
#
#
# Mechanical properties :
#
#
# Convention : Reuss Voigt Hill
#
# Bulk Modulus (GPa) = 42.09723 42.14118 42.11921
# Shear Modulus (GPa) = 32.27762 35.44811 33.86286
#
# Velocity S-wave (km/s) = 3.98099 4.17193 4.07758
# Velocity P-wave (km/s) = 6.46535 6.62555 6.54594
#
# Compressibility (1/GPa) = 0.02375453
#
# Stress axis : x y z
#
# Youngs Moduli (GPa) = 90.19605 75.95074 97.29718
#
# Poissons Ratio (x) = 0.20127 0.05743
# Poissons Ratio (y) = 0.23902 0.20900
# Poissons Ratio (z) = 0.05324 0.16315
#
# Static dielectric constant tensor:
#      x y z
#    x 1.852460 0.000000 0.000000 
#    y 0.000000 1.772950 0.000000 
#    z 0.000000 0.000000 1.755640 
# 
# From -- ./inp_files/59308.got.cif
#   From: 2010.05.17/outbox.cif.g08.bks.cpg/sg66_30_cif.got.tgz:59308.got - 2010.06.03 17:51:23.
