data_PCOD9498592
_publ_section_title
;
Structure prediction by ZEFSAII (Michael W. Deem and Ramdas Pophale) SiO2 
 PCOD9498592
Probable space group: C C C M
;
_chemical_formula_sum "Si O2"
_cell_formula_units_Z 40
_cell_length_a 19.748100
_cell_length_b 5.895990
_cell_length_c 14.960963
_cell_angle_alpha 90.000000
_cell_angle_beta 90.000000
_cell_angle_gamma 90.000000
_cell_volume 1741.973744
_symmetry_space_group_name_H-M "C C C M"
_symmetry_group_IT_number 66
_symmetry_cell_setting 'orthorhombic'
loop_
_space_group_symop_operation_xyz
x,y,z
-x,-y,z
x,-y,1/2-z
-x,y,1/2-z
-x,-y,-z
x,y,-z
-x,y,1/2+z
x,-y,1/2+z
1/2+x,1/2+y,z
1/2-x,1/2-y,z
1/2+x,1/2-y,1/2-z
1/2-x,1/2+y,1/2-z
1/2-x,1/2-y,-z
1/2+x,1/2+y,-z
1/2-x,1/2+y,1/2+z
1/2+x,1/2-y,1/2+z
loop_
_atom_site_type_symbol
_atom_site_label
_atom_site_fract_x
_atom_site_fract_y
_atom_site_fract_z
Si Si1 0.168375 0.714835 0.000000
Si Si2 0.061856 0.667095 0.500000
Si Si3 0.750000 0.750000 0.203033
Si Si4 0.614395 0.551273 0.147637
O O1 0.250000 0.750000 0.000000
O O2 0.139638 0.838342 0.089060
O O3 0.132334 0.472334 0.000000
O O4 0.059919 0.820314 0.411718
O O5 0.000000 0.500000 0.500000
O O6 0.756841 0.500000 0.250000
O O7 0.680438 0.712445 0.152108
O O8 0.595595 0.500000 0.250000
#
# Coordination Sequence:
#
# PCOD9498592 Si02
#       4
#     8   8   8  16
#     4  11  24  43  72 105 142 186 242 313 383 447
#     4  11  26  47  70 100 151 194 249 315 382 461
#     4  10  22  37  70 109 152 186 254 317 374 453
#     4  10  24  41  69 105 142 191 248 305 379 453
#
# _framework density 22.962458000000002
#
# number of rings (size 3 to 8) (size 9 to 14) (size 15 to 20)
#    0.000    1.600    0.000    2.400   22.400    6.400 
#    0.000    6.000    0.000    0.000    0.000    0.000 
#    0.000    0.000    0.000    0.000    0.000    0.000 
#
# Total GULP energy -111669.771219 kJ/mol
# GULP energy per Si atom -5583.488561 kJ/mol
# Density = 2.291019 g / cm^3
# Si number density = 22.962458 Si / 1000 Ang^3
#
#
#
# Elastic Constant Matrix: (Units=GPa)
#
#
# Indices 1 2 3 4 5 6 
#
# 1 71.4314 40.5590 49.0817 0.0000 0.0000 0.0000
# 2 40.5590 130.3979 87.3621 0.0000 0.0000 0.0000
# 3 49.0817 87.3621 233.8802 0.0000 0.0000 0.0000
# 4 0.0000 0.0000 0.0000 29.1033 0.0000 0.0000
# 5 0.0000 0.0000 0.0000 0.0000 -10.3638 0.0000
# 6 0.0000 0.0000 0.0000 0.0000 0.0000 57.8145
#
#
#
# Elastic Compliance Matrix: (Units=1/GPa)
#
#
# Indices 1 2 3 4 5 6 
#
# 1 0.017832 -0.004054 -0.002228 0.000000 0.000000 0.000000
# 2 -0.004054 0.011150 -0.003314 0.000000 0.000000 0.000000
# 3 -0.002228 -0.003314 0.005981 0.000000 0.000000 0.000000
# 4 0.000000 0.000000 0.000000 0.034360 0.000000 0.000000
# 5 0.000000 0.000000 0.000000 0.000000 -0.096489 0.000000
# 6 0.000000 0.000000 0.000000 0.000000 0.000000 0.017297
#
#
# Mechanical properties :
#
#
# Convention : Reuss Voigt Hill
#
# Bulk Modulus (GPa) = 63.40583 87.74611 75.57597
# Shear Modulus (GPa) = 342.92680 32.55791 187.74236
#
# Velocity S-wave (km/s) = 12.23383 3.76955 9.05196
# Velocity P-wave (km/s) = 15.07409 7.56584 11.92623
#
# Compressibility (1/GPa) = 0.01577142
#
# Stress axis : x y z
#
# Youngs Moduli (GPa) = 56.07863 89.68482 167.18984
#
# Poissons Ratio (x) = 0.36357 0.37249
# Poissons Ratio (y) = 0.22733 0.55411
# Poissons Ratio (z) = 0.12494 0.29724
#
# Static dielectric constant tensor:
#      x y z
#    x 1.814330 0.000000 0.000000 
#    y 0.000000 1.922220 0.000000 
#    z 0.000000 0.000000 1.884540 
# 
# From -- ./inp_files/22136.got.cif
#   From: 2010.05.17/outbox.cif.g08.bks.cpg/sg66_12_cif.got.tgz:22136.got - 2010.06.03 17:51:23.
