data_PCOD9498677
_publ_section_title
;
Structure prediction by ZEFSAII (Michael W. Deem and Ramdas Pophale) SiO2 
 PCOD9498677
Probable space group: C C C M
;
_chemical_formula_sum "Si O2"
_cell_formula_units_Z 64
_cell_length_a 5.127718
_cell_length_b 19.985769
_cell_length_c 27.182319
_cell_angle_alpha 90.000000
_cell_angle_beta 90.000000
_cell_angle_gamma 90.000000
_cell_volume 2785.681765
_symmetry_space_group_name_H-M "C C C M"
_symmetry_group_IT_number 66
_symmetry_cell_setting 'orthorhombic'
loop_
_space_group_symop_operation_xyz
x,y,z
-x,-y,z
x,-y,1/2-z
-x,y,1/2-z
-x,-y,-z
x,y,-z
-x,y,1/2+z
x,-y,1/2+z
1/2+x,1/2+y,z
1/2-x,1/2-y,z
1/2+x,1/2-y,1/2-z
1/2-x,1/2+y,1/2-z
1/2-x,1/2-y,-z
1/2+x,1/2+y,-z
1/2-x,1/2+y,1/2+z
1/2+x,1/2-y,1/2+z
loop_
_atom_site_type_symbol
_atom_site_label
_atom_site_fract_x
_atom_site_fract_y
_atom_site_fract_z
Si Si1 0.514821 0.794895 0.912613
Si Si2 0.316346 0.065553 0.447347
Si Si3 0.594707 0.818494 0.694450
Si Si4 0.730734 0.457455 0.160758
O O1 0.750000 0.750000 0.931817
O O2 0.471107 0.864669 0.940585
O O3 0.579463 0.815034 0.855415
O O4 0.250000 0.750000 0.914467
O O5 0.174093 0.068074 0.500000
O O6 0.162524 0.059326 0.396330
O O7 0.500000 0.000000 0.448225
O O8 0.500000 0.820848 0.750000
O O9 0.750000 0.750000 0.691420
O O10 0.748903 0.886784 0.686803
O O11 0.500000 0.500000 0.182880
O O12 0.000000 0.500000 0.162602
#
# Coordination Sequence:
#
# PCOD9498677 Si02
#       4
#    16  16  16  16
#     4  10  22  40  61  87 122 161 201 250 307 364
#     4   9  20  38  62  91 123 162 207 253 304 365
#     4  10  22  39  63  91 121 158 204 252 304 364
#     4  10  23  43  64  89 125 164 203 252 309 365
#
# _framework density 22.974627999999999
#
# number of rings (size 3 to 8) (size 9 to 14) (size 15 to 20)
#    0.000    2.250    0.000    0.750    0.000   22.000 
#    0.000    6.250    0.000    0.000    0.000    0.000 
#    0.000    0.000    0.000    0.000    0.000    0.000 
#
# Total GULP energy -178626.445239 kJ/mol
# GULP energy per Si atom -5582.076414 kJ/mol
# Density = 2.292234 g / cm^3
# Si number density = 22.974628 Si / 1000 Ang^3
#
#
#
# Elastic Constant Matrix: (Units=GPa)
#
#
# Indices 1 2 3 4 5 6 
#
# 1 79.0724 58.1596 5.8919 0.0000 0.0000 0.0000
# 2 58.1596 222.3830 43.1976 0.0000 0.0000 0.0000
# 3 5.8919 43.1976 103.4359 0.0000 0.0000 0.0000
# 4 0.0000 0.0000 0.0000 -64.2841 0.0000 0.0000
# 5 0.0000 0.0000 0.0000 0.0000 2.6828 0.0000
# 6 0.0000 0.0000 0.0000 0.0000 0.0000 41.4277
#
#
#
# Elastic Compliance Matrix: (Units=1/GPa)
#
#
# Indices 1 2 3 4 5 6 
#
# 1 0.015735 -0.004289 0.000895 0.000000 0.000000 0.000000
# 2 -0.004289 0.006063 -0.002288 0.000000 0.000000 0.000000
# 3 0.000895 -0.002288 0.010572 0.000000 0.000000 0.000000
# 4 0.000000 0.000000 0.000000 -0.015556 0.000000 0.000000
# 5 0.000000 0.000000 0.000000 0.000000 0.372748 0.000000
# 6 0.000000 0.000000 0.000000 0.000000 0.000000 0.024138
#
#
# Mechanical properties :
#
#
# Convention : Reuss Voigt Hill
#
# Bulk Modulus (GPa) = 47.60494 68.82104 58.21299
# Shear Modulus (GPa) = 11.57231 15.80810 13.69021
#
# Velocity S-wave (km/s) = 2.24676 2.62595 2.44372
# Velocity P-wave (km/s) = 5.24368 6.26214 5.77541
#
# Compressibility (1/GPa) = 0.02100622
#
# Stress axis : x y z
#
# Youngs Moduli (GPa) = 63.55456 164.94065 94.58733
#
# Poissons Ratio (x) = 0.70741 -0.08464
# Poissons Ratio (y) = 0.27258 0.21639
# Poissons Ratio (z) = -0.05687 0.37733
#
# Static dielectric constant tensor:
#      x y z
#    x 1.736460 0.000000 0.000000 
#    y 0.000000 1.578570 0.000000 
#    z 0.000000 0.000000 1.879180 
# 
# From -- ./inp_files/53972.got.cif
#   From: 2010.05.17/outbox.cif.g08.bks.cpg/sg66_27_cif.got.tgz:53972.got - 2010.06.03 17:51:23.
