data_PCOD9498050
_publ_section_title
;
Structure prediction by ZEFSAII (Michael W. Deem and Ramdas Pophale) SiO2 
 PCOD9498050
Probable space group: C C C M
;
_chemical_formula_sum "Si O2"
_cell_formula_units_Z 52
_cell_length_a 6.658521
_cell_length_b 18.739029
_cell_length_c 15.738478
_cell_angle_alpha 90.000000
_cell_angle_beta 90.000000
_cell_angle_gamma 90.000000
_cell_volume 1963.756287
_symmetry_space_group_name_H-M "C C C M"
_symmetry_group_IT_number 66
_symmetry_cell_setting 'orthorhombic'
loop_
_space_group_symop_operation_xyz
x,y,z
-x,-y,z
x,-y,1/2-z
-x,y,1/2-z
-x,-y,-z
x,y,-z
-x,y,1/2+z
x,-y,1/2+z
1/2+x,1/2+y,z
1/2-x,1/2-y,z
1/2+x,1/2-y,1/2-z
1/2-x,1/2+y,1/2-z
1/2-x,1/2-y,-z
1/2+x,1/2+y,-z
1/2-x,1/2+y,1/2+z
1/2+x,1/2-y,1/2+z
loop_
_atom_site_type_symbol
_atom_site_label
_atom_site_fract_x
_atom_site_fract_y
_atom_site_fract_z
Si Si1 0.734449 0.828932 0.727992
Si Si2 0.000000 0.000000 0.500000
Si Si3 0.112949 0.571835 0.904947
Si Si4 0.316550 0.634338 0.588341
O O1 0.500000 0.838720 0.750000
O O2 0.750000 0.750000 0.690655
O O3 0.761892 0.891979 0.660448
O O4 0.850797 0.833274 0.818270
O O5 0.099492 0.945164 0.573681
O O6 0.000000 0.500000 0.876625
O O7 0.925547 0.625281 0.915976
O O8 0.209625 0.558576 0.000000
O O9 0.382451 0.673324 0.500000
#
# Coordination Sequence:
#
# PCOD9498050 Si02
#       4
#    16   4  16  16
#     4  10  21  38  56  86 132 170 213 259 328 391
#     4   8  16  36  56  90 120 154 222 264 322 376
#     4   9  18  36  62  87 114 165 218 263 320 381
#     4   8  17  34  58  83 121 160 206 267 321 371
#
# _framework density 26.479863999999999
#
# number of rings (size 3 to 8) (size 9 to 14) (size 15 to 20)
#    0.923    2.154    0.000    0.000    0.000    6.769 
#    5.538    0.000    0.000    0.000    0.000    0.000 
#    0.000    0.000    0.000    0.000    0.000    0.000 
#
# Total GULP energy -144737.033856 kJ/mol
# GULP energy per Si atom -5566.808994 kJ/mol
# Density = 2.641959 g / cm^3
# Si number density = 26.479864 Si / 1000 Ang^3
#
#
#
# Elastic Constant Matrix: (Units=GPa)
#
#
# Indices 1 2 3 4 5 6 
#
# 1 90.2712 13.0680 22.0709 0.0000 0.0000 0.0000
# 2 13.0680 106.1738 102.2829 0.0000 0.0000 0.0000
# 3 22.0709 102.2829 203.6512 0.0000 0.0000 0.0000
# 4 0.0000 0.0000 0.0000 189.2785 0.0000 0.0000
# 5 0.0000 0.0000 0.0000 0.0000 38.1497 0.0000
# 6 0.0000 0.0000 0.0000 0.0000 0.0000 45.5015
#
#
#
# Elastic Compliance Matrix: (Units=1/GPa)
#
#
# Indices 1 2 3 4 5 6 
#
# 1 0.011389 -0.000412 -0.001027 0.000000 0.000000 0.000000
# 2 -0.000412 0.018262 -0.009127 0.000000 0.000000 0.000000
# 3 -0.001027 -0.009127 0.009606 0.000000 0.000000 0.000000
# 4 0.000000 0.000000 0.000000 0.005283 0.000000 0.000000
# 5 0.000000 0.000000 0.000000 0.000000 0.026212 0.000000
# 6 0.000000 0.000000 0.000000 0.000000 0.000000 0.021977
#
#
# Mechanical properties :
#
#
# Convention : Reuss Voigt Hill
#
# Bulk Modulus (GPa) = 55.17840 74.99331 65.08585
# Shear Modulus (GPa) = 41.69994 72.09758 56.89876
#
# Velocity S-wave (km/s) = 3.97265 5.22364 4.64050
# Velocity P-wave (km/s) = 6.47501 8.04763 7.30377
#
# Compressibility (1/GPa) = 0.01812304
#
# Stress axis : x y z
#
# Youngs Moduli (GPa) = 87.80748 54.75797 104.10271
#
# Poissons Ratio (x) = 0.02257 0.10694
# Poissons Ratio (y) = 0.03618 0.95019
# Poissons Ratio (z) = 0.09020 0.49980
#
# Static dielectric constant tensor:
#      x y z
#    x 1.957890 0.000000 0.000000 
#    y 0.000000 1.999660 0.000000 
#    z 0.000000 0.000000 2.210600 
# 
# From -- ./inp_files/23756.got.cif
#   From: 2010.05.17/outbox.cif.g08.bks.cpg/sg66_12_cif.got.tgz:23756.got - 2010.06.03 17:51:23.
