data_PCOD9498171
_publ_section_title
;
Structure prediction by ZEFSAII (Michael W. Deem and Ramdas Pophale) SiO2 
 PCOD9498171
Probable space group: C C C M
;
_chemical_formula_sum "Si O2"
_cell_formula_units_Z 68
_cell_length_a 20.850953
_cell_length_b 9.343052
_cell_length_c 14.536918
_cell_angle_alpha 90.000000
_cell_angle_beta 90.000000
_cell_angle_gamma 90.000000
_cell_volume 2831.959355
_symmetry_space_group_name_H-M "C C C M"
_symmetry_group_IT_number 66
_symmetry_cell_setting 'orthorhombic'
loop_
_space_group_symop_operation_xyz
x,y,z
-x,-y,z
x,-y,1/2-z
-x,y,1/2-z
-x,-y,-z
x,y,-z
-x,y,1/2+z
x,-y,1/2+z
1/2+x,1/2+y,z
1/2-x,1/2-y,z
1/2+x,1/2-y,1/2-z
1/2-x,1/2+y,1/2-z
1/2-x,1/2-y,-z
1/2+x,1/2+y,-z
1/2-x,1/2+y,1/2+z
1/2+x,1/2-y,1/2+z
loop_
_atom_site_type_symbol
_atom_site_label
_atom_site_fract_x
_atom_site_fract_y
_atom_site_fract_z
Si Si1 0.225903 0.088786 0.655154
Si Si2 0.000000 0.000000 0.250000
Si Si3 0.691168 0.844391 0.897985
Si Si4 0.573510 0.002079 0.889000
Si Si5 0.587078 0.667469 0.394918
O O1 0.250000 0.250000 0.664794
O O2 0.155952 0.092226 0.611093
O O3 0.222057 0.000000 0.750000
O O4 0.277312 0.000589 0.597131
O O5 0.042389 0.902991 0.181774
O O6 0.750000 0.750000 0.859993
O O7 0.622669 0.880558 0.851407
O O8 0.678815 0.783837 0.000000
O O9 0.595990 0.164284 0.874221
O O10 0.500000 0.000000 0.857294
O O11 0.573061 0.978787 0.000000
O O12 0.561571 0.656053 0.500000
#
# Coordination Sequence:
#
# PCOD9498171 Si02
#       5
#    16   4  16  16  16
#     4  12  24  43  68 101 141 182 238 300 357 428
#     4  12  26  48  66 110 152 184 240 306 360 446
#     4  10  21  38  65 100 135 179 236 296 360 430
#     4   9  19  39  66  99 136 181 237 292 359 442
#     4  11  24  45  74 102 138 191 239 293 362 436
#
# _framework density 24.011642999999999
#
# number of rings (size 3 to 8) (size 9 to 14) (size 15 to 20)
#    0.000    1.412    3.529    1.765    0.000    2.824 
#    4.235    5.294    0.000    0.000    0.000    0.000 
#    0.000    0.000    0.000    0.000    0.000    0.235 
#
# Total GULP energy -189913.260512 kJ/mol
# GULP energy per Si atom -5585.684133 kJ/mol
# Density = 2.395699 g / cm^3
# Si number density = 24.011643 Si / 1000 Ang^3
#
#
#
# Elastic Constant Matrix: (Units=GPa)
#
#
# Indices 1 2 3 4 5 6 
#
# 1 171.4754 45.3289 24.1415 0.0000 0.0000 0.0000
# 2 45.3289 110.3040 27.4370 0.0000 0.0000 0.0000
# 3 24.1415 27.4370 125.4469 0.0000 0.0000 0.0000
# 4 0.0000 0.0000 0.0000 12.4775 0.0000 0.0000
# 5 0.0000 0.0000 0.0000 0.0000 -40.5125 0.0000
# 6 0.0000 0.0000 0.0000 0.0000 0.0000 49.6630
#
#
#
# Elastic Compliance Matrix: (Units=1/GPa)
#
#
# Indices 1 2 3 4 5 6 
#
# 1 0.006603 -0.002535 -0.000716 0.000000 0.000000 0.000000
# 2 -0.002535 0.010561 -0.001822 0.000000 0.000000 0.000000
# 3 -0.000716 -0.001822 0.008508 0.000000 0.000000 0.000000
# 4 0.000000 0.000000 0.000000 0.080144 0.000000 0.000000
# 5 0.000000 0.000000 0.000000 0.000000 -0.024684 0.000000
# 6 0.000000 0.000000 0.000000 0.000000 0.000000 0.020136
#
#
# Mechanical properties :
#
#
# Convention : Reuss Voigt Hill
#
# Bulk Modulus (GPa) = 64.41312 66.78234 65.59773
# Shear Modulus (GPa) = 42.88568 25.01354 33.94961
#
# Velocity S-wave (km/s) = 4.23074 3.23108 3.76424
# Velocity P-wave (km/s) = 7.12387 6.46473 6.80229
#
# Compressibility (1/GPa) = 0.01552479
#
# Stress axis : x y z
#
# Youngs Moduli (GPa) = 151.45218 94.68913 117.53922
#
# Poissons Ratio (x) = 0.24006 0.08418
# Poissons Ratio (y) = 0.38397 0.21415
# Poissons Ratio (z) = 0.10847 0.17252
#
# Static dielectric constant tensor:
#      x y z
#    x 1.995740 0.000000 0.000000 
#    y 0.000000 1.892240 0.000000 
#    z 0.000000 0.000000 1.924900 
# 
# From -- ./inp_files/36477.got.cif
#   From: 2010.05.17/outbox.cif.g08.bks.cpg/sg66_19_cif.got.tgz:36477.got - 2010.06.03 17:51:23.
