data_PCOD9498016
_publ_section_title
;
Structure prediction by ZEFSAII (Michael W. Deem and Ramdas Pophale) SiO2 
 PCOD9498016
Probable space group: C C C M
;
_chemical_formula_sum "Si O2"
_cell_formula_units_Z 64
_cell_length_a 10.359575
_cell_length_b 12.145121
_cell_length_c 22.492690
_cell_angle_alpha 90.000000
_cell_angle_beta 90.000000
_cell_angle_gamma 90.000000
_cell_volume 2829.991836
_symmetry_space_group_name_H-M "C C C M"
_symmetry_group_IT_number 66
_symmetry_cell_setting 'orthorhombic'
loop_
_space_group_symop_operation_xyz
x,y,z
-x,-y,z
x,-y,1/2-z
-x,y,1/2-z
-x,-y,-z
x,y,-z
-x,y,1/2+z
x,-y,1/2+z
1/2+x,1/2+y,z
1/2-x,1/2-y,z
1/2+x,1/2-y,1/2-z
1/2-x,1/2+y,1/2-z
1/2-x,1/2-y,-z
1/2+x,1/2+y,-z
1/2-x,1/2+y,1/2+z
1/2+x,1/2-y,1/2+z
loop_
_atom_site_type_symbol
_atom_site_label
_atom_site_fract_x
_atom_site_fract_y
_atom_site_fract_z
Si Si1 0.750000 0.250000 0.399940
Si Si2 0.096706 0.855360 0.000000
Si Si3 0.750000 0.250000 0.781795
Si Si4 0.000000 0.500000 0.855949
Si Si5 0.202344 0.500000 0.750000
Si Si6 0.037022 0.733579 0.118781
Si Si7 0.792033 0.081093 0.500000
O O1 0.612336 0.267078 0.368789
O O2 0.735898 0.143964 0.443134
O O3 0.100078 0.792890 0.062578
O O4 0.945983 0.893334 0.000000
O O5 0.204132 0.950388 0.000000
O O6 0.739393 0.374359 0.753506
O O7 0.876834 0.253806 0.823150
O O8 0.118394 0.487454 0.810010
O O9 0.029530 0.605046 0.894585
#
# Coordination Sequence:
#
# PCOD9498016 Si02
#       7
#     8   8   8   8   8  16   8
#     4   9  18  35  58  83 116 167 214 245 294 371
#     4   9  18  34  55  91 134 161 200 257 295 364
#     4  10  22  42  68  97 124 162 210 267 326 374
#     4   9  20  39  62  86 118 165 206 253 324 384
#     4   9  20  42  66  85 122 163 210 267 320 379
#     4  10  21  37  62  92 124 164 207 250 310 377
#     4   8  16  32  53  78 122 174 206 242 299 349
#
# _framework density 22.614906000000001
#
# number of rings (size 3 to 8) (size 9 to 14) (size 15 to 20)
#    0.000    2.750    0.000    0.750    0.000    6.000 
#    0.000    7.500    0.000   30.000    0.000    0.000 
#    0.000    1.000    0.000    0.000    0.000    0.000 
#
# Total GULP energy -178264.411923 kJ/mol
# GULP energy per Si atom -5570.762873 kJ/mol
# Density = 2.256343 g / cm^3
# Si number density = 22.614906 Si / 1000 Ang^3
#
#
#
# Elastic Constant Matrix: (Units=GPa)
#
#
# Indices 1 2 3 4 5 6 
#
# 1 117.9131 38.1122 29.7922 0.0000 0.0000 0.0000
# 2 38.1122 197.6868 53.9910 0.0000 0.0000 0.0000
# 3 29.7922 53.9910 42.7817 0.0000 0.0000 0.0000
# 4 0.0000 0.0000 0.0000 -177.9545 0.0000 0.0000
# 5 0.0000 0.0000 0.0000 0.0000 18.5039 0.0000
# 6 0.0000 0.0000 0.0000 0.0000 0.0000 36.8138
#
#
#
# Elastic Compliance Matrix: (Units=1/GPa)
#
#
# Indices 1 2 3 4 5 6 
#
# 1 0.010292 -0.000041 -0.007115 0.000000 0.000000 0.000000
# 2 -0.000041 0.007719 -0.009713 0.000000 0.000000 0.000000
# 3 -0.007115 -0.009713 0.040588 0.000000 0.000000 0.000000
# 4 0.000000 0.000000 0.000000 -0.005619 0.000000 0.000000
# 5 0.000000 0.000000 0.000000 0.000000 0.054043 0.000000
# 6 0.000000 0.000000 0.000000 0.000000 0.000000 0.027164
#
#
# Mechanical properties :
#
#
# Convention : Reuss Voigt Hill
#
# Bulk Modulus (GPa) = 40.22580 66.90807 53.56693
# Shear Modulus (GPa) = 28.37497 -8.76162 9.80668
#
# Velocity S-wave (km/s) = 3.54602 -1.97045 2.08466
# Velocity P-wave (km/s) = 5.88146 4.94703 5.43437
#
# Compressibility (1/GPa) = 0.02485967
#
# Stress axis : x y z
#
# Youngs Moduli (GPa) = 97.16443 129.54688 24.63794
#
# Poissons Ratio (x) = 0.00529 0.17531
# Poissons Ratio (y) = 0.00397 0.23932
# Poissons Ratio (z) = 0.69137 1.25833
#
# Static dielectric constant tensor:
#      x y z
#    x 1.865430 0.000000 0.000000 
#    y 0.000000 1.901140 0.000000 
#    z 0.000000 0.000000 1.822320 
# 
# From -- ./inp_files/56421.got.cif
#   From: 2010.05.17/outbox.cif.g08.bks.cpg/sg66_29_cif.got.tgz:56421.got - 2010.06.03 17:51:23.
