data_PCOD9498754
_publ_section_title
;
Structure prediction by ZEFSAII (Michael W. Deem and Ramdas Pophale) SiO2 
 PCOD9498754
Probable space group: C C C M
;
_chemical_formula_sum "Si O2"
_cell_formula_units_Z 112
_cell_length_a 32.683321
_cell_length_b 11.525288
_cell_length_c 14.205266
_cell_angle_alpha 90.000000
_cell_angle_beta 90.000000
_cell_angle_gamma 90.000000
_cell_volume 5350.906182
_symmetry_space_group_name_H-M "C C C M"
_symmetry_group_IT_number 66
_symmetry_cell_setting 'orthorhombic'
loop_
_space_group_symop_operation_xyz
x,y,z
-x,-y,z
x,-y,1/2-z
-x,y,1/2-z
-x,-y,-z
x,y,-z
-x,y,1/2+z
x,-y,1/2+z
1/2+x,1/2+y,z
1/2-x,1/2-y,z
1/2+x,1/2-y,1/2-z
1/2-x,1/2+y,1/2-z
1/2-x,1/2-y,-z
1/2+x,1/2+y,-z
1/2-x,1/2+y,1/2+z
1/2+x,1/2-y,1/2+z
loop_
_atom_site_type_symbol
_atom_site_label
_atom_site_fract_x
_atom_site_fract_y
_atom_site_fract_z
Si Si1 0.520810 0.618597 0.611366
Si Si2 0.607128 0.301568 0.892833
Si Si3 0.777172 0.538875 0.393156
Si Si4 0.309072 0.606852 0.185672
Si Si5 0.016507 0.369445 0.113382
Si Si6 0.898814 0.367980 0.719598
Si Si7 0.191961 0.332808 0.210319
O O1 0.500000 0.500000 0.648047
O O2 0.511431 0.621010 0.500000
O O3 0.569802 0.609071 0.621508
O O4 0.507290 0.749707 0.642955
O O5 0.652037 0.351795 0.873581
O O6 0.598924 0.204822 0.815303
O O7 0.604096 0.258024 0.000000
O O8 0.789796 0.562457 0.500000
O O9 0.730604 0.578169 0.376094
O O10 0.803903 0.602722 0.312653
O O11 0.782005 0.404739 0.364222
O O12 0.321583 0.500000 0.250000
O O13 0.296066 0.704584 0.260786
O O14 0.061998 0.353558 0.154052
O O15 0.000000 0.500000 0.141937
O O16 0.016469 0.371512 0.000000
O O17 0.896584 0.500000 0.750000
O O18 0.854956 0.334178 0.676306
#
# Coordination Sequence:
#
# PCOD9498754 Si02
#       7
#    16  16  16  16  16  16  16
#     4   9  19  38  62  88 125 167 211 263 316 385
#     4  10  23  41  63  96 131 170 221 275 328 395
#     4  11  22  41  70  94 122 173 220 261 329 401
#     4  11  23  41  67  93 136 169 212 277 331 393
#     4  10  22  40  64  95 131 172 219 273 334 401
#     4  11  22  39  61  93 129 169 212 270 332 378
#     4  10  23  43  61  96 134 164 214 281 320 385
#
# _framework density 20.931032999999999
#
# number of rings (size 3 to 8) (size 9 to 14) (size 15 to 20)
#    0.000    1.714    2.857    1.714    0.000   10.000 
#    0.000    2.857    0.000    1.286    0.000    0.000 
#    0.000    0.000    0.000    0.000    0.000    0.000 
#
# Total GULP energy -312426.663080 kJ/mol
# GULP energy per Si atom -5579.047555 kJ/mol
# Density = 2.088339 g / cm^3
# Si number density = 20.931033 Si / 1000 Ang^3
#
#
#
# Elastic Constant Matrix: (Units=GPa)
#
#
# Indices 1 2 3 4 5 6 
#
# 1 139.6577 42.4722 31.1639 0.0000 0.0000 0.0000
# 2 42.4722 116.6525 20.9528 0.0000 0.0000 0.0000
# 3 31.1639 20.9528 54.0039 0.0000 0.0000 0.0000
# 4 0.0000 0.0000 0.0000 -11.8134 0.0000 0.0000
# 5 0.0000 0.0000 0.0000 0.0000 59.3322 0.0000
# 6 0.0000 0.0000 0.0000 0.0000 0.0000 29.1007
#
#
#
# Elastic Compliance Matrix: (Units=1/GPa)
#
#
# Indices 1 2 3 4 5 6 
#
# 1 0.008836 -0.002474 -0.004139 0.000000 0.000000 0.000000
# 2 -0.002474 0.009907 -0.002416 0.000000 0.000000 0.000000
# 3 -0.004139 -0.002416 0.021843 0.000000 0.000000 0.000000
# 4 0.000000 0.000000 0.000000 -0.084650 0.000000 0.000000
# 5 0.000000 0.000000 0.000000 0.000000 0.016854 0.000000
# 6 0.000000 0.000000 0.000000 0.000000 0.000000 0.034363
#
#
# Mechanical properties :
#
#
# Convention : Reuss Voigt Hill
#
# Bulk Modulus (GPa) = 44.38923 55.49908 49.94416
# Shear Modulus (GPa) = 152.79772 29.70560 91.25166
#
# Velocity S-wave (km/s) = 8.55331 3.77133 6.60992
# Velocity P-wave (km/s) = 10.89949 6.74809 9.06464
#
# Compressibility (1/GPa) = 0.02252799
#
# Stress axis : x y z
#
# Youngs Moduli (GPa) = 113.16890 100.93723 45.78043
#
# Poissons Ratio (x) = 0.24969 0.18950
# Poissons Ratio (y) = 0.27995 0.11062
# Poissons Ratio (z) = 0.46845 0.24390
#
# Static dielectric constant tensor:
#      x y z
#    x 1.786800 0.000000 0.000000 
#    y 0.000000 1.814550 0.000000 
#    z 0.000000 0.000000 1.719410 
# 
# From -- ./inp_files/33845.got.cif
#   From: 2010.05.17/outbox.cif.g08.bks.cpg/sg66_17_cif.got.tgz:33845.got - 2010.06.03 17:51:23.
