data_PCOD9498658
_publ_section_title
;
Structure prediction by ZEFSAII (Michael W. Deem and Ramdas Pophale) SiO2 
 PCOD9498658
Probable space group: C C C M
;
_chemical_formula_sum "Si O2"
_cell_formula_units_Z 128
_cell_length_a 16.112641
_cell_length_b 22.297349
_cell_length_c 18.963082
_cell_angle_alpha 90.000000
_cell_angle_beta 90.000000
_cell_angle_gamma 90.000000
_cell_volume 6812.850915
_symmetry_space_group_name_H-M "C C C M"
_symmetry_group_IT_number 66
_symmetry_cell_setting 'orthorhombic'
loop_
_space_group_symop_operation_xyz
x,y,z
-x,-y,z
x,-y,1/2-z
-x,y,1/2-z
-x,-y,-z
x,y,-z
-x,y,1/2+z
x,-y,1/2+z
1/2+x,1/2+y,z
1/2-x,1/2-y,z
1/2+x,1/2-y,1/2-z
1/2-x,1/2+y,1/2-z
1/2-x,1/2-y,-z
1/2+x,1/2+y,-z
1/2-x,1/2+y,1/2+z
1/2+x,1/2-y,1/2+z
loop_
_atom_site_type_symbol
_atom_site_label
_atom_site_fract_x
_atom_site_fract_y
_atom_site_fract_z
Si Si1 0.303518 0.510393 0.833233
Si Si2 0.797884 0.623637 0.312121
Si Si3 0.841992 0.719542 0.578018
Si Si4 0.631551 0.597073 0.084476
Si Si5 0.529389 0.578302 0.326475
Si Si6 0.624451 0.305654 0.809550
Si Si7 0.908825 0.306368 0.285085
Si Si8 0.348608 0.260774 0.916476
O O1 0.312994 0.500000 0.750000
O O2 0.226123 0.556556 0.835740
O O3 0.303844 0.447800 0.875738
O O4 0.387725 0.545801 0.854178
O O5 0.840916 0.660073 0.375432
O O6 0.710291 0.658283 0.303198
O O7 0.852418 0.638011 0.242580
O O8 0.869985 0.707511 0.500000
O O9 0.750000 0.750000 0.576650
O O10 0.891163 0.770878 0.617610
O O11 0.543441 0.577022 0.116999
O O12 0.638883 0.668252 0.100675
O O13 0.636858 0.589638 0.000000
O O14 0.500000 0.556406 0.250000
O O15 0.554336 0.645790 0.308765
O O16 0.626210 0.253448 0.752799
O O17 0.898915 0.286045 0.366499
O O18 0.000000 0.314252 0.250000
O O19 0.250000 0.250000 0.906334
O O20 0.367690 0.252596 0.000000
#
# Coordination Sequence:
#
# PCOD9498658 Si02
#       8
#    16  16  16  16  16  16  16  16
#     4  11  23  36  56  78 106 153 198 234 274 336
#     4   9  20  34  51  79 104 145 197 230 278 337
#     4   8  14  27  45  68 100 134 175 223 264 315
#     4  11  24  38  54  84 119 152 193 238 286 341
#     4  11  20  33  52  77 114 153 190 225 275 335
#     4   9  17  29  49  77 107 148 188 222 273 341
#     4  11  20  33  57  85 117 146 185 242 302 349
#     4  10  22  39  61  88 119 156 197 245 298 355
#
# _framework density 18.788022999999999
#
# number of rings (size 3 to 8) (size 9 to 14) (size 15 to 20)
#    0.000    2.000    1.250    4.125    3.500    2.000 
#    0.000    6.250    0.000    0.375    0.000    0.000 
#    0.000    3.000    0.000    0.000    0.000    0.000 
#
# Total GULP energy -356507.794792 kJ/mol
# GULP energy per Si atom -5570.434294 kJ/mol
# Density = 1.874526 g / cm^3
# Si number density = 18.788023 Si / 1000 Ang^3
#
#
#
# Elastic Constant Matrix: (Units=GPa)
#
#
# Indices 1 2 3 4 5 6 
#
# 1 54.9326 41.7771 30.6777 0.0000 0.0000 0.0000
# 2 41.7771 81.2217 39.2097 0.0000 0.0000 0.0000
# 3 30.6777 39.2097 104.5401 0.0000 0.0000 0.0000
# 4 0.0000 0.0000 0.0000 20.0151 0.0000 0.0000
# 5 0.0000 0.0000 0.0000 0.0000 14.1707 0.0000
# 6 0.0000 0.0000 0.0000 0.0000 0.0000 100.5459
#
#
#
# Elastic Compliance Matrix: (Units=1/GPa)
#
#
# Indices 1 2 3 4 5 6 
#
# 1 0.031100 -0.014154 -0.003818 0.000000 0.000000 0.000000
# 2 -0.014154 0.021475 -0.003901 0.000000 0.000000 0.000000
# 3 -0.003818 -0.003901 0.012149 0.000000 0.000000 0.000000
# 4 0.000000 0.000000 0.000000 0.049962 0.000000 0.000000
# 5 0.000000 0.000000 0.000000 0.000000 0.070568 0.000000
# 6 0.000000 0.000000 0.000000 0.000000 0.000000 0.009946
#
#
# Mechanical properties :
#
#
# Convention : Reuss Voigt Hill
#
# Bulk Modulus (GPa) = 47.66596 51.55816 49.61206
# Shear Modulus (GPa) = 20.33016 35.54834 27.93925
#
# Velocity S-wave (km/s) = 3.29307 4.35452 3.86045
# Velocity P-wave (km/s) = 6.31542 7.26526 6.80693
#
# Compressibility (1/GPa) = 0.02097933
#
# Stress axis : x y z
#
# Youngs Moduli (GPa) = 32.15400 46.56494 82.30898
#
# Poissons Ratio (x) = 0.65906 0.31425
# Poissons Ratio (y) = 0.45510 0.32111
# Poissons Ratio (z) = 0.12276 0.18166
#
# Static dielectric constant tensor:
#      x y z
#    x 1.674520 0.000000 0.000000 
#    y 0.000000 1.715150 0.000000 
#    z 0.000000 0.000000 1.686490 
# 
# From -- ./inp_files/42141.got.cif
#   From: 2010.05.17/outbox.cif.g08.bks.cpg/sg66_22_cif.got.tgz:42141.got - 2010.06.03 17:51:23.
