data_PCOD9498373
_publ_section_title
;
Structure prediction by ZEFSAII (Michael W. Deem and Ramdas Pophale) SiO2 
 PCOD9498373
Probable space group: C C C M
;
_chemical_formula_sum "Si O2"
_cell_formula_units_Z 96
_cell_length_a 13.293638
_cell_length_b 19.335167
_cell_length_c 16.989578
_cell_angle_alpha 90.000000
_cell_angle_beta 90.000000
_cell_angle_gamma 90.000000
_cell_volume 4366.911267
_symmetry_space_group_name_H-M "C C C M"
_symmetry_group_IT_number 66
_symmetry_cell_setting 'orthorhombic'
loop_
_space_group_symop_operation_xyz
x,y,z
-x,-y,z
x,-y,1/2-z
-x,y,1/2-z
-x,-y,-z
x,y,-z
-x,y,1/2+z
x,-y,1/2+z
1/2+x,1/2+y,z
1/2-x,1/2-y,z
1/2+x,1/2-y,1/2-z
1/2-x,1/2+y,1/2-z
1/2-x,1/2-y,-z
1/2+x,1/2+y,-z
1/2-x,1/2+y,1/2+z
1/2+x,1/2-y,1/2+z
loop_
_atom_site_type_symbol
_atom_site_label
_atom_site_fract_x
_atom_site_fract_y
_atom_site_fract_z
Si Si1 0.662170 0.300241 0.876667
Si Si2 0.593928 0.448670 0.407050
Si Si3 0.607883 0.683478 0.206521
Si Si4 0.242740 0.437495 0.412511
Si Si5 0.034106 0.576166 0.159690
Si Si6 0.957316 0.283537 0.589105
O O1 0.750000 0.250000 0.904769
O O2 0.677009 0.313321 0.783066
O O3 0.676235 0.375785 0.912133
O O4 0.558598 0.262898 0.899776
O O5 0.500000 0.500000 0.388155
O O6 0.583871 0.429153 0.500000
O O7 0.603500 0.383645 0.349094
O O8 0.695546 0.493167 0.397616
O O9 0.500000 0.686647 0.250000
O O10 0.618582 0.750222 0.151422
O O11 0.196671 0.440290 0.500000
O O12 0.154099 0.421800 0.351899
O O13 0.000000 0.500000 0.133303
O O14 0.000000 0.584675 0.250000
O O15 0.985744 0.638533 0.111114
O O16 0.922241 0.278256 0.500000
#
# Coordination Sequence:
#
# PCOD9498373 Si02
#       6
#    16  16  16  16  16  16
#     4  11  22  37  63  92 125 158 204 271 321 370
#     4  10  21  40  65  96 136 170 208 262 325 394
#     4  10  22  37  59  90 127 169 210 250 315 390
#     4  11  24  41  66 100 130 168 219 267 322 384
#     4  11  25  43  64  90 125 170 220 272 326 378
#     4  11  22  40  66  92 124 164 215 267 323 382
#
# _framework density 21.983501
#
# number of rings (size 3 to 8) (size 9 to 14) (size 15 to 20)
#    0.000    1.333    1.667    5.000    0.000    8.333 
#    0.000    0.000    0.000    1.000    0.000    0.000 
#    0.000    0.000    0.000    0.000    0.000    0.000 
#
# Total GULP energy -268297.518416 kJ/mol
# GULP energy per Si atom -5589.531634 kJ/mol
# Density = 2.193347 g / cm^3
# Si number density = 21.983501 Si / 1000 Ang^3
#
#
#
# Elastic Constant Matrix: (Units=GPa)
#
#
# Indices 1 2 3 4 5 6 
#
# 1 31.9623 -3.6716 23.0448 0.0000 0.0000 0.0000
# 2 -3.6716 113.9061 50.1160 0.0000 0.0000 0.0000
# 3 23.0448 50.1160 141.4629 0.0000 0.0000 0.0000
# 4 0.0000 0.0000 0.0000 30.5799 0.0000 0.0000
# 5 0.0000 0.0000 0.0000 0.0000 29.0377 0.0000
# 6 0.0000 0.0000 0.0000 0.0000 0.0000 24.1458
#
#
#
# Elastic Compliance Matrix: (Units=1/GPa)
#
#
# Indices 1 2 3 4 5 6 
#
# 1 0.037381 0.004601 -0.007720 0.000000 0.000000 0.000000
# 2 0.004601 0.010967 -0.004635 0.000000 0.000000 0.000000
# 3 -0.007720 -0.004635 0.009968 0.000000 0.000000 0.000000
# 4 0.000000 0.000000 0.000000 0.032701 0.000000 0.000000
# 5 0.000000 0.000000 0.000000 0.000000 0.034438 0.000000
# 6 0.000000 0.000000 0.000000 0.000000 0.000000 0.041415
#
#
# Mechanical properties :
#
#
# Convention : Reuss Voigt Hill
#
# Bulk Modulus (GPa) = 23.35875 47.36772 35.36323
# Shear Modulus (GPa) = 25.42628 31.27550 28.35089
#
# Velocity S-wave (km/s) = 3.40458 3.77594 3.59506
# Velocity P-wave (km/s) = 5.10916 6.37212 5.77527
#
# Compressibility (1/GPa) = 0.04281052
#
# Stress axis : x y z
#
# Youngs Moduli (GPa) = 26.75130 91.18552 100.31602
#
# Poissons Ratio (x) = -0.41958 0.77441
# Poissons Ratio (y) = -0.12309 0.46494
# Poissons Ratio (z) = 0.20651 0.42262
#
# Static dielectric constant tensor:
#      x y z
#    x 1.848960 0.000000 0.000000 
#    y 0.000000 1.784690 0.000000 
#    z 0.000000 0.000000 1.835490 
# 
# From -- ./inp_files/28403.got.cif
#   From: 2010.05.17/outbox.cif.g08.bks.cpg/sg66_15_cif.got.tgz:28403.got - 2010.06.03 17:51:23.
