data_PCOD9498315
_publ_section_title
;
Structure prediction by ZEFSAII (Michael W. Deem and Ramdas Pophale) SiO2 
 PCOD9498315
Probable space group: C C C M
;
_chemical_formula_sum "Si O2"
_cell_formula_units_Z 96
_cell_length_a 11.584220
_cell_length_b 23.586043
_cell_length_c 18.573290
_cell_angle_alpha 90.000000
_cell_angle_beta 90.000000
_cell_angle_gamma 90.000000
_cell_volume 5074.704081
_symmetry_space_group_name_H-M "C C C M"
_symmetry_group_IT_number 66
_symmetry_cell_setting 'orthorhombic'
loop_
_space_group_symop_operation_xyz
x,y,z
-x,-y,z
x,-y,1/2-z
-x,y,1/2-z
-x,-y,-z
x,y,-z
-x,y,1/2+z
x,-y,1/2+z
1/2+x,1/2+y,z
1/2-x,1/2-y,z
1/2+x,1/2-y,1/2-z
1/2-x,1/2+y,1/2-z
1/2-x,1/2-y,-z
1/2+x,1/2+y,-z
1/2-x,1/2+y,1/2+z
1/2+x,1/2-y,1/2+z
loop_
_atom_site_type_symbol
_atom_site_label
_atom_site_fract_x
_atom_site_fract_y
_atom_site_fract_z
Si Si1 0.167476 0.962269 0.818181
Si Si2 0.299249 0.432587 0.086147
Si Si3 0.508572 0.640224 0.165757
Si Si4 0.943267 0.373005 0.584922
Si Si5 0.888354 0.247406 0.412811
Si Si6 0.430212 0.059238 0.314048
O O1 0.297611 0.946836 0.795725
O O2 0.095004 0.906548 0.839429
O O3 0.122424 0.000000 0.750000
O O4 0.180033 0.003756 0.886687
O O5 0.382518 0.395294 0.135979
O O6 0.170066 0.410595 0.101885
O O7 0.320468 0.425780 0.000000
O O8 0.500000 0.654952 0.250000
O O9 0.532033 0.698623 0.122334
O O10 0.947512 0.369724 0.500000
O O11 0.932242 0.309008 0.611057
O O12 0.053482 0.404623 0.615155
O O13 0.894119 0.240906 0.500000
O O14 0.750000 0.250000 0.395510
O O15 0.500000 0.089223 0.250000
O O16 0.500000 0.000000 0.323611
#
# Coordination Sequence:
#
# PCOD9498315 Si02
#       6
#    16  16  16  16  16  16
#     4  12  23  40  59  94 137 176 212 271 343 394
#     4  11  22  38  64  95 127 168 215 264 324 400
#     4  12  25  38  62  95 132 169 209 271 337 393
#     4  10  21  39  66  96 123 162 225 281 319 381
#     4  10  21  42  68  91 124 172 224 274 323 393
#     4  11  21  37  63  90 128 177 223 269 328 402
#
# _framework density 18.917359000000001
#
# number of rings (size 3 to 8) (size 9 to 14) (size 15 to 20)
#    0.000    1.000    6.667    1.000    0.000    3.667 
#    0.000    0.833    0.000    2.000    0.000    0.000 
#    0.000    0.000    0.000    0.000    0.000    0.000 
#
# Total GULP energy -267394.521110 kJ/mol
# GULP energy per Si atom -5570.719190 kJ/mol
# Density = 1.887430 g / cm^3
# Si number density = 18.917359 Si / 1000 Ang^3
#
#
#
# Elastic Constant Matrix: (Units=GPa)
#
#
# Indices 1 2 3 4 5 6 
#
# 1 88.4707 35.0326 28.7878 0.0000 0.0000 0.0000
# 2 35.0326 122.6792 37.1019 0.0000 0.0000 0.0000
# 3 28.7878 37.1019 67.8953 0.0000 0.0000 0.0000
# 4 0.0000 0.0000 0.0000 36.1852 0.0000 0.0000
# 5 0.0000 0.0000 0.0000 0.0000 27.4486 0.0000
# 6 0.0000 0.0000 0.0000 0.0000 0.0000 18.1121
#
#
#
# Elastic Compliance Matrix: (Units=1/GPa)
#
#
# Indices 1 2 3 4 5 6 
#
# 1 0.013769 -0.002595 -0.004420 0.000000 0.000000 0.000000
# 2 -0.002595 0.010254 -0.004503 0.000000 0.000000 0.000000
# 3 -0.004420 -0.004503 0.019063 0.000000 0.000000 0.000000
# 4 0.000000 0.000000 0.000000 0.027636 0.000000 0.000000
# 5 0.000000 0.000000 0.000000 0.000000 0.036432 0.000000
# 6 0.000000 0.000000 0.000000 0.000000 0.000000 0.055212
#
#
# Mechanical properties :
#
#
# Convention : Reuss Voigt Hill
#
# Bulk Modulus (GPa) = 49.87498 53.43222 51.65360
# Shear Modulus (GPa) = 26.03001 28.22404 27.12703
#
# Velocity S-wave (km/s) = 3.71345 3.86679 3.79089
# Velocity P-wave (km/s) = 6.69389 6.94568 6.82095
#
# Compressibility (1/GPa) = 0.02005013
#
# Stress axis : x y z
#
# Youngs Moduli (GPa) = 72.62671 97.51972 52.45646
#
# Poissons Ratio (x) = 0.25308 0.23185
# Poissons Ratio (y) = 0.18848 0.23622
# Poissons Ratio (z) = 0.32101 0.43915
#
# Static dielectric constant tensor:
#      x y z
#    x 1.654320 0.000000 0.000000 
#    y 0.000000 1.741680 0.000000 
#    z 0.000000 0.000000 1.708110 
# 
# From -- ./inp_files/43561.got.cif
#   From: 2010.05.17/outbox.cif.g08.bks.cpg/sg66_22_cif.got.tgz:43561.got - 2010.06.03 17:51:23.
