data_PCOD9498961
_publ_section_title
;
Structure prediction by ZEFSAII (Michael W. Deem and Ramdas Pophale) SiO2 
 PCOD9498961
Probable space group: C C C M
;
_chemical_formula_sum "Si O2"
_cell_formula_units_Z 88
_cell_length_a 10.679278
_cell_length_b 30.948583
_cell_length_c 13.308310
_cell_angle_alpha 90.000000
_cell_angle_beta 90.000000
_cell_angle_gamma 90.000000
_cell_volume 4398.509863
_symmetry_space_group_name_H-M "C C C M"
_symmetry_group_IT_number 66
_symmetry_cell_setting 'orthorhombic'
loop_
_space_group_symop_operation_xyz
x,y,z
-x,-y,z
x,-y,1/2-z
-x,y,1/2-z
-x,-y,-z
x,y,-z
-x,y,1/2+z
x,-y,1/2+z
1/2+x,1/2+y,z
1/2-x,1/2-y,z
1/2+x,1/2-y,1/2-z
1/2-x,1/2+y,1/2-z
1/2-x,1/2-y,-z
1/2+x,1/2+y,-z
1/2-x,1/2+y,1/2+z
1/2+x,1/2-y,1/2+z
loop_
_atom_site_type_symbol
_atom_site_label
_atom_site_fract_x
_atom_site_fract_y
_atom_site_fract_z
Si Si1 0.605349 0.251750 0.118743
Si Si2 0.520187 0.551767 0.000000
Si Si3 0.258606 0.601461 0.000000
Si Si4 0.500000 0.326512 0.750000
Si Si5 0.145238 0.491347 0.500000
Si Si6 0.802114 0.962999 0.175354
Si Si7 0.255596 0.124738 0.725328
Si Si8 0.000000 0.677644 0.750000
O O1 0.750000 0.250000 0.156898
O O2 0.534836 0.293959 0.159764
O O3 0.533655 0.209839 0.159313
O O4 0.608755 0.252405 0.000000
O O5 0.500000 0.500000 0.000000
O O6 0.595943 0.558840 0.897565
O O7 0.395850 0.579635 0.000000
O O8 0.169041 0.559767 0.000000
O O9 0.242021 0.627186 0.103551
O O10 0.374857 0.354703 0.762948
O O11 0.209048 0.513138 0.402305
O O12 0.000000 0.500000 0.500000
O O13 0.742107 0.925215 0.241438
O O14 0.852066 0.000000 0.250000
O O15 0.377180 0.148880 0.767419
#
# Coordination Sequence:
#
# PCOD9498961 Si02
#       8
#    16   8   8   8   8  16  16   8
#     4  10  22  47  78 100 134 177 215 265 342 424
#     4  11  20  40  64  94 120 171 235 280 333 394
#     4  12  25  43  68  94 131 185 234 274 337 402
#     4  11  24  44  71 106 134 170 221 276 338 407
#     4  11  25  44  62  88 128 189 244 269 333 405
#     4  11  23  43  64  94 135 182 223 287 337 382
#     4  12  26  43  68 100 139 176 227 285 332 394
#     4  11  26  44  69 106 134 174 221 274 338 409
#
# _framework density 20.006775999999999
#
# number of rings (size 3 to 8) (size 9 to 14) (size 15 to 20)
#    0.000    0.909    5.455    1.091    5.091    2.182 
#    6.545    0.909    0.000    0.000    0.000    0.000 
#    0.000    0.000    0.000    0.000    0.000    0.000 
#
# Total GULP energy -245971.196444 kJ/mol
# GULP energy per Si atom -5590.254465 kJ/mol
# Density = 1.996124 g / cm^3
# Si number density = 20.006776 Si / 1000 Ang^3
#
#
#
# Elastic Constant Matrix: (Units=GPa)
#
#
# Indices 1 2 3 4 5 6 
#
# 1 150.7105 46.9286 38.9680 0.0000 0.0000 0.0000
# 2 46.9286 102.8262 27.6086 0.0000 0.0000 0.0000
# 3 38.9680 27.6086 105.6924 0.0000 0.0000 0.0000
# 4 0.0000 0.0000 0.0000 -6.7540 0.0000 0.0000
# 5 0.0000 0.0000 0.0000 0.0000 10.7459 0.0000
# 6 0.0000 0.0000 0.0000 0.0000 0.0000 48.2900
#
#
#
# Elastic Compliance Matrix: (Units=1/GPa)
#
#
# Indices 1 2 3 4 5 6 
#
# 1 0.008182 -0.003145 -0.002195 0.000000 0.000000 0.000000
# 2 -0.003145 0.011667 -0.001888 0.000000 0.000000 0.000000
# 3 -0.002195 -0.001888 0.010764 0.000000 0.000000 0.000000
# 4 0.000000 0.000000 0.000000 -0.148060 0.000000 0.000000
# 5 0.000000 0.000000 0.000000 0.000000 0.093059 0.000000
# 6 0.000000 0.000000 0.000000 0.000000 0.000000 0.020708
#
#
# Mechanical properties :
#
#
# Convention : Reuss Voigt Hill
#
# Bulk Modulus (GPa) = 61.89272 65.13772 63.51522
# Shear Modulus (GPa) = 309.35441 26.83797 168.09619
#
# Velocity S-wave (km/s) = 12.44831 3.66655 9.17617
# Velocity P-wave (km/s) = 15.41483 7.11008 12.00355
#
# Compressibility (1/GPa) = 0.01615699
#
# Stress axis : x y z
#
# Youngs Moduli (GPa) = 122.21848 85.70904 92.90217
#
# Poissons Ratio (x) = 0.26954 0.20394
# Poissons Ratio (y) = 0.38435 0.17542
# Poissons Ratio (z) = 0.26829 0.16184
#
# Static dielectric constant tensor:
#      x y z
#    x 1.709300 0.000000 0.000000 
#    y 0.000000 1.685430 0.000000 
#    z 0.000000 0.000000 1.705000 
# 
# From -- ./inp_files/15103.got.cif
#   From: 2010.05.17/outbox.cif.g08.bks.cpg/sg66_8_cif.got.tgz:15103.got - 2010.06.03 17:51:23.
