data_PCOD9498942
_publ_section_title
;
Structure prediction by ZEFSAII (Michael W. Deem and Ramdas Pophale) SiO2 
 PCOD9498942
Probable space group: C C C M
;
_chemical_formula_sum "Si O2"
_cell_formula_units_Z 80
_cell_length_a 11.264527
_cell_length_b 9.156780
_cell_length_c 30.344739
_cell_angle_alpha 90.000000
_cell_angle_beta 90.000000
_cell_angle_gamma 90.000000
_cell_volume 3129.962589
_symmetry_space_group_name_H-M "C C C M"
_symmetry_group_IT_number 66
_symmetry_cell_setting 'orthorhombic'
loop_
_space_group_symop_operation_xyz
x,y,z
-x,-y,z
x,-y,1/2-z
-x,y,1/2-z
-x,-y,-z
x,y,-z
-x,y,1/2+z
x,-y,1/2+z
1/2+x,1/2+y,z
1/2-x,1/2-y,z
1/2+x,1/2-y,1/2-z
1/2-x,1/2+y,1/2-z
1/2-x,1/2-y,-z
1/2+x,1/2+y,-z
1/2-x,1/2+y,1/2+z
1/2+x,1/2-y,1/2+z
loop_
_atom_site_type_symbol
_atom_site_label
_atom_site_fract_x
_atom_site_fract_y
_atom_site_fract_z
Si Si1 0.710098 0.983548 0.454233
Si Si2 0.151354 0.117952 0.788410
Si Si3 0.816786 0.493037 0.359531
Si Si4 0.012393 0.746750 0.852151
Si Si5 0.451405 0.703996 0.048708
O O1 0.701444 0.066004 0.500000
O O2 0.705711 0.062551 0.408767
O O3 0.600747 0.868663 0.452498
O O4 0.832891 0.894464 0.453004
O O5 0.250000 0.250000 0.779337
O O6 0.022477 0.167454 0.807531
O O7 0.151893 0.000000 0.750000
O O8 0.203215 0.034023 0.830833
O O9 0.918726 0.383651 0.345413
O O10 0.863656 0.658685 0.355622
O O11 0.995764 0.815193 0.901767
O O12 0.511025 0.678863 0.000000
#
# Coordination Sequence:
#
# PCOD9498942 Si02
#       5
#    16  16  16  16  16
#     4   8  14  27  51  84 123 171 209 238 304 381
#     4  10  22  44  70  90 125 166 211 273 340 397
#     4   9  18  35  62  88 123 165 202 261 324 372
#     4   9  18  35  62  93 120 159 214 258 314 391
#     4   8  14  27  51  85 125 166 206 249 301 370
#
# _framework density 25.55941
#
# number of rings (size 3 to 8) (size 9 to 14) (size 15 to 20)
#    0.000    3.200    0.000    1.200    0.000    0.800 
#    7.200   14.000    8.800    6.000    0.000    0.000 
#    0.000    0.000    0.000    0.000    0.000    0.000 
#
# Total GULP energy -222979.612508 kJ/mol
# GULP energy per Si atom -5574.490313 kJ/mol
# Density = 2.550124 g / cm^3
# Si number density = 25.559410 Si / 1000 Ang^3
#
#
#
# Elastic Constant Matrix: (Units=GPa)
#
#
# Indices 1 2 3 4 5 6 
#
# 1 49.3350 29.6524 -7.0577 0.0000 0.0000 0.0000
# 2 29.6524 79.9610 47.9623 0.0000 0.0000 0.0000
# 3 -7.0577 47.9623 139.2369 0.0000 0.0000 0.0000
# 4 0.0000 0.0000 0.0000 45.7040 0.0000 0.0000
# 5 0.0000 0.0000 0.0000 0.0000 54.8163 0.0000
# 6 0.0000 0.0000 0.0000 0.0000 0.0000 24.4794
#
#
#
# Elastic Compliance Matrix: (Units=1/GPa)
#
#
# Indices 1 2 3 4 5 6 
#
# 1 0.030533 -0.015441 0.006867 0.000000 0.000000 0.000000
# 2 -0.015441 0.023572 -0.008903 0.000000 0.000000 0.000000
# 3 0.006867 -0.008903 0.010597 0.000000 0.000000 0.000000
# 4 0.000000 0.000000 0.000000 0.021880 0.000000 0.000000
# 5 0.000000 0.000000 0.000000 0.000000 0.018243 0.000000
# 6 0.000000 0.000000 0.000000 0.000000 0.000000 0.040851
#
#
# Mechanical properties :
#
#
# Convention : Reuss Voigt Hill
#
# Bulk Modulus (GPa) = 33.61656 45.51630 39.56643
# Shear Modulus (GPa) = 26.24048 38.19837 32.21942
#
# Velocity S-wave (km/s) = 3.20761 3.87006 3.55430
# Velocity P-wave (km/s) = 5.18644 6.14952 5.68840
#
# Compressibility (1/GPa) = 0.02974724
#
# Stress axis : x y z
#
# Youngs Moduli (GPa) = 32.75160 42.42277 94.36920
#
# Poissons Ratio (x) = 0.65507 -0.64801
# Poissons Ratio (y) = 0.50573 0.84012
# Poissons Ratio (z) = -0.22490 0.37767
#
# Static dielectric constant tensor:
#      x y z
#    x 2.049740 0.000000 0.000000 
#    y 0.000000 2.235530 0.000000 
#    z 0.000000 0.000000 2.038870 
# 
# From -- ./inp_files/68787.got.cif
#   From: 2010.05.17/outbox.cif.g08.bks.cpg/sg66_35_cif.got.tgz:68787.got - 2010.06.03 17:51:23.
