data_PCOD9498430
_publ_section_title
;
Structure prediction by ZEFSAII (Michael W. Deem and Ramdas Pophale) SiO2 
 PCOD9498430
Probable space group: C C C M
;
_chemical_formula_sum "Si O2"
_cell_formula_units_Z 68
_cell_length_a 22.468189
_cell_length_b 9.347940
_cell_length_c 15.161256
_cell_angle_alpha 90.000000
_cell_angle_beta 90.000000
_cell_angle_gamma 90.000000
_cell_volume 3184.338045
_symmetry_space_group_name_H-M "C C C M"
_symmetry_group_IT_number 66
_symmetry_cell_setting 'orthorhombic'
loop_
_space_group_symop_operation_xyz
x,y,z
-x,-y,z
x,-y,1/2-z
-x,y,1/2-z
-x,-y,-z
x,y,-z
-x,y,1/2+z
x,-y,1/2+z
1/2+x,1/2+y,z
1/2-x,1/2-y,z
1/2+x,1/2-y,1/2-z
1/2-x,1/2+y,1/2-z
1/2-x,1/2-y,-z
1/2+x,1/2+y,-z
1/2-x,1/2+y,1/2+z
1/2+x,1/2-y,1/2+z
loop_
_atom_site_type_symbol
_atom_site_label
_atom_site_fract_x
_atom_site_fract_y
_atom_site_fract_z
Si Si1 0.585486 0.629627 0.102064
Si Si2 0.324045 0.902070 0.161281
Si Si3 0.000000 0.000000 0.250000
Si Si4 0.694612 0.563229 0.652566
Si Si5 0.437000 0.949731 0.397409
O O1 0.542264 0.580245 0.180496
O O2 0.644358 0.531155 0.105672
O O3 0.592071 0.797057 0.126631
O O4 0.562815 0.618751 0.000000
O O5 0.320562 0.730281 0.166848
O O6 0.261725 0.945755 0.114664
O O7 0.326278 0.000000 0.250000
O O8 0.385974 0.934780 0.114856
O O9 0.698053 0.500000 0.750000
O O10 0.449171 0.930988 0.500000
O O11 0.500000 0.000000 0.355996
#
# Coordination Sequence:
#
# PCOD9498430 Si02
#       5
#    16  16   4  16  16
#     4  11  25  43  68  99 131 175 223 274 333 396
#     4  10  22  38  66  93 129 178 222 274 334 399
#     4  12  26  44  66  94 136 172 214 268 324 398
#     4  10  21  41  63  97 133 171 224 278 334 391
#     4  10  24  43  62  92 131 171 218 272 333 401
#
# _framework density 21.354517000000001
#
# number of rings (size 3 to 8) (size 9 to 14) (size 15 to 20)
#    0.000    1.647    1.176    1.765    3.294    5.176 
#    0.000    4.706    0.000    0.000    0.000    0.000 
#    0.000    0.000    0.000    0.000    0.000    0.000 
#
# Total GULP energy -189329.953579 kJ/mol
# GULP energy per Si atom -5568.528046 kJ/mol
# Density = 2.130591 g / cm^3
# Si number density = 21.354517 Si / 1000 Ang^3
#
#
#
# Elastic Constant Matrix: (Units=GPa)
#
#
# Indices 1 2 3 4 5 6 
#
# 1 143.9975 84.0576 21.4220 0.0000 0.0000 0.0000
# 2 84.0576 135.2563 13.6411 0.0000 0.0000 0.0000
# 3 21.4220 13.6411 75.7818 0.0000 0.0000 0.0000
# 4 0.0000 0.0000 0.0000 21.1747 0.0000 0.0000
# 5 0.0000 0.0000 0.0000 0.0000 12.3099 0.0000
# 6 0.0000 0.0000 0.0000 0.0000 0.0000 -544.6737
#
#
#
# Elastic Compliance Matrix: (Units=1/GPa)
#
#
# Indices 1 2 3 4 5 6 
#
# 1 0.011172 -0.006747 -0.001944 0.000000 0.000000 0.000000
# 2 -0.006747 0.011605 -0.000182 0.000000 0.000000 0.000000
# 3 -0.001944 -0.000182 0.013778 0.000000 0.000000 0.000000
# 4 0.000000 0.000000 0.000000 0.047226 0.000000 0.000000
# 5 0.000000 0.000000 0.000000 0.000000 0.081235 0.000000
# 6 0.000000 0.000000 0.000000 0.000000 0.000000 -0.001836
#
#
# Mechanical properties :
#
#
# Convention : Reuss Voigt Hill
#
# Bulk Modulus (GPa) = 53.16296 65.91965 59.54130
# Shear Modulus (GPa) = 26.71001 -86.51015 -29.90007
#
# Velocity S-wave (km/s) = 3.54049 -6.37176 -3.74595
# Velocity P-wave (km/s) = 6.45468 4.81625 3.03863
#
# Compressibility (1/GPa) = 0.01881009
#
# Stress axis : x y z
#
# Youngs Moduli (GPa) = 89.50643 86.17047 72.57996
#
# Poissons Ratio (x) = 0.58141 0.14107
# Poissons Ratio (y) = 0.60392 0.01318
# Poissons Ratio (z) = 0.17397 0.01565
#
# Static dielectric constant tensor:
#      x y z
#    x 1.826440 0.000000 0.000000 
#    y 0.000000 0.206310 0.000000 
#    z 0.000000 0.000000 1.470180 
# 
# From -- ./inp_files/42513.got.cif
#   From: 2010.05.17/outbox.cif.g08.bks.cpg/sg66_22_cif.got.tgz:42513.got - 2010.06.03 17:51:23.
