data_PCOD9498562
_publ_section_title
;
Structure prediction by ZEFSAII (Michael W. Deem and Ramdas Pophale) SiO2 
 PCOD9498562
Probable space group: C C C M
;
_chemical_formula_sum "Si O2"
_cell_formula_units_Z 64
_cell_length_a 17.067237
_cell_length_b 5.453272
_cell_length_c 33.288906
_cell_angle_alpha 90.000000
_cell_angle_beta 90.000000
_cell_angle_gamma 90.000000
_cell_volume 3098.274568
_symmetry_space_group_name_H-M "C C C M"
_symmetry_group_IT_number 66
_symmetry_cell_setting 'orthorhombic'
loop_
_space_group_symop_operation_xyz
x,y,z
-x,-y,z
x,-y,1/2-z
-x,y,1/2-z
-x,-y,-z
x,y,-z
-x,y,1/2+z
x,-y,1/2+z
1/2+x,1/2+y,z
1/2-x,1/2-y,z
1/2+x,1/2-y,1/2-z
1/2-x,1/2+y,1/2-z
1/2-x,1/2-y,-z
1/2+x,1/2+y,-z
1/2-x,1/2+y,1/2+z
1/2+x,1/2-y,1/2+z
loop_
_atom_site_type_symbol
_atom_site_label
_atom_site_fract_x
_atom_site_fract_y
_atom_site_fract_z
Si Si1 0.831493 0.399072 0.587020
Si Si2 0.450946 0.249129 0.851833
Si Si3 0.198211 0.498895 0.500000
Si Si4 0.170521 0.115408 0.790079
Si Si5 0.250000 0.250000 0.647204
O O1 0.750000 0.250000 0.585772
O O2 0.898948 0.240800 0.607619
O O3 0.848013 0.491200 0.542087
O O4 0.811176 0.615313 0.618053
O O5 0.500000 0.500000 0.847200
O O6 0.392057 0.224758 0.813992
O O7 0.500000 0.000000 0.854180
O O8 0.250000 0.250000 0.500000
O O9 0.250000 0.750000 0.500000
O O10 0.250000 0.250000 0.776684
O O11 0.135289 0.000000 0.750000
O O12 0.201579 0.927075 0.823661
#
# Coordination Sequence:
#
# PCOD9498562 Si02
#       5
#    16  16   8  16   8
#     4  11  22  41  70  98 133 173 228 277 331 395
#     4  12  27  45  67  97 140 184 220 267 339 407
#     4  10  22  36  66 108 130 160 219 294 331 374
#     4  12  25  42  69 101 127 174 232 286 331 393
#     4  12  18  39  72  96 130 164 226 281 328 386
#
# _framework density 20.656659000000001
#
# number of rings (size 3 to 8) (size 9 to 14) (size 15 to 20)
#    0.000    0.500    7.500    1.500    0.000    0.500 
#    0.000    5.000    0.000    0.000    0.000    0.000 
#    0.000    0.000    0.000    0.000    0.000    0.000 
#
# Total GULP energy -178796.878536 kJ/mol
# GULP energy per Si atom -5587.402454 kJ/mol
# Density = 2.060964 g / cm^3
# Si number density = 20.656659 Si / 1000 Ang^3
#
#
#
# Elastic Constant Matrix: (Units=GPa)
#
#
# Indices 1 2 3 4 5 6 
#
# 1 75.7778 18.8536 22.9960 0.0000 0.0000 0.0000
# 2 18.8536 77.2158 16.4482 0.0000 0.0000 0.0000
# 3 22.9960 16.4482 163.9979 0.0000 0.0000 0.0000
# 4 0.0000 0.0000 0.0000 17.0995 0.0000 0.0000
# 5 0.0000 0.0000 0.0000 0.0000 -17.5010 0.0000
# 6 0.0000 0.0000 0.0000 0.0000 0.0000 38.4624
#
#
#
# Elastic Compliance Matrix: (Units=1/GPa)
#
#
# Indices 1 2 3 4 5 6 
#
# 1 0.014508 -0.003177 -0.001716 0.000000 0.000000 0.000000
# 2 -0.003177 0.013929 -0.000952 0.000000 0.000000 0.000000
# 3 -0.001716 -0.000952 0.006434 0.000000 0.000000 0.000000
# 4 0.000000 0.000000 0.000000 0.058481 0.000000 0.000000
# 5 0.000000 0.000000 0.000000 0.000000 -0.057140 0.000000
# 6 0.000000 0.000000 0.000000 0.000000 0.000000 0.025999
#
#
# Mechanical properties :
#
#
# Convention : Reuss Voigt Hill
#
# Bulk Modulus (GPa) = 43.13653 48.17635 45.65644
# Shear Modulus (GPa) = 61.25436 24.85842 43.05639
#
# Velocity S-wave (km/s) = 5.45142 3.47278 4.57046
# Velocity P-wave (km/s) = 7.78151 6.28119 7.07125
#
# Compressibility (1/GPa) = 0.02318221
#
# Stress axis : x y z
#
# Youngs Moduli (GPa) = 68.92979 71.79220 155.43283
#
# Poissons Ratio (x) = 0.22807 0.26667
# Poissons Ratio (y) = 0.21898 0.14791
# Poissons Ratio (z) = 0.11826 0.06832
#
# Static dielectric constant tensor:
#      x y z
#    x 1.814250 0.000000 0.000000 
#    y 0.000000 1.796540 0.000000 
#    z 0.000000 0.000000 1.729570 
# 
# From -- ./inp_files/69787.got.cif
#   From: 2010.05.17/outbox.cif.g08.bks.cpg/sg66_35_cif.got.tgz:69787.got - 2010.06.03 17:51:23.
