data_PCOD9498402
_publ_section_title
;
Structure prediction by ZEFSAII (Michael W. Deem and Ramdas Pophale) SiO2 
 PCOD9498402
Probable space group: C C C M
;
_chemical_formula_sum "Si O2"
_cell_formula_units_Z 68
_cell_length_a 16.316779
_cell_length_b 21.758677
_cell_length_c 9.676820
_cell_angle_alpha 90.000000
_cell_angle_beta 90.000000
_cell_angle_gamma 90.000000
_cell_volume 3435.576152
_symmetry_space_group_name_H-M "C C C M"
_symmetry_group_IT_number 66
_symmetry_cell_setting 'orthorhombic'
loop_
_space_group_symop_operation_xyz
x,y,z
-x,-y,z
x,-y,1/2-z
-x,y,1/2-z
-x,-y,-z
x,y,-z
-x,y,1/2+z
x,-y,1/2+z
1/2+x,1/2+y,z
1/2-x,1/2-y,z
1/2+x,1/2-y,1/2-z
1/2-x,1/2+y,1/2-z
1/2-x,1/2-y,-z
1/2+x,1/2+y,-z
1/2-x,1/2+y,1/2+z
1/2+x,1/2-y,1/2+z
loop_
_atom_site_type_symbol
_atom_site_label
_atom_site_fract_x
_atom_site_fract_y
_atom_site_fract_z
Si Si1 0.141652 0.088407 0.655881
Si Si2 0.575776 0.163120 0.338795
Si Si3 0.653360 0.733846 0.659241
Si Si4 0.500000 0.500000 0.250000
Si Si5 0.794656 0.555194 0.161064
O O1 0.174896 0.080271 0.500000
O O2 0.132630 0.161809 0.674388
O O3 0.206682 0.067716 0.770392
O O4 0.060637 0.046719 0.669648
O O5 0.500000 0.138781 0.250000
O O6 0.555494 0.170465 0.500000
O O7 0.603125 0.226428 0.268021
O O8 0.650751 0.115855 0.326909
O O9 0.634099 0.751386 0.500000
O O10 0.750000 0.750000 0.678883
O O11 0.832489 0.500000 0.250000
O O12 0.787781 0.539577 0.000000
#
# Coordination Sequence:
#
# PCOD9498402 Si02
#       5
#    16  16  16   4  16
#     4  11  24  42  64  94 134 176 220 268 327 395
#     4  11  25  43  65  97 132 171 218 275 334 398
#     4  10  21  40  67  96 128 172 219 273 334 393
#     4  12  26  40  64 102 140 180 224 260 330 396
#     4  11  24  42  67  95 127 168 217 268 328 396
#
# _framework density 19.792895000000001
#
# number of rings (size 3 to 8) (size 9 to 14) (size 15 to 20)
#    0.000    1.176    3.529    1.765    1.647    5.647 
#    0.000    2.353    0.000    0.000    0.000    0.000 
#    0.000    0.000    0.000    0.000    0.000    0.000 
#
# Total GULP energy -189902.529023 kJ/mol
# GULP energy per Si atom -5585.368501 kJ/mol
# Density = 1.974785 g / cm^3
# Si number density = 19.792895 Si / 1000 Ang^3
#
#
#
# Elastic Constant Matrix: (Units=GPa)
#
#
# Indices 1 2 3 4 5 6 
#
# 1 88.1209 37.7708 51.8938 0.0000 0.0000 0.0000
# 2 37.7708 130.5451 59.9106 0.0000 0.0000 0.0000
# 3 51.8938 59.9106 159.2180 0.0000 0.0000 0.0000
# 4 0.0000 0.0000 0.0000 30.7318 0.0000 0.0000
# 5 0.0000 0.0000 0.0000 0.0000 27.0716 0.0000
# 6 0.0000 0.0000 0.0000 0.0000 0.0000 33.0694
#
#
#
# Elastic Compliance Matrix: (Units=1/GPa)
#
#
# Indices 1 2 3 4 5 6 
#
# 1 0.014679 -0.002480 -0.003851 0.000000 0.000000 0.000000
# 2 -0.002480 0.009678 -0.002833 0.000000 0.000000 0.000000
# 3 -0.003851 -0.002833 0.008602 0.000000 0.000000 0.000000
# 4 0.000000 0.000000 0.000000 0.032540 0.000000 0.000000
# 5 0.000000 0.000000 0.000000 0.000000 0.036939 0.000000
# 6 0.000000 0.000000 0.000000 0.000000 0.000000 0.030239
#
#
# Mechanical properties :
#
#
# Convention : Reuss Voigt Hill
#
# Bulk Modulus (GPa) = 68.35126 75.22604 71.78865
# Shear Modulus (GPa) = 32.07547 33.39515 32.73531
#
# Velocity S-wave (km/s) = 4.02998 4.11205 4.07122
# Velocity P-wave (km/s) = 7.50083 7.78680 7.64516
#
# Compressibility (1/GPa) = 0.01463031
#
# Stress axis : x y z
#
# Youngs Moduli (GPa) = 68.12529 103.32759 116.25076
#
# Poissons Ratio (x) = 0.25621 0.44771
# Poissons Ratio (y) = 0.16892 0.32939
# Poissons Ratio (z) = 0.26237 0.29277
#
# Static dielectric constant tensor:
#      x y z
#    x 1.703640 0.000000 0.000000 
#    y 0.000000 1.726550 0.000000 
#    z 0.000000 0.000000 1.673000 
# 
# From -- ./inp_files/6282.got.cif
#   From: 2010.05.17/outbox.cif.g08.bks.cpg/sg66_4_cif.got.tgz:6282.got - 2010.06.03 17:51:23.
