data_PCOD9498900
_publ_section_title
;
Structure prediction by ZEFSAII (Michael W. Deem and Ramdas Pophale) SiO2 
 PCOD9498900
Probable space group: C C C M
;
_chemical_formula_sum "Si O2"
_cell_formula_units_Z 96
_cell_length_a 16.748384
_cell_length_b 23.167387
_cell_length_c 13.753005
_cell_angle_alpha 90.000000
_cell_angle_beta 90.000000
_cell_angle_gamma 90.000000
_cell_volume 5336.390028
_symmetry_space_group_name_H-M "C C C M"
_symmetry_group_IT_number 66
_symmetry_cell_setting 'orthorhombic'
loop_
_space_group_symop_operation_xyz
x,y,z
-x,-y,z
x,-y,1/2-z
-x,y,1/2-z
-x,-y,-z
x,y,-z
-x,y,1/2+z
x,-y,1/2+z
1/2+x,1/2+y,z
1/2-x,1/2-y,z
1/2+x,1/2-y,1/2-z
1/2-x,1/2+y,1/2-z
1/2-x,1/2-y,-z
1/2+x,1/2+y,-z
1/2-x,1/2+y,1/2+z
1/2+x,1/2-y,1/2+z
loop_
_atom_site_type_symbol
_atom_site_label
_atom_site_fract_x
_atom_site_fract_y
_atom_site_fract_z
Si Si1 0.006442 0.068087 0.887331
Si Si2 0.080696 0.344936 0.690088
Si Si3 0.867988 0.887347 0.729776
Si Si4 0.450472 0.918888 0.000000
Si Si5 0.159069 0.771373 0.113513
Si Si6 0.366002 0.961358 0.500000
Si Si7 0.802444 0.436293 0.290335
O O1 0.070259 0.101568 0.819349
O O2 0.917695 0.088715 0.861572
O O3 0.026450 0.076096 0.000000
O O4 0.000000 0.000000 0.865534
O O5 0.063457 0.381729 0.594698
O O6 0.110660 0.282883 0.655044
O O7 0.143281 0.384102 0.750068
O O8 0.000000 0.338596 0.750000
O O9 0.848535 0.823114 0.691752
O O10 0.787503 0.921074 0.757676
O O11 0.543037 0.937816 0.000000
O O12 0.385673 0.970458 0.000000
O O13 0.250000 0.750000 0.109667
O O14 0.136194 0.785626 0.000000
O O15 0.318185 0.941660 0.405078
O O16 0.825124 0.500000 0.250000
#
# Coordination Sequence:
#
# PCOD9498900 Si02
#       7
#    16  16  16   8  16   8  16
#     4  10  22  43  68  95 126 165 205 263 339 403
#     4  12  24  41  66  93 132 176 218 264 321 383
#     4  11  23  42  64  92 129 160 215 275 322 384
#     4  11  22  42  61  93 135 175 219 260 313 391
#     4  11  24  43  66  91 125 172 226 274 321 378
#     4  11  24  38  64  94 135 175 213 259 325 397
#     4  12  24  40  64  97 129 170 212 264 327 386
#
# _framework density 17.98969
#
# number of rings (size 3 to 8) (size 9 to 14) (size 15 to 20)
#    0.000    0.833    5.833    2.500    3.500    0.333 
#    4.500    0.000    1.833    1.500    0.000    0.000 
#    0.000    0.000    0.000    0.000    0.000    0.000 
#
# Total GULP energy -267723.862004 kJ/mol
# GULP energy per Si atom -5577.580458 kJ/mol
# Density = 1.794874 g / cm^3
# Si number density = 17.989690 Si / 1000 Ang^3
#
#
#
# Elastic Constant Matrix: (Units=GPa)
#
#
# Indices 1 2 3 4 5 6 
#
# 1 86.7092 29.7993 25.9206 0.0000 0.0000 0.0000
# 2 29.7993 105.9209 51.9992 0.0000 0.0000 0.0000
# 3 25.9206 51.9992 140.3858 0.0000 0.0000 0.0000
# 4 0.0000 0.0000 0.0000 36.5565 0.0000 0.0000
# 5 0.0000 0.0000 0.0000 0.0000 17.5287 0.0000
# 6 0.0000 0.0000 0.0000 0.0000 0.0000 79.0888
#
#
#
# Elastic Compliance Matrix: (Units=1/GPa)
#
#
# Indices 1 2 3 4 5 6 
#
# 1 0.012951 -0.003018 -0.001273 0.000000 0.000000 0.000000
# 2 -0.003018 0.012243 -0.003977 0.000000 0.000000 0.000000
# 3 -0.001273 -0.003977 0.008832 0.000000 0.000000 0.000000
# 4 0.000000 0.000000 0.000000 0.027355 0.000000 0.000000
# 5 0.000000 0.000000 0.000000 0.000000 0.057049 0.000000
# 6 0.000000 0.000000 0.000000 0.000000 0.000000 0.012644
#
#
# Mechanical properties :
#
#
# Convention : Reuss Voigt Hill
#
# Bulk Modulus (GPa) = 57.18536 60.93932 59.06234
# Shear Modulus (GPa) = 32.58591 41.65459 37.12025
#
# Velocity S-wave (km/s) = 4.26063 4.81715 4.54741
# Velocity P-wave (km/s) = 7.48738 8.05531 7.77653
#
# Compressibility (1/GPa) = 0.01748699
#
# Stress axis : x y z
#
# Youngs Moduli (GPa) = 77.21555 81.68037 113.23033
#
# Poissons Ratio (x) = 0.24655 0.14416
# Poissons Ratio (y) = 0.23307 0.45037
# Poissons Ratio (z) = 0.09831 0.32488
#
# Static dielectric constant tensor:
#      x y z
#    x 1.613560 0.000000 0.000000 
#    y 0.000000 1.627700 0.000000 
#    z 0.000000 0.000000 1.607710 
# 
# From -- ./inp_files/28452.got.cif
#   From: 2010.05.17/outbox.cif.g08.bks.cpg/sg66_15_cif.got.tgz:28452.got - 2010.06.03 17:51:23.
