data_PCOD9498227
_publ_section_title
;
Structure prediction by ZEFSAII (Michael W. Deem and Ramdas Pophale) SiO2 
 PCOD9498227
Probable space group: C C C M
;
_chemical_formula_sum "Si O2"
_cell_formula_units_Z 96
_cell_length_a 21.281285
_cell_length_b 15.743122
_cell_length_c 15.417471
_cell_angle_alpha 90.000000
_cell_angle_beta 90.000000
_cell_angle_gamma 90.000000
_cell_volume 5165.374914
_symmetry_space_group_name_H-M "C C C M"
_symmetry_group_IT_number 66
_symmetry_cell_setting 'orthorhombic'
loop_
_space_group_symop_operation_xyz
x,y,z
-x,-y,z
x,-y,1/2-z
-x,y,1/2-z
-x,-y,-z
x,y,-z
-x,y,1/2+z
x,-y,1/2+z
1/2+x,1/2+y,z
1/2-x,1/2-y,z
1/2+x,1/2-y,1/2-z
1/2-x,1/2+y,1/2-z
1/2-x,1/2-y,-z
1/2+x,1/2+y,-z
1/2-x,1/2+y,1/2+z
1/2+x,1/2-y,1/2+z
loop_
_atom_site_type_symbol
_atom_site_label
_atom_site_fract_x
_atom_site_fract_y
_atom_site_fract_z
Si Si1 0.319506 0.785663 0.250002
Si Si2 0.862661 0.600607 0.902784
Si Si3 0.424477 0.499999 0.398840
Si Si4 0.500000 0.897307 0.649756
Si Si5 0.576365 0.362468 0.250001
Si Si6 0.862661 0.600616 0.597217
O O1 0.250000 0.750000 0.250009
O O2 0.326823 0.845103 0.333304
O O3 0.376441 0.717172 0.250004
O O4 0.326820 0.845089 0.166690
O O5 0.860113 0.499995 0.882489
O O6 0.935779 0.627952 0.895632
O O7 0.839904 0.612915 0.000000
O O8 0.500000 0.500000 0.405259
O O9 0.400861 0.499998 0.500000
O O10 0.409509 0.580986 0.336670
O O11 0.409509 0.419012 0.336670
O O12 0.500000 0.869795 0.750000
O O13 0.564221 0.872042 0.604371
O O14 0.500000 0.000000 0.649706
O O15 0.500000 0.344753 0.250000
O O16 0.839906 0.612922 0.500000
#
# Coordination Sequence:
#
# PCOD9498227 Si02
#       6
#    16  16  16  16  16  16
#     4  12  26  40  57  86 127 158 193 250 300 345
#     4  10  21  39  62  87 119 160 201 239 288 355
#     4   8  15  35  64  89 113 142 187 246 300 350
#     4   9  15  29  59  92 117 145 190 240 285 337
#     4   9  20  37  60  89 115 147 192 240 295 357
#     4  10  21  39  62  87 119 160 201 239 288 355
#
# _framework density 18.585291000000002
#
# number of rings (size 3 to 8) (size 9 to 14) (size 15 to 20)
#    0.000    2.333    1.667    2.000    2.333    4.000 
#    6.000    0.000    0.000    0.000    0.000    0.000 
#    0.000    0.000    0.000    0.000    0.000    0.000 
#
# Total GULP energy -267540.669831 kJ/mol
# GULP energy per Si atom -5573.763955 kJ/mol
# Density = 1.854299 g / cm^3
# Si number density = 18.585291 Si / 1000 Ang^3
#
#
#
# Elastic Constant Matrix: (Units=GPa)
#
#
# Indices 1 2 3 4 5 6 
#
# 1 90.9801 56.5568 62.3632 0.0000 0.0000 0.0000
# 2 56.5568 86.4715 88.3623 0.0000 0.0000 0.0000
# 3 62.3632 88.3623 156.5523 0.0000 0.0000 0.0000
# 4 0.0000 0.0000 0.0000 -61.8291 0.0000 0.0000
# 5 0.0000 0.0000 0.0000 0.0000 -38.1796 0.0000
# 6 0.0000 0.0000 0.0000 0.0000 0.0000 24.1059
#
#
#
# Elastic Compliance Matrix: (Units=1/GPa)
#
#
# Indices 1 2 3 4 5 6 
#
# 1 0.018631 -0.010873 -0.001285 0.000000 0.000000 0.000000
# 2 -0.010873 0.033669 -0.014673 0.000000 0.000000 0.000000
# 3 -0.001285 -0.014673 0.015181 0.000000 0.000000 0.000000
# 4 0.000000 0.000000 0.000000 -0.016174 0.000000 0.000000
# 5 0.000000 0.000000 0.000000 0.000000 -0.026192 0.000000
# 6 0.000000 0.000000 0.000000 0.000000 0.000000 0.041484
#
#
# Mechanical properties :
#
#
# Convention : Reuss Voigt Hill
#
# Bulk Modulus (GPa) = 72.35379 83.17428 77.76404
# Shear Modulus (GPa) = 40.04263 -6.73246 16.65508
#
# Velocity S-wave (km/s) = 4.64673 -1.90534 2.99681
# Velocity P-wave (km/s) = 8.23436 6.32530 7.34214
#
# Compressibility (1/GPa) = 0.01382098
#
# Stress axis : x y z
#
# Youngs Moduli (GPa) = 53.67390 29.70071 65.87111
#
# Poissons Ratio (x) = 0.32292 0.08464
# Poissons Ratio (y) = 0.58357 0.96651
# Poissons Ratio (z) = 0.06897 0.43579
#
# Static dielectric constant tensor:
#      x y z
#    x 1.626290 0.000000 0.000000 
#    y 0.000000 1.658490 0.000000 
#    z 0.000000 0.000000 1.658340 
# 
# From -- ./inp_files/31194.got.cif
#   From: 2010.05.17/outbox.cif.g08.bks.cpg/sg66_16_cif.got.tgz:31194.got - 2010.06.03 17:51:23.
