data_PCOD9498535
_publ_section_title
;
Structure prediction by ZEFSAII (Michael W. Deem and Ramdas Pophale) SiO2 
 PCOD9498535
Probable space group: C C C M
;
_chemical_formula_sum "Si O2"
_cell_formula_units_Z 104
_cell_length_a 21.762193
_cell_length_b 9.595863
_cell_length_c 28.104887
_cell_angle_alpha 90.000000
_cell_angle_beta 90.000000
_cell_angle_gamma 90.000000
_cell_volume 5869.059873
_symmetry_space_group_name_H-M "C C C M"
_symmetry_group_IT_number 66
_symmetry_cell_setting 'orthorhombic'
loop_
_space_group_symop_operation_xyz
x,y,z
-x,-y,z
x,-y,1/2-z
-x,y,1/2-z
-x,-y,-z
x,y,-z
-x,y,1/2+z
x,-y,1/2+z
1/2+x,1/2+y,z
1/2-x,1/2-y,z
1/2+x,1/2-y,1/2-z
1/2-x,1/2+y,1/2-z
1/2-x,1/2-y,-z
1/2+x,1/2+y,-z
1/2-x,1/2+y,1/2+z
1/2+x,1/2-y,1/2+z
loop_
_atom_site_type_symbol
_atom_site_label
_atom_site_fract_x
_atom_site_fract_y
_atom_site_fract_z
Si Si1 0.807098 0.349302 0.730987
Si Si2 0.504139 0.336295 0.807307
Si Si3 0.650776 0.214953 0.554629
Si Si4 0.229268 0.983154 0.445110
Si Si5 0.877203 0.681174 0.676168
Si Si6 0.900251 0.632971 0.150870
Si Si7 0.250000 0.250000 0.621055
O O1 0.786197 0.500000 0.750000
O O2 0.750000 0.250000 0.735529
O O3 0.861488 0.317349 0.767801
O O4 0.835564 0.339729 0.678528
O O5 0.500000 0.500000 0.817493
O O6 0.500000 0.319805 0.750000
O O7 0.569126 0.291043 0.829656
O O8 0.451848 0.234131 0.827964
O O9 0.628519 0.213611 0.500000
O O10 0.676098 0.370246 0.565656
O O11 0.605275 0.164944 0.595283
O O12 0.708467 0.108546 0.557022
O O13 0.221598 0.029121 0.500000
O O14 0.233959 0.114799 0.410731
O O15 0.905680 0.531933 0.661224
O O16 0.811719 0.711854 0.650912
#
# Coordination Sequence:
#
# PCOD9498535 Si02
#       7
#    16  16  16  16  16  16   8
#     4  10  22  34  52  84 122 156 189 231 296 355
#     4  11  25  43  62  86 116 159 209 246 285 352
#     4   9  19  36  58  88 118 156 203 243 295 354
#     4   9  19  35  56  85 124 160 196 243 295 358
#     4  11  23  39  56  90 122 159 191 245 295 357
#     4  11  22  39  63  82 117 164 201 240 299 354
#     4  12  21  34  60  94 130 150 195 244 308 356
#
# _framework density 17.720044999999999
#
# number of rings (size 3 to 8) (size 9 to 14) (size 15 to 20)
#    0.000    1.692    3.846    1.615    4.308    1.846 
#    0.000    0.000    0.000    4.154    0.000    0.000 
#    0.000    0.000    0.000    0.000    0.000    0.000 
#
# Total GULP energy -289849.426166 kJ/mol
# GULP energy per Si atom -5574.027426 kJ/mol
# Density = 1.767971 g / cm^3
# Si number density = 17.720045 Si / 1000 Ang^3
#
#
#
# Elastic Constant Matrix: (Units=GPa)
#
#
# Indices 1 2 3 4 5 6 
#
# 1 70.9194 65.5329 21.5631 0.0000 0.0000 0.0000
# 2 65.5329 112.4821 42.5920 0.0000 0.0000 0.0000
# 3 21.5631 42.5920 79.6927 0.0000 0.0000 0.0000
# 4 0.0000 0.0000 0.0000 36.1835 0.0000 0.0000
# 5 0.0000 0.0000 0.0000 0.0000 -4.0001 0.0000
# 6 0.0000 0.0000 0.0000 0.0000 0.0000 -68.5159
#
#
#
# Elastic Compliance Matrix: (Units=1/GPa)
#
#
# Indices 1 2 3 4 5 6 
#
# 1 0.030700 -0.018481 0.001570 0.000000 0.000000 0.000000
# 2 -0.018481 0.022271 -0.006902 0.000000 0.000000 0.000000
# 3 0.001570 -0.006902 0.015812 0.000000 0.000000 0.000000
# 4 0.000000 0.000000 0.000000 0.027637 0.000000 0.000000
# 5 0.000000 0.000000 0.000000 0.000000 -0.249994 0.000000
# 6 0.000000 0.000000 0.000000 0.000000 0.000000 -0.014595
#
#
# Mechanical properties :
#
#
# Convention : Reuss Voigt Hill
#
# Bulk Modulus (GPa) = 47.26372 58.05225 52.65799
# Shear Modulus (GPa) = -44.05642 1.62724 -21.21459
#
# Velocity S-wave (km/s) = -4.99164 0.95932 -3.46382
# Velocity P-wave (km/s) = 2.54786 5.83601 3.71264
#
# Compressibility (1/GPa) = 0.02115788
#
# Stress axis : x y z
#
# Youngs Moduli (GPa) = 32.57314 44.90159 63.24207
#
# Poissons Ratio (x) = 0.82981 -0.09931
# Poissons Ratio (y) = 0.60198 0.43651
# Poissons Ratio (z) = -0.05115 0.30992
#
# Static dielectric constant tensor:
#      x y z
#    x 1.577550 0.000000 0.000000 
#    y 0.000000 1.671120 0.000000 
#    z 0.000000 0.000000 1.612440 
# 
# From -- ./inp_files/70189.got.cif
#   From: 2010.05.17/outbox.cif.g08.bks.cpg/sg66_36_cif.got.tgz:70189.got - 2010.06.03 17:51:23.
