data_PCOD9498630
_publ_section_title
;
Structure prediction by ZEFSAII (Michael W. Deem and Ramdas Pophale) SiO2 
 PCOD9498630
Probable space group: C C C M
;
_chemical_formula_sum "Si O2"
_cell_formula_units_Z 88
_cell_length_a 5.083441
_cell_length_b 35.330688
_cell_length_c 24.739312
_cell_angle_alpha 90.000000
_cell_angle_beta 90.000000
_cell_angle_gamma 90.000000
_cell_volume 4443.216751
_symmetry_space_group_name_H-M "C C C M"
_symmetry_group_IT_number 66
_symmetry_cell_setting 'orthorhombic'
loop_
_space_group_symop_operation_xyz
x,y,z
-x,-y,z
x,-y,1/2-z
-x,y,1/2-z
-x,-y,-z
x,y,-z
-x,y,1/2+z
x,-y,1/2+z
1/2+x,1/2+y,z
1/2-x,1/2-y,z
1/2+x,1/2-y,1/2-z
1/2-x,1/2+y,1/2-z
1/2-x,1/2-y,-z
1/2+x,1/2+y,-z
1/2-x,1/2+y,1/2+z
1/2+x,1/2-y,1/2+z
loop_
_atom_site_type_symbol
_atom_site_label
_atom_site_fract_x
_atom_site_fract_y
_atom_site_fract_z
Si Si1 0.313232 0.626241 0.000000
Si Si2 0.637176 0.603989 0.842863
Si Si3 0.500000 0.350177 0.750000
Si Si4 0.380205 0.144633 0.613040
Si Si5 0.751241 0.526280 0.889485
Si Si6 0.841127 0.707914 0.692956
Si Si7 0.318956 0.072946 0.000000
O O1 0.242706 0.649483 0.053892
O O2 0.596514 0.605986 0.000000
O O3 0.105063 0.591772 0.000000
O O4 0.690374 0.622544 0.783935
O O5 0.340329 0.617266 0.858128
O O6 0.684759 0.559549 0.846919
O O7 0.846505 0.622157 0.884049
O O8 0.394798 0.320347 0.706809
O O9 0.453588 0.184193 0.642898
O O10 0.500000 0.500000 0.894496
O O11 0.792051 0.547221 0.946843
O O12 0.000000 0.500000 0.876230
O O13 0.750000 0.750000 0.679826
O O14 0.000000 0.709535 0.750000
#
# Coordination Sequence:
#
# PCOD9498630 Si02
#       7
#     8  16   8  16  16  16   8
#     4  12  20  39  61  88 126 167 214 251 296 374
#     4  11  22  40  61  89 119 161 212 249 311 369
#     4  10  22  38  65  88 120 158 200 260 299 370
#     4  11  22  38  61  90 125 168 204 249 301 375
#     4  12  23  38  57  88 125 158 204 265 315 361
#     4  11  21  37  63  97 126 153 198 261 318 357
#     4  12  22  37  60  88 119 161 210 265 307 358
#
# _framework density 19.80547
#
# number of rings (size 3 to 8) (size 9 to 14) (size 15 to 20)
#    0.000    0.727    6.364    2.727    0.000    0.000 
#    0.000    0.909    0.000    1.091    0.000    5.727 
#    0.000    0.000    0.000    0.000    0.000    0.000 
#
# Total GULP energy -245256.369758 kJ/mol
# GULP energy per Si atom -5574.008404 kJ/mol
# Density = 1.976039 g / cm^3
# Si number density = 19.805470 Si / 1000 Ang^3
#
#
#
# Elastic Constant Matrix: (Units=GPa)
#
#
# Indices 1 2 3 4 5 6 
#
# 1 77.2925 24.3842 0.5915 0.0000 0.0000 0.0000
# 2 24.3842 148.0225 48.7513 0.0000 0.0000 0.0000
# 3 0.5915 48.7513 53.5446 0.0000 0.0000 0.0000
# 4 0.0000 0.0000 0.0000 51.1803 0.0000 0.0000
# 5 0.0000 0.0000 0.0000 0.0000 23.9596 0.0000
# 6 0.0000 0.0000 0.0000 0.0000 0.0000 25.3636
#
#
#
# Elastic Compliance Matrix: (Units=1/GPa)
#
#
# Indices 1 2 3 4 5 6 
#
# 1 0.013928 -0.003205 0.002764 0.000000 0.000000 0.000000
# 2 -0.003205 0.010387 -0.009421 0.000000 0.000000 0.000000
# 3 0.002764 -0.009421 0.027223 0.000000 0.000000 0.000000
# 4 0.000000 0.000000 0.000000 0.019539 0.000000 0.000000
# 5 0.000000 0.000000 0.000000 0.000000 0.041737 0.000000
# 6 0.000000 0.000000 0.000000 0.000000 0.000000 0.039427
#
#
# Mechanical properties :
#
#
# Convention : Reuss Voigt Hill
#
# Bulk Modulus (GPa) = 31.43314 47.36817 39.40065
# Shear Modulus (GPa) = 27.38694 33.77620 30.58157
#
# Velocity S-wave (km/s) = 3.72263 4.13413 3.93376
# Velocity P-wave (km/s) = 5.86368 6.83788 6.36943
#
# Compressibility (1/GPa) = 0.03181356
#
# Stress axis : x y z
#
# Youngs Moduli (GPa) = 71.79926 96.27816 36.73303
#
# Poissons Ratio (x) = 0.30854 -0.10153
# Poissons Ratio (y) = 0.23009 0.34608
# Poissons Ratio (z) = -0.19845 0.90707
#
# Static dielectric constant tensor:
#      x y z
#    x 1.748010 0.000000 0.000000 
#    y 0.000000 1.650830 0.000000 
#    z 0.000000 0.000000 1.851500 
# 
# From -- ./inp_files/54481.got.cif
#   From: 2010.05.17/outbox.cif.g08.bks.cpg/sg66_28_cif.got.tgz:54481.got - 2010.06.03 17:51:23.
