data_PCOD9498403
_publ_section_title
;
Structure prediction by ZEFSAII (Michael W. Deem and Ramdas Pophale) SiO2 
 PCOD9498403
Probable space group: C C C M
;
_chemical_formula_sum "Si O2"
_cell_formula_units_Z 80
_cell_length_a 26.225797
_cell_length_b 8.764580
_cell_length_c 16.124540
_cell_angle_alpha 90.000000
_cell_angle_beta 90.000000
_cell_angle_gamma 90.000000
_cell_volume 3706.356061
_symmetry_space_group_name_H-M "C C C M"
_symmetry_group_IT_number 66
_symmetry_cell_setting 'orthorhombic'
loop_
_space_group_symop_operation_xyz
x,y,z
-x,-y,z
x,-y,1/2-z
-x,y,1/2-z
-x,-y,-z
x,y,-z
-x,y,1/2+z
x,-y,1/2+z
1/2+x,1/2+y,z
1/2-x,1/2-y,z
1/2+x,1/2-y,1/2-z
1/2-x,1/2+y,1/2-z
1/2-x,1/2-y,-z
1/2+x,1/2+y,-z
1/2-x,1/2+y,1/2+z
1/2+x,1/2-y,1/2+z
loop_
_atom_site_type_symbol
_atom_site_label
_atom_site_fract_x
_atom_site_fract_y
_atom_site_fract_z
Si Si1 0.895428 0.613666 0.332272
Si Si2 0.698825 0.336106 0.601389
Si Si3 0.403561 0.809714 0.407703
Si Si4 0.807596 0.191702 0.902599
Si Si5 0.993267 0.170140 0.846805
O O1 0.900432 0.500000 0.250000
O O2 0.896166 0.489238 0.404643
O O3 0.843906 0.710375 0.342836
O O4 0.941110 0.733249 0.351024
O O5 0.700017 0.322958 0.500000
O O6 0.750000 0.250000 0.630935
O O7 0.646624 0.261093 0.634079
O O8 0.695160 0.514091 0.620948
O O9 0.403891 0.747172 0.500000
O O10 0.458397 0.769572 0.372757
O O11 0.750000 0.250000 0.899779
O O12 0.824903 0.202775 0.000000
O O13 0.000000 0.148731 0.750000
O O14 0.000000 0.000000 0.885754
#
# Coordination Sequence:
#
# PCOD9498403 Si02
#       5
#    16  16  16  16  16
#     4  12  24  41  64  93 131 173 212 267 327 394
#     4   9  18  36  63  97 135 169 207 265 331 385
#     4  11  23  39  65  97 125 167 221 271 318 384
#     4  10  21  40  67  97 131 172 218 270 326 386
#     4  11  24  43  65  88 127 173 212 263 332 391
#
# _framework density 21.584543
#
# number of rings (size 3 to 8) (size 9 to 14) (size 15 to 20)
#    0.000    1.400    2.000    3.600    0.000    6.000 
#    0.000    3.000    0.000    0.000    0.000    0.000 
#    0.000    0.000    0.000    0.000    0.000    0.200 
#
# Total GULP energy -222991.644863 kJ/mol
# GULP energy per Si atom -5574.791122 kJ/mol
# Density = 2.153542 g / cm^3
# Si number density = 21.584543 Si / 1000 Ang^3
#
#
#
# Elastic Constant Matrix: (Units=GPa)
#
#
# Indices 1 2 3 4 5 6 
#
# 1 156.7612 78.0189 30.3166 0.0000 0.0000 0.0000
# 2 78.0189 155.3921 15.9930 0.0000 0.0000 0.0000
# 3 30.3166 15.9930 42.6572 0.0000 0.0000 0.0000
# 4 0.0000 0.0000 0.0000 17.9342 0.0000 0.0000
# 5 0.0000 0.0000 0.0000 0.0000 1.8831 0.0000
# 6 0.0000 0.0000 0.0000 0.0000 0.0000 63.2494
#
#
#
# Elastic Compliance Matrix: (Units=1/GPa)
#
#
# Indices 1 2 3 4 5 6 
#
# 1 0.009481 -0.004230 -0.005152 0.000000 0.000000 0.000000
# 2 -0.004230 0.008581 -0.000211 0.000000 0.000000 0.000000
# 3 -0.005152 -0.000211 0.027183 0.000000 0.000000 0.000000
# 4 0.000000 0.000000 0.000000 0.055759 0.000000 0.000000
# 5 0.000000 0.000000 0.000000 0.000000 0.531032 0.000000
# 6 0.000000 0.000000 0.000000 0.000000 0.000000 0.015810
#
#
# Mechanical properties :
#
#
# Convention : Reuss Voigt Hill
#
# Bulk Modulus (GPa) = 38.37431 67.05194 52.71312
# Shear Modulus (GPa) = 7.39953 31.97882 19.68917
#
# Velocity S-wave (km/s) = 1.85354 3.85328 3.02352
# Velocity P-wave (km/s) = 4.73265 7.13647 6.05505
#
# Compressibility (1/GPa) = 0.02605910
#
# Stress axis : x y z
#
# Youngs Moduli (GPa) = 105.47824 116.54043 36.78715
#
# Poissons Ratio (x) = 0.49294 0.18953
# Poissons Ratio (y) = 0.44615 0.00776
# Poissons Ratio (z) = 0.54343 0.02459
#
# Static dielectric constant tensor:
#      x y z
#    x 1.579210 0.000000 0.000000 
#    y 0.000000 1.830570 0.000000 
#    z 0.000000 0.000000 1.868310 
# 
# From -- ./inp_files/44073.got.cif
#   From: 2010.05.17/outbox.cif.g08.bks.cpg/sg66_23_cif.got.tgz:44073.got - 2010.06.03 17:51:23.
