data_PCOD9498029
_publ_section_title
;
Structure prediction by ZEFSAII (Michael W. Deem and Ramdas Pophale) SiO2 
 PCOD9498029
Probable space group: C C C M
;
_chemical_formula_sum "Si O2"
_cell_formula_units_Z 64
_cell_length_a 14.418766
_cell_length_b 5.221102
_cell_length_c 36.543120
_cell_angle_alpha 90.000000
_cell_angle_beta 90.000000
_cell_angle_gamma 90.000000
_cell_volume 2751.033605
_symmetry_space_group_name_H-M "C C C M"
_symmetry_group_IT_number 66
_symmetry_cell_setting 'orthorhombic'
loop_
_space_group_symop_operation_xyz
x,y,z
-x,-y,z
x,-y,1/2-z
-x,y,1/2-z
-x,-y,-z
x,y,-z
-x,y,1/2+z
x,-y,1/2+z
1/2+x,1/2+y,z
1/2-x,1/2-y,z
1/2+x,1/2-y,1/2-z
1/2-x,1/2+y,1/2-z
1/2-x,1/2-y,-z
1/2+x,1/2+y,-z
1/2-x,1/2+y,1/2+z
1/2+x,1/2-y,1/2+z
loop_
_atom_site_type_symbol
_atom_site_label
_atom_site_fract_x
_atom_site_fract_y
_atom_site_fract_z
Si Si1 0.113296 0.994992 0.458429
Si Si2 0.396115 0.763282 0.266811
Si Si3 0.888381 0.493492 0.915325
Si Si4 0.813003 0.501054 0.835419
O O1 0.144639 0.952908 0.500000
O O2 0.141784 0.267918 0.442397
O O3 0.141713 0.766953 0.431378
O O4 0.000000 0.000000 0.459198
O O5 0.359129 0.500000 0.250000
O O6 0.500000 0.760986 0.250000
O O7 0.390339 0.863403 0.308507
O O8 0.341479 0.000000 0.250000
O O9 0.855740 0.433608 0.874479
O O10 0.000000 0.500000 0.914847
O O11 0.750000 0.750000 0.840527
O O12 0.750000 0.250000 0.823882
#
# Coordination Sequence:
#
# PCOD9498029 Si02
#       4
#    16  16  16  16
#     4   9  17  33  59  95 131 167 222 282 321 360
#     4  10  23  44  70  98 124 168 212 274 319 394
#     4  10  21  37  63  96 127 176 222 267 322 386
#     4  12  26  44  67  98 136 173 210 268 333 396
#
# _framework density 23.263983
#
# number of rings (size 3 to 8) (size 9 to 14) (size 15 to 20)
#    0.000    1.750    0.000    3.750    3.500    5.000 
#    9.000    0.000    0.000   15.000    0.000    0.000 
#    0.000    0.000    0.000    0.000    0.000    0.000 
#
# Total GULP energy -178253.099648 kJ/mol
# GULP energy per Si atom -5570.409364 kJ/mol
# Density = 2.321103 g / cm^3
# Si number density = 23.263983 Si / 1000 Ang^3
#
#
#
# Elastic Constant Matrix: (Units=GPa)
#
#
# Indices 1 2 3 4 5 6 
#
# 1 112.0076 17.6850 29.2240 0.0000 0.0000 0.0000
# 2 17.6850 191.5926 27.9565 0.0000 0.0000 0.0000
# 3 29.2240 27.9565 142.4616 0.0000 0.0000 0.0000
# 4 0.0000 0.0000 0.0000 34.9161 0.0000 0.0000
# 5 0.0000 0.0000 0.0000 0.0000 39.4650 0.0000
# 6 0.0000 0.0000 0.0000 0.0000 0.0000 -1.7681
#
#
#
# Elastic Compliance Matrix: (Units=1/GPa)
#
#
# Indices 1 2 3 4 5 6 
#
# 1 0.009502 -0.000610 -0.001829 0.000000 0.000000 0.000000
# 2 -0.000610 0.005412 -0.000937 0.000000 0.000000 0.000000
# 3 -0.001829 -0.000937 0.007579 0.000000 0.000000 0.000000
# 4 0.000000 0.000000 0.000000 0.028640 0.000000 0.000000
# 5 0.000000 0.000000 0.000000 0.000000 0.025339 0.000000
# 6 0.000000 0.000000 0.000000 0.000000 0.000000 -0.565576
#
#
# Mechanical properties :
#
#
# Convention : Reuss Voigt Hill
#
# Bulk Modulus (GPa) = 63.53374 66.19921 64.86647
# Shear Modulus (GPa) = -10.47989 39.26901 14.39456
#
# Velocity S-wave (km/s) = -2.12475 4.11295 2.49016
# Velocity P-wave (km/s) = 4.62058 7.14651 6.01758
#
# Compressibility (1/GPa) = 0.01573967
#
# Stress axis : x y z
#
# Youngs Moduli (GPa) = 105.24540 184.75936 131.95086
#
# Poissons Ratio (x) = 0.11272 0.24139
# Poissons Ratio (y) = 0.06421 0.12363
# Poissons Ratio (z) = 0.19254 0.17312
#
# Static dielectric constant tensor:
#      x y z
#    x 1.906820 0.000000 0.000000 
#    y 0.000000 1.910820 0.000000 
#    z 0.000000 0.000000 2.004500 
# 
# From -- ./inp_files/69769.got.cif
#   From: 2010.05.17/outbox.cif.g08.bks.cpg/sg66_35_cif.got.tgz:69769.got - 2010.06.03 17:51:23.
