data_PCOD9498160
_publ_section_title
;
Structure prediction by ZEFSAII (Michael W. Deem and Ramdas Pophale) SiO2 
 PCOD9498160
Probable space group: C C C M
;
_chemical_formula_sum "Si O2"
_cell_formula_units_Z 96
_cell_length_a 10.265817
_cell_length_b 22.452821
_cell_length_c 18.364362
_cell_angle_alpha 90.000000
_cell_angle_beta 90.000000
_cell_angle_gamma 90.000000
_cell_volume 4232.922112
_symmetry_space_group_name_H-M "C C C M"
_symmetry_group_IT_number 66
_symmetry_cell_setting 'orthorhombic'
loop_
_space_group_symop_operation_xyz
x,y,z
-x,-y,z
x,-y,1/2-z
-x,y,1/2-z
-x,-y,-z
x,y,-z
-x,y,1/2+z
x,-y,1/2+z
1/2+x,1/2+y,z
1/2-x,1/2-y,z
1/2+x,1/2-y,1/2-z
1/2-x,1/2+y,1/2-z
1/2-x,1/2-y,-z
1/2+x,1/2+y,-z
1/2-x,1/2+y,1/2+z
1/2+x,1/2-y,1/2+z
loop_
_atom_site_type_symbol
_atom_site_label
_atom_site_fract_x
_atom_site_fract_y
_atom_site_fract_z
Si Si1 0.349320 0.998232 0.873003
Si Si2 0.488475 0.326721 0.087453
Si Si3 0.407960 0.549492 0.418166
Si Si4 0.359303 0.884104 0.289905
Si Si5 0.772119 0.359488 0.143637
Si Si6 0.038797 0.305875 0.913343
O O1 0.236686 0.025134 0.922721
O O2 0.340367 0.045957 0.806625
O O3 0.500000 0.000000 0.897392
O O4 0.308249 0.929674 0.863667
O O5 0.414667 0.385308 0.116091
O O6 0.638258 0.339951 0.107266
O O7 0.442657 0.262028 0.112668
O O8 0.474620 0.322608 0.000000
O O9 0.500000 0.500000 0.381028
O O10 0.462267 0.557174 0.500000
O O11 0.500000 0.879404 0.250000
O O12 0.265901 0.853383 0.231194
O O13 0.373640 0.849974 0.365891
O O14 0.889928 0.323757 0.106031
O O15 0.061336 0.311801 0.000000
#
# Coordination Sequence:
#
# PCOD9498160 Si02
#       6
#    16  16  16  16  16  16
#     4  12  22  39  66  95 130 171 220 278 340 399
#     4  10  21  42  67  94 135 177 220 276 336 400
#     4  10  22  41  63  94 133 170 212 270 335 398
#     4  10  22  40  61  92 132 174 215 270 335 391
#     4  11  21  37  67  96 129 172 224 280 333 393
#     4  10  21  38  63  96 132 175 226 273 329 396
#
# _framework density 22.679369000000001
#
# number of rings (size 3 to 8) (size 9 to 14) (size 15 to 20)
#    0.000    1.500    5.000    1.500    0.000    3.000 
#    0.000   10.000    0.000    3.000    0.000    0.000 
#    0.000    0.000    0.000    0.000    0.000    0.000 
#
# Total GULP energy -267914.117974 kJ/mol
# GULP energy per Si atom -5581.544124 kJ/mol
# Density = 2.262775 g / cm^3
# Si number density = 22.679369 Si / 1000 Ang^3
#
#
#
# Elastic Constant Matrix: (Units=GPa)
#
#
# Indices 1 2 3 4 5 6 
#
# 1 55.1723 22.3788 1.2916 0.0000 0.0000 0.0000
# 2 22.3788 166.6487 47.6157 0.0000 0.0000 0.0000
# 3 1.2916 47.6157 59.5510 0.0000 0.0000 0.0000
# 4 0.0000 0.0000 0.0000 26.7029 0.0000 0.0000
# 5 0.0000 0.0000 0.0000 0.0000 12.9967 0.0000
# 6 0.0000 0.0000 0.0000 0.0000 0.0000 17.0220
#
#
#
# Elastic Compliance Matrix: (Units=1/GPa)
#
#
# Indices 1 2 3 4 5 6 
#
# 1 0.019380 -0.003217 0.002152 0.000000 0.000000 0.000000
# 2 -0.003217 0.008312 -0.006576 0.000000 0.000000 0.000000
# 3 0.002152 -0.006576 0.022004 0.000000 0.000000 0.000000
# 4 0.000000 0.000000 0.000000 0.037449 0.000000 0.000000
# 5 0.000000 0.000000 0.000000 0.000000 0.076943 0.000000
# 6 0.000000 0.000000 0.000000 0.000000 0.000000 0.058747
#
#
# Mechanical properties :
#
#
# Convention : Reuss Voigt Hill
#
# Bulk Modulus (GPa) = 29.05908 47.10491 38.08199
# Shear Modulus (GPa) = 20.03305 25.35004 22.69154
#
# Velocity S-wave (km/s) = 2.97529 3.34692 3.16656
# Velocity P-wave (km/s) = 4.96427 5.97920 5.49521
#
# Compressibility (1/GPa) = 0.03441265
#
# Stress axis : x y z
#
# Youngs Moduli (GPa) = 51.60038 120.31324 45.44693
#
# Poissons Ratio (x) = 0.38710 -0.09781
# Poissons Ratio (y) = 0.16602 0.29886
# Poissons Ratio (z) = -0.11106 0.79118
#
# Static dielectric constant tensor:
#      x y z
#    x 1.839270 0.000000 0.000000 
#    y 0.000000 1.880460 0.000000 
#    z 0.000000 0.000000 1.873750 
# 
# From -- ./inp_files/48790.got.cif
#   From: 2010.05.17/outbox.cif.g08.bks.cpg/sg66_25_cif.got.tgz:48790.got - 2010.06.03 17:51:23.
