data_PCOD9498043
_publ_section_title
;
Structure prediction by ZEFSAII (Michael W. Deem and Ramdas Pophale) SiO2 
 PCOD9498043
Probable space group: C C C M
;
_chemical_formula_sum "Si O2"
_cell_formula_units_Z 68
_cell_length_a 23.345293
_cell_length_b 5.142060
_cell_length_c 32.519076
_cell_angle_alpha 90.000000
_cell_angle_beta 90.000000
_cell_angle_gamma 90.000000
_cell_volume 3903.684101
_symmetry_space_group_name_H-M "C C C M"
_symmetry_group_IT_number 66
_symmetry_cell_setting 'orthorhombic'
loop_
_space_group_symop_operation_xyz
x,y,z
-x,-y,z
x,-y,1/2-z
-x,y,1/2-z
-x,-y,-z
x,y,-z
-x,y,1/2+z
x,-y,1/2+z
1/2+x,1/2+y,z
1/2-x,1/2-y,z
1/2+x,1/2-y,1/2-z
1/2-x,1/2+y,1/2-z
1/2-x,1/2-y,-z
1/2+x,1/2+y,-z
1/2-x,1/2+y,1/2+z
1/2+x,1/2-y,1/2+z
loop_
_atom_site_type_symbol
_atom_site_label
_atom_site_fract_x
_atom_site_fract_y
_atom_site_fract_z
Si Si1 0.000000 0.500000 0.250000
Si Si2 0.218077 0.498170 0.298997
Si Si3 0.088104 0.367551 0.317363
Si Si4 0.936513 0.876525 0.131833
Si Si5 0.459289 0.249088 0.954512
O O1 0.043372 0.338162 0.279447
O O2 0.228014 0.500000 0.250000
O O3 0.250000 0.750000 0.316117
O O4 0.150395 0.469805 0.304285
O O5 0.250000 0.250000 0.316939
O O6 0.063733 0.603232 0.344796
O O7 0.095851 0.099541 0.342473
O O8 0.919732 0.811058 0.084750
O O9 0.000000 0.000000 0.130152
O O10 0.500000 0.500000 0.957810
O O11 0.500000 0.000000 0.945454
O O12 0.433057 0.206863 0.000000
#
# Coordination Sequence:
#
# PCOD9498043 Si02
#       5
#     4  16  16  16  16
#     4  12  24  38  48  82 106 154 172 212 260 326
#     4  10  21  38  55  71  93 134 185 231 263 293
#     4  12  23  36  53  75 110 138 183 215 258 316
#     4  11  20  33  49  77 109 140 167 214 260 316
#     4   9  17  30  49  71 102 143 177 203 249 317
#
# _framework density 17.419443000000001
#
# number of rings (size 3 to 8) (size 9 to 14) (size 15 to 20)
#    0.000    1.412    3.529    4.235    0.000    1.882 
#    0.000    0.000    0.000    0.000    0.000    0.000 
#    0.000   18.824    0.000    0.000    0.000    0.000 
#
# Total GULP energy -189358.256555 kJ/mol
# GULP energy per Si atom -5569.360487 kJ/mol
# Density = 1.737980 g / cm^3
# Si number density = 17.419443 Si / 1000 Ang^3
#
#
#
# Elastic Constant Matrix: (Units=GPa)
#
#
# Indices 1 2 3 4 5 6 
#
# 1 73.8807 24.0152 11.5204 0.0000 0.0000 0.0000
# 2 24.0152 126.7269 47.1965 0.0000 0.0000 0.0000
# 3 11.5204 47.1965 98.4674 0.0000 0.0000 0.0000
# 4 0.0000 0.0000 0.0000 -16.7727 0.0000 0.0000
# 5 0.0000 0.0000 0.0000 0.0000 7.5226 0.0000
# 6 0.0000 0.0000 0.0000 0.0000 0.0000 23.6965
#
#
#
# Elastic Compliance Matrix: (Units=1/GPa)
#
#
# Indices 1 2 3 4 5 6 
#
# 1 0.014441 -0.002565 -0.000460 0.000000 0.000000 0.000000
# 2 -0.002565 0.010061 -0.004522 0.000000 0.000000 0.000000
# 3 -0.000460 -0.004522 0.012377 0.000000 0.000000 0.000000
# 4 0.000000 0.000000 0.000000 -0.059621 0.000000 0.000000
# 5 0.000000 0.000000 0.000000 0.000000 0.132932 0.000000
# 6 0.000000 0.000000 0.000000 0.000000 0.000000 0.042200
#
#
# Mechanical properties :
#
#
# Convention : Reuss Voigt Hill
#
# Bulk Modulus (GPa) = 45.90512 51.61547 48.76030
# Shear Modulus (GPa) = 28.61262 17.31215 22.96238
#
# Velocity S-wave (km/s) = 4.05726 3.15594 3.63465
# Velocity P-wave (km/s) = 6.95403 6.55555 6.75773
#
# Compressibility (1/GPa) = 0.02178406
#
# Stress axis : x y z
#
# Youngs Moduli (GPa) = 69.24767 99.38991 80.79439
#
# Poissons Ratio (x) = 0.25497 0.03716
# Poissons Ratio (y) = 0.17764 0.36538
# Poissons Ratio (z) = 0.03185 0.44948
#
# Static dielectric constant tensor:
#      x y z
#    x 1.569100 0.000000 0.000000 
#    y 0.000000 1.590170 0.000000 
#    z 0.000000 0.000000 1.670850 
# 
# From -- ./inp_files/67087.got.cif
#   From: 2010.05.17/outbox.cif.g08.bks.cpg/sg66_34_cif.got.tgz:67087.got - 2010.06.03 17:51:23.
