data_PCOD9498434
_publ_section_title
;
Structure prediction by ZEFSAII (Michael W. Deem and Ramdas Pophale) SiO2 
 PCOD9498434
Probable space group: C C C M
;
_chemical_formula_sum "Si O2"
_cell_formula_units_Z 64
_cell_length_a 5.734667
_cell_length_b 19.747877
_cell_length_c 28.487542
_cell_angle_alpha 90.000000
_cell_angle_beta 90.000000
_cell_angle_gamma 90.000000
_cell_volume 3226.142871
_symmetry_space_group_name_H-M "C C C M"
_symmetry_group_IT_number 66
_symmetry_cell_setting 'orthorhombic'
loop_
_space_group_symop_operation_xyz
x,y,z
-x,-y,z
x,-y,1/2-z
-x,y,1/2-z
-x,-y,-z
x,y,-z
-x,y,1/2+z
x,-y,1/2+z
1/2+x,1/2+y,z
1/2-x,1/2-y,z
1/2+x,1/2-y,1/2-z
1/2-x,1/2+y,1/2-z
1/2-x,1/2-y,-z
1/2+x,1/2+y,-z
1/2-x,1/2+y,1/2+z
1/2+x,1/2-y,1/2+z
loop_
_atom_site_type_symbol
_atom_site_label
_atom_site_fract_x
_atom_site_fract_y
_atom_site_fract_z
Si Si1 0.249397 0.457698 0.500000
Si Si2 0.099965 0.075377 0.597719
Si Si3 0.100341 0.574697 0.191292
Si Si4 0.500000 0.638230 0.250000
Si Si5 0.702765 0.325234 0.656217
O O1 0.500000 0.500000 0.500000
O O2 0.269633 0.414693 0.548138
O O3 0.000000 0.500000 0.500000
O O4 0.264085 0.071956 0.642395
O O5 0.908271 0.129887 0.614521
O O6 0.000000 0.000000 0.594892
O O7 0.279684 0.592949 0.233192
O O8 0.000000 0.500000 0.198275
O O9 0.915944 0.633429 0.179136
O O10 0.458833 0.680922 0.297178
O O11 0.750000 0.250000 0.639167
#
# Coordination Sequence:
#
# PCOD9498434 Si02
#       5
#     8  16  16   8  16
#     4  10  22  38  73 109 137 171 228 283 344 413
#     4  10  21  41  65 100 129 170 221 275 339 408
#     4  11  22  41  65  89 133 168 222 285 333 400
#     4  10  26  37  60  90 123 172 234 264 341 394
#     4  11  25  41  63  90 132 176 220 276 339 401
#
# _framework density 19.837933
#
# number of rings (size 3 to 8) (size 9 to 14) (size 15 to 20)
#    0.000    1.500    2.500    1.500    7.000    6.000 
#    0.000    0.625    0.000    1.500    0.000    0.000 
#    0.000    0.000    0.000    0.000    0.000    0.000 
#
# Total GULP energy -178230.196225 kJ/mol
# GULP energy per Si atom -5569.693632 kJ/mol
# Density = 1.979278 g / cm^3
# Si number density = 19.837933 Si / 1000 Ang^3
#
#
#
# Elastic Constant Matrix: (Units=GPa)
#
#
# Indices 1 2 3 4 5 6 
#
# 1 88.8323 52.9559 38.9812 0.0000 0.0000 0.0000
# 2 52.9559 146.3707 46.2605 0.0000 0.0000 0.0000
# 3 38.9812 46.2605 166.2148 0.0000 0.0000 0.0000
# 4 0.0000 0.0000 0.0000 -181.3858 0.0000 0.0000
# 5 0.0000 0.0000 0.0000 0.0000 -9.7650 0.0000
# 6 0.0000 0.0000 0.0000 0.0000 0.0000 22.4682
#
#
#
# Elastic Compliance Matrix: (Units=1/GPa)
#
#
# Indices 1 2 3 4 5 6 
#
# 1 0.015058 -0.004750 -0.002210 0.000000 0.000000 0.000000
# 2 -0.004750 0.008989 -0.001388 0.000000 0.000000 0.000000
# 3 -0.002210 -0.001388 0.006921 0.000000 0.000000 0.000000
# 4 0.000000 0.000000 0.000000 -0.005513 0.000000 0.000000
# 5 0.000000 0.000000 0.000000 0.000000 -0.102407 0.000000
# 6 0.000000 0.000000 0.000000 0.000000 0.000000 0.044507
#
#
# Mechanical properties :
#
#
# Convention : Reuss Voigt Hill
#
# Bulk Modulus (GPa) = 70.05864 75.31257 72.68560
# Shear Modulus (GPa) = -454.86552 -16.18851 -235.52701
#
# Velocity S-wave (km/s) = -15.15878 -2.85974 -10.90795
# Velocity P-wave (km/s) = 16.46185 5.20982 11.04197
#
# Compressibility (1/GPa) = 0.01427376
#
# Stress axis : x y z
#
# Youngs Moduli (GPa) = 66.40913 111.24723 144.49219
#
# Poissons Ratio (x) = 0.52838 0.31927
# Poissons Ratio (y) = 0.31542 0.20054
# Poissons Ratio (z) = 0.14674 0.15440
#
# Static dielectric constant tensor:
#      x y z
#    x 1.751420 0.000000 0.000000 
#    y 0.000000 1.587850 0.000000 
#    z 0.000000 0.000000 1.781700 
# 
# From -- ./inp_files/66975.got.cif
#   From: 2010.05.17/outbox.cif.g08.bks.cpg/sg66_34_cif.got.tgz:66975.got - 2010.06.03 17:51:23.
