data_PCOD9498012
_publ_section_title
;
Structure prediction by ZEFSAII (Michael W. Deem and Ramdas Pophale) SiO2 
 PCOD9498012
Probable space group: C C C M
;
_chemical_formula_sum "Si O2"
_cell_formula_units_Z 64
_cell_length_a 15.425120
_cell_length_b 10.430136
_cell_length_c 15.579339
_cell_angle_alpha 90.000000
_cell_angle_beta 90.000000
_cell_angle_gamma 90.000000
_cell_volume 2506.499083
_symmetry_space_group_name_H-M "C C C M"
_symmetry_group_IT_number 66
_symmetry_cell_setting 'orthorhombic'
loop_
_space_group_symop_operation_xyz
x,y,z
-x,-y,z
x,-y,1/2-z
-x,y,1/2-z
-x,-y,-z
x,y,-z
-x,y,1/2+z
x,-y,1/2+z
1/2+x,1/2+y,z
1/2-x,1/2-y,z
1/2+x,1/2-y,1/2-z
1/2-x,1/2+y,1/2-z
1/2-x,1/2-y,-z
1/2+x,1/2+y,-z
1/2-x,1/2+y,1/2+z
1/2+x,1/2-y,1/2+z
loop_
_atom_site_type_symbol
_atom_site_label
_atom_site_fract_x
_atom_site_fract_y
_atom_site_fract_z
Si Si1 0.150630 0.758106 0.596004
Si Si2 0.876034 0.521797 0.354210
Si Si3 0.796001 0.885239 0.318712
Si Si4 0.030850 0.218284 0.396838
O O1 0.156930 0.810731 0.500000
O O2 0.250000 0.750000 0.625948
O O3 0.117045 0.612280 0.598676
O O4 0.064930 0.820682 0.638739
O O5 0.878993 0.500000 0.250000
O O6 0.779618 0.566517 0.381291
O O7 0.941805 0.635067 0.374560
O O8 0.750000 0.750000 0.291262
O O9 0.888779 0.859448 0.358684
O O10 0.802710 0.000000 0.250000
O O11 0.028546 0.204954 0.500000
#
# Coordination Sequence:
#
# PCOD9498012 Si02
#       4
#    16  16  16  16
#     4  10  22  40  61  88 128 174 216 263 324 391
#     4  10  21  37  61  95 131 167 213 268 326 390
#     4   9  20  39  66  98 135 172 215 270 328 395
#     4  10  21  39  65  95 125 167 224 276 323 384
#
# _framework density 25.533622000000001
#
# number of rings (size 3 to 8) (size 9 to 14) (size 15 to 20)
#    0.000    2.250    0.000    1.500    0.000   17.500 
#    0.000    2.500    0.000    5.250    0.000    0.000 
#    0.000    0.000    0.000    0.000    0.000    2.250 
#
# Total GULP energy -178485.653790 kJ/mol
# GULP energy per Si atom -5577.676681 kJ/mol
# Density = 2.547551 g / cm^3
# Si number density = 25.533622 Si / 1000 Ang^3
#
#
#
# Elastic Constant Matrix: (Units=GPa)
#
#
# Indices 1 2 3 4 5 6 
#
# 1 330.7013 39.5495 38.9842 0.0000 0.0000 0.0000
# 2 39.5495 103.7588 9.3602 0.0000 0.0000 0.0000
# 3 38.9842 9.3602 74.9290 0.0000 0.0000 0.0000
# 4 0.0000 0.0000 0.0000 520.2892 0.0000 0.0000
# 5 0.0000 0.0000 0.0000 0.0000 0.5307 0.0000
# 6 0.0000 0.0000 0.0000 0.0000 0.0000 12.1769
#
#
#
# Elastic Compliance Matrix: (Units=1/GPa)
#
#
# Indices 1 2 3 4 5 6 
#
# 1 0.003348 -0.001132 -0.001600 0.000000 0.000000 0.000000
# 2 -0.001132 0.010130 -0.000677 0.000000 0.000000 0.000000
# 3 -0.001600 -0.000677 0.014263 0.000000 0.000000 0.000000
# 4 0.000000 0.000000 0.000000 0.001922 0.000000 0.000000
# 5 0.000000 0.000000 0.000000 0.000000 1.884448 0.000000
# 6 0.000000 0.000000 0.000000 0.000000 0.000000 0.082122
#
#
# Mechanical properties :
#
#
# Convention : Reuss Voigt Hill
#
# Bulk Modulus (GPa) = 47.79305 76.13076 61.96191
# Shear Modulus (GPa) = 2.48753 134.69905 68.59329
#
# Velocity S-wave (km/s) = 0.98810 7.27105 5.18866
# Velocity P-wave (km/s) = 4.47885 10.01856 7.75988
#
# Compressibility (1/GPa) = 0.02092354
#
# Stress axis : x y z
#
# Youngs Moduli (GPa) = 298.69539 98.71521 70.11055
#
# Poissons Ratio (x) = 0.11172 0.11221
# Poissons Ratio (y) = 0.33804 0.04744
# Poissons Ratio (z) = 0.47805 0.06680
#
# Static dielectric constant tensor:
#      x y z
#    x 2.047450 0.000000 0.000000 
#    y 0.000000 2.139420 0.000000 
#    z 0.000000 0.000000 2.007060 
# 
# From -- ./inp_files/39795.got.cif
#   From: 2010.05.17/outbox.cif.g08.bks.cpg/sg66_20_cif.got.tgz:39795.got - 2010.06.03 17:51:23.
