data_PCOD9498020
_publ_section_title
;
Structure prediction by ZEFSAII (Michael W. Deem and Ramdas Pophale) SiO2 
 PCOD9498020
Probable space group: C C C M
;
_chemical_formula_sum "Si O2"
_cell_formula_units_Z 64
_cell_length_a 11.094303
_cell_length_b 17.512257
_cell_length_c 17.684612
_cell_angle_alpha 90.000000
_cell_angle_beta 90.000000
_cell_angle_gamma 90.000000
_cell_volume 3435.877574
_symmetry_space_group_name_H-M "C C C M"
_symmetry_group_IT_number 66
_symmetry_cell_setting 'orthorhombic'
loop_
_space_group_symop_operation_xyz
x,y,z
-x,-y,z
x,-y,1/2-z
-x,y,1/2-z
-x,-y,-z
x,y,-z
-x,y,1/2+z
x,-y,1/2+z
1/2+x,1/2+y,z
1/2-x,1/2-y,z
1/2+x,1/2-y,1/2-z
1/2-x,1/2+y,1/2-z
1/2-x,1/2-y,-z
1/2+x,1/2+y,-z
1/2-x,1/2+y,1/2+z
1/2+x,1/2-y,1/2+z
loop_
_atom_site_type_symbol
_atom_site_label
_atom_site_fract_x
_atom_site_fract_y
_atom_site_fract_z
Si Si1 0.165517 0.504851 0.835735
Si Si2 0.525938 0.882865 0.090114
Si Si3 0.566337 0.570880 0.331912
Si Si4 0.110847 0.769161 0.908776
O O1 0.122510 0.500000 0.750000
O O2 0.143501 0.421068 0.871735
O O3 0.297392 0.540314 0.828924
O O4 0.083894 0.561970 0.884927
O O5 0.480971 0.798845 0.113170
O O6 0.539741 0.884594 0.000000
O O7 0.500000 0.500000 0.372108
O O8 0.500000 0.579615 0.250000
O O9 0.569104 0.651366 0.373416
O O10 0.250000 0.750000 0.886348
O O11 0.110672 0.774236 0.000000
#
# Coordination Sequence:
#
# PCOD9498020 Si02
#       4
#    16  16  16  16
#     4  11  20  36  61  89 123 156 200 253 305 358
#     4  10  21  37  62  94 121 152 204 256 304 363
#     4  11  23  41  59  87 126 163 204 249 305 373
#     4  10  21  40  64  91 122 159 204 250 304 367
#
# _framework density 18.626974000000001
#
# number of rings (size 3 to 8) (size 9 to 14) (size 15 to 20)
#    0.000    1.500    5.000    3.000    0.000    3.500 
#    0.000    1.250    0.000    3.000    0.000    0.000 
#    0.000    0.000    0.000    0.000    0.000    0.000 
#
# Total GULP energy -178279.223517 kJ/mol
# GULP energy per Si atom -5571.225735 kJ/mol
# Density = 1.858458 g / cm^3
# Si number density = 18.626974 Si / 1000 Ang^3
#
#
#
# Elastic Constant Matrix: (Units=GPa)
#
#
# Indices 1 2 3 4 5 6 
#
# 1 84.3291 52.0467 21.7676 0.0000 0.0000 0.0000
# 2 52.0467 194.7423 51.3145 0.0000 0.0000 0.0000
# 3 21.7676 51.3145 51.0109 0.0000 0.0000 0.0000
# 4 0.0000 0.0000 0.0000 32.4490 0.0000 0.0000
# 5 0.0000 0.0000 0.0000 0.0000 -0.1514 0.0000
# 6 0.0000 0.0000 0.0000 0.0000 0.0000 34.2937
#
#
#
# Elastic Compliance Matrix: (Units=1/GPa)
#
#
# Indices 1 2 3 4 5 6 
#
# 1 0.014558 -0.003067 -0.003127 0.000000 0.000000 0.000000
# 2 -0.003067 0.007633 -0.006370 0.000000 0.000000 0.000000
# 3 -0.003127 -0.006370 0.027346 0.000000 0.000000 0.000000
# 4 0.000000 0.000000 0.000000 0.030818 0.000000 0.000000
# 5 0.000000 0.000000 0.000000 0.000000 -6.606497 0.000000
# 6 0.000000 0.000000 0.000000 0.000000 0.000000 0.029160
#
#
# Mechanical properties :
#
#
# Convention : Reuss Voigt Hill
#
# Bulk Modulus (GPa) = 40.96786 64.48221 52.72503
# Shear Modulus (GPa) = -0.77355 26.98183 13.10414
#
# Velocity S-wave (km/s) = -0.64512 3.81009 2.65524
# Velocity P-wave (km/s) = 4.63537 7.35177 6.14554
#
# Compressibility (1/GPa) = 0.02440938
#
# Stress axis : x y z
#
# Youngs Moduli (GPa) = 68.68912 131.00891 36.56850
#
# Poissons Ratio (x) = 0.40178 0.11436
# Poissons Ratio (y) = 0.21066 0.23294
# Poissons Ratio (z) = 0.21482 0.83450
#
# Static dielectric constant tensor:
#      x y z
#    x 1.737860 0.000000 0.000000 
#    y 0.000000 1.660970 0.000000 
#    z 0.000000 0.000000 1.634740 
# 
# From -- ./inp_files/25770.got.cif
#   From: 2010.05.17/outbox.cif.g08.bks.cpg/sg66_13_cif.got.tgz:25770.got - 2010.06.03 17:51:23.
