data_PCOD9498193
_publ_section_title
;
Structure prediction by ZEFSAII (Michael W. Deem and Ramdas Pophale) SiO2 
 PCOD9498193
Probable space group: C C C M
;
_chemical_formula_sum "Si O2"
_cell_formula_units_Z 104
_cell_length_a 18.727133
_cell_length_b 9.397328
_cell_length_c 30.625023
_cell_angle_alpha 90.000000
_cell_angle_beta 90.000000
_cell_angle_gamma 90.000000
_cell_volume 5389.545019
_symmetry_space_group_name_H-M "C C C M"
_symmetry_group_IT_number 66
_symmetry_cell_setting 'orthorhombic'
loop_
_space_group_symop_operation_xyz
x,y,z
-x,-y,z
x,-y,1/2-z
-x,y,1/2-z
-x,-y,-z
x,y,-z
-x,y,1/2+z
x,-y,1/2+z
1/2+x,1/2+y,z
1/2-x,1/2-y,z
1/2+x,1/2-y,1/2-z
1/2-x,1/2+y,1/2-z
1/2-x,1/2-y,-z
1/2+x,1/2+y,-z
1/2-x,1/2+y,1/2+z
1/2+x,1/2-y,1/2+z
loop_
_atom_site_type_symbol
_atom_site_label
_atom_site_fract_x
_atom_site_fract_y
_atom_site_fract_z
Si Si1 0.164207 0.764832 0.449451
Si Si2 0.250000 0.750000 0.681475
Si Si3 0.459989 0.278434 0.177261
Si Si4 0.580801 0.039008 0.391545
Si Si5 0.626059 0.236246 0.157458
Si Si6 0.631039 0.160151 0.252649
Si Si7 0.148747 0.959447 0.628492
O O1 0.143401 0.775461 0.500000
O O2 0.250000 0.750000 0.447310
O O3 0.125440 0.630949 0.426216
O O4 0.143727 0.902709 0.420749
O O5 0.304686 0.830278 0.713082
O O6 0.209636 0.864461 0.651673
O O7 0.430630 0.141306 0.150313
O O8 0.543862 0.271278 0.170603
O O9 0.428800 0.261334 0.225792
O O10 0.422814 0.411740 0.154059
O O11 0.500000 0.000000 0.406727
O O12 0.621255 0.898980 0.374485
O O13 0.658120 0.202316 0.204812
O O14 0.659659 0.374054 0.135007
O O15 0.601959 0.000000 0.250000
#
# Coordination Sequence:
#
# PCOD9498193 Si02
#       7
#    16   8  16  16  16  16  16
#     4  10  21  41  67  87 113 157 196 236 307 386
#     4  10  24  38  51  76 124 158 203 234 292 346
#     4   9  19  36  56  81 120 160 201 239 292 345
#     4   9  19  37  60  90 121 153 194 246 301 353
#     4  11  21  34  60  89 113 156 203 251 289 333
#     4  11  22  34  53  81 120 164 201 245 281 340
#     4  10  21  39  59  84 118 156 195 245 298 358
#
# _framework density 19.296617999999999
#
# number of rings (size 3 to 8) (size 9 to 14) (size 15 to 20)
#    0.000    2.000    2.308    0.923    2.154    2.769 
#    0.000    3.846    0.000   13.846    0.000    0.000 
#    0.000    0.000    0.000    0.000    0.000    0.000 
#
# Total GULP energy -290354.197062 kJ/mol
# GULP energy per Si atom -5583.734559 kJ/mol
# Density = 1.925270 g / cm^3
# Si number density = 19.296618 Si / 1000 Ang^3
#
#
#
# Elastic Constant Matrix: (Units=GPa)
#
#
# Indices 1 2 3 4 5 6 
#
# 1 59.3164 7.8985 30.3059 0.0000 0.0000 0.0000
# 2 7.8985 124.2896 61.1422 0.0000 0.0000 0.0000
# 3 30.3059 61.1422 147.7660 0.0000 0.0000 0.0000
# 4 0.0000 0.0000 0.0000 12.1720 0.0000 0.0000
# 5 0.0000 0.0000 0.0000 0.0000 19.8071 0.0000
# 6 0.0000 0.0000 0.0000 0.0000 0.0000 20.7775
#
#
#
# Elastic Compliance Matrix: (Units=1/GPa)
#
#
# Indices 1 2 3 4 5 6 
#
# 1 0.018910 0.000887 -0.004245 0.000000 0.000000 0.000000
# 2 0.000887 0.010144 -0.004379 0.000000 0.000000 0.000000
# 3 -0.004245 -0.004379 0.009450 0.000000 0.000000 0.000000
# 4 0.000000 0.000000 0.000000 0.082156 0.000000 0.000000
# 5 0.000000 0.000000 0.000000 0.000000 0.050487 0.000000
# 6 0.000000 0.000000 0.000000 0.000000 0.000000 0.048129
#
#
# Mechanical properties :
#
#
# Convention : Reuss Voigt Hill
#
# Bulk Modulus (GPa) = 43.42504 58.89615 51.16060
# Shear Modulus (GPa) = 20.62488 26.01970 23.32229
#
# Velocity S-wave (km/s) = 3.27285 3.67605 3.48029
# Velocity P-wave (km/s) = 6.06917 6.97177 6.53607
#
# Compressibility (1/GPa) = 0.02302819
#
# Stress axis : x y z
#
# Youngs Moduli (GPa) = 52.88323 98.58466 105.81968
#
# Poissons Ratio (x) = -0.08741 0.44922
# Poissons Ratio (y) = -0.04689 0.46339
# Poissons Ratio (z) = 0.22449 0.43170
#
# Static dielectric constant tensor:
#      x y z
#    x 1.732300 0.000000 0.000000 
#    y 0.000000 1.688210 0.000000 
#    z 0.000000 0.000000 1.651180 
# 
# From -- ./inp_files/70200.got.cif
#   From: 2010.05.17/outbox.cif.g08.bks.cpg/sg66_36_cif.got.tgz:70200.got - 2010.06.03 17:51:23.
