data_PCOD9498588
_publ_section_title
;
Structure prediction by ZEFSAII (Michael W. Deem and Ramdas Pophale) SiO2 
 PCOD9498588
Probable space group: C C C M
;
_chemical_formula_sum "Si O2"
_cell_formula_units_Z 48
_cell_length_a 8.157806
_cell_length_b 21.439639
_cell_length_c 11.155101
_cell_angle_alpha 90.000000
_cell_angle_beta 90.000000
_cell_angle_gamma 90.000000
_cell_volume 1951.031802
_symmetry_space_group_name_H-M "C C C M"
_symmetry_group_IT_number 66
_symmetry_cell_setting 'orthorhombic'
loop_
_space_group_symop_operation_xyz
x,y,z
-x,-y,z
x,-y,1/2-z
-x,y,1/2-z
-x,-y,-z
x,y,-z
-x,y,1/2+z
x,-y,1/2+z
1/2+x,1/2+y,z
1/2-x,1/2-y,z
1/2+x,1/2-y,1/2-z
1/2-x,1/2+y,1/2-z
1/2-x,1/2-y,-z
1/2+x,1/2+y,-z
1/2-x,1/2+y,1/2+z
1/2+x,1/2-y,1/2+z
loop_
_atom_site_type_symbol
_atom_site_label
_atom_site_fract_x
_atom_site_fract_y
_atom_site_fract_z
Si Si1 0.928268 0.219665 0.500000
Si Si2 0.683962 0.122765 0.757013
Si Si3 0.827712 0.540507 0.500000
Si Si4 0.000000 0.787990 0.750000
Si Si5 0.801350 0.082165 0.500000
O O1 0.750000 0.250000 0.500000
O O2 0.007120 0.242895 0.620886
O O3 0.921366 0.143228 0.500000
O O4 0.500000 0.147411 0.750000
O O5 0.688389 0.080877 0.877708
O O6 0.832783 0.171513 0.754051
O O7 0.709897 0.089597 0.628031
O O8 0.676338 0.491966 0.500000
O O9 0.000000 0.500000 0.500000
#
# Coordination Sequence:
#
# PCOD9498588 Si02
#       5
#     8  16   8   8   8
#     4  10  23  50  71 100 141 172 240 307 337 413
#     4  11  21  39  65  94 140 176 221 271 335 410
#     4  12  21  35  62  97 139 183 222 266 338 414
#     4  10  24  46  73 102 136 180 229 282 352 414
#     4  10  22  37  63  92 131 176 219 280 329 395
#
# _framework density 24.602367999999998
#
# number of rings (size 3 to 8) (size 9 to 14) (size 15 to 20)
#    0.000    1.333    3.333    2.000    0.000    0.000 
#   12.000   20.833    0.000    0.000    0.000    0.000 
#    0.000    0.000    0.000    0.000    0.000    0.000 
#
# Total GULP energy -133815.120043 kJ/mol
# GULP energy per Si atom -5575.630002 kJ/mol
# Density = 2.454637 g / cm^3
# Si number density = 24.602368 Si / 1000 Ang^3
#
#
#
# Elastic Constant Matrix: (Units=GPa)
#
#
# Indices 1 2 3 4 5 6 
#
# 1 109.6818 5.9229 34.3124 0.0000 0.0000 0.0000
# 2 5.9229 89.1852 63.0886 0.0000 0.0000 0.0000
# 3 34.3124 63.0886 310.8545 0.0000 0.0000 0.0000
# 4 0.0000 0.0000 0.0000 32.2928 0.0000 0.0000
# 5 0.0000 0.0000 0.0000 0.0000 5.5001 0.0000
# 6 0.0000 0.0000 0.0000 0.0000 0.0000 21.7178
#
#
#
# Elastic Compliance Matrix: (Units=1/GPa)
#
#
# Indices 1 2 3 4 5 6 
#
# 1 0.009445 0.000129 -0.001069 0.000000 0.000000 0.000000
# 2 0.000129 0.013094 -0.002672 0.000000 0.000000 0.000000
# 3 -0.001069 -0.002672 0.003877 0.000000 0.000000 0.000000
# 4 0.000000 0.000000 0.000000 0.030967 0.000000 0.000000
# 5 0.000000 0.000000 0.000000 0.000000 0.181814 0.000000
# 6 0.000000 0.000000 0.000000 0.000000 0.000000 0.046045
#
#
# Mechanical properties :
#
#
# Convention : Reuss Voigt Hill
#
# Bulk Modulus (GPa) = 52.10348 79.59656 65.85002
# Shear Modulus (GPa) = 16.73010 38.99534 27.86272
#
# Velocity S-wave (km/s) = 2.61055 3.98555 3.36895
# Velocity P-wave (km/s) = 5.50553 7.32141 6.47741
#
# Compressibility (1/GPa) = 0.01919258
#
# Stress axis : x y z
#
# Youngs Moduli (GPa) = 105.88015 76.37101 257.92381
#
# Poissons Ratio (x) = -0.00983 0.27562
# Poissons Ratio (y) = -0.01363 0.68908
# Poissons Ratio (z) = 0.11315 0.20404
#
# Static dielectric constant tensor:
#      x y z
#    x 1.992730 0.000000 0.000000 
#    y 0.000000 2.072090 0.000000 
#    z 0.000000 0.000000 1.920350 
# 
# From -- ./inp_files/13206.got.cif
#   From: 2010.05.17/outbox.cif.g08.bks.cpg/sg66_7_cif.got.tgz:13206.got - 2010.06.03 17:51:23.
