data_PCOD9498063
_publ_section_title
;
Structure prediction by ZEFSAII (Michael W. Deem and Ramdas Pophale) SiO2 
 PCOD9498063
Probable space group: C C C M
;
_chemical_formula_sum "Si O2"
_cell_formula_units_Z 80
_cell_length_a 31.632596
_cell_length_b 7.514021
_cell_length_c 14.593156
_cell_angle_alpha 90.000000
_cell_angle_beta 90.000000
_cell_angle_gamma 90.000000
_cell_volume 3468.617927
_symmetry_space_group_name_H-M "C C C M"
_symmetry_group_IT_number 66
_symmetry_cell_setting 'orthorhombic'
loop_
_space_group_symop_operation_xyz
x,y,z
-x,-y,z
x,-y,1/2-z
-x,y,1/2-z
-x,-y,-z
x,y,-z
-x,y,1/2+z
x,-y,1/2+z
1/2+x,1/2+y,z
1/2-x,1/2-y,z
1/2+x,1/2-y,1/2-z
1/2-x,1/2+y,1/2-z
1/2-x,1/2-y,-z
1/2+x,1/2+y,-z
1/2-x,1/2+y,1/2+z
1/2+x,1/2-y,1/2+z
loop_
_atom_site_type_symbol
_atom_site_label
_atom_site_fract_x
_atom_site_fract_y
_atom_site_fract_z
Si Si1 0.453940 0.960964 0.392594
Si Si2 0.546798 0.544547 0.141451
Si Si3 0.703598 0.232772 0.894116
Si Si4 0.363574 0.955810 0.389254
Si Si5 0.138533 0.966257 0.642138
O O1 0.455954 0.012073 0.500000
O O2 0.449128 0.751336 0.380320
O O3 0.409256 0.029164 0.354727
O O4 0.500000 0.000000 0.352152
O O5 0.500000 0.500000 0.105079
O O6 0.545572 0.500000 0.250000
O O7 0.591952 0.470817 0.106751
O O8 0.750000 0.250000 0.850952
O O9 0.676860 0.415094 0.894287
O O10 0.673459 0.081141 0.852911
O O11 0.710421 0.178290 0.000000
O O12 0.365556 0.973346 0.500000
O O13 0.356895 0.745701 0.372517
O O14 0.138035 0.000000 0.750000
#
# Coordination Sequence:
#
# PCOD9498063 Si02
#       5
#    16  16  16  16  16
#     4   9  18  32  53  84 113 143 186 234 285 332
#     4   9  19  35  53  77 115 152 189 226 277 344
#     4  10  22  40  62  87 113 151 198 237 288 348
#     4   9  19  37  59  84 117 151 188 238 288 341
#     4  10  21  38  58  85 118 152 192 242 289 340
#
# _framework density 23.063942000000001
#
# number of rings (size 3 to 8) (size 9 to 14) (size 15 to 20)
#    0.000    2.600    0.000    0.600    2.800    2.800 
#    3.600    5.000    0.000    0.000    0.000    0.000 
#    0.000    0.000    0.000    0.000    0.000    0.000 
#
# Total GULP energy -223033.646522 kJ/mol
# GULP energy per Si atom -5575.841163 kJ/mol
# Density = 2.301145 g / cm^3
# Si number density = 23.063942 Si / 1000 Ang^3
#
#
#
# Elastic Constant Matrix: (Units=GPa)
#
#
# Indices 1 2 3 4 5 6 
#
# 1 274.6103 82.8373 3.6366 0.0000 0.0000 0.0000
# 2 82.8373 90.6398 -18.2814 0.0000 0.0000 0.0000
# 3 3.6366 -18.2814 80.4493 0.0000 0.0000 0.0000
# 4 0.0000 0.0000 0.0000 40.0801 0.0000 0.0000
# 5 0.0000 0.0000 0.0000 0.0000 -338.8867 0.0000
# 6 0.0000 0.0000 0.0000 0.0000 0.0000 35.3479
#
#
#
# Elastic Compliance Matrix: (Units=1/GPa)
#
#
# Indices 1 2 3 4 5 6 
#
# 1 0.005168 -0.004999 -0.001370 0.000000 0.000000 0.000000
# 2 -0.004999 0.016399 0.003952 0.000000 0.000000 0.000000
# 3 -0.001370 0.003952 0.013390 0.000000 0.000000 0.000000
# 4 0.000000 0.000000 0.000000 0.024950 0.000000 0.000000
# 5 0.000000 0.000000 0.000000 0.000000 -0.002951 0.000000
# 6 0.000000 0.000000 0.000000 0.000000 0.000000 0.028290
#
#
# Mechanical properties :
#
#
# Convention : Reuss Voigt Hill
#
# Bulk Modulus (GPa) = 33.19607 64.67602 48.93604
# Shear Modulus (GPa) = 49.94025 -27.52462 11.20782
#
# Velocity S-wave (km/s) = 4.65832 -3.45832 2.20681
# Velocity P-wave (km/s) = 6.58465 3.48659 5.26849
#
# Compressibility (1/GPa) = 0.03012405
#
# Stress axis : x y z
#
# Youngs Moduli (GPa) = 193.51203 60.98097 74.68117
#
# Poissons Ratio (x) = 0.30485 0.10228
# Poissons Ratio (y) = 0.96737 -0.29517
# Poissons Ratio (z) = 0.26503 -0.24102
#
# Static dielectric constant tensor:
#      x y z
#    x 1.981740 0.000000 0.000000 
#    y 0.000000 1.809840 0.000000 
#    z 0.000000 0.000000 1.931950 
# 
# From -- ./inp_files/44596.got.cif
#   From: 2010.05.17/outbox.cif.g08.bks.cpg/sg66_23_cif.got.tgz:44596.got - 2010.06.03 17:51:23.
