data_PCOD9498108
_publ_section_title
;
Structure prediction by ZEFSAII (Michael W. Deem and Ramdas Pophale) SiO2 
 PCOD9498108
Probable space group: C C C M
;
_chemical_formula_sum "Si O2"
_cell_formula_units_Z 72
_cell_length_a 16.263898
_cell_length_b 8.404862
_cell_length_c 25.912804
_cell_angle_alpha 90.000000
_cell_angle_beta 90.000000
_cell_angle_gamma 90.000000
_cell_volume 3542.171947
_symmetry_space_group_name_H-M "C C C M"
_symmetry_group_IT_number 66
_symmetry_cell_setting 'orthorhombic'
loop_
_space_group_symop_operation_xyz
x,y,z
-x,-y,z
x,-y,1/2-z
-x,y,1/2-z
-x,-y,-z
x,y,-z
-x,y,1/2+z
x,-y,1/2+z
1/2+x,1/2+y,z
1/2-x,1/2-y,z
1/2+x,1/2-y,1/2-z
1/2-x,1/2+y,1/2-z
1/2-x,1/2-y,-z
1/2+x,1/2+y,-z
1/2-x,1/2+y,1/2+z
1/2+x,1/2-y,1/2+z
loop_
_atom_site_type_symbol
_atom_site_label
_atom_site_fract_x
_atom_site_fract_y
_atom_site_fract_z
Si Si1 0.172112 0.868426 0.555568
Si Si2 0.073300 0.613965 0.604654
Si Si3 0.451449 0.331383 0.202778
Si Si4 0.260456 0.933657 0.137774
Si Si5 0.798341 0.000000 0.250000
O O1 0.167965 0.952926 0.500000
O O2 0.250000 0.750000 0.554116
O O3 0.096694 0.749641 0.563776
O O4 0.188555 0.974938 0.605995
O O5 0.049728 0.714895 0.655155
O O6 0.154122 0.509980 0.618689
O O7 0.000000 0.500000 0.588621
O O8 0.500000 0.500000 0.192064
O O9 0.500000 0.254438 0.250000
O O10 0.361155 0.370905 0.225232
O O11 0.250000 0.750000 0.124528
O O12 0.252251 0.949003 0.199705
#
# Coordination Sequence:
#
# PCOD9498108 Si02
#       5
#    16  16  16  16   8
#     4   9  20  43  66  87 120 161 209 260 312 362
#     4  11  24  38  61  94 125 160 207 250 314 367
#     4   9  21  38  59  87 125 171 194 254 309 362
#     4  11  25  38  63  93 123 165 205 257 299 370
#     4  10  21  38  61  86 128 164 210 242 303 376
#
# _framework density 20.326512000000001
#
# number of rings (size 3 to 8) (size 9 to 14) (size 15 to 20)
#    0.000    2.222    2.222    0.000    9.333    1.333 
#    0.000    0.000    0.000    4.667    0.000    0.000 
#    0.000    0.000    0.000    0.000    0.000    0.000 
#
# Total GULP energy -200779.974863 kJ/mol
# GULP energy per Si atom -5577.221524 kJ/mol
# Density = 2.028025 g / cm^3
# Si number density = 20.326512 Si / 1000 Ang^3
#
#
#
# Elastic Constant Matrix: (Units=GPa)
#
#
# Indices 1 2 3 4 5 6 
#
# 1 67.3213 23.4899 9.4974 0.0000 0.0000 0.0000
# 2 23.4899 83.9101 36.8001 0.0000 0.0000 0.0000
# 3 9.4974 36.8001 104.6912 0.0000 0.0000 0.0000
# 4 0.0000 0.0000 0.0000 17.8468 0.0000 0.0000
# 5 0.0000 0.0000 0.0000 0.0000 5.6728 0.0000
# 6 0.0000 0.0000 0.0000 0.0000 0.0000 23.6128
#
#
#
# Elastic Compliance Matrix: (Units=1/GPa)
#
#
# Indices 1 2 3 4 5 6 
#
# 1 0.016464 -0.004675 0.000150 0.000000 0.000000 0.000000
# 2 -0.004675 0.015417 -0.004995 0.000000 0.000000 0.000000
# 3 0.000150 -0.004995 0.011294 0.000000 0.000000 0.000000
# 4 0.000000 0.000000 0.000000 0.056033 0.000000 0.000000
# 5 0.000000 0.000000 0.000000 0.000000 0.176280 0.000000
# 6 0.000000 0.000000 0.000000 0.000000 0.000000 0.042350
#
#
# Mechanical properties :
#
#
# Convention : Reuss Voigt Hill
#
# Bulk Modulus (GPa) = 41.43387 43.94415 42.68901
# Shear Modulus (GPa) = 14.49600 21.83550 18.16575
#
# Velocity S-wave (km/s) = 2.67340 3.28111 2.99272
# Velocity P-wave (km/s) = 5.47337 6.00169 5.74361
#
# Compressibility (1/GPa) = 0.02413484
#
# Stress axis : x y z
#
# Youngs Moduli (GPa) = 60.73825 64.86433 88.54130
#
# Poissons Ratio (x) = 0.30321 -0.01324
# Poissons Ratio (y) = 0.28393 0.44227
# Poissons Ratio (z) = -0.00908 0.32400
#
# Static dielectric constant tensor:
#      x y z
#    x 1.760450 0.000000 0.000000 
#    y 0.000000 1.721350 0.000000 
#    z 0.000000 0.000000 1.714630 
# 
# From -- ./inp_files/64314.got.cif
#   From: 2010.05.17/outbox.cif.g08.bks.cpg/sg66_33_cif.got.tgz:64314.got - 2010.06.03 17:51:23.
