data_PCOD9498477
_publ_section_title
;
Structure prediction by ZEFSAII (Michael W. Deem and Ramdas Pophale) SiO2 
 PCOD9498477
Probable space group: C C C M
;
_chemical_formula_sum "Si O2"
_cell_formula_units_Z 80
_cell_length_a 15.697424
_cell_length_b 27.217143
_cell_length_c 10.308461
_cell_angle_alpha 90.000000
_cell_angle_beta 90.000000
_cell_angle_gamma 90.000000
_cell_volume 4404.176917
_symmetry_space_group_name_H-M "C C C M"
_symmetry_group_IT_number 66
_symmetry_cell_setting 'orthorhombic'
loop_
_space_group_symop_operation_xyz
x,y,z
-x,-y,z
x,-y,1/2-z
-x,y,1/2-z
-x,-y,-z
x,y,-z
-x,y,1/2+z
x,-y,1/2+z
1/2+x,1/2+y,z
1/2-x,1/2-y,z
1/2+x,1/2-y,1/2-z
1/2-x,1/2+y,1/2-z
1/2-x,1/2-y,-z
1/2+x,1/2+y,-z
1/2-x,1/2+y,1/2+z
1/2+x,1/2-y,1/2+z
loop_
_atom_site_type_symbol
_atom_site_label
_atom_site_fract_x
_atom_site_fract_y
_atom_site_fract_z
Si Si1 0.421519 0.132789 0.848700
Si Si2 0.349859 0.550484 0.500000
Si Si3 0.277951 0.942408 0.736410
Si Si4 0.492261 0.624239 0.000000
Si Si5 0.319695 0.435093 0.500000
Si Si6 0.348220 0.758000 0.347089
Si Si7 0.500000 0.693152 0.250000
O O1 0.500000 0.133366 0.750000
O O2 0.357402 0.089809 0.807215
O O3 0.372890 0.184837 0.838506
O O4 0.447207 0.126697 0.000000
O O5 0.294517 0.563125 0.626816
O O6 0.436293 0.581454 0.500000
O O7 0.355863 0.491195 0.500000
O O8 0.300555 0.000000 0.750000
O O9 0.237681 0.927447 0.873300
O O10 0.500092 0.658373 0.874623
O O11 0.400002 0.599910 0.000000
O O12 0.356090 0.743492 0.500000
O O13 0.250000 0.750000 0.308911
O O14 0.416145 0.727142 0.264032
#
# Coordination Sequence:
#
# PCOD9498477 Si02
#       7
#    16   8  16   8   8  16   8
#     4  11  24  42  67  92 123 166 212 260 320 383
#     4  10  21  42  64  87 129 174 214 247 310 388
#     4  10  22  41  65  93 126 163 214 264 309 376
#     4  12  25  36  66  92 134 166 209 262 312 376
#     4  10  23  40  60  95 131 166 208 263 314 366
#     4  10  23  43  67  88 124 171 211 259 320 382
#     4  12  24  42  59 102 129 156 220 270 312 382
#
# _framework density 18.164574999999999
#
# number of rings (size 3 to 8) (size 9 to 14) (size 15 to 20)
#    0.000    1.400    3.000    1.500    7.000    0.400 
#    0.000    5.500    0.000    0.000    0.000    0.000 
#    0.000    0.000    0.000    0.000    0.000    0.000 
#
# Total GULP energy -223480.057111 kJ/mol
# GULP energy per Si atom -5587.001428 kJ/mol
# Density = 1.812323 g / cm^3
# Si number density = 18.164575 Si / 1000 Ang^3
#
#
#
# Elastic Constant Matrix: (Units=GPa)
#
#
# Indices 1 2 3 4 5 6 
#
# 1 119.6283 55.0373 53.8442 0.0000 0.0000 0.0000
# 2 55.0373 57.1689 49.8179 0.0000 0.0000 0.0000
# 3 53.8442 49.8179 144.4722 0.0000 0.0000 0.0000
# 4 0.0000 0.0000 0.0000 50.8710 0.0000 0.0000
# 5 0.0000 0.0000 0.0000 0.0000 -27.0334 0.0000
# 6 0.0000 0.0000 0.0000 0.0000 0.0000 12.5105
#
#
#
# Elastic Compliance Matrix: (Units=1/GPa)
#
#
# Indices 1 2 3 4 5 6 
#
# 1 0.015083 -0.013755 -0.000878 0.000000 0.000000 0.000000
# 2 -0.013755 0.037550 -0.007822 0.000000 0.000000 0.000000
# 3 -0.000878 -0.007822 0.009946 0.000000 0.000000 0.000000
# 4 0.000000 0.000000 0.000000 0.019658 0.000000 0.000000
# 5 0.000000 0.000000 0.000000 0.000000 -0.036991 0.000000
# 6 0.000000 0.000000 0.000000 0.000000 0.000000 0.079933
#
#
# Mechanical properties :
#
#
# Convention : Reuss Voigt Hill
#
# Bulk Modulus (GPa) = 56.59624 70.96314 63.77969
# Shear Modulus (GPa) = 28.41248 18.10762 23.26005
#
# Velocity S-wave (km/s) = 3.95925 3.16074 3.58231
# Velocity P-wave (km/s) = 7.21983 7.24375 7.23180
#
# Compressibility (1/GPa) = 0.01766902
#
# Stress axis : x y z
#
# Youngs Moduli (GPa) = 66.30064 26.63084 100.54063
#
# Poissons Ratio (x) = 0.36631 0.08829
# Poissons Ratio (y) = 0.91198 0.78642
# Poissons Ratio (z) = 0.05822 0.20830
#
# Static dielectric constant tensor:
#      x y z
#    x 1.584300 0.000000 0.000000 
#    y 0.000000 1.614730 0.000000 
#    z 0.000000 0.000000 1.611990 
# 
# From -- ./inp_files/16412.got.cif
#   From: 2010.05.17/outbox.cif.g08.bks.cpg/sg66_9_cif.got.tgz:16412.got - 2010.06.03 17:51:23.
