data_PCOD9498822
_publ_section_title
;
Structure prediction by ZEFSAII (Michael W. Deem and Ramdas Pophale) SiO2 
 PCOD9498822
Probable space group: C C C M
;
_chemical_formula_sum "Si O2"
_cell_formula_units_Z 80
_cell_length_a 10.920258
_cell_length_b 10.273047
_cell_length_c 26.497689
_cell_angle_alpha 90.000000
_cell_angle_beta 90.000000
_cell_angle_gamma 90.000000
_cell_volume 2972.625320
_symmetry_space_group_name_H-M "C C C M"
_symmetry_group_IT_number 66
_symmetry_cell_setting 'orthorhombic'
loop_
_space_group_symop_operation_xyz
x,y,z
-x,-y,z
x,-y,1/2-z
-x,y,1/2-z
-x,-y,-z
x,y,-z
-x,y,1/2+z
x,-y,1/2+z
1/2+x,1/2+y,z
1/2-x,1/2-y,z
1/2+x,1/2-y,1/2-z
1/2-x,1/2+y,1/2-z
1/2-x,1/2-y,-z
1/2+x,1/2+y,-z
1/2-x,1/2+y,1/2+z
1/2+x,1/2-y,1/2+z
loop_
_atom_site_type_symbol
_atom_site_label
_atom_site_fract_x
_atom_site_fract_y
_atom_site_fract_z
Si Si1 0.355878 0.480167 0.440602
Si Si2 0.921519 0.695511 0.441636
Si Si3 0.798183 0.121828 0.216412
Si Si4 0.038455 0.670920 0.807537
Si Si5 0.138929 0.409823 0.103280
O O1 0.500000 0.500000 0.440796
O O2 0.316029 0.494373 0.500000
O O3 0.355805 0.327296 0.423916
O O4 0.284255 0.579233 0.403613
O O5 0.894154 0.688781 0.500000
O O6 0.886665 0.558410 0.416212
O O7 0.068587 0.688017 0.434684
O O8 0.750000 0.250000 0.247667
O O9 0.918701 0.178157 0.189737
O O10 0.673112 0.103453 0.184661
O O11 0.823661 0.000000 0.250000
O O12 0.068466 0.369096 0.845231
O O13 0.000000 0.643819 0.750000
#
# Coordination Sequence:
#
# PCOD9498822 Si02
#       5
#    16  16  16  16  16
#     4  10  22  43  72 109 159 213 267 330 408 502
#     4  10  22  41  67 106 150 202 262 326 400 487
#     4   8  20  43  71 104 150 195 264 340 410 497
#     4   9  22  43  69 107 143 199 264 331 416 494
#     4  11  21  41  69 108 152 201 263 329 404 493
#
# _framework density 26.912237000000001
#
# number of rings (size 3 to 8) (size 9 to 14) (size 15 to 20)
#    1.200    1.000    0.000    3.000    0.000    6.400 
#   18.000    9.000    0.000    0.000    0.000    0.000 
#    0.000    0.000    0.000    0.000    0.000    0.000 
#
# Total GULP energy -222982.099572 kJ/mol
# GULP energy per Si atom -5574.552489 kJ/mol
# Density = 2.685098 g / cm^3
# Si number density = 26.912237 Si / 1000 Ang^3
#
#
#
# Elastic Constant Matrix: (Units=GPa)
#
#
# Indices 1 2 3 4 5 6 
#
# 1 172.2854 74.6725 59.3470 0.0000 0.0000 0.0000
# 2 74.6725 130.0145 47.1860 0.0000 0.0000 0.0000
# 3 59.3470 47.1860 177.5854 0.0000 0.0000 0.0000
# 4 0.0000 0.0000 0.0000 4.7346 0.0000 0.0000
# 5 0.0000 0.0000 0.0000 0.0000 12.8393 0.0000
# 6 0.0000 0.0000 0.0000 0.0000 0.0000 57.5412
#
#
#
# Elastic Compliance Matrix: (Units=1/GPa)
#
#
# Indices 1 2 3 4 5 6 
#
# 1 0.008136 -0.004079 -0.001635 0.000000 0.000000 0.000000
# 2 -0.004079 0.010558 -0.001442 0.000000 0.000000 0.000000
# 3 -0.001635 -0.001442 0.006561 0.000000 0.000000 0.000000
# 4 0.000000 0.000000 0.000000 0.211213 0.000000 0.000000
# 5 0.000000 0.000000 0.000000 0.000000 0.077886 0.000000
# 6 0.000000 0.000000 0.000000 0.000000 0.000000 0.017379
#
#
# Mechanical properties :
#
#
# Convention : Reuss Voigt Hill
#
# Bulk Modulus (GPa) = 91.39525 93.58850 92.49187
# Shear Modulus (GPa) = 14.29833 34.93501 24.61667
#
# Velocity S-wave (km/s) = 2.30748 3.60684 3.02768
# Velocity P-wave (km/s) = 6.41354 7.22472 6.83118
#
# Compressibility (1/GPa) = 0.01094149
#
# Stress axis : x y z
#
# Youngs Moduli (GPa) = 122.91785 94.71807 152.42446
#
# Poissons Ratio (x) = 0.38637 0.24920
# Poissons Ratio (y) = 0.50141 0.21980
# Poissons Ratio (z) = 0.20096 0.13659
#
# Static dielectric constant tensor:
#      x y z
#    x 2.559480 0.000000 0.000000 
#    y 0.000000 2.208890 0.000000 
#    z 0.000000 0.000000 2.147950 
# 
# From -- ./inp_files/68732.got.cif
#   From: 2010.05.17/outbox.cif.g08.bks.cpg/sg66_35_cif.got.tgz:68732.got - 2010.06.03 17:51:23.
