data_PCOD9498471
_publ_section_title
;
Structure prediction by ZEFSAII (Michael W. Deem and Ramdas Pophale) SiO2 
 PCOD9498471
Probable space group: C C C M
;
_chemical_formula_sum "Si O2"
_cell_formula_units_Z 72
_cell_length_a 10.872444
_cell_length_b 14.006156
_cell_length_c 24.874061
_cell_angle_alpha 90.000000
_cell_angle_beta 90.000000
_cell_angle_gamma 90.000000
_cell_volume 3787.850534
_symmetry_space_group_name_H-M "C C C M"
_symmetry_group_IT_number 66
_symmetry_cell_setting 'orthorhombic'
loop_
_space_group_symop_operation_xyz
x,y,z
-x,-y,z
x,-y,1/2-z
-x,y,1/2-z
-x,-y,-z
x,y,-z
-x,y,1/2+z
x,-y,1/2+z
1/2+x,1/2+y,z
1/2-x,1/2-y,z
1/2+x,1/2-y,1/2-z
1/2-x,1/2+y,1/2-z
1/2-x,1/2-y,-z
1/2+x,1/2+y,-z
1/2-x,1/2+y,1/2+z
1/2+x,1/2-y,1/2+z
loop_
_atom_site_type_symbol
_atom_site_label
_atom_site_fract_x
_atom_site_fract_y
_atom_site_fract_z
Si Si1 0.357123 0.172767 0.937752
Si Si2 0.693177 0.500000 0.750000
Si Si3 0.359243 0.002345 0.853197
Si Si4 0.626809 0.790631 0.398274
Si Si5 0.118232 0.792300 0.220064
O O1 0.250000 0.250000 0.926453
O O2 0.343591 0.083888 0.897720
O O3 0.496897 0.210471 0.928849
O O4 0.344528 0.143712 0.000000
O O5 0.774580 0.521532 0.802381
O O6 0.623181 0.404257 0.767015
O O7 0.500000 0.000000 0.834264
O O8 0.341171 0.898561 0.879864
O O9 0.750000 0.750000 0.425855
O O10 0.608255 0.731270 0.342952
O O11 0.250000 0.750000 0.238043
O O12 0.000000 0.749207 0.250000
#
# Coordination Sequence:
#
# PCOD9498471 Si02
#       5
#    16   8  16  16  16
#     4  10  24  44  68  95 123 165 219 271 324 378
#     4  12  22  38  60  96 133 174 203 266 315 398
#     4  10  22  37  64  93 128 166 214 259 316 379
#     4  10  21  42  60  93 126 160 214 263 316 382
#     4  11  25  39  59  92 131 171 215 252 317 381
#
# _framework density 19.008141999999999
#
# number of rings (size 3 to 8) (size 9 to 14) (size 15 to 20)
#    0.000    1.556    4.444    0.667    9.333    4.444 
#    0.000    1.111    0.000    2.667    0.000    0.000 
#    0.000    0.000    0.000    0.000    0.000    0.000 
#
# Total GULP energy -200896.138644 kJ/mol
# GULP energy per Si atom -5580.448296 kJ/mol
# Density = 1.896488 g / cm^3
# Si number density = 19.008142 Si / 1000 Ang^3
#
#
#
# Elastic Constant Matrix: (Units=GPa)
#
#
# Indices 1 2 3 4 5 6 
#
# 1 108.6216 40.2421 60.4236 0.0000 0.0000 0.0000
# 2 40.2421 95.1519 42.5148 0.0000 0.0000 0.0000
# 3 60.4236 42.5148 90.4345 0.0000 0.0000 0.0000
# 4 0.0000 0.0000 0.0000 25.7810 0.0000 0.0000
# 5 0.0000 0.0000 0.0000 0.0000 62.5252 0.0000
# 6 0.0000 0.0000 0.0000 0.0000 0.0000 27.9349
#
#
#
# Elastic Compliance Matrix: (Units=1/GPa)
#
#
# Indices 1 2 3 4 5 6 
#
# 1 0.015063 -0.002372 -0.008949 0.000000 0.000000 0.000000
# 2 -0.002372 0.013678 -0.004845 0.000000 0.000000 0.000000
# 3 -0.008949 -0.004845 0.019315 0.000000 0.000000 0.000000
# 4 0.000000 0.000000 0.000000 0.038788 0.000000 0.000000
# 5 0.000000 0.000000 0.000000 0.000000 0.015994 0.000000
# 6 0.000000 0.000000 0.000000 0.000000 0.000000 0.035798
#
#
# Mechanical properties :
#
#
# Convention : Reuss Voigt Hill
#
# Bulk Modulus (GPa) = 63.60211 64.50765 64.05488
# Shear Modulus (GPa) = 28.37527 33.31671 30.84599
#
# Velocity S-wave (km/s) = 3.86786 4.19114 4.03274
# Velocity P-wave (km/s) = 7.31302 7.57835 7.44687
#
# Compressibility (1/GPa) = 0.01572275
#
# Stress axis : x y z
#
# Youngs Moduli (GPa) = 66.38596 73.11236 51.77293
#
# Poissons Ratio (x) = 0.17342 0.46334
# Poissons Ratio (y) = 0.15747 0.25085
# Poissons Ratio (z) = 0.59412 0.35425
#
# Static dielectric constant tensor:
#      x y z
#    x 1.707520 0.000000 0.000000 
#    y 0.000000 1.671120 0.000000 
#    z 0.000000 0.000000 1.618900 
# 
# From -- ./inp_files/63377.got.cif
#   From: 2010.05.17/outbox.cif.g08.bks.cpg/sg66_32_cif.got.tgz:63377.got - 2010.06.03 17:51:23.
