data_PCOD9498049
_publ_section_title
;
Structure prediction by ZEFSAII (Michael W. Deem and Ramdas Pophale) SiO2 
 PCOD9498049
Probable space group: C C C M
;
_chemical_formula_sum "Si O2"
_cell_formula_units_Z 120
_cell_length_a 11.027766
_cell_length_b 29.169227
_cell_length_c 19.855008
_cell_angle_alpha 90.000000
_cell_angle_beta 90.000000
_cell_angle_gamma 90.000000
_cell_volume 6386.788414
_symmetry_space_group_name_H-M "C C C M"
_symmetry_group_IT_number 66
_symmetry_cell_setting 'orthorhombic'
loop_
_space_group_symop_operation_xyz
x,y,z
-x,-y,z
x,-y,1/2-z
-x,y,1/2-z
-x,-y,-z
x,y,-z
-x,y,1/2+z
x,-y,1/2+z
1/2+x,1/2+y,z
1/2-x,1/2-y,z
1/2+x,1/2-y,1/2-z
1/2-x,1/2+y,1/2-z
1/2-x,1/2-y,-z
1/2+x,1/2+y,-z
1/2-x,1/2+y,1/2+z
1/2+x,1/2-y,1/2+z
loop_
_atom_site_type_symbol
_atom_site_label
_atom_site_fract_x
_atom_site_fract_y
_atom_site_fract_z
Si Si1 0.753714 0.599827 0.882720
Si Si2 0.132702 0.627263 0.919515
Si Si3 0.603556 0.185682 0.574208
Si Si4 0.910962 0.832238 0.190799
Si Si5 0.250000 0.250000 0.826924
Si Si6 0.018697 0.950240 0.422070
Si Si7 0.003260 0.445401 0.830314
Si Si8 0.908688 0.144639 0.080830
O O1 0.806937 0.641611 0.926382
O O2 0.680967 0.626572 0.824589
O O3 0.656869 0.566846 0.917620
O O4 0.867849 0.572324 0.856577
O O5 0.265300 0.648669 0.906454
O O6 0.027556 0.664919 0.908044
O O7 0.096818 0.583940 0.872384
O O8 0.128470 0.614831 0.000000
O O9 0.598270 0.206463 0.500000
O O10 0.658968 0.220624 0.626856
O O11 0.833140 0.787407 0.209609
O O12 0.000000 0.844648 0.250000
O O13 0.995585 0.825720 0.123993
O O14 0.981750 0.954292 0.500000
O O15 0.940526 0.907522 0.396602
O O16 0.000000 0.000000 0.389823
O O17 0.000000 0.500000 0.841453
O O18 0.000000 0.436618 0.750000
O O19 0.930344 0.149477 0.000000
#
# Coordination Sequence:
#
# PCOD9498049 Si02
#       8
#    16  16  16  16   8  16  16  16
#     4   9  19  35  52  75 107 145 188 221 275 325
#     4   9  19  36  57  84 114 150 191 228 281 342
#     4   9  17  33  57  82 108 140 178 226 276 337
#     4  10  22  40  59  84 109 145 185 228 279 346
#     4  10  21  38  56  86 109 134 188 228 288 336
#     4   9  17  29  50  80 110 142 181 229 274 319
#     4  10  22  36  52  80 113 152 196 240 280 323
#     4   9  19  36  57  82 115 149 185 227 279 333
#
# _framework density 18.788786999999999
#
# number of rings (size 3 to 8) (size 9 to 14) (size 15 to 20)
#    0.000    2.667    0.000    0.600    3.733    4.533 
#    2.400    1.333    0.000    6.000    0.000    0.000 
#    0.000    0.000    0.000    0.000    0.000    0.000 
#
# Total GULP energy -334161.113229 kJ/mol
# GULP energy per Si atom -5569.351887 kJ/mol
# Density = 1.874602 g / cm^3
# Si number density = 18.788787 Si / 1000 Ang^3
#
#
#
# Elastic Constant Matrix: (Units=GPa)
#
#
# Indices 1 2 3 4 5 6 
#
# 1 82.7276 8.6755 1.1586 0.0000 0.0000 0.0000
# 2 8.6755 42.4514 3.8238 0.0000 0.0000 0.0000
# 3 1.1586 3.8238 36.0818 0.0000 0.0000 0.0000
# 4 0.0000 0.0000 0.0000 -0.1025 0.0000 0.0000
# 5 0.0000 0.0000 0.0000 0.0000 15.5961 0.0000
# 6 0.0000 0.0000 0.0000 0.0000 0.0000 11.3417
#
#
#
# Elastic Compliance Matrix: (Units=1/GPa)
#
#
# Indices 1 2 3 4 5 6 
#
# 1 0.012353 -0.002513 -0.000130 0.000000 0.000000 0.000000
# 2 -0.002513 0.024294 -0.002494 0.000000 0.000000 0.000000
# 3 -0.000130 -0.002494 0.027983 0.000000 0.000000 0.000000
# 4 0.000000 0.000000 0.000000 -9.755742 0.000000 0.000000
# 5 0.000000 0.000000 0.000000 0.000000 0.064119 0.000000
# 6 0.000000 0.000000 0.000000 0.000000 0.000000 0.088170
#
#
# Mechanical properties :
#
#
# Convention : Reuss Voigt Hill
#
# Bulk Modulus (GPa) = 18.39697 20.95296 19.67496
# Shear Modulus (GPa) = -0.52574 15.20725 7.34076
#
# Velocity S-wave (km/s) = -0.52955 2.84805 1.97875
# Velocity P-wave (km/s) = 3.07227 4.68948 3.96422
#
# Compressibility (1/GPa) = 0.05435678
#
# Stress axis : x y z
#
# Youngs Moduli (GPa) = 80.95066 41.16159 35.73564
#
# Poissons Ratio (x) = 0.10343 0.00466
# Poissons Ratio (y) = 0.20341 0.08912
# Poissons Ratio (z) = 0.01055 0.10265
#
# Static dielectric constant tensor:
#      x y z
#    x 1.653600 0.000000 0.000000 
#    y 0.000000 1.669480 0.000000 
#    z 0.000000 0.000000 1.661870 
# 
# From -- ./inp_files/49183.got.cif
#   From: 2010.05.17/outbox.cif.g08.bks.cpg/sg66_25_cif.got.tgz:49183.got - 2010.06.03 17:51:23.
