data_PCOD9498054
_publ_section_title
;
Structure prediction by ZEFSAII (Michael W. Deem and Ramdas Pophale) SiO2 
 PCOD9498054
Probable space group: C C C M
;
_chemical_formula_sum "Si O2"
_cell_formula_units_Z 88
_cell_length_a 25.882980
_cell_length_b 9.241248
_cell_length_c 20.425477
_cell_angle_alpha 90.000000
_cell_angle_beta 90.000000
_cell_angle_gamma 90.000000
_cell_volume 4885.591028
_symmetry_space_group_name_H-M "C C C M"
_symmetry_group_IT_number 66
_symmetry_cell_setting 'orthorhombic'
loop_
_space_group_symop_operation_xyz
x,y,z
-x,-y,z
x,-y,1/2-z
-x,y,1/2-z
-x,-y,-z
x,y,-z
-x,y,1/2+z
x,-y,1/2+z
1/2+x,1/2+y,z
1/2-x,1/2-y,z
1/2+x,1/2-y,1/2-z
1/2-x,1/2+y,1/2-z
1/2-x,1/2-y,-z
1/2+x,1/2+y,-z
1/2-x,1/2+y,1/2+z
1/2+x,1/2-y,1/2+z
loop_
_atom_site_type_symbol
_atom_site_label
_atom_site_fract_x
_atom_site_fract_y
_atom_site_fract_z
Si Si1 0.030729 0.858691 0.317784
Si Si2 0.952610 0.388880 0.575928
Si Si3 0.645643 0.923181 0.424793
Si Si4 0.695610 0.330599 0.155261
Si Si5 0.745554 0.587518 0.924200
Si Si6 0.873561 0.000000 0.250000
O O1 0.034902 0.736896 0.372613
O O2 0.000000 0.815409 0.250000
O O3 0.087446 0.915769 0.298196
O O4 0.000000 0.000000 0.342492
O O5 0.055710 0.660937 0.500000
O O6 0.902162 0.479554 0.597698
O O7 0.000000 0.500000 0.575105
O O8 0.634839 0.881614 0.500000
O O9 0.659795 0.780697 0.384563
O O10 0.697320 0.019520 0.423755
O O11 0.750000 0.250000 0.169605
O O12 0.709943 0.474448 0.114103
O O13 0.663417 0.383635 0.216649
O O14 0.750000 0.750000 0.897230
O O15 0.728015 0.597095 0.000000
#
# Coordination Sequence:
#
# PCOD9498054 Si02
#       6
#    16  16  16  16  16   8
#     4   9  22  43  63  84 116 157 199 241 294 361
#     4  10  22  39  62  93 121 145 192 253 299 354
#     4   9  19  36  57  86 118 148 185 231 295 357
#     4  10  21  38  57  81 115 158 194 239 290 342
#     4   9  18  33  57  86 114 149 191 237 289 351
#     4  10  23  40  58  82 118 152 201 248 276 348
#
# _framework density 18.012150999999999
#
# number of rings (size 3 to 8) (size 9 to 14) (size 15 to 20)
#    0.000    2.727    0.000    0.545    7.636    3.636 
#    3.273    0.909    0.000    0.000    0.000    0.000 
#    0.000    0.000    0.000    0.000    0.000    0.000 
#
# Total GULP energy -245278.358421 kJ/mol
# GULP energy per Si atom -5574.508146 kJ/mol
# Density = 1.797115 g / cm^3
# Si number density = 18.012151 Si / 1000 Ang^3
#
#
#
# Elastic Constant Matrix: (Units=GPa)
#
#
# Indices 1 2 3 4 5 6 
#
# 1 76.1607 49.6451 45.4561 0.0000 0.0000 0.0000
# 2 49.6451 148.3824 75.7002 0.0000 0.0000 0.0000
# 3 45.4561 75.7002 60.9110 0.0000 0.0000 0.0000
# 4 0.0000 0.0000 0.0000 36.0619 0.0000 0.0000
# 5 0.0000 0.0000 0.0000 0.0000 9.7116 0.0000
# 6 0.0000 0.0000 0.0000 0.0000 0.0000 17.9866
#
#
#
# Elastic Compliance Matrix: (Units=1/GPa)
#
#
# Indices 1 2 3 4 5 6 
#
# 1 0.024169 0.003048 -0.021825 0.000000 0.000000 0.000000
# 2 0.003048 0.018800 -0.025639 0.000000 0.000000 0.000000
# 3 -0.021825 -0.025639 0.064569 0.000000 0.000000 0.000000
# 4 0.000000 0.000000 0.000000 0.027730 0.000000 0.000000
# 5 0.000000 0.000000 0.000000 0.000000 0.102970 0.000000
# 6 0.000000 0.000000 0.000000 0.000000 0.000000 0.055597
#
#
# Mechanical properties :
#
#
# Convention : Reuss Voigt Hill
#
# Bulk Modulus (GPa) = 53.45841 69.67297 61.56569
# Shear Modulus (GPa) = 12.85672 20.39554 16.62613
#
# Velocity S-wave (km/s) = 2.67457 3.36865 3.04147
# Velocity P-wave (km/s) = 6.26748 7.34135 6.82557
#
# Compressibility (1/GPa) = 0.01870613
#
# Stress axis : x y z
#
# Youngs Moduli (GPa) = 41.37463 53.19213 15.48742
#
# Poissons Ratio (x) = -0.16212 0.33801
# Poissons Ratio (y) = -0.12610 0.39708
# Poissons Ratio (z) = 0.90299 1.36379
#
# Static dielectric constant tensor:
#      x y z
#    x 1.607510 0.000000 0.000000 
#    y 0.000000 1.604500 0.000000 
#    z 0.000000 0.000000 1.633720 
# 
# From -- ./inp_files/52394.got.cif
#   From: 2010.05.17/outbox.cif.g08.bks.cpg/sg66_27_cif.got.tgz:52394.got - 2010.06.03 17:51:23.
