data_PCOD9498384
_publ_section_title
;
Structure prediction by ZEFSAII (Michael W. Deem and Ramdas Pophale) SiO2 
 PCOD9498384
Probable space group: C C C M
;
_chemical_formula_sum "Si O2"
_cell_formula_units_Z 112
_cell_length_a 27.705610
_cell_length_b 12.031910
_cell_length_c 14.817649
_cell_angle_alpha 90.000000
_cell_angle_beta 90.000000
_cell_angle_gamma 90.000000
_cell_volume 4939.484128
_symmetry_space_group_name_H-M "C C C M"
_symmetry_group_IT_number 66
_symmetry_cell_setting 'orthorhombic'
loop_
_space_group_symop_operation_xyz
x,y,z
-x,-y,z
x,-y,1/2-z
-x,y,1/2-z
-x,-y,-z
x,y,-z
-x,y,1/2+z
x,-y,1/2+z
1/2+x,1/2+y,z
1/2-x,1/2-y,z
1/2+x,1/2-y,1/2-z
1/2-x,1/2+y,1/2-z
1/2-x,1/2-y,-z
1/2+x,1/2+y,-z
1/2-x,1/2+y,1/2+z
1/2+x,1/2-y,1/2+z
loop_
_atom_site_type_symbol
_atom_site_label
_atom_site_fract_x
_atom_site_fract_y
_atom_site_fract_z
Si Si1 0.714143 0.536755 0.096684
Si Si2 0.571249 0.982529 0.105356
Si Si3 0.006725 0.311694 0.610572
Si Si4 0.804365 0.226504 0.264337
Si Si5 0.858419 0.164827 0.901656
Si Si6 0.680664 0.048843 0.650510
Si Si7 0.041154 0.927916 0.157180
O O1 0.698587 0.610669 0.182027
O O2 0.684882 0.423353 0.097774
O O3 0.771030 0.512436 0.100669
O O4 0.703769 0.593567 0.000000
O O5 0.543787 0.870844 0.137284
O O6 0.628146 0.981985 0.116514
O O7 0.546296 0.095477 0.138803
O O8 0.559665 0.983611 0.000000
O O9 0.008532 0.294276 0.500000
O O10 0.018646 0.195864 0.657808
O O11 0.750000 0.250000 0.228952
O O12 0.844206 0.235726 0.185916
O O13 0.815434 0.318716 0.339232
O O14 0.907168 0.094874 0.886855
O O15 0.861315 0.221914 0.000000
O O16 0.685362 0.000000 0.750000
O O17 0.049008 0.000000 0.250000
O O18 0.000000 0.000000 0.107814
#
# Coordination Sequence:
#
# PCOD9498384 Si02
#       7
#    16  16  16  16  16  16  16
#     4  10  21  40  66  94 129 175 220 268 334 404
#     4   9  20  41  68  95 129 173 223 279 343 412
#     4   9  20  42  67  94 129 172 221 280 345 411
#     4  10  22  40  63  92 136 171 215 273 331 399
#     4  11  24  43  67  93 128 176 221 272 334 396
#     4  11  23  37  58  95 133 170 217 271 329 396
#     4  11  25  43  66  97 133 173 224 282 345 405
#
# _framework density 22.674431999999999
#
# number of rings (size 3 to 8) (size 9 to 14) (size 15 to 20)
#    0.000    1.857    0.000    4.714    2.000    8.000 
#    0.000    4.286    0.000    0.000    0.000    0.000 
#    0.000    0.000    0.000    0.000    0.000    0.000 
#
# Total GULP energy -312619.687487 kJ/mol
# GULP energy per Si atom -5582.494419 kJ/mol
# Density = 2.262282 g / cm^3
# Si number density = 22.674432 Si / 1000 Ang^3
#
#
#
# Elastic Constant Matrix: (Units=GPa)
#
#
# Indices 1 2 3 4 5 6 
#
# 1 116.2009 26.4397 16.6917 0.0000 0.0000 0.0000
# 2 26.4397 102.7510 9.5733 0.0000 0.0000 0.0000
# 3 16.6917 9.5733 90.7446 0.0000 0.0000 0.0000
# 4 0.0000 0.0000 0.0000 21.9087 0.0000 0.0000
# 5 0.0000 0.0000 0.0000 0.0000 44.4684 0.0000
# 6 0.0000 0.0000 0.0000 0.0000 0.0000 22.1869
#
#
#
# Elastic Compliance Matrix: (Units=1/GPa)
#
#
# Indices 1 2 3 4 5 6 
#
# 1 0.009333 -0.002264 -0.001478 0.000000 0.000000 0.000000
# 2 -0.002264 0.010378 -0.000678 0.000000 0.000000 0.000000
# 3 -0.001478 -0.000678 0.011363 0.000000 0.000000 0.000000
# 4 0.000000 0.000000 0.000000 0.045644 0.000000 0.000000
# 5 0.000000 0.000000 0.000000 0.000000 0.022488 0.000000
# 6 0.000000 0.000000 0.000000 0.000000 0.000000 0.045072
#
#
# Mechanical properties :
#
#
# Convention : Reuss Voigt Hill
#
# Bulk Modulus (GPa) = 44.97604 46.12289 45.54946
# Shear Modulus (GPa) = 31.14684 34.84558 32.99621
#
# Velocity S-wave (km/s) = 3.71031 3.92443 3.81887
# Velocity P-wave (km/s) = 6.18335 6.39690 6.29103
#
# Compressibility (1/GPa) = 0.02223406
#
# Stress axis : x y z
#
# Youngs Moduli (GPa) = 107.14445 96.35747 88.00211
#
# Poissons Ratio (x) = 0.21814 0.13006
# Poissons Ratio (y) = 0.24256 0.05970
# Poissons Ratio (z) = 0.15835 0.06537
#
# Static dielectric constant tensor:
#      x y z
#    x 1.857160 0.000000 0.000000 
#    y 0.000000 1.877860 0.000000 
#    z 0.000000 0.000000 1.939450 
# 
# From -- ./inp_files/33791.got.cif
#   From: 2010.05.17/outbox.cif.g08.bks.cpg/sg66_17_cif.got.tgz:33791.got - 2010.06.03 17:51:23.
