data_PCOD9498683
_publ_section_title
;
Structure prediction by ZEFSAII (Michael W. Deem and Ramdas Pophale) SiO2 
 PCOD9498683
Probable space group: C C C M
;
_chemical_formula_sum "Si O2"
_cell_formula_units_Z 116
_cell_length_a 13.089359
_cell_length_b 25.260338
_cell_length_c 18.024654
_cell_angle_alpha 90.000000
_cell_angle_beta 90.000000
_cell_angle_gamma 90.000000
_cell_volume 5959.701025
_symmetry_space_group_name_H-M "C C C M"
_symmetry_group_IT_number 66
_symmetry_cell_setting 'orthorhombic'
loop_
_space_group_symop_operation_xyz
x,y,z
-x,-y,z
x,-y,1/2-z
-x,y,1/2-z
-x,-y,-z
x,y,-z
-x,y,1/2+z
x,-y,1/2+z
1/2+x,1/2+y,z
1/2-x,1/2-y,z
1/2+x,1/2-y,1/2-z
1/2-x,1/2+y,1/2-z
1/2-x,1/2-y,-z
1/2+x,1/2+y,-z
1/2-x,1/2+y,1/2+z
1/2+x,1/2-y,1/2+z
loop_
_atom_site_type_symbol
_atom_site_label
_atom_site_fract_x
_atom_site_fract_y
_atom_site_fract_z
Si Si1 0.995931 0.916682 0.413951
Si Si2 0.312748 0.536824 0.181061
Si Si3 0.200590 0.330874 0.869356
Si Si4 0.250000 0.750000 0.500000
Si Si5 0.769217 0.055789 0.412542
Si Si6 0.111189 0.193063 0.585878
Si Si7 0.977797 0.291405 0.831596
Si Si8 0.727119 0.152332 0.204388
O O1 0.977751 0.931733 0.500000
O O2 0.914014 0.945720 0.362851
O O3 0.971675 0.854240 0.407603
O O4 0.111890 0.930239 0.395372
O O5 0.339735 0.500000 0.250000
O O6 0.245925 0.498883 0.128433
O O7 0.254752 0.590277 0.204373
O O8 0.251106 0.296218 0.934040
O O9 0.207603 0.392904 0.887601
O O10 0.247210 0.324212 0.786590
O O11 0.082567 0.314283 0.862896
O O12 0.759977 0.048952 0.500000
O O13 0.144385 0.194785 0.500000
O O14 0.063290 0.247697 0.612192
O O15 0.202287 0.178925 0.641877
O O16 0.889794 0.334699 0.816357
O O17 0.000000 0.267006 0.750000
#
# Coordination Sequence:
#
# PCOD9498683 Si02
#       8
#    16  16  16   4  16  16  16  16
#     4   9  21  37  57  88 128 165 204 252 315 388
#     4  11  21  39  63  89 120 162 212 267 318 376
#     4  11  25  42  64  93 129 167 217 259 321 385
#     4  12  28  40  72  96 132 176 208 268 324 398
#     4  11  22  39  61  89 129 168 209 264 320 382
#     4  10  22  39  64  96 129 166 210 261 327 385
#     4  10  24  41  64  88 125 169 214 265 317 385
#     4  10  23  45  64  92 127 166 215 267 324 383
#
# _framework density 19.464062999999999
#
# number of rings (size 3 to 8) (size 9 to 14) (size 15 to 20)
#    0.000    1.655    2.069    1.241    6.759    3.862 
#    0.000    0.690    0.000    0.828    0.000    0.000 
#    0.000    0.000    0.000    0.000    0.000    0.000 
#
# Total GULP energy -323593.051249 kJ/mol
# GULP energy per Si atom -5579.190539 kJ/mol
# Density = 1.941976 g / cm^3
# Si number density = 19.464063 Si / 1000 Ang^3
#
#
#
# Elastic Constant Matrix: (Units=GPa)
#
#
# Indices 1 2 3 4 5 6 
#
# 1 36.4415 32.0628 40.6387 0.0000 0.0000 0.0000
# 2 32.0628 111.5072 65.6774 0.0000 0.0000 0.0000
# 3 40.6387 65.6774 137.6836 0.0000 0.0000 0.0000
# 4 0.0000 0.0000 0.0000 47.5174 0.0000 0.0000
# 5 0.0000 0.0000 0.0000 0.0000 15.2250 0.0000
# 6 0.0000 0.0000 0.0000 0.0000 0.0000 14.8401
#
#
#
# Elastic Compliance Matrix: (Units=1/GPa)
#
#
# Indices 1 2 3 4 5 6 
#
# 1 0.044559 -0.007046 -0.009791 0.000000 0.000000 0.000000
# 2 -0.007046 0.013586 -0.004401 0.000000 0.000000 0.000000
# 3 -0.009791 -0.004401 0.012253 0.000000 0.000000 0.000000
# 4 0.000000 0.000000 0.000000 0.021045 0.000000 0.000000
# 5 0.000000 0.000000 0.000000 0.000000 0.065681 0.000000
# 6 0.000000 0.000000 0.000000 0.000000 0.000000 0.067385
#
#
# Mechanical properties :
#
#
# Convention : Reuss Voigt Hill
#
# Bulk Modulus (GPa) = 35.81441 62.48779 49.15110
# Shear Modulus (GPa) = 18.09675 25.33339 21.71507
#
# Velocity S-wave (km/s) = 3.05249 3.61161 3.34376
# Velocity P-wave (km/s) = 5.55552 7.04028 6.34150
#
# Compressibility (1/GPa) = 0.02792172
#
# Stress axis : x y z
#
# Youngs Moduli (GPa) = 22.44210 73.60363 81.61600
#
# Poissons Ratio (x) = 0.51858 0.79912
# Poissons Ratio (y) = 0.15812 0.35922
# Poissons Ratio (z) = 0.21974 0.32395
#
# Static dielectric constant tensor:
#      x y z
#    x 1.662150 0.000000 0.000000 
#    y 0.000000 1.685030 0.000000 
#    z 0.000000 0.000000 1.700220 
# 
# From -- ./inp_files/39125.got.cif
#   From: 2010.05.17/outbox.cif.g08.bks.cpg/sg66_20_cif.got.tgz:39125.got - 2010.06.03 17:51:23.
