data_PCOD9498483
_publ_section_title
;
Structure prediction by ZEFSAII (Michael W. Deem and Ramdas Pophale) SiO2 
 PCOD9498483
Probable space group: C C C M
;
_chemical_formula_sum "Si O2"
_cell_formula_units_Z 52
_cell_length_a 18.518094
_cell_length_b 7.407476
_cell_length_c 14.281725
_cell_angle_alpha 90.000000
_cell_angle_beta 90.000000
_cell_angle_gamma 90.000000
_cell_volume 1959.057593
_symmetry_space_group_name_H-M "C C C M"
_symmetry_group_IT_number 66
_symmetry_cell_setting 'orthorhombic'
loop_
_space_group_symop_operation_xyz
x,y,z
-x,-y,z
x,-y,1/2-z
-x,y,1/2-z
-x,-y,-z
x,y,-z
-x,y,1/2+z
x,-y,1/2+z
1/2+x,1/2+y,z
1/2-x,1/2-y,z
1/2+x,1/2-y,1/2-z
1/2-x,1/2+y,1/2-z
1/2-x,1/2-y,-z
1/2+x,1/2+y,-z
1/2-x,1/2+y,1/2+z
1/2+x,1/2-y,1/2+z
loop_
_atom_site_type_symbol
_atom_site_label
_atom_site_fract_x
_atom_site_fract_y
_atom_site_fract_z
Si Si1 0.750000 0.250000 0.500000
Si Si2 0.306360 0.495148 0.638322
Si Si3 0.428607 0.779665 0.637211
Si Si4 0.088415 0.308383 0.363071
O O1 0.755999 0.409447 0.581498
O O2 0.292949 0.500000 0.750000
O O3 0.371927 0.629906 0.608274
O O4 0.339592 0.301115 0.613007
O O5 0.510085 0.730372 0.608634
O O6 0.418816 0.791549 0.749950
O O7 0.413757 0.984295 0.607123
#
# Coordination Sequence:
#
# PCOD9498483 Si02
#       4
#     4  16  16  16
#     4  12  28  48  64  98 132 178 264 286 314 418
#     4  10  21  42  65  89 131 181 224 288 347 386
#     4   8  14  29  60  98 131 163 215 271 343 431
#     4   8  14  29  60  99 129 168 211 268 353 418
#
# _framework density 26.543375000000001
#
# number of rings (size 3 to 8) (size 9 to 14) (size 15 to 20)
#    0.000    3.077    0.000    2.769    0.000    3.692 
#   11.077    6.154    0.000    3.692    0.000    0.000 
#    0.000    0.000    0.000    0.000    0.000    0.000 
#
# Total GULP energy -144854.352509 kJ/mol
# GULP energy per Si atom -5571.321250 kJ/mol
# Density = 2.648296 g / cm^3
# Si number density = 26.543375 Si / 1000 Ang^3
#
#
#
# Elastic Constant Matrix: (Units=GPa)
#
#
# Indices 1 2 3 4 5 6 
#
# 1 88.2822 13.8363 9.5359 0.0000 0.0000 0.0000
# 2 13.8363 124.1177 25.2200 0.0000 0.0000 0.0000
# 3 9.5359 25.2200 175.9177 0.0000 0.0000 0.0000
# 4 0.0000 0.0000 0.0000 -26.1746 0.0000 0.0000
# 5 0.0000 0.0000 0.0000 0.0000 -58.5222 0.0000
# 6 0.0000 0.0000 0.0000 0.0000 0.0000 48.3178
#
#
#
# Elastic Compliance Matrix: (Units=1/GPa)
#
#
# Indices 1 2 3 4 5 6 
#
# 1 0.011564 -0.001197 -0.000455 0.000000 0.000000 0.000000
# 2 -0.001197 0.008422 -0.001143 0.000000 0.000000 0.000000
# 3 -0.000455 -0.001143 0.005873 0.000000 0.000000 0.000000
# 4 0.000000 0.000000 0.000000 -0.038205 0.000000 0.000000
# 5 0.000000 0.000000 0.000000 0.000000 -0.017088 0.000000
# 6 0.000000 0.000000 0.000000 0.000000 0.000000 0.020696
#
#
# Mechanical properties :
#
#
# Convention : Reuss Voigt Hill
#
# Bulk Modulus (GPa) = 49.33297 53.94465 51.63881
# Shear Modulus (GPa) = 1385.39924 15.37255 700.38589
#
# Velocity S-wave (km/s) = 22.87074 2.40916 16.26153
# Velocity P-wave (km/s) = 26.75919 5.30152 19.28938
#
# Compressibility (1/GPa) = 0.02027042
#
# Stress axis : x y z
#
# Youngs Moduli (GPa) = 86.47505 118.73055 170.27182
#
# Poissons Ratio (x) = 0.14207 0.07752
# Poissons Ratio (y) = 0.10348 0.19455
# Poissons Ratio (z) = 0.03937 0.13566
#
# Static dielectric constant tensor:
#      x y z
#    x 2.277790 0.000000 0.000000 
#    y 0.000000 2.053220 0.000000 
#    z 0.000000 0.000000 2.172750 
# 
# From -- ./inp_files/41013.got.cif
#   From: 2010.05.17/outbox.cif.g08.bks.cpg/sg66_21_cif.got.tgz:41013.got - 2010.06.03 17:51:23.
