data_PCOD9498328
_publ_section_title
;
Structure prediction by ZEFSAII (Michael W. Deem and Ramdas Pophale) SiO2 
 PCOD9498328
Probable space group: C C C M
;
_chemical_formula_sum "Si O2"
_cell_formula_units_Z 72
_cell_length_a 19.656201
_cell_length_b 11.341130
_cell_length_c 17.481091
_cell_angle_alpha 90.000000
_cell_angle_beta 90.000000
_cell_angle_gamma 90.000000
_cell_volume 3896.946529
_symmetry_space_group_name_H-M "C C C M"
_symmetry_group_IT_number 66
_symmetry_cell_setting 'orthorhombic'
loop_
_space_group_symop_operation_xyz
x,y,z
-x,-y,z
x,-y,1/2-z
-x,y,1/2-z
-x,-y,-z
x,y,-z
-x,y,1/2+z
x,-y,1/2+z
1/2+x,1/2+y,z
1/2-x,1/2-y,z
1/2+x,1/2-y,1/2-z
1/2-x,1/2+y,1/2-z
1/2-x,1/2-y,-z
1/2+x,1/2+y,-z
1/2-x,1/2+y,1/2+z
1/2+x,1/2-y,1/2+z
loop_
_atom_site_type_symbol
_atom_site_label
_atom_site_fract_x
_atom_site_fract_y
_atom_site_fract_z
Si Si1 0.200162 0.358735 0.000000
Si Si2 0.000000 0.500000 0.864741
Si Si3 0.750000 0.750000 0.369579
Si Si4 0.129388 0.621715 0.776973
Si Si5 0.202616 0.076318 0.500000
Si Si6 0.088266 0.291312 0.114530
Si Si7 0.432956 0.579916 0.500000
O O1 0.250000 0.250000 0.000000
O O2 0.238087 0.480418 0.000000
O O3 0.155468 0.341031 0.925056
O O4 0.062680 0.566488 0.820321
O O5 0.032744 0.389732 0.906905
O O6 0.812579 0.692751 0.322133
O O7 0.785857 0.844496 0.425360
O O8 0.164421 0.500000 0.750000
O O9 0.100356 0.698900 0.705710
O O10 0.131953 0.006067 0.500000
O O11 0.071487 0.167482 0.073907
O O12 0.500000 0.500000 0.500000
#
# Coordination Sequence:
#
# PCOD9498328 Si02
#       7
#     8   8   8  16   8  16   8
#     4  11  21  39  62  87 119 167 204 256 306 364
#     4  10  21  41  66  97 124 152 213 280 315 363
#     4  11  26  38  68  95 122 172 194 275 328 380
#     4  10  21  40  66  97 124 155 212 268 323 377
#     4  11  23  45  56  90 138 154 211 259 319 382
#     4  10  21  39  69  90 120 163 211 262 307 377
#     4  11  26  41  58  87 132 181 208 247 308 391
#
# _framework density 18.476005000000001
#
# number of rings (size 3 to 8) (size 9 to 14) (size 15 to 20)
#    0.000    1.556    2.222    5.667    4.667    3.556 
#    0.000    0.000    0.000    0.000    0.000    0.000 
#    0.000    0.000    0.000    0.000    0.000    0.000 
#
# Total GULP energy -200469.784951 kJ/mol
# GULP energy per Si atom -5568.605138 kJ/mol
# Density = 1.843395 g / cm^3
# Si number density = 18.476005 Si / 1000 Ang^3
#
#
#
# Elastic Constant Matrix: (Units=GPa)
#
#
# Indices 1 2 3 4 5 6 
#
# 1 134.7672 85.6813 54.6963 0.0000 0.0000 0.0000
# 2 85.6813 163.4631 72.1671 0.0000 0.0000 0.0000
# 3 54.6963 72.1671 95.0336 0.0000 0.0000 0.0000
# 4 0.0000 0.0000 0.0000 21.6973 0.0000 0.0000
# 5 0.0000 0.0000 0.0000 0.0000 16.8045 0.0000
# 6 0.0000 0.0000 0.0000 0.0000 0.0000 57.4503
#
#
#
# Elastic Compliance Matrix: (Units=1/GPa)
#
#
# Indices 1 2 3 4 5 6 
#
# 1 0.011716 -0.004760 -0.003129 0.000000 0.000000 0.000000
# 2 -0.004760 0.011137 -0.005718 0.000000 0.000000 0.000000
# 3 -0.003129 -0.005718 0.016665 0.000000 0.000000 0.000000
# 4 0.000000 0.000000 0.000000 0.046089 0.000000 0.000000
# 5 0.000000 0.000000 0.000000 0.000000 0.059508 0.000000
# 6 0.000000 0.000000 0.000000 0.000000 0.000000 0.017406
#
#
# Mechanical properties :
#
#
# Convention : Reuss Voigt Hill
#
# Bulk Modulus (GPa) = 81.26184 90.92813 86.09498
# Shear Modulus (GPa) = 25.79511 31.23836 28.51674
#
# Velocity S-wave (km/s) = 3.74055 4.11634 3.93293
# Velocity P-wave (km/s) = 7.92045 8.48017 8.20508
#
# Compressibility (1/GPa) = 0.01230590
#
# Stress axis : x y z
#
# Youngs Moduli (GPa) = 85.35178 89.79218 60.00575
#
# Poissons Ratio (x) = 0.42741 0.18773
# Poissons Ratio (y) = 0.40627 0.34309
# Poissons Ratio (z) = 0.26703 0.51339
#
# Static dielectric constant tensor:
#      x y z
#    x 1.638880 0.000000 0.000000 
#    y 0.000000 1.630500 0.000000 
#    z 0.000000 0.000000 1.739190 
# 
# From -- ./inp_files/41366.got.cif
#   From: 2010.05.17/outbox.cif.g08.bks.cpg/sg66_21_cif.got.tgz:41366.got - 2010.06.03 17:51:23.
