data_PCOD9498247
_publ_section_title
;
Structure prediction by ZEFSAII (Michael W. Deem and Ramdas Pophale) SiO2 
 PCOD9498247
Probable space group: C C C M
;
_chemical_formula_sum "Si O2"
_cell_formula_units_Z 96
_cell_length_a 19.699526
_cell_length_b 15.664170
_cell_length_c 14.599541
_cell_angle_alpha 90.000000
_cell_angle_beta 90.000000
_cell_angle_gamma 90.000000
_cell_volume 4505.078536
_symmetry_space_group_name_H-M "C C C M"
_symmetry_group_IT_number 66
_symmetry_cell_setting 'orthorhombic'
loop_
_space_group_symop_operation_xyz
x,y,z
-x,-y,z
x,-y,1/2-z
-x,y,1/2-z
-x,-y,-z
x,y,-z
-x,y,1/2+z
x,-y,1/2+z
1/2+x,1/2+y,z
1/2-x,1/2-y,z
1/2+x,1/2-y,1/2-z
1/2-x,1/2+y,1/2-z
1/2-x,1/2-y,-z
1/2+x,1/2+y,-z
1/2-x,1/2+y,1/2+z
1/2+x,1/2-y,1/2+z
loop_
_atom_site_type_symbol
_atom_site_label
_atom_site_fract_x
_atom_site_fract_y
_atom_site_fract_z
Si Si1 0.561539 0.941621 0.395361
Si Si2 0.171812 0.947481 0.394230
Si Si3 0.805260 0.189512 0.755578
Si Si4 0.713537 0.925031 0.391665
Si Si5 0.051589 0.930752 0.108997
Si Si6 0.445646 0.759197 0.827758
O O1 0.569963 0.971771 0.500000
O O2 0.637729 0.942239 0.354685
O O3 0.546550 0.840321 0.393422
O O4 0.500000 0.000000 0.356944
O O5 0.156146 0.922328 0.500000
O O6 0.163853 0.874771 0.319232
O O7 0.247151 0.985080 0.389760
O O8 0.124566 0.028790 0.370553
O O9 0.750000 0.250000 0.707703
O O10 0.759522 0.140715 0.832702
O O11 0.867345 0.244529 0.796947
O O12 0.710888 0.897331 0.500000
O O13 0.037063 0.835370 0.137969
O O14 0.046163 0.930062 0.000000
O O15 0.000000 0.000000 0.146916
O O16 0.500000 0.779029 0.750000
#
# Coordination Sequence:
#
# PCOD9498247 Si02
#       6
#    16  16  16  16  16  16
#     4  10  23  45  69  95 131 178 230 286 344 411
#     4  10  22  40  64  93 128 175 227 281 348 412
#     4  12  24  40  63  97 136 176 228 288 347 411
#     4  10  21  40  69  99 128 173 230 287 346 407
#     4  10  21  39  63  90 123 168 217 272 335 406
#     4  12  25  39  60  99 134 175 220 277 347 413
#
# _framework density 21.309283000000001
#
# number of rings (size 3 to 8) (size 9 to 14) (size 15 to 20)
#    0.000    1.333    3.333    2.000    0.000    4.667 
#    3.000    0.833    0.000    0.000    0.000    0.000 
#    0.000    0.000    0.000    0.000    0.000    0.000 
#
# Total GULP energy -267672.737616 kJ/mol
# GULP energy per Si atom -5576.515367 kJ/mol
# Density = 2.126078 g / cm^3
# Si number density = 21.309283 Si / 1000 Ang^3
#
#
#
# Elastic Constant Matrix: (Units=GPa)
#
#
# Indices 1 2 3 4 5 6 
#
# 1 121.8977 22.5889 18.8011 0.0000 0.0000 0.0000
# 2 22.5889 83.8905 14.4597 0.0000 0.0000 0.0000
# 3 18.8011 14.4597 69.7427 0.0000 0.0000 0.0000
# 4 0.0000 0.0000 0.0000 163.8280 0.0000 0.0000
# 5 0.0000 0.0000 0.0000 0.0000 44.8899 0.0000
# 6 0.0000 0.0000 0.0000 0.0000 0.0000 37.6068
#
#
#
# Elastic Compliance Matrix: (Units=1/GPa)
#
#
# Indices 1 2 3 4 5 6 
#
# 1 0.008888 -0.002054 -0.001970 0.000000 0.000000 0.000000
# 2 -0.002054 0.012837 -0.002108 0.000000 0.000000 0.000000
# 3 -0.001970 -0.002108 0.015307 0.000000 0.000000 0.000000
# 4 0.000000 0.000000 0.000000 0.006104 0.000000 0.000000
# 5 0.000000 0.000000 0.000000 0.000000 0.022277 0.000000
# 6 0.000000 0.000000 0.000000 0.000000 0.000000 0.026591
#
#
# Mechanical properties :
#
#
# Convention : Reuss Voigt Hill
#
# Bulk Modulus (GPa) = 40.37494 43.02560 41.70027
# Shear Modulus (GPa) = 44.43574 63.91036 54.17305
#
# Velocity S-wave (km/s) = 4.57144 5.48242 5.04752
# Velocity P-wave (km/s) = 6.84487 7.76600 7.31994
#
# Compressibility (1/GPa) = 0.02476784
#
# Stress axis : x y z
#
# Youngs Moduli (GPa) = 112.51064 77.90239 65.33154
#
# Poissons Ratio (x) = 0.15998 0.12872
# Poissons Ratio (y) = 0.23106 0.13770
# Poissons Ratio (z) = 0.22167 0.16420
#
# Static dielectric constant tensor:
#      x y z
#    x 1.837050 0.000000 0.000000 
#    y 0.000000 1.793310 0.000000 
#    z 0.000000 0.000000 1.797950 
# 
# From -- ./inp_files/31187.got.cif
#   From: 2010.05.17/outbox.cif.g08.bks.cpg/sg66_16_cif.got.tgz:31187.got - 2010.06.03 17:51:23.
