data_PCOD9498323
_publ_section_title
;
Structure prediction by ZEFSAII (Michael W. Deem and Ramdas Pophale) SiO2 
 PCOD9498323
Probable space group: C C C M
;
_chemical_formula_sum "Si O2"
_cell_formula_units_Z 64
_cell_length_a 16.852002
_cell_length_b 10.431785
_cell_length_c 15.085994
_cell_angle_alpha 90.000000
_cell_angle_beta 90.000000
_cell_angle_gamma 90.000000
_cell_volume 2652.064366
_symmetry_space_group_name_H-M "C C C M"
_symmetry_group_IT_number 66
_symmetry_cell_setting 'orthorhombic'
loop_
_space_group_symop_operation_xyz
x,y,z
-x,-y,z
x,-y,1/2-z
-x,y,1/2-z
-x,-y,-z
x,y,-z
-x,y,1/2+z
x,-y,1/2+z
1/2+x,1/2+y,z
1/2-x,1/2-y,z
1/2+x,1/2-y,1/2-z
1/2-x,1/2+y,1/2-z
1/2-x,1/2-y,-z
1/2+x,1/2+y,-z
1/2-x,1/2+y,1/2+z
1/2+x,1/2-y,1/2+z
loop_
_atom_site_type_symbol
_atom_site_label
_atom_site_fract_x
_atom_site_fract_y
_atom_site_fract_z
Si Si1 0.894512 0.413457 0.895712
Si Si2 0.906931 0.974212 0.105653
Si Si3 0.057173 0.695937 0.608569
Si Si4 0.763708 0.881276 0.308623
O O1 0.905460 0.560192 0.863910
O O2 0.805856 0.367057 0.881079
O O3 0.965070 0.321084 0.861794
O O4 0.909326 0.420724 0.000000
O O5 0.899687 0.826241 0.137731
O O6 0.847824 0.073190 0.152398
O O7 0.891418 0.982135 0.000000
O O8 0.000000 0.000000 0.119400
O O9 0.058591 0.705012 0.500000
O O10 0.750000 0.750000 0.256517
O O11 0.739002 0.000000 0.250000
#
# Coordination Sequence:
#
# PCOD9498323 Si02
#       4
#    16  16  16  16
#     4   9  18  37  66  95 125 159 207 261 316 372
#     4  10  21  39  67  96 123 158 211 268 321 372
#     4   8  16  33  63  99 124 153 198 261 317 367
#     4  12  28  43  60  88 129 174 211 256 314 382
#
# _framework density 24.132145000000001
#
# number of rings (size 3 to 8) (size 9 to 14) (size 15 to 20)
#    0.000    2.250    0.000    3.750    3.500    4.500 
#    0.000    6.250    0.000    0.000    0.000    0.000 
#    0.000    0.000    0.000    0.000    0.000    0.000 
#
# Total GULP energy -178629.009700 kJ/mol
# GULP energy per Si atom -5582.156553 kJ/mol
# Density = 2.407722 g / cm^3
# Si number density = 24.132145 Si / 1000 Ang^3
#
#
#
# Elastic Constant Matrix: (Units=GPa)
#
#
# Indices 1 2 3 4 5 6 
#
# 1 133.9173 55.1931 31.9376 0.0000 0.0000 0.0000
# 2 55.1931 177.9180 22.7127 0.0000 0.0000 0.0000
# 3 31.9376 22.7127 30.5642 0.0000 0.0000 0.0000
# 4 0.0000 0.0000 0.0000 22.3820 0.0000 0.0000
# 5 0.0000 0.0000 0.0000 0.0000 12.0050 0.0000
# 6 0.0000 0.0000 0.0000 0.0000 0.0000 43.2156
#
#
#
# Elastic Compliance Matrix: (Units=1/GPa)
#
#
# Indices 1 2 3 4 5 6 
#
# 1 0.010593 -0.002069 -0.009532 0.000000 0.000000 0.000000
# 2 -0.002069 0.006614 -0.002752 0.000000 0.000000 0.000000
# 3 -0.009532 -0.002752 0.044723 0.000000 0.000000 0.000000
# 4 0.000000 0.000000 0.000000 0.044679 0.000000 0.000000
# 5 0.000000 0.000000 0.000000 0.000000 0.083299 0.000000
# 6 0.000000 0.000000 0.000000 0.000000 0.000000 0.023140
#
#
# Mechanical properties :
#
#
# Convention : Reuss Voigt Hill
#
# Bulk Modulus (GPa) = 30.09908 62.45405 46.27657
# Shear Modulus (GPa) = 19.77621 31.02426 25.40023
#
# Velocity S-wave (km/s) = 2.86579 3.58941 3.24782
# Velocity P-wave (km/s) = 4.84252 6.56618 5.76909
#
# Compressibility (1/GPa) = 0.03322361
#
# Stress axis : x y z
#
# Youngs Moduli (GPa) = 94.39869 151.19630 22.35976
#
# Poissons Ratio (x) = 0.31289 0.21312
# Poissons Ratio (y) = 0.19535 0.06154
# Poissons Ratio (z) = 0.89976 0.41616
#
# Static dielectric constant tensor:
#      x y z
#    x 1.944050 0.000000 0.000000 
#    y 0.000000 2.033330 0.000000 
#    z 0.000000 0.000000 1.927810 
# 
# From -- ./inp_files/39789.got.cif
#   From: 2010.05.17/outbox.cif.g08.bks.cpg/sg66_20_cif.got.tgz:39789.got - 2010.06.03 17:51:23.
