data_PCOD9498805
_publ_section_title
;
Structure prediction by ZEFSAII (Michael W. Deem and Ramdas Pophale) SiO2 
 PCOD9498805
Probable space group: C C C M
;
_chemical_formula_sum "Si O2"
_cell_formula_units_Z 96
_cell_length_a 15.035636
_cell_length_b 20.535414
_cell_length_c 13.974569
_cell_angle_alpha 90.000000
_cell_angle_beta 90.000000
_cell_angle_gamma 90.000000
_cell_volume 4314.829988
_symmetry_space_group_name_H-M "C C C M"
_symmetry_group_IT_number 66
_symmetry_cell_setting 'orthorhombic'
loop_
_space_group_symop_operation_xyz
x,y,z
-x,-y,z
x,-y,1/2-z
-x,y,1/2-z
-x,-y,-z
x,y,-z
-x,y,1/2+z
x,-y,1/2+z
1/2+x,1/2+y,z
1/2-x,1/2-y,z
1/2+x,1/2-y,1/2-z
1/2-x,1/2+y,1/2-z
1/2-x,1/2-y,-z
1/2+x,1/2+y,-z
1/2-x,1/2+y,1/2+z
1/2+x,1/2-y,1/2+z
loop_
_atom_site_type_symbol
_atom_site_label
_atom_site_fract_x
_atom_site_fract_y
_atom_site_fract_z
Si Si1 0.082427 0.327548 0.889544
Si Si2 0.565468 0.684298 0.159319
Si Si3 0.584625 0.536565 0.110852
Si Si4 0.740824 0.443551 0.116173
Si Si5 0.750271 0.679143 0.254996
Si Si6 0.944332 0.438420 0.884653
O O1 0.048736 0.252927 0.891812
O O2 0.160905 0.333959 0.809195
O O3 0.999754 0.373638 0.861316
O O4 0.111405 0.344759 0.000000
O O5 0.500000 0.684012 0.250000
O O6 0.561850 0.612562 0.115713
O O7 0.669979 0.687968 0.181831
O O8 0.500000 0.500000 0.152907
O O9 0.677799 0.504453 0.144533
O O10 0.588220 0.519610 0.000000
O O11 0.718478 0.377212 0.172727
O O12 0.843598 0.450011 0.145686
O O13 0.737312 0.434828 0.000000
O O14 0.750000 0.750000 0.306058
O O15 0.000000 0.500000 0.853657
O O16 0.940793 0.438184 0.000000
#
# Coordination Sequence:
#
# PCOD9498805 Si02
#       6
#    16  16  16  16  16  16
#     4  10  23  43  68  97 133 179 231 285 350 417
#     4  11  24  40  64  93 132 175 224 290 343 405
#     4  10  22  41  65  93 127 172 228 281 337 408
#     4  10  22  41  65  94 133 175 219 273 340 415
#     4  10  24  40  62  95 128 170 223 276 341 408
#     4   9  20  39  64  95 128 167 214 272 337 405
#
# _framework density 22.248850000000001
#
# number of rings (size 3 to 8) (size 9 to 14) (size 15 to 20)
#    0.000    2.000    0.000    1.500    7.000    6.333 
#    0.000    1.667    0.000    0.000    0.000    0.000 
#    0.000    0.000    0.000    0.000    0.000    0.000 
#
# Total GULP energy -267467.617884 kJ/mol
# GULP energy per Si atom -5572.242039 kJ/mol
# Density = 2.219821 g / cm^3
# Si number density = 22.248850 Si / 1000 Ang^3
#
#
#
# Elastic Constant Matrix: (Units=GPa)
#
#
# Indices 1 2 3 4 5 6 
#
# 1 132.7305 62.8399 21.1934 0.0000 0.0000 0.0000
# 2 62.8399 150.8712 15.0607 0.0000 0.0000 0.0000
# 3 21.1934 15.0607 92.3739 0.0000 0.0000 0.0000
# 4 0.0000 0.0000 0.0000 32.8144 0.0000 0.0000
# 5 0.0000 0.0000 0.0000 0.0000 7.1683 0.0000
# 6 0.0000 0.0000 0.0000 0.0000 0.0000 38.5020
#
#
#
# Elastic Compliance Matrix: (Units=1/GPa)
#
#
# Indices 1 2 3 4 5 6 
#
# 1 0.009606 -0.003843 -0.001577 0.000000 0.000000 0.000000
# 2 -0.003843 0.008276 -0.000467 0.000000 0.000000 0.000000
# 3 -0.001577 -0.000467 0.011264 0.000000 0.000000 0.000000
# 4 0.000000 0.000000 0.000000 0.030474 0.000000 0.000000
# 5 0.000000 0.000000 0.000000 0.000000 0.139504 0.000000
# 6 0.000000 0.000000 0.000000 0.000000 0.000000 0.025973
#
#
# Mechanical properties :
#
#
# Convention : Reuss Voigt Hill
#
# Bulk Modulus (GPa) = 57.57469 63.79595 60.68532
# Shear Modulus (GPa) = 20.60484 34.15569 27.38026
#
# Velocity S-wave (km/s) = 3.04650 3.92237 3.51185
# Velocity P-wave (km/s) = 6.18940 7.01779 6.61657
#
# Compressibility (1/GPa) = 0.01736874
#
# Stress axis : x y z
#
# Youngs Moduli (GPa) = 104.10700 120.83629 88.78122
#
# Poissons Ratio (x) = 0.46442 0.14002
# Poissons Ratio (y) = 0.40012 0.04150
# Poissons Ratio (z) = 0.16419 0.05649
#
# Static dielectric constant tensor:
#      x y z
#    x 1.852170 0.000000 0.000000 
#    y 0.000000 1.842650 0.000000 
#    z 0.000000 0.000000 1.856200 
# 
# From -- ./inp_files/28396.got.cif
#   From: 2010.05.17/outbox.cif.g08.bks.cpg/sg66_15_cif.got.tgz:28396.got - 2010.06.03 17:51:23.
