data_PCOD9498294
_publ_section_title
;
Structure prediction by ZEFSAII (Michael W. Deem and Ramdas Pophale) SiO2 
 PCOD9498294
Probable space group: C C C M
;
_chemical_formula_sum "Si O2"
_cell_formula_units_Z 112
_cell_length_a 26.031992
_cell_length_b 11.850012
_cell_length_c 19.048142
_cell_angle_alpha 90.000000
_cell_angle_beta 90.000000
_cell_angle_gamma 90.000000
_cell_volume 5875.959750
_symmetry_space_group_name_H-M "C C C M"
_symmetry_group_IT_number 66
_symmetry_cell_setting 'orthorhombic'
loop_
_space_group_symop_operation_xyz
x,y,z
-x,-y,z
x,-y,1/2-z
-x,y,1/2-z
-x,-y,-z
x,y,-z
-x,y,1/2+z
x,-y,1/2+z
1/2+x,1/2+y,z
1/2-x,1/2-y,z
1/2+x,1/2-y,1/2-z
1/2-x,1/2+y,1/2-z
1/2-x,1/2-y,-z
1/2+x,1/2+y,-z
1/2-x,1/2+y,1/2+z
1/2+x,1/2-y,1/2+z
loop_
_atom_site_type_symbol
_atom_site_label
_atom_site_fract_x
_atom_site_fract_y
_atom_site_fract_z
Si Si1 0.598764 0.278809 0.667553
Si Si2 0.250454 0.381325 0.417685
Si Si3 0.493888 0.634299 0.420879
Si Si4 0.561013 0.023897 0.332598
Si Si5 0.865495 0.637128 0.417699
Si Si6 0.670334 0.473181 0.329711
Si Si7 0.407573 0.332519 0.331000
O O1 0.559830 0.337009 0.613927
O O2 0.585796 0.147442 0.655754
O O3 0.653932 0.342553 0.658862
O O4 0.585933 0.302674 0.749481
O O5 0.264941 0.377147 0.500000
O O6 0.250000 0.250000 0.392655
O O7 0.190942 0.416697 0.411380
O O8 0.287943 0.468323 0.379323
O O9 0.500000 0.500000 0.423646
O O10 0.498398 0.679450 0.500000
O O11 0.538928 0.678793 0.371042
O O12 0.500000 0.000000 0.344014
O O13 0.570012 0.000000 0.250000
O O14 0.591626 0.941549 0.383910
O O15 0.874155 0.661805 0.500000
O O16 0.868569 0.749954 0.371134
O O17 0.687309 0.500000 0.250000
O O18 0.617264 0.544136 0.336797
#
# Coordination Sequence:
#
# PCOD9498294 Si02
#       7
#    16  16  16  16  16  16  16
#     4  11  23  40  62  87 130 170 212 269 328 381
#     4  10  21  39  65  95 127 165 210 264 321 382
#     4  11  23  35  54  91 130 168 208 253 319 392
#     4  11  24  42  63  92 124 172 222 263 320 388
#     4  11  23  40  66  94 122 165 214 265 322 381
#     4  10  22  38  59  96 127 163 211 266 332 386
#     4  11  20  37  61  90 125 161 212 266 321 387
#
# _framework density 19.060714999999998
#
# number of rings (size 3 to 8) (size 9 to 14) (size 15 to 20)
#    0.000    1.286    4.286    1.714    2.000    3.143 
#    0.000    0.714    0.000    1.714    0.000    0.000 
#    0.000    0.000    0.000    0.000    0.000    0.000 
#
# Total GULP energy -312285.018118 kJ/mol
# GULP energy per Si atom -5576.518181 kJ/mol
# Density = 1.901733 g / cm^3
# Si number density = 19.060715 Si / 1000 Ang^3
#
#
#
# Elastic Constant Matrix: (Units=GPa)
#
#
# Indices 1 2 3 4 5 6 
#
# 1 61.4132 19.2346 28.9694 0.0000 0.0000 0.0000
# 2 19.2346 97.5177 17.5615 0.0000 0.0000 0.0000
# 3 28.9694 17.5615 82.9463 0.0000 0.0000 0.0000
# 4 0.0000 0.0000 0.0000 19.4957 0.0000 0.0000
# 5 0.0000 0.0000 0.0000 0.0000 26.1608 0.0000
# 6 0.0000 0.0000 0.0000 0.0000 0.0000 33.0819
#
#
#
# Elastic Compliance Matrix: (Units=1/GPa)
#
#
# Indices 1 2 3 4 5 6 
#
# 1 0.020216 -0.002824 -0.006463 0.000000 0.000000 0.000000
# 2 -0.002824 0.011055 -0.001354 0.000000 0.000000 0.000000
# 3 -0.006463 -0.001354 0.014600 0.000000 0.000000 0.000000
# 4 0.000000 0.000000 0.000000 0.051293 0.000000 0.000000
# 5 0.000000 0.000000 0.000000 0.000000 0.038225 0.000000
# 6 0.000000 0.000000 0.000000 0.000000 0.000000 0.030228
#
#
# Mechanical properties :
#
#
# Convention : Reuss Voigt Hill
#
# Bulk Modulus (GPa) = 40.66750 41.48980 41.07865
# Shear Modulus (GPa) = 25.62836 27.48844 26.55840
#
# Velocity S-wave (km/s) = 3.67081 3.80169 3.73682
# Velocity P-wave (km/s) = 6.27284 6.40975 6.34166
#
# Compressibility (1/GPa) = 0.02458966
#
# Stress axis : x y z
#
# Youngs Moduli (GPa) = 49.46560 90.45339 68.49356
#
# Poissons Ratio (x) = 0.25541 0.44266
# Poissons Ratio (y) = 0.13967 0.09277
# Poissons Ratio (z) = 0.31968 0.12252
#
# Static dielectric constant tensor:
#      x y z
#    x 1.669720 0.000000 0.000000 
#    y 0.000000 1.629860 0.000000 
#    z 0.000000 0.000000 1.639070 
# 
# From -- ./inp_files/52575.got.cif
#   From: 2010.05.17/outbox.cif.g08.bks.cpg/sg66_27_cif.got.tgz:52575.got - 2010.06.03 17:51:23.
