data_PCOD9498431
_publ_section_title
;
Structure prediction by ZEFSAII (Michael W. Deem and Ramdas Pophale) SiO2 
 PCOD9498431
Probable space group: C C C M
;
_chemical_formula_sum "Si O2"
_cell_formula_units_Z 56
_cell_length_a 18.574261
_cell_length_b 5.130021
_cell_length_c 25.910600
_cell_angle_alpha 90.000000
_cell_angle_beta 90.000000
_cell_angle_gamma 90.000000
_cell_volume 2468.926474
_symmetry_space_group_name_H-M "C C C M"
_symmetry_group_IT_number 66
_symmetry_cell_setting 'orthorhombic'
loop_
_space_group_symop_operation_xyz
x,y,z
-x,-y,z
x,-y,1/2-z
-x,y,1/2-z
-x,-y,-z
x,y,-z
-x,y,1/2+z
x,-y,1/2+z
1/2+x,1/2+y,z
1/2-x,1/2-y,z
1/2+x,1/2-y,1/2-z
1/2-x,1/2+y,1/2-z
1/2-x,1/2-y,-z
1/2+x,1/2+y,-z
1/2-x,1/2+y,1/2+z
1/2+x,1/2-y,1/2+z
loop_
_atom_site_type_symbol
_atom_site_label
_atom_site_fract_x
_atom_site_fract_y
_atom_site_fract_z
Si Si1 0.000000 0.500000 0.144426
Si Si2 0.829010 0.129415 0.094377
Si Si3 0.082523 0.106756 0.304969
Si Si4 0.405519 0.848663 0.442329
O O1 0.063468 0.591470 0.182508
O O2 0.035578 0.302924 0.102588
O O3 0.750000 0.250000 0.096240
O O4 0.858987 0.056280 0.151108
O O5 0.876790 0.360974 0.069469
O O6 0.842462 0.863973 0.063361
O O7 0.106873 0.000000 0.250000
O O8 0.000000 0.000000 0.310405
O O9 0.434716 0.828059 0.500000
#
# Coordination Sequence:
#
# PCOD9498431 Si02
#       4
#     8  16  16  16
#     4  10  21  41  64 100 132 164 218 286 332 390
#     4  11  24  43  63  95 135 170 216 271 327 393
#     4  10  21  41  67  92 124 167 220 269 331 394
#     4  11  23  40  66  95 131 175 219 269 328 393
#
# _framework density 22.681923999999999
#
# number of rings (size 3 to 8) (size 9 to 14) (size 15 to 20)
#    0.000    1.429    2.857    2.143    0.000    5.714 
#    0.000    7.143    0.000    0.000    0.000    0.000 
#    0.000    0.000    0.000    0.000    0.000    0.000 
#
# Total GULP energy -156006.369364 kJ/mol
# GULP energy per Si atom -5571.656049 kJ/mol
# Density = 2.263030 g / cm^3
# Si number density = 22.681924 Si / 1000 Ang^3
#
#
#
# Elastic Constant Matrix: (Units=GPa)
#
#
# Indices 1 2 3 4 5 6 
#
# 1 80.8219 19.0178 20.0028 0.0000 0.0000 0.0000
# 2 19.0178 85.2206 53.4576 0.0000 0.0000 0.0000
# 3 20.0028 53.4576 182.1729 0.0000 0.0000 0.0000
# 4 0.0000 0.0000 0.0000 15.6864 0.0000 0.0000
# 5 0.0000 0.0000 0.0000 0.0000 10.2055 0.0000
# 6 0.0000 0.0000 0.0000 0.0000 0.0000 42.7901
#
#
#
# Elastic Compliance Matrix: (Units=1/GPa)
#
#
# Indices 1 2 3 4 5 6 
#
# 1 0.013134 -0.002483 -0.000713 0.000000 0.000000 0.000000
# 2 -0.002483 0.014851 -0.004085 0.000000 0.000000 0.000000
# 3 -0.000713 -0.004085 0.006766 0.000000 0.000000 0.000000
# 4 0.000000 0.000000 0.000000 0.063749 0.000000 0.000000
# 5 0.000000 0.000000 0.000000 0.000000 0.097987 0.000000
# 6 0.000000 0.000000 0.000000 0.000000 0.000000 0.023370
#
#
# Mechanical properties :
#
#
# Convention : Reuss Voigt Hill
#
# Bulk Modulus (GPa) = 49.53650 59.24131 54.38890
# Shear Modulus (GPa) = 20.73395 30.78555 25.75975
#
# Velocity S-wave (km/s) = 3.02672 3.68811 3.37366
# Velocity P-wave (km/s) = 5.83967 6.65667 6.26151
#
# Compressibility (1/GPa) = 0.02018714
#
# Stress axis : x y z
#
# Youngs Moduli (GPa) = 76.13939 67.33508 147.78863
#
# Poissons Ratio (x) = 0.16722 0.10542
# Poissons Ratio (y) = 0.18909 0.60376
# Poissons Ratio (z) = 0.05431 0.27508
#
# Static dielectric constant tensor:
#      x y z
#    x 1.873490 0.000000 0.000000 
#    y 0.000000 2.119640 0.000000 
#    z 0.000000 0.000000 1.839960 
# 
# From -- ./inp_files/53892.got.cif
#   From: 2010.05.17/outbox.cif.g08.bks.cpg/sg66_27_cif.got.tgz:53892.got - 2010.06.03 17:51:23.
