data_PCOD9498253
_publ_section_title
;
Structure prediction by ZEFSAII (Michael W. Deem and Ramdas Pophale) SiO2 
 PCOD9498253
Probable space group: C C C M
;
_chemical_formula_sum "Si O2"
_cell_formula_units_Z 68
_cell_length_a 11.696128
_cell_length_b 21.656102
_cell_length_c 13.220719
_cell_angle_alpha 90.000000
_cell_angle_beta 90.000000
_cell_angle_gamma 90.000000
_cell_volume 3348.709509
_symmetry_space_group_name_H-M "C C C M"
_symmetry_group_IT_number 66
_symmetry_cell_setting 'orthorhombic'
loop_
_space_group_symop_operation_xyz
x,y,z
-x,-y,z
x,-y,1/2-z
-x,y,1/2-z
-x,-y,-z
x,y,-z
-x,y,1/2+z
x,-y,1/2+z
1/2+x,1/2+y,z
1/2-x,1/2-y,z
1/2+x,1/2-y,1/2-z
1/2-x,1/2+y,1/2-z
1/2-x,1/2-y,-z
1/2+x,1/2+y,-z
1/2-x,1/2+y,1/2+z
1/2+x,1/2-y,1/2+z
loop_
_atom_site_type_symbol
_atom_site_label
_atom_site_fract_x
_atom_site_fract_y
_atom_site_fract_z
Si Si1 0.188848 0.932367 0.621664
Si Si2 0.082319 0.327405 0.382617
Si Si3 0.116830 0.532216 0.120528
Si Si4 0.000000 0.000000 0.750000
Si Si5 0.821183 0.692439 0.176550
O O1 0.172590 0.928235 0.500000
O O2 0.076398 0.955331 0.679459
O O3 0.243171 0.868304 0.660609
O O4 0.279947 0.986860 0.643416
O O5 0.115958 0.316797 0.500000
O O6 0.114644 0.397074 0.347744
O O7 0.144306 0.290672 0.292945
O O8 0.945104 0.319539 0.374594
O O9 0.000000 0.500000 0.149761
O O10 0.115350 0.536898 0.000000
O O11 0.750000 0.750000 0.134072
#
# Coordination Sequence:
#
# PCOD9498253 Si02
#       5
#    16  16  16   4  16
#     4  11  23  42  65  91 129 168 207 260 317 377
#     4  10  21  39  63  93 123 154 201 270 332 372
#     4   9  16  33  65  98 118 140 191 262 334 377
#     4  12  26  40  58  94 128 176 214 248 300 390
#     4  11  24  40  60  90 123 166 216 254 300 380
#
# _framework density 20.306331
#
# number of rings (size 3 to 8) (size 9 to 14) (size 15 to 20)
#    0.000    1.647    2.353    2.471    0.000    4.235 
#    0.000    1.176    0.000    0.000    0.000    0.000 
#    0.000    0.000    0.000    0.000    0.000    0.000 
#
# Total GULP energy -189714.481887 kJ/mol
# GULP energy per Si atom -5579.837703 kJ/mol
# Density = 2.026011 g / cm^3
# Si number density = 20.306331 Si / 1000 Ang^3
#
#
#
# Elastic Constant Matrix: (Units=GPa)
#
#
# Indices 1 2 3 4 5 6 
#
# 1 127.3945 53.7355 41.9713 0.0000 0.0000 0.0000
# 2 53.7355 83.1489 16.6048 0.0000 0.0000 0.0000
# 3 41.9713 16.6048 137.2186 0.0000 0.0000 0.0000
# 4 0.0000 0.0000 0.0000 19.0592 0.0000 0.0000
# 5 0.0000 0.0000 0.0000 0.0000 33.6927 0.0000
# 6 0.0000 0.0000 0.0000 0.0000 0.0000 32.1812
#
#
#
# Elastic Compliance Matrix: (Units=1/GPa)
#
#
# Indices 1 2 3 4 5 6 
#
# 1 0.011712 -0.007024 -0.002733 0.000000 0.000000 0.000000
# 2 -0.007024 0.016536 0.000147 0.000000 0.000000 0.000000
# 3 -0.002733 0.000147 0.008106 0.000000 0.000000 0.000000
# 4 0.000000 0.000000 0.000000 0.052468 0.000000 0.000000
# 5 0.000000 0.000000 0.000000 0.000000 0.029680 0.000000
# 6 0.000000 0.000000 0.000000 0.000000 0.000000 0.031074
#
#
# Mechanical properties :
#
#
# Convention : Reuss Voigt Hill
#
# Bulk Modulus (GPa) = 58.35476 63.59835 60.97656
# Shear Modulus (GPa) = 28.65225 32.68333 30.66779
#
# Velocity S-wave (km/s) = 3.76040 4.01623 3.89042
# Velocity P-wave (km/s) = 6.90317 7.27284 7.09042
#
# Compressibility (1/GPa) = 0.01713656
#
# Stress axis : x y z
#
# Youngs Moduli (GPa) = 85.37905 60.47331 123.37081
#
# Poissons Ratio (x) = 0.42474 0.33712
# Poissons Ratio (y) = 0.59967 -0.01817
# Poissons Ratio (z) = 0.23331 -0.00891
#
# Static dielectric constant tensor:
#      x y z
#    x 1.679550 0.000000 0.000000 
#    y 0.000000 1.788670 0.000000 
#    z 0.000000 0.000000 1.774450 
# 
# From -- ./inp_files/26105.got.cif
#   From: 2010.05.17/outbox.cif.g08.bks.cpg/sg66_14_cif.got.tgz:26105.got - 2010.06.03 17:51:23.
