data_PCOD9498407
_publ_section_title
;
Structure prediction by ZEFSAII (Michael W. Deem and Ramdas Pophale) SiO2 
 PCOD9498407
Probable space group: C C C M
;
_chemical_formula_sum "Si O2"
_cell_formula_units_Z 48
_cell_length_a 8.286730
_cell_length_b 15.867278
_cell_length_c 15.912665
_cell_angle_alpha 90.000000
_cell_angle_beta 90.000000
_cell_angle_gamma 90.000000
_cell_volume 2092.322087
_symmetry_space_group_name_H-M "C C C M"
_symmetry_group_IT_number 66
_symmetry_cell_setting 'orthorhombic'
loop_
_space_group_symop_operation_xyz
x,y,z
-x,-y,z
x,-y,1/2-z
-x,y,1/2-z
-x,-y,-z
x,y,-z
-x,y,1/2+z
x,-y,1/2+z
1/2+x,1/2+y,z
1/2-x,1/2-y,z
1/2+x,1/2-y,1/2-z
1/2-x,1/2+y,1/2-z
1/2-x,1/2-y,-z
1/2+x,1/2+y,-z
1/2-x,1/2+y,1/2+z
1/2+x,1/2-y,1/2+z
loop_
_atom_site_type_symbol
_atom_site_label
_atom_site_fract_x
_atom_site_fract_y
_atom_site_fract_z
Si Si1 0.191708 0.011515 0.899556
Si Si2 0.364463 0.169466 0.175834
Si Si3 0.824717 0.666304 0.405218
O O1 0.258302 0.087358 0.843226
O O2 0.274566 0.924299 0.870408
O O3 0.227844 0.025441 0.000000
O O4 0.000000 0.000000 0.891877
O O5 0.500000 0.162871 0.250000
O O6 0.250000 0.250000 0.183440
O O7 0.484741 0.177634 0.096856
O O8 0.759415 0.663114 0.500000
O O9 0.750000 0.750000 0.364983
#
# Coordination Sequence:
#
# PCOD9498407 Si02
#       3
#    16  16  16
#     4  10  22  42  70 103 133 167 219 278 334 393
#     4  12  26  43  62  91 132 176 224 271 328 395
#     4  10  21  40  67  99 132 167 213 268 325 389
#
# _framework density 22.941019000000001
#
# number of rings (size 3 to 8) (size 9 to 14) (size 15 to 20)
#    0.000    1.333    0.000    5.000    0.000   10.667 
#    0.000    1.667    0.000    0.000    0.000    0.000 
#    0.000    0.000    0.000    0.000    0.000    0.000 
#
# Total GULP energy -134042.111309 kJ/mol
# GULP energy per Si atom -5585.087971 kJ/mol
# Density = 2.288880 g / cm^3
# Si number density = 22.941019 Si / 1000 Ang^3
#
#
#
# Elastic Constant Matrix: (Units=GPa)
#
#
# Indices 1 2 3 4 5 6 
#
# 1 149.0413 111.1993 45.7917 0.0000 0.0000 0.0000
# 2 111.1993 270.9139 74.4861 0.0000 0.0000 0.0000
# 3 45.7917 74.4861 85.6971 0.0000 0.0000 0.0000
# 4 0.0000 0.0000 0.0000 -43.2937 0.0000 0.0000
# 5 0.0000 0.0000 0.0000 0.0000 84.2529 0.0000
# 6 0.0000 0.0000 0.0000 0.0000 0.0000 57.3306
#
#
#
# Elastic Compliance Matrix: (Units=1/GPa)
#
#
# Indices 1 2 3 4 5 6 
#
# 1 0.010015 -0.003468 -0.002337 0.000000 0.000000 0.000000
# 2 -0.003468 0.006051 -0.003406 0.000000 0.000000 0.000000
# 3 -0.002337 -0.003406 0.015879 0.000000 0.000000 0.000000
# 4 0.000000 0.000000 0.000000 -0.023098 0.000000 0.000000
# 5 0.000000 0.000000 0.000000 0.000000 0.011869 0.000000
# 6 0.000000 0.000000 0.000000 0.000000 0.000000 0.017443
#
#
# Mechanical properties :
#
#
# Convention : Reuss Voigt Hill
#
# Bulk Modulus (GPa) = 73.95531 107.62294 90.78912
# Shear Modulus (GPa) = 81.84668 37.93631 59.89150
#
# Velocity S-wave (km/s) = 5.97950 4.07092 5.11502
# Velocity P-wave (km/s) = 8.94314 8.31331 8.63397
#
# Compressibility (1/GPa) = 0.01352168
#
# Stress axis : x y z
#
# Youngs Moduli (GPa) = 99.84736 165.25069 62.97782
#
# Poissons Ratio (x) = 0.57314 0.14718
# Poissons Ratio (y) = 0.34630 0.21453
# Poissons Ratio (z) = 0.23334 0.56292
#
# Static dielectric constant tensor:
#      x y z
#    x 1.805150 0.000000 0.000000 
#    y 0.000000 1.848020 0.000000 
#    z 0.000000 0.000000 2.033280 
# 
# From -- ./inp_files/35616.got.cif
#   From: 2010.05.17/outbox.cif.g08.bks.cpg/sg66_18_cif.got.tgz:35616.got - 2010.06.03 17:51:23.
