data_PCOD9498635
_publ_section_title
;
Structure prediction by ZEFSAII (Michael W. Deem and Ramdas Pophale) SiO2 
 PCOD9498635
Probable space group: C C C M
;
_chemical_formula_sum "Si O2"
_cell_formula_units_Z 68
_cell_length_a 31.136288
_cell_length_b 5.598584
_cell_length_c 19.328550
_cell_angle_alpha 90.000000
_cell_angle_beta 90.000000
_cell_angle_gamma 90.000000
_cell_volume 3369.335901
_symmetry_space_group_name_H-M "C C C M"
_symmetry_group_IT_number 66
_symmetry_cell_setting 'orthorhombic'
loop_
_space_group_symop_operation_xyz
x,y,z
-x,-y,z
x,-y,1/2-z
-x,y,1/2-z
-x,-y,-z
x,y,-z
-x,y,1/2+z
x,-y,1/2+z
1/2+x,1/2+y,z
1/2-x,1/2-y,z
1/2+x,1/2-y,1/2-z
1/2-x,1/2+y,1/2-z
1/2-x,1/2-y,-z
1/2+x,1/2+y,-z
1/2-x,1/2+y,1/2+z
1/2+x,1/2-y,1/2+z
loop_
_atom_site_type_symbol
_atom_site_label
_atom_site_fract_x
_atom_site_fract_y
_atom_site_fract_z
Si Si1 0.625139 0.000000 0.750000
Si Si2 0.415842 0.777973 0.500000
Si Si3 0.861780 0.223884 0.000000
Si Si4 0.929152 0.207320 0.349333
Si Si5 0.275529 0.500000 0.750000
Si Si6 0.500000 0.500000 0.250000
Si Si7 0.843363 0.115183 0.849284
O O1 0.594274 0.924552 0.812363
O O2 0.653458 0.805612 0.712270
O O3 0.387128 0.533328 0.500000
O O4 0.441202 0.762765 0.428057
O O5 0.389677 0.029671 0.500000
O O6 0.837320 0.216310 0.073602
O O7 0.968651 0.140924 0.301250
O O8 0.890364 0.012337 0.348396
O O9 0.250000 0.750000 0.760218
O O10 0.304203 0.460472 0.820280
#
# Coordination Sequence:
#
# PCOD9498635 Si02
#       7
#     8   8   8  16   8   4  16
#     4  12  17  37  70  86 120 170 216 270 306 386
#     4  10  22  39  60  95 126 168 220 264 326 373
#     4  10  22  38  70  92 122 168 220 262 314 390
#     4  11  23  38  63  90 129 167 220 270 319 390
#     4  12  26  40  66 102 134 167 211 268 323 387
#     4  12  22  40  56  98 130 174 222 270 330 372
#     4  11  22  42  64  94 125 171 216 264 322 385
#
# _framework density 20.182019
#
# number of rings (size 3 to 8) (size 9 to 14) (size 15 to 20)
#    0.000    0.941    7.059    0.706    0.000    0.941 
#    0.000    1.176    0.000    4.235    0.000    0.000 
#    0.000    0.000    0.000    0.000    0.000    0.000 
#
# Total GULP energy -189321.423462 kJ/mol
# GULP energy per Si atom -5568.277161 kJ/mol
# Density = 2.013608 g / cm^3
# Si number density = 20.182019 Si / 1000 Ang^3
#
#
#
# Elastic Constant Matrix: (Units=GPa)
#
#
# Indices 1 2 3 4 5 6 
#
# 1 75.6422 18.5798 46.9363 0.0000 0.0000 0.0000
# 2 18.5798 75.2813 22.8102 0.0000 0.0000 0.0000
# 3 46.9363 22.8102 191.6126 0.0000 0.0000 0.0000
# 4 0.0000 0.0000 0.0000 384.8344 0.0000 0.0000
# 5 0.0000 0.0000 0.0000 0.0000 34.9797 0.0000
# 6 0.0000 0.0000 0.0000 0.0000 0.0000 -13.7709
#
#
#
# Elastic Compliance Matrix: (Units=1/GPa)
#
#
# Indices 1 2 3 4 5 6 
#
# 1 0.016176 -0.002896 -0.003618 0.000000 0.000000 0.000000
# 2 -0.002896 0.014299 -0.000993 0.000000 0.000000 0.000000
# 3 -0.003618 -0.000993 0.006223 0.000000 0.000000 0.000000
# 4 0.000000 0.000000 0.000000 0.002599 0.000000 0.000000
# 5 0.000000 0.000000 0.000000 0.000000 0.028588 0.000000
# 6 0.000000 0.000000 0.000000 0.000000 0.000000 -0.072617
#
#
# Mechanical properties :
#
#
# Convention : Reuss Voigt Hill
#
# Bulk Modulus (GPa) = 46.11424 57.68764 51.90094
# Shear Modulus (GPa) = 285.54913 98.15597 191.85255
#
# Velocity S-wave (km/s) = 11.90773 6.98147 9.76051
# Velocity P-wave (km/s) = 14.55876 9.67645 12.36105
#
# Compressibility (1/GPa) = 0.02168528
#
# Stress axis : x y z
#
# Youngs Moduli (GPa) = 61.81874 69.93434 160.68874
#
# Poissons Ratio (x) = 0.20255 0.58132
# Poissons Ratio (y) = 0.17904 0.15953
# Poissons Ratio (z) = 0.22364 0.06943
#
# Static dielectric constant tensor:
#      x y z
#    x 1.851720 0.000000 0.000000 
#    y 0.000000 1.964070 0.000000 
#    z 0.000000 0.000000 1.719900 
# 
# From -- ./inp_files/45817.got.cif
#   From: 2010.05.17/outbox.cif.g08.bks.cpg/sg66_23_cif.got.tgz:45817.got - 2010.06.03 17:51:23.
