data_PCOD9498604
_publ_section_title
;
Structure prediction by ZEFSAII (Michael W. Deem and Ramdas Pophale) SiO2 
 PCOD9498604
Probable space group: C C C M
;
_chemical_formula_sum "Si O2"
_cell_formula_units_Z 64
_cell_length_a 17.337329
_cell_length_b 10.257246
_cell_length_c 15.963354
_cell_angle_alpha 90.000000
_cell_angle_beta 90.000000
_cell_angle_gamma 90.000000
_cell_volume 2838.815099
_symmetry_space_group_name_H-M "C C C M"
_symmetry_group_IT_number 66
_symmetry_cell_setting 'orthorhombic'
loop_
_space_group_symop_operation_xyz
x,y,z
-x,-y,z
x,-y,1/2-z
-x,y,1/2-z
-x,-y,-z
x,y,-z
-x,y,1/2+z
x,-y,1/2+z
1/2+x,1/2+y,z
1/2-x,1/2-y,z
1/2+x,1/2-y,1/2-z
1/2-x,1/2+y,1/2-z
1/2-x,1/2-y,-z
1/2+x,1/2+y,-z
1/2-x,1/2+y,1/2+z
1/2+x,1/2-y,1/2+z
loop_
_atom_site_type_symbol
_atom_site_label
_atom_site_fract_x
_atom_site_fract_y
_atom_site_fract_z
Si Si1 0.948164 0.298924 0.101452
Si Si2 0.762090 0.891759 0.821734
Si Si3 0.898302 0.585067 0.098851
Si Si4 0.414699 0.478133 0.348931
O O1 0.916043 0.438802 0.130011
O O2 0.902663 0.175388 0.136004
O O3 0.038211 0.310247 0.130177
O O4 0.944063 0.289888 0.000000
O O5 0.750000 0.750000 0.780759
O O6 0.689855 0.890108 0.883498
O O7 0.753358 0.000000 0.750000
O O8 0.841422 0.930918 0.869957
O O9 0.912052 0.580448 0.000000
O O10 0.500000 0.500000 0.388317
O O11 0.421957 0.500000 0.250000
#
# Coordination Sequence:
#
# PCOD9498604 Si02
#       4
#    16  16  16  16
#     4   9  19  39  65  93 122 164 211 261 311 377
#     4  11  25  40  62  91 130 168 210 263 318 380
#     4   9  20  40  66  93 126 160 210 263 317 378
#     4  10  22  38  59  84 126 164 212 255 311 371
#
# _framework density 22.544618
#
# number of rings (size 3 to 8) (size 9 to 14) (size 15 to 20)
#    0.000    2.250    0.000    3.000    7.000    2.000 
#    0.000    3.750    0.000    0.000    0.000    0.000 
#    0.000    0.000    0.000    0.000    0.000    0.000 
#
# Total GULP energy -178356.357674 kJ/mol
# GULP energy per Si atom -5573.636177 kJ/mol
# Density = 2.249331 g / cm^3
# Si number density = 22.544618 Si / 1000 Ang^3
#
#
#
# Elastic Constant Matrix: (Units=GPa)
#
#
# Indices 1 2 3 4 5 6 
#
# 1 145.8154 43.3383 5.4856 0.0000 0.0000 0.0000
# 2 43.3383 160.3036 20.1524 0.0000 0.0000 0.0000
# 3 5.4856 20.1524 18.8592 0.0000 0.0000 0.0000
# 4 0.0000 0.0000 0.0000 30.6180 0.0000 0.0000
# 5 0.0000 0.0000 0.0000 0.0000 40.8789 0.0000
# 6 0.0000 0.0000 0.0000 0.0000 0.0000 40.1309
#
#
#
# Elastic Compliance Matrix: (Units=1/GPa)
#
#
# Indices 1 2 3 4 5 6 
#
# 1 0.007457 -0.002014 -0.000017 0.000000 0.000000 0.000000
# 2 -0.002014 0.007750 -0.007696 0.000000 0.000000 0.000000
# 3 -0.000017 -0.007696 0.061253 0.000000 0.000000 0.000000
# 4 0.000000 0.000000 0.000000 0.032660 0.000000 0.000000
# 5 0.000000 0.000000 0.000000 0.000000 0.024463 0.000000
# 6 0.000000 0.000000 0.000000 0.000000 0.000000 0.024918
#
#
# Mechanical properties :
#
#
# Convention : Reuss Voigt Hill
#
# Bulk Modulus (GPa) = 17.54182 51.43677 34.48930
# Shear Modulus (GPa) = 25.38624 39.39235 32.38929
#
# Velocity S-wave (km/s) = 3.35930 4.18461 3.79446
# Velocity P-wave (km/s) = 4.77958 6.79802 5.87611
#
# Compressibility (1/GPa) = 0.05700662
#
# Stress axis : x y z
#
# Youngs Moduli (GPa) = 134.09874 129.03083 16.32580
#
# Poissons Ratio (x) = 0.25986 0.00028
# Poissons Ratio (y) = 0.27006 0.12564
# Poissons Ratio (z) = 0.00229 0.99298
#
# Static dielectric constant tensor:
#      x y z
#    x 1.932680 0.000000 0.000000 
#    y 0.000000 1.905820 0.000000 
#    z 0.000000 0.000000 1.818670 
# 
# From -- ./inp_files/46607.got.cif
#   From: 2010.05.17/outbox.cif.g08.bks.cpg/sg66_24_cif.got.tgz:46607.got - 2010.06.03 17:51:23.
