data_PCOD9498271
_publ_section_title
;
Structure prediction by ZEFSAII (Michael W. Deem and Ramdas Pophale) SiO2 
 PCOD9498271
Probable space group: C C C M
;
_chemical_formula_sum "Si O2"
_cell_formula_units_Z 96
_cell_length_a 15.613983
_cell_length_b 18.634709
_cell_length_c 15.098278
_cell_angle_alpha 90.000000
_cell_angle_beta 90.000000
_cell_angle_gamma 90.000000
_cell_volume 4393.025609
_symmetry_space_group_name_H-M "C C C M"
_symmetry_group_IT_number 66
_symmetry_cell_setting 'orthorhombic'
loop_
_space_group_symop_operation_xyz
x,y,z
-x,-y,z
x,-y,1/2-z
-x,y,1/2-z
-x,-y,-z
x,y,-z
-x,y,1/2+z
x,-y,1/2+z
1/2+x,1/2+y,z
1/2-x,1/2-y,z
1/2+x,1/2-y,1/2-z
1/2-x,1/2+y,1/2-z
1/2-x,1/2-y,-z
1/2+x,1/2+y,-z
1/2-x,1/2+y,1/2+z
1/2+x,1/2-y,1/2+z
loop_
_atom_site_type_symbol
_atom_site_label
_atom_site_fract_x
_atom_site_fract_y
_atom_site_fract_z
Si Si1 0.438429 0.062001 0.898827
Si Si2 0.317031 0.691361 0.704718
Si Si3 0.043668 0.276921 0.104191
Si Si4 0.126371 0.196379 0.401305
Si Si5 0.416758 0.535588 0.101129
Si Si6 0.244113 0.535133 0.338496
O O1 0.441477 0.142526 0.859750
O O2 0.338971 0.039307 0.899675
O O3 0.500000 0.000000 0.860345
O O4 0.469240 0.072362 0.000000
O O5 0.250000 0.750000 0.671281
O O6 0.406155 0.718158 0.662637
O O7 0.319571 0.694486 0.811675
O O8 0.285580 0.613396 0.675092
O O9 0.943160 0.259074 0.105592
O O10 0.071415 0.271836 0.000000
O O11 0.167488 0.198780 0.500000
O O12 0.075416 0.120888 0.398820
O O13 0.500000 0.500000 0.144485
O O14 0.324636 0.514663 0.138108
O O15 0.413803 0.508856 0.000000
O O16 0.207213 0.500000 0.250000
#
# Coordination Sequence:
#
# PCOD9498271 Si02
#       6
#    16  16  16  16  16  16
#     4  10  23  45  70  96 130 177 228 281 341 404
#     4  12  24  41  64  95 132 171 218 273 339 400
#     4  10  22  42  68  99 132 171 223 278 339 408
#     4  10  22  42  64  90 126 172 221 268 327 400
#     4  10  21  39  64  93 128 169 213 267 333 400
#     4  12  24  41  63  98 135 174 218 277 334 407
#
# _framework density 21.852820000000001
#
# number of rings (size 3 to 8) (size 9 to 14) (size 15 to 20)
#    0.000    1.333    3.333    2.000    0.000    5.333 
#    3.000    0.000    0.000    0.000    0.000    0.000 
#    0.000    0.000    0.000    0.000    0.000    0.000 
#
# Total GULP energy -267823.269552 kJ/mol
# GULP energy per Si atom -5579.651449 kJ/mol
# Density = 2.180308 g / cm^3
# Si number density = 21.852820 Si / 1000 Ang^3
#
#
#
# Elastic Constant Matrix: (Units=GPa)
#
#
# Indices 1 2 3 4 5 6 
#
# 1 79.9667 26.7987 3.8644 0.0000 0.0000 0.0000
# 2 26.7987 98.5270 6.0017 0.0000 0.0000 0.0000
# 3 3.8644 6.0017 67.3369 0.0000 0.0000 0.0000
# 4 0.0000 0.0000 0.0000 18.5179 0.0000 0.0000
# 5 0.0000 0.0000 0.0000 0.0000 41.3084 0.0000
# 6 0.0000 0.0000 0.0000 0.0000 0.0000 38.1878
#
#
#
# Elastic Compliance Matrix: (Units=1/GPa)
#
#
# Indices 1 2 3 4 5 6 
#
# 1 0.013773 -0.003718 -0.000459 0.000000 0.000000 0.000000
# 2 -0.003718 0.011209 -0.000786 0.000000 0.000000 0.000000
# 3 -0.000459 -0.000786 0.014947 0.000000 0.000000 0.000000
# 4 0.000000 0.000000 0.000000 0.054002 0.000000 0.000000
# 5 0.000000 0.000000 0.000000 0.000000 0.024208 0.000000
# 6 0.000000 0.000000 0.000000 0.000000 0.000000 0.026186
#
#
# Mechanical properties :
#
#
# Convention : Reuss Voigt Hill
#
# Bulk Modulus (GPa) = 33.32971 35.46225 34.39598
# Shear Modulus (GPa) = 30.44090 33.54721 31.99405
#
# Velocity S-wave (km/s) = 3.73634 3.92234 3.83047
# Velocity P-wave (km/s) = 5.82225 6.06432 5.94452
#
# Compressibility (1/GPa) = 0.03000326
#
# Stress axis : x y z
#
# Youngs Moduli (GPa) = 72.60323 89.21617 66.90273
#
# Poissons Ratio (x) = 0.33174 0.03071
# Poissons Ratio (y) = 0.26996 0.05256
# Poissons Ratio (z) = 0.03333 0.07009
#
# Static dielectric constant tensor:
#      x y z
#    x 1.828270 0.000000 0.000000 
#    y 0.000000 1.811760 0.000000 
#    z 0.000000 0.000000 1.860220 
# 
# From -- ./inp_files/28405.got.cif
#   From: 2010.05.17/outbox.cif.g08.bks.cpg/sg66_15_cif.got.tgz:28405.got - 2010.06.03 17:51:23.
