data_PCOD9498848
_publ_section_title
;
Structure prediction by ZEFSAII (Michael W. Deem and Ramdas Pophale) SiO2 
 PCOD9498848
Probable space group: C C C M
;
_chemical_formula_sum "Si O2"
_cell_formula_units_Z 48
_cell_length_a 14.479891
_cell_length_b 5.089727
_cell_length_c 29.912717
_cell_angle_alpha 90.000000
_cell_angle_beta 90.000000
_cell_angle_gamma 90.000000
_cell_volume 2204.528122
_symmetry_space_group_name_H-M "C C C M"
_symmetry_group_IT_number 66
_symmetry_cell_setting 'orthorhombic'
loop_
_space_group_symop_operation_xyz
x,y,z
-x,-y,z
x,-y,1/2-z
-x,y,1/2-z
-x,-y,-z
x,y,-z
-x,y,1/2+z
x,-y,1/2+z
1/2+x,1/2+y,z
1/2-x,1/2-y,z
1/2+x,1/2-y,1/2-z
1/2-x,1/2+y,1/2-z
1/2-x,1/2-y,-z
1/2+x,1/2+y,-z
1/2-x,1/2+y,1/2+z
1/2+x,1/2-y,1/2+z
loop_
_atom_site_type_symbol
_atom_site_label
_atom_site_fract_x
_atom_site_fract_y
_atom_site_fract_z
Si Si1 0.387888 0.011616 0.652321
Si Si2 0.390826 0.517374 0.598103
Si Si3 0.750000 0.750000 0.222201
Si Si4 0.685582 0.503490 0.500000
O O1 0.363760 0.808656 0.612659
O O2 0.330308 0.892706 0.693380
O O3 0.500000 0.000000 0.660219
O O4 0.358201 0.297144 0.633745
O O5 0.500000 0.500000 0.602505
O O6 0.368618 0.479282 0.546455
O O7 0.710788 0.500000 0.250000
O O8 0.750000 0.750000 0.500000
O O9 0.750000 0.250000 0.500000
#
# Coordination Sequence:
#
# PCOD9498848 Si02
#       4
#    16  16   8   8
#     4  10  23  43  69  96 130 175 219 267 334 396
#     4  10  22  42  64  91 132 178 217 264 318 385
#     4  12  26  44  70 103 132 169 218 284 350 410
#     4  12  25  36  59 102 132 171 221 268 316 372
#
# _framework density 21.773368999999999
#
# number of rings (size 3 to 8) (size 9 to 14) (size 15 to 20)
#    0.000    1.333    0.000    4.500    7.000    0.667 
#    0.000    8.333    0.000    0.000    0.000    0.000 
#    0.000    0.000    0.000    0.000    0.000    0.000 
#
# Total GULP energy -134040.968872 kJ/mol
# GULP energy per Si atom -5585.040370 kJ/mol
# Density = 2.172381 g / cm^3
# Si number density = 21.773369 Si / 1000 Ang^3
#
#
#
# Elastic Constant Matrix: (Units=GPa)
#
#
# Indices 1 2 3 4 5 6 
#
# 1 85.3449 24.9418 36.9285 0.0000 0.0000 0.0000
# 2 24.9418 135.2561 35.2777 0.0000 0.0000 0.0000
# 3 36.9285 35.2777 114.6589 0.0000 0.0000 0.0000
# 4 0.0000 0.0000 0.0000 25.7253 0.0000 0.0000
# 5 0.0000 0.0000 0.0000 0.0000 22.4389 0.0000
# 6 0.0000 0.0000 0.0000 0.0000 0.0000 19.7755
#
#
#
# Elastic Compliance Matrix: (Units=1/GPa)
#
#
# Indices 1 2 3 4 5 6 
#
# 1 0.013895 -0.001517 -0.004008 0.000000 0.000000 0.000000
# 2 -0.001517 0.008204 -0.002036 0.000000 0.000000 0.000000
# 3 -0.004008 -0.002036 0.010639 0.000000 0.000000 0.000000
# 4 0.000000 0.000000 0.000000 0.038872 0.000000 0.000000
# 5 0.000000 0.000000 0.000000 0.000000 0.044566 0.000000
# 6 0.000000 0.000000 0.000000 0.000000 0.000000 0.050567
#
#
# Mechanical properties :
#
#
# Convention : Reuss Voigt Hill
#
# Bulk Modulus (GPa) = 56.76681 58.83955 57.80318
# Shear Modulus (GPa) = 26.63302 29.46208 28.04755
#
# Velocity S-wave (km/s) = 3.50121 3.68247 3.59299
# Velocity P-wave (km/s) = 6.51712 6.72035 6.61952
#
# Compressibility (1/GPa) = 0.01761593
#
# Stress axis : x y z
#
# Youngs Moduli (GPa) = 71.96885 121.89136 93.99496
#
# Poissons Ratio (x) = 0.18488 0.37678
# Poissons Ratio (y) = 0.10916 0.19134
# Poissons Ratio (z) = 0.28849 0.24813
#
# Static dielectric constant tensor:
#      x y z
#    x 1.807360 0.000000 0.000000 
#    y 0.000000 1.833780 0.000000 
#    z 0.000000 0.000000 1.118560 
# 
# From -- ./inp_files/60893.got.cif
#   From: 2010.05.17/outbox.cif.g08.bks.cpg/sg66_31_cif.got.tgz:60893.got - 2010.06.03 17:51:23.
