data_PCOD9498004
_publ_section_title
;
Structure prediction by ZEFSAII (Michael W. Deem and Ramdas Pophale) SiO2 
 PCOD9498004
Probable space group: C C C M
;
_chemical_formula_sum "Si O2"
_cell_formula_units_Z 96
_cell_length_a 21.699128
_cell_length_b 11.599663
_cell_length_c 20.275366
_cell_angle_alpha 90.000000
_cell_angle_beta 90.000000
_cell_angle_gamma 90.000000
_cell_volume 5103.361774
_symmetry_space_group_name_H-M "C C C M"
_symmetry_group_IT_number 66
_symmetry_cell_setting 'orthorhombic'
loop_
_space_group_symop_operation_xyz
x,y,z
-x,-y,z
x,-y,1/2-z
-x,y,1/2-z
-x,-y,-z
x,y,-z
-x,y,1/2+z
x,-y,1/2+z
1/2+x,1/2+y,z
1/2-x,1/2-y,z
1/2+x,1/2-y,1/2-z
1/2-x,1/2+y,1/2-z
1/2-x,1/2-y,-z
1/2+x,1/2+y,-z
1/2-x,1/2+y,1/2+z
1/2+x,1/2-y,1/2+z
loop_
_atom_site_type_symbol
_atom_site_label
_atom_site_fract_x
_atom_site_fract_y
_atom_site_fract_z
Si Si1 0.364700 0.372549 0.769802
Si Si2 0.528862 0.789114 0.179109
Si Si3 0.604557 0.242405 0.861456
Si Si4 0.380088 0.020131 0.172269
Si Si5 0.659200 0.253201 0.000000
Si Si6 0.250218 0.382512 0.128130
Si Si7 0.242958 0.544373 0.000000
O O1 0.385336 0.500000 0.750000
O O2 0.418098 0.304905 0.808706
O O3 0.360116 0.302255 0.700376
O O4 0.303879 0.386552 0.815645
O O5 0.500000 0.824167 0.250000
O O6 0.468814 0.740977 0.143876
O O7 0.563746 0.898906 0.149185
O O8 0.617969 0.106242 0.857664
O O9 0.624999 0.281323 0.932595
O O10 0.315506 0.084194 0.160026
O O11 0.387015 0.000000 0.250000
O O12 0.713131 0.346225 0.000000
O O13 0.678546 0.116720 0.000000
O O14 0.250000 0.250000 0.104938
O O15 0.254899 0.467690 0.065309
#
# Coordination Sequence:
#
# PCOD9498004 Si02
#       7
#    16  16  16  16   8  16   8
#     4  11  23  39  63  99 131 171 214 270 324 381
#     4  10  21  37  61  90 130 165 212 273 325 372
#     4  11  23  41  66  92 128 170 220 265 319 387
#     4  12  20  37  63  97 128 164 212 276 328 373
#     4  11  24  46  63  92 129 175 217 253 330 389
#     4  12  23  42  64  96 130 164 218 267 329 390
#     4  11  25  44  66  85 131 175 204 264 326 407
#
# _framework density 18.811129000000001
#
# number of rings (size 3 to 8) (size 9 to 14) (size 15 to 20)
#    0.000    0.833    6.667    2.250    0.000    3.000 
#    3.000    3.333    0.000    2.000    0.000    0.000 
#    0.000    0.000    0.000    0.000    0.000    0.000 
#
# Total GULP energy -267671.023716 kJ/mol
# GULP energy per Si atom -5576.479661 kJ/mol
# Density = 1.876831 g / cm^3
# Si number density = 18.811129 Si / 1000 Ang^3
#
#
#
# Elastic Constant Matrix: (Units=GPa)
#
#
# Indices 1 2 3 4 5 6 
#
# 1 102.3259 19.7102 50.1609 0.0000 0.0000 0.0000
# 2 19.7102 109.5818 23.7847 0.0000 0.0000 0.0000
# 3 50.1609 23.7847 107.0280 0.0000 0.0000 0.0000
# 4 0.0000 0.0000 0.0000 12.9767 0.0000 0.0000
# 5 0.0000 0.0000 0.0000 0.0000 26.1594 0.0000
# 6 0.0000 0.0000 0.0000 0.0000 0.0000 21.2803
#
#
#
# Elastic Compliance Matrix: (Units=1/GPa)
#
#
# Indices 1 2 3 4 5 6 
#
# 1 0.012802 -0.001051 -0.005766 0.000000 0.000000 0.000000
# 2 -0.001051 0.009674 -0.001657 0.000000 0.000000 0.000000
# 3 -0.005766 -0.001657 0.012414 0.000000 0.000000 0.000000
# 4 0.000000 0.000000 0.000000 0.077061 0.000000 0.000000
# 5 0.000000 0.000000 0.000000 0.000000 0.038227 0.000000
# 6 0.000000 0.000000 0.000000 0.000000 0.000000 0.046992
#
#
# Mechanical properties :
#
#
# Convention : Reuss Voigt Hill
#
# Bulk Modulus (GPa) = 55.73816 56.24971 55.99393
# Shear Modulus (GPa) = 22.71695 27.10194 24.90944
#
# Velocity S-wave (km/s) = 3.47887 3.79983 3.64288
# Velocity P-wave (km/s) = 6.76989 7.01561 6.89385
#
# Compressibility (1/GPa) = 0.01794103
#
# Stress axis : x y z
#
# Youngs Moduli (GPa) = 78.11398 103.36579 80.55339
#
# Poissons Ratio (x) = 0.10864 0.46449
# Poissons Ratio (y) = 0.08210 0.13350
# Poissons Ratio (z) = 0.45043 0.17131
#
# Static dielectric constant tensor:
#      x y z
#    x 1.681190 0.000000 0.000000 
#    y 0.000000 1.661570 0.000000 
#    z 0.000000 0.000000 1.659270 
# 
# From -- ./inp_files/51827.got.cif
#   From: 2010.05.17/outbox.cif.g08.bks.cpg/sg66_26_cif.got.tgz:51827.got - 2010.06.03 17:51:23.
