data_PCOD9498283
_publ_section_title
;
Structure prediction by ZEFSAII (Michael W. Deem and Ramdas Pophale) SiO2 
 PCOD9498283
Probable space group: C C C M
;
_chemical_formula_sum "Si O2"
_cell_formula_units_Z 96
_cell_length_a 21.309789
_cell_length_b 14.424878
_cell_length_c 15.043372
_cell_angle_alpha 90.000000
_cell_angle_beta 90.000000
_cell_angle_gamma 90.000000
_cell_volume 4624.198765
_symmetry_space_group_name_H-M "C C C M"
_symmetry_group_IT_number 66
_symmetry_cell_setting 'orthorhombic'
loop_
_space_group_symop_operation_xyz
x,y,z
-x,-y,z
x,-y,1/2-z
-x,y,1/2-z
-x,-y,-z
x,y,-z
-x,y,1/2+z
x,-y,1/2+z
1/2+x,1/2+y,z
1/2-x,1/2-y,z
1/2+x,1/2-y,1/2-z
1/2-x,1/2+y,1/2-z
1/2-x,1/2-y,-z
1/2+x,1/2+y,-z
1/2-x,1/2+y,1/2+z
1/2+x,1/2-y,1/2+z
loop_
_atom_site_type_symbol
_atom_site_label
_atom_site_fract_x
_atom_site_fract_y
_atom_site_fract_z
Si Si1 0.611593 0.091527 0.696916
Si Si2 0.768001 0.642618 0.687281
Si Si3 0.951621 0.670371 0.500000
Si Si4 0.083641 0.541921 0.500000
Si Si5 0.832397 0.369678 0.000000
Si Si6 0.566339 0.450133 0.599934
Si Si7 0.335656 0.500000 0.250000
Si Si8 0.977538 0.239149 0.660054
O O1 0.675687 0.119897 0.744604
O O2 0.617028 0.068466 0.592139
O O3 0.564810 0.177444 0.697875
O O4 0.587891 0.000000 0.750000
O O5 0.750000 0.750000 0.686673
O O6 0.793823 0.616305 0.588799
O O7 0.709368 0.582725 0.718465
O O8 0.875640 0.719045 0.500000
O O9 0.015900 0.590754 0.500000
O O10 0.972177 0.715739 0.594487
O O11 0.098244 0.428441 0.500000
O O12 0.500000 0.500000 0.620579
O O13 0.583334 0.478183 0.500000
O O14 0.619770 0.475140 0.668665
O O15 0.557719 0.339236 0.604838
O O16 0.000000 0.189789 0.750000
#
# Coordination Sequence:
#
# PCOD9498283 Si02
#       8
#    16  16   8   8   8  16   8  16
#     4  12  23  43  65  98 145 182 228 293 348 412
#     4  12  25  45  69 104 132 183 238 289 345 415
#     4  10  23  41  64 104 135 184 237 271 354 425
#     4  10  21  39  65  88 138 186 219 277 350 413
#     4  10  21  44  64  94 140 176 227 297 338 391
#     4  11  26  49  72 103 144 178 229 297 352 415
#     4  12  25  46  76 100 135 184 234 276 356 422
#     4  12  23  40  69 103 139 186 234 282 350 420
#
# _framework density 20.760352999999999
#
# number of rings (size 3 to 8) (size 9 to 14) (size 15 to 20)
#    0.500    0.167    3.333    5.000    1.167    4.333 
#    1.500    0.417    0.000    0.000    0.000    0.000 
#    0.000    0.000    0.000    0.000    0.000    0.000 
#
# Total GULP energy -267713.284641 kJ/mol
# GULP energy per Si atom -5577.360097 kJ/mol
# Density = 2.071310 g / cm^3
# Si number density = 20.760353 Si / 1000 Ang^3
#
#
#
# Elastic Constant Matrix: (Units=GPa)
#
#
# Indices 1 2 3 4 5 6 
#
# 1 132.9874 44.8696 92.5389 0.0000 0.0000 0.0000
# 2 44.8696 88.5050 40.0309 0.0000 0.0000 0.0000
# 3 92.5389 40.0309 202.4086 0.0000 0.0000 0.0000
# 4 0.0000 0.0000 0.0000 54.4072 0.0000 0.0000
# 5 0.0000 0.0000 0.0000 0.0000 113.5672 0.0000
# 6 0.0000 0.0000 0.0000 0.0000 0.0000-3670.2654
#
#
#
# Elastic Compliance Matrix: (Units=1/GPa)
#
#
# Indices 1 2 3 4 5 6 
#
# 1 0.012207 -0.004024 -0.004785 0.000000 0.000000 0.000000
# 2 -0.004024 0.013736 -0.000877 0.000000 0.000000 0.000000
# 3 -0.004785 -0.000877 0.007302 0.000000 0.000000 0.000000
# 4 0.000000 0.000000 0.000000 0.018380 0.000000 0.000000
# 5 0.000000 0.000000 0.000000 0.000000 0.008805 0.000000
# 6 0.000000 0.000000 0.000000 0.000000 0.000000 -0.000272
#
#
# Mechanical properties :
#
#
# Convention : Reuss Voigt Hill
#
# Bulk Modulus (GPa) = 72.08718 86.53111 79.30915
# Shear Modulus (GPa) = 59.41586 -684.02743 -312.30579
#
# Velocity S-wave (km/s) = 5.35556 -18.17148 -12.27845
# Velocity P-wave (km/s) = 8.54643 19.96243 12.75651
#
# Compressibility (1/GPa) = 0.01387209
#
# Stress axis : x y z
#
# Youngs Moduli (GPa) = 81.92084 72.80393 136.95800
#
# Poissons Ratio (x) = 0.29299 0.65534
# Poissons Ratio (y) = 0.32968 0.12006
# Poissons Ratio (z) = 0.39199 0.06382
#
# Static dielectric constant tensor:
#      x y z
#    x 1.753600 0.000000 0.000000 
#    y 0.000000 1.829060 0.000000 
#    z 0.000000 0.000000 1.758870 
# 
# From -- ./inp_files/31264.got.cif
#   From: 2010.05.17/outbox.cif.g08.bks.cpg/sg66_16_cif.got.tgz:31264.got - 2010.06.03 17:51:23.
