data_PCOD9498746
_publ_section_title
;
Structure prediction by ZEFSAII (Michael W. Deem and Ramdas Pophale) SiO2 
 PCOD9498746
Probable space group: C C C M
;
_chemical_formula_sum "Si O2"
_cell_formula_units_Z 80
_cell_length_a 11.935328
_cell_length_b 15.555007
_cell_length_c 21.842215
_cell_angle_alpha 90.000000
_cell_angle_beta 90.000000
_cell_angle_gamma 90.000000
_cell_volume 4055.096999
_symmetry_space_group_name_H-M "C C C M"
_symmetry_group_IT_number 66
_symmetry_cell_setting 'orthorhombic'
loop_
_space_group_symop_operation_xyz
x,y,z
-x,-y,z
x,-y,1/2-z
-x,y,1/2-z
-x,-y,-z
x,y,-z
-x,y,1/2+z
x,-y,1/2+z
1/2+x,1/2+y,z
1/2-x,1/2-y,z
1/2+x,1/2-y,1/2-z
1/2-x,1/2+y,1/2-z
1/2-x,1/2-y,-z
1/2+x,1/2+y,-z
1/2-x,1/2+y,1/2+z
1/2+x,1/2-y,1/2+z
loop_
_atom_site_type_symbol
_atom_site_label
_atom_site_fract_x
_atom_site_fract_y
_atom_site_fract_z
Si Si1 0.733046 0.844006 0.679118
Si Si2 0.810232 0.579638 0.798292
Si Si3 0.486825 0.903978 0.890695
Si Si4 0.187121 0.889885 0.000000
Si Si5 0.130262 0.980887 0.126246
Si Si6 0.927987 0.706561 0.500000
O O1 0.750000 0.750000 0.652561
O O2 0.708275 0.843463 0.750903
O O3 0.632424 0.890619 0.642854
O O4 0.844293 0.898835 0.668915
O O5 0.825966 0.500000 0.750000
O O6 0.707302 0.554713 0.842959
O O7 0.918142 0.597230 0.839093
O O8 0.500000 0.000000 0.918668
O O9 0.492895 0.828782 0.940575
O O10 0.169823 0.949296 0.059388
O O11 0.102197 0.807626 0.000000
O O12 0.310108 0.846597 0.000000
O O13 0.000000 0.000000 0.124782
#
# Coordination Sequence:
#
# PCOD9498746 Si02
#       6
#    16  16  16   8  16   8
#     4  11  23  41  65  95 129 170 212 266 322 379
#     4  10  22  40  63  94 131 169 213 265 322 385
#     4  12  20  38  67  96 128 164 215 269 321 379
#     4  11  21  44  61  95 131 167 214 274 323 378
#     4  11  23  41  68  91 129 174 221 255 315 395
#     4  11  23  36  69  99 125 161 219 275 328 378
#
# _framework density 19.728256999999999
#
# number of rings (size 3 to 8) (size 9 to 14) (size 15 to 20)
#    0.000    1.000    6.000    2.400    0.000    4.400 
#   10.800    0.000    0.000    1.200    0.000    0.000 
#    0.000    0.000    0.000    0.000    0.000    0.000 
#
# Total GULP energy -223208.558901 kJ/mol
# GULP energy per Si atom -5580.213973 kJ/mol
# Density = 1.968335 g / cm^3
# Si number density = 19.728257 Si / 1000 Ang^3
#
#
#
# Elastic Constant Matrix: (Units=GPa)
#
#
# Indices 1 2 3 4 5 6 
#
# 1 113.8611 27.9784 42.9110 0.0000 0.0000 0.0000
# 2 27.9784 55.5500 10.4298 0.0000 0.0000 0.0000
# 3 42.9110 10.4298 121.7317 0.0000 0.0000 0.0000
# 4 0.0000 0.0000 0.0000 20.0985 0.0000 0.0000
# 5 0.0000 0.0000 0.0000 0.0000 22.9582 0.0000
# 6 0.0000 0.0000 0.0000 0.0000 0.0000 22.8788
#
#
#
# Elastic Compliance Matrix: (Units=1/GPa)
#
#
# Indices 1 2 3 4 5 6 
#
# 1 0.011373 -0.005057 -0.003576 0.000000 0.000000 0.000000
# 2 -0.005057 0.020544 0.000022 0.000000 0.000000 0.000000
# 3 -0.003576 0.000022 0.009473 0.000000 0.000000 0.000000
# 4 0.000000 0.000000 0.000000 0.049755 0.000000 0.000000
# 5 0.000000 0.000000 0.000000 0.000000 0.043557 0.000000
# 6 0.000000 0.000000 0.000000 0.000000 0.000000 0.043709
#
#
# Mechanical properties :
#
#
# Convention : Reuss Voigt Hill
#
# Bulk Modulus (GPa) = 41.37297 50.42013 45.89655
# Shear Modulus (GPa) = 24.54730 27.17534 25.86132
#
# Velocity S-wave (km/s) = 3.53125 3.71547 3.62453
# Velocity P-wave (km/s) = 6.13541 6.63469 6.38993
#
# Compressibility (1/GPa) = 0.02417037
#
# Stress axis : x y z
#
# Youngs Moduli (GPa) = 87.92942 48.67494 105.55953
#
# Poissons Ratio (x) = 0.24613 0.37745
# Poissons Ratio (y) = 0.44463 -0.00235
# Poissons Ratio (z) = 0.31441 -0.00108
#
# Static dielectric constant tensor:
#      x y z
#    x 1.670510 0.000000 0.000000 
#    y 0.000000 1.736390 0.000000 
#    z 0.000000 0.000000 1.748400 
# 
# From -- ./inp_files/48438.got.cif
#   From: 2010.05.17/outbox.cif.g08.bks.cpg/sg66_25_cif.got.tgz:48438.got - 2010.06.03 17:51:23.
