data_PCOD9498267
_publ_section_title
;
Structure prediction by ZEFSAII (Michael W. Deem and Ramdas Pophale) SiO2 
 PCOD9498267
Probable space group: C C C M
;
_chemical_formula_sum "Si O2"
_cell_formula_units_Z 64
_cell_length_a 12.804753
_cell_length_b 12.628437
_cell_length_c 18.265228
_cell_angle_alpha 90.000000
_cell_angle_beta 90.000000
_cell_angle_gamma 90.000000
_cell_volume 2953.560731
_symmetry_space_group_name_H-M "C C C M"
_symmetry_group_IT_number 66
_symmetry_cell_setting 'orthorhombic'
loop_
_space_group_symop_operation_xyz
x,y,z
-x,-y,z
x,-y,1/2-z
-x,y,1/2-z
-x,-y,-z
x,y,-z
-x,y,1/2+z
x,-y,1/2+z
1/2+x,1/2+y,z
1/2-x,1/2-y,z
1/2+x,1/2-y,1/2-z
1/2-x,1/2+y,1/2-z
1/2-x,1/2-y,-z
1/2+x,1/2+y,-z
1/2-x,1/2+y,1/2+z
1/2+x,1/2-y,1/2+z
loop_
_atom_site_type_symbol
_atom_site_label
_atom_site_fract_x
_atom_site_fract_y
_atom_site_fract_z
Si Si1 0.003478 0.666023 0.918636
Si Si2 0.188025 0.357293 0.182472
Si Si3 0.432895 0.401516 0.416288
Si Si4 0.284408 0.091154 0.649148
O O1 0.925856 0.636587 0.853666
O O2 0.002425 0.793559 0.918610
O O3 0.119078 0.621202 0.902692
O O4 0.969489 0.630633 0.000000
O O5 0.250000 0.250000 0.163175
O O6 0.185850 0.368685 0.270046
O O7 0.238115 0.465337 0.152802
O O8 0.500000 0.500000 0.385563
O O9 0.403917 0.431071 0.500000
O O10 0.327453 0.367002 0.375572
#
# Coordination Sequence:
#
# PCOD9498267 Si02
#       4
#    16  16  16  16
#     4  11  23  39  62  90 122 162 206 256 310 368
#     4  11  24  41  60  87 122 161 205 254 308 368
#     4  10  21  39  64  93 124 159 202 255 313 372
#     4  11  23  40  63  90 121 161 205 251 310 375
#
# _framework density 21.668761
#
# number of rings (size 3 to 8) (size 9 to 14) (size 15 to 20)
#    0.000    1.250    0.000    6.000    0.000    7.500 
#    0.000    7.500    0.000    0.000    0.000    0.000 
#    0.000    0.000    0.000    0.000    0.000    0.000 
#
# Total GULP energy -178718.783768 kJ/mol
# GULP energy per Si atom -5584.961993 kJ/mol
# Density = 2.161944 g / cm^3
# Si number density = 21.668761 Si / 1000 Ang^3
#
#
#
# Elastic Constant Matrix: (Units=GPa)
#
#
# Indices 1 2 3 4 5 6 
#
# 1 88.1273 -2.6927 40.2761 0.0000 0.0000 0.0000
# 2 -2.6927 96.8185 5.5726 0.0000 0.0000 0.0000
# 3 40.2761 5.5726 81.3428 0.0000 0.0000 0.0000
# 4 0.0000 0.0000 0.0000 2.4514 0.0000 0.0000
# 5 0.0000 0.0000 0.0000 0.0000 22.4816 0.0000
# 6 0.0000 0.0000 0.0000 0.0000 0.0000 35.1761
#
#
#
# Elastic Compliance Matrix: (Units=1/GPa)
#
#
# Indices 1 2 3 4 5 6 
#
# 1 0.014733 0.000833 -0.007352 0.000000 0.000000 0.000000
# 2 0.000833 0.010417 -0.001126 0.000000 0.000000 0.000000
# 3 -0.007352 -0.001126 0.016011 0.000000 0.000000 0.000000
# 4 0.000000 0.000000 0.000000 0.407925 0.000000 0.000000
# 5 0.000000 0.000000 0.000000 0.000000 0.044481 0.000000
# 6 0.000000 0.000000 0.000000 0.000000 0.000000 0.028428
#
#
# Mechanical properties :
#
#
# Convention : Reuss Voigt Hill
#
# Bulk Modulus (GPa) = 38.65430 39.17785 38.91608
# Shear Modulus (GPa) = 9.15906 26.89733 18.02819
#
# Velocity S-wave (km/s) = 2.05816 3.52702 2.88755
# Velocity P-wave (km/s) = 4.85031 5.89119 5.39591
#
# Compressibility (1/GPa) = 0.02587034
#
# Stress axis : x y z
#
# Youngs Moduli (GPa) = 67.87678 96.00085 62.45731
#
# Poissons Ratio (x) = -0.07996 0.45917
# Poissons Ratio (y) = -0.05653 0.07033
# Poissons Ratio (z) = 0.49901 0.10810
#
# Static dielectric constant tensor:
#      x y z
#    x 1.768210 0.000000 0.000000 
#    y 0.000000 1.839960 0.000000 
#    z 0.000000 0.000000 1.775750 
# 
# From -- ./inp_files/37987.got.cif
#   From: 2010.05.17/outbox.cif.g08.bks.cpg/sg66_19_cif.got.tgz:37987.got - 2010.06.03 17:51:23.
