data_PCOD9498926
_publ_section_title
;
Structure prediction by ZEFSAII (Michael W. Deem and Ramdas Pophale) SiO2 
 PCOD9498926
Probable space group: C C C M
;
_chemical_formula_sum "Si O2"
_cell_formula_units_Z 88
_cell_length_a 24.588824
_cell_length_b 10.819931
_cell_length_c 14.743102
_cell_angle_alpha 90.000000
_cell_angle_beta 90.000000
_cell_angle_gamma 90.000000
_cell_volume 3922.393132
_symmetry_space_group_name_H-M "C C C M"
_symmetry_group_IT_number 66
_symmetry_cell_setting 'orthorhombic'
loop_
_space_group_symop_operation_xyz
x,y,z
-x,-y,z
x,-y,1/2-z
-x,y,1/2-z
-x,-y,-z
x,y,-z
-x,y,1/2+z
x,-y,1/2+z
1/2+x,1/2+y,z
1/2-x,1/2-y,z
1/2+x,1/2-y,1/2-z
1/2-x,1/2+y,1/2-z
1/2-x,1/2-y,-z
1/2+x,1/2+y,-z
1/2-x,1/2+y,1/2+z
1/2+x,1/2-y,1/2+z
loop_
_atom_site_type_symbol
_atom_site_label
_atom_site_fract_x
_atom_site_fract_y
_atom_site_fract_z
Si Si1 0.402871 0.120922 0.694569
Si Si2 0.846030 0.990940 0.351298
Si Si3 0.051915 0.839418 0.315203
Si Si4 0.440193 0.054772 0.500000
Si Si5 0.811763 0.721624 0.395855
Si Si6 0.422630 0.779137 0.500000
Si Si7 0.802130 0.838752 0.000000
O O1 0.416187 0.239145 0.754846
O O2 0.429275 0.123385 0.594396
O O3 0.339257 0.124991 0.671120
O O4 0.419928 0.000000 0.750000
O O5 0.907349 0.048547 0.343496
O O6 0.806868 0.072413 0.413486
O O7 0.824650 0.000000 0.250000
O O8 0.844256 0.851274 0.386915
O O9 0.044441 0.768407 0.411412
O O10 0.000000 0.867344 0.250000
O O11 0.500000 0.000000 0.500000
O O12 0.409006 0.924309 0.500000
O O13 0.814580 0.678559 0.500000
O O14 0.750000 0.750000 0.373385
O O15 0.361887 0.723752 0.500000
O O16 0.750000 0.750000 0.000000
#
# Coordination Sequence:
#
# PCOD9498926 Si02
#       7
#    16  16  16   8  16   8   8
#     4  12  25  43  68 105 141 185 243 293 350 437
#     4  11  23  45  70 103 142 181 239 301 346 440
#     4  11  24  44  72 103 144 190 238 297 365 426
#     4  12  24  39  68  97 141 188 230 294 353 414
#     4  11  25  48  72 100 140 187 236 301 368 423
#     4  10  22  44  63 102 146 182 242 301 351 433
#     4  10  24  43  73 103 143 191 232 298 368 429
#
# _framework density 22.435283999999999
#
# number of rings (size 3 to 8) (size 9 to 14) (size 15 to 20)
#    0.000    0.909    5.455    1.091    0.000    3.273 
#    0.000    0.909    0.000    4.364    0.000    0.000 
#    0.000    0.000    0.000    0.000    0.000    0.000 
#
# Total GULP energy -245670.116119 kJ/mol
# GULP energy per Si atom -5583.411730 kJ/mol
# Density = 2.238422 g / cm^3
# Si number density = 22.435284 Si / 1000 Ang^3
#
#
#
# Elastic Constant Matrix: (Units=GPa)
#
#
# Indices 1 2 3 4 5 6 
#
# 1 99.6906 16.7470 44.8362 0.0000 0.0000 0.0000
# 2 16.7470 43.5361 3.6645 0.0000 0.0000 0.0000
# 3 44.8362 3.6645 162.2538 0.0000 0.0000 0.0000
# 4 0.0000 0.0000 0.0000 37.6955 0.0000 0.0000
# 5 0.0000 0.0000 0.0000 0.0000 84.6364 0.0000
# 6 0.0000 0.0000 0.0000 0.0000 0.0000 26.2718
#
#
#
# Elastic Compliance Matrix: (Units=1/GPa)
#
#
# Indices 1 2 3 4 5 6 
#
# 1 0.012254 -0.004437 -0.003286 0.000000 0.000000 0.000000
# 2 -0.004437 0.024620 0.000670 0.000000 0.000000 0.000000
# 3 -0.003286 0.000670 0.007056 0.000000 0.000000 0.000000
# 4 0.000000 0.000000 0.000000 0.026528 0.000000 0.000000
# 5 0.000000 0.000000 0.000000 0.000000 0.011815 0.000000
# 6 0.000000 0.000000 0.000000 0.000000 0.000000 0.038064
#
#
# Mechanical properties :
#
#
# Convention : Reuss Voigt Hill
#
# Bulk Modulus (GPa) = 33.53012 48.44175 40.98593
# Shear Modulus (GPa) = 34.62954 45.73626 40.18290
#
# Velocity S-wave (km/s) = 3.93304 4.51997 4.23668
# Velocity P-wave (km/s) = 5.96681 6.99134 6.49929
#
# Compressibility (1/GPa) = 0.02982393
#
# Stress axis : x y z
#
# Youngs Moduli (GPa) = 81.60345 40.61752 141.72123
#
# Poissons Ratio (x) = 0.18023 0.46571
# Poissons Ratio (y) = 0.36210 -0.09497
# Poissons Ratio (z) = 0.26816 -0.02722
#
# Static dielectric constant tensor:
#      x y z
#    x 1.933970 0.000000 0.000000 
#    y 0.000000 2.341820 0.000000 
#    z 0.000000 0.000000 1.824430 
# 
# From -- ./inp_files/26586.got.cif
#   From: 2010.05.17/outbox.cif.g08.bks.cpg/sg66_14_cif.got.tgz:26586.got - 2010.06.03 17:51:23.
