data_PCOD9498240
_publ_section_title
;
Structure prediction by ZEFSAII (Michael W. Deem and Ramdas Pophale) SiO2 
 PCOD9498240
Probable space group: C C C M
;
_chemical_formula_sum "Si O2"
_cell_formula_units_Z 72
_cell_length_a 16.821873
_cell_length_b 14.754619
_cell_length_c 14.611717
_cell_angle_alpha 90.000000
_cell_angle_beta 90.000000
_cell_angle_gamma 90.000000
_cell_volume 3626.632937
_symmetry_space_group_name_H-M "C C C M"
_symmetry_group_IT_number 66
_symmetry_cell_setting 'orthorhombic'
loop_
_space_group_symop_operation_xyz
x,y,z
-x,-y,z
x,-y,1/2-z
-x,y,1/2-z
-x,-y,-z
x,y,-z
-x,y,1/2+z
x,-y,1/2+z
1/2+x,1/2+y,z
1/2-x,1/2-y,z
1/2+x,1/2-y,1/2-z
1/2-x,1/2+y,1/2-z
1/2-x,1/2-y,-z
1/2+x,1/2+y,-z
1/2-x,1/2+y,1/2+z
1/2+x,1/2-y,1/2+z
loop_
_atom_site_type_symbol
_atom_site_label
_atom_site_fract_x
_atom_site_fract_y
_atom_site_fract_z
Si Si1 0.787711 0.500000 0.250000
Si Si2 0.418680 0.044658 0.394004
Si Si3 0.812948 0.823030 0.789889
Si Si4 0.523733 0.601539 0.143344
Si Si5 0.892434 0.243830 0.898889
O O1 0.844660 0.510829 0.336555
O O2 0.734094 0.587454 0.238003
O O3 0.409083 0.019369 0.500000
O O4 0.421690 0.153240 0.388046
O O5 0.500000 0.000000 0.360351
O O6 0.750000 0.750000 0.829833
O O7 0.886073 0.859024 0.853367
O O8 0.844660 0.780751 0.693519
O O9 0.500000 0.500000 0.109163
O O10 0.500000 0.598947 0.250000
O O11 0.466202 0.675288 0.099632
O O12 0.852075 0.237217 0.000000
#
# Coordination Sequence:
#
# PCOD9498240 Si02
#       5
#     8  16  16  16  16
#     4  12  23  38  63  88 122 164 192 250 323 362
#     4  10  23  40  60  89 120 157 209 252 292 363
#     4  11  22  36  58  92 120 154 200 250 306 372
#     4   9  19  37  58  81 118 157 203 245 283 361
#     4  10  21  39  63  88 117 156 201 251 298 356
#
# _framework density 19.853126
#
# number of rings (size 3 to 8) (size 9 to 14) (size 15 to 20)
#    0.000    1.778    2.222    3.000    3.111    3.556 
#    0.000    1.111    0.000    1.333    0.000    0.000 
#    0.000    0.000    0.000    0.000    0.000    0.000 
#
# Total GULP energy -200767.321490 kJ/mol
# GULP energy per Si atom -5576.870041 kJ/mol
# Density = 1.980794 g / cm^3
# Si number density = 19.853126 Si / 1000 Ang^3
#
#
#
# Elastic Constant Matrix: (Units=GPa)
#
#
# Indices 1 2 3 4 5 6 
#
# 1 109.1645 48.9088 10.5370 0.0000 0.0000 0.0000
# 2 48.9088 91.8326 28.1123 0.0000 0.0000 0.0000
# 3 10.5370 28.1123 53.9420 0.0000 0.0000 0.0000
# 4 0.0000 0.0000 0.0000 28.2518 0.0000 0.0000
# 5 0.0000 0.0000 0.0000 0.0000 31.3705 0.0000
# 6 0.0000 0.0000 0.0000 0.0000 0.0000 40.4045
#
#
#
# Elastic Compliance Matrix: (Units=1/GPa)
#
#
# Indices 1 2 3 4 5 6 
#
# 1 0.012094 -0.006804 0.001183 0.000000 0.000000 0.000000
# 2 -0.006804 0.016784 -0.007418 0.000000 0.000000 0.000000
# 3 0.001183 -0.007418 0.022173 0.000000 0.000000 0.000000
# 4 0.000000 0.000000 0.000000 0.035396 0.000000 0.000000
# 5 0.000000 0.000000 0.000000 0.000000 0.031877 0.000000
# 6 0.000000 0.000000 0.000000 0.000000 0.000000 0.024750
#
#
# Mechanical properties :
#
#
# Convention : Reuss Voigt Hill
#
# Bulk Modulus (GPa) = 40.04040 47.78392 43.91216
# Shear Modulus (GPa) = 28.17288 31.16409 29.66849
#
# Velocity S-wave (km/s) = 3.77113 3.96628 3.86994
# Velocity P-wave (km/s) = 6.25892 6.71537 6.49116
#
# Compressibility (1/GPa) = 0.02497478
#
# Stress axis : x y z
#
# Youngs Moduli (GPa) = 82.68252 59.58176 45.09943
#
# Poissons Ratio (x) = 0.40537 -0.05336
# Poissons Ratio (y) = 0.56253 0.33454
# Poissons Ratio (z) = -0.09783 0.44197
#
# Static dielectric constant tensor:
#      x y z
#    x 1.701280 0.000000 0.000000 
#    y 0.000000 1.672150 0.000000 
#    z 0.000000 0.000000 1.721450 
# 
# From -- ./inp_files/40049.got.cif
#   From: 2010.05.17/outbox.cif.g08.bks.cpg/sg66_21_cif.got.tgz:40049.got - 2010.06.03 17:51:23.
