data_PCOD9498445
_publ_section_title
;
Structure prediction by ZEFSAII (Michael W. Deem and Ramdas Pophale) SiO2 
 PCOD9498445
Probable space group: C C C M
;
_chemical_formula_sum "Si O2"
_cell_formula_units_Z 112
_cell_length_a 13.998001
_cell_length_b 24.372626
_cell_length_c 15.331396
_cell_angle_alpha 90.000000
_cell_angle_beta 90.000000
_cell_angle_gamma 90.000000
_cell_volume 5230.582372
_symmetry_space_group_name_H-M "C C C M"
_symmetry_group_IT_number 66
_symmetry_cell_setting 'orthorhombic'
loop_
_space_group_symop_operation_xyz
x,y,z
-x,-y,z
x,-y,1/2-z
-x,y,1/2-z
-x,-y,-z
x,y,-z
-x,y,1/2+z
x,-y,1/2+z
1/2+x,1/2+y,z
1/2-x,1/2-y,z
1/2+x,1/2-y,1/2-z
1/2-x,1/2+y,1/2-z
1/2-x,1/2-y,-z
1/2+x,1/2+y,-z
1/2-x,1/2+y,1/2+z
1/2+x,1/2-y,1/2+z
loop_
_atom_site_type_symbol
_atom_site_label
_atom_site_fract_x
_atom_site_fract_y
_atom_site_fract_z
Si Si1 0.140432 0.658418 0.403769
Si Si2 0.405371 0.030655 0.898391
Si Si3 0.278617 0.548667 0.701323
Si Si4 0.533714 0.562716 0.895452
Si Si5 0.440737 0.215352 0.401770
Si Si6 0.290197 0.844460 0.779945
Si Si7 0.106957 0.839189 0.897011
O O1 0.186353 0.659658 0.500000
O O2 0.094848 0.597076 0.392641
O O3 0.205306 0.673409 0.321370
O O4 0.049097 0.696490 0.401575
O O5 0.304242 0.019090 0.854142
O O6 0.500000 0.000000 0.862957
O O7 0.399547 0.015377 0.000000
O O8 0.330713 0.500000 0.750000
O O9 0.361903 0.575607 0.644343
O O10 0.223468 0.590374 0.764781
O O11 0.500000 0.500000 0.877379
O O12 0.456355 0.608716 0.867627
O O13 0.541742 0.566957 0.000000
O O14 0.400424 0.204953 0.500000
O O15 0.380335 0.180895 0.330986
O O16 0.443071 0.280440 0.388402
O O17 0.199808 0.830549 0.838266
O O18 0.130457 0.847523 0.000000
#
# Coordination Sequence:
#
# PCOD9498445 Si02
#       7
#    16  16  16  16  16  16  16
#     4   9  20  39  62  90 128 170 210 261 325 396
#     4   9  19  37  62  89 120 166 218 263 318 389
#     4  11  24  38  58  93 136 172 211 269 330 398
#     4  10  22  44  69  92 127 174 225 277 334 403
#     4  10  21  41  66  92 128 167 217 278 335 397
#     4  11  22  38  61  96 128 168 215 269 333 397
#     4  10  22  42  68  96 124 165 222 281 339 393
#
# _framework density 21.41253
#
# number of rings (size 3 to 8) (size 9 to 14) (size 15 to 20)
#    0.000    2.000    0.000    2.571    2.000    4.000 
#    7.714    1.429    0.000    1.714    0.000    0.000 
#    0.000    0.000    0.000    0.000    0.000    0.000 
#
# Total GULP energy -312178.562885 kJ/mol
# GULP energy per Si atom -5574.617194 kJ/mol
# Density = 2.136379 g / cm^3
# Si number density = 21.412530 Si / 1000 Ang^3
#
#
#
# Elastic Constant Matrix: (Units=GPa)
#
#
# Indices 1 2 3 4 5 6 
#
# 1 72.7880 21.9408 33.4730 0.0000 0.0000 0.0000
# 2 21.9408 70.3434 47.9666 0.0000 0.0000 0.0000
# 3 33.4730 47.9666 80.2206 0.0000 0.0000 0.0000
# 4 0.0000 0.0000 0.0000 14.8157 0.0000 0.0000
# 5 0.0000 0.0000 0.0000 0.0000 4.5365 0.0000
# 6 0.0000 0.0000 0.0000 0.0000 0.0000 25.1772
#
#
#
# Elastic Compliance Matrix: (Units=1/GPa)
#
#
# Indices 1 2 3 4 5 6 
#
# 1 0.017027 -0.000787 -0.006634 0.000000 0.000000 0.000000
# 2 -0.000787 0.024039 -0.014045 0.000000 0.000000 0.000000
# 3 -0.006634 -0.014045 0.023632 0.000000 0.000000 0.000000
# 4 0.000000 0.000000 0.000000 0.067496 0.000000 0.000000
# 5 0.000000 0.000000 0.000000 0.000000 0.220432 0.000000
# 6 0.000000 0.000000 0.000000 0.000000 0.000000 0.039719
#
#
# Mechanical properties :
#
#
# Convention : Reuss Voigt Hill
#
# Bulk Modulus (GPa) = 45.94590 47.79029 46.86810
# Shear Modulus (GPa) = 11.29865 16.90399 14.10132
#
# Velocity S-wave (km/s) = 2.29959 2.81275 2.56902
# Velocity P-wave (km/s) = 5.34368 5.73725 5.54396
#
# Compressibility (1/GPa) = 0.02176473
#
# Stress axis : x y z
#
# Youngs Moduli (GPa) = 58.73192 41.59947 42.31602
#
# Poissons Ratio (x) = 0.03275 0.28072
# Poissons Ratio (y) = 0.04623 0.59433
# Poissons Ratio (z) = 0.38962 0.58427
#
# Static dielectric constant tensor:
#      x y z
#    x 1.768440 0.000000 0.000000 
#    y 0.000000 3.598390 0.000000 
#    z 0.000000 0.000000 1.843800 
# 
# From -- ./inp_files/28737.got.cif
#   From: 2010.05.17/outbox.cif.g08.bks.cpg/sg66_15_cif.got.tgz:28737.got - 2010.06.03 17:51:23.
