data_PCOD9498890
_publ_section_title
;
Structure prediction by ZEFSAII (Michael W. Deem and Ramdas Pophale) SiO2 
 PCOD9498890
Probable space group: C C C M
;
_chemical_formula_sum "Si O2"
_cell_formula_units_Z 112
_cell_length_a 10.861865
_cell_length_b 15.443708
_cell_length_c 31.236439
_cell_angle_alpha 90.000000
_cell_angle_beta 90.000000
_cell_angle_gamma 90.000000
_cell_volume 5239.833658
_symmetry_space_group_name_H-M "C C C M"
_symmetry_group_IT_number 66
_symmetry_cell_setting 'orthorhombic'
loop_
_space_group_symop_operation_xyz
x,y,z
-x,-y,z
x,-y,1/2-z
-x,y,1/2-z
-x,-y,-z
x,y,-z
-x,y,1/2+z
x,-y,1/2+z
1/2+x,1/2+y,z
1/2-x,1/2-y,z
1/2+x,1/2-y,1/2-z
1/2-x,1/2+y,1/2-z
1/2-x,1/2-y,-z
1/2+x,1/2+y,-z
1/2-x,1/2+y,1/2+z
1/2+x,1/2-y,1/2+z
loop_
_atom_site_type_symbol
_atom_site_label
_atom_site_fract_x
_atom_site_fract_y
_atom_site_fract_z
Si Si1 0.827432 0.589125 0.271002
Si Si2 0.622059 0.706848 0.398420
Si Si3 0.109096 0.725001 0.551055
Si Si4 0.399991 0.619699 0.712674
Si Si5 0.505252 0.798377 0.822455
Si Si6 0.825798 0.025981 0.852870
Si Si7 0.606323 0.071215 0.387730
O O1 0.871050 0.500000 0.250000
O O2 0.729192 0.624046 0.237159
O O3 0.930786 0.654070 0.285794
O O4 0.754806 0.566993 0.314574
O O5 0.750000 0.750000 0.416184
O O6 0.502224 0.718488 0.428796
O O7 0.592811 0.767333 0.357729
O O8 0.626181 0.608462 0.380131
O O9 0.102365 0.727581 0.500000
O O10 0.250000 0.750000 0.563985
O O11 0.089349 0.629626 0.570586
O O12 0.500000 0.598775 0.750000
O O13 0.430062 0.712546 0.693591
O O14 0.397061 0.549221 0.674331
O O15 0.593394 0.864959 0.847005
O O16 0.736949 0.974489 0.884940
O O17 0.500000 0.000000 0.384002
#
# Coordination Sequence:
#
# PCOD9498890 Si02
#       7
#    16  16  16  16  16  16  16
#     4  10  22  43  62  88 133 187 239 305 359 405
#     4  11  22  43  78 106 141 191 235 295 355 429
#     4  10  25  50  77 112 151 181 222 284 363 452
#     4  11  27  41  61  94 137 189 242 304 371 411
#     4  11  24  43  65  92 137 187 244 297 356 426
#     4  11  23  42  67 100 136 174 243 299 351 419
#     4  11  23  45  73 104 131 185 238 292 351 431
#
# _framework density 21.374724000000001
#
# number of rings (size 3 to 8) (size 9 to 14) (size 15 to 20)
#    0.000    1.286    2.857    1.714    4.000   10.571 
#    0.000    2.857    0.000    1.714    0.000    0.000 
#    0.000    0.000    0.000    0.000    0.000    0.000 
#
# Total GULP energy -313146.795493 kJ/mol
# GULP energy per Si atom -5591.907062 kJ/mol
# Density = 2.132607 g / cm^3
# Si number density = 21.374724 Si / 1000 Ang^3
#
#
#
# Elastic Constant Matrix: (Units=GPa)
#
#
# Indices 1 2 3 4 5 6 
#
# 1 97.5490 64.6493 66.5484 0.0000 0.0000 0.0000
# 2 64.6493 154.6264 66.1238 0.0000 0.0000 0.0000
# 3 66.5484 66.1238 91.1663 0.0000 0.0000 0.0000
# 4 0.0000 0.0000 0.0000 13.6204 0.0000 0.0000
# 5 0.0000 0.0000 0.0000 0.0000 4.3967 0.0000
# 6 0.0000 0.0000 0.0000 0.0000 0.0000 53.8795
#
#
#
# Elastic Compliance Matrix: (Units=1/GPa)
#
#
# Indices 1 2 3 4 5 6 
#
# 1 0.021526 -0.003306 -0.013316 0.000000 0.000000 0.000000
# 2 -0.003306 0.009883 -0.004755 0.000000 0.000000 0.000000
# 3 -0.013316 -0.004755 0.024138 0.000000 0.000000 0.000000
# 4 0.000000 0.000000 0.000000 0.073419 0.000000 0.000000
# 5 0.000000 0.000000 0.000000 0.000000 0.227445 0.000000
# 6 0.000000 0.000000 0.000000 0.000000 0.000000 0.018560
#
#
# Mechanical properties :
#
#
# Convention : Reuss Voigt Hill
#
# Bulk Modulus (GPa) = 78.16239 81.99831 80.08035
# Shear Modulus (GPa) = 11.84868 24.11400 17.98134
#
# Velocity S-wave (km/s) = 2.35698 3.36245 2.90357
# Velocity P-wave (km/s) = 6.63733 7.31576 6.98479
#
# Compressibility (1/GPa) = 0.01279388
#
# Stress axis : x y z
#
# Youngs Moduli (GPa) = 46.45513 101.18649 41.42898
#
# Poissons Ratio (x) = 0.33451 0.55165
# Poissons Ratio (y) = 0.15357 0.19699
# Poissons Ratio (z) = 0.61858 0.48113
#
# Static dielectric constant tensor:
#      x y z
#    x 1.935390 0.000000 0.000000 
#    y 0.000000 1.942410 0.000000 
#    z 0.000000 0.000000 1.742360 
# 
# From -- ./inp_files/69087.got.cif
#   From: 2010.05.17/outbox.cif.g08.bks.cpg/sg66_35_cif.got.tgz:69087.got - 2010.06.03 17:51:23.
