data_PCOD9498590
_publ_section_title
;
Structure prediction by ZEFSAII (Michael W. Deem and Ramdas Pophale) SiO2 
 PCOD9498590
Probable space group: C C C M
;
_chemical_formula_sum "Si O2"
_cell_formula_units_Z 64
_cell_length_a 9.736699
_cell_length_b 13.952293
_cell_length_c 25.495798
_cell_angle_alpha 90.000000
_cell_angle_beta 90.000000
_cell_angle_gamma 90.000000
_cell_volume 3463.585733
_symmetry_space_group_name_H-M "C C C M"
_symmetry_group_IT_number 66
_symmetry_cell_setting 'orthorhombic'
loop_
_space_group_symop_operation_xyz
x,y,z
-x,-y,z
x,-y,1/2-z
-x,y,1/2-z
-x,-y,-z
x,y,-z
-x,y,1/2+z
x,-y,1/2+z
1/2+x,1/2+y,z
1/2-x,1/2-y,z
1/2+x,1/2-y,1/2-z
1/2-x,1/2+y,1/2-z
1/2-x,1/2-y,-z
1/2+x,1/2+y,-z
1/2-x,1/2+y,1/2+z
1/2+x,1/2-y,1/2+z
loop_
_atom_site_type_symbol
_atom_site_label
_atom_site_fract_x
_atom_site_fract_y
_atom_site_fract_z
Si Si1 0.267511 0.521045 0.835818
Si Si2 0.500000 0.500000 0.587344
Si Si3 0.937974 0.645418 0.000000
Si Si4 0.108391 0.139570 0.000000
Si Si5 0.000000 0.500000 0.092262
Si Si6 0.164818 0.153167 0.239843
O O1 0.385857 0.547009 0.876459
O O2 0.312074 0.421673 0.807638
O O3 0.268037 0.600398 0.790321
O O4 0.129996 0.508708 0.869311
O O5 0.566313 0.420370 0.550665
O O6 0.988865 0.589801 0.051977
O O7 0.966866 0.758234 0.000000
O O8 0.772596 0.643580 0.000000
O O9 0.250000 0.250000 0.230190
O O10 0.000000 0.166009 0.250000
#
# Coordination Sequence:
#
# PCOD9498590 Si02
#       6
#    16   8   8   8   8  16
#     4  11  23  43  64  86 130 166 204 247 309 370
#     4  11  20  41  64  90 116 173 204 243 304 374
#     4  10  22  41  58  95 126 155 206 265 302 358
#     4  10  22  37  66  89 122 163 209 252 308 366
#     4  11  24  39  64  92 126 163 204 259 306 358
#     4  11  25  42  64  94 125 158 206 257 303 366
#
# _framework density 18.477959999999999
#
# number of rings (size 3 to 8) (size 9 to 14) (size 15 to 20)
#    0.000    1.250    5.000    0.750    3.500    5.000 
#    0.000    1.250    0.000    0.000    0.000    0.000 
#    0.000    0.000    0.000    0.000    0.000    0.000 
#
# Total GULP energy -178610.367859 kJ/mol
# GULP energy per Si atom -5581.573996 kJ/mol
# Density = 1.843590 g / cm^3
# Si number density = 18.477960 Si / 1000 Ang^3
#
#
#
# Elastic Constant Matrix: (Units=GPa)
#
#
# Indices 1 2 3 4 5 6 
#
# 1 86.1909 -9.1728 24.0531 0.0000 0.0000 0.0000
# 2 -9.1728 84.2729 7.5296 0.0000 0.0000 0.0000
# 3 24.0531 7.5296 93.0862 0.0000 0.0000 0.0000
# 4 0.0000 0.0000 0.0000 2.2577 0.0000 0.0000
# 5 0.0000 0.0000 0.0000 0.0000 33.9865 0.0000
# 6 0.0000 0.0000 0.0000 0.0000 0.0000 26.0548
#
#
#
# Elastic Compliance Matrix: (Units=1/GPa)
#
#
# Indices 1 2 3 4 5 6 
#
# 1 0.012739 0.001693 -0.003429 0.000000 0.000000 0.000000
# 2 0.001693 0.012178 -0.001422 0.000000 0.000000 0.000000
# 3 -0.003429 -0.001422 0.011744 0.000000 0.000000 0.000000
# 4 0.000000 0.000000 0.000000 0.442937 0.000000 0.000000
# 5 0.000000 0.000000 0.000000 0.000000 0.029423 0.000000
# 6 0.000000 0.000000 0.000000 0.000000 0.000000 0.038381
#
#
# Mechanical properties :
#
#
# Convention : Reuss Voigt Hill
#
# Bulk Modulus (GPa) = 32.95538 34.26333 33.60935
# Shear Modulus (GPa) = 8.86788 28.53578 18.70183
#
# Velocity S-wave (km/s) = 2.19308 3.93404 3.18483
# Velocity P-wave (km/s) = 4.92813 6.26248 5.63494
#
# Compressibility (1/GPa) = 0.03034406
#
# Stress axis : x y z
#
# Youngs Moduli (GPa) = 78.49811 82.11811 85.15167
#
# Poissons Ratio (x) = -0.13902 0.29196
# Poissons Ratio (y) = -0.13289 0.12113
# Poissons Ratio (z) = 0.26915 0.11681
#
# Static dielectric constant tensor:
#      x y z
#    x 1.648620 0.000000 0.000000 
#    y 0.000000 1.625800 0.000000 
#    z 0.000000 0.000000 1.613510 
# 
# From -- ./inp_files/55087.got.cif
#   From: 2010.05.17/outbox.cif.g08.bks.cpg/sg66_28_cif.got.tgz:55087.got - 2010.06.03 17:51:23.
