data_PCOD9498969
_publ_section_title
;
Structure prediction by ZEFSAII (Michael W. Deem and Ramdas Pophale) SiO2 
 PCOD9498969
Probable space group: C C C M
;
_chemical_formula_sum "Si O2"
_cell_formula_units_Z 112
_cell_length_a 30.315567
_cell_length_b 13.080207
_cell_length_c 14.209689
_cell_angle_alpha 90.000000
_cell_angle_beta 90.000000
_cell_angle_gamma 90.000000
_cell_volume 5634.623279
_symmetry_space_group_name_H-M "C C C M"
_symmetry_group_IT_number 66
_symmetry_cell_setting 'orthorhombic'
loop_
_space_group_symop_operation_xyz
x,y,z
-x,-y,z
x,-y,1/2-z
-x,y,1/2-z
-x,-y,-z
x,y,-z
-x,y,1/2+z
x,-y,1/2+z
1/2+x,1/2+y,z
1/2-x,1/2-y,z
1/2+x,1/2-y,1/2-z
1/2-x,1/2+y,1/2-z
1/2-x,1/2-y,-z
1/2+x,1/2+y,-z
1/2-x,1/2+y,1/2+z
1/2+x,1/2-y,1/2+z
loop_
_atom_site_type_symbol
_atom_site_label
_atom_site_fract_x
_atom_site_fract_y
_atom_site_fract_z
Si Si1 0.873706 0.334417 0.780522
Si Si2 0.300755 0.725401 0.895342
Si Si3 0.255897 0.861707 0.391404
Si Si4 0.549235 0.674278 0.729714
Si Si5 0.326823 0.501228 0.361970
Si Si6 0.429093 0.519597 0.395041
Si Si7 0.347087 0.041366 0.886832
O O1 0.832352 0.267932 0.815128
O O2 0.916827 0.264764 0.794233
O O3 0.867182 0.437332 0.842960
O O4 0.870531 0.367770 0.671467
O O5 0.250000 0.750000 0.880242
O O6 0.306587 0.604715 0.895614
O O7 0.313298 0.766377 0.000000
O O8 0.268762 0.843793 0.500000
O O9 0.250000 0.750000 0.345660
O O10 0.208262 0.912991 0.387897
O O11 0.295235 0.937974 0.359230
O O12 0.500000 0.712145 0.750000
O O13 0.551775 0.585068 0.650284
O O14 0.562381 0.612408 0.823957
O O15 0.330552 0.500000 0.250000
O O16 0.376162 0.510154 0.398681
O O17 0.446183 0.536208 0.500000
O O18 0.352012 0.042275 0.000000
#
# Coordination Sequence:
#
# PCOD9498969 Si02
#       7
#    16  16  16  16  16  16  16
#     4  11  23  42  67  93 123 175 215 265 339 390
#     4  11  23  38  61  92 131 174 220 268 315 382
#     4  10  23  38  57  87 128 179 220 262 314 374
#     4  11  25  45  66  98 130 162 218 273 331 402
#     4  12  23  35  57  92 131 170 214 261 311 377
#     4  11  22  41  66  95 134 171 210 266 329 392
#     4  10  24  43  63  92 131 169 220 271 317 386
#
# _framework density 19.877105
#
# number of rings (size 3 to 8) (size 9 to 14) (size 15 to 20)
#    0.000    1.143    2.857    3.429    8.000    4.571 
#    0.000    1.429    0.000    0.857    0.000    0.000 
#    0.000    0.000    0.000    0.000    0.000    0.000 
#
# Total GULP energy -312697.090371 kJ/mol
# GULP energy per Si atom -5583.876614 kJ/mol
# Density = 1.983186 g / cm^3
# Si number density = 19.877105 Si / 1000 Ang^3
#
#
#
# Elastic Constant Matrix: (Units=GPa)
#
#
# Indices 1 2 3 4 5 6 
#
# 1 114.2927 49.8646 15.2710 0.0000 0.0000 0.0000
# 2 49.8646 100.6614 30.7425 0.0000 0.0000 0.0000
# 3 15.2710 30.7425 128.2534 0.0000 0.0000 0.0000
# 4 0.0000 0.0000 0.0000 22.5501 0.0000 0.0000
# 5 0.0000 0.0000 0.0000 0.0000 28.1278 0.0000
# 6 0.0000 0.0000 0.0000 0.0000 0.0000 19.5857
#
#
#
# Elastic Compliance Matrix: (Units=1/GPa)
#
#
# Indices 1 2 3 4 5 6 
#
# 1 0.011162 -0.005528 -0.000004 0.000000 0.000000 0.000000
# 2 -0.005528 0.013457 -0.002567 0.000000 0.000000 0.000000
# 3 -0.000004 -0.002567 0.008413 0.000000 0.000000 0.000000
# 4 0.000000 0.000000 0.000000 0.044346 0.000000 0.000000
# 5 0.000000 0.000000 0.000000 0.000000 0.035552 0.000000
# 6 0.000000 0.000000 0.000000 0.000000 0.000000 0.051058
#
#
# Mechanical properties :
#
#
# Convention : Reuss Voigt Hill
#
# Bulk Modulus (GPa) = 59.40777 59.44044 59.42411
# Shear Modulus (GPa) = 26.91112 30.54133 28.72622
#
# Velocity S-wave (km/s) = 3.68350 3.92408 3.80569
# Velocity P-wave (km/s) = 6.93133 7.10634 7.01938
#
# Compressibility (1/GPa) = 0.01683281
#
# Stress axis : x y z
#
# Youngs Moduli (GPa) = 89.59128 74.31187 118.86443
#
# Poissons Ratio (x) = 0.41080 0.00047
# Poissons Ratio (y) = 0.49526 0.30517
# Poissons Ratio (z) = 0.00035 0.19079
#
# Static dielectric constant tensor:
#      x y z
#    x 1.655320 0.000000 0.000000 
#    y 0.000000 1.731650 0.000000 
#    z 0.000000 0.000000 1.787610 
# 
# From -- ./inp_files/33818.got.cif
#   From: 2010.05.17/outbox.cif.g08.bks.cpg/sg66_17_cif.got.tgz:33818.got - 2010.06.03 17:51:23.
