data_PCOD9498395
_publ_section_title
;
Structure prediction by ZEFSAII (Michael W. Deem and Ramdas Pophale) SiO2 
 PCOD9498395
Probable space group: C C C M
;
_chemical_formula_sum "Si O2"
_cell_formula_units_Z 72
_cell_length_a 18.666147
_cell_length_b 9.982507
_cell_length_c 15.460074
_cell_angle_alpha 90.000000
_cell_angle_beta 90.000000
_cell_angle_gamma 90.000000
_cell_volume 2880.752009
_symmetry_space_group_name_H-M "C C C M"
_symmetry_group_IT_number 66
_symmetry_cell_setting 'orthorhombic'
loop_
_space_group_symop_operation_xyz
x,y,z
-x,-y,z
x,-y,1/2-z
-x,y,1/2-z
-x,-y,-z
x,y,-z
-x,y,1/2+z
x,-y,1/2+z
1/2+x,1/2+y,z
1/2-x,1/2-y,z
1/2+x,1/2-y,1/2-z
1/2-x,1/2+y,1/2-z
1/2-x,1/2-y,-z
1/2+x,1/2+y,-z
1/2-x,1/2+y,1/2+z
1/2+x,1/2-y,1/2+z
loop_
_atom_site_type_symbol
_atom_site_label
_atom_site_fract_x
_atom_site_fract_y
_atom_site_fract_z
Si Si1 0.284469 0.532673 0.403582
Si Si2 0.070166 0.910220 0.896620
Si Si3 0.750000 0.750000 0.350793
Si Si4 0.843407 0.356085 0.709662
Si Si5 0.017293 0.343132 0.896502
O O1 0.291158 0.589418 0.500000
O O2 0.362366 0.497884 0.364375
O O3 0.251351 0.383269 0.405652
O O4 0.227624 0.612934 0.347122
O O5 0.044536 0.761336 0.868637
O O6 0.086098 0.896250 0.000000
O O7 0.000000 0.000000 0.885533
O O8 0.817435 0.738785 0.286611
O O9 0.863376 0.500000 0.750000
O O10 0.908961 0.309245 0.651672
O O11 0.000000 0.500000 0.880721
O O12 0.026791 0.327125 0.000000
#
# Coordination Sequence:
#
# PCOD9498395 Si02
#       5
#    16  16   8  16  16
#     4  10  21  40  67  91 120 174 224 260 318 399
#     4   9  20  38  62  94 127 158 209 271 318 374
#     4  10  23  40  61  90 132 162 206 274 325 386
#     4  10  23  40  61  90 130 166 212 271 333 385
#     4  10  22  40  64  94 126 165 217 271 320 386
#
# _framework density 24.993473999999999
#
# number of rings (size 3 to 8) (size 9 to 14) (size 15 to 20)
#    0.000    2.222    0.000    1.000    9.333    0.444 
#    0.000    1.111    0.000    0.000    0.000    0.000 
#    0.000    0.000    0.000    0.000    0.000    0.000 
#
# Total GULP energy -201293.931468 kJ/mol
# GULP energy per Si atom -5591.498096 kJ/mol
# Density = 2.493659 g / cm^3
# Si number density = 24.993474 Si / 1000 Ang^3
#
#
#
# Elastic Constant Matrix: (Units=GPa)
#
#
# Indices 1 2 3 4 5 6 
#
# 1 201.6234 20.3543 71.1916 0.0000 0.0000 0.0000
# 2 20.3543 99.1881 33.5312 0.0000 0.0000 0.0000
# 3 71.1916 33.5312 74.3162 0.0000 0.0000 0.0000
# 4 0.0000 0.0000 0.0000 -9.8889 0.0000 0.0000
# 5 0.0000 0.0000 0.0000 0.0000 42.5498 0.0000
# 6 0.0000 0.0000 0.0000 0.0000 0.0000 1.6055
#
#
#
# Elastic Compliance Matrix: (Units=1/GPa)
#
#
# Indices 1 2 3 4 5 6 
#
# 1 0.007589 0.001062 -0.007749 0.000000 0.000000 0.000000
# 2 0.001062 0.012045 -0.006452 0.000000 0.000000 0.000000
# 3 -0.007749 -0.006452 0.023790 0.000000 0.000000 0.000000
# 4 0.000000 0.000000 0.000000 -0.101124 0.000000 0.000000
# 5 0.000000 0.000000 0.000000 0.000000 0.023502 0.000000
# 6 0.000000 0.000000 0.000000 0.000000 0.000000 0.622866
#
#
# Mechanical properties :
#
#
# Convention : Reuss Voigt Hill
#
# Bulk Modulus (GPa) = 58.32172 69.47577 63.89875
# Shear Modulus (GPa) = 8.05593 23.52330 15.78962
#
# Velocity S-wave (km/s) = 1.79728 3.07119 2.51619
# Velocity P-wave (km/s) = 5.26236 6.35879 5.83638
#
# Compressibility (1/GPa) = 0.01714627
#
# Stress axis : x y z
#
# Youngs Moduli (GPa) = 131.77771 83.02109 42.03392
#
# Poissons Ratio (x) = -0.08819 0.32571
# Poissons Ratio (y) = -0.13999 0.27122
# Poissons Ratio (z) = 1.02112 0.53568
#
# Static dielectric constant tensor:
#      x y z
#    x 1.973210 0.000000 0.000000 
#    y 0.000000 1.956960 0.000000 
#    z 0.000000 0.000000 1.937080 
# 
# From -- ./inp_files/41291.got.cif
#   From: 2010.05.17/outbox.cif.g08.bks.cpg/sg66_21_cif.got.tgz:41291.got - 2010.06.03 17:51:23.
