data_PCOD9498896
_publ_section_title
;
Structure prediction by ZEFSAII (Michael W. Deem and Ramdas Pophale) SiO2 
 PCOD9498896
Probable space group: C C C M
;
_chemical_formula_sum "Si O2"
_cell_formula_units_Z 64
_cell_length_a 9.995848
_cell_length_b 10.533628
_cell_length_c 25.751118
_cell_angle_alpha 90.000000
_cell_angle_beta 90.000000
_cell_angle_gamma 90.000000
_cell_volume 2711.400735
_symmetry_space_group_name_H-M "C C C M"
_symmetry_group_IT_number 66
_symmetry_cell_setting 'orthorhombic'
loop_
_space_group_symop_operation_xyz
x,y,z
-x,-y,z
x,-y,1/2-z
-x,y,1/2-z
-x,-y,-z
x,y,-z
-x,y,1/2+z
x,-y,1/2+z
1/2+x,1/2+y,z
1/2-x,1/2-y,z
1/2+x,1/2-y,1/2-z
1/2-x,1/2+y,1/2-z
1/2-x,1/2-y,-z
1/2+x,1/2+y,-z
1/2-x,1/2+y,1/2+z
1/2+x,1/2-y,1/2+z
loop_
_atom_site_type_symbol
_atom_site_label
_atom_site_fract_x
_atom_site_fract_y
_atom_site_fract_z
Si Si1 0.359799 0.357752 0.218622
Si Si2 0.534058 0.194567 0.372710
Si Si3 0.904781 0.877411 0.557421
Si Si4 0.787036 0.539524 0.351649
O O1 0.500000 0.361898 0.250000
O O2 0.250000 0.250000 0.236417
O O3 0.406879 0.305094 0.162279
O O4 0.290657 0.490474 0.199289
O O5 0.487305 0.252186 0.426980
O O6 0.641458 0.083327 0.376547
O O7 0.408435 0.135410 0.341471
O O8 0.844733 0.867956 0.500000
O O9 0.805036 0.897985 0.605091
O O10 0.000000 0.000000 0.557557
#
# Coordination Sequence:
#
# PCOD9498896 Si02
#       4
#    16  16  16  16
#     4  10  22  44  68  97 133 174 225 274 334 401
#     4  10  22  43  67  94 133 173 218 273 329 397
#     4  11  23  40  66  99 132 173 224 274 329 395
#     4  10  22  43  68  95 132 176 218 271 333 392
#
# _framework density 23.604033999999999
#
# number of rings (size 3 to 8) (size 9 to 14) (size 15 to 20)
#    0.000    1.750    2.500    0.750    0.000    5.000 
#    0.000   27.500    0.000    0.000    0.000    0.000 
#    0.000    0.000    0.000    0.000    0.000    0.000 
#
# Total GULP energy -178942.085958 kJ/mol
# GULP energy per Si atom -5591.940186 kJ/mol
# Density = 2.355031 g / cm^3
# Si number density = 23.604034 Si / 1000 Ang^3
#
#
#
# Elastic Constant Matrix: (Units=GPa)
#
#
# Indices 1 2 3 4 5 6 
#
# 1 137.8784 47.2672 42.6880 0.0000 0.0000 0.0000
# 2 47.2672 66.2692 34.5288 0.0000 0.0000 0.0000
# 3 42.6880 34.5288 103.4642 0.0000 0.0000 0.0000
# 4 0.0000 0.0000 0.0000 11.2982 0.0000 0.0000
# 5 0.0000 0.0000 0.0000 0.0000 -5.1062 0.0000
# 6 0.0000 0.0000 0.0000 0.0000 0.0000 49.4311
#
#
#
# Elastic Compliance Matrix: (Units=1/GPa)
#
#
# Indices 1 2 3 4 5 6 
#
# 1 0.009965 -0.006011 -0.002106 0.000000 0.000000 0.000000
# 2 -0.006011 0.021892 -0.004826 0.000000 0.000000 0.000000
# 3 -0.002106 -0.004826 0.012144 0.000000 0.000000 0.000000
# 4 0.000000 0.000000 0.000000 0.088510 0.000000 0.000000
# 5 0.000000 0.000000 0.000000 0.000000 -0.195842 0.000000
# 6 0.000000 0.000000 0.000000 0.000000 0.000000 0.020230
#
#
# Mechanical properties :
#
#
# Convention : Reuss Voigt Hill
#
# Bulk Modulus (GPa) = 55.19697 61.84220 58.51959
# Shear Modulus (GPa) = -447.31711 23.33315 -211.99198
#
# Velocity S-wave (km/s) = -13.78115 3.14749 -9.48719
# Velocity P-wave (km/s) = 15.15888 6.28217 9.75515
#
# Compressibility (1/GPa) = 0.01811693
#
# Stress axis : x y z
#
# Youngs Moduli (GPa) = 100.34865 45.67952 82.34218
#
# Poissons Ratio (x) = 0.27457 0.17338
# Poissons Ratio (y) = 0.60317 0.39737
# Poissons Ratio (z) = 0.21129 0.22044
#
# Static dielectric constant tensor:
#      x y z
#    x 1.941600 0.000000 0.000000 
#    y 0.000000 1.927520 0.000000 
#    z 0.000000 0.000000 1.835630 
# 
# From -- ./inp_files/67914.got.cif
#   From: 2010.05.17/outbox.cif.g08.bks.cpg/sg66_34_cif.got.tgz:67914.got - 2010.06.03 17:51:23.
