data_PCOD9498326
_publ_section_title
;
Structure prediction by ZEFSAII (Michael W. Deem and Ramdas Pophale) SiO2 
 PCOD9498326
Probable space group: C C C M
;
_chemical_formula_sum "Si O2"
_cell_formula_units_Z 80
_cell_length_a 17.247004
_cell_length_b 8.631245
_cell_length_c 26.697869
_cell_angle_alpha 90.000000
_cell_angle_beta 90.000000
_cell_angle_gamma 90.000000
_cell_volume 3974.327998
_symmetry_space_group_name_H-M "C C C M"
_symmetry_group_IT_number 66
_symmetry_cell_setting 'orthorhombic'
loop_
_space_group_symop_operation_xyz
x,y,z
-x,-y,z
x,-y,1/2-z
-x,y,1/2-z
-x,-y,-z
x,y,-z
-x,y,1/2+z
x,-y,1/2+z
1/2+x,1/2+y,z
1/2-x,1/2-y,z
1/2+x,1/2-y,1/2-z
1/2-x,1/2+y,1/2-z
1/2-x,1/2-y,-z
1/2+x,1/2+y,-z
1/2-x,1/2+y,1/2+z
1/2+x,1/2-y,1/2+z
loop_
_atom_site_type_symbol
_atom_site_label
_atom_site_fract_x
_atom_site_fract_y
_atom_site_fract_z
Si Si1 0.074298 0.387977 0.109033
Si Si2 0.285701 0.413904 0.203800
Si Si3 0.745874 0.935200 0.000000
Si Si4 0.425674 0.110998 0.000000
Si Si5 0.456493 0.663436 0.297716
Si Si6 0.258531 0.934284 0.895385
O O1 0.076072 0.306615 0.053970
O O2 0.058164 0.269647 0.153949
O O3 0.154634 0.488970 0.112485
O O4 0.000000 0.500000 0.108881
O O5 0.244183 0.500000 0.250000
O O6 0.250000 0.250000 0.189938
O O7 0.371047 0.372757 0.221295
O O8 0.287017 0.515905 0.154223
O O9 0.750000 0.750000 0.000000
O O10 0.775750 0.996334 0.946980
O O11 0.654819 0.984580 0.000000
O O12 0.500000 0.000000 0.000000
O O13 0.500000 0.500000 0.309123
O O14 0.500000 0.737941 0.250000
O O15 0.250000 0.750000 0.899509
#
# Coordination Sequence:
#
# PCOD9498326 Si02
#       6
#    16  16   8   8  16  16
#     4  10  22  41  66  94 129 174 220 267 328 402
#     4  12  24  43  65  94 132 169 224 282 336 394
#     4  10  21  39  68  99 136 175 219 274 331 398
#     4   8  18  39  63  91 130 167 208 264 320 382
#     4  11  24  44  64  91 128 174 218 275 338 401
#     4  11  24  41  66 100 136 178 222 275 337 401
#
# _framework density 20.129190000000001
#
# number of rings (size 3 to 8) (size 9 to 14) (size 15 to 20)
#    0.000    1.400    4.000    1.500    5.600    2.000 
#    0.000    0.500    0.000    0.000    0.000    0.000 
#    0.000    0.000    0.000    0.000    0.000    0.000 
#
# Total GULP energy -222785.005351 kJ/mol
# GULP energy per Si atom -5569.625134 kJ/mol
# Density = 2.008338 g / cm^3
# Si number density = 20.129190 Si / 1000 Ang^3
#
#
#
# Elastic Constant Matrix: (Units=GPa)
#
#
# Indices 1 2 3 4 5 6 
#
# 1 58.2902 -10.1097 -14.1197 0.0000 0.0000 0.0000
# 2 -10.1097 110.4732 55.1963 0.0000 0.0000 0.0000
# 3 -14.1197 55.1963 184.2666 0.0000 0.0000 0.0000
# 4 0.0000 0.0000 0.0000 90.3711 0.0000 0.0000
# 5 0.0000 0.0000 0.0000 0.0000 -205.6372 0.0000
# 6 0.0000 0.0000 0.0000 0.0000 0.0000 13.0013
#
#
#
# Elastic Compliance Matrix: (Units=1/GPa)
#
#
# Indices 1 2 3 4 5 6 
#
# 1 0.017593 0.001101 0.001018 0.000000 0.000000 0.000000
# 2 0.001101 0.010714 -0.003125 0.000000 0.000000 0.000000
# 3 0.001018 -0.003125 0.006441 0.000000 0.000000 0.000000
# 4 0.000000 0.000000 0.000000 0.011065 0.000000 0.000000
# 5 0.000000 0.000000 0.000000 0.000000 -0.004863 0.000000
# 6 0.000000 0.000000 0.000000 0.000000 0.000000 0.076915
#
#
# Mechanical properties :
#
#
# Convention : Reuss Voigt Hill
#
# Bulk Modulus (GPa) = 30.54616 46.10707 38.32661
# Shear Modulus (GPa) = 38.22929 1.01791 19.62360
#
# Velocity S-wave (km/s) = 4.36271 0.71189 3.12570
# Velocity P-wave (km/s) = 6.37068 4.86117 5.66642
#
# Compressibility (1/GPa) = 0.03273734
#
# Stress axis : x y z
#
# Youngs Moduli (GPa) = 56.84015 93.33497 155.25496
#
# Poissons Ratio (x) = -0.10279 -0.15808
# Poissons Ratio (y) = -0.06260 0.48517
# Poissons Ratio (z) = -0.05788 0.29167
#
# Static dielectric constant tensor:
#      x y z
#    x 1.778960 0.000000 0.000000 
#    y 0.000000 1.659140 0.000000 
#    z 0.000000 0.000000 1.817500 
# 
# From -- ./inp_files/65110.got.cif
#   From: 2010.05.17/outbox.cif.g08.bks.cpg/sg66_33_cif.got.tgz:65110.got - 2010.06.03 17:51:23.
