data_PCOD9498465
_publ_section_title
;
Structure prediction by ZEFSAII (Michael W. Deem and Ramdas Pophale) SiO2 
 PCOD9498465
Probable space group: C C C M
;
_chemical_formula_sum "Si O2"
_cell_formula_units_Z 64
_cell_length_a 22.331823
_cell_length_b 6.846921
_cell_length_c 18.587233
_cell_angle_alpha 90.000000
_cell_angle_beta 90.000000
_cell_angle_gamma 90.000000
_cell_volume 2842.066510
_symmetry_space_group_name_H-M "C C C M"
_symmetry_group_IT_number 66
_symmetry_cell_setting 'orthorhombic'
loop_
_space_group_symop_operation_xyz
x,y,z
-x,-y,z
x,-y,1/2-z
-x,y,1/2-z
-x,-y,-z
x,y,-z
-x,y,1/2+z
x,-y,1/2+z
1/2+x,1/2+y,z
1/2-x,1/2-y,z
1/2+x,1/2-y,1/2-z
1/2-x,1/2+y,1/2-z
1/2-x,1/2-y,-z
1/2+x,1/2+y,-z
1/2-x,1/2+y,1/2+z
1/2+x,1/2-y,1/2+z
loop_
_atom_site_type_symbol
_atom_site_label
_atom_site_fract_x
_atom_site_fract_y
_atom_site_fract_z
Si Si1 0.750000 0.750000 0.363588
Si Si2 0.682965 0.500000 0.250000
Si Si3 0.997361 0.263542 0.082215
Si Si4 0.090286 0.323142 0.196419
Si Si5 0.627801 0.121009 0.919669
O O1 0.727147 0.573635 0.312730
O O2 0.692570 0.791863 0.411163
O O3 0.637799 0.678674 0.232492
O O4 0.926707 0.227165 0.094645
O O5 0.000000 0.500000 0.082311
O O6 0.037812 0.212970 0.151383
O O7 0.014229 0.202781 0.000000
O O8 0.069813 0.500000 0.250000
O O9 0.123989 0.443289 0.134699
O O10 0.617396 0.049680 0.000000
#
# Coordination Sequence:
#
# PCOD9498465 Si02
#       5
#     8   8  16  16  16
#     4  12  23  44  62  92 135 176 220 276 317 384
#     4  12  26  44  65 100 135 172 224 272 322 394
#     4   8  17  36  67  96 126 169 211 263 333 390
#     4  11  21  42  68  96 131 168 214 273 332 389
#     4  10  21  41  69  97 129 174 222 270 329 390
#
# _framework density 22.518825
#
# number of rings (size 3 to 8) (size 9 to 14) (size 15 to 20)
#    0.000    1.750    2.500    4.125    0.000    4.500 
#    0.000    8.750    0.000    3.000    0.000    0.000 
#    0.000    0.000    0.000    0.000    0.000    0.000 
#
# Total GULP energy -178557.960282 kJ/mol
# GULP energy per Si atom -5579.936259 kJ/mol
# Density = 2.246757 g / cm^3
# Si number density = 22.518825 Si / 1000 Ang^3
#
#
#
# Elastic Constant Matrix: (Units=GPa)
#
#
# Indices 1 2 3 4 5 6 
#
# 1 152.6829 7.0665 42.2144 0.0000 0.0000 0.0000
# 2 7.0665 67.3190 22.8722 0.0000 0.0000 0.0000
# 3 42.2144 22.8722 105.5644 0.0000 0.0000 0.0000
# 4 0.0000 0.0000 0.0000 2.1839 0.0000 0.0000
# 5 0.0000 0.0000 0.0000 0.0000 41.3202 0.0000
# 6 0.0000 0.0000 0.0000 0.0000 0.0000 19.0490
#
#
#
# Elastic Compliance Matrix: (Units=1/GPa)
#
#
# Indices 1 2 3 4 5 6 
#
# 1 0.007367 0.000246 -0.002999 0.000000 0.000000 0.000000
# 2 0.000246 0.016043 -0.003574 0.000000 0.000000 0.000000
# 3 -0.002999 -0.003574 0.011447 0.000000 0.000000 0.000000
# 4 0.000000 0.000000 0.000000 0.457899 0.000000 0.000000
# 5 0.000000 0.000000 0.000000 0.000000 0.024201 0.000000
# 6 0.000000 0.000000 0.000000 0.000000 0.000000 0.052496
#
#
# Mechanical properties :
#
#
# Convention : Reuss Voigt Hill
#
# Bulk Modulus (GPa) = 45.04205 52.20804 48.62505
# Shear Modulus (GPa) = 8.48161 29.40483 18.94322
#
# Velocity S-wave (km/s) = 1.94284 3.61749 2.90352
# Velocity P-wave (km/s) = 5.00782 6.37831 5.73415
#
# Compressibility (1/GPa) = 0.02220147
#
# Stress axis : x y z
#
# Youngs Moduli (GPa) = 135.73228 62.33150 87.36088
#
# Poissons Ratio (x) = -0.01532 0.26203
# Poissons Ratio (y) = -0.03335 0.31225
# Poissons Ratio (z) = 0.40712 0.22279
#
# Static dielectric constant tensor:
#      x y z
#    x 1.905970 0.000000 0.000000 
#    y 0.000000 1.866490 0.000000 
#    z 0.000000 0.000000 1.889970 
# 
# From -- ./inp_files/43394.got.cif
#   From: 2010.05.17/outbox.cif.g08.bks.cpg/sg66_22_cif.got.tgz:43394.got - 2010.06.03 17:51:23.
