data_PCOD9498950
_publ_section_title
;
Structure prediction by ZEFSAII (Michael W. Deem and Ramdas Pophale) SiO2 
 PCOD9498950
Probable space group: C C C M
;
_chemical_formula_sum "Si O2"
_cell_formula_units_Z 68
_cell_length_a 20.915447
_cell_length_b 5.690150
_cell_length_c 24.513932
_cell_angle_alpha 90.000000
_cell_angle_beta 90.000000
_cell_angle_gamma 90.000000
_cell_volume 2917.452829
_symmetry_space_group_name_H-M "C C C M"
_symmetry_group_IT_number 66
_symmetry_cell_setting 'orthorhombic'
loop_
_space_group_symop_operation_xyz
x,y,z
-x,-y,z
x,-y,1/2-z
-x,y,1/2-z
-x,-y,-z
x,y,-z
-x,y,1/2+z
x,-y,1/2+z
1/2+x,1/2+y,z
1/2-x,1/2-y,z
1/2+x,1/2-y,1/2-z
1/2-x,1/2+y,1/2-z
1/2-x,1/2-y,-z
1/2+x,1/2+y,-z
1/2-x,1/2+y,1/2+z
1/2+x,1/2-y,1/2+z
loop_
_atom_site_type_symbol
_atom_site_label
_atom_site_fract_x
_atom_site_fract_y
_atom_site_fract_z
Si Si1 0.250000 0.750000 0.792412
Si Si2 0.212978 0.990959 0.000000
Si Si3 0.536416 0.752808 0.000000
Si Si4 0.500000 0.000000 0.250000
Si Si5 0.750000 0.250000 0.350525
Si Si6 0.872481 0.879895 0.904134
Si Si7 0.103056 0.820482 0.203403
O O1 0.257763 0.488189 0.817420
O O2 0.173732 0.733322 0.777927
O O3 0.250000 0.250000 0.000000
O O4 0.169090 0.971661 0.946858
O O5 0.250000 0.750000 0.000000
O O6 0.500000 0.500000 0.000000
O O7 0.577058 0.744432 0.943593
O O8 0.500000 0.000000 0.000000
O O9 0.450789 0.874812 0.208393
O O10 0.816635 0.290126 0.381759
O O11 0.895960 0.042965 0.854572
O O12 0.082650 0.000000 0.250000
#
# Coordination Sequence:
#
# PCOD9498950 Si02
#       7
#     8   8   8   4   8  16  16
#     4  10  26  45  78 116 156 200 266 337 402 488
#     4  11  24  43  78 119 163 198 258 328 421 487
#     4  11  28  52  73 114 160 222 276 326 411 493
#     4  12  30  52  80 116 164 238 270 360 418 514
#     4  10  22  44  78 119 144 201 254 332 418 458
#     4  10  25  49  80 113 161 205 266 343 401 498
#     4  11  28  51  78 120 163 214 285 339 432 500
#
# _framework density 23.308002999999999
#
# number of rings (size 3 to 8) (size 9 to 14) (size 15 to 20)
#    0.000    1.412    1.176    0.353   14.824   10.353 
#    4.235    0.000    0.000    0.000    0.000    0.000 
#    0.000    0.000    0.000    0.000    0.000    0.000 
#
# Total GULP energy -189308.530756 kJ/mol
# GULP energy per Si atom -5567.897963 kJ/mol
# Density = 2.325495 g / cm^3
# Si number density = 23.308003 Si / 1000 Ang^3
#
#
#
# Elastic Constant Matrix: (Units=GPa)
#
#
# Indices 1 2 3 4 5 6 
#
# 1 183.7820 79.9643 69.4973 0.0000 0.0000 0.0000
# 2 79.9643 146.1491 54.6029 0.0000 0.0000 0.0000
# 3 69.4973 54.6029 132.2308 0.0000 0.0000 0.0000
# 4 0.0000 0.0000 0.0000 320.0955 0.0000 0.0000
# 5 0.0000 0.0000 0.0000 0.0000 46.5358 0.0000
# 6 0.0000 0.0000 0.0000 0.0000 0.0000 59.3365
#
#
#
# Elastic Compliance Matrix: (Units=1/GPa)
#
#
# Indices 1 2 3 4 5 6 
#
# 1 0.007937 -0.003292 -0.002812 0.000000 0.000000 0.000000
# 2 -0.003292 0.009456 -0.002174 0.000000 0.000000 0.000000
# 3 -0.002812 -0.002174 0.009938 0.000000 0.000000 0.000000
# 4 0.000000 0.000000 0.000000 0.003124 0.000000 0.000000
# 5 0.000000 0.000000 0.000000 0.000000 0.021489 0.000000
# 6 0.000000 0.000000 0.000000 0.000000 0.000000 0.016853
#
#
# Mechanical properties :
#
#
# Convention : Reuss Voigt Hill
#
# Bulk Modulus (GPa) = 92.81483 96.69899 94.75691
# Shear Modulus (GPa) = 56.21391 102.40005 79.30698
#
# Velocity S-wave (km/s) = 4.91632 6.63542 5.83948
# Velocity P-wave (km/s) = 8.49320 10.01412 9.28485
#
# Compressibility (1/GPa) = 0.01077414
#
# Stress axis : x y z
#
# Youngs Moduli (GPa) = 125.99201 105.75342 100.61949
#
# Poissons Ratio (x) = 0.34815 0.28295
# Poissons Ratio (y) = 0.41477 0.21880
# Poissons Ratio (z) = 0.35430 0.22996
#
# Static dielectric constant tensor:
#      x y z
#    x 1.788270 0.000000 0.000000 
#    y 0.000000 2.010550 0.000000 
#    z 0.000000 0.000000 1.841110 
# 
# From -- ./inp_files/65567.got.cif
#   From: 2010.05.17/outbox.cif.g08.bks.cpg/sg66_33_cif.got.tgz:65567.got - 2010.06.03 17:51:23.
