data_PCOD9498795
_publ_section_title
;
Structure prediction by ZEFSAII (Michael W. Deem and Ramdas Pophale) SiO2 
 PCOD9498795
Probable space group: C C C M
;
_chemical_formula_sum "Si O2"
_cell_formula_units_Z 32
_cell_length_a 10.323718
_cell_length_b 8.858535
_cell_length_c 16.252583
_cell_angle_alpha 90.000000
_cell_angle_beta 90.000000
_cell_angle_gamma 90.000000
_cell_volume 1486.347753
_symmetry_space_group_name_H-M "C C C M"
_symmetry_group_IT_number 66
_symmetry_cell_setting 'orthorhombic'
loop_
_space_group_symop_operation_xyz
x,y,z
-x,-y,z
x,-y,1/2-z
-x,y,1/2-z
-x,-y,-z
x,y,-z
-x,y,1/2+z
x,-y,1/2+z
1/2+x,1/2+y,z
1/2-x,1/2-y,z
1/2+x,1/2-y,1/2-z
1/2-x,1/2+y,1/2-z
1/2-x,1/2-y,-z
1/2+x,1/2+y,-z
1/2-x,1/2+y,1/2+z
1/2+x,1/2-y,1/2+z
loop_
_atom_site_type_symbol
_atom_site_label
_atom_site_fract_x
_atom_site_fract_y
_atom_site_fract_z
Si Si1 0.859157 0.875694 0.824185
Si Si2 0.381907 0.668853 0.906244
O O1 0.750000 0.750000 0.817702
O O2 0.998808 0.800627 0.844374
O O3 0.854074 0.000000 0.750000
O O4 0.850019 0.990614 0.901119
O O5 0.250000 0.750000 0.881171
O O6 0.413489 0.712276 0.000000
#
# Coordination Sequence:
#
# PCOD9498795 Si02
#       2
#    16  16
#     4  11  23  40  61  88 124 162 202 248 298 357
#     4  10  22  41  64  91 122 156 199 251 305 360
#
# _framework density 21.529283
#
# number of rings (size 3 to 8) (size 9 to 14) (size 15 to 20)
#    0.000    1.500    0.000    7.500    0.000    6.000 
#    0.000   10.000    0.000    0.000    0.000    0.000 
#    0.000    0.000    0.000    0.000    0.000    0.000 
#
# Total GULP energy -89124.996600 kJ/mol
# GULP energy per Si atom -5570.312288 kJ/mol
# Density = 2.148028 g / cm^3
# Si number density = 21.529283 Si / 1000 Ang^3
#
#
#
# Elastic Constant Matrix: (Units=GPa)
#
#
# Indices 1 2 3 4 5 6 
#
# 1 246.3728 107.7664 81.7227 0.0000 0.0000 0.0000
# 2 107.7664 66.3510 27.9071 0.0000 0.0000 0.0000
# 3 81.7227 27.9071 123.3177 0.0000 0.0000 0.0000
# 4 0.0000 0.0000 0.0000 19.1170 0.0000 0.0000
# 5 0.0000 0.0000 0.0000 0.0000 27.5517 0.0000
# 6 0.0000 0.0000 0.0000 0.0000 0.0000 59.0470
#
#
#
# Elastic Compliance Matrix: (Units=1/GPa)
#
#
# Indices 1 2 3 4 5 6 
#
# 1 0.016816 -0.025005 -0.005485 0.000000 0.000000 0.000000
# 2 -0.025005 0.053839 0.004387 0.000000 0.000000 0.000000
# 3 -0.005485 0.004387 0.010751 0.000000 0.000000 0.000000
# 4 0.000000 0.000000 0.000000 0.052309 0.000000 0.000000
# 5 0.000000 0.000000 0.000000 0.000000 0.036295 0.000000
# 6 0.000000 0.000000 0.000000 0.000000 0.000000 0.016936
#
#
# Mechanical properties :
#
#
# Convention : Reuss Voigt Hill
#
# Bulk Modulus (GPa) = 34.24698 96.75932 65.50315
# Shear Modulus (GPa) = 20.08954 35.71951 27.90452
#
# Velocity S-wave (km/s) = 3.05803 4.07764 3.60407
# Velocity P-wave (km/s) = 5.33014 8.19818 6.91450
#
# Compressibility (1/GPa) = 0.02919966
#
# Stress axis : x y z
#
# Youngs Moduli (GPa) = 59.46804 18.57397 93.01132
#
# Poissons Ratio (x) = 0.46444 0.51018
# Poissons Ratio (y) = 1.48699 -0.40803
# Poissons Ratio (z) = 0.32619 -0.08148
#
# Static dielectric constant tensor:
#      x y z
#    x 1.847450 0.000000 0.000000 
#    y 0.000000 1.766950 0.000000 
#    z 0.000000 0.000000 1.891950 
# 
# From -- ./inp_files/22771.got.cif
#   From: 2010.05.17/outbox.cif.g08.bks.cpg/sg66_12_cif.got.tgz:22771.got - 2010.06.03 17:51:23.
