data_PCOD9498210
_publ_section_title
;
Structure prediction by ZEFSAII (Michael W. Deem and Ramdas Pophale) SiO2 
 PCOD9498210
Probable space group: C C C M
;
_chemical_formula_sum "Si O2"
_cell_formula_units_Z 64
_cell_length_a 11.473851
_cell_length_b 14.727958
_cell_length_c 18.477508
_cell_angle_alpha 90.000000
_cell_angle_beta 90.000000
_cell_angle_gamma 90.000000
_cell_volume 3122.447477
_symmetry_space_group_name_H-M "C C C M"
_symmetry_group_IT_number 66
_symmetry_cell_setting 'orthorhombic'
loop_
_space_group_symop_operation_xyz
x,y,z
-x,-y,z
x,-y,1/2-z
-x,y,1/2-z
-x,-y,-z
x,y,-z
-x,y,1/2+z
x,-y,1/2+z
1/2+x,1/2+y,z
1/2-x,1/2-y,z
1/2+x,1/2-y,1/2-z
1/2-x,1/2+y,1/2-z
1/2-x,1/2-y,-z
1/2+x,1/2+y,-z
1/2-x,1/2+y,1/2+z
1/2+x,1/2-y,1/2+z
loop_
_atom_site_type_symbol
_atom_site_label
_atom_site_fract_x
_atom_site_fract_y
_atom_site_fract_z
Si Si1 0.016834 0.894515 0.584074
Si Si2 0.616300 0.937070 0.417980
Si Si3 0.496442 0.781829 0.835837
Si Si4 0.289116 0.879744 0.415305
O O1 0.978667 0.888667 0.500000
O O2 0.961233 0.816365 0.632821
O O3 0.152242 0.862539 0.586992
O O4 0.000000 0.000000 0.605805
O O5 0.637400 0.905259 0.500000
O O6 0.596108 0.855198 0.364699
O O7 0.500000 0.000000 0.418975
O O8 0.707731 0.013180 0.396224
O O9 0.500000 0.779446 0.750000
O O10 0.620137 0.822449 0.867442
O O11 0.326400 0.869352 0.500000
#
# Coordination Sequence:
#
# PCOD9498210 Si02
#       4
#    16  16  16  16
#     4  10  21  39  61  82 107 145 193 237 275 321
#     4   8  15  30  53  79 104 134 180 233 272 309
#     4  11  21  33  52  83 116 147 181 222 278 336
#     4   9  18  36  62  85 107 143 190 233 273 326
#
# _framework density 20.496741
#
# number of rings (size 3 to 8) (size 9 to 14) (size 15 to 20)
#    0.000    2.500    0.000    4.500    0.000    7.000 
#    0.000    8.750    0.000    6.000    0.000    0.000 
#    0.000    0.000    0.000    0.000    0.000    0.000 
#
# Total GULP energy -178303.701506 kJ/mol
# GULP energy per Si atom -5571.990672 kJ/mol
# Density = 2.045009 g / cm^3
# Si number density = 20.496741 Si / 1000 Ang^3
#
#
#
# Elastic Constant Matrix: (Units=GPa)
#
#
# Indices 1 2 3 4 5 6 
#
# 1 18.9611 2.7800 5.7332 0.0000 0.0000 0.0000
# 2 2.7800 182.1792 109.4543 0.0000 0.0000 0.0000
# 3 5.7332 109.4543 115.3284 0.0000 0.0000 0.0000
# 4 0.0000 0.0000 0.0000 -8.7078 0.0000 0.0000
# 5 0.0000 0.0000 0.0000 0.0000 1.5913 0.0000
# 6 0.0000 0.0000 0.0000 0.0000 0.0000 17.9231
#
#
#
# Elastic Compliance Matrix: (Units=1/GPa)
#
#
# Indices 1 2 3 4 5 6 
#
# 1 0.053805 0.001829 -0.004410 0.000000 0.000000 0.000000
# 2 0.001829 0.012834 -0.012271 0.000000 0.000000 0.000000
# 3 -0.004410 -0.012271 0.020536 0.000000 0.000000 0.000000
# 4 0.000000 0.000000 0.000000 -0.114840 0.000000 0.000000
# 5 0.000000 0.000000 0.000000 0.000000 0.628402 0.000000
# 6 0.000000 0.000000 0.000000 0.000000 0.000000 0.055794
#
#
# Mechanical properties :
#
#
# Convention : Reuss Voigt Hill
#
# Bulk Modulus (GPa) = 17.40048 61.37819 39.38933
# Shear Modulus (GPa) = 7.08826 15.39475 11.24151
#
# Velocity S-wave (km/s) = 1.86165 2.74356 2.34445
# Velocity P-wave (km/s) = 3.62337 6.32823 5.15632
#
# Compressibility (1/GPa) = 0.05746969
#
# Stress axis : x y z
#
# Youngs Moduli (GPa) = 18.58563 77.92063 48.69508
#
# Poissons Ratio (x) = -0.14249 0.21476
# Poissons Ratio (y) = -0.03399 0.59753
# Poissons Ratio (z) = 0.08197 0.95615
#
# Static dielectric constant tensor:
#      x y z
#    x 1.855690 0.000000 0.000000 
#    y 0.000000 1.797480 0.000000 
#    z 0.000000 0.000000 1.679380 
# 
# From -- ./inp_files/27721.got.cif
#   From: 2010.05.17/outbox.cif.g08.bks.cpg/sg66_14_cif.got.tgz:27721.got - 2010.06.03 17:51:23.
