data_PCOD9498500
_publ_section_title
;
Structure prediction by ZEFSAII (Michael W. Deem and Ramdas Pophale) SiO2 
 PCOD9498500
Probable space group: C C C M
;
_chemical_formula_sum "Si O2"
_cell_formula_units_Z 68
_cell_length_a 18.561525
_cell_length_b 7.869794
_cell_length_c 21.786956
_cell_angle_alpha 90.000000
_cell_angle_beta 90.000000
_cell_angle_gamma 90.000000
_cell_volume 3182.537835
_symmetry_space_group_name_H-M "C C C M"
_symmetry_group_IT_number 66
_symmetry_cell_setting 'orthorhombic'
loop_
_space_group_symop_operation_xyz
x,y,z
-x,-y,z
x,-y,1/2-z
-x,y,1/2-z
-x,-y,-z
x,y,-z
-x,y,1/2+z
x,-y,1/2+z
1/2+x,1/2+y,z
1/2-x,1/2-y,z
1/2+x,1/2-y,1/2-z
1/2-x,1/2+y,1/2-z
1/2-x,1/2-y,-z
1/2+x,1/2+y,-z
1/2-x,1/2+y,1/2+z
1/2+x,1/2-y,1/2+z
loop_
_atom_site_type_symbol
_atom_site_label
_atom_site_fract_x
_atom_site_fract_y
_atom_site_fract_z
Si Si1 0.000000 0.000000 0.250000
Si Si2 0.463635 0.823821 0.830710
Si Si3 0.801055 0.404345 0.184860
Si Si4 0.945062 0.844163 0.932280
Si Si5 0.283267 0.563867 0.569680
O O1 0.038120 0.142990 0.292861
O O2 0.379980 0.860476 0.840746
O O3 0.516718 0.783395 0.886800
O O4 0.500000 0.000000 0.807540
O O5 0.812453 0.500000 0.250000
O O6 0.750000 0.250000 0.203425
O O7 0.758841 0.483465 0.126740
O O8 0.867249 0.914228 0.913053
O O9 0.934728 0.768428 0.000000
O O10 0.000000 0.000000 0.936182
O O11 0.279042 0.485547 0.500000
O O12 0.250000 0.750000 0.564031
#
# Coordination Sequence:
#
# PCOD9498500 Si02
#       5
#     4  16  16  16  16
#     4  12  26  44  70  90 136 180 228 294 348 418
#     4  12  26  45  71 101 133 182 237 289 350 421
#     4  12  27  43  66 101 140 183 233 293 352 424
#     4  10  21  42  71 104 140 181 229 288 354 422
#     4  10  22  43  70 101 141 183 228 288 354 422
#
# _framework density 21.366595
#
# number of rings (size 3 to 8) (size 9 to 14) (size 15 to 20)
#    0.000    0.941    1.176    5.294    1.647    1.882 
#    0.000    0.000    0.000    0.000    0.000    0.000 
#    0.000    0.000    0.000    0.000    0.000    0.000 
#
# Total GULP energy -189349.625320 kJ/mol
# GULP energy per Si atom -5569.106627 kJ/mol
# Density = 2.131796 g / cm^3
# Si number density = 21.366595 Si / 1000 Ang^3
#
#
#
# Elastic Constant Matrix: (Units=GPa)
#
#
# Indices 1 2 3 4 5 6 
#
# 1 215.7283 46.8773 74.6144 0.0000 0.0000 0.0000
# 2 46.8773 97.8766 44.9002 0.0000 0.0000 0.0000
# 3 74.6144 44.9002 154.2276 0.0000 0.0000 0.0000
# 4 0.0000 0.0000 0.0000 -33.1503 0.0000 0.0000
# 5 0.0000 0.0000 0.0000 0.0000 33.2290 0.0000
# 6 0.0000 0.0000 0.0000 0.0000 0.0000 24.7224
#
#
#
# Elastic Compliance Matrix: (Units=1/GPa)
#
#
# Indices 1 2 3 4 5 6 
#
# 1 0.005808 -0.001723 -0.002308 0.000000 0.000000 0.000000
# 2 -0.001723 0.012303 -0.002748 0.000000 0.000000 0.000000
# 3 -0.002308 -0.002748 0.008401 0.000000 0.000000 0.000000
# 4 0.000000 0.000000 0.000000 -0.030166 0.000000 0.000000
# 5 0.000000 0.000000 0.000000 0.000000 0.030094 0.000000
# 6 0.000000 0.000000 0.000000 0.000000 0.000000 0.040449
#
#
# Mechanical properties :
#
#
# Convention : Reuss Voigt Hill
#
# Bulk Modulus (GPa) = 77.20271 88.95738 83.08004
# Shear Modulus (GPa) = 58.98574 25.05625 42.02099
#
# Velocity S-wave (km/s) = 5.25989 3.42816 4.43952
# Velocity P-wave (km/s) = 8.54982 7.57588 8.07754
#
# Compressibility (1/GPa) = 0.01295291
#
# Stress axis : x y z
#
# Youngs Moduli (GPa) = 172.16878 81.28217 119.03613
#
# Poissons Ratio (x) = 0.14004 0.27479
# Poissons Ratio (y) = 0.29662 0.32714
# Poissons Ratio (z) = 0.39744 0.22338
#
# Static dielectric constant tensor:
#      x y z
#    x 1.645130 0.000000 0.000000 
#    y 0.000000 1.791830 0.000000 
#    z 0.000000 0.000000 1.910740 
# 
# From -- ./inp_files/50624.got.cif
#   From: 2010.05.17/outbox.cif.g08.bks.cpg/sg66_26_cif.got.tgz:50624.got - 2010.06.03 17:51:23.
