data_PCOD9498941
_publ_section_title
;
Structure prediction by ZEFSAII (Michael W. Deem and Ramdas Pophale) SiO2 
 PCOD9498941
Probable space group: C C C M
;
_chemical_formula_sum "Si O2"
_cell_formula_units_Z 80
_cell_length_a 20.422431
_cell_length_b 18.468094
_cell_length_c 10.668137
_cell_angle_alpha 90.000000
_cell_angle_beta 90.000000
_cell_angle_gamma 90.000000
_cell_volume 4023.630560
_symmetry_space_group_name_H-M "C C C M"
_symmetry_group_IT_number 66
_symmetry_cell_setting 'orthorhombic'
loop_
_space_group_symop_operation_xyz
x,y,z
-x,-y,z
x,-y,1/2-z
-x,y,1/2-z
-x,-y,-z
x,y,-z
-x,y,1/2+z
x,-y,1/2+z
1/2+x,1/2+y,z
1/2-x,1/2-y,z
1/2+x,1/2-y,1/2-z
1/2-x,1/2+y,1/2-z
1/2-x,1/2-y,-z
1/2+x,1/2+y,-z
1/2-x,1/2+y,1/2+z
1/2+x,1/2-y,1/2+z
loop_
_atom_site_type_symbol
_atom_site_label
_atom_site_fract_x
_atom_site_fract_y
_atom_site_fract_z
Si Si1 0.151684 0.820100 0.500000
Si Si2 0.865012 0.415036 0.239039
Si Si3 0.072159 0.967238 0.500000
Si Si4 0.730276 0.330171 0.761212
Si Si5 0.460908 0.920152 0.000000
Si Si6 0.590332 0.158381 0.500000
Si Si7 0.317677 0.459847 0.367539
O O1 0.095231 0.882829 0.500000
O O2 0.198911 0.828925 0.621543
O O3 0.119010 0.740147 0.500000
O O4 0.855667 0.500000 0.250000
O O5 0.796460 0.375223 0.217147
O O6 0.916691 0.409960 0.124440
O O7 0.887646 0.381561 0.372129
O O8 0.112011 0.003551 0.386137
O O9 0.000000 0.000000 0.500000
O O10 0.750000 0.250000 0.797306
O O11 0.678580 0.374884 0.843364
O O12 0.500000 0.000000 0.000000
O O13 0.512942 0.854915 0.000000
O O14 0.287556 0.500000 0.250000
O O15 0.282532 0.474583 0.500000
#
# Coordination Sequence:
#
# PCOD9498941 Si02
#       7
#     8  16   8  16   8   8  16
#     4  12  24  49  72 106 144 193 240 307 354 450
#     4  12  25  43  76 105 138 193 237 298 359 428
#     4  10  24  47  73 100 138 188 238 287 355 419
#     4  12  24  44  69 104 146 183 241 300 373 418
#     4  12  26  47  69 103 151 184 237 297 356 438
#     4  12  25  48  73 104 141 196 244 285 360 439
#     4  10  22  44  70 100 136 178 235 296 349 426
#
# _framework density 19.882541
#
# number of rings (size 3 to 8) (size 9 to 14) (size 15 to 20)
#    0.600    0.000    6.000    2.100    1.400    0.800 
#    7.200    0.000    0.000    0.000    0.000    0.000 
#    0.000    0.000    0.000    0.000    0.000    0.000 
#
# Total GULP energy -222795.512051 kJ/mol
# GULP energy per Si atom -5569.887801 kJ/mol
# Density = 1.983729 g / cm^3
# Si number density = 19.882541 Si / 1000 Ang^3
#
#
#
# Elastic Constant Matrix: (Units=GPa)
#
#
# Indices 1 2 3 4 5 6 
#
# 1 101.5121 69.0149 37.8488 0.0000 0.0000 0.0000
# 2 69.0149 187.6055 63.4425 0.0000 0.0000 0.0000
# 3 37.8488 63.4425 146.8059 0.0000 0.0000 0.0000
# 4 0.0000 0.0000 0.0000 30.8872 0.0000 0.0000
# 5 0.0000 0.0000 0.0000 0.0000 -30.4397 0.0000
# 6 0.0000 0.0000 0.0000 0.0000 0.0000 30.7576
#
#
#
# Elastic Compliance Matrix: (Units=1/GPa)
#
#
# Indices 1 2 3 4 5 6 
#
# 1 0.013433 -0.004416 -0.001555 0.000000 0.000000 0.000000
# 2 -0.004416 0.007694 -0.002187 0.000000 0.000000 0.000000
# 3 -0.001555 -0.002187 0.008158 0.000000 0.000000 0.000000
# 4 0.000000 0.000000 0.000000 0.032376 0.000000 0.000000
# 5 0.000000 0.000000 0.000000 0.000000 -0.032852 0.000000
# 6 0.000000 0.000000 0.000000 0.000000 0.000000 0.032512
#
#
# Mechanical properties :
#
#
# Convention : Reuss Voigt Hill
#
# Bulk Modulus (GPa) = 77.10059 86.28175 81.69117
# Shear Modulus (GPa) = 61.00607 23.94885 42.47746
#
# Velocity S-wave (km/s) = 5.54525 3.47438 4.62716
# Velocity P-wave (km/s) = 8.93656 7.71913 8.35006
#
# Compressibility (1/GPa) = 0.01297007
#
# Stress axis : x y z
#
# Youngs Moduli (GPa) = 74.44376 129.96753 122.58584
#
# Poissons Ratio (x) = 0.57391 0.19061
# Poissons Ratio (y) = 0.32873 0.26805
# Poissons Ratio (z) = 0.11575 0.28419
#
# Static dielectric constant tensor:
#      x y z
#    x 1.763960 0.000000 0.000000 
#    y 0.000000 1.684450 0.000000 
#    z 0.000000 0.000000 1.925240 
# 
# From -- ./inp_files/18756.got.cif
#   From: 2010.05.17/outbox.cif.g08.bks.cpg/sg66_10_cif.got.tgz:18756.got - 2010.06.03 17:51:23.
