data_PCOD9498731
_publ_section_title
;
Structure prediction by ZEFSAII (Michael W. Deem and Ramdas Pophale) SiO2 
 PCOD9498731
Probable space group: C C C M
;
_chemical_formula_sum "Si O2"
_cell_formula_units_Z 64
_cell_length_a 7.286376
_cell_length_b 17.393280
_cell_length_c 25.070793
_cell_angle_alpha 90.000000
_cell_angle_beta 90.000000
_cell_angle_gamma 90.000000
_cell_volume 3177.321327
_symmetry_space_group_name_H-M "C C C M"
_symmetry_group_IT_number 66
_symmetry_cell_setting 'orthorhombic'
loop_
_space_group_symop_operation_xyz
x,y,z
-x,-y,z
x,-y,1/2-z
-x,y,1/2-z
-x,-y,-z
x,y,-z
-x,y,1/2+z
x,-y,1/2+z
1/2+x,1/2+y,z
1/2-x,1/2-y,z
1/2+x,1/2-y,1/2-z
1/2-x,1/2+y,1/2-z
1/2-x,1/2-y,-z
1/2+x,1/2+y,-z
1/2-x,1/2+y,1/2+z
1/2+x,1/2-y,1/2+z
loop_
_atom_site_type_symbol
_atom_site_label
_atom_site_fract_x
_atom_site_fract_y
_atom_site_fract_z
Si Si1 0.963868 0.756795 0.688592
Si Si2 0.641496 0.933877 0.560469
Si Si3 0.000479 0.085692 0.866997
Si Si4 0.161068 0.673161 0.407940
O O1 0.750000 0.750000 0.676229
O O2 0.003117 0.845954 0.675695
O O3 0.000000 0.738166 0.750000
O O4 0.080187 0.702148 0.649352
O O5 0.695714 0.954494 0.500000
O O6 0.818823 0.916144 0.596080
O O7 0.511375 0.859481 0.561012
O O8 0.500000 0.000000 0.580907
O O9 0.180645 0.108763 0.901424
O O10 0.000000 0.000000 0.843650
O O11 0.250000 0.750000 0.431737
#
# Coordination Sequence:
#
# PCOD9498731 Si02
#       4
#    16  16  16  16
#     4  11  22  41  65  91 125 164 205 254 318 376
#     4  11  23  40  64  93 127 169 211 258 318 372
#     4  11  22  39  64  90 129 163 208 261 306 368
#     4  10  22  40  62  92 126 162 206 261 309 368
#
# _framework density 20.142754
#
# number of rings (size 3 to 8) (size 9 to 14) (size 15 to 20)
#    0.000    1.250    5.000    2.250    0.000    2.500 
#    0.000    8.750    0.000    0.750    0.000    0.000 
#    0.000    0.000    0.000    0.000    0.000    0.000 
#
# Total GULP energy -178456.107012 kJ/mol
# GULP energy per Si atom -5576.753344 kJ/mol
# Density = 2.009691 g / cm^3
# Si number density = 20.142754 Si / 1000 Ang^3
#
#
#
# Elastic Constant Matrix: (Units=GPa)
#
#
# Indices 1 2 3 4 5 6 
#
# 1 130.1485 27.0397 25.0728 0.0000 0.0000 0.0000
# 2 27.0397 87.1360 10.6894 0.0000 0.0000 0.0000
# 3 25.0728 10.6894 67.3865 0.0000 0.0000 0.0000
# 4 0.0000 0.0000 0.0000 23.9753 0.0000 0.0000
# 5 0.0000 0.0000 0.0000 0.0000 11.0021 0.0000
# 6 0.0000 0.0000 0.0000 0.0000 0.0000 40.0970
#
#
#
# Elastic Compliance Matrix: (Units=1/GPa)
#
#
# Indices 1 2 3 4 5 6 
#
# 1 0.008726 -0.002355 -0.002873 0.000000 0.000000 0.000000
# 2 -0.002355 0.012340 -0.001081 0.000000 0.000000 0.000000
# 3 -0.002873 -0.001081 0.016080 0.000000 0.000000 0.000000
# 4 0.000000 0.000000 0.000000 0.041710 0.000000 0.000000
# 5 0.000000 0.000000 0.000000 0.000000 0.090892 0.000000
# 6 0.000000 0.000000 0.000000 0.000000 0.000000 0.024940
#
#
# Mechanical properties :
#
#
# Convention : Reuss Voigt Hill
#
# Bulk Modulus (GPa) = 40.77122 45.58609 43.17866
# Shear Modulus (GPa) = 23.20370 29.80614 26.50492
#
# Velocity S-wave (km/s) = 3.39774 3.85092 3.63141
# Velocity P-wave (km/s) = 5.97310 6.51563 6.25025
#
# Compressibility (1/GPa) = 0.02452710
#
# Stress axis : x y z
#
# Youngs Moduli (GPa) = 114.59439 81.03816 62.18789
#
# Poissons Ratio (x) = 0.19088 0.17868
# Poissons Ratio (y) = 0.26992 0.06723
# Poissons Ratio (z) = 0.32926 0.08760
#
# Static dielectric constant tensor:
#      x y z
#    x 1.735810 0.000000 0.000000 
#    y 0.000000 1.749340 0.000000 
#    z 0.000000 0.000000 1.690960 
# 
# From -- ./inp_files/54972.got.cif
#   From: 2010.05.17/outbox.cif.g08.bks.cpg/sg66_28_cif.got.tgz:54972.got - 2010.06.03 17:51:23.
