data_PCOD9498965
_publ_section_title
;
Structure prediction by ZEFSAII (Michael W. Deem and Ramdas Pophale) SiO2 
 PCOD9498965
Probable space group: C C C M
;
_chemical_formula_sum "Si O2"
_cell_formula_units_Z 96
_cell_length_a 14.603482
_cell_length_b 14.844790
_cell_length_c 22.852550
_cell_angle_alpha 90.000000
_cell_angle_beta 90.000000
_cell_angle_gamma 90.000000
_cell_volume 4954.104302
_symmetry_space_group_name_H-M "C C C M"
_symmetry_group_IT_number 66
_symmetry_cell_setting 'orthorhombic'
loop_
_space_group_symop_operation_xyz
x,y,z
-x,-y,z
x,-y,1/2-z
-x,y,1/2-z
-x,-y,-z
x,y,-z
-x,y,1/2+z
x,-y,1/2+z
1/2+x,1/2+y,z
1/2-x,1/2-y,z
1/2+x,1/2-y,1/2-z
1/2-x,1/2+y,1/2-z
1/2-x,1/2-y,-z
1/2+x,1/2+y,-z
1/2-x,1/2+y,1/2+z
1/2+x,1/2-y,1/2+z
loop_
_atom_site_type_symbol
_atom_site_label
_atom_site_fract_x
_atom_site_fract_y
_atom_site_fract_z
Si Si1 0.397912 0.468042 0.816173
Si Si2 0.087782 0.622476 0.619385
Si Si3 0.427201 0.869899 0.200548
Si Si4 0.855872 0.765133 0.216851
Si Si5 0.297569 0.848438 0.000000
Si Si6 0.009719 0.388100 0.000000
Si Si7 0.778331 0.546988 0.375606
O O1 0.500000 0.500000 0.832974
O O2 0.381944 0.500000 0.750000
O O3 0.384233 0.360928 0.808891
O O4 0.321678 0.512843 0.857125
O O5 0.124833 0.694051 0.665261
O O6 0.156131 0.539291 0.617383
O O7 0.984970 0.607963 0.643224
O O8 0.067800 0.647657 0.553972
O O9 0.500000 0.905720 0.250000
O O10 0.409168 0.769122 0.224947
O O11 0.327088 0.905423 0.181326
O O12 0.750000 0.750000 0.230543
O O13 0.250000 0.750000 0.000000
O O14 0.274825 0.898399 0.062618
O O15 0.408040 0.848142 0.000000
O O16 0.000000 0.500000 0.000000
#
# Coordination Sequence:
#
# PCOD9498965 Si02
#       7
#    16  16  16  16   8   8  16
#     4  11  27  44  68  93 139 194 233 279 361 429
#     4  11  22  38  72  98 135 174 231 287 354 422
#     4  10  23  36  68 101 139 166 224 286 363 418
#     4  11  23  43  61 101 137 182 234 284 343 430
#     4  12  28  44  70 106 144 187 240 292 374 435
#     4  12  20  44  68  99 138 179 223 294 365 422
#     4  12  23  46  69 103 142 184 233 300 360 425
#
# _framework density 19.377873000000001
#
# number of rings (size 3 to 8) (size 9 to 14) (size 15 to 20)
#    0.000    0.833    5.000    1.500    9.333    5.333 
#    0.000    1.667    0.000    0.000    0.000    0.000 
#    0.000    0.000    0.000    0.000    0.000    0.000 
#
# Total GULP energy -267203.663716 kJ/mol
# GULP energy per Si atom -5566.742994 kJ/mol
# Density = 1.933377 g / cm^3
# Si number density = 19.377873 Si / 1000 Ang^3
#
#
#
# Elastic Constant Matrix: (Units=GPa)
#
#
# Indices 1 2 3 4 5 6 
#
# 1 142.0827 61.2688 39.5847 0.0000 0.0000 0.0000
# 2 61.2688 118.4940 32.7712 0.0000 0.0000 0.0000
# 3 39.5847 32.7712 107.7459 0.0000 0.0000 0.0000
# 4 0.0000 0.0000 0.0000 23.2862 0.0000 0.0000
# 5 0.0000 0.0000 0.0000 0.0000 32.9504 0.0000
# 6 0.0000 0.0000 0.0000 0.0000 0.0000 34.8658
#
#
#
# Elastic Compliance Matrix: (Units=1/GPa)
#
#
# Indices 1 2 3 4 5 6 
#
# 1 0.009505 -0.004312 -0.002181 0.000000 0.000000 0.000000
# 2 -0.004312 0.011170 -0.001813 0.000000 0.000000 0.000000
# 3 -0.002181 -0.001813 0.010634 0.000000 0.000000 0.000000
# 4 0.000000 0.000000 0.000000 0.042944 0.000000 0.000000
# 5 0.000000 0.000000 0.000000 0.000000 0.030349 0.000000
# 6 0.000000 0.000000 0.000000 0.000000 0.000000 0.028681
#
#
# Mechanical properties :
#
#
# Convention : Reuss Voigt Hill
#
# Bulk Modulus (GPa) = 68.03815 70.61913 69.32864
# Shear Modulus (GPa) = 32.30116 33.86699 33.08407
#
# Velocity S-wave (km/s) = 4.08721 4.18510 4.13645
# Velocity P-wave (km/s) = 7.58032 7.73794 7.65953
#
# Compressibility (1/GPa) = 0.01469764
#
# Stress axis : x y z
#
# Youngs Moduli (GPa) = 105.20884 89.52471 94.03988
#
# Poissons Ratio (x) = 0.38599 0.20507
# Poissons Ratio (y) = 0.45361 0.17053
# Poissons Ratio (z) = 0.22942 0.16234
#
# Static dielectric constant tensor:
#      x y z
#    x 1.659240 0.000000 0.000000 
#    y 0.000000 1.724940 0.000000 
#    z 0.000000 0.000000 2.373350 
# 
# From -- ./inp_files/58171.got.cif
#   From: 2010.05.17/outbox.cif.g08.bks.cpg/sg66_30_cif.got.tgz:58171.got - 2010.06.03 17:51:23.
