data_PCOD9498343
_publ_section_title
;
Structure prediction by ZEFSAII (Michael W. Deem and Ramdas Pophale) SiO2 
 PCOD9498343
Probable space group: C C C M
;
_chemical_formula_sum "Si O2"
_cell_formula_units_Z 80
_cell_length_a 11.135924
_cell_length_b 23.001280
_cell_length_c 15.599926
_cell_angle_alpha 90.000000
_cell_angle_beta 90.000000
_cell_angle_gamma 90.000000
_cell_volume 3995.772939
_symmetry_space_group_name_H-M "C C C M"
_symmetry_group_IT_number 66
_symmetry_cell_setting 'orthorhombic'
loop_
_space_group_symop_operation_xyz
x,y,z
-x,-y,z
x,-y,1/2-z
-x,y,1/2-z
-x,-y,-z
x,y,-z
-x,y,1/2+z
x,-y,1/2+z
1/2+x,1/2+y,z
1/2-x,1/2-y,z
1/2+x,1/2-y,1/2-z
1/2-x,1/2+y,1/2-z
1/2-x,1/2-y,-z
1/2+x,1/2+y,-z
1/2-x,1/2+y,1/2+z
1/2+x,1/2-y,1/2+z
loop_
_atom_site_type_symbol
_atom_site_label
_atom_site_fract_x
_atom_site_fract_y
_atom_site_fract_z
Si Si1 0.015047 0.085548 0.598011
Si Si2 0.571747 0.296511 0.339747
Si Si3 0.192004 0.995116 0.345779
Si Si4 0.071393 0.553275 0.596392
Si Si5 0.337633 0.174626 0.896819
O O1 0.988650 0.070424 0.500000
O O2 0.001858 0.153802 0.610673
O O3 0.140455 0.056576 0.623342
O O4 0.916698 0.051280 0.654132
O O5 0.500000 0.291456 0.250000
O O6 0.586841 0.233196 0.381663
O O7 0.711224 0.319541 0.345251
O O8 0.239866 0.000000 0.250000
O O9 0.293286 0.970059 0.405969
O O10 0.021070 0.560457 0.500000
O O11 0.087495 0.618080 0.632277
O O12 0.000000 0.500000 0.638801
O O13 0.310575 0.169286 0.000000
#
# Coordination Sequence:
#
# PCOD9498343 Si02
#       5
#    16  16  16  16  16
#     4  11  20  34  58  86 120 157 196 243 303 364
#     4  11  21  36  60  91 120 151 199 260 310 352
#     4  11  21  34  54  88 124 154 191 246 308 354
#     4  10  21  40  63  85 116 160 207 246 289 360
#     4  10  21  41  66  89 120 164 210 246 300 384
#
# _framework density 20.021156999999999
#
# number of rings (size 3 to 8) (size 9 to 14) (size 15 to 20)
#    0.000    1.400    2.000    7.200    0.000    0.400 
#    3.600    0.000    0.000    0.000    0.000   25.200 
#    0.000    0.000    0.000    0.000    0.000    0.000 
#
# Total GULP energy -222911.832278 kJ/mol
# GULP energy per Si atom -5572.795807 kJ/mol
# Density = 1.997559 g / cm^3
# Si number density = 20.021157 Si / 1000 Ang^3
#
#
#
# Elastic Constant Matrix: (Units=GPa)
#
#
# Indices 1 2 3 4 5 6 
#
# 1 31.0351 45.4491 5.9143 0.0000 0.0000 0.0000
# 2 45.4491 191.8736 10.7966 0.0000 0.0000 0.0000
# 3 5.9143 10.7966 79.0229 0.0000 0.0000 0.0000
# 4 0.0000 0.0000 0.0000 -0.3071 0.0000 0.0000
# 5 0.0000 0.0000 0.0000 0.0000 25.9893 0.0000
# 6 0.0000 0.0000 0.0000 0.0000 0.0000 38.0276
#
#
#
# Elastic Compliance Matrix: (Units=1/GPa)
#
#
# Indices 1 2 3 4 5 6 
#
# 1 0.049687 -0.011650 -0.002127 0.000000 0.000000 0.000000
# 2 -0.011650 0.007984 -0.000219 0.000000 0.000000 0.000000
# 3 -0.002127 -0.000219 0.012844 0.000000 0.000000 0.000000
# 4 0.000000 0.000000 0.000000 -3.255935 0.000000 0.000000
# 5 0.000000 0.000000 0.000000 0.000000 0.038477 0.000000
# 6 0.000000 0.000000 0.000000 0.000000 0.000000 0.026297
#
#
# Mechanical properties :
#
#
# Convention : Reuss Voigt Hill
#
# Bulk Modulus (GPa) = 23.51664 47.36130 35.43897
# Shear Modulus (GPa) = -1.62418 28.72674 13.55128
#
# Velocity S-wave (km/s) = -0.90166 3.79201 2.60445
# Velocity P-wave (km/s) = 3.26916 6.54824 5.17527
#
# Compressibility (1/GPa) = 0.04252308
#
# Stress axis : x y z
#
# Youngs Moduli (GPa) = 20.12592 125.25766 77.85942
#
# Poissons Ratio (x) = 1.45921 0.16561
# Poissons Ratio (y) = 0.23446 0.01704
# Poissons Ratio (z) = 0.04281 0.02741
#
# Static dielectric constant tensor:
#      x y z
#    x 1.728240 0.000000 0.000000 
#    y 0.000000 1.739360 0.000000 
#    z 0.000000 0.000000 1.746440 
# 
# From -- ./inp_files/26388.got.cif
#   From: 2010.05.17/outbox.cif.g08.bks.cpg/sg66_14_cif.got.tgz:26388.got - 2010.06.03 17:51:23.
