data_PCOD9498424
_publ_section_title
;
Structure prediction by ZEFSAII (Michael W. Deem and Ramdas Pophale) SiO2 
 PCOD9498424
Probable space group: C C C M
;
_chemical_formula_sum "Si O2"
_cell_formula_units_Z 72
_cell_length_a 14.825897
_cell_length_b 24.975217
_cell_length_c 10.466593
_cell_angle_alpha 90.000000
_cell_angle_beta 90.000000
_cell_angle_gamma 90.000000
_cell_volume 3875.570002
_symmetry_space_group_name_H-M "C C C M"
_symmetry_group_IT_number 66
_symmetry_cell_setting 'orthorhombic'
loop_
_space_group_symop_operation_xyz
x,y,z
-x,-y,z
x,-y,1/2-z
-x,y,1/2-z
-x,-y,-z
x,y,-z
-x,y,1/2+z
x,-y,1/2+z
1/2+x,1/2+y,z
1/2-x,1/2-y,z
1/2+x,1/2-y,1/2-z
1/2-x,1/2+y,1/2-z
1/2-x,1/2-y,-z
1/2+x,1/2+y,-z
1/2-x,1/2+y,1/2+z
1/2+x,1/2-y,1/2+z
loop_
_atom_site_type_symbol
_atom_site_label
_atom_site_fract_x
_atom_site_fract_y
_atom_site_fract_z
Si Si1 0.264618 0.388613 0.500000
Si Si2 0.083414 0.320800 0.500000
Si Si3 0.424003 0.695911 0.000000
Si Si4 0.165977 0.938897 0.257109
Si Si5 0.000000 0.141717 0.250000
Si Si6 0.500000 0.131494 0.750000
Si Si7 0.856208 0.453024 0.645563
O O1 0.167284 0.361835 0.500000
O O2 0.334591 0.339867 0.500000
O O3 0.286867 0.423926 0.377054
O O4 0.102821 0.257796 0.500000
O O5 0.030545 0.333785 0.629614
O O6 0.477891 0.677830 0.126834
O O7 0.250561 0.937004 0.352718
O O8 0.085370 0.897164 0.278405
O O9 0.131723 0.000000 0.250000
O O10 0.580603 0.094274 0.697088
O O11 0.866499 0.500000 0.750000
O O12 0.881688 0.468213 0.500000
#
# Coordination Sequence:
#
# PCOD9498424 Si02
#       7
#     8   8   8  16   8   8  16
#     4  10  21  41  61  89 119 165 204 247 299 363
#     4  12  23  42  61  88 118 161 211 264 294 358
#     4  10  23  41  65  86 116 161 209 256 311 347
#     4  10  22  36  64  91 128 158 196 242 308 373
#     4  10  22  42  62  92 120 158 202 256 308 364
#     4  12  24  38  64  86 124 156 204 252 304 352
#     4  11  25  39  60  90 125 165 198 240 303 365
#
# _framework density 18.577912000000001
#
# number of rings (size 3 to 8) (size 9 to 14) (size 15 to 20)
#    0.000    1.333    3.333    1.667    9.333    0.889 
#    0.000    3.333    0.000    1.333    0.000    0.000 
#    0.000    0.000    0.000    0.000    0.000    0.000 
#
# Total GULP energy -201028.383710 kJ/mol
# GULP energy per Si atom -5584.121770 kJ/mol
# Density = 1.853563 g / cm^3
# Si number density = 18.577912 Si / 1000 Ang^3
#
#
#
# Elastic Constant Matrix: (Units=GPa)
#
#
# Indices 1 2 3 4 5 6 
#
# 1 34.7898 4.9227 12.4588 0.0000 0.0000 0.0000
# 2 4.9227 93.2848 38.9588 0.0000 0.0000 0.0000
# 3 12.4588 38.9588 145.8845 0.0000 0.0000 0.0000
# 4 0.0000 0.0000 0.0000 17.9670 0.0000 0.0000
# 5 0.0000 0.0000 0.0000 0.0000 26.2011 0.0000
# 6 0.0000 0.0000 0.0000 0.0000 0.0000 10.4476
#
#
#
# Elastic Compliance Matrix: (Units=1/GPa)
#
#
# Indices 1 2 3 4 5 6 
#
# 1 0.029678 -0.000571 -0.002382 0.000000 0.000000 0.000000
# 2 -0.000571 0.012077 -0.003176 0.000000 0.000000 0.000000
# 3 -0.002382 -0.003176 0.007906 0.000000 0.000000 0.000000
# 4 0.000000 0.000000 0.000000 0.055658 0.000000 0.000000
# 5 0.000000 0.000000 0.000000 0.000000 0.038166 0.000000
# 6 0.000000 0.000000 0.000000 0.000000 0.000000 0.095716
#
#
# Mechanical properties :
#
#
# Convention : Reuss Voigt Hill
#
# Bulk Modulus (GPa) = 26.73674 42.95995 34.84835
# Shear Modulus (GPa) = 18.94463 25.43105 22.18784
#
# Velocity S-wave (km/s) = 3.19680 3.70386 3.45963
# Velocity P-wave (km/s) = 5.29613 6.43940 5.89554
#
# Compressibility (1/GPa) = 0.03740171
#
# Stress axis : x y z
#
# Youngs Moduli (GPa) = 33.69505 82.80533 126.47997
#
# Poissons Ratio (x) = 0.04731 0.30127
# Poissons Ratio (y) = 0.01925 0.40173
# Poissons Ratio (z) = 0.08026 0.26301
#
# Static dielectric constant tensor:
#      x y z
#    x 1.644690 0.000000 0.000000 
#    y 0.000000 1.626700 0.000000 
#    z 0.000000 0.000000 1.642800 
# 
# From -- ./inp_files/5425.got.cif
#   From: 2010.05.17/outbox.cif.g08.bks.cpg/sg66_3_cif.got.tgz:5425.got - 2010.06.03 17:51:23.
