data_PCOD9498991
_publ_section_title
;
Structure prediction by ZEFSAII (Michael W. Deem and Ramdas Pophale) SiO2 
 PCOD9498991
Probable space group: C C C M
;
_chemical_formula_sum "Si O2"
_cell_formula_units_Z 80
_cell_length_a 21.143657
_cell_length_b 5.493007
_cell_length_c 34.905998
_cell_angle_alpha 90.000000
_cell_angle_beta 90.000000
_cell_angle_gamma 90.000000
_cell_volume 4054.061352
_symmetry_space_group_name_H-M "C C C M"
_symmetry_group_IT_number 66
_symmetry_cell_setting 'orthorhombic'
loop_
_space_group_symop_operation_xyz
x,y,z
-x,-y,z
x,-y,1/2-z
-x,y,1/2-z
-x,-y,-z
x,y,-z
-x,y,1/2+z
x,-y,1/2+z
1/2+x,1/2+y,z
1/2-x,1/2-y,z
1/2+x,1/2-y,1/2-z
1/2-x,1/2+y,1/2-z
1/2-x,1/2-y,-z
1/2+x,1/2+y,-z
1/2-x,1/2+y,1/2+z
1/2+x,1/2-y,1/2+z
loop_
_atom_site_type_symbol
_atom_site_label
_atom_site_fract_x
_atom_site_fract_y
_atom_site_fract_z
Si Si1 0.207928 0.497989 0.415197
Si Si2 0.709467 0.998307 0.000000
Si Si3 0.575667 0.862601 0.211234
Si Si4 0.500000 0.500000 0.662566
Si Si5 0.373598 0.236103 0.350112
Si Si6 0.200250 0.062290 0.207635
O O1 0.250000 0.250000 0.415086
O O2 0.177903 0.512019 0.458069
O O3 0.155099 0.426282 0.384168
O O4 0.250000 0.750000 0.409101
O O5 0.750000 0.250000 0.000000
O O6 0.750000 0.750000 0.000000
O O7 0.520601 0.713560 0.191234
O O8 0.633732 0.682059 0.218338
O O9 0.562888 0.000000 0.250000
O O10 0.600656 0.048753 0.180404
O O11 0.565099 0.587490 0.641160
O O12 0.318760 0.375829 0.326001
O O13 0.250000 0.250000 0.190293
O O14 0.227971 0.000000 0.250000
#
# Coordination Sequence:
#
# PCOD9498991 Si02
#       6
#    16   8  16   8  16  16
#     4  10  23  39  67 100 133 166 203 256 323 396
#     4   8  16  38  62  95 133 165 199 244 311 393
#     4  11  23  42  59  81 111 163 220 273 318 370
#     4  10  26  43  60  83 116 162 222 279 318 370
#     4  11  25  40  60  87 121 166 213 263 317 377
#     4  11  24  39  56  83 123 166 209 259 324 389
#
# _framework density 19.733298999999999
#
# number of rings (size 3 to 8) (size 9 to 14) (size 15 to 20)
#    0.000    1.600    2.000    1.200    8.400    2.400 
#    0.000    0.000    0.000    0.600    0.000    2.800 
#    0.000    0.000    0.000    0.000    0.000    0.000 
#
# Total GULP energy -222872.624802 kJ/mol
# GULP energy per Si atom -5571.815620 kJ/mol
# Density = 1.968839 g / cm^3
# Si number density = 19.733299 Si / 1000 Ang^3
#
#
#
# Elastic Constant Matrix: (Units=GPa)
#
#
# Indices 1 2 3 4 5 6 
#
# 1 87.4482 47.0043 62.8944 0.0000 0.0000 0.0000
# 2 47.0043 117.9789 52.8945 0.0000 0.0000 0.0000
# 3 62.8944 52.8945 163.9287 0.0000 0.0000 0.0000
# 4 0.0000 0.0000 0.0000 25.2405 0.0000 0.0000
# 5 0.0000 0.0000 0.0000 0.0000 -18.4189 0.0000
# 6 0.0000 0.0000 0.0000 0.0000 0.0000 38.2322
#
#
#
# Elastic Compliance Matrix: (Units=1/GPa)
#
#
# Indices 1 2 3 4 5 6 
#
# 1 0.017779 -0.004706 -0.005303 0.000000 0.000000 0.000000
# 2 -0.004706 0.011155 -0.001794 0.000000 0.000000 0.000000
# 3 -0.005303 -0.001794 0.008714 0.000000 0.000000 0.000000
# 4 0.000000 0.000000 0.000000 0.039619 0.000000 0.000000
# 5 0.000000 0.000000 0.000000 0.000000 -0.054292 0.000000
# 6 0.000000 0.000000 0.000000 0.000000 0.000000 0.026156
#
#
# Mechanical properties :
#
#
# Convention : Reuss Voigt Hill
#
# Bulk Modulus (GPa) = 71.21267 77.21580 74.21424
# Shear Modulus (GPa) = 64.58641 22.78161 43.68401
#
# Velocity S-wave (km/s) = 5.72719 3.40144 4.71012
# Velocity P-wave (km/s) = 8.93869 7.39196 8.20187
#
# Compressibility (1/GPa) = 0.01404245
#
# Stress axis : x y z
#
# Youngs Moduli (GPa) = 56.24765 89.64390 114.76401
#
# Poissons Ratio (x) = 0.42185 0.60855
# Poissons Ratio (y) = 0.26469 0.20588
# Poissons Ratio (z) = 0.29826 0.16082
#
# Static dielectric constant tensor:
#      x y z
#    x 1.765440 0.000000 0.000000 
#    y 0.000000 1.786710 0.000000 
#    z 0.000000 0.000000 1.703930 
# 
# From -- ./inp_files/70341.got.cif
#   From: 2010.05.17/outbox.cif.g08.bks.cpg/sg66_36_cif.got.tgz:70341.got - 2010.06.03 17:51:23.
