data_PCOD9498039
_publ_section_title
;
Structure prediction by ZEFSAII (Michael W. Deem and Ramdas Pophale) SiO2 
 PCOD9498039
Probable space group: C C C M
;
_chemical_formula_sum "Si O2"
_cell_formula_units_Z 116
_cell_length_a 15.406479
_cell_length_b 12.054114
_cell_length_c 33.103837
_cell_angle_alpha 90.000000
_cell_angle_beta 90.000000
_cell_angle_gamma 90.000000
_cell_volume 6147.761709
_symmetry_space_group_name_H-M "C C C M"
_symmetry_group_IT_number 66
_symmetry_cell_setting 'orthorhombic'
loop_
_space_group_symop_operation_xyz
x,y,z
-x,-y,z
x,-y,1/2-z
-x,y,1/2-z
-x,-y,-z
x,y,-z
-x,y,1/2+z
x,-y,1/2+z
1/2+x,1/2+y,z
1/2-x,1/2-y,z
1/2+x,1/2-y,1/2-z
1/2-x,1/2+y,1/2-z
1/2-x,1/2-y,-z
1/2+x,1/2+y,-z
1/2-x,1/2+y,1/2+z
1/2+x,1/2-y,1/2+z
loop_
_atom_site_type_symbol
_atom_site_label
_atom_site_fract_x
_atom_site_fract_y
_atom_site_fract_z
Si Si1 0.578170 0.421079 0.930256
Si Si2 0.649421 0.280299 0.695326
Si Si3 0.500000 0.000000 0.000000
Si Si4 0.902875 0.009757 0.162914
Si Si5 0.232260 0.382112 0.544218
Si Si6 0.552299 0.842733 0.573394
Si Si7 0.850967 0.780803 0.289060
Si Si8 0.495107 0.870989 0.833617
O O1 0.500000 0.500000 0.945691
O O2 0.589447 0.450262 0.883069
O O3 0.674808 0.437428 0.948216
O O4 0.556482 0.290321 0.934480
O O5 0.750000 0.250000 0.694268
O O6 0.638218 0.390555 0.668958
O O7 0.624071 0.296477 0.742272
O O8 0.584289 0.188444 0.678545
O O9 0.505531 0.096080 0.963623
O O10 0.856379 0.103590 0.187921
O O11 0.000000 0.000000 0.179473
O O12 0.198868 0.417554 0.500000
O O13 0.250000 0.250000 0.543317
O O14 0.151131 0.392565 0.573885
O O15 0.515077 0.860676 0.617970
O O16 0.750000 0.750000 0.290554
O O17 0.915840 0.694262 0.311385
O O18 0.500000 0.000000 0.822171
#
# Coordination Sequence:
#
# PCOD9498039 Si02
#       8
#    16  16   4  16  16  16  16  16
#     4  10  21  37  66  99 130 161 215 276 331 389
#     4  11  26  44  62  95 137 179 217 270 342 401
#     4  12  24  44  68  86 132 176 220 258 330 414
#     4  11  21  41  67  91 127 177 227 272 323 393
#     4   9  19  35  60  91 123 160 207 267 318 378
#     4  11  22  42  66  95 124 170 221 266 324 404
#     4  11  25  41  65  96 131 176 229 276 323 393
#     4  12  25  42  66  96 131 172 221 281 339 388
#
# _framework density 18.868655
#
# number of rings (size 3 to 8) (size 9 to 14) (size 15 to 20)
#    0.000    1.241    4.138    1.655    4.828    1.931 
#    0.000    0.000    0.000    0.828    0.000    0.000 
#    0.000    0.000    0.000    0.000    0.000    0.000 
#
# Total GULP energy -323117.398249 kJ/mol
# GULP energy per Si atom -5570.989625 kJ/mol
# Density = 1.882571 g / cm^3
# Si number density = 18.868655 Si / 1000 Ang^3
#
#
#
# Elastic Constant Matrix: (Units=GPa)
#
#
# Indices 1 2 3 4 5 6 
#
# 1 73.4126 18.9578 20.7768 0.0000 0.0000 0.0000
# 2 18.9578 121.4183 23.3800 0.0000 0.0000 0.0000
# 3 20.7768 23.3800 91.8788 0.0000 0.0000 0.0000
# 4 0.0000 0.0000 0.0000 40.8602 0.0000 0.0000
# 5 0.0000 0.0000 0.0000 0.0000 25.9013 0.0000
# 6 0.0000 0.0000 0.0000 0.0000 0.0000 28.2829
#
#
#
# Elastic Compliance Matrix: (Units=1/GPa)
#
#
# Indices 1 2 3 4 5 6 
#
# 1 0.014904 -0.001765 -0.002921 0.000000 0.000000 0.000000
# 2 -0.001765 0.008869 -0.001858 0.000000 0.000000 0.000000
# 3 -0.002921 -0.001858 0.012017 0.000000 0.000000 0.000000
# 4 0.000000 0.000000 0.000000 0.024474 0.000000 0.000000
# 5 0.000000 0.000000 0.000000 0.000000 0.038608 0.000000
# 6 0.000000 0.000000 0.000000 0.000000 0.000000 0.035357
#
#
# Mechanical properties :
#
#
# Convention : Reuss Voigt Hill
#
# Bulk Modulus (GPa) = 44.04679 45.88212 44.96445
# Shear Modulus (GPa) = 32.28209 33.91523 33.09866
#
# Velocity S-wave (km/s) = 4.14077 4.24422 4.19281
# Velocity P-wave (km/s) = 6.80117 6.95609 6.87907
#
# Compressibility (1/GPa) = 0.02270313
#
# Stress axis : x y z
#
# Youngs Moduli (GPa) = 67.09577 112.74909 83.21356
#
# Poissons Ratio (x) = 0.19895 0.24309
# Poissons Ratio (y) = 0.11839 0.15460
# Poissons Ratio (z) = 0.19601 0.20948
#
# Static dielectric constant tensor:
#      x y z
#    x 1.731010 0.000000 0.000000 
#    y 0.000000 1.657760 0.000000 
#    z 0.000000 0.000000 1.667040 
# 
# From -- ./inp_files/70025.got.cif
#   From: 2010.05.17/outbox.cif.g08.bks.cpg/sg66_36_cif.got.tgz:70025.got - 2010.06.03 17:51:23.
