data_PCOD9498832
_publ_section_title
;
Structure prediction by ZEFSAII (Michael W. Deem and Ramdas Pophale) SiO2 
 PCOD9498832
Probable space group: C C C M
;
_chemical_formula_sum "Si O2"
_cell_formula_units_Z 80
_cell_length_a 6.450248
_cell_length_b 24.946004
_cell_length_c 26.489387
_cell_angle_alpha 90.000000
_cell_angle_beta 90.000000
_cell_angle_gamma 90.000000
_cell_volume 4262.351963
_symmetry_space_group_name_H-M "C C C M"
_symmetry_group_IT_number 66
_symmetry_cell_setting 'orthorhombic'
loop_
_space_group_symop_operation_xyz
x,y,z
-x,-y,z
x,-y,1/2-z
-x,y,1/2-z
-x,-y,-z
x,y,-z
-x,y,1/2+z
x,-y,1/2+z
1/2+x,1/2+y,z
1/2-x,1/2-y,z
1/2+x,1/2-y,1/2-z
1/2-x,1/2+y,1/2-z
1/2-x,1/2-y,-z
1/2+x,1/2+y,-z
1/2-x,1/2+y,1/2+z
1/2+x,1/2-y,1/2+z
loop_
_atom_site_type_symbol
_atom_site_label
_atom_site_fract_x
_atom_site_fract_y
_atom_site_fract_z
Si Si1 0.955482 0.062055 0.141804
Si Si2 0.750000 0.750000 0.159400
Si Si3 0.500000 0.292966 0.750000
Si Si4 0.169793 0.622161 0.788235
Si Si5 0.397818 0.941622 0.940626
Si Si6 0.849454 0.636794 0.122336
O O1 0.831548 0.079746 0.191201
O O2 0.806875 0.067935 0.092823
O O3 0.157893 0.099134 0.138531
O O4 0.000000 0.000000 0.144865
O O5 0.562205 0.739407 0.199528
O O6 0.772762 0.697873 0.124322
O O7 0.698110 0.330073 0.763170
O O8 0.000000 0.600329 0.750000
O O9 0.034053 0.638184 0.836665
O O10 0.554670 0.893507 0.925957
O O11 0.500000 0.000000 0.927327
O O12 0.353350 0.942394 0.000000
#
# Coordination Sequence:
#
# PCOD9498832 Si02
#       6
#    16   8   8  16  16  16
#     4  11  22  40  64  91 130 165 210 268 324 379
#     4  12  22  38  65  88 124 170 211 266 304 368
#     4  12  22  40  61  94 121 170 234 260 300 364
#     4  11  21  40  59  88 127 166 218 261 308 370
#     4  10  22  41  69  97 123 159 210 268 326 393
#     4  11  23  40  61  95 126 163 210 264 321 376
#
# _framework density 18.768979999999999
#
# number of rings (size 3 to 8) (size 9 to 14) (size 15 to 20)
#    0.000    1.000    6.000    1.200    0.000    1.200 
#    0.000    8.000    0.000    1.200    0.000    0.000 
#    0.000    0.000    0.000    0.000    0.000    0.000 
#
# Total GULP energy -223184.150396 kJ/mol
# GULP energy per Si atom -5579.603760 kJ/mol
# Density = 1.872626 g / cm^3
# Si number density = 18.768980 Si / 1000 Ang^3
#
#
#
# Elastic Constant Matrix: (Units=GPa)
#
#
# Indices 1 2 3 4 5 6 
#
# 1 91.4415 46.6243 8.7167 0.0000 0.0000 0.0000
# 2 46.6243 154.3120 28.3168 0.0000 0.0000 0.0000
# 3 8.7167 28.3168 45.5662 0.0000 0.0000 0.0000
# 4 0.0000 0.0000 0.0000 24.4845 0.0000 0.0000
# 5 0.0000 0.0000 0.0000 0.0000 18.9065 0.0000
# 6 0.0000 0.0000 0.0000 0.0000 0.0000 24.3652
#
#
#
# Elastic Compliance Matrix: (Units=1/GPa)
#
#
# Indices 1 2 3 4 5 6 
#
# 1 0.012928 -0.003897 -0.000052 0.000000 0.000000 0.000000
# 2 -0.003897 0.008489 -0.004530 0.000000 0.000000 0.000000
# 3 -0.000052 -0.004530 0.024771 0.000000 0.000000 0.000000
# 4 0.000000 0.000000 0.000000 0.040842 0.000000 0.000000
# 5 0.000000 0.000000 0.000000 0.000000 0.052892 0.000000
# 6 0.000000 0.000000 0.000000 0.000000 0.000000 0.041042
#
#
# Mechanical properties :
#
#
# Convention : Reuss Voigt Hill
#
# Bulk Modulus (GPa) = 34.20966 50.95946 42.58456
# Shear Modulus (GPa) = 24.07738 27.39539 25.73638
#
# Velocity S-wave (km/s) = 3.58555 3.82463 3.70701
# Velocity P-wave (km/s) = 5.95044 6.83473 6.40786
#
# Compressibility (1/GPa) = 0.02923151
#
# Stress axis : x y z
#
# Youngs Moduli (GPa) = 77.35364 117.80007 40.36968
#
# Poissons Ratio (x) = 0.45901 0.00208
# Poissons Ratio (y) = 0.30141 0.18287
# Poissons Ratio (z) = 0.00399 0.53363
#
# Static dielectric constant tensor:
#      x y z
#    x 1.694750 0.000000 0.000000 
#    y 0.000000 1.673370 0.000000 
#    z 0.000000 0.000000 1.632980 
# 
# From -- ./inp_files/67223.got.cif
#   From: 2010.05.17/outbox.cif.g08.bks.cpg/sg66_34_cif.got.tgz:67223.got - 2010.06.03 17:51:23.
