data_PCOD9498288
_publ_section_title
;
Structure prediction by ZEFSAII (Michael W. Deem and Ramdas Pophale) SiO2 
 PCOD9498288
Probable space group: C C C M
;
_chemical_formula_sum "Si O2"
_cell_formula_units_Z 104
_cell_length_a 9.176845
_cell_length_b 19.580770
_cell_length_c 28.705854
_cell_angle_alpha 90.000000
_cell_angle_beta 90.000000
_cell_angle_gamma 90.000000
_cell_volume 5158.146043
_symmetry_space_group_name_H-M "C C C M"
_symmetry_group_IT_number 66
_symmetry_cell_setting 'orthorhombic'
loop_
_space_group_symop_operation_xyz
x,y,z
-x,-y,z
x,-y,1/2-z
-x,y,1/2-z
-x,-y,-z
x,y,-z
-x,y,1/2+z
x,-y,1/2+z
1/2+x,1/2+y,z
1/2-x,1/2-y,z
1/2+x,1/2-y,1/2-z
1/2-x,1/2+y,1/2-z
1/2-x,1/2-y,-z
1/2+x,1/2+y,-z
1/2-x,1/2+y,1/2+z
1/2+x,1/2-y,1/2+z
loop_
_atom_site_type_symbol
_atom_site_label
_atom_site_fract_x
_atom_site_fract_y
_atom_site_fract_z
Si Si1 0.250000 0.750000 0.682855
Si Si2 0.834890 0.521659 0.129940
Si Si3 0.614774 0.196626 0.052349
Si Si4 0.390094 0.564300 0.445449
Si Si5 0.052997 0.369677 0.798607
Si Si6 0.223581 0.626952 0.861904
Si Si7 0.515945 0.306719 0.613678
O O1 0.148688 0.697520 0.710494
O O2 0.355208 0.705534 0.649664
O O3 0.752542 0.549449 0.085029
O O4 0.854373 0.577336 0.170506
O O5 0.751957 0.453192 0.146807
O O6 0.000000 0.500000 0.118777
O O7 0.750000 0.250000 0.049475
O O8 0.668414 0.135077 0.084597
O O9 0.498417 0.238618 0.082459
O O10 0.571152 0.178644 0.000000
O O11 0.500000 0.500000 0.441258
O O12 0.361402 0.575317 0.500000
O O13 0.459802 0.630869 0.421708
O O14 0.000000 0.400434 0.750000
O O15 0.909544 0.351319 0.828872
O O16 0.366016 0.674103 0.859567
#
# Coordination Sequence:
#
# PCOD9498288 Si02
#       7
#     8  16  16  16  16  16  16
#     4  12  24  40  67  94 128 164 215 268 334 378
#     4  10  22  41  64  92 127 171 215 274 327 381
#     4   9  18  33  58  90 127 172 217 254 307 382
#     4  11  22  38  65  98 133 178 224 265 318 386
#     4  11  25  45  68  95 124 165 214 272 338 399
#     4  10  21  39  65  92 127 173 214 266 325 386
#     4  11  21  39  63  92 133 176 214 267 321 385
#
# _framework density 20.162284
#
# number of rings (size 3 to 8) (size 9 to 14) (size 15 to 20)
#    0.000    1.538    4.615    0.462    0.000    5.538 
#    0.000    6.923    0.000    0.000    0.000    0.000 
#    0.000    0.000    0.000    0.000    0.000    0.000 
#
# Total GULP energy -290323.161252 kJ/mol
# GULP energy per Si atom -5583.137716 kJ/mol
# Density = 2.011639 g / cm^3
# Si number density = 20.162284 Si / 1000 Ang^3
#
#
#
# Elastic Constant Matrix: (Units=GPa)
#
#
# Indices 1 2 3 4 5 6 
#
# 1 50.0894 17.3083 16.5631 0.0000 0.0000 0.0000
# 2 17.3083 82.1655 18.6654 0.0000 0.0000 0.0000
# 3 16.5631 18.6654 64.2898 0.0000 0.0000 0.0000
# 4 0.0000 0.0000 0.0000 -2.2921 0.0000 0.0000
# 5 0.0000 0.0000 0.0000 0.0000 22.0640 0.0000
# 6 0.0000 0.0000 0.0000 0.0000 0.0000 32.3240
#
#
#
# Elastic Compliance Matrix: (Units=1/GPa)
#
#
# Indices 1 2 3 4 5 6 
#
# 1 0.022838 -0.003720 -0.004804 0.000000 0.000000 0.000000
# 2 -0.003720 0.013636 -0.003001 0.000000 0.000000 0.000000
# 3 -0.004804 -0.003001 0.017663 0.000000 0.000000 0.000000
# 4 0.000000 0.000000 0.000000 -0.436284 0.000000 0.000000
# 5 0.000000 0.000000 0.000000 0.000000 0.045323 0.000000
# 6 0.000000 0.000000 0.000000 0.000000 0.000000 0.030937
#
#
# Mechanical properties :
#
#
# Convention : Reuss Voigt Hill
#
# Bulk Modulus (GPa) = 32.16567 33.51311 32.83939
# Shear Modulus (GPa) = -18.35023 20.01970 0.83474
#
# Velocity S-wave (km/s) = -3.02010 3.15449 0.64413
# Velocity P-wave (km/s) = 1.95618 5.47042 4.10805
#
# Compressibility (1/GPa) = 0.03108905
#
# Stress axis : x y z
#
# Youngs Moduli (GPa) = 43.78646 73.33668 56.61431
#
# Poissons Ratio (x) = 0.27278 0.27197
# Poissons Ratio (y) = 0.16287 0.16988
# Poissons Ratio (z) = 0.21035 0.22005
#
# Static dielectric constant tensor:
#      x y z
#    x 1.730990 0.000000 0.000000 
#    y 0.000000 1.759840 0.000000 
#    z 0.000000 0.000000 1.683020 
# 
# From -- ./inp_files/68274.got.cif
#   From: 2010.05.17/outbox.cif.g08.bks.cpg/sg66_35_cif.got.tgz:68274.got - 2010.06.03 17:51:23.
