data_PCOD9498361
_publ_section_title
;
Structure prediction by ZEFSAII (Michael W. Deem and Ramdas Pophale) SiO2 
 PCOD9498361
Probable space group: C C C M
;
_chemical_formula_sum "Si O2"
_cell_formula_units_Z 84
_cell_length_a 10.839001
_cell_length_b 11.365210
_cell_length_c 32.382880
_cell_angle_alpha 90.000000
_cell_angle_beta 90.000000
_cell_angle_gamma 90.000000
_cell_volume 3989.166760
_symmetry_space_group_name_H-M "C C C M"
_symmetry_group_IT_number 66
_symmetry_cell_setting 'orthorhombic'
loop_
_space_group_symop_operation_xyz
x,y,z
-x,-y,z
x,-y,1/2-z
-x,y,1/2-z
-x,-y,-z
x,y,-z
-x,y,1/2+z
x,-y,1/2+z
1/2+x,1/2+y,z
1/2-x,1/2-y,z
1/2+x,1/2-y,1/2-z
1/2-x,1/2+y,1/2-z
1/2-x,1/2-y,-z
1/2+x,1/2+y,-z
1/2-x,1/2+y,1/2+z
1/2+x,1/2-y,1/2+z
loop_
_atom_site_type_symbol
_atom_site_label
_atom_site_fract_x
_atom_site_fract_y
_atom_site_fract_z
Si Si1 0.500000 0.000000 0.000000
Si Si2 0.056353 0.650956 0.081596
Si Si3 0.550260 0.287768 0.204026
Si Si4 0.808450 0.451188 0.620163
Si Si5 0.703111 0.942297 0.705338
Si Si6 0.453787 0.632866 0.381166
O O1 0.540153 0.095994 0.963598
O O2 0.172280 0.584403 0.102525
O O3 0.932107 0.611405 0.105649
O O4 0.042786 0.789752 0.089346
O O5 0.500000 0.308498 0.250000
O O6 0.594835 0.153239 0.201106
O O7 0.669820 0.370927 0.199565
O O8 0.462918 0.317609 0.165606
O O9 0.804065 0.463148 0.669194
O O10 0.688227 0.381811 0.605070
O O11 0.699355 0.000000 0.750000
O O12 0.500000 0.500000 0.379426
#
# Coordination Sequence:
#
# PCOD9498361 Si02
#       6
#     4  16  16  16  16  16
#     4   8  20  48  76  94 136 160 194 278 334 402
#     4  10  23  43  69 100 124 163 216 261 337 410
#     4  11  25  39  55  89 130 177 229 279 326 388
#     4  10  21  40  64  94 124 173 217 273 321 391
#     4  11  23  39  58  84 127 176 228 283 329 371
#     4  12  23  39  67  94 134 174 217 267 327 392
#
# _framework density 21.057029
#
# number of rings (size 3 to 8) (size 9 to 14) (size 15 to 20)
#    0.000    1.524    3.810    1.714    2.667    1.143 
#    0.000    8.095    0.000    4.571    0.000    0.000 
#    0.000    0.000    0.000    0.000    0.000    0.000 
#
# Total GULP energy -234139.065563 kJ/mol
# GULP energy per Si atom -5574.739656 kJ/mol
# Density = 2.100910 g / cm^3
# Si number density = 21.057029 Si / 1000 Ang^3
#
#
#
# Elastic Constant Matrix: (Units=GPa)
#
#
# Indices 1 2 3 4 5 6 
#
# 1 81.7680 16.9004 9.1079 0.0000 0.0000 0.0000
# 2 16.9004 94.5529 26.9340 0.0000 0.0000 0.0000
# 3 9.1079 26.9340 140.9591 0.0000 0.0000 0.0000
# 4 0.0000 0.0000 0.0000 7.6341 0.0000 0.0000
# 5 0.0000 0.0000 0.0000 0.0000 -0.4956 0.0000
# 6 0.0000 0.0000 0.0000 0.0000 0.0000 33.0349
#
#
#
# Elastic Compliance Matrix: (Units=1/GPa)
#
#
# Indices 1 2 3 4 5 6 
#
# 1 0.012721 -0.002157 -0.000410 0.000000 0.000000 0.000000
# 2 -0.002157 0.011551 -0.002068 0.000000 0.000000 0.000000
# 3 -0.000410 -0.002068 0.007516 0.000000 0.000000 0.000000
# 4 0.000000 0.000000 0.000000 0.130991 0.000000 0.000000
# 5 0.000000 0.000000 0.000000 0.000000 -2.017704 0.000000
# 6 0.000000 0.000000 0.000000 0.000000 0.000000 0.030271
#
#
# Mechanical properties :
#
#
# Convention : Reuss Voigt Hill
#
# Bulk Modulus (GPa) = 44.40773 47.01826 45.71299
# Shear Modulus (GPa) = -2.76567 25.65720 11.44576
#
# Velocity S-wave (km/s) = -1.14729 3.49443 2.33397
# Velocity P-wave (km/s) = 4.40227 6.21763 5.38697
#
# Compressibility (1/GPa) = 0.02251860
#
# Stress axis : x y z
#
# Youngs Moduli (GPa) = 78.60887 86.57537 133.05265
#
# Poissons Ratio (x) = 0.18675 0.05453
# Poissons Ratio (y) = 0.16956 0.27511
# Poissons Ratio (z) = 0.03221 0.17901
#
# Static dielectric constant tensor:
#      x y z
#    x 1.803420 0.000000 0.000000 
#    y 0.000000 1.890160 0.000000 
#    z 0.000000 0.000000 1.706730 
# 
# From -- ./inp_files/68859.got.cif
#   From: 2010.05.17/outbox.cif.g08.bks.cpg/sg66_35_cif.got.tgz:68859.got - 2010.06.03 17:51:23.
