data_PCOD9498695
_publ_section_title
;
Structure prediction by ZEFSAII (Michael W. Deem and Ramdas Pophale) SiO2 
 PCOD9498695
Probable space group: C C C M
;
_chemical_formula_sum "Si O2"
_cell_formula_units_Z 64
_cell_length_a 7.867169
_cell_length_b 11.510639
_cell_length_c 30.440770
_cell_angle_alpha 90.000000
_cell_angle_beta 90.000000
_cell_angle_gamma 90.000000
_cell_volume 2756.598700
_symmetry_space_group_name_H-M "C C C M"
_symmetry_group_IT_number 66
_symmetry_cell_setting 'orthorhombic'
loop_
_space_group_symop_operation_xyz
x,y,z
-x,-y,z
x,-y,1/2-z
-x,y,1/2-z
-x,-y,-z
x,y,-z
-x,y,1/2+z
x,-y,1/2+z
1/2+x,1/2+y,z
1/2-x,1/2-y,z
1/2+x,1/2-y,1/2-z
1/2-x,1/2+y,1/2-z
1/2-x,1/2-y,-z
1/2+x,1/2+y,-z
1/2-x,1/2+y,1/2+z
1/2+x,1/2-y,1/2+z
loop_
_atom_site_type_symbol
_atom_site_label
_atom_site_fract_x
_atom_site_fract_y
_atom_site_fract_z
Si Si1 0.104884 0.330431 0.386342
Si Si2 0.259046 0.581345 0.628727
Si Si3 0.432538 0.687859 0.547944
Si Si4 0.183187 0.116789 0.228468
O O1 0.250000 0.250000 0.364803
O O2 0.181594 0.457455 0.383893
O O3 0.911405 0.336859 0.368441
O O4 0.069192 0.281175 0.435156
O O5 0.393396 0.609184 0.590373
O O6 0.332513 0.587492 0.677058
O O7 0.476126 0.638757 0.500000
O O8 0.250000 0.750000 0.543404
O O9 0.250000 0.250000 0.233730
O O10 0.000000 0.120949 0.250000
O O11 0.272019 0.000000 0.250000
#
# Coordination Sequence:
#
# PCOD9498695 Si02
#       4
#    16  16  16  16
#     4  10  22  39  66  95 130 175 221 270 328 397
#     4  10  23  44  67  95 132 176 221 274 340 400
#     4   9  19  38  65  98 137 178 222 273 330 396
#     4  11  27  47  71 102 135 176 228 283 346 416
#
# _framework density 23.217017999999999
#
# number of rings (size 3 to 8) (size 9 to 14) (size 15 to 20)
#    0.000    2.000    0.000    2.250    0.000   18.000 
#    0.000    6.250    0.000    0.000    0.000    0.000 
#    0.000    0.000    0.000    0.000    0.000    0.000 
#
# Total GULP energy -178362.347283 kJ/mol
# GULP energy per Si atom -5573.823353 kJ/mol
# Density = 2.316418 g / cm^3
# Si number density = 23.217018 Si / 1000 Ang^3
#
#
#
# Elastic Constant Matrix: (Units=GPa)
#
#
# Indices 1 2 3 4 5 6 
#
# 1 96.7223 44.6830 57.5121 0.0000 0.0000 0.0000
# 2 44.6830 163.0308 69.2517 0.0000 0.0000 0.0000
# 3 57.5121 69.2517 221.1407 0.0000 0.0000 0.0000
# 4 0.0000 0.0000 0.0000 35.4110 0.0000 0.0000
# 5 0.0000 0.0000 0.0000 0.0000 6.7029 0.0000
# 6 0.0000 0.0000 0.0000 0.0000 0.0000 36.1527
#
#
#
# Elastic Compliance Matrix: (Units=1/GPa)
#
#
# Indices 1 2 3 4 5 6 
#
# 1 0.013032 -0.002459 -0.002619 0.000000 0.000000 0.000000
# 2 -0.002459 0.007539 -0.001721 0.000000 0.000000 0.000000
# 3 -0.002619 -0.001721 0.005742 0.000000 0.000000 0.000000
# 4 0.000000 0.000000 0.000000 0.028240 0.000000 0.000000
# 5 0.000000 0.000000 0.000000 0.000000 0.149189 0.000000
# 6 0.000000 0.000000 0.000000 0.000000 0.000000 0.027660
#
#
# Mechanical properties :
#
#
# Convention : Reuss Voigt Hill
#
# Bulk Modulus (GPa) = 78.65322 91.53193 85.09257
# Shear Modulus (GPa) = 20.06092 36.28313 28.17202
#
# Velocity S-wave (km/s) = 2.94268 3.95749 3.48720
# Velocity P-wave (km/s) = 6.74513 7.77126 7.27630
#
# Compressibility (1/GPa) = 0.01271404
#
# Stress axis : x y z
#
# Youngs Moduli (GPa) = 76.73177 132.64324 174.14870
#
# Poissons Ratio (x) = 0.32621 0.45613
# Poissons Ratio (y) = 0.18871 0.29976
# Poissons Ratio (z) = 0.20098 0.22832
#
# Static dielectric constant tensor:
#      x y z
#    x 1.832770 0.000000 0.000000 
#    y 0.000000 2.105450 0.000000 
#    z 0.000000 0.000000 1.852750 
# 
# From -- ./inp_files/67879.got.cif
#   From: 2010.05.17/outbox.cif.g08.bks.cpg/sg66_34_cif.got.tgz:67879.got - 2010.06.03 17:51:23.
