data_PCOD9498744
_publ_section_title
;
Structure prediction by ZEFSAII (Michael W. Deem and Ramdas Pophale) SiO2 
 PCOD9498744
Probable space group: C C C M
;
_chemical_formula_sum "Si O2"
_cell_formula_units_Z 112
_cell_length_a 14.393282
_cell_length_b 25.122790
_cell_length_c 14.589733
_cell_angle_alpha 90.000000
_cell_angle_beta 90.000000
_cell_angle_gamma 90.000000
_cell_volume 5275.638715
_symmetry_space_group_name_H-M "C C C M"
_symmetry_group_IT_number 66
_symmetry_cell_setting 'orthorhombic'
loop_
_space_group_symop_operation_xyz
x,y,z
-x,-y,z
x,-y,1/2-z
-x,y,1/2-z
-x,-y,-z
x,y,-z
-x,y,1/2+z
x,-y,1/2+z
1/2+x,1/2+y,z
1/2-x,1/2-y,z
1/2+x,1/2-y,1/2-z
1/2-x,1/2+y,1/2-z
1/2-x,1/2-y,-z
1/2+x,1/2+y,-z
1/2-x,1/2+y,1/2+z
1/2+x,1/2-y,1/2+z
loop_
_atom_site_type_symbol
_atom_site_label
_atom_site_fract_x
_atom_site_fract_y
_atom_site_fract_z
Si Si1 0.776528 0.660309 0.712974
Si Si2 0.936833 0.287020 0.897098
Si Si3 0.747121 0.057702 0.104168
Si Si4 0.095783 0.521832 0.354209
Si Si5 0.060284 0.829850 0.158124
Si Si6 0.378740 0.854295 0.391367
Si Si7 0.043860 0.052904 0.351727
O O1 0.849736 0.700461 0.667585
O O2 0.799556 0.603026 0.666743
O O3 0.669494 0.668596 0.685634
O O4 0.796274 0.660691 0.821357
O O5 0.955898 0.224217 0.896069
O O6 0.030028 0.318788 0.870285
O O7 0.912177 0.304607 0.000000
O O8 0.845974 0.044238 0.148488
O O9 0.684258 0.005829 0.101463
O O10 0.761224 0.077637 0.000000
O O11 0.098486 0.500000 0.250000
O O12 0.097992 0.584677 0.367192
O O13 0.000000 0.500000 0.394309
O O14 0.034072 0.886553 0.112015
O O15 0.000000 0.825604 0.250000
O O16 0.358208 0.849133 0.500000
O O17 0.000000 0.055474 0.250000
O O18 0.000000 0.000000 0.395907
#
# Coordination Sequence:
#
# PCOD9498744 Si02
#       7
#    16  16  16  16  16  16  16
#     4  11  22  40  67  92 130 170 216 269 333 394
#     4  11  24  41  65  96 130 167 215 273 332 398
#     4  11  23  38  63  97 130 169 222 274 322 391
#     4  11  23  38  61  93 136 182 219 265 323 398
#     4  10  22  40  63  93 125 168 219 268 324 385
#     4  11  24  41  64  96 135 176 221 272 331 401
#     4   9  21  39  65  92 126 172 215 268 330 389
#
# _framework density 21.229657
#
# number of rings (size 3 to 8) (size 9 to 14) (size 15 to 20)
#    0.000    1.429    1.429    3.429    4.000    7.143 
#    0.000    0.714    0.000   10.286    0.000    0.000 
#    0.000    0.000    0.000    0.000    0.000    0.000 
#
# Total GULP energy -312688.025429 kJ/mol
# GULP energy per Si atom -5583.714740 kJ/mol
# Density = 2.118134 g / cm^3
# Si number density = 21.229657 Si / 1000 Ang^3
#
#
#
# Elastic Constant Matrix: (Units=GPa)
#
#
# Indices 1 2 3 4 5 6 
#
# 1 62.8194 42.9469 33.2392 0.0000 0.0000 0.0000
# 2 42.9469 159.5015 19.0747 0.0000 0.0000 0.0000
# 3 33.2392 19.0747 120.6612 0.0000 0.0000 0.0000
# 4 0.0000 0.0000 0.0000 -134.3970 0.0000 0.0000
# 5 0.0000 0.0000 0.0000 0.0000 -88.5817 0.0000
# 6 0.0000 0.0000 0.0000 0.0000 0.0000 33.0199
#
#
#
# Elastic Compliance Matrix: (Units=1/GPa)
#
#
# Indices 1 2 3 4 5 6 
#
# 1 0.022430 -0.005403 -0.005325 0.000000 0.000000 0.000000
# 2 -0.005403 0.007692 0.000272 0.000000 0.000000 0.000000
# 3 -0.005325 0.000272 0.009711 0.000000 0.000000 0.000000
# 4 0.000000 0.000000 0.000000 -0.007441 0.000000 0.000000
# 5 0.000000 0.000000 0.000000 0.000000 -0.011289 0.000000
# 6 0.000000 0.000000 0.000000 0.000000 0.000000 0.030285
#
#
# Mechanical properties :
#
#
# Convention : Reuss Voigt Hill
#
# Bulk Modulus (GPa) = 52.84636 59.27819 56.06228
# Shear Modulus (GPa) = 63.60891 -21.47703 21.06594
#
# Velocity S-wave (km/s) = 5.47972 -3.18410 3.15348
# Velocity P-wave (km/s) = 8.06122 3.80329 6.30271
#
# Compressibility (1/GPa) = 0.01892278
#
# Stress axis : x y z
#
# Youngs Moduli (GPa) = 44.58394 130.01131 102.97114
#
# Poissons Ratio (x) = 0.70239 0.54830
# Poissons Ratio (y) = 0.24087 -0.02804
# Poissons Ratio (z) = 0.23740 -0.03541
#
# Static dielectric constant tensor:
#      x y z
#    x 1.729350 0.000000 0.000000 
#    y 0.000000 1.827040 0.000000 
#    z 0.000000 0.000000 1.801880 
# 
# From -- ./inp_files/28731.got.cif
#   From: 2010.05.17/outbox.cif.g08.bks.cpg/sg66_15_cif.got.tgz:28731.got - 2010.06.03 17:51:23.
