data_PCOD9498299
_publ_section_title
;
Structure prediction by ZEFSAII (Michael W. Deem and Ramdas Pophale) SiO2 
 PCOD9498299
Probable space group: C C C M
;
_chemical_formula_sum "Si O2"
_cell_formula_units_Z 104
_cell_length_a 9.675181
_cell_length_b 18.961164
_cell_length_c 27.178975
_cell_angle_alpha 90.000000
_cell_angle_beta 90.000000
_cell_angle_gamma 90.000000
_cell_volume 4986.056175
_symmetry_space_group_name_H-M "C C C M"
_symmetry_group_IT_number 66
_symmetry_cell_setting 'orthorhombic'
loop_
_space_group_symop_operation_xyz
x,y,z
-x,-y,z
x,-y,1/2-z
-x,y,1/2-z
-x,-y,-z
x,y,-z
-x,y,1/2+z
x,-y,1/2+z
1/2+x,1/2+y,z
1/2-x,1/2-y,z
1/2+x,1/2-y,1/2-z
1/2-x,1/2+y,1/2-z
1/2-x,1/2-y,-z
1/2+x,1/2+y,-z
1/2-x,1/2+y,1/2+z
1/2+x,1/2-y,1/2+z
loop_
_atom_site_type_symbol
_atom_site_label
_atom_site_fract_x
_atom_site_fract_y
_atom_site_fract_z
Si Si1 0.250000 0.750000 0.160739
Si Si2 0.217519 0.457585 0.664275
Si Si3 0.976505 0.080649 0.904603
Si Si4 0.658545 0.362960 0.760268
Si Si5 0.573671 0.171703 0.000000
Si Si6 0.095722 0.830873 0.000000
Si Si7 0.470920 0.148300 0.610420
Si Si8 0.245914 0.876258 0.654810
O O1 0.328078 0.697123 0.198189
O O2 0.362486 0.790577 0.127091
O O3 0.348379 0.429345 0.632359
O O4 0.249567 0.426239 0.717815
O O5 0.214785 0.541336 0.663422
O O6 0.087630 0.420025 0.639017
O O7 0.105768 0.115407 0.876508
O O8 0.944057 0.127958 0.951081
O O9 0.000000 0.000000 0.921395
O O10 0.500000 0.384253 0.750000
O O11 0.717703 0.341618 0.707475
O O12 0.739119 0.172914 0.000000
O O13 0.529934 0.253459 0.000000
O O14 0.529603 0.138144 0.051720
O O15 0.626708 0.161072 0.628017
#
# Coordination Sequence:
#
# PCOD9498299 Si02
#       8
#     8  16  16  16   8   8  16  16
#     4  10  26  41  64  92 136 177 224 264 324 400
#     4  10  21  41  66  94 131 172 218 266 329 397
#     4  10  21  39  65  97 130 167 214 272 332 385
#     4  11  23  39  65  96 132 176 218 262 329 395
#     4  11  24  39  71  92 126 176 225 261 328 394
#     4  11  21  41  68  93 122 177 221 265 322 400
#     4  11  24  45  65  97 132 173 223 271 328 389
#     4  11  24  40  66  98 133 170 215 280 324 380
#
# _framework density 20.858169
#
# number of rings (size 3 to 8) (size 9 to 14) (size 15 to 20)
#    0.000    1.385    3.077    2.077    4.308    3.077 
#    0.000    6.154    0.000    0.000    0.000    0.000 
#    0.000    0.000    0.000    0.000    0.000    0.000 
#
# Total GULP energy -290614.129459 kJ/mol
# GULP energy per Si atom -5588.733259 kJ/mol
# Density = 2.081069 g / cm^3
# Si number density = 20.858169 Si / 1000 Ang^3
#
#
#
# Elastic Constant Matrix: (Units=GPa)
#
#
# Indices 1 2 3 4 5 6 
#
# 1 98.6674 0.7192 43.9625 0.0000 0.0000 0.0000
# 2 0.7192 47.4939 21.9953 0.0000 0.0000 0.0000
# 3 43.9625 21.9953 133.9384 0.0000 0.0000 0.0000
# 4 0.0000 0.0000 0.0000 8.1552 0.0000 0.0000
# 5 0.0000 0.0000 0.0000 0.0000 33.1767 0.0000
# 6 0.0000 0.0000 0.0000 0.0000 0.0000 24.2639
#
#
#
# Elastic Compliance Matrix: (Units=1/GPa)
#
#
# Indices 1 2 3 4 5 6 
#
# 1 0.012008 0.001779 -0.004234 0.000000 0.000000 0.000000
# 2 0.001779 0.023052 -0.004369 0.000000 0.000000 0.000000
# 3 -0.004234 -0.004369 0.009573 0.000000 0.000000 0.000000
# 4 0.000000 0.000000 0.000000 0.122621 0.000000 0.000000
# 5 0.000000 0.000000 0.000000 0.000000 0.030142 0.000000
# 6 0.000000 0.000000 0.000000 0.000000 0.000000 0.041213
#
#
# Mechanical properties :
#
#
# Convention : Reuss Voigt Hill
#
# Bulk Modulus (GPa) = 32.27348 45.93930 39.10639
# Shear Modulus (GPa) = 19.04135 27.34734 23.19435
#
# Velocity S-wave (km/s) = 3.02470 3.62485 3.33829
# Velocity P-wave (km/s) = 5.26353 6.29220 5.80072
#
# Compressibility (1/GPa) = 0.03098519
#
# Stress axis : x y z
#
# Youngs Moduli (GPa) = 83.27468 43.38019 104.45745
#
# Poissons Ratio (x) = -0.07717 0.44224
# Poissons Ratio (y) = -0.14813 0.45642
# Poissons Ratio (z) = 0.35256 0.18955
#
# Static dielectric constant tensor:
#      x y z
#    x 1.729580 0.000000 0.000000 
#    y 0.000000 1.789690 0.000000 
#    z 0.000000 0.000000 1.776070 
# 
# From -- ./inp_files/62726.got.cif
#   From: 2010.05.17/outbox.cif.g08.bks.cpg/sg66_32_cif.got.tgz:62726.got - 2010.06.03 17:51:23.
