data_PCOD9498824
_publ_section_title
;
Structure prediction by ZEFSAII (Michael W. Deem and Ramdas Pophale) SiO2 
 PCOD9498824
Probable space group: C C C M
;
_chemical_formula_sum "Si O2"
_cell_formula_units_Z 48
_cell_length_a 8.369413
_cell_length_b 18.036068
_cell_length_c 14.099618
_cell_angle_alpha 90.000000
_cell_angle_beta 90.000000
_cell_angle_gamma 90.000000
_cell_volume 2128.355695
_symmetry_space_group_name_H-M "C C C M"
_symmetry_group_IT_number 66
_symmetry_cell_setting 'orthorhombic'
loop_
_space_group_symop_operation_xyz
x,y,z
-x,-y,z
x,-y,1/2-z
-x,y,1/2-z
-x,-y,-z
x,y,-z
-x,y,1/2+z
x,-y,1/2+z
1/2+x,1/2+y,z
1/2-x,1/2-y,z
1/2+x,1/2-y,1/2-z
1/2-x,1/2+y,1/2-z
1/2-x,1/2-y,-z
1/2+x,1/2+y,-z
1/2-x,1/2+y,1/2+z
1/2+x,1/2-y,1/2+z
loop_
_atom_site_type_symbol
_atom_site_label
_atom_site_fract_x
_atom_site_fract_y
_atom_site_fract_z
Si Si1 0.676650 0.967509 0.606514
Si Si2 0.280663 0.333129 0.300218
Si Si3 0.882016 0.886803 0.113086
O O1 0.722316 0.944180 0.500000
O O2 0.657311 0.895200 0.669833
O O3 0.500000 0.000000 0.603425
O O4 0.807022 0.031121 0.632763
O O5 0.250000 0.250000 0.333763
O O6 0.288826 0.334280 0.186347
O O7 0.438900 0.369448 0.349694
O O8 0.867953 0.874653 0.000000
#
# Coordination Sequence:
#
# PCOD9498824 Si02
#       3
#    16  16  16
#     4  10  22  41  67  96 126 166 214 263 316 378
#     4  11  24  41  65  96 128 165 210 265 324 378
#     4  10  23  43  65  90 126 172 217 258 311 385
#
# _framework density 22.552620000000001
#
# number of rings (size 3 to 8) (size 9 to 14) (size 15 to 20)
#    0.000    1.667    0.000    3.000    0.000   16.667 
#    0.000    3.333    0.000    0.000    0.000    0.000 
#    0.000    0.000    0.000    0.000    0.000    0.000 
#
# Total GULP energy -133762.569885 kJ/mol
# GULP energy per Si atom -5573.440412 kJ/mol
# Density = 2.250129 g / cm^3
# Si number density = 22.552620 Si / 1000 Ang^3
#
#
#
# Elastic Constant Matrix: (Units=GPa)
#
#
# Indices 1 2 3 4 5 6 
#
# 1 56.6494 58.2433 35.4421 0.0000 0.0000 0.0000
# 2 58.2433 160.4898 75.6153 0.0000 0.0000 0.0000
# 3 35.4421 75.6153 129.9544 0.0000 0.0000 0.0000
# 4 0.0000 0.0000 0.0000 8.4527 0.0000 0.0000
# 5 0.0000 0.0000 0.0000 0.0000 23.1403 0.0000
# 6 0.0000 0.0000 0.0000 0.0000 0.0000 -0.4809
#
#
#
# Elastic Compliance Matrix: (Units=1/GPa)
#
#
# Indices 1 2 3 4 5 6 
#
# 1 0.028708 -0.009271 -0.002435 0.000000 0.000000 0.000000
# 2 -0.009271 0.011578 -0.004209 0.000000 0.000000 0.000000
# 3 -0.002435 -0.004209 0.010808 0.000000 0.000000 0.000000
# 4 0.000000 0.000000 0.000000 0.118305 0.000000 0.000000
# 5 0.000000 0.000000 0.000000 0.000000 0.043215 0.000000
# 6 0.000000 0.000000 0.000000 0.000000 0.000000 -2.079324
#
#
# Mechanical properties :
#
#
# Convention : Reuss Voigt Hill
#
# Bulk Modulus (GPa) = 51.90776 76.18834 64.04805
# Shear Modulus (GPa) = -2.73454 18.07527 7.67036
#
# Velocity S-wave (km/s) = -1.10234 2.83410 1.84621
# Velocity P-wave (km/s) = 4.63099 6.67572 5.74506
#
# Compressibility (1/GPa) = 0.01926494
#
# Stress axis : x y z
#
# Youngs Moduli (GPa) = 34.83374 86.36796 92.52559
#
# Poissons Ratio (x) = 0.80073 0.22529
# Poissons Ratio (y) = 0.32295 0.38939
# Poissons Ratio (z) = 0.08482 0.36348
#
# Static dielectric constant tensor:
#      x y z
#    x 2.034820 0.000000 0.000000 
#    y 0.000000 1.817840 0.000000 
#    z 0.000000 0.000000 1.891760 
# 
# From -- ./inp_files/23399.got.cif
#   From: 2010.05.17/outbox.cif.g08.bks.cpg/sg66_12_cif.got.tgz:23399.got - 2010.06.03 17:51:23.
