data_PCOD9498810
_publ_section_title
;
Structure prediction by ZEFSAII (Michael W. Deem and Ramdas Pophale) SiO2 
 PCOD9498810
Probable space group: C C C M
;
_chemical_formula_sum "Si O2"
_cell_formula_units_Z 96
_cell_length_a 17.339119
_cell_length_b 11.903735
_cell_length_c 23.226233
_cell_angle_alpha 90.000000
_cell_angle_beta 90.000000
_cell_angle_gamma 90.000000
_cell_volume 4793.900941
_symmetry_space_group_name_H-M "C C C M"
_symmetry_group_IT_number 66
_symmetry_cell_setting 'orthorhombic'
loop_
_space_group_symop_operation_xyz
x,y,z
-x,-y,z
x,-y,1/2-z
-x,y,1/2-z
-x,-y,-z
x,y,-z
-x,y,1/2+z
x,-y,1/2+z
1/2+x,1/2+y,z
1/2-x,1/2-y,z
1/2+x,1/2-y,1/2-z
1/2-x,1/2+y,1/2-z
1/2-x,1/2-y,-z
1/2+x,1/2+y,-z
1/2-x,1/2+y,1/2+z
1/2+x,1/2-y,1/2+z
loop_
_atom_site_type_symbol
_atom_site_label
_atom_site_fract_x
_atom_site_fract_y
_atom_site_fract_z
Si Si1 0.908157 0.871190 0.742425
Si Si2 0.605371 0.727359 0.384672
Si Si3 0.550094 0.850280 0.931006
Si Si4 0.670049 0.498320 0.064177
Si Si5 0.653214 0.061268 0.934553
Si Si6 0.163264 0.794608 0.642913
O O1 0.894083 0.819893 0.679675
O O2 0.872018 0.797469 0.793397
O O3 0.000000 0.873242 0.750000
O O4 0.879855 0.000000 0.750000
O O5 0.524834 0.787472 0.404005
O O6 0.632158 0.623142 0.424093
O O7 0.661195 0.833170 0.392855
O O8 0.619448 0.783472 0.901913
O O9 0.581648 0.978528 0.920596
O O10 0.545926 0.839936 0.000000
O O11 0.763250 0.495508 0.064655
O O12 0.650182 0.582536 0.115358
O O13 0.646036 0.536934 0.000000
O O14 0.639106 0.102696 0.000000
O O15 0.250000 0.750000 0.645829
#
# Coordination Sequence:
#
# PCOD9498810 Si02
#       6
#    16  16  16  16  16  16
#     4  11  24  46  67  88 125 175 216 278 333 374
#     4  12  23  41  67  94 133 170 228 271 327 397
#     4  11  23  40  67 100 135 173 210 269 340 403
#     4  11  23  39  65 100 134 169 216 278 337 402
#     4  10  22  41  65  97 138 176 210 265 342 407
#     4  12  24  43  67  95 129 171 223 267 329 401
#
# _framework density 20.025445000000001
#
# number of rings (size 3 to 8) (size 9 to 14) (size 15 to 20)
#    0.000    0.833    5.000    3.000    0.000    5.333 
#    0.000    2.500    0.000    0.000    0.000    0.000 
#    0.000    0.000    0.000    0.000    0.000    0.000 
#
# Total GULP energy -267747.742802 kJ/mol
# GULP energy per Si atom -5578.077975 kJ/mol
# Density = 1.997987 g / cm^3
# Si number density = 20.025445 Si / 1000 Ang^3
#
#
#
# Elastic Constant Matrix: (Units=GPa)
#
#
# Indices 1 2 3 4 5 6 
#
# 1 53.1354 14.5215 15.9559 0.0000 0.0000 0.0000
# 2 14.5215 104.3804 50.6010 0.0000 0.0000 0.0000
# 3 15.9559 50.6010 125.1375 0.0000 0.0000 0.0000
# 4 0.0000 0.0000 0.0000 -14.7779 0.0000 0.0000
# 5 0.0000 0.0000 0.0000 0.0000 31.3666 0.0000
# 6 0.0000 0.0000 0.0000 0.0000 0.0000 28.5045
#
#
#
# Elastic Compliance Matrix: (Units=1/GPa)
#
#
# Indices 1 2 3 4 5 6 
#
# 1 0.019871 -0.001911 -0.001761 0.000000 0.000000 0.000000
# 2 -0.001911 0.012100 -0.004649 0.000000 0.000000 0.000000
# 3 -0.001761 -0.004649 0.010096 0.000000 0.000000 0.000000
# 4 0.000000 0.000000 0.000000 -0.067668 0.000000 0.000000
# 5 0.000000 0.000000 0.000000 0.000000 0.031881 0.000000
# 6 0.000000 0.000000 0.000000 0.000000 0.000000 0.035082
#
#
# Mechanical properties :
#
#
# Convention : Reuss Voigt Hill
#
# Bulk Modulus (GPa) = 39.33191 49.42336 44.37764
# Shear Modulus (GPa) = 75.21294 22.45697 48.83496
#
# Velocity S-wave (km/s) = 6.13516 3.35240 4.94362
# Velocity P-wave (km/s) = 8.35886 6.30227 7.40234
#
# Compressibility (1/GPa) = 0.02542465
#
# Stress axis : x y z
#
# Youngs Moduli (GPa) = 50.32500 82.64494 99.05208
#
# Poissons Ratio (x) = 0.15791 0.17444
# Poissons Ratio (y) = 0.09616 0.46051
# Poissons Ratio (z) = 0.08862 0.38423
#
# Static dielectric constant tensor:
#      x y z
#    x 1.736920 0.000000 0.000000 
#    y 0.000000 1.959340 0.000000 
#    z 0.000000 0.000000 1.690200 
# 
# From -- ./inp_files/58772.got.cif
#   From: 2010.05.17/outbox.cif.g08.bks.cpg/sg66_30_cif.got.tgz:58772.got - 2010.06.03 17:51:23.
