data_PCOD9498781
_publ_section_title
;
Structure prediction by ZEFSAII (Michael W. Deem and Ramdas Pophale) SiO2 
 PCOD9498781
Probable space group: C C C M
;
_chemical_formula_sum "Si O2"
_cell_formula_units_Z 112
_cell_length_a 32.453482
_cell_length_b 12.206361
_cell_length_c 13.595840
_cell_angle_alpha 90.000000
_cell_angle_beta 90.000000
_cell_angle_gamma 90.000000
_cell_volume 5385.841333
_symmetry_space_group_name_H-M "C C C M"
_symmetry_group_IT_number 66
_symmetry_cell_setting 'orthorhombic'
loop_
_space_group_symop_operation_xyz
x,y,z
-x,-y,z
x,-y,1/2-z
-x,y,1/2-z
-x,-y,-z
x,y,-z
-x,y,1/2+z
x,-y,1/2+z
1/2+x,1/2+y,z
1/2-x,1/2-y,z
1/2+x,1/2-y,1/2-z
1/2-x,1/2+y,1/2-z
1/2-x,1/2-y,-z
1/2+x,1/2+y,-z
1/2-x,1/2+y,1/2+z
1/2+x,1/2-y,1/2+z
loop_
_atom_site_type_symbol
_atom_site_label
_atom_site_fract_x
_atom_site_fract_y
_atom_site_fract_z
Si Si1 0.490119 0.626453 0.619148
Si Si2 0.397569 0.645895 0.617262
Si Si3 0.797124 0.750823 0.698695
Si Si4 0.363375 0.080845 0.617797
Si Si5 0.356513 0.578114 0.881351
Si Si6 0.835304 0.338105 0.383696
Si Si7 0.429310 0.752384 0.881330
O O1 0.500000 0.500000 0.642715
O O2 0.489963 0.632324 0.500000
O O3 0.443932 0.648541 0.655119
O O4 0.525712 0.710958 0.650957
O O5 0.401272 0.630137 0.500000
O O6 0.369892 0.543453 0.648833
O O7 0.373742 0.757618 0.633387
O O8 0.750000 0.750000 0.666849
O O9 0.826360 0.663763 0.642975
O O10 0.818271 0.866938 0.674128
O O11 0.800823 0.711560 0.812057
O O12 0.367431 0.075603 0.500000
O O13 0.405980 0.137375 0.654966
O O14 0.349962 0.958920 0.647145
O O15 0.396397 0.655039 0.863277
O O16 0.348585 0.580373 0.000000
O O17 0.824765 0.337044 0.500000
O O18 0.432209 0.763033 0.000000
#
# Coordination Sequence:
#
# PCOD9498781 Si02
#       7
#    16  16  16  16  16  16  16
#     4   9  13  21  46  84 120 149 186 234 277 329
#     4   9  17  31  52  82 120 160 192 224 282 351
#     4  11  23  39  62  87 107 137 194 254 294 343
#     4   9  19  38  62  84 114 152 187 231 291 351
#     4   9  17  32  55  86 120 151 184 231 295 349
#     4  10  22  41  58  77 113 159 195 227 286 358
#     4   8  13  24  48  83 115 146 186 230 277 328
#
# _framework density 20.795266000000002
#
# number of rings (size 3 to 8) (size 9 to 14) (size 15 to 20)
#    0.000    2.714    1.429    1.714    0.000    2.000 
#    5.143    0.714    0.000    7.714    0.000    4.000 
#    0.000    0.000    0.000    0.000    0.000    0.000 
#
# Total GULP energy -312579.418100 kJ/mol
# GULP energy per Si atom -5581.775323 kJ/mol
# Density = 2.074794 g / cm^3
# Si number density = 20.795266 Si / 1000 Ang^3
#
#
#
# Elastic Constant Matrix: (Units=GPa)
#
#
# Indices 1 2 3 4 5 6 
#
# 1 141.8579 69.2681 3.5655 0.0000 0.0000 0.0000
# 2 69.2681 110.9509 20.4262 0.0000 0.0000 0.0000
# 3 3.5655 20.4262 76.8042 0.0000 0.0000 0.0000
# 4 0.0000 0.0000 0.0000 17.1938 0.0000 0.0000
# 5 0.0000 0.0000 0.0000 0.0000 20.5948 0.0000
# 6 0.0000 0.0000 0.0000 0.0000 0.0000 16.8300
#
#
#
# Elastic Compliance Matrix: (Units=1/GPa)
#
#
# Indices 1 2 3 4 5 6 
#
# 1 0.010261 -0.006644 0.001291 0.000000 0.000000 0.000000
# 2 -0.006644 0.013779 -0.003356 0.000000 0.000000 0.000000
# 3 0.001291 -0.003356 0.013853 0.000000 0.000000 0.000000
# 4 0.000000 0.000000 0.000000 0.058161 0.000000 0.000000
# 5 0.000000 0.000000 0.000000 0.000000 0.048556 0.000000
# 6 0.000000 0.000000 0.000000 0.000000 0.000000 0.059418
#
#
# Mechanical properties :
#
#
# Convention : Reuss Voigt Hill
#
# Bulk Modulus (GPa) = 48.84237 57.34805 53.09521
# Shear Modulus (GPa) = 21.90397 26.68061 24.29229
#
# Velocity S-wave (km/s) = 3.24900 3.58580 3.42155
# Velocity P-wave (km/s) = 6.13294 6.69188 6.41850
#
# Compressibility (1/GPa) = 0.02047403
#
# Stress axis : x y z
#
# Youngs Moduli (GPa) = 97.45756 72.57678 72.18786
#
# Poissons Ratio (x) = 0.48217 -0.09316
# Poissons Ratio (y) = 0.64747 0.24226
# Poissons Ratio (z) = -0.12577 0.24357
#
# Static dielectric constant tensor:
#      x y z
#    x 1.700350 0.000000 0.000000 
#    y 0.000000 1.730120 0.000000 
#    z 0.000000 0.000000 1.852170 
# 
# From -- ./inp_files/33828.got.cif
#   From: 2010.05.17/outbox.cif.g08.bks.cpg/sg66_17_cif.got.tgz:33828.got - 2010.06.03 17:51:23.
