data_PCOD9498860
_publ_section_title
;
Structure prediction by ZEFSAII (Michael W. Deem and Ramdas Pophale) SiO2 
 PCOD9498860
Probable space group: C C C M
;
_chemical_formula_sum "Si O2"
_cell_formula_units_Z 72
_cell_length_a 22.051912
_cell_length_b 12.139459
_cell_length_c 13.544664
_cell_angle_alpha 90.000000
_cell_angle_beta 90.000000
_cell_angle_gamma 90.000000
_cell_volume 3625.883278
_symmetry_space_group_name_H-M "C C C M"
_symmetry_group_IT_number 66
_symmetry_cell_setting 'orthorhombic'
loop_
_space_group_symop_operation_xyz
x,y,z
-x,-y,z
x,-y,1/2-z
-x,y,1/2-z
-x,-y,-z
x,y,-z
-x,y,1/2+z
x,-y,1/2+z
1/2+x,1/2+y,z
1/2-x,1/2-y,z
1/2+x,1/2-y,1/2-z
1/2-x,1/2+y,1/2-z
1/2-x,1/2-y,-z
1/2+x,1/2+y,-z
1/2-x,1/2+y,1/2+z
1/2+x,1/2-y,1/2+z
loop_
_atom_site_type_symbol
_atom_site_label
_atom_site_fract_x
_atom_site_fract_y
_atom_site_fract_z
Si Si1 0.171183 0.000000 0.750000
Si Si2 0.931788 0.845451 0.222478
Si Si3 0.600176 0.110627 0.302078
Si Si4 0.533408 0.377479 0.500000
Si Si5 0.266618 0.120763 0.115029
Si Si6 0.974221 0.626213 0.000000
O O1 0.122577 0.093335 0.722380
O O2 0.214183 0.048302 0.834914
O O3 0.921436 0.719395 0.253093
O O4 0.928793 0.869180 0.103432
O O5 0.000000 0.877730 0.250000
O O6 0.671618 0.107565 0.323639
O O7 0.567409 0.124406 0.405008
O O8 0.580683 0.000000 0.250000
O O9 0.500000 0.500000 0.500000
O O10 0.498332 0.254828 0.500000
O O11 0.250000 0.250000 0.119235
O O12 0.275505 0.091272 0.000000
O O13 0.000000 0.500000 0.000000
#
# Coordination Sequence:
#
# PCOD9498860 Si02
#       6
#     8  16  16   8  16   8
#     4  12  23  40  70  96 127 168 220 280 336 390
#     4  11  25  42  62  98 135 171 221 275 331 401
#     4  11  23  40  66  92 128 174 220 268 333 399
#     4  10  22  42  67  89 129 180 219 266 334 393
#     4  11  23  42  68  94 128 173 223 276 334 406
#     4  10  24  40  62  98 132 173 221 273 332 413
#
# _framework density 19.857230999999999
#
# number of rings (size 3 to 8) (size 9 to 14) (size 15 to 20)
#    0.000    1.111    4.444    1.667    7.778    0.000 
#    2.000    0.000    0.000    2.000    0.000    0.000 
#    0.000    0.000    0.000    0.000    0.000    0.000 
#
# Total GULP energy -200484.565490 kJ/mol
# GULP energy per Si atom -5569.015708 kJ/mol
# Density = 1.981204 g / cm^3
# Si number density = 19.857231 Si / 1000 Ang^3
#
#
#
# Elastic Constant Matrix: (Units=GPa)
#
#
# Indices 1 2 3 4 5 6 
#
# 1 99.8019 35.9764 9.7231 0.0000 0.0000 0.0000
# 2 35.9764 174.2031 22.6712 0.0000 0.0000 0.0000
# 3 9.7231 22.6712 53.3246 0.0000 0.0000 0.0000
# 4 0.0000 0.0000 0.0000 24.6243 0.0000 0.0000
# 5 0.0000 0.0000 0.0000 0.0000 -7.0503 0.0000
# 6 0.0000 0.0000 0.0000 0.0000 0.0000 34.8861
#
#
#
# Elastic Compliance Matrix: (Units=1/GPa)
#
#
# Indices 1 2 3 4 5 6 
#
# 1 0.010885 -0.002106 -0.001089 0.000000 0.000000 0.000000
# 2 -0.002106 0.006484 -0.002373 0.000000 0.000000 0.000000
# 3 -0.001089 -0.002373 0.019960 0.000000 0.000000 0.000000
# 4 0.000000 0.000000 0.000000 0.040610 0.000000 0.000000
# 5 0.000000 0.000000 0.000000 0.000000 -0.141839 0.000000
# 6 0.000000 0.000000 0.000000 0.000000 0.000000 0.028665
#
#
# Mechanical properties :
#
#
# Convention : Reuss Voigt Hill
#
# Bulk Modulus (GPa) = 38.17768 51.56344 44.87056
# Shear Modulus (GPa) = -325.39203 27.75594 -148.81804
#
# Velocity S-wave (km/s) = -12.81489 3.74274 -8.66641
# Velocity P-wave (km/s) = 14.13132 6.68587 8.80322
#
# Compressibility (1/GPa) = 0.02619332
#
# Stress axis : x y z
#
# Youngs Moduli (GPa) = 91.86757 154.22097 50.09901
#
# Poissons Ratio (x) = 0.32483 0.05457
# Poissons Ratio (y) = 0.19350 0.11887
# Poissons Ratio (z) = 0.10007 0.36593
#
# Static dielectric constant tensor:
#      x y z
#    x 1.694030 0.000000 0.000000 
#    y 0.000000 1.863370 0.000000 
#    z 0.000000 0.000000 1.689670 
# 
# From -- ./inp_files/32056.got.cif
#   From: 2010.05.17/outbox.cif.g08.bks.cpg/sg66_17_cif.got.tgz:32056.got - 2010.06.03 17:51:23.
