data_PCOD9498619
_publ_section_title
;
Structure prediction by ZEFSAII (Michael W. Deem and Ramdas Pophale) SiO2 
 PCOD9498619
Probable space group: C C C M
;
_chemical_formula_sum "Si O2"
_cell_formula_units_Z 112
_cell_length_a 28.455585
_cell_length_b 11.855061
_cell_length_c 14.269609
_cell_angle_alpha 90.000000
_cell_angle_beta 90.000000
_cell_angle_gamma 90.000000
_cell_volume 4813.748370
_symmetry_space_group_name_H-M "C C C M"
_symmetry_group_IT_number 66
_symmetry_cell_setting 'orthorhombic'
loop_
_space_group_symop_operation_xyz
x,y,z
-x,-y,z
x,-y,1/2-z
-x,y,1/2-z
-x,-y,-z
x,y,-z
-x,y,1/2+z
x,-y,1/2+z
1/2+x,1/2+y,z
1/2-x,1/2-y,z
1/2+x,1/2-y,1/2-z
1/2-x,1/2+y,1/2-z
1/2-x,1/2-y,-z
1/2+x,1/2+y,-z
1/2-x,1/2+y,1/2+z
1/2+x,1/2-y,1/2+z
loop_
_atom_site_type_symbol
_atom_site_label
_atom_site_fract_x
_atom_site_fract_y
_atom_site_fract_z
Si Si1 0.905473 0.274788 0.894820
Si Si2 0.790037 0.066249 0.888293
Si Si3 0.201208 0.823163 0.697689
Si Si4 0.863705 0.365829 0.610548
Si Si5 0.454286 0.834074 0.292905
Si Si6 0.007839 0.873180 0.890830
Si Si7 0.684274 0.908435 0.608179
O O1 0.922680 0.330749 0.799876
O O2 0.850345 0.302461 0.891061
O O3 0.936514 0.160226 0.888395
O O4 0.919035 0.319191 0.000000
O O5 0.814749 0.122724 0.797762
O O6 0.737283 0.108335 0.862859
O O7 0.792172 0.931483 0.870782
O O8 0.800695 0.090198 0.000000
O O9 0.250000 0.750000 0.696627
O O10 0.160178 0.740285 0.661518
O O11 0.856377 0.351322 0.500000
O O12 0.919138 0.379443 0.629533
O O13 0.838934 0.479003 0.647798
O O14 0.500000 0.890298 0.250000
O O15 0.475954 0.717114 0.335329
O O16 0.993688 0.866936 0.000000
O O17 0.000000 0.000000 0.858151
O O18 0.690122 0.937681 0.500000
#
# Coordination Sequence:
#
# PCOD9498619 Si02
#       7
#    16  16  16  16  16  16  16
#     4   9  19  35  56  88 125 161 211 267 324 402
#     4  10  22  41  66  98 140 184 232 294 360 425
#     4  11  23  39  66 101 135 182 237 291 354 432
#     4  11  23  41  68  97 130 175 232 295 353 422
#     4  10  22  38  61  92 125 167 218 273 336 411
#     4   9  18  37  63  88 121 166 215 274 339 402
#     4   9  19  37  64  95 129 178 227 272 342 425
#
# _framework density 23.266691000000002
#
# number of rings (size 3 to 8) (size 9 to 14) (size 15 to 20)
#    0.000    2.143    1.429    0.857    2.000    4.571 
#    0.000   11.429    0.000   14.571    0.000    0.000 
#    0.000    0.000    0.000    0.000    0.000    0.000 
#
# Total GULP energy -311791.426830 kJ/mol
# GULP energy per Si atom -5567.704051 kJ/mol
# Density = 2.321374 g / cm^3
# Si number density = 23.266691 Si / 1000 Ang^3
#
#
#
# Elastic Constant Matrix: (Units=GPa)
#
#
# Indices 1 2 3 4 5 6 
#
# 1 45.3923 31.5212 22.0228 0.0000 0.0000 0.0000
# 2 31.5212 90.9836 56.8283 0.0000 0.0000 0.0000
# 3 22.0228 56.8283 148.7258 0.0000 0.0000 0.0000
# 4 0.0000 0.0000 0.0000 34.1561 0.0000 0.0000
# 5 0.0000 0.0000 0.0000 0.0000 37.8931 0.0000
# 6 0.0000 0.0000 0.0000 0.0000 0.0000 33.8361
#
#
#
# Elastic Compliance Matrix: (Units=1/GPa)
#
#
# Indices 1 2 3 4 5 6 
#
# 1 0.029050 -0.009690 -0.000599 0.000000 0.000000 0.000000
# 2 -0.009690 0.017669 -0.005316 0.000000 0.000000 0.000000
# 3 -0.000599 -0.005316 0.008844 0.000000 0.000000 0.000000
# 4 0.000000 0.000000 0.000000 0.029277 0.000000 0.000000
# 5 0.000000 0.000000 0.000000 0.000000 0.026390 0.000000
# 6 0.000000 0.000000 0.000000 0.000000 0.000000 0.029554
#
#
# Mechanical properties :
#
#
# Convention : Reuss Voigt Hill
#
# Bulk Modulus (GPa) = 41.06541 56.20515 48.63528
# Shear Modulus (GPa) = 27.76051 32.82569 30.29310
#
# Velocity S-wave (km/s) = 3.45794 3.76020 3.61223
# Velocity P-wave (km/s) = 5.79925 6.56212 6.19245
#
# Compressibility (1/GPa) = 0.02435139
#
# Stress axis : x y z
#
# Youngs Moduli (GPa) = 34.42373 56.59720 113.07278
#
# Poissons Ratio (x) = 0.54843 0.06773
# Poissons Ratio (y) = 0.33357 0.60114
# Poissons Ratio (z) = 0.02062 0.30089
#
# Static dielectric constant tensor:
#      x y z
#    x 1.875160 0.000000 0.000000 
#    y 0.000000 1.945330 0.000000 
#    z 0.000000 0.000000 1.903700 
# 
# From -- ./inp_files/33792.got.cif
#   From: 2010.05.17/outbox.cif.g08.bks.cpg/sg66_17_cif.got.tgz:33792.got - 2010.06.03 17:51:23.
