data_PCOD9498681
_publ_section_title
;
Structure prediction by ZEFSAII (Michael W. Deem and Ramdas Pophale) SiO2 
 PCOD9498681
Probable space group: C C C M
;
_chemical_formula_sum "Si O2"
_cell_formula_units_Z 88
_cell_length_a 14.000396
_cell_length_b 26.813403
_cell_length_c 11.028912
_cell_angle_alpha 90.000000
_cell_angle_beta 90.000000
_cell_angle_gamma 90.000000
_cell_volume 4140.234376
_symmetry_space_group_name_H-M "C C C M"
_symmetry_group_IT_number 66
_symmetry_cell_setting 'orthorhombic'
loop_
_space_group_symop_operation_xyz
x,y,z
-x,-y,z
x,-y,1/2-z
-x,y,1/2-z
-x,-y,-z
x,y,-z
-x,y,1/2+z
x,-y,1/2+z
1/2+x,1/2+y,z
1/2-x,1/2-y,z
1/2+x,1/2-y,1/2-z
1/2-x,1/2+y,1/2-z
1/2-x,1/2-y,-z
1/2+x,1/2+y,-z
1/2-x,1/2+y,1/2+z
1/2+x,1/2-y,1/2+z
loop_
_atom_site_type_symbol
_atom_site_label
_atom_site_fract_x
_atom_site_fract_y
_atom_site_fract_z
Si Si1 0.288349 0.059927 0.751218
Si Si2 0.109970 0.561262 0.500000
Si Si3 0.112590 0.439888 0.500000
Si Si4 0.500000 0.204908 0.250000
Si Si5 0.146411 0.225865 0.868876
Si Si6 0.111764 0.873463 0.241046
Si Si7 0.170335 0.184550 0.500000
Si Si8 0.899918 0.700001 0.500000
O O1 0.337981 0.076703 0.625433
O O2 0.180755 0.079610 0.752571
O O3 0.291660 0.000000 0.750000
O O4 0.341281 0.078198 0.873950
O O5 0.117352 0.500632 0.500000
O O6 0.998504 0.573416 0.500000
O O7 0.413424 0.241525 0.221298
O O8 0.460024 0.182641 0.378788
O O9 0.250000 0.250000 0.867787
O O10 0.142824 0.167913 0.839200
O O11 0.102208 0.233528 0.000000
O O12 0.133756 0.845212 0.116246
O O13 0.000000 0.884726 0.250000
O O14 0.122134 0.239716 0.500000
O O15 0.287109 0.183598 0.500000
#
# Coordination Sequence:
#
# PCOD9498681 Si02
#       8
#    16   8   8   8  16  16   8   8
#     4  10  22  39  63  98 134 169 216 274 326 381
#     4   9  18  35  69  93 118 164 216 268 321 395
#     4   9  17  38  65  93 122 165 211 259 337 397
#     4  12  20  38  64  98 119 168 213 262 318 400
#     4  11  23  39  62  88 122 162 209 267 317 379
#     4  12  25  39  67  91 126 176 225 264 321 400
#     4  11  23  41  62  91 123 173 216 268 320 394
#     4  11  22  38  67  92 129 161 217 264 333 385
#
# _framework density 21.254836000000001
#
# number of rings (size 3 to 8) (size 9 to 14) (size 15 to 20)
#    0.000    1.273    3.636    2.182    2.545    2.545 
#    0.000    0.000   24.000    4.364    0.000    0.000 
#    0.000    0.000    0.000    0.000    0.000    0.000 
#
# Total GULP energy -245644.436168 kJ/mol
# GULP energy per Si atom -5582.828095 kJ/mol
# Density = 2.120646 g / cm^3
# Si number density = 21.254836 Si / 1000 Ang^3
#
#
#
# Elastic Constant Matrix: (Units=GPa)
#
#
# Indices 1 2 3 4 5 6 
#
# 1 167.5289 25.8372 74.3038 0.0000 0.0000 0.0000
# 2 25.8372 34.5336 24.5180 0.0000 0.0000 0.0000
# 3 74.3038 24.5180 169.8157 0.0000 0.0000 0.0000
# 4 0.0000 0.0000 0.0000 5.2133 0.0000 0.0000
# 5 0.0000 0.0000 0.0000 0.0000 32.4444 0.0000
# 6 0.0000 0.0000 0.0000 0.0000 0.0000 33.6437
#
#
#
# Elastic Compliance Matrix: (Units=1/GPa)
#
#
# Indices 1 2 3 4 5 6 
#
# 1 0.007834 -0.003819 -0.002876 0.000000 0.000000 0.000000
# 2 -0.003819 0.034126 -0.003256 0.000000 0.000000 0.000000
# 3 -0.002876 -0.003256 0.007617 0.000000 0.000000 0.000000
# 4 0.000000 0.000000 0.000000 0.191817 0.000000 0.000000
# 5 0.000000 0.000000 0.000000 0.000000 0.030822 0.000000
# 6 0.000000 0.000000 0.000000 0.000000 0.000000 0.029723
#
#
# Mechanical properties :
#
#
# Convention : Reuss Voigt Hill
#
# Bulk Modulus (GPa) = 33.69877 69.02181 51.36029
# Shear Modulus (GPa) = 15.07229 30.74154 22.90692
#
# Velocity S-wave (km/s) = 2.66583 3.80719 3.28644
# Velocity P-wave (km/s) = 5.03632 7.20210 6.21429
#
# Compressibility (1/GPa) = 0.02967467
#
# Stress axis : x y z
#
# Youngs Moduli (GPa) = 127.65118 29.30285 131.27783
#
# Poissons Ratio (x) = 0.11191 0.37760
# Poissons Ratio (y) = 0.48749 0.42746
# Poissons Ratio (z) = 0.36717 0.09542
#
# Static dielectric constant tensor:
#      x y z
#    x 1.712840 0.000000 0.000000 
#    y 0.000000 1.765510 0.000000 
#    z 0.000000 0.000000 1.905140 
# 
# From -- ./inp_files/15102.got.cif
#   From: 2010.05.17/outbox.cif.g08.bks.cpg/sg66_8_cif.got.tgz:15102.got - 2010.06.03 17:51:23.
