data_PCOD9498964
_publ_section_title
;
Structure prediction by ZEFSAII (Michael W. Deem and Ramdas Pophale) SiO2 
 PCOD9498964
Probable space group: C C C M
;
_chemical_formula_sum "Si O2"
_cell_formula_units_Z 80
_cell_length_a 27.811522
_cell_length_b 20.106942
_cell_length_c 7.682184
_cell_angle_alpha 90.000000
_cell_angle_beta 90.000000
_cell_angle_gamma 90.000000
_cell_volume 4295.913090
_symmetry_space_group_name_H-M "C C C M"
_symmetry_group_IT_number 66
_symmetry_cell_setting 'orthorhombic'
loop_
_space_group_symop_operation_xyz
x,y,z
-x,-y,z
x,-y,1/2-z
-x,y,1/2-z
-x,-y,-z
x,y,-z
-x,y,1/2+z
x,-y,1/2+z
1/2+x,1/2+y,z
1/2-x,1/2-y,z
1/2+x,1/2-y,1/2-z
1/2-x,1/2+y,1/2-z
1/2-x,1/2-y,-z
1/2+x,1/2+y,-z
1/2-x,1/2+y,1/2+z
1/2+x,1/2-y,1/2+z
loop_
_atom_site_type_symbol
_atom_site_label
_atom_site_fract_x
_atom_site_fract_y
_atom_site_fract_z
Si Si1 0.056124 0.829930 0.292631
Si Si2 0.387521 0.800976 0.696977
Si Si3 0.644276 0.578285 0.208902
Si Si4 0.812933 0.305204 0.000000
Si Si5 0.708387 0.647711 0.500000
Si Si6 0.943820 0.573230 0.295540
O O1 0.057668 0.827295 0.500000
O O2 0.079910 0.760292 0.232712
O O3 0.092867 0.888426 0.240225
O O4 0.000000 0.837746 0.250000
O O5 0.371566 0.784566 0.500000
O O6 0.419149 0.867100 0.695515
O O7 0.344294 0.815137 0.827369
O O8 0.644010 0.500000 0.250000
O O9 0.684049 0.614041 0.330241
O O10 0.651758 0.588114 0.000000
O O11 0.766223 0.352092 0.000000
O O12 0.801997 0.226408 0.000000
O O13 0.924680 0.500000 0.250000
O O14 0.937855 0.585018 0.500000
O O15 0.000000 0.573187 0.250000
#
# Coordination Sequence:
#
# PCOD9498964 Si02
#       6
#    16  16  16   8   8  16
#     4  10  23  36  59  95 131 171 213 255 309 371
#     4  11  22  40  61  92 129 162 207 265 313 373
#     4  11  23  42  67  95 131 172 213 265 317 378
#     4  11  24  42  70  94 120 166 206 264 324 374
#     4  11  24  44  70  96 123 162 216 260 319 375
#     4  11  21  35  56  84 119 166 212 251 311 383
#
# _framework density 18.622351999999999
#
# number of rings (size 3 to 8) (size 9 to 14) (size 15 to 20)
#    0.000    1.200    4.000    3.000    2.800    2.800 
#    0.000    5.000    0.000    0.000    0.000    0.000 
#    0.000    0.000    0.000    0.000    0.000    0.000 
#
# Total GULP energy -223246.565331 kJ/mol
# GULP energy per Si atom -5581.164133 kJ/mol
# Density = 1.857997 g / cm^3
# Si number density = 18.622352 Si / 1000 Ang^3
#
#
#
# Elastic Constant Matrix: (Units=GPa)
#
#
# Indices 1 2 3 4 5 6 
#
# 1 150.3310 65.0169 56.7607 0.0000 0.0000 0.0000
# 2 65.0169 117.2412 24.7183 0.0000 0.0000 0.0000
# 3 56.7607 24.7183 120.5621 0.0000 0.0000 0.0000
# 4 0.0000 0.0000 0.0000 22.4276 0.0000 0.0000
# 5 0.0000 0.0000 0.0000 0.0000 26.0378 0.0000
# 6 0.0000 0.0000 0.0000 0.0000 0.0000 30.3750
#
#
#
# Elastic Compliance Matrix: (Units=1/GPa)
#
#
# Indices 1 2 3 4 5 6 
#
# 1 0.010183 -0.004846 -0.003801 0.000000 0.000000 0.000000
# 2 -0.004846 0.011221 -0.000019 0.000000 0.000000 0.000000
# 3 -0.003801 -0.000019 0.010088 0.000000 0.000000 0.000000
# 4 0.000000 0.000000 0.000000 0.044588 0.000000 0.000000
# 5 0.000000 0.000000 0.000000 0.000000 0.038406 0.000000
# 6 0.000000 0.000000 0.000000 0.000000 0.000000 0.032922
#
#
# Mechanical properties :
#
#
# Convention : Reuss Voigt Hill
#
# Bulk Modulus (GPa) = 70.61974 75.68066 73.15020
# Shear Modulus (GPa) = 29.50596 31.87729 30.69163
#
# Velocity S-wave (km/s) = 3.98482 4.14185 4.06409
# Velocity P-wave (km/s) = 7.69260 7.97503 7.83509
#
# Compressibility (1/GPa) = 0.01416035
#
# Stress axis : x y z
#
# Youngs Moduli (GPa) = 98.20656 89.12165 99.13051
#
# Poissons Ratio (x) = 0.43184 0.37675
# Poissons Ratio (y) = 0.47587 0.00190
# Poissons Ratio (z) = 0.37324 0.00171
#
# Static dielectric constant tensor:
#      x y z
#    x 1.636970 0.000000 0.000000 
#    y 0.000000 1.649460 0.000000 
#    z 0.000000 0.000000 1.669960 
# 
# From -- ./inp_files/10088.got.cif
#   From: 2010.05.17/outbox.cif.g08.bks.cpg/sg66_6_cif.got.tgz:10088.got - 2010.06.03 17:51:23.
