data_PCOD9498543
_publ_section_title
;
Structure prediction by ZEFSAII (Michael W. Deem and Ramdas Pophale) SiO2 
 PCOD9498543
Probable space group: C C C M
;
_chemical_formula_sum "Si O2"
_cell_formula_units_Z 112
_cell_length_a 15.081783
_cell_length_b 29.098073
_cell_length_c 14.651195
_cell_angle_alpha 90.000000
_cell_angle_beta 90.000000
_cell_angle_gamma 90.000000
_cell_volume 6429.688979
_symmetry_space_group_name_H-M "C C C M"
_symmetry_group_IT_number 66
_symmetry_cell_setting 'orthorhombic'
loop_
_space_group_symop_operation_xyz
x,y,z
-x,-y,z
x,-y,1/2-z
-x,y,1/2-z
-x,-y,-z
x,y,-z
-x,y,1/2+z
x,-y,1/2+z
1/2+x,1/2+y,z
1/2-x,1/2-y,z
1/2+x,1/2-y,1/2-z
1/2-x,1/2+y,1/2-z
1/2-x,1/2-y,-z
1/2+x,1/2+y,-z
1/2-x,1/2+y,1/2+z
1/2+x,1/2-y,1/2+z
loop_
_atom_site_type_symbol
_atom_site_label
_atom_site_fract_x
_atom_site_fract_y
_atom_site_fract_z
Si Si1 0.831378 0.818609 0.100712
Si Si2 0.341665 0.871525 0.896131
Si Si3 0.393548 0.946412 0.758170
Si Si4 0.329648 0.880314 0.398771
Si Si5 0.484653 0.291363 0.358367
Si Si6 0.513746 0.813007 0.859089
Si Si7 0.709471 0.701038 0.309162
O O1 0.771816 0.864133 0.104484
O O2 0.808261 0.795838 0.199239
O O3 0.937693 0.823000 0.102711
O O4 0.809500 0.797478 0.000000
O O5 0.359285 0.920421 0.848453
O O6 0.435817 0.845011 0.896488
O O7 0.276220 0.839853 0.835283
O O8 0.309581 0.875249 0.000000
O O9 0.500000 0.941482 0.750000
O O10 0.352690 0.917720 0.675410
O O11 0.371766 0.000000 0.750000
O O12 0.351077 0.897146 0.500000
O O13 0.391638 0.835476 0.381148
O O14 0.500000 0.290106 0.250000
O O15 0.502546 0.239279 0.391549
O O16 0.382334 0.305037 0.364528
O O17 0.500000 0.812996 0.750000
O O18 0.750000 0.750000 0.336632
#
# Coordination Sequence:
#
# PCOD9498543 Si02
#       7
#    16  16  16  16  16  16  16
#     4  10  22  35  55  81 109 148 195 242 284 329
#     4  12  23  37  57  82 114 156 195 230 280 345
#     4  11  23  40  61  83 113 148 185 238 295 350
#     4  11  21  35  57  82 109 147 188 236 292 343
#     4   9  21  34  52  79 113 155 196 237 274 322
#     4  11  18  34  53  75 116 157 191 232 278 329
#     4  11  21  39  56  79 118 159 197 235 282 334
#
# _framework density 17.419194999999998
#
# number of rings (size 3 to 8) (size 9 to 14) (size 15 to 20)
#    0.000    1.286    5.714    0.429    4.000    2.857 
#    0.000    1.429    0.000    0.000    0.000    2.000 
#    0.000    3.429    0.000    0.000    0.000    0.000 
#
# Total GULP energy -312291.634471 kJ/mol
# GULP energy per Si atom -5576.636330 kJ/mol
# Density = 1.737955 g / cm^3
# Si number density = 17.419195 Si / 1000 Ang^3
#
#
#
# Elastic Constant Matrix: (Units=GPa)
#
#
# Indices 1 2 3 4 5 6 
#
# 1 105.8504 53.3895 29.7126 0.0000 0.0000 0.0000
# 2 53.3895 80.4995 23.8107 0.0000 0.0000 0.0000
# 3 29.7126 23.8107 105.9598 0.0000 0.0000 0.0000
# 4 0.0000 0.0000 0.0000 -8.4165 0.0000 0.0000
# 5 0.0000 0.0000 0.0000 0.0000 17.2152 0.0000
# 6 0.0000 0.0000 0.0000 0.0000 0.0000 4.0203
#
#
#
# Elastic Compliance Matrix: (Units=1/GPa)
#
#
# Indices 1 2 3 4 5 6 
#
# 1 0.014602 -0.009077 -0.002055 0.000000 0.000000 0.000000
# 2 -0.009077 0.018949 -0.001713 0.000000 0.000000 0.000000
# 3 -0.002055 -0.001713 0.010399 0.000000 0.000000 0.000000
# 4 0.000000 0.000000 0.000000 -0.118814 0.000000 0.000000
# 5 0.000000 0.000000 0.000000 0.000000 0.058088 0.000000
# 6 0.000000 0.000000 0.000000 0.000000 0.000000 0.248735
#
#
# Mechanical properties :
#
#
# Convention : Reuss Voigt Hill
#
# Bulk Modulus (GPa) = 54.76234 56.23726 55.49980
# Shear Modulus (GPa) = 18.95838 14.92361 16.94099
#
# Velocity S-wave (km/s) = 3.30261 2.93018 3.12195
# Velocity P-wave (km/s) = 6.78595 6.61836 6.70268
#
# Compressibility (1/GPa) = 0.01826073
#
# Stress axis : x y z
#
# Youngs Moduli (GPa) = 68.48201 52.77300 96.16585
#
# Poissons Ratio (x) = 0.47901 0.19762
# Poissons Ratio (y) = 0.62160 0.16472
# Poissons Ratio (z) = 0.14073 0.09039
#
# Static dielectric constant tensor:
#      x y z
#    x 1.612140 0.000000 0.000000 
#    y 0.000000 1.552150 0.000000 
#    z 0.000000 0.000000 1.689060 
# 
# From -- ./inp_files/28897.got.cif
#   From: 2010.05.17/outbox.cif.g08.bks.cpg/sg66_15_cif.got.tgz:28897.got - 2010.06.03 17:51:23.
