data_PCOD9498853
_publ_section_title
;
Structure prediction by ZEFSAII (Michael W. Deem and Ramdas Pophale) SiO2 
 PCOD9498853
Probable space group: C C C M
;
_chemical_formula_sum "Si O2"
_cell_formula_units_Z 48
_cell_length_a 13.984777
_cell_length_b 4.997228
_cell_length_c 33.278814
_cell_angle_alpha 90.000000
_cell_angle_beta 90.000000
_cell_angle_gamma 90.000000
_cell_volume 2325.693883
_symmetry_space_group_name_H-M "C C C M"
_symmetry_group_IT_number 66
_symmetry_cell_setting 'orthorhombic'
loop_
_space_group_symop_operation_xyz
x,y,z
-x,-y,z
x,-y,1/2-z
-x,y,1/2-z
-x,-y,-z
x,y,-z
-x,y,1/2+z
x,-y,1/2+z
1/2+x,1/2+y,z
1/2-x,1/2-y,z
1/2+x,1/2-y,1/2-z
1/2-x,1/2+y,1/2-z
1/2-x,1/2-y,-z
1/2+x,1/2+y,-z
1/2-x,1/2+y,1/2+z
1/2+x,1/2-y,1/2+z
loop_
_atom_site_type_symbol
_atom_site_label
_atom_site_fract_x
_atom_site_fract_y
_atom_site_fract_z
Si Si1 0.500000 0.500000 0.100149
Si Si2 0.000000 0.500000 0.154828
Si Si3 0.183326 0.007809 0.454010
Si Si4 0.361055 0.246410 0.779345
O O1 0.467092 0.756826 0.126379
O O2 0.591262 0.558422 0.072429
O O3 0.073209 0.335232 0.183348
O O4 0.154237 0.077156 0.500000
O O5 0.250000 0.250000 0.438585
O O6 0.250000 0.750000 0.455135
O O7 0.381702 0.500000 0.750000
O O8 0.250000 0.250000 0.792398
O O9 0.372156 0.000000 0.750000
#
# Coordination Sequence:
#
# PCOD9498853 Si02
#       4
#     8   8  16  16
#     4  12  25  40  61  96 134 166 202 258 325 376
#     4  12  25  38  63  96 128 164 200 258 327 376
#     4  10  22  42  67  92 124 171 219 258 301 366
#     4  10  22  42  65  87 116 160 210 255 302 367
#
# _framework density 20.639002999999999
#
# number of rings (size 3 to 8) (size 9 to 14) (size 15 to 20)
#    0.000    1.333    0.000    5.000    0.000    5.333 
#    0.000    6.667    0.000    0.000    0.000    0.000 
#    0.000    0.000    0.000    0.000    0.000    0.000 
#
# Total GULP energy -133896.372870 kJ/mol
# GULP energy per Si atom -5579.015536 kJ/mol
# Density = 2.059203 g / cm^3
# Si number density = 20.639003 Si / 1000 Ang^3
#
#
#
# Elastic Constant Matrix: (Units=GPa)
#
#
# Indices 1 2 3 4 5 6 
#
# 1 108.2007 29.2787 70.5648 0.0000 0.0000 0.0000
# 2 29.2787 143.9317 25.2506 0.0000 0.0000 0.0000
# 3 70.5648 25.2506 93.2707 0.0000 0.0000 0.0000
# 4 0.0000 0.0000 0.0000 516.5234 0.0000 0.0000
# 5 0.0000 0.0000 0.0000 0.0000 -15.4242 0.0000
# 6 0.0000 0.0000 0.0000 0.0000 0.0000 33.9215
#
#
#
# Elastic Compliance Matrix: (Units=1/GPa)
#
#
# Indices 1 2 3 4 5 6 
#
# 1 0.018498 -0.001373 -0.013623 0.000000 0.000000 0.000000
# 2 -0.001373 0.007396 -0.000964 0.000000 0.000000 0.000000
# 3 -0.013623 -0.000964 0.021289 0.000000 0.000000 0.000000
# 4 0.000000 0.000000 0.000000 0.001936 0.000000 0.000000
# 5 0.000000 0.000000 0.000000 0.000000 -0.064833 0.000000
# 6 0.000000 0.000000 0.000000 0.000000 0.000000 0.029480
#
#
# Mechanical properties :
#
#
# Convention : Reuss Voigt Hill
#
# Bulk Modulus (GPa) = 65.51441 66.17682 65.84562
# Shear Modulus (GPa) = 98.47590 121.69141 110.08365
#
# Velocity S-wave (km/s) = 6.91499 7.68699 7.31119
# Velocity P-wave (km/s) = 9.77589 10.53186 10.16091
#
# Compressibility (1/GPa) = 0.01526382
#
# Stress axis : x y z
#
# Youngs Moduli (GPa) = 54.05908 135.20694 46.97209
#
# Poissons Ratio (x) = 0.18563 0.63992
# Poissons Ratio (y) = 0.07422 0.04526
# Poissons Ratio (z) = 0.73647 0.13029
#
# Static dielectric constant tensor:
#      x y z
#    x 1.699500 0.000000 0.000000 
#    y 0.000000 1.822320 0.000000 
#    z 0.000000 0.000000 1.714750 
# 
# From -- ./inp_files/64127.got.cif
#   From: 2010.05.17/outbox.cif.g08.bks.cpg/sg66_33_cif.got.tgz:64127.got - 2010.06.03 17:51:23.
