data_PCOD9498966
_publ_section_title
;
Structure prediction by ZEFSAII (Michael W. Deem and Ramdas Pophale) SiO2 
 PCOD9498966
Probable space group: C C C M
;
_chemical_formula_sum "Si O2"
_cell_formula_units_Z 112
_cell_length_a 11.195822
_cell_length_b 25.103207
_cell_length_c 17.377127
_cell_angle_alpha 90.000000
_cell_angle_beta 90.000000
_cell_angle_gamma 90.000000
_cell_volume 4883.859567
_symmetry_space_group_name_H-M "C C C M"
_symmetry_group_IT_number 66
_symmetry_cell_setting 'orthorhombic'
loop_
_space_group_symop_operation_xyz
x,y,z
-x,-y,z
x,-y,1/2-z
-x,y,1/2-z
-x,-y,-z
x,y,-z
-x,y,1/2+z
x,-y,1/2+z
1/2+x,1/2+y,z
1/2-x,1/2-y,z
1/2+x,1/2-y,1/2-z
1/2-x,1/2+y,1/2-z
1/2-x,1/2-y,-z
1/2+x,1/2+y,-z
1/2-x,1/2+y,1/2+z
1/2+x,1/2-y,1/2+z
loop_
_atom_site_type_symbol
_atom_site_label
_atom_site_fract_x
_atom_site_fract_y
_atom_site_fract_z
Si Si1 0.157594 0.654356 0.913887
Si Si2 0.347979 0.693103 0.682948
Si Si3 0.873588 0.695282 0.732944
Si Si4 0.030190 0.938677 0.337728
Si Si5 0.938162 0.154894 0.084583
Si Si6 0.505854 0.062288 0.157206
Si Si7 0.735912 0.110394 0.409357
O O1 0.116523 0.701979 0.858200
O O2 0.298538 0.663859 0.916271
O O3 0.116679 0.598620 0.873700
O O4 0.108655 0.655832 0.000000
O O5 0.255556 0.668884 0.747806
O O6 0.368039 0.752139 0.715253
O O7 0.519840 0.676887 0.845827
O O8 0.269788 0.671987 0.610149
O O9 0.000000 0.667980 0.750000
O O10 0.164650 0.923101 0.361828
O O11 0.000000 0.921679 0.250000
O O12 0.952235 0.907877 0.400349
O O13 0.000000 0.000000 0.341610
O O14 0.986096 0.170013 0.000000
O O15 0.500000 0.059559 0.250000
O O16 0.391668 0.093034 0.122401
O O17 0.500000 0.000000 0.130801
O O18 0.744820 0.100723 0.500000
#
# Coordination Sequence:
#
# PCOD9498966 Si02
#       7
#    16  16  16  16  16  16  16
#     4  11  25  45  69 103 148 190 239 304 372 442
#     4  10  23  42  71  99 134 183 242 298 366 449
#     4  11  25  43  71 105 133 185 244 297 370 449
#     4  10  23  37  63 100 138 182 239 291 354 428
#     4  10  24  43  68 101 140 185 235 299 370 433
#     4  11  26  45  74 109 149 197 256 308 372 458
#     4  11  24  44  70 102 145 192 242 307 372 445
#
# _framework density 22.932683999999998
#
# number of rings (size 3 to 8) (size 9 to 14) (size 15 to 20)
#    0.000    1.429    0.000    4.286   12.000    4.000 
#    0.000    9.286    0.000    0.000    0.000    0.000 
#    0.000    0.000    0.000    0.000    0.000    0.000 
#
# Total GULP energy -311848.921882 kJ/mol
# GULP energy per Si atom -5568.730748 kJ/mol
# Density = 2.288049 g / cm^3
# Si number density = 22.932684 Si / 1000 Ang^3
#
#
#
# Elastic Constant Matrix: (Units=GPa)
#
#
# Indices 1 2 3 4 5 6 
#
# 1 116.5712 30.2142 59.4293 0.0000 0.0000 0.0000
# 2 30.2142 111.6080 47.2528 0.0000 0.0000 0.0000
# 3 59.4293 47.2528 165.9881 0.0000 0.0000 0.0000
# 4 0.0000 0.0000 0.0000 16.7540 0.0000 0.0000
# 5 0.0000 0.0000 0.0000 0.0000 35.4390 0.0000
# 6 0.0000 0.0000 0.0000 0.0000 0.0000 15.2340
#
#
#
# Elastic Compliance Matrix: (Units=1/GPa)
#
#
# Indices 1 2 3 4 5 6 
#
# 1 0.010696 -0.001449 -0.003417 0.000000 0.000000 0.000000
# 2 -0.001449 0.010384 -0.002437 0.000000 0.000000 0.000000
# 3 -0.003417 -0.002437 0.007942 0.000000 0.000000 0.000000
# 4 0.000000 0.000000 0.000000 0.059687 0.000000 0.000000
# 5 0.000000 0.000000 0.000000 0.000000 0.028218 0.000000
# 6 0.000000 0.000000 0.000000 0.000000 0.000000 0.065643
#
#
# Mechanical properties :
#
#
# Convention : Reuss Voigt Hill
#
# Bulk Modulus (GPa) = 69.37054 74.21775 71.79415
# Shear Modulus (GPa) = 24.75479 30.63679 27.69579
#
# Velocity S-wave (km/s) = 3.28907 3.65902 3.47897
# Velocity P-wave (km/s) = 6.68874 7.09118 6.89290
#
# Compressibility (1/GPa) = 0.01441534
#
# Stress axis : x y z
#
# Youngs Moduli (GPa) = 93.49241 96.30106 125.91575
#
# Poissons Ratio (x) = 0.13953 0.43027
# Poissons Ratio (y) = 0.13546 0.30690
# Poissons Ratio (z) = 0.31947 0.23472
#
# Static dielectric constant tensor:
#      x y z
#    x 1.941570 0.000000 0.000000 
#    y 0.000000 1.943730 0.000000 
#    z 0.000000 0.000000 1.921250 
# 
# From -- ./inp_files/27040.got.cif
#   From: 2010.05.17/outbox.cif.g08.bks.cpg/sg66_14_cif.got.tgz:27040.got - 2010.06.03 17:51:23.
