data_PCOD9498577
_publ_section_title
;
Structure prediction by ZEFSAII (Michael W. Deem and Ramdas Pophale) SiO2 
 PCOD9498577
Probable space group: C C C M
;
_chemical_formula_sum "Si O2"
_cell_formula_units_Z 64
_cell_length_a 17.055288
_cell_length_b 11.723515
_cell_length_c 16.440782
_cell_angle_alpha 90.000000
_cell_angle_beta 90.000000
_cell_angle_gamma 90.000000
_cell_volume 3287.300241
_symmetry_space_group_name_H-M "C C C M"
_symmetry_group_IT_number 66
_symmetry_cell_setting 'orthorhombic'
loop_
_space_group_symop_operation_xyz
x,y,z
-x,-y,z
x,-y,1/2-z
-x,y,1/2-z
-x,-y,-z
x,y,-z
-x,y,1/2+z
x,-y,1/2+z
1/2+x,1/2+y,z
1/2-x,1/2-y,z
1/2+x,1/2-y,1/2-z
1/2-x,1/2+y,1/2-z
1/2-x,1/2-y,-z
1/2+x,1/2+y,-z
1/2-x,1/2+y,1/2+z
1/2+x,1/2-y,1/2+z
loop_
_atom_site_type_symbol
_atom_site_label
_atom_site_fract_x
_atom_site_fract_y
_atom_site_fract_z
Si Si1 0.720479 0.068540 0.334870
Si Si2 0.636107 0.315886 0.000000
Si Si3 0.535903 0.374085 0.151484
Si Si4 0.877680 0.799448 0.817620
Si Si5 0.194228 0.570721 0.000000
O O1 0.811149 0.109862 0.343699
O O2 0.666368 0.179566 0.321672
O O3 0.716181 0.000000 0.250000
O O4 0.692994 0.002180 0.416222
O O5 0.593675 0.365753 0.922356
O O6 0.722908 0.364994 0.000000
O O7 0.634701 0.177766 0.000000
O O8 0.500000 0.500000 0.162508
O O9 0.458379 0.299468 0.132424
O O10 0.586329 0.332508 0.229240
#
# Coordination Sequence:
#
# PCOD9498577 Si02
#       5
#    16   8  16  16   8
#     4  11  22  40  61  85 121 161 197 248 302 356
#     4  11  23  39  61  88 120 152 200 255 304 357
#     4  11  21  38  62  91 119 152 198 255 308 354
#     4  10  22  37  60  87 117 154 202 243 296 363
#     4  11  24  40  61  89 118 160 206 241 297 372
#
# _framework density 19.468864
#
# number of rings (size 3 to 8) (size 9 to 14) (size 15 to 20)
#    0.000    1.250    0.000    7.875    0.000    8.000 
#    0.000   10.000    0.000    0.000    0.000    0.000 
#    0.000    0.000    0.000    0.000    0.000    0.000 
#
# Total GULP energy -178531.854808 kJ/mol
# GULP energy per Si atom -5579.120463 kJ/mol
# Density = 1.942455 g / cm^3
# Si number density = 19.468864 Si / 1000 Ang^3
#
#
#
# Elastic Constant Matrix: (Units=GPa)
#
#
# Indices 1 2 3 4 5 6 
#
# 1 90.2554 34.9376 18.0245 0.0000 0.0000 0.0000
# 2 34.9376 121.3172 60.5534 0.0000 0.0000 0.0000
# 3 18.0245 60.5534 107.0043 0.0000 0.0000 0.0000
# 4 0.0000 0.0000 0.0000 24.2805 0.0000 0.0000
# 5 0.0000 0.0000 0.0000 0.0000 33.0892 0.0000
# 6 0.0000 0.0000 0.0000 0.0000 0.0000 33.0568
#
#
#
# Elastic Compliance Matrix: (Units=1/GPa)
#
#
# Indices 1 2 3 4 5 6 
#
# 1 0.012470 -0.003544 -0.000095 0.000000 0.000000 0.000000
# 2 -0.003544 0.012495 -0.006474 0.000000 0.000000 0.000000
# 3 -0.000095 -0.006474 0.013025 0.000000 0.000000 0.000000
# 4 0.000000 0.000000 0.000000 0.041185 0.000000 0.000000
# 5 0.000000 0.000000 0.000000 0.000000 0.030221 0.000000
# 6 0.000000 0.000000 0.000000 0.000000 0.000000 0.030251
#
#
# Mechanical properties :
#
#
# Convention : Reuss Voigt Hill
#
# Bulk Modulus (GPa) = 56.29174 60.62310 58.45742
# Shear Modulus (GPa) = 30.15776 31.75604 30.95690
#
# Velocity S-wave (km/s) = 3.94004 4.04309 3.99190
# Velocity P-wave (km/s) = 7.04805 7.28022 7.16507
#
# Compressibility (1/GPa) = 0.01776460
#
# Stress axis : x y z
#
# Youngs Moduli (GPa) = 80.18937 80.03406 76.77584
#
# Poissons Ratio (x) = 0.28363 0.00731
# Poissons Ratio (y) = 0.28418 0.49703
# Poissons Ratio (z) = 0.00763 0.51812
#
# Static dielectric constant tensor:
#      x y z
#    x 1.695590 0.000000 0.000000 
#    y 0.000000 1.706580 0.000000 
#    z 0.000000 0.000000 1.712600 
# 
# From -- ./inp_files/39853.got.cif
#   From: 2010.05.17/outbox.cif.g08.bks.cpg/sg66_20_cif.got.tgz:39853.got - 2010.06.03 17:51:23.
