data_PCOD9498843
_publ_section_title
;
Structure prediction by ZEFSAII (Michael W. Deem and Ramdas Pophale) SiO2 
 PCOD9498843
Probable space group: C C C M
;
_chemical_formula_sum "Si O2"
_cell_formula_units_Z 120
_cell_length_a 20.193432
_cell_length_b 22.022596
_cell_length_c 14.008693
_cell_angle_alpha 90.000000
_cell_angle_beta 90.000000
_cell_angle_gamma 90.000000
_cell_volume 6229.831007
_symmetry_space_group_name_H-M "C C C M"
_symmetry_group_IT_number 66
_symmetry_cell_setting 'orthorhombic'
loop_
_space_group_symop_operation_xyz
x,y,z
-x,-y,z
x,-y,1/2-z
-x,y,1/2-z
-x,-y,-z
x,y,-z
-x,y,1/2+z
x,-y,1/2+z
1/2+x,1/2+y,z
1/2-x,1/2-y,z
1/2+x,1/2-y,1/2-z
1/2-x,1/2+y,1/2-z
1/2-x,1/2-y,-z
1/2+x,1/2+y,-z
1/2-x,1/2+y,1/2+z
1/2+x,1/2-y,1/2+z
loop_
_atom_site_type_symbol
_atom_site_label
_atom_site_fract_x
_atom_site_fract_y
_atom_site_fract_z
Si Si1 0.707233 0.097171 0.198081
Si Si2 0.907300 0.102081 0.000000
Si Si3 0.468039 0.232579 0.107159
Si Si4 0.658986 0.329607 0.826046
Si Si5 0.056069 0.866289 0.329394
Si Si6 0.261423 0.029586 0.891075
Si Si7 0.107039 0.298403 0.702793
Si Si8 0.604084 0.510199 0.137302
O O1 0.770531 0.137565 0.168138
O O2 0.707630 0.035838 0.135900
O O3 0.642622 0.138077 0.186647
O O4 0.717170 0.075950 0.308123
O O5 0.884378 0.149751 0.915891
O O6 0.917816 0.048883 0.918269
O O7 0.462614 0.305978 0.112990
O O8 0.418228 0.208077 0.187970
O O9 0.541473 0.213133 0.139880
O O10 0.453645 0.212587 0.000000
O O11 0.623050 0.353018 0.729648
O O12 0.657181 0.256955 0.818538
O O13 0.067214 0.927418 0.387526
O O14 0.000000 0.874298 0.250000
O O15 0.182244 0.019269 0.882514
O O16 0.276807 0.047122 0.000000
O O17 0.595094 0.500000 0.250000
#
# Coordination Sequence:
#
# PCOD9498843 Si02
#       8
#    16   8  16  16  16  16  16  16
#     4  11  21  39  62  90 126 164 197 251 322 367
#     4  12  22  36  58  84 126 165 209 253 311 355
#     4  10  22  42  63  86 118 157 208 262 302 365
#     4  11  20  39  58  84 127 159 206 264 301 359
#     4  11  21  39  58  80 118 169 213 250 303 353
#     4  11  20  36  61  91 126 157 197 248 305 382
#     4  10  23  41  64  88 120 164 206 256 314 366
#     4  12  20  37  56  81 122 168 204 254 303 355
#
# _framework density 19.262160000000002
#
# number of rings (size 3 to 8) (size 9 to 14) (size 15 to 20)
#    0.000    1.067    8.667    0.400    1.867    1.333 
#    0.000    1.333    0.000    8.800    0.000    7.467 
#    0.000    0.000    0.000    0.000    0.000    0.000 
#
# Total GULP energy -334335.259962 kJ/mol
# GULP energy per Si atom -5572.254333 kJ/mol
# Density = 1.921832 g / cm^3
# Si number density = 19.262160 Si / 1000 Ang^3
#
#
#
# Elastic Constant Matrix: (Units=GPa)
#
#
# Indices 1 2 3 4 5 6 
#
# 1 45.8012 26.3960 -7.5995 0.0000 0.0000 0.0000
# 2 26.3960 69.5028 -11.5935 0.0000 0.0000 0.0000
# 3 -7.5995 -11.5935 90.7296 0.0000 0.0000 0.0000
# 4 0.0000 0.0000 0.0000 3.9921 0.0000 0.0000
# 5 0.0000 0.0000 0.0000 0.0000 -8.2086 0.0000
# 6 0.0000 0.0000 0.0000 0.0000 0.0000 28.5646
#
#
#
# Elastic Compliance Matrix: (Units=1/GPa)
#
#
# Indices 1 2 3 4 5 6 
#
# 1 0.028042 -0.010481 0.001009 0.000000 0.000000 0.000000
# 2 -0.010481 0.018619 0.001501 0.000000 0.000000 0.000000
# 3 0.001009 0.001501 0.011298 0.000000 0.000000 0.000000
# 4 0.000000 0.000000 0.000000 0.250497 0.000000 0.000000
# 5 0.000000 0.000000 0.000000 0.000000 -0.121823 0.000000
# 6 0.000000 0.000000 0.000000 0.000000 0.000000 0.035008
#
#
# Mechanical properties :
#
#
# Convention : Reuss Voigt Hill
#
# Bulk Modulus (GPa) = 23.79969 24.49327 24.14648
# Shear Modulus (GPa) = 19.87375 18.12499 18.99937
#
# Velocity S-wave (km/s) = 3.21557 3.07084 3.14404
# Velocity P-wave (km/s) = 5.11557 5.03158 5.07375
#
# Compressibility (1/GPa) = 0.04201736
#
# Stress axis : x y z
#
# Youngs Moduli (GPa) = 35.66140 53.70870 88.51017
#
# Poissons Ratio (x) = 0.56294 -0.08935
# Poissons Ratio (y) = 0.37378 -0.13287
# Poissons Ratio (z) = -0.03600 -0.08063
#
# Static dielectric constant tensor:
#      x y z
#    x 1.689400 0.000000 0.000000 
#    y 0.000000 1.667460 0.000000 
#    z 0.000000 0.000000 1.703200 
# 
# From -- ./inp_files/31555.got.cif
#   From: 2010.05.17/outbox.cif.g08.bks.cpg/sg66_16_cif.got.tgz:31555.got - 2010.06.03 17:51:23.
