data_PCOD9498207
_publ_section_title
;
Structure prediction by ZEFSAII (Michael W. Deem and Ramdas Pophale) SiO2 
 PCOD9498207
Probable space group: C C C M
;
_chemical_formula_sum "Si O2"
_cell_formula_units_Z 96
_cell_length_a 22.094504
_cell_length_b 22.471361
_cell_length_c 9.706749
_cell_angle_alpha 90.000000
_cell_angle_beta 90.000000
_cell_angle_gamma 90.000000
_cell_volume 4819.338517
_symmetry_space_group_name_H-M "C C C M"
_symmetry_group_IT_number 66
_symmetry_cell_setting 'orthorhombic'
loop_
_space_group_symop_operation_xyz
x,y,z
-x,-y,z
x,-y,1/2-z
-x,y,1/2-z
-x,-y,-z
x,y,-z
-x,y,1/2+z
x,-y,1/2+z
1/2+x,1/2+y,z
1/2-x,1/2-y,z
1/2+x,1/2-y,1/2-z
1/2-x,1/2+y,1/2-z
1/2-x,1/2-y,-z
1/2+x,1/2+y,-z
1/2-x,1/2+y,1/2+z
1/2+x,1/2-y,1/2+z
loop_
_atom_site_type_symbol
_atom_site_label
_atom_site_fract_x
_atom_site_fract_y
_atom_site_fract_z
Si Si1 0.582871 0.558445 0.500000
Si Si2 0.157651 0.449929 0.159019
Si Si3 0.857213 0.268474 0.156379
Si Si4 0.938749 0.081797 0.500000
Si Si5 0.439964 0.885656 0.838841
Si Si6 0.761003 0.667744 0.842262
Si Si7 0.373498 0.360138 0.742375
O O1 0.511543 0.576319 0.500000
O O2 0.585198 0.486710 0.500000
O O3 0.614626 0.589624 0.629146
O O4 0.190253 0.500000 0.250000
O O5 0.100196 0.432622 0.253366
O O6 0.198519 0.391598 0.154247
O O7 0.144146 0.467006 0.000000
O O8 0.903377 0.323535 0.161335
O O9 0.802758 0.285458 0.259518
O O10 0.889860 0.206580 0.193126
O O11 0.833535 0.263611 0.000000
O O12 0.912754 0.117605 0.629512
O O13 0.500000 0.878083 0.750000
O O14 0.449990 0.901983 0.000000
O O15 0.697300 0.648924 0.776546
O O16 0.750312 0.685770 0.000000
#
# Coordination Sequence:
#
# PCOD9498207 Si02
#       7
#     8  16  16   8  16  16  16
#     4  11  26  46  67  92 130 172 219 278 330 379
#     4  10  21  39  60  88 124 164 207 256 310 364
#     4  10  23  41  63  96 132 165 206 262 320 376
#     4  11  26  46  67  92 130 172 219 278 330 379
#     4  10  21  39  60  88 124 164 207 256 310 364
#     4  10  23  41  63  96 132 165 206 262 320 376
#     4  12  23  43  68  98 124 170 216 257 319 394
#
# _framework density 19.919746
#
# number of rings (size 3 to 8) (size 9 to 14) (size 15 to 20)
#    0.000    1.500    1.667    2.500    2.333    7.000 
#    0.000    1.667    0.000    0.000    0.000    0.000 
#    0.000    0.000    0.000    0.000    0.000    0.000 
#
# Total GULP energy -267960.731422 kJ/mol
# GULP energy per Si atom -5582.515238 kJ/mol
# Density = 1.987441 g / cm^3
# Si number density = 19.919746 Si / 1000 Ang^3
#
#
#
# Elastic Constant Matrix: (Units=GPa)
#
#
# Indices 1 2 3 4 5 6 
#
# 1 64.6178 18.2285 25.6875 0.0000 0.0000 0.0000
# 2 18.2285 114.9600 45.3379 0.0000 0.0000 0.0000
# 3 25.6875 45.3379 152.0282 0.0000 0.0000 0.0000
# 4 0.0000 0.0000 0.0000 36.3880 0.0000 0.0000
# 5 0.0000 0.0000 0.0000 0.0000 20.7359 0.0000
# 6 0.0000 0.0000 0.0000 0.0000 0.0000 27.6624
#
#
#
# Elastic Compliance Matrix: (Units=1/GPa)
#
#
# Indices 1 2 3 4 5 6 
#
# 1 0.016899 -0.001760 -0.002330 0.000000 0.000000 0.000000
# 2 -0.001760 0.010042 -0.002697 0.000000 0.000000 0.000000
# 3 -0.002330 -0.002697 0.007776 0.000000 0.000000 0.000000
# 4 0.000000 0.000000 0.000000 0.027482 0.000000 0.000000
# 5 0.000000 0.000000 0.000000 0.000000 0.048225 0.000000
# 6 0.000000 0.000000 0.000000 0.000000 0.000000 0.036150
#
#
# Mechanical properties :
#
#
# Convention : Reuss Voigt Hill
#
# Bulk Modulus (GPa) = 47.30335 56.67931 51.99133
# Shear Modulus (GPa) = 29.90508 33.11405 31.50957
#
# Velocity S-wave (km/s) = 3.87884 4.08164 3.98153
# Velocity P-wave (km/s) = 6.62261 7.12241 6.87705
#
# Compressibility (1/GPa) = 0.02114015
#
# Stress axis : x y z
#
# Youngs Moduli (GPa) = 59.17648 99.58647 128.60412
#
# Poissons Ratio (x) = 0.17532 0.29968
# Poissons Ratio (y) = 0.10418 0.34686
# Poissons Ratio (z) = 0.13790 0.26860
#
# Static dielectric constant tensor:
#      x y z
#    x 1.681610 0.000000 0.000000 
#    y 0.000000 1.727490 0.000000 
#    z 0.000000 0.000000 1.884310 
# 
# From -- ./inp_files/9156.got.cif
#   From: 2010.05.17/outbox.cif.g08.bks.cpg/sg66_5_cif.got.tgz:9156.got - 2010.06.03 17:51:23.
