data_PCOD9498067
_publ_section_title
;
Structure prediction by ZEFSAII (Michael W. Deem and Ramdas Pophale) SiO2 
 PCOD9498067
Probable space group: C C C M
;
_chemical_formula_sum "Si O2"
_cell_formula_units_Z 88
_cell_length_a 30.530605
_cell_length_b 5.491720
_cell_length_c 24.604208
_cell_angle_alpha 90.000000
_cell_angle_beta 90.000000
_cell_angle_gamma 90.000000
_cell_volume 4125.277675
_symmetry_space_group_name_H-M "C C C M"
_symmetry_group_IT_number 66
_symmetry_cell_setting 'orthorhombic'
loop_
_space_group_symop_operation_xyz
x,y,z
-x,-y,z
x,-y,1/2-z
-x,y,1/2-z
-x,-y,-z
x,y,-z
-x,y,1/2+z
x,-y,1/2+z
1/2+x,1/2+y,z
1/2-x,1/2-y,z
1/2+x,1/2-y,1/2-z
1/2-x,1/2+y,1/2-z
1/2-x,1/2-y,-z
1/2+x,1/2+y,-z
1/2-x,1/2+y,1/2+z
1/2+x,1/2-y,1/2+z
loop_
_atom_site_type_symbol
_atom_site_label
_atom_site_fract_x
_atom_site_fract_y
_atom_site_fract_z
Si Si1 0.456373 0.889303 0.326811
Si Si2 0.375878 0.358141 0.197162
Si Si3 0.412245 0.296900 0.600037
Si Si4 0.682854 0.290812 0.062109
Si Si5 0.500000 0.500000 0.593184
Si Si6 0.201767 0.703043 0.626498
O O1 0.420587 0.779197 0.286564
O O2 0.478251 0.696652 0.367494
O O3 0.500000 0.000000 0.302618
O O4 0.428963 0.066770 0.365938
O O5 0.359860 0.500000 0.250000
O O6 0.393573 0.524454 0.147400
O O7 0.336772 0.201507 0.171286
O O8 0.369820 0.253509 0.563960
O O9 0.455674 0.388908 0.567796
O O10 0.692978 0.556035 0.088777
O O11 0.701114 0.054789 0.094527
O O12 0.697932 0.289431 0.000000
O O13 0.250000 0.750000 0.650158
#
# Coordination Sequence:
#
# PCOD9498067 Si02
#       6
#    16  16  16  16   8  16
#     4   9  16  33  56  81 117 165 203 254 311 367
#     4  10  21  38  58  88 126 168 209 262 316 381
#     4   9  18  35  56  84 121 166 206 260 314 373
#     4  11  23  41  68  96 127 166 212 268 333 389
#     4   8  16  30  56  80 118 166 204 254 316 366
#     4  11  24  44  66  94 130 168 215 269 326 390
#
# _framework density 21.331897000000001
#
# number of rings (size 3 to 8) (size 9 to 14) (size 15 to 20)
#    0.000    2.182    1.818    1.091    0.000    2.909 
#    0.000   25.000    0.000    4.909    0.000    0.000 
#    0.000    0.000    0.000    0.000    0.000    0.000 
#
# Total GULP energy -245065.676741 kJ/mol
# GULP energy per Si atom -5569.674471 kJ/mol
# Density = 2.128334 g / cm^3
# Si number density = 21.331897 Si / 1000 Ang^3
#
#
#
# Elastic Constant Matrix: (Units=GPa)
#
#
# Indices 1 2 3 4 5 6 
#
# 1 124.6887 -2.7636 2.3738 0.0000 0.0000 0.0000
# 2 -2.7636 69.0891 1.2524 0.0000 0.0000 0.0000
# 3 2.3738 1.2524 59.0572 0.0000 0.0000 0.0000
# 4 0.0000 0.0000 0.0000 135.4406 0.0000 0.0000
# 5 0.0000 0.0000 0.0000 0.0000 -10.6799 0.0000
# 6 0.0000 0.0000 0.0000 0.0000 0.0000 36.0665
#
#
#
# Elastic Compliance Matrix: (Units=1/GPa)
#
#
# Indices 1 2 3 4 5 6 
#
# 1 0.008034 0.000327 -0.000330 0.000000 0.000000 0.000000
# 2 0.000327 0.014493 -0.000321 0.000000 0.000000 0.000000
# 3 -0.000330 -0.000321 0.016953 0.000000 0.000000 0.000000
# 4 0.000000 0.000000 0.000000 0.007383 0.000000 0.000000
# 5 0.000000 0.000000 0.000000 0.000000 -0.093634 0.000000
# 6 0.000000 0.000000 0.000000 0.000000 0.000000 0.027727
#
#
# Mechanical properties :
#
#
# Convention : Reuss Voigt Hill
#
# Bulk Modulus (GPa) = 25.75117 28.28447 27.01782
# Shear Modulus (GPa) = -916.72045 48.96360 -433.87843
#
# Velocity S-wave (km/s) = -20.75270 4.79615 -14.27711
# Velocity P-wave (km/s) = 23.70938 6.63014 16.09621
#
# Compressibility (1/GPa) = 0.03883318
#
# Stress axis : x y z
#
# Youngs Moduli (GPa) = 124.47859 68.99902 58.98736
#
# Poissons Ratio (x) = -0.02259 0.01946
# Poissons Ratio (y) = -0.04074 0.01891
# Poissons Ratio (z) = 0.04106 0.02212
#
# Static dielectric constant tensor:
#      x y z
#    x 1.766680 0.000000 0.000000 
#    y 0.000000 1.892170 0.000000 
#    z 0.000000 0.000000 1.730120 
# 
# From -- ./inp_files/66407.got.cif
#   From: 2010.05.17/outbox.cif.g08.bks.cpg/sg66_34_cif.got.tgz:66407.got - 2010.06.03 17:51:23.
