data_PCOD9498709
_publ_section_title
;
Structure prediction by ZEFSAII (Michael W. Deem and Ramdas Pophale) SiO2 
 PCOD9498709
Probable space group: C C C M
;
_chemical_formula_sum "Si O2"
_cell_formula_units_Z 80
_cell_length_a 20.356502
_cell_length_b 12.393768
_cell_length_c 18.640442
_cell_angle_alpha 90.000000
_cell_angle_beta 90.000000
_cell_angle_gamma 90.000000
_cell_volume 4702.867258
_symmetry_space_group_name_H-M "C C C M"
_symmetry_group_IT_number 66
_symmetry_cell_setting 'orthorhombic'
loop_
_space_group_symop_operation_xyz
x,y,z
-x,-y,z
x,-y,1/2-z
-x,y,1/2-z
-x,-y,-z
x,y,-z
-x,y,1/2+z
x,-y,1/2+z
1/2+x,1/2+y,z
1/2-x,1/2-y,z
1/2+x,1/2-y,1/2-z
1/2-x,1/2+y,1/2-z
1/2-x,1/2-y,-z
1/2+x,1/2+y,-z
1/2-x,1/2+y,1/2+z
1/2+x,1/2-y,1/2+z
loop_
_atom_site_type_symbol
_atom_site_label
_atom_site_fract_x
_atom_site_fract_y
_atom_site_fract_z
Si Si1 0.191969 0.929454 0.415710
Si Si2 0.250000 0.750000 0.689410
Si Si3 0.438221 0.562878 0.325705
Si Si4 0.636846 0.122751 0.778284
Si Si5 0.785075 0.635075 0.419444
Si Si6 0.000000 0.263849 0.750000
O O1 0.190656 0.898259 0.500000
O O2 0.226747 0.844321 0.363524
O O3 0.120530 0.939973 0.380916
O O4 0.231062 0.041670 0.410194
O O5 0.310609 0.798809 0.736492
O O6 0.500000 0.500000 0.356773
O O7 0.421236 0.500000 0.250000
O O8 0.465609 0.681144 0.306154
O O9 0.660059 0.122942 0.860045
O O10 0.562219 0.165289 0.773918
O O11 0.641961 0.000000 0.750000
O O12 0.811689 0.626951 0.500000
O O13 0.750000 0.750000 0.411381
#
# Coordination Sequence:
#
# PCOD9498709 Si02
#       6
#    16   8  16  16  16   8
#     4  11  23  40  61  90 124 155 196 250 306 360
#     4  12  23  38  65  92 116 158 204 252 297 350
#     4   9  21  36  60  88 118 152 198 251 299 353
#     4  12  23  38  66  88 118 161 208 246 297 362
#     4  10  23  38  58  92 126 156 194 251 305 351
#     4  10  22  40  58  88 120 156 204 250 290 356
#
# _framework density 17.010898999999998
#
# number of rings (size 3 to 8) (size 9 to 14) (size 15 to 20)
#    0.000    1.600    5.000    0.600    8.400    0.400 
#    0.000    1.000    0.000    1.200    0.000    0.000 
#    0.000    0.000    0.000    0.000    0.000    0.000 
#
# Total GULP energy -223010.814574 kJ/mol
# GULP energy per Si atom -5575.270364 kJ/mol
# Density = 1.697218 g / cm^3
# Si number density = 17.010899 Si / 1000 Ang^3
#
#
#
# Elastic Constant Matrix: (Units=GPa)
#
#
# Indices 1 2 3 4 5 6 
#
# 1 137.5380 49.2193 88.1953 0.0000 0.0000 0.0000
# 2 49.2193 112.7933 61.9541 0.0000 0.0000 0.0000
# 3 88.1953 61.9541 125.2637 0.0000 0.0000 0.0000
# 4 0.0000 0.0000 0.0000 26.6269 0.0000 0.0000
# 5 0.0000 0.0000 0.0000 0.0000 209.1026 0.0000
# 6 0.0000 0.0000 0.0000 0.0000 0.0000 83.1043
#
#
#
# Elastic Compliance Matrix: (Units=1/GPa)
#
#
# Indices 1 2 3 4 5 6 
#
# 1 0.013323 -0.000908 -0.008931 0.000000 0.000000 0.000000
# 2 -0.000908 0.012235 -0.005412 0.000000 0.000000 0.000000
# 3 -0.008931 -0.005412 0.016948 0.000000 0.000000 0.000000
# 4 0.000000 0.000000 0.000000 0.037556 0.000000 0.000000
# 5 0.000000 0.000000 0.000000 0.000000 0.004782 0.000000
# 6 0.000000 0.000000 0.000000 0.000000 0.000000 0.012033
#
#
# Mechanical properties :
#
#
# Convention : Reuss Voigt Hill
#
# Bulk Modulus (GPa) = 83.30964 86.03694 84.67329
# Shear Modulus (GPa) = 38.05771 75.51517 56.78644
#
# Velocity S-wave (km/s) = 4.73509 6.66998 5.78402
# Velocity P-wave (km/s) = 8.88681 10.48835 9.72062
#
# Compressibility (1/GPa) = 0.01200341
#
# Stress axis : x y z
#
# Youngs Moduli (GPa) = 75.06016 81.73593 59.00416
#
# Poissons Ratio (x) = 0.07421 0.52697
# Poissons Ratio (y) = 0.06815 0.31932
# Poissons Ratio (z) = 0.67037 0.44234
#
# Static dielectric constant tensor:
#      x y z
#    x 1.564630 0.000000 0.000000 
#    y 0.000000 1.603870 0.000000 
#    z 0.000000 0.000000 1.575950 
# 
# From -- ./inp_files/42715.got.cif
#   From: 2010.05.17/outbox.cif.g08.bks.cpg/sg66_22_cif.got.tgz:42715.got - 2010.06.03 17:51:23.
