data_PCOD9498416
_publ_section_title
;
Structure prediction by ZEFSAII (Michael W. Deem and Ramdas Pophale) SiO2 
 PCOD9498416
Probable space group: C C C M
;
_chemical_formula_sum "Si O2"
_cell_formula_units_Z 80
_cell_length_a 8.536334
_cell_length_b 23.813286
_cell_length_c 16.642944
_cell_angle_alpha 90.000000
_cell_angle_beta 90.000000
_cell_angle_gamma 90.000000
_cell_volume 3383.147082
_symmetry_space_group_name_H-M "C C C M"
_symmetry_group_IT_number 66
_symmetry_cell_setting 'orthorhombic'
loop_
_space_group_symop_operation_xyz
x,y,z
-x,-y,z
x,-y,1/2-z
-x,y,1/2-z
-x,-y,-z
x,y,-z
-x,y,1/2+z
x,-y,1/2+z
1/2+x,1/2+y,z
1/2-x,1/2-y,z
1/2+x,1/2-y,1/2-z
1/2-x,1/2+y,1/2-z
1/2-x,1/2-y,-z
1/2+x,1/2+y,-z
1/2-x,1/2+y,1/2+z
1/2+x,1/2-y,1/2+z
loop_
_atom_site_type_symbol
_atom_site_label
_atom_site_fract_x
_atom_site_fract_y
_atom_site_fract_z
Si Si1 0.107944 0.705728 0.912293
Si Si2 0.107383 0.875772 0.405961
Si Si3 0.190647 0.996602 0.591823
Si Si4 0.186084 0.693330 0.695560
Si Si5 0.268651 0.609308 0.835249
O O1 0.250000 0.750000 0.906112
O O2 0.982693 0.706469 0.841032
O O3 0.182604 0.643952 0.904992
O O4 0.034815 0.714173 0.000000
O O5 0.062508 0.875676 0.500000
O O6 0.203232 0.821863 0.379790
O O7 0.953372 0.880568 0.350915
O O8 0.216501 0.930896 0.393261
O O9 0.237360 0.010258 0.500000
O O10 0.255845 0.042924 0.652748
O O11 0.000000 0.000000 0.594448
O O12 0.250000 0.750000 0.734403
O O13 0.211005 0.640373 0.754812
#
# Coordination Sequence:
#
# PCOD9498416 Si02
#       5
#    16  16  16  16  16
#     4  11  24  42  65  90 121 172 231 280 333 399
#     4  10  21  40  68  99 131 171 220 272 327 394
#     4   8  16  34  63  97 129 165 215 268 317 385
#     4  12  26  41  59  93 136 173 218 279 341 397
#     4  11  21  38  64  94 131 173 215 265 330 398
#
# _framework density 23.646622000000001
#
# number of rings (size 3 to 8) (size 9 to 14) (size 15 to 20)
#    0.000    1.600    0.000    6.600    0.000    5.600 
#    0.000    4.000    0.000    6.000    0.000    0.000 
#    0.000    0.000    0.000    0.000    0.000    0.000 
#
# Total GULP energy -223508.711958 kJ/mol
# GULP energy per Si atom -5587.717799 kJ/mol
# Density = 2.359280 g / cm^3
# Si number density = 23.646622 Si / 1000 Ang^3
#
#
#
# Elastic Constant Matrix: (Units=GPa)
#
#
# Indices 1 2 3 4 5 6 
#
# 1 68.2483 21.2531 44.9002 0.0000 0.0000 0.0000
# 2 21.2531 102.2992 50.4689 0.0000 0.0000 0.0000
# 3 44.9002 50.4689 154.4606 0.0000 0.0000 0.0000
# 4 0.0000 0.0000 0.0000 40.7430 0.0000 0.0000
# 5 0.0000 0.0000 0.0000 0.0000 31.7736 0.0000
# 6 0.0000 0.0000 0.0000 0.0000 0.0000 29.3592
#
#
#
# Elastic Compliance Matrix: (Units=1/GPa)
#
#
# Indices 1 2 3 4 5 6 
#
# 1 0.018284 -0.001403 -0.004857 0.000000 0.000000 0.000000
# 2 -0.001403 0.011761 -0.003435 0.000000 0.000000 0.000000
# 3 -0.004857 -0.003435 0.009008 0.000000 0.000000 0.000000
# 4 0.000000 0.000000 0.000000 0.024544 0.000000 0.000000
# 5 0.000000 0.000000 0.000000 0.000000 0.031473 0.000000
# 6 0.000000 0.000000 0.000000 0.000000 0.000000 0.034061
#
#
# Mechanical properties :
#
#
# Convention : Reuss Voigt Hill
#
# Bulk Modulus (GPa) = 50.85182 62.02805 56.43994
# Shear Modulus (GPa) = 32.24223 34.26757 33.25490
#
# Velocity S-wave (km/s) = 3.69657 3.81090 3.75417
# Velocity P-wave (km/s) = 6.30643 6.75664 6.53541
#
# Compressibility (1/GPa) = 0.01966498
#
# Stress axis : x y z
#
# Youngs Moduli (GPa) = 54.69132 85.02389 111.00730
#
# Poissons Ratio (x) = 0.11925 0.53914
# Poissons Ratio (y) = 0.07671 0.38134
# Poissons Ratio (z) = 0.26563 0.29208
#
# Static dielectric constant tensor:
#      x y z
#    x 1.948400 0.000000 0.000000 
#    y 0.000000 1.910550 0.000000 
#    z 0.000000 0.000000 1.914700 
# 
# From -- ./inp_files/40424.got.cif
#   From: 2010.05.17/outbox.cif.g08.bks.cpg/sg66_21_cif.got.tgz:40424.got - 2010.06.03 17:51:23.
