data_PCOD9498081
_publ_section_title
;
Structure prediction by ZEFSAII (Michael W. Deem and Ramdas Pophale) SiO2 
 PCOD9498081
Probable space group: C C C M
;
_chemical_formula_sum "Si O2"
_cell_formula_units_Z 88
_cell_length_a 13.769693
_cell_length_b 23.236667
_cell_length_c 15.007338
_cell_angle_alpha 90.000000
_cell_angle_beta 90.000000
_cell_angle_gamma 90.000000
_cell_volume 4801.774443
_symmetry_space_group_name_H-M "C C C M"
_symmetry_group_IT_number 66
_symmetry_cell_setting 'orthorhombic'
loop_
_space_group_symop_operation_xyz
x,y,z
-x,-y,z
x,-y,1/2-z
-x,y,1/2-z
-x,-y,-z
x,y,-z
-x,y,1/2+z
x,-y,1/2+z
1/2+x,1/2+y,z
1/2-x,1/2-y,z
1/2+x,1/2-y,1/2-z
1/2-x,1/2+y,1/2-z
1/2-x,1/2-y,-z
1/2+x,1/2+y,-z
1/2-x,1/2+y,1/2+z
1/2+x,1/2-y,1/2+z
loop_
_atom_site_type_symbol
_atom_site_label
_atom_site_fract_x
_atom_site_fract_y
_atom_site_fract_z
Si Si1 0.224187 0.062378 0.000000
Si Si2 0.043429 0.436084 0.000000
Si Si3 0.045817 0.781493 0.605534
Si Si4 0.578390 0.384706 0.180047
Si Si5 0.715777 0.642586 0.166910
Si Si6 0.551519 0.150642 0.656878
Si Si7 0.091346 0.042707 0.500000
O O1 0.339936 0.060246 0.000000
O O2 0.191060 0.097032 0.088160
O O3 0.183391 0.998766 0.000000
O O4 0.018978 0.397454 0.086120
O O5 0.000000 0.500000 0.000000
O O6 0.044357 0.791303 0.500000
O O7 0.151277 0.801606 0.641955
O O8 0.026369 0.715020 0.625011
O O9 0.967545 0.823153 0.652023
O O10 0.500000 0.410649 0.250000
O O11 0.675875 0.377898 0.237616
O O12 0.588930 0.419979 0.089733
O O13 0.831119 0.649958 0.165349
O O14 0.500000 0.139605 0.750000
O O15 0.000000 0.000000 0.500000
#
# Coordination Sequence:
#
# PCOD9498081 Si02
#       7
#     8   8  16  16  16  16   8
#     4  10  22  37  60  85 110 154 210 244 278 344
#     4  10  24  44  61  84 113 150 201 254 292 324
#     4  11  19  36  63  91 121 151 186 234 294 356
#     4  10  22  36  56  87 124 156 188 237 295 352
#     4  10  21  38  59  88 119 152 195 244 291 341
#     4  11  23  39  64  90 114 152 198 241 293 350
#     4  12  22  35  55  83 122 160 197 234 289 346
#
# _framework density 18.326559
#
# number of rings (size 3 to 8) (size 9 to 14) (size 15 to 20)
#    0.000    1.455    2.727    4.364    0.000    5.091 
#    0.000    3.636    0.000    1.091    0.000    0.000 
#    0.000    0.000    0.000    0.000    0.000    0.000 
#
# Total GULP energy -245697.510870 kJ/mol
# GULP energy per Si atom -5584.034338 kJ/mol
# Density = 1.828485 g / cm^3
# Si number density = 18.326559 Si / 1000 Ang^3
#
#
#
# Elastic Constant Matrix: (Units=GPa)
#
#
# Indices 1 2 3 4 5 6 
#
# 1 39.8444 37.1923 41.9213 0.0000 0.0000 0.0000
# 2 37.1923 142.1009 81.4883 0.0000 0.0000 0.0000
# 3 41.9213 81.4883 182.2342 0.0000 0.0000 0.0000
# 4 0.0000 0.0000 0.0000 1.9490 0.0000 0.0000
# 5 0.0000 0.0000 0.0000 0.0000 29.3742 0.0000
# 6 0.0000 0.0000 0.0000 0.0000 0.0000 29.2832
#
#
#
# Elastic Compliance Matrix: (Units=1/GPa)
#
#
# Indices 1 2 3 4 5 6 
#
# 1 0.037064 -0.006471 -0.005633 0.000000 0.000000 0.000000
# 2 -0.006471 0.010594 -0.003249 0.000000 0.000000 0.000000
# 3 -0.005633 -0.003249 0.008236 0.000000 0.000000 0.000000
# 4 0.000000 0.000000 0.000000 0.513073 0.000000 0.000000
# 5 0.000000 0.000000 0.000000 0.000000 0.034043 0.000000
# 6 0.000000 0.000000 0.000000 0.000000 0.000000 0.034149
#
#
# Mechanical properties :
#
#
# Convention : Reuss Voigt Hill
#
# Bulk Modulus (GPa) = 39.69909 76.15369 57.92639
# Shear Modulus (GPa) = 7.39360 25.69315 16.54338
#
# Velocity S-wave (km/s) = 2.01075 3.74834 3.00776
# Velocity P-wave (km/s) = 5.20576 7.77029 6.61352
#
# Compressibility (1/GPa) = 0.02518949
#
# Stress axis : x y z
#
# Youngs Moduli (GPa) = 26.98035 94.39525 121.41997
#
# Poissons Ratio (x) = 0.61080 0.68394
# Poissons Ratio (y) = 0.17458 0.39445
# Poissons Ratio (z) = 0.15198 0.30665
#
# Static dielectric constant tensor:
#      x y z
#    x 1.643490 0.000000 0.000000 
#    y 0.000000 1.634670 0.000000 
#    z 0.000000 0.000000 1.632370 
# 
# From -- ./inp_files/28251.got.cif
#   From: 2010.05.17/outbox.cif.g08.bks.cpg/sg66_15_cif.got.tgz:28251.got - 2010.06.03 17:51:23.
