data_PCOD9498245
_publ_section_title
;
Structure prediction by ZEFSAII (Michael W. Deem and Ramdas Pophale) SiO2 
 PCOD9498245
Probable space group: C C C M
;
_chemical_formula_sum "Si O2"
_cell_formula_units_Z 88
_cell_length_a 11.928164
_cell_length_b 12.970146
_cell_length_c 24.740698
_cell_angle_alpha 90.000000
_cell_angle_beta 90.000000
_cell_angle_gamma 90.000000
_cell_volume 3827.634095
_symmetry_space_group_name_H-M "C C C M"
_symmetry_group_IT_number 66
_symmetry_cell_setting 'orthorhombic'
loop_
_space_group_symop_operation_xyz
x,y,z
-x,-y,z
x,-y,1/2-z
-x,y,1/2-z
-x,-y,-z
x,y,-z
-x,y,1/2+z
x,-y,1/2+z
1/2+x,1/2+y,z
1/2-x,1/2-y,z
1/2+x,1/2-y,1/2-z
1/2-x,1/2+y,1/2-z
1/2-x,1/2-y,-z
1/2+x,1/2+y,-z
1/2-x,1/2+y,1/2+z
1/2+x,1/2-y,1/2+z
loop_
_atom_site_type_symbol
_atom_site_label
_atom_site_fract_x
_atom_site_fract_y
_atom_site_fract_z
Si Si1 0.956975 0.340662 0.381505
Si Si2 0.224507 0.543291 0.309382
Si Si3 0.782685 0.367842 0.885209
Si Si4 0.423553 0.601425 0.500000
Si Si5 0.966183 0.664850 0.000000
Si Si6 0.579083 0.397229 0.622689
Si Si7 0.277601 0.871043 0.000000
O O1 0.879472 0.396616 0.337397
O O2 0.909473 0.359023 0.442635
O O3 0.974307 0.217497 0.374218
O O4 0.083470 0.382066 0.382605
O O5 0.200654 0.500000 0.250000
O O6 0.261259 0.438552 0.339109
O O7 0.332570 0.608911 0.327647
O O8 0.750000 0.250000 0.879271
O O9 0.736124 0.406881 0.942574
O O10 0.500000 0.500000 0.500000
O O11 0.488309 0.711549 0.500000
O O12 0.370717 0.603694 0.560696
O O13 0.088651 0.613939 0.000000
O O14 0.500000 0.500000 0.626783
O O15 0.250000 0.750000 0.000000
#
# Coordination Sequence:
#
# PCOD9498245 Si02
#       7
#    16  16  16   8   8  16   8
#     4  10  21  40  64  92 128 163 198 255 319 381
#     4  12  27  42  57  85 122 166 219 263 310 368
#     4  10  21  39  63  90 120 158 204 255 313 378
#     4   8  16  31  60  95 126 154 186 242 320 388
#     4   8  16  32  56  90 124 156 196 240 310 390
#     4  10  21  41  67  96 126 159 202 255 315 386
#     4   8  16  31  56  87 118 150 192 250 314 376
#
# _framework density 22.990701999999999
#
# number of rings (size 3 to 8) (size 9 to 14) (size 15 to 20)
#    0.000    2.182    0.000    2.182    0.000    9.818 
#    0.000    7.273    0.000    0.000    0.000    0.000 
#    0.000    0.000    0.000    0.000    0.000    0.000 
#
# Total GULP energy -245003.788559 kJ/mol
# GULP energy per Si atom -5568.267922 kJ/mol
# Density = 2.293837 g / cm^3
# Si number density = 22.990702 Si / 1000 Ang^3
#
#
#
# Elastic Constant Matrix: (Units=GPa)
#
#
# Indices 1 2 3 4 5 6 
#
# 1 65.1790 3.8478 16.3793 0.0000 0.0000 0.0000
# 2 3.8478 87.2308 25.2541 0.0000 0.0000 0.0000
# 3 16.3793 25.2541 133.6829 0.0000 0.0000 0.0000
# 4 0.0000 0.0000 0.0000 32.5257 0.0000 0.0000
# 5 0.0000 0.0000 0.0000 0.0000 623.9469 0.0000
# 6 0.0000 0.0000 0.0000 0.0000 0.0000 42.1592
#
#
#
# Elastic Compliance Matrix: (Units=1/GPa)
#
#
# Indices 1 2 3 4 5 6 
#
# 1 0.015831 -0.000145 -0.001912 0.000000 0.000000 0.000000
# 2 -0.000145 0.012128 -0.002273 0.000000 0.000000 0.000000
# 3 -0.001912 -0.002273 0.008144 0.000000 0.000000 0.000000
# 4 0.000000 0.000000 0.000000 0.030745 0.000000 0.000000
# 5 0.000000 0.000000 0.000000 0.000000 0.001603 0.000000
# 6 0.000000 0.000000 0.000000 0.000000 0.000000 0.023720
#
#
# Mechanical properties :
#
#
# Convention : Reuss Voigt Hill
#
# Bulk Modulus (GPa) = 36.43916 41.89502 39.16709
# Shear Modulus (GPa) = 45.46279 155.76713 100.61496
#
# Velocity S-wave (km/s) = 4.45167 8.24010 6.62256
# Velocity P-wave (km/s) = 6.50439 10.43046 8.69200
#
# Compressibility (1/GPa) = 0.02744300
#
# Stress axis : x y z
#
# Youngs Moduli (GPa) = 63.16525 82.45099 122.78705
#
# Poissons Ratio (x) = 0.01193 0.23482
# Poissons Ratio (y) = 0.00914 0.27915
# Poissons Ratio (z) = 0.12080 0.18745
#
# Static dielectric constant tensor:
#      x y z
#    x 1.944210 0.000000 0.000000 
#    y 0.000000 1.903000 0.000000 
#    z 0.000000 0.000000 1.825690 
# 
# From -- ./inp_files/56810.got.cif
#   From: 2010.05.17/outbox.cif.g08.bks.cpg/sg66_29_cif.got.tgz:56810.got - 2010.06.03 17:51:23.
