data_PCOD9498413
_publ_section_title
;
Structure prediction by ZEFSAII (Michael W. Deem and Ramdas Pophale) SiO2 
 PCOD9498413
Probable space group: C C C M
;
_chemical_formula_sum "Si O2"
_cell_formula_units_Z 116
_cell_length_a 27.851481
_cell_length_b 9.195425
_cell_length_c 22.850989
_cell_angle_alpha 90.000000
_cell_angle_beta 90.000000
_cell_angle_gamma 90.000000
_cell_volume 5852.280066
_symmetry_space_group_name_H-M "C C C M"
_symmetry_group_IT_number 66
_symmetry_cell_setting 'orthorhombic'
loop_
_space_group_symop_operation_xyz
x,y,z
-x,-y,z
x,-y,1/2-z
-x,y,1/2-z
-x,-y,-z
x,y,-z
-x,y,1/2+z
x,-y,1/2+z
1/2+x,1/2+y,z
1/2-x,1/2-y,z
1/2+x,1/2-y,1/2-z
1/2-x,1/2+y,1/2-z
1/2-x,1/2-y,-z
1/2+x,1/2+y,-z
1/2-x,1/2+y,1/2+z
1/2+x,1/2-y,1/2+z
loop_
_atom_site_type_symbol
_atom_site_label
_atom_site_fract_x
_atom_site_fract_y
_atom_site_fract_z
Si Si1 0.778514 0.404610 0.307468
Si Si2 0.447836 0.773393 0.760201
Si Si3 0.500000 0.500000 0.250000
Si Si4 0.551665 0.923018 0.372638
Si Si5 0.457520 0.390051 0.570203
Si Si6 0.382475 0.165238 0.848161
Si Si7 0.245975 0.927584 0.564692
Si Si8 0.635305 0.428307 0.566606
O O1 0.766672 0.500000 0.250000
O O2 0.750000 0.250000 0.303516
O O3 0.919915 0.275353 0.299968
O O4 0.733198 0.028385 0.372060
O O5 0.500000 0.840811 0.750000
O O6 0.463776 0.611939 0.781398
O O7 0.425959 0.867169 0.811154
O O8 0.367028 0.706345 0.609603
O O9 0.541737 0.775388 0.407760
O O10 0.500000 0.000000 0.368004
O O11 0.590848 0.044646 0.388198
O O12 0.500000 0.500000 0.591097
O O13 0.461929 0.384826 0.500000
O O14 0.405416 0.457419 0.584502
O O15 0.309509 0.477137 0.933776
O O16 0.265834 0.972726 0.500000
O O17 0.250000 0.750000 0.564385
O O18 0.164374 0.618038 0.687690
O O19 0.623628 0.383268 0.500000
#
# Coordination Sequence:
#
# PCOD9498413 Si02
#       8
#    16  16   4  16  16  16  16  16
#     4  11  23  44  64  97 138 172 214 276 335 398
#     4  10  22  36  56  85 122 156 203 262 308 368
#     4   8  20  36  54  84 110 148 210 264 288 362
#     4  12  23  38  63  87 127 168 207 263 317 385
#     4  10  24  42  60  90 131 169 209 265 323 384
#     4  12  23  40  64  94 127 170 213 262 334 386
#     4   9  17  38  69  96 121 165 223 275 319 384
#     4  10  21  40  68  95 125 164 220 276 323 382
#
# _framework density 19.821335000000001
#
# number of rings (size 3 to 8) (size 9 to 14) (size 15 to 20)
#    0.414    1.103    4.138    2.069    2.897    0.828 
#    6.207    0.000    0.000    0.414    0.000    0.000 
#    0.000    0.000    0.000    0.000    0.000    0.000 
#
# Total GULP energy -322874.536065 kJ/mol
# GULP energy per Si atom -5566.802346 kJ/mol
# Density = 1.977622 g / cm^3
# Si number density = 19.821335 Si / 1000 Ang^3
#
#
#
# Elastic Constant Matrix: (Units=GPa)
#
#
# Indices 1 2 3 4 5 6 
#
# 1 89.8983 20.7733 18.7535 0.0000 0.0000 0.0000
# 2 20.7733 77.2458 24.6712 0.0000 0.0000 0.0000
# 3 18.7535 24.6712 105.8890 0.0000 0.0000 0.0000
# 4 0.0000 0.0000 0.0000 22.0234 0.0000 0.0000
# 5 0.0000 0.0000 0.0000 0.0000 25.6115 0.0000
# 6 0.0000 0.0000 0.0000 0.0000 0.0000 24.5509
#
#
#
# Elastic Compliance Matrix: (Units=1/GPa)
#
#
# Indices 1 2 3 4 5 6 
#
# 1 0.012075 -0.002770 -0.001493 0.000000 0.000000 0.000000
# 2 -0.002770 0.014622 -0.002916 0.000000 0.000000 0.000000
# 3 -0.001493 -0.002916 0.010388 0.000000 0.000000 0.000000
# 4 0.000000 0.000000 0.000000 0.045406 0.000000 0.000000
# 5 0.000000 0.000000 0.000000 0.000000 0.039045 0.000000
# 6 0.000000 0.000000 0.000000 0.000000 0.000000 0.040732
#
#
# Mechanical properties :
#
#
# Convention : Reuss Voigt Hill
#
# Bulk Modulus (GPa) = 44.00305 44.60323 44.30314
# Shear Modulus (GPa) = 27.14398 28.35949 27.75173
#
# Velocity S-wave (km/s) = 3.70460 3.78664 3.74584
# Velocity P-wave (km/s) = 6.36763 6.45520 6.41157
#
# Compressibility (1/GPa) = 0.02272570
#
# Stress axis : x y z
#
# Youngs Moduli (GPa) = 82.81337 68.38948 96.26747
#
# Poissons Ratio (x) = 0.18947 0.14374
# Poissons Ratio (y) = 0.22943 0.28073
# Poissons Ratio (z) = 0.12365 0.19943
#
# Static dielectric constant tensor:
#      x y z
#    x 1.250420 0.000000 0.000000 
#    y 0.000000 1.724570 0.000000 
#    z 0.000000 0.000000 1.749930 
# 
# From -- ./inp_files/60503.got.cif
#   From: 2010.05.17/outbox.cif.g08.bks.cpg/sg66_31_cif.got.tgz:60503.got - 2010.06.03 17:51:23.
