data_PCOD9498346
_publ_section_title
;
Structure prediction by ZEFSAII (Michael W. Deem and Ramdas Pophale) SiO2 
 PCOD9498346
Probable space group: C C C M
;
_chemical_formula_sum "Si O2"
_cell_formula_units_Z 88
_cell_length_a 17.164483
_cell_length_b 13.492823
_cell_length_c 19.530504
_cell_angle_alpha 90.000000
_cell_angle_beta 90.000000
_cell_angle_gamma 90.000000
_cell_volume 4523.212600
_symmetry_space_group_name_H-M "C C C M"
_symmetry_group_IT_number 66
_symmetry_cell_setting 'orthorhombic'
loop_
_space_group_symop_operation_xyz
x,y,z
-x,-y,z
x,-y,1/2-z
-x,y,1/2-z
-x,-y,-z
x,y,-z
-x,y,1/2+z
x,-y,1/2+z
1/2+x,1/2+y,z
1/2-x,1/2-y,z
1/2+x,1/2-y,1/2-z
1/2-x,1/2+y,1/2-z
1/2-x,1/2-y,-z
1/2+x,1/2+y,-z
1/2-x,1/2+y,1/2+z
1/2+x,1/2-y,1/2+z
loop_
_atom_site_type_symbol
_atom_site_label
_atom_site_fract_x
_atom_site_fract_y
_atom_site_fract_z
Si Si1 0.433527 0.917026 0.078447
Si Si2 0.417994 0.237220 0.228282
Si Si3 0.041260 0.774178 0.425406
Si Si4 0.000000 0.000000 0.401097
Si Si5 0.634513 0.421902 0.191110
Si Si6 0.808172 0.591791 0.697801
O O1 0.471665 0.806931 0.080714
O O2 0.365792 0.924805 0.134004
O O3 0.500000 0.000000 0.092549
O O4 0.406876 0.933703 0.000000
O O5 0.500000 0.185668 0.250000
O O6 0.414893 0.259063 0.147224
O O7 0.415968 0.335562 0.274581
O O8 0.344164 0.178050 0.255550
O O9 0.079642 0.751125 0.500000
O O10 0.015155 0.888948 0.429848
O O11 0.919473 0.977584 0.362273
O O12 0.649462 0.500000 0.250000
O O13 0.720860 0.387702 0.170465
O O14 0.809853 0.500000 0.750000
#
# Coordination Sequence:
#
# PCOD9498346 Si02
#       6
#    16  16  16   8  16  16
#     4  10  21  40  63  89 126 168 212 263 328 392
#     4  12  20  37  64  87 119 164 208 261 314 375
#     4  11  23  36  60  93 122 164 216 262 314 384
#     4  12  20  40  64  88 128 166 214 264 316 382
#     4  11  21  37  61  91 120 158 212 263 311 373
#     4  11  24  36  60  94 123 156 214 266 314 378
#
# _framework density 19.455197999999999
#
# number of rings (size 3 to 8) (size 9 to 14) (size 15 to 20)
#    0.000    0.909    5.455    2.182    0.000    0.000 
#    0.000    1.818    0.000    5.455    0.000    0.000 
#    0.000    0.000    0.000    0.000    0.000    0.000 
#
# Total GULP energy -245018.346270 kJ/mol
# GULP energy per Si atom -5568.598779 kJ/mol
# Density = 1.941092 g / cm^3
# Si number density = 19.455198 Si / 1000 Ang^3
#
#
#
# Elastic Constant Matrix: (Units=GPa)
#
#
# Indices 1 2 3 4 5 6 
#
# 1 125.1206 36.6026 68.4055 0.0000 0.0000 0.0000
# 2 36.6026 80.3392 24.1212 0.0000 0.0000 0.0000
# 3 68.4055 24.1212 144.2843 0.0000 0.0000 0.0000
# 4 0.0000 0.0000 0.0000 5.1715 0.0000 0.0000
# 5 0.0000 0.0000 0.0000 0.0000 -217.4650 0.0000
# 6 0.0000 0.0000 0.0000 0.0000 0.0000 30.0462
#
#
#
# Elastic Compliance Matrix: (Units=1/GPa)
#
#
# Indices 1 2 3 4 5 6 
#
# 1 0.011850 -0.003908 -0.004965 0.000000 0.000000 0.000000
# 2 -0.003908 0.014394 -0.000553 0.000000 0.000000 0.000000
# 3 -0.004965 -0.000553 0.009377 0.000000 0.000000 0.000000
# 4 0.000000 0.000000 0.000000 0.193369 0.000000 0.000000
# 5 0.000000 0.000000 0.000000 0.000000 -0.004598 0.000000
# 6 0.000000 0.000000 0.000000 0.000000 0.000000 0.033282
#
#
# Mechanical properties :
#
#
# Convention : Reuss Voigt Hill
#
# Bulk Modulus (GPa) = 59.63673 67.55585 63.59629
# Shear Modulus (GPa) = 17.72325 -21.74182 -2.00928
#
# Velocity S-wave (km/s) = 3.02151 -3.34658 -1.01736
# Velocity P-wave (km/s) = 6.54925 4.45717 5.60174
#
# Compressibility (1/GPa) = 0.01676819
#
# Stress axis : x y z
#
# Youngs Moduli (GPa) = 84.38922 69.47345 106.64331
#
# Poissons Ratio (x) = 0.27152 0.52945
# Poissons Ratio (y) = 0.32981 0.05902
# Poissons Ratio (z) = 0.41896 0.03845
#
# Static dielectric constant tensor:
#      x y z
#    x 1.737190 0.000000 0.000000 
#    y 0.000000 1.723920 0.000000 
#    z 0.000000 0.000000 1.697400 
# 
# From -- ./inp_files/50916.got.cif
#   From: 2010.05.17/outbox.cif.g08.bks.cpg/sg66_26_cif.got.tgz:50916.got - 2010.06.03 17:51:23.
