data_PCOD9498383
_publ_section_title
;
Structure prediction by ZEFSAII (Michael W. Deem and Ramdas Pophale) SiO2 
 PCOD9498383
Probable space group: C C C M
;
_chemical_formula_sum "Si O2"
_cell_formula_units_Z 64
_cell_length_a 9.361064
_cell_length_b 25.306102
_cell_length_c 13.831875
_cell_angle_alpha 90.000000
_cell_angle_beta 90.000000
_cell_angle_gamma 90.000000
_cell_volume 3276.661091
_symmetry_space_group_name_H-M "C C C M"
_symmetry_group_IT_number 66
_symmetry_cell_setting 'orthorhombic'
loop_
_space_group_symop_operation_xyz
x,y,z
-x,-y,z
x,-y,1/2-z
-x,y,1/2-z
-x,-y,-z
x,y,-z
-x,y,1/2+z
x,-y,1/2+z
1/2+x,1/2+y,z
1/2-x,1/2-y,z
1/2+x,1/2-y,1/2-z
1/2-x,1/2+y,1/2-z
1/2-x,1/2-y,-z
1/2+x,1/2+y,-z
1/2-x,1/2+y,1/2+z
1/2+x,1/2-y,1/2+z
loop_
_atom_site_type_symbol
_atom_site_label
_atom_site_fract_x
_atom_site_fract_y
_atom_site_fract_z
Si Si1 0.785204 0.082640 0.386649
Si Si2 0.500000 0.644942 0.250000
Si Si3 0.320094 0.000000 0.250000
Si Si4 0.728299 0.687286 0.608426
Si Si5 0.549548 0.093462 0.887046
O O1 0.817259 0.079919 0.500000
O O2 0.773050 0.027214 0.332302
O O3 0.620574 0.103650 0.376462
O O4 0.903606 0.113238 0.326366
O O5 0.609683 0.677512 0.312892
O O6 0.399116 0.953905 0.184446
O O7 0.680420 0.672099 0.500000
O O8 0.750000 0.750000 0.607351
O O9 0.860820 0.647337 0.629503
O O10 0.570838 0.077204 0.000000
#
# Coordination Sequence:
#
# PCOD9498383 Si02
#       5
#    16   8   8  16  16
#     4  11  24  40  62  95 129 165 214 266 317 381
#     4  12  24  41  64  94 130 167 204 262 328 386
#     4  12  21  39  68  93 126 169 216 261 316 377
#     4  10  23  44  67  93 127 168 214 264 318 380
#     4  10  21  40  66  94 125 166 216 263 310 377
#
# _framework density 19.532077000000001
#
# number of rings (size 3 to 8) (size 9 to 14) (size 15 to 20)
#    0.000    1.250    2.500    3.750    0.000    4.500 
#    0.000    1.250    0.000    7.500    0.000    0.000 
#    0.000    0.000    0.000    0.000    0.000    0.000 
#
# Total GULP energy -178302.140969 kJ/mol
# GULP energy per Si atom -5571.941905 kJ/mol
# Density = 1.948762 g / cm^3
# Si number density = 19.532077 Si / 1000 Ang^3
#
#
#
# Elastic Constant Matrix: (Units=GPa)
#
#
# Indices 1 2 3 4 5 6 
#
# 1 66.3679 38.7813 77.9334 0.0000 0.0000 0.0000
# 2 38.7813 95.4591 70.5472 0.0000 0.0000 0.0000
# 3 77.9334 70.5472 192.3397 0.0000 0.0000 0.0000
# 4 0.0000 0.0000 0.0000 39.6098 0.0000 0.0000
# 5 0.0000 0.0000 0.0000 0.0000 40.4412 0.0000
# 6 0.0000 0.0000 0.0000 0.0000 0.0000 24.6266
#
#
#
# Elastic Compliance Matrix: (Units=1/GPa)
#
#
# Indices 1 2 3 4 5 6 
#
# 1 0.030033 -0.004401 -0.010555 0.000000 0.000000 0.000000
# 2 -0.004401 0.015016 -0.003724 0.000000 0.000000 0.000000
# 3 -0.010555 -0.003724 0.010842 0.000000 0.000000 0.000000
# 4 0.000000 0.000000 0.000000 0.025246 0.000000 0.000000
# 5 0.000000 0.000000 0.000000 0.000000 0.024727 0.000000
# 6 0.000000 0.000000 0.000000 0.000000 0.000000 0.040606
#
#
# Mechanical properties :
#
#
# Convention : Reuss Voigt Hill
#
# Bulk Modulus (GPa) = 53.96440 80.96562 67.46501
# Shear Modulus (GPa) = 26.31453 32.06251 29.18852
#
# Velocity S-wave (km/s) = 3.67447 4.05598 3.86993
# Velocity P-wave (km/s) = 6.75950 7.96726 7.38810
#
# Compressibility (1/GPa) = 0.01853074
#
# Stress axis : x y z
#
# Youngs Moduli (GPa) = 33.29624 66.59509 92.23462
#
# Poissons Ratio (x) = 0.29308 0.97353
# Poissons Ratio (y) = 0.14654 0.34352
# Poissons Ratio (z) = 0.35144 0.24803
#
# Static dielectric constant tensor:
#      x y z
#    x 1.737530 0.000000 0.000000 
#    y 0.000000 1.685400 0.000000 
#    z 0.000000 0.000000 1.708160 
# 
# From -- ./inp_files/24186.got.cif
#   From: 2010.05.17/outbox.cif.g08.bks.cpg/sg66_13_cif.got.tgz:24186.got - 2010.06.03 17:51:23.
