data_PCOD9498150
_publ_section_title
;
Structure prediction by ZEFSAII (Michael W. Deem and Ramdas Pophale) SiO2 
 PCOD9498150
Probable space group: C C C M
;
_chemical_formula_sum "Si O2"
_cell_formula_units_Z 56
_cell_length_a 18.633373
_cell_length_b 8.783987
_cell_length_c 16.155389
_cell_angle_alpha 90.000000
_cell_angle_beta 90.000000
_cell_angle_gamma 90.000000
_cell_volume 2644.238241
_symmetry_space_group_name_H-M "C C C M"
_symmetry_group_IT_number 66
_symmetry_cell_setting 'orthorhombic'
loop_
_space_group_symop_operation_xyz
x,y,z
-x,-y,z
x,-y,1/2-z
-x,y,1/2-z
-x,-y,-z
x,y,-z
-x,y,1/2+z
x,-y,1/2+z
1/2+x,1/2+y,z
1/2-x,1/2-y,z
1/2+x,1/2-y,1/2-z
1/2-x,1/2+y,1/2-z
1/2-x,1/2-y,-z
1/2+x,1/2+y,-z
1/2-x,1/2+y,1/2+z
1/2+x,1/2-y,1/2+z
loop_
_atom_site_type_symbol
_atom_site_label
_atom_site_fract_x
_atom_site_fract_y
_atom_site_fract_z
Si Si1 0.250000 0.750000 0.272920
Si Si2 0.629980 0.413306 0.170756
Si Si3 0.491553 0.823519 0.150660
Si Si4 0.356670 0.275288 0.091914
O O1 0.298035 0.650104 0.212500
O O2 0.310137 0.810992 0.337821
O O3 0.592728 0.500000 0.250000
O O4 0.579783 0.278189 0.136588
O O5 0.652202 0.544216 0.107110
O O6 0.500000 0.822928 0.250000
O O7 0.559528 0.747157 0.108020
O O8 0.500000 0.000000 0.124611
O O9 0.336445 0.228575 0.000000
#
# Coordination Sequence:
#
# PCOD9498150 Si02
#       4
#     8  16  16  16
#     4  10  21  38  63  88 126 168 214 256 313 386
#     4  10  21  39  64  92 123 171 220 259 312 391
#     4  11  22  37  63  96 126 168 217 263 314 382
#     4  11  24  41  66  96 131 166 211 274 327 371
#
# _framework density 21.178121999999998
#
# number of rings (size 3 to 8) (size 9 to 14) (size 15 to 20)
#    0.000    1.429    5.714    1.286    0.000    9.714 
#    0.000    0.714    0.000    0.000    0.000    0.000 
#    0.000    0.000    0.000    0.000    0.000    0.000 
#
# Total GULP energy -156004.124723 kJ/mol
# GULP energy per Si atom -5571.575883 kJ/mol
# Density = 2.112992 g / cm^3
# Si number density = 21.178122 Si / 1000 Ang^3
#
#
#
# Elastic Constant Matrix: (Units=GPa)
#
#
# Indices 1 2 3 4 5 6 
#
# 1 134.4342 67.7228 31.3964 0.0000 0.0000 0.0000
# 2 67.7228 105.3578 18.3124 0.0000 0.0000 0.0000
# 3 31.3964 18.3124 59.6633 0.0000 0.0000 0.0000
# 4 0.0000 0.0000 0.0000 13.0384 0.0000 0.0000
# 5 0.0000 0.0000 0.0000 0.0000 10.1579 0.0000
# 6 0.0000 0.0000 0.0000 0.0000 0.0000 37.5764
#
#
#
# Elastic Compliance Matrix: (Units=1/GPa)
#
#
# Indices 1 2 3 4 5 6 
#
# 1 0.011893 -0.006926 -0.004132 0.000000 0.000000 0.000000
# 2 -0.006926 0.014060 -0.000671 0.000000 0.000000 0.000000
# 3 -0.004132 -0.000671 0.019141 0.000000 0.000000 0.000000
# 4 0.000000 0.000000 0.000000 0.076697 0.000000 0.000000
# 5 0.000000 0.000000 0.000000 0.000000 0.098445 0.000000
# 6 0.000000 0.000000 0.000000 0.000000 0.000000 0.026612
#
#
# Mechanical properties :
#
#
# Convention : Reuss Voigt Hill
#
# Bulk Modulus (GPa) = 46.22064 59.36870 52.79467
# Shear Modulus (GPa) = 18.01675 24.28945 21.15310
#
# Velocity S-wave (km/s) = 2.91988 3.39028 3.16384
# Velocity P-wave (km/s) = 5.76539 6.58933 6.19108
#
# Compressibility (1/GPa) = 0.02163536
#
# Stress axis : x y z
#
# Youngs Moduli (GPa) = 84.08348 71.12257 52.24334
#
# Poissons Ratio (x) = 0.49262 0.21589
# Poissons Ratio (y) = 0.58239 0.03504
# Poissons Ratio (z) = 0.34747 0.04770
#
# Static dielectric constant tensor:
#      x y z
#    x 1.776820 0.000000 0.000000 
#    y 0.000000 1.881040 0.000000 
#    z 0.000000 0.000000 1.755470 
# 
# From -- ./inp_files/36085.got.cif
#   From: 2010.05.17/outbox.cif.g08.bks.cpg/sg66_19_cif.got.tgz:36085.got - 2010.06.03 17:51:23.
