data_PCOD9498564
_publ_section_title
;
Structure prediction by ZEFSAII (Michael W. Deem and Ramdas Pophale) SiO2 
 PCOD9498564
Probable space group: C C C M
;
_chemical_formula_sum "Si O2"
_cell_formula_units_Z 120
_cell_length_a 27.305892
_cell_length_b 27.066048
_cell_length_c 9.749970
_cell_angle_alpha 90.000000
_cell_angle_beta 90.000000
_cell_angle_gamma 90.000000
_cell_volume 7205.838018
_symmetry_space_group_name_H-M "C C C M"
_symmetry_group_IT_number 66
_symmetry_cell_setting 'orthorhombic'
loop_
_space_group_symop_operation_xyz
x,y,z
-x,-y,z
x,-y,1/2-z
-x,y,1/2-z
-x,-y,-z
x,y,-z
-x,y,1/2+z
x,-y,1/2+z
1/2+x,1/2+y,z
1/2-x,1/2-y,z
1/2+x,1/2-y,1/2-z
1/2-x,1/2+y,1/2-z
1/2-x,1/2-y,-z
1/2+x,1/2+y,-z
1/2-x,1/2+y,1/2+z
1/2+x,1/2-y,1/2+z
loop_
_atom_site_type_symbol
_atom_site_label
_atom_site_fract_x
_atom_site_fract_y
_atom_site_fract_z
Si Si1 0.354597 0.747005 0.664111
Si Si2 0.044714 0.424748 0.154483
Si Si3 0.172749 0.840872 0.158425
Si Si4 0.123272 0.500000 0.250000
Si Si5 0.951746 0.310670 0.662703
Si Si6 0.690830 0.454069 0.836018
Si Si7 0.710879 0.818207 0.338530
Si Si8 0.797813 0.574913 0.341862
O O1 0.347045 0.745011 0.500000
O O2 0.355221 0.693243 0.733865
O O3 0.404896 0.776726 0.692045
O O4 0.311255 0.776572 0.741634
O O5 0.088585 0.463234 0.166748
O O6 0.059872 0.368618 0.191416
O O7 0.000000 0.439649 0.250000
O O8 0.026136 0.423701 0.000000
O O9 0.167500 0.899693 0.182012
O O10 0.230705 0.827001 0.170222
O O11 0.158904 0.830413 0.000000
O O12 0.159251 0.464209 0.332734
O O13 0.962249 0.306599 0.500000
O O14 0.000000 0.298053 0.750000
O O15 0.670176 0.500000 0.750000
O O16 0.747007 0.445790 0.783874
O O17 0.690698 0.465006 0.000000
O O18 0.699397 0.807673 0.500000
O O19 0.688663 0.870871 0.288827
O O20 0.785642 0.585072 0.500000
#
# Coordination Sequence:
#
# PCOD9498564 Si02
#       8
#    16  16  16   8  16  16  16  16
#     4  11  21  32  49  75 101 120 154 206 253 294
#     4  10  22  37  50  64  85 115 151 196 253 305
#     4   9  19  33  49  70 100 135 169 199 232 286
#     4  12  19  28  48  68  92 116 154 208 253 288
#     4   9  20  38  54  70  93 122 157 201 252 306
#     4   9  17  32  49  68  96 130 166 198 226 266
#     4   9  18  33  49  65  94 134 170 199 236 292
#     4   9  18  30  44  65  90 121 160 198 238 283
#
# _framework density 16.653162999999999
#
# number of rings (size 3 to 8) (size 9 to 14) (size 15 to 20)
#    0.000    2.400    0.667    3.800    0.000    5.333 
#    0.000    5.333    0.000    0.000    0.000    0.000 
#    0.000    0.533    0.000    5.867    0.000    4.267 
#
# Total GULP energy -334325.304025 kJ/mol
# GULP energy per Si atom -5572.088400 kJ/mol
# Density = 1.661526 g / cm^3
# Si number density = 16.653163 Si / 1000 Ang^3
#
#
#
# Elastic Constant Matrix: (Units=GPa)
#
#
# Indices 1 2 3 4 5 6 
#
# 1 37.8398 28.7515 23.5661 0.0000 0.0000 0.0000
# 2 28.7515 119.9502 55.2272 0.0000 0.0000 0.0000
# 3 23.5661 55.2272 64.8837 0.0000 0.0000 0.0000
# 4 0.0000 0.0000 0.0000 21.3995 0.0000 0.0000
# 5 0.0000 0.0000 0.0000 0.0000 20.3516 0.0000
# 6 0.0000 0.0000 0.0000 0.0000 0.0000 24.3521
#
#
#
# Elastic Compliance Matrix: (Units=1/GPa)
#
#
# Indices 1 2 3 4 5 6 
#
# 1 0.035405 -0.004219 -0.009268 0.000000 0.000000 0.000000
# 2 -0.004219 0.014212 -0.010565 0.000000 0.000000 0.000000
# 3 -0.009268 -0.010565 0.027771 0.000000 0.000000 0.000000
# 4 0.000000 0.000000 0.000000 0.046730 0.000000 0.000000
# 5 0.000000 0.000000 0.000000 0.000000 0.049136 0.000000
# 6 0.000000 0.000000 0.000000 0.000000 0.000000 0.041064
#
#
# Mechanical properties :
#
#
# Convention : Reuss Voigt Hill
#
# Bulk Modulus (GPa) = 34.14804 48.64035 41.39420
# Shear Modulus (GPa) = 18.36996 20.89591 19.63293
#
# Velocity S-wave (km/s) = 3.32488 3.54612 3.43728
# Velocity P-wave (km/s) = 5.94052 6.78512 6.37682
#
# Compressibility (1/GPa) = 0.02928426
#
# Stress axis : x y z
#
# Youngs Moduli (GPa) = 28.24456 70.36168 36.00919
#
# Poissons Ratio (x) = 0.29688 0.33373
# Poissons Ratio (y) = 0.11917 0.38042
# Poissons Ratio (z) = 0.26177 0.74335
#
# Static dielectric constant tensor:
#      x y z
#    x 1.543430 0.000000 0.000000 
#    y 0.000000 1.615330 0.000000 
#    z 0.000000 0.000000 1.557280 
# 
# From -- ./inp_files/10755.got.cif
#   From: 2010.05.17/outbox.cif.g08.bks.cpg/sg66_6_cif.got.tgz:10755.got - 2010.06.03 17:51:23.
