data_PCOD9498723
_publ_section_title
;
Structure prediction by ZEFSAII (Michael W. Deem and Ramdas Pophale) SiO2 
 PCOD9498723
Probable space group: C C C M
;
_chemical_formula_sum "Si O2"
_cell_formula_units_Z 72
_cell_length_a 27.510226
_cell_length_b 8.496952
_cell_length_c 14.376990
_cell_angle_alpha 90.000000
_cell_angle_beta 90.000000
_cell_angle_gamma 90.000000
_cell_volume 3360.665547
_symmetry_space_group_name_H-M "C C C M"
_symmetry_group_IT_number 66
_symmetry_cell_setting 'orthorhombic'
loop_
_space_group_symop_operation_xyz
x,y,z
-x,-y,z
x,-y,1/2-z
-x,y,1/2-z
-x,-y,-z
x,y,-z
-x,y,1/2+z
x,-y,1/2+z
1/2+x,1/2+y,z
1/2-x,1/2-y,z
1/2+x,1/2-y,1/2-z
1/2-x,1/2+y,1/2-z
1/2-x,1/2-y,-z
1/2+x,1/2+y,-z
1/2-x,1/2+y,1/2+z
1/2+x,1/2-y,1/2+z
loop_
_atom_site_type_symbol
_atom_site_label
_atom_site_fract_x
_atom_site_fract_y
_atom_site_fract_z
Si Si1 0.804720 0.701354 0.893541
Si Si2 0.865175 0.500000 0.250000
Si Si3 0.512729 0.177286 0.642187
Si Si4 0.897387 0.905498 0.893008
Si Si5 0.910971 0.246944 0.106852
O O1 0.750000 0.750000 0.870453
O O2 0.829348 0.586894 0.820579
O O3 0.842572 0.844607 0.891186
O O4 0.804703 0.639165 0.000000
O O5 0.896344 0.384932 0.180664
O O6 0.500000 0.174075 0.750000
O O7 0.564519 0.264763 0.632226
O O8 0.468903 0.273989 0.599162
O O9 0.500000 0.000000 0.607160
O O10 0.896402 0.079031 0.849102
O O11 0.910587 0.938615 0.000000
O O12 0.892521 0.277900 0.000000
#
# Coordination Sequence:
#
# PCOD9498723 Si02
#       5
#    16   8  16  16  16
#     4  10  23  44  67  92 124 163 209 262 319 377
#     4  12  24  40  67  96 124 164 213 262 320 384
#     4  11  22  36  58  91 128 167 210 254 306 373
#     4  10  22  40  61  87 123 166 208 255 312 373
#     4  11  24  41  62  92 129 166 208 259 316 382
#
# _framework density 21.424327999999999
#
# number of rings (size 3 to 8) (size 9 to 14) (size 15 to 20)
#    0.000    1.333    0.000    6.000    0.000   11.556 
#    0.000    0.000    0.000    6.667    0.000    0.000 
#    0.000    0.000    0.000    0.000    0.000    0.000 
#
# Total GULP energy -200546.101480 kJ/mol
# GULP energy per Si atom -5570.725041 kJ/mol
# Density = 2.137557 g / cm^3
# Si number density = 21.424328 Si / 1000 Ang^3
#
#
#
# Elastic Constant Matrix: (Units=GPa)
#
#
# Indices 1 2 3 4 5 6 
#
# 1 169.8502 59.7727 44.5043 0.0000 0.0000 0.0000
# 2 59.7727 119.1125 46.1187 0.0000 0.0000 0.0000
# 3 44.5043 46.1187 104.8797 0.0000 0.0000 0.0000
# 4 0.0000 0.0000 0.0000 29.3440 0.0000 0.0000
# 5 0.0000 0.0000 0.0000 0.0000 30.5264 0.0000
# 6 0.0000 0.0000 0.0000 0.0000 0.0000 22.2133
#
#
#
# Elastic Compliance Matrix: (Units=1/GPa)
#
#
# Indices 1 2 3 4 5 6 
#
# 1 0.007429 -0.003022 -0.001824 0.000000 0.000000 0.000000
# 2 -0.003022 0.011347 -0.003707 0.000000 0.000000 0.000000
# 3 -0.001824 -0.003707 0.011939 0.000000 0.000000 0.000000
# 4 0.000000 0.000000 0.000000 0.034078 0.000000 0.000000
# 5 0.000000 0.000000 0.000000 0.000000 0.032758 0.000000
# 6 0.000000 0.000000 0.000000 0.000000 0.000000 0.045018
#
#
# Mechanical properties :
#
#
# Convention : Reuss Voigt Hill
#
# Bulk Modulus (GPa) = 73.47947 77.18152 75.33050
# Shear Modulus (GPa) = 30.44845 32.64654 31.54750
#
# Velocity S-wave (km/s) = 3.77398 3.90783 3.84149
# Velocity P-wave (km/s) = 7.30495 7.51431 7.41037
#
# Compressibility (1/GPa) = 0.01360924
#
# Stress axis : x y z
#
# Youngs Moduli (GPa) = 134.61182 88.12662 83.76060
#
# Poissons Ratio (x) = 0.26630 0.15274
# Poissons Ratio (y) = 0.40678 0.31054
# Poissons Ratio (z) = 0.24547 0.32673
#
# Static dielectric constant tensor:
#      x y z
#    x 1.747660 0.000000 0.000000 
#    y 0.000000 1.941800 0.000000 
#    z 0.000000 0.000000 1.856800 
# 
# From -- ./inp_files/32989.got.cif
#   From: 2010.05.17/outbox.cif.g08.bks.cpg/sg66_17_cif.got.tgz:32989.got - 2010.06.03 17:51:23.
