data_PCOD9498222
_publ_section_title
;
Structure prediction by ZEFSAII (Michael W. Deem and Ramdas Pophale) SiO2 
 PCOD9498222
Probable space group: C C C M
;
_chemical_formula_sum "Si O2"
_cell_formula_units_Z 68
_cell_length_a 5.173373
_cell_length_b 19.673298
_cell_length_c 29.825421
_cell_angle_alpha 90.000000
_cell_angle_beta 90.000000
_cell_angle_gamma 90.000000
_cell_volume 3035.551080
_symmetry_space_group_name_H-M "C C C M"
_symmetry_group_IT_number 66
_symmetry_cell_setting 'orthorhombic'
loop_
_space_group_symop_operation_xyz
x,y,z
-x,-y,z
x,-y,1/2-z
-x,y,1/2-z
-x,-y,-z
x,y,-z
-x,y,1/2+z
x,-y,1/2+z
1/2+x,1/2+y,z
1/2-x,1/2-y,z
1/2+x,1/2-y,1/2-z
1/2-x,1/2+y,1/2-z
1/2-x,1/2-y,-z
1/2+x,1/2+y,-z
1/2-x,1/2+y,1/2+z
1/2+x,1/2-y,1/2+z
loop_
_atom_site_type_symbol
_atom_site_label
_atom_site_fract_x
_atom_site_fract_y
_atom_site_fract_z
Si Si1 0.440812 0.314470 0.952372
Si Si2 0.682790 0.565086 0.173236
Si Si3 0.235428 0.544152 0.573645
Si Si4 0.514780 0.706260 0.352274
Si Si5 0.500000 0.000000 0.750000
O O1 0.250000 0.250000 0.952460
O O2 0.283003 0.384599 0.950131
O O3 0.583189 0.312135 0.904411
O O4 0.588187 0.314453 0.000000
O O5 0.500000 0.500000 0.170668
O O6 0.830144 0.563871 0.125509
O O7 0.532598 0.635976 0.173307
O O8 0.846545 0.549900 0.216958
O O9 0.500000 0.500000 0.571886
O O10 0.000000 0.500000 0.555725
O O11 0.250000 0.750000 0.352026
O O12 0.750000 0.750000 0.333752
#
# Coordination Sequence:
#
# PCOD9498222 Si02
#       5
#    16  16  16  16   4
#     4   9  20  37  60  93 130 170 220 268 314 371
#     4  10  23  39  67  95 126 163 214 260 326 394
#     4  10  21  39  61  89 125 169 212 260 318 386
#     4  10  23  42  68  93 129 178 215 260 323 390
#     4  12  22  40  72  98 126 160 212 284 326 400
#
# _framework density 22.401202999999999
#
# number of rings (size 3 to 8) (size 9 to 14) (size 15 to 20)
#    0.000    2.118    1.176    0.353    3.294   12.706 
#    0.000    4.706    5.176    0.000    0.000    0.000 
#    0.000    0.000    0.000    0.000    0.000    0.000 
#
# Total GULP energy -189937.118166 kJ/mol
# GULP energy per Si atom -5586.385828 kJ/mol
# Density = 2.235022 g / cm^3
# Si number density = 22.401203 Si / 1000 Ang^3
#
#
#
# Elastic Constant Matrix: (Units=GPa)
#
#
# Indices 1 2 3 4 5 6 
#
# 1 89.2646 69.6695 29.3949 0.0000 0.0000 0.0000
# 2 69.6695 214.9052 55.6733 0.0000 0.0000 0.0000
# 3 29.3949 55.6733 129.5983 0.0000 0.0000 0.0000
# 4 0.0000 0.0000 0.0000 38.1813 0.0000 0.0000
# 5 0.0000 0.0000 0.0000 0.0000 -46.7674 0.0000
# 6 0.0000 0.0000 0.0000 0.0000 0.0000 46.6160
#
#
#
# Elastic Compliance Matrix: (Units=1/GPa)
#
#
# Indices 1 2 3 4 5 6 
#
# 1 0.015253 -0.004556 -0.001503 0.000000 0.000000 0.000000
# 2 -0.004556 0.006597 -0.001800 0.000000 0.000000 0.000000
# 3 -0.001503 -0.001800 0.008830 0.000000 0.000000 0.000000
# 4 0.000000 0.000000 0.000000 0.026191 0.000000 0.000000
# 5 0.000000 0.000000 0.000000 0.000000 -0.021382 0.000000
# 6 0.000000 0.000000 0.000000 0.000000 0.000000 0.021452
#
#
# Mechanical properties :
#
#
# Convention : Reuss Voigt Hill
#
# Bulk Modulus (GPa) = 66.83324 82.58262 74.70793
# Shear Modulus (GPa) = 64.39558 26.20801 45.30180
#
# Velocity S-wave (km/s) = 5.36739 3.42415 4.50187
# Velocity P-wave (km/s) = 8.26506 7.25109 7.77463
#
# Compressibility (1/GPa) = 0.01496261
#
# Stress axis : x y z
#
# Youngs Moduli (GPa) = 65.56083 151.59552 113.24487
#
# Poissons Ratio (x) = 0.69060 0.17016
# Poissons Ratio (y) = 0.29867 0.20389
# Poissons Ratio (z) = 0.09851 0.27294
#
# Static dielectric constant tensor:
#      x y z
#    x 1.848160 0.000000 0.000000 
#    y 0.000000 1.805420 0.000000 
#    z 0.000000 0.000000 1.884340 
# 
# From -- ./inp_files/67080.got.cif
#   From: 2010.05.17/outbox.cif.g08.bks.cpg/sg66_34_cif.got.tgz:67080.got - 2010.06.03 17:51:23.
