data_PCOD9498311
_publ_section_title
;
Structure prediction by ZEFSAII (Michael W. Deem and Ramdas Pophale) SiO2 
 PCOD9498311
Probable space group: C C C M
;
_chemical_formula_sum "Si O2"
_cell_formula_units_Z 56
_cell_length_a 14.876262
_cell_length_b 8.904879
_cell_length_c 21.289100
_cell_angle_alpha 90.000000
_cell_angle_beta 90.000000
_cell_angle_gamma 90.000000
_cell_volume 2820.195031
_symmetry_space_group_name_H-M "C C C M"
_symmetry_group_IT_number 66
_symmetry_cell_setting 'orthorhombic'
loop_
_space_group_symop_operation_xyz
x,y,z
-x,-y,z
x,-y,1/2-z
-x,y,1/2-z
-x,-y,-z
x,y,-z
-x,y,1/2+z
x,-y,1/2+z
1/2+x,1/2+y,z
1/2-x,1/2-y,z
1/2+x,1/2-y,1/2-z
1/2-x,1/2+y,1/2-z
1/2-x,1/2-y,-z
1/2+x,1/2+y,-z
1/2-x,1/2+y,1/2+z
1/2+x,1/2-y,1/2+z
loop_
_atom_site_type_symbol
_atom_site_label
_atom_site_fract_x
_atom_site_fract_y
_atom_site_fract_z
Si Si1 0.411410 0.403343 0.345020
Si Si2 0.780385 0.000000 0.750000
Si Si3 0.246600 0.422289 0.115651
Si Si4 0.418548 0.116045 0.429150
O O1 0.500000 0.500000 0.331873
O O2 0.349194 0.382734 0.283131
O O3 0.344943 0.503067 0.388687
O O4 0.429164 0.247958 0.379023
O O5 0.727391 0.932601 0.808741
O O6 0.250000 0.250000 0.095531
O O7 0.173070 0.523844 0.082112
O O8 0.418753 0.177944 0.500000
O O9 0.500000 0.000000 0.423170
#
# Coordination Sequence:
#
# PCOD9498311 Si02
#       4
#    16   8  16  16
#     4  10  21  39  66  91 128 162 203 252 316 363
#     4   8  23  36  65  92 134 152 205 256 299 396
#     4  10  22  38  65  91 128 162 202 254 316 360
#     4  11  25  44  63  90 124 166 218 257 300 366
#
# _framework density 19.856783
#
# number of rings (size 3 to 8) (size 9 to 14) (size 15 to 20)
#    1.714    0.286    0.000    3.000    4.000    3.429 
#    0.000    0.714    0.000    0.000    0.000    0.000 
#    0.000    0.000    0.000    0.000    0.000    0.000 
#
# Total GULP energy -156005.273554 kJ/mol
# GULP energy per Si atom -5571.616913 kJ/mol
# Density = 1.981159 g / cm^3
# Si number density = 19.856783 Si / 1000 Ang^3
#
#
#
# Elastic Constant Matrix: (Units=GPa)
#
#
# Indices 1 2 3 4 5 6 
#
# 1 57.2802 -19.4957 -15.6854 0.0000 0.0000 0.0000
# 2 -19.4957 55.3988 11.2651 0.0000 0.0000 0.0000
# 3 -15.6854 11.2651 69.8625 0.0000 0.0000 0.0000
# 4 0.0000 0.0000 0.0000 23.7815 0.0000 0.0000
# 5 0.0000 0.0000 0.0000 0.0000 1.9729 0.0000
# 6 0.0000 0.0000 0.0000 0.0000 0.0000 18.2221
#
#
#
# Elastic Compliance Matrix: (Units=1/GPa)
#
#
# Indices 1 2 3 4 5 6 
#
# 1 0.020667 0.006544 0.003585 0.000000 0.000000 0.000000
# 2 0.006544 0.020735 -0.001874 0.000000 0.000000 0.000000
# 3 0.003585 -0.001874 0.015421 0.000000 0.000000 0.000000
# 4 0.000000 0.000000 0.000000 0.042049 0.000000 0.000000
# 5 0.000000 0.000000 0.000000 0.000000 0.506861 0.000000
# 6 0.000000 0.000000 0.000000 0.000000 0.000000 0.054878
#
#
# Mechanical properties :
#
#
# Convention : Reuss Voigt Hill
#
# Bulk Modulus (GPa) = 13.63649 14.96771 14.30210
# Shear Modulus (GPa) = 7.47891 22.55915 15.01903
#
# Velocity S-wave (km/s) = 1.94283 3.37425 2.75320
# Velocity P-wave (km/s) = 3.45183 4.76812 4.16234
#
# Compressibility (1/GPa) = 0.07333264
#
# Stress axis : x y z
#
# Youngs Moduli (GPa) = 48.38618 48.22760 64.84699
#
# Poissons Ratio (x) = -0.31561 -0.23247
# Poissons Ratio (y) = -0.31664 0.12153
# Poissons Ratio (z) = -0.17346 0.09039
#
# Static dielectric constant tensor:
#      x y z
#    x 1.686370 0.000000 0.000000 
#    y 0.000000 1.675630 0.000000 
#    z 0.000000 0.000000 1.712830 
# 
# From -- ./inp_files/41074.got.cif
#   From: 2010.05.17/outbox.cif.g08.bks.cpg/sg66_21_cif.got.tgz:41074.got - 2010.06.03 17:51:23.
