data_PCOD9498625
_publ_section_title
;
Structure prediction by ZEFSAII (Michael W. Deem and Ramdas Pophale) SiO2 
 PCOD9498625
Probable space group: C C C M
;
_chemical_formula_sum "Si O2"
_cell_formula_units_Z 64
_cell_length_a 8.540663
_cell_length_b 14.124507
_cell_length_c 24.620225
_cell_angle_alpha 90.000000
_cell_angle_beta 90.000000
_cell_angle_gamma 90.000000
_cell_volume 2970.003092
_symmetry_space_group_name_H-M "C C C M"
_symmetry_group_IT_number 66
_symmetry_cell_setting 'orthorhombic'
loop_
_space_group_symop_operation_xyz
x,y,z
-x,-y,z
x,-y,1/2-z
-x,y,1/2-z
-x,-y,-z
x,y,-z
-x,y,1/2+z
x,-y,1/2+z
1/2+x,1/2+y,z
1/2-x,1/2-y,z
1/2+x,1/2-y,1/2-z
1/2-x,1/2+y,1/2-z
1/2-x,1/2-y,-z
1/2+x,1/2+y,-z
1/2-x,1/2+y,1/2+z
1/2+x,1/2-y,1/2+z
loop_
_atom_site_type_symbol
_atom_site_label
_atom_site_fract_x
_atom_site_fract_y
_atom_site_fract_z
Si Si1 0.796542 0.500000 0.250000
Si Si2 0.750000 0.250000 0.606063
Si Si3 0.053184 0.859705 0.307388
Si Si4 0.991315 0.614192 0.438712
Si Si5 0.718560 0.141280 0.164881
O O1 0.685610 0.431299 0.286090
O O2 0.873332 0.425703 0.207673
O O3 0.874998 0.205479 0.647080
O O4 0.655096 0.169115 0.573369
O O5 0.000000 0.813433 0.250000
O O6 0.894999 0.900051 0.334183
O O7 0.942215 0.639579 0.500000
O O8 0.868091 0.641780 0.392260
O O9 0.000000 0.500000 0.435801
O O10 0.750000 0.250000 0.181070
#
# Coordination Sequence:
#
# PCOD9498625 Si02
#       5
#     8   8  16  16  16
#     4  10  23  40  65  98 143 174 213 288 349 424
#     4  12  23  42  68  96 132 178 231 286 352 412
#     4  10  22  38  62  93 137 170 215 273 341 416
#     4  11  26  47  68  97 135 177 233 296 345 404
#     4  11  21  43  66  98 132 175 227 275 337 416
#
# _framework density 21.548798000000001
#
# number of rings (size 3 to 8) (size 9 to 14) (size 15 to 20)
#    0.000    1.250    2.500    5.250    7.000    0.500 
#    0.000    6.875    0.000    6.000    0.000    0.000 
#    0.000    0.000    0.000    0.000    0.000    0.000 
#
# Total GULP energy -178396.830487 kJ/mol
# GULP energy per Si atom -5574.900953 kJ/mol
# Density = 2.149975 g / cm^3
# Si number density = 21.548798 Si / 1000 Ang^3
#
#
#
# Elastic Constant Matrix: (Units=GPa)
#
#
# Indices 1 2 3 4 5 6 
#
# 1 72.7325 11.2941 60.9402 0.0000 0.0000 0.0000
# 2 11.2941 116.9449 64.8803 0.0000 0.0000 0.0000
# 3 60.9402 64.8803 166.3975 0.0000 0.0000 0.0000
# 4 0.0000 0.0000 0.0000 58.7017 0.0000 0.0000
# 5 0.0000 0.0000 0.0000 0.0000 35.2405 0.0000
# 6 0.0000 0.0000 0.0000 0.0000 0.0000 30.2153
#
#
#
# Elastic Compliance Matrix: (Units=1/GPa)
#
#
# Indices 1 2 3 4 5 6 
#
# 1 0.020526 0.002792 -0.008606 0.000000 0.000000 0.000000
# 2 0.002792 0.011291 -0.005425 0.000000 0.000000 0.000000
# 3 -0.008606 -0.005425 0.011277 0.000000 0.000000 0.000000
# 4 0.000000 0.000000 0.000000 0.017035 0.000000 0.000000
# 5 0.000000 0.000000 0.000000 0.000000 0.028376 0.000000
# 6 0.000000 0.000000 0.000000 0.000000 0.000000 0.033096
#
#
# Mechanical properties :
#
#
# Convention : Reuss Voigt Hill
#
# Bulk Modulus (GPa) = 48.50548 70.03381 59.26964
# Shear Modulus (GPa) = 33.12311 39.42884 36.27597
#
# Velocity S-wave (km/s) = 3.92487 4.28219 4.10742
# Velocity P-wave (km/s) = 6.56490 7.55117 7.07524
#
# Compressibility (1/GPa) = 0.02061623
#
# Stress axis : x y z
#
# Youngs Moduli (GPa) = 48.71832 88.56429 88.67704
#
# Poissons Ratio (x) = -0.24729 0.76316
# Poissons Ratio (y) = -0.13603 0.48109
# Poissons Ratio (z) = 0.41927 0.48048
#
# Static dielectric constant tensor:
#      x y z
#    x 2.039610 0.000000 0.000000 
#    y 0.000000 1.917720 0.000000 
#    z 0.000000 0.000000 1.762360 
# 
# From -- ./inp_files/62105.got.cif
#   From: 2010.05.17/outbox.cif.g08.bks.cpg/sg66_32_cif.got.tgz:62105.got - 2010.06.03 17:51:23.
