data_PCOD9498823
_publ_section_title
;
Structure prediction by ZEFSAII (Michael W. Deem and Ramdas Pophale) SiO2 
 PCOD9498823
Probable space group: C C C M
;
_chemical_formula_sum "Si O2"
_cell_formula_units_Z 116
_cell_length_a 17.835056
_cell_length_b 11.307712
_cell_length_c 29.691571
_cell_angle_alpha 90.000000
_cell_angle_beta 90.000000
_cell_angle_gamma 90.000000
_cell_volume 5988.008292
_symmetry_space_group_name_H-M "C C C M"
_symmetry_group_IT_number 66
_symmetry_cell_setting 'orthorhombic'
loop_
_space_group_symop_operation_xyz
x,y,z
-x,-y,z
x,-y,1/2-z
-x,y,1/2-z
-x,-y,-z
x,y,-z
-x,y,1/2+z
x,-y,1/2+z
1/2+x,1/2+y,z
1/2-x,1/2-y,z
1/2+x,1/2-y,1/2-z
1/2-x,1/2+y,1/2-z
1/2-x,1/2-y,-z
1/2+x,1/2+y,-z
1/2-x,1/2+y,1/2+z
1/2+x,1/2-y,1/2+z
loop_
_atom_site_type_symbol
_atom_site_label
_atom_site_fract_x
_atom_site_fract_y
_atom_site_fract_z
Si Si1 0.838265 0.272554 0.699832
Si Si2 0.343105 0.996185 0.640049
Si Si3 0.526544 0.368588 0.675909
Si Si4 0.449011 0.337162 0.417449
Si Si5 0.000000 0.000000 0.500000
Si Si6 0.078693 0.431298 0.448260
Si Si7 0.393633 0.792629 0.797924
Si Si8 0.300502 0.641587 0.865207
O O1 0.750000 0.250000 0.701700
O O2 0.854996 0.369172 0.661603
O O3 0.888294 0.157694 0.688857
O O4 0.866355 0.320155 0.748080
O O5 0.367951 0.007046 0.588351
O O6 0.388268 0.093768 0.669578
O O7 0.256373 0.035932 0.643478
O O8 0.500000 0.500000 0.688465
O O9 0.508737 0.350863 0.622977
O O10 0.473963 0.270198 0.699502
O O11 0.474391 0.406707 0.460687
O O12 0.435234 0.201085 0.430400
O O13 0.370313 0.385143 0.397233
O O14 0.106608 0.429780 0.500000
O O15 0.000000 0.500000 0.447842
O O16 0.336875 0.696438 0.820097
O O17 0.250000 0.750000 0.884576
#
# Coordination Sequence:
#
# PCOD9498823 Si02
#       8
#    16  16  16  16   4  16  16  16
#     4  12  27  40  63  99 133 174 223 266 335 394
#     4  11  22  41  66  93 132 166 208 281 331 384
#     4  11  24  44  66  90 136 181 217 268 332 397
#     4  11  21  40  66  94 127 164 215 273 321 390
#     4  12  24  36  64 100 120 160 228 258 326 384
#     4  11  22  39  65  94 121 168 219 268 329 390
#     4  10  22  41  67  95 126 172 223 268 323 391
#     4   9  18  38  65  90 126 163 205 266 335 376
#
# _framework density 19.372050999999999
#
# number of rings (size 3 to 8) (size 9 to 14) (size 15 to 20)
#    0.000    1.241    5.517    2.897    3.862    1.103 
#    1.241    2.414    0.000    0.414    0.000    0.000 
#    0.000    0.000    0.000    0.000    0.000    0.000 
#
# Total GULP energy -323567.387794 kJ/mol
# GULP energy per Si atom -5578.748065 kJ/mol
# Density = 1.932796 g / cm^3
# Si number density = 19.372051 Si / 1000 Ang^3
#
#
#
# Elastic Constant Matrix: (Units=GPa)
#
#
# Indices 1 2 3 4 5 6 
#
# 1 85.1755 17.3646 19.0299 0.0000 0.0000 0.0000
# 2 17.3646 69.2474 16.5870 0.0000 0.0000 0.0000
# 3 19.0299 16.5870 106.6414 0.0000 0.0000 0.0000
# 4 0.0000 0.0000 0.0000 30.9337 0.0000 0.0000
# 5 0.0000 0.0000 0.0000 0.0000 10.1482 0.0000
# 6 0.0000 0.0000 0.0000 0.0000 0.0000 20.2525
#
#
#
# Elastic Compliance Matrix: (Units=1/GPa)
#
#
# Indices 1 2 3 4 5 6 
#
# 1 0.012712 -0.002747 -0.001841 0.000000 0.000000 0.000000
# 2 -0.002747 0.015593 -0.001935 0.000000 0.000000 0.000000
# 3 -0.001841 -0.001935 0.010007 0.000000 0.000000 0.000000
# 4 0.000000 0.000000 0.000000 0.032327 0.000000 0.000000
# 5 0.000000 0.000000 0.000000 0.000000 0.098540 0.000000
# 6 0.000000 0.000000 0.000000 0.000000 0.000000 0.049377
#
#
# Mechanical properties :
#
#
# Convention : Reuss Voigt Hill
#
# Bulk Modulus (GPa) = 39.57927 40.78082 40.18005
# Shear Modulus (GPa) = 20.83133 26.13907 23.48520
#
# Velocity S-wave (km/s) = 3.28278 3.67729 3.48562
# Velocity P-wave (km/s) = 5.90291 6.25516 6.08159
#
# Compressibility (1/GPa) = 0.02526575
#
# Stress axis : x y z
#
# Youngs Moduli (GPa) = 78.66731 64.13023 99.93221
#
# Poissons Ratio (x) = 0.17614 0.18399
# Poissons Ratio (y) = 0.21607 0.19339
# Poissons Ratio (z) = 0.14484 0.12411
#
# Static dielectric constant tensor:
#      x y z
#    x 1.705940 0.000000 0.000000 
#    y 0.000000 1.688140 0.000000 
#    z 0.000000 0.000000 1.666280 
# 
# From -- ./inp_files/65336.got.cif
#   From: 2010.05.17/outbox.cif.g08.bks.cpg/sg66_33_cif.got.tgz:65336.got - 2010.06.03 17:51:23.
