data_PCOD9498508
_publ_section_title
;
Structure prediction by ZEFSAII (Michael W. Deem and Ramdas Pophale) SiO2 
 PCOD9498508
Probable space group: C C C M
;
_chemical_formula_sum "Si O2"
_cell_formula_units_Z 76
_cell_length_a 10.411747
_cell_length_b 23.745268
_cell_length_c 14.885771
_cell_angle_alpha 90.000000
_cell_angle_beta 90.000000
_cell_angle_gamma 90.000000
_cell_volume 3680.205039
_symmetry_space_group_name_H-M "C C C M"
_symmetry_group_IT_number 66
_symmetry_cell_setting 'orthorhombic'
loop_
_space_group_symop_operation_xyz
x,y,z
-x,-y,z
x,-y,1/2-z
-x,y,1/2-z
-x,-y,-z
x,y,-z
-x,y,1/2+z
x,-y,1/2+z
1/2+x,1/2+y,z
1/2-x,1/2-y,z
1/2+x,1/2-y,1/2-z
1/2-x,1/2+y,1/2-z
1/2-x,1/2-y,-z
1/2+x,1/2+y,-z
1/2-x,1/2+y,1/2+z
1/2+x,1/2-y,1/2+z
loop_
_atom_site_type_symbol
_atom_site_label
_atom_site_fract_x
_atom_site_fract_y
_atom_site_fract_z
Si Si1 0.500000 0.500000 0.250000
Si Si2 0.009772 0.650004 0.000000
Si Si3 0.362116 0.295948 0.202423
Si Si4 0.538237 0.937919 0.352864
Si Si5 0.062810 0.772618 0.500000
Si Si6 0.173463 0.096219 0.324556
Si Si7 0.179853 0.836940 0.000000
O O1 0.585746 0.542995 0.305932
O O2 0.982593 0.611355 0.086061
O O3 0.164584 0.663729 0.000000
O O4 0.925095 0.705387 0.000000
O O5 0.500000 0.280744 0.250000
O O6 0.250000 0.250000 0.224419
O O7 0.326557 0.357523 0.243856
O O8 0.381607 0.295587 0.094329
O O9 0.500000 0.932743 0.250000
O O10 0.689462 0.928918 0.349993
O O11 0.500000 0.000000 0.385491
O O12 0.907812 0.781880 0.500000
O O13 0.133574 0.130790 0.411714
#
# Coordination Sequence:
#
# PCOD9498508 Si02
#       7
#     4   8  16  16   8  16   8
#     4  12  20  42  62 100 132 174 232 282 360 436
#     4  10  24  35  68  99 136 178 229 294 353 420
#     4  12  28  47  72 104 146 189 241 296 364 430
#     4  10  22  42  64  95 132 178 232 288 352 415
#     4  12  24  43  66 105 140 186 233 296 354 425
#     4  11  24  42  70  96 136 186 229 297 359 430
#     4  10  21  43  64  98 138 180 241 282 356 431
#
# _framework density 20.651022999999999
#
# number of rings (size 3 to 8) (size 9 to 14) (size 15 to 20)
#    0.000    1.053    3.158    2.211    8.842    0.421 
#    0.000    1.053    0.000    0.000    0.000    0.000 
#    0.000    0.000    0.000    0.000    0.000    0.000 
#
# Total GULP energy -212131.373064 kJ/mol
# GULP energy per Si atom -5582.404554 kJ/mol
# Density = 2.060402 g / cm^3
# Si number density = 20.651023 Si / 1000 Ang^3
#
#
#
# Elastic Constant Matrix: (Units=GPa)
#
#
# Indices 1 2 3 4 5 6 
#
# 1 66.4778 44.3651 11.6820 0.0000 0.0000 0.0000
# 2 44.3651 167.9590 72.1048 0.0000 0.0000 0.0000
# 3 11.6820 72.1048 138.7132 0.0000 0.0000 0.0000
# 4 0.0000 0.0000 0.0000 -17.7101 0.0000 0.0000
# 5 0.0000 0.0000 0.0000 0.0000 50.4553 0.0000
# 6 0.0000 0.0000 0.0000 0.0000 0.0000 50.6063
#
#
#
# Elastic Compliance Matrix: (Units=1/GPa)
#
#
# Indices 1 2 3 4 5 6 
#
# 1 0.018431 -0.005409 0.001260 0.000000 0.000000 0.000000
# 2 -0.005409 0.009252 -0.004354 0.000000 0.000000 0.000000
# 3 0.001260 -0.004354 0.009366 0.000000 0.000000 0.000000
# 4 0.000000 0.000000 0.000000 -0.056465 0.000000 0.000000
# 5 0.000000 0.000000 0.000000 0.000000 0.019820 0.000000
# 6 0.000000 0.000000 0.000000 0.000000 0.000000 0.019760
#
#
# Mechanical properties :
#
#
# Convention : Reuss Voigt Hill
#
# Bulk Modulus (GPa) = 49.89404 69.93932 59.91668
# Shear Modulus (GPa) = 114.02205 33.00348 73.51276
#
# Velocity S-wave (km/s) = 7.43866 4.00203 5.97285
# Velocity P-wave (km/s) = 9.89905 7.43611 8.75462
#
# Compressibility (1/GPa) = 0.02004247
#
# Stress axis : x y z
#
# Youngs Moduli (GPa) = 54.25589 108.08926 106.76824
#
# Poissons Ratio (x) = 0.58467 -0.13448
# Poissons Ratio (y) = 0.29348 0.46482
# Poissons Ratio (z) = -0.06834 0.47057
#
# Static dielectric constant tensor:
#      x y z
#    x -1.681970 0.000000 0.000000 
#    y 0.000000 1.709110 0.000000 
#    z 0.000000 0.000000 1.765990 
# 
# From -- ./inp_files/26494.got.cif
#   From: 2010.05.17/outbox.cif.g08.bks.cpg/sg66_14_cif.got.tgz:26494.got - 2010.06.03 17:51:23.
