data_PCOD9498350
_publ_section_title
;
Structure prediction by ZEFSAII (Michael W. Deem and Ramdas Pophale) SiO2 
 PCOD9498350
Probable space group: C C C M
;
_chemical_formula_sum "Si O2"
_cell_formula_units_Z 56
_cell_length_a 7.218387
_cell_length_b 22.728617
_cell_length_c 15.582886
_cell_angle_alpha 90.000000
_cell_angle_beta 90.000000
_cell_angle_gamma 90.000000
_cell_volume 2556.589884
_symmetry_space_group_name_H-M "C C C M"
_symmetry_group_IT_number 66
_symmetry_cell_setting 'orthorhombic'
loop_
_space_group_symop_operation_xyz
x,y,z
-x,-y,z
x,-y,1/2-z
-x,y,1/2-z
-x,-y,-z
x,y,-z
-x,y,1/2+z
x,-y,1/2+z
1/2+x,1/2+y,z
1/2-x,1/2-y,z
1/2+x,1/2-y,1/2-z
1/2-x,1/2+y,1/2-z
1/2-x,1/2-y,-z
1/2+x,1/2+y,-z
1/2-x,1/2+y,1/2+z
1/2+x,1/2-y,1/2+z
loop_
_atom_site_type_symbol
_atom_site_label
_atom_site_fract_x
_atom_site_fract_y
_atom_site_fract_z
Si Si1 0.586431 0.635690 0.663354
Si Si2 0.750000 0.750000 0.244701
Si Si3 0.047843 0.566363 0.851806
Si Si4 0.303385 0.828899 0.406673
O O1 0.500000 0.607781 0.750000
O O2 0.672915 0.697436 0.697240
O O3 0.745386 0.591630 0.632035
O O4 0.413111 0.654305 0.605126
O O5 0.634287 0.787147 0.172412
O O6 0.000000 0.500000 0.877475
O O7 0.000000 0.570909 0.750000
O O8 0.912936 0.611108 0.898040
O O9 0.343130 0.803398 0.500000
#
# Coordination Sequence:
#
# PCOD9498350 Si02
#       4
#    16   8  16  16
#     4  10  22  40  67  92 127 172 216 263 323 382
#     4  10  21  40  63  92 126 174 216 260 313 392
#     4  11  23  42  68  97 126 175 229 266 311 387
#     4  11  25  42  64 100 135 169 212 272 335 383
#
# _framework density 21.904177000000001
#
# number of rings (size 3 to 8) (size 9 to 14) (size 15 to 20)
#    0.000    1.429    5.714    0.429   12.000    2.857 
#    0.000    2.143    0.000    0.000    0.000    0.000 
#    0.000    0.000    0.000    0.000    0.000    0.000 
#
# Total GULP energy -156201.652474 kJ/mol
# GULP energy per Si atom -5578.630445 kJ/mol
# Density = 2.185432 g / cm^3
# Si number density = 21.904177 Si / 1000 Ang^3
#
#
#
# Elastic Constant Matrix: (Units=GPa)
#
#
# Indices 1 2 3 4 5 6 
#
# 1 121.4012 61.0164 6.7049 0.0000 0.0000 0.0000
# 2 61.0164 174.7538 15.4415 0.0000 0.0000 0.0000
# 3 6.7049 15.4415 54.9301 0.0000 0.0000 0.0000
# 4 0.0000 0.0000 0.0000 -14.5160 0.0000 0.0000
# 5 0.0000 0.0000 0.0000 0.0000 -0.6355 0.0000
# 6 0.0000 0.0000 0.0000 0.0000 0.0000 33.5233
#
#
#
# Elastic Compliance Matrix: (Units=1/GPa)
#
#
# Indices 1 2 3 4 5 6 
#
# 1 0.009994 -0.003468 -0.000245 0.000000 0.000000 0.000000
# 2 -0.003468 0.007071 -0.001565 0.000000 0.000000 0.000000
# 3 -0.000245 -0.001565 0.018675 0.000000 0.000000 0.000000
# 4 0.000000 0.000000 0.000000 -0.068889 0.000000 0.000000
# 5 0.000000 0.000000 0.000000 0.000000 -1.573685 0.000000
# 6 0.000000 0.000000 0.000000 0.000000 0.000000 0.029830
#
#
# Mechanical properties :
#
#
# Convention : Reuss Voigt Hill
#
# Bulk Modulus (GPa) = 39.70612 57.49008 48.59810
# Shear Modulus (GPa) = -3.20913 21.53584 9.16336
#
# Velocity S-wave (km/s) = -1.21172 3.13898 2.04755
# Velocity P-wave (km/s) = 4.02602 6.28019 5.27492
#
# Compressibility (1/GPa) = 0.02518503
#
# Stress axis : x y z
#
# Youngs Moduli (GPa) = 100.06478 141.41603 53.54842
#
# Poissons Ratio (x) = 0.49038 0.01312
# Poissons Ratio (y) = 0.34699 0.08378
# Poissons Ratio (z) = 0.02452 0.22125
#
# Static dielectric constant tensor:
#      x y z
#    x 1.921260 0.000000 0.000000 
#    y 0.000000 1.773600 0.000000 
#    z 0.000000 0.000000 1.805080 
# 
# From -- ./inp_files/23853.got.cif
#   From: 2010.05.17/outbox.cif.g08.bks.cpg/sg66_12_cif.got.tgz:23853.got - 2010.06.03 17:51:23.
