data_PCOD9498520
_publ_section_title
;
Structure prediction by ZEFSAII (Michael W. Deem and Ramdas Pophale) SiO2 
 PCOD9498520
Probable space group: C C C M
;
_chemical_formula_sum "Si O2"
_cell_formula_units_Z 96
_cell_length_a 17.057189
_cell_length_b 11.584170
_cell_length_c 25.696930
_cell_angle_alpha 90.000000
_cell_angle_beta 90.000000
_cell_angle_gamma 90.000000
_cell_volume 5077.543180
_symmetry_space_group_name_H-M "C C C M"
_symmetry_group_IT_number 66
_symmetry_cell_setting 'orthorhombic'
loop_
_space_group_symop_operation_xyz
x,y,z
-x,-y,z
x,-y,1/2-z
-x,y,1/2-z
-x,-y,-z
x,y,-z
-x,y,1/2+z
x,-y,1/2+z
1/2+x,1/2+y,z
1/2-x,1/2-y,z
1/2+x,1/2-y,1/2-z
1/2-x,1/2+y,1/2-z
1/2-x,1/2-y,-z
1/2+x,1/2+y,-z
1/2-x,1/2+y,1/2+z
1/2+x,1/2-y,1/2+z
loop_
_atom_site_type_symbol
_atom_site_label
_atom_site_fract_x
_atom_site_fract_y
_atom_site_fract_z
Si Si1 0.696642 0.987100 0.646252
Si Si2 0.668718 0.179564 0.559588
Si Si3 0.578985 0.703026 0.141835
Si Si4 0.629252 0.474396 0.813442
Si Si5 0.581102 0.789442 0.323087
Si Si6 0.174297 0.316372 0.774568
O O1 0.789111 0.969580 0.654413
O O2 0.641740 0.873345 0.646539
O O3 0.676741 0.068605 0.597302
O O4 0.682464 0.060518 0.698960
O O5 0.652523 0.147748 0.500000
O O6 0.750000 0.250000 0.561424
O O7 0.603292 0.265231 0.583622
O O8 0.573987 0.570775 0.159756
O O9 0.508144 0.788190 0.157740
O O10 0.654438 0.735835 0.176736
O O11 0.636510 0.500000 0.750000
O O12 0.598337 0.346467 0.822074
O O13 0.601368 0.820979 0.263894
O O14 0.250000 0.250000 0.749544
#
# Coordination Sequence:
#
# PCOD9498520 Si02
#       6
#    16  16  16  16  16  16
#     4  11  21  38  59  93 120 159 212 260 306 367
#     4  10  21  43  74  89 107 157 214 267 312 374
#     4  11  22  38  57  91 123 156 211 256 298 367
#     4  12  21  37  61  83 130 178 208 236 293 384
#     4  12  24  32  54  90 131 164 196 248 314 365
#     4  11  19  36  57  80 122 173 205 240 292 372
#
# _framework density 18.906780999999999
#
# number of rings (size 3 to 8) (size 9 to 14) (size 15 to 20)
#    0.000    0.833    5.000    5.000    0.000    3.333 
#    0.000    5.000    0.000    6.000    0.000    0.000 
#    0.000    0.000    0.000    0.000    0.000    0.000 
#
# Total GULP energy -267271.539683 kJ/mol
# GULP energy per Si atom -5568.157077 kJ/mol
# Density = 1.886375 g / cm^3
# Si number density = 18.906781 Si / 1000 Ang^3
#
#
#
# Elastic Constant Matrix: (Units=GPa)
#
#
# Indices 1 2 3 4 5 6 
#
# 1 92.0299 20.0207 29.7553 0.0000 0.0000 0.0000
# 2 20.0207 77.3283 30.4912 0.0000 0.0000 0.0000
# 3 29.7553 30.4912 122.4329 0.0000 0.0000 0.0000
# 4 0.0000 0.0000 0.0000 21.5469 0.0000 0.0000
# 5 0.0000 0.0000 0.0000 0.0000 -21.4945 0.0000
# 6 0.0000 0.0000 0.0000 0.0000 0.0000 35.4546
#
#
#
# Elastic Compliance Matrix: (Units=1/GPa)
#
#
# Indices 1 2 3 4 5 6 
#
# 1 0.012119 -0.002191 -0.002399 0.000000 0.000000 0.000000
# 2 -0.002191 0.014736 -0.003137 0.000000 0.000000 0.000000
# 3 -0.002399 -0.003137 0.009532 0.000000 0.000000 0.000000
# 4 0.000000 0.000000 0.000000 0.046410 0.000000 0.000000
# 5 0.000000 0.000000 0.000000 0.000000 -0.046524 0.000000
# 6 0.000000 0.000000 0.000000 0.000000 0.000000 0.028205
#
#
# Mechanical properties :
#
#
# Convention : Reuss Voigt Hill
#
# Bulk Modulus (GPa) = 47.77703 50.25840 49.01771
# Shear Modulus (GPa) = 57.52909 21.20300 39.36604
#
# Velocity S-wave (km/s) = 5.52212 3.35244 4.56797
# Velocity P-wave (km/s) = 8.12300 6.45175 7.33512
#
# Compressibility (1/GPa) = 0.02093056
#
# Stress axis : x y z
#
# Youngs Moduli (GPa) = 82.51803 67.85938 104.90708
#
# Poissons Ratio (x) = 0.14871 0.25172
# Poissons Ratio (y) = 0.18083 0.32914
# Poissons Ratio (z) = 0.19800 0.21290
#
# Static dielectric constant tensor:
#      x y z
#    x 1.754310 0.000000 0.000000 
#    y 0.000000 1.766090 0.000000 
#    z 0.000000 0.000000 1.662730 
# 
# From -- ./inp_files/56956.got.cif
#   From: 2010.05.17/outbox.cif.g08.bks.cpg/sg66_29_cif.got.tgz:56956.got - 2010.06.03 17:51:23.
