data_PCOD9498153
_publ_section_title
;
Structure prediction by ZEFSAII (Michael W. Deem and Ramdas Pophale) SiO2 
 PCOD9498153
Probable space group: C C C M
;
_chemical_formula_sum "Si O2"
_cell_formula_units_Z 112
_cell_length_a 25.892951
_cell_length_b 14.407598
_cell_length_c 13.839872
_cell_angle_alpha 90.000000
_cell_angle_beta 90.000000
_cell_angle_gamma 90.000000
_cell_volume 5163.036619
_symmetry_space_group_name_H-M "C C C M"
_symmetry_group_IT_number 66
_symmetry_cell_setting 'orthorhombic'
loop_
_space_group_symop_operation_xyz
x,y,z
-x,-y,z
x,-y,1/2-z
-x,y,1/2-z
-x,-y,-z
x,y,-z
-x,y,1/2+z
x,-y,1/2+z
1/2+x,1/2+y,z
1/2-x,1/2-y,z
1/2+x,1/2-y,1/2-z
1/2-x,1/2+y,1/2-z
1/2-x,1/2-y,-z
1/2+x,1/2+y,-z
1/2-x,1/2+y,1/2+z
1/2+x,1/2-y,1/2+z
loop_
_atom_site_type_symbol
_atom_site_label
_atom_site_fract_x
_atom_site_fract_y
_atom_site_fract_z
Si Si1 0.321847 0.163433 0.230514
Si Si2 0.953833 0.067050 0.616601
Si Si3 0.593606 0.936748 0.115424
Si Si4 0.408482 0.150977 0.384682
Si Si5 0.344577 0.526793 0.888127
Si Si6 0.517780 0.771044 0.882370
Si Si7 0.202776 0.134418 0.782922
O O1 0.352449 0.091107 0.164108
O O2 0.356706 0.172279 0.326110
O O3 0.262683 0.136144 0.247022
O O4 0.317155 0.265489 0.183342
O O5 0.956451 0.073907 0.500000
O O6 0.900083 0.016979 0.636711
O O7 0.960385 0.172325 0.652410
O O8 0.000000 0.000000 0.646637
O O9 0.552326 0.859145 0.147366
O O10 0.578473 0.042635 0.136459
O O11 0.598369 0.930030 0.000000
O O12 0.400693 0.160017 0.500000
O O13 0.457943 0.212768 0.356998
O O14 0.305638 0.442404 0.864791
O O15 0.329516 0.604874 0.811609
O O16 0.343661 0.555205 0.000000
O O17 0.519226 0.770953 0.000000
#
# Coordination Sequence:
#
# PCOD9498153 Si02
#       7
#    16  16  16  16  16  16  16
#     4  11  24  42  61  88 129 166 211 270 315 374
#     4   9  18  33  60  94 124 160 204 252 312 379
#     4  10  21  38  63  91 123 166 212 257 317 379
#     4  10  22  37  62  93 126 166 208 254 320 386
#     4  10  22  42  68  91 124 167 211 263 320 376
#     4   9  18  35  58  90 130 161 202 261 310 378
#     4  10  25  43  61  90 126 165 214 269 317 367
#
# _framework density 21.69266
#
# number of rings (size 3 to 8) (size 9 to 14) (size 15 to 20)
#    0.000    2.143    0.000    1.714    6.000    5.714 
#    0.000    5.714    0.000    0.000    0.000    0.000 
#    0.000    0.000    0.000    0.000    0.000    0.000 
#
# Total GULP energy -313059.102330 kJ/mol
# GULP energy per Si atom -5590.341113 kJ/mol
# Density = 2.164329 g / cm^3
# Si number density = 21.692660 Si / 1000 Ang^3
#
#
#
# Elastic Constant Matrix: (Units=GPa)
#
#
# Indices 1 2 3 4 5 6 
#
# 1 111.3669 18.6820 -2.7245 0.0000 0.0000 0.0000
# 2 18.6820 64.3273 -9.2965 0.0000 0.0000 0.0000
# 3 -2.7245 -9.2965 58.1045 0.0000 0.0000 0.0000
# 4 0.0000 0.0000 0.0000 19.5733 0.0000 0.0000
# 5 0.0000 0.0000 0.0000 0.0000 30.9906 0.0000
# 6 0.0000 0.0000 0.0000 0.0000 0.0000 28.6325
#
#
#
# Elastic Compliance Matrix: (Units=1/GPa)
#
#
# Indices 1 2 3 4 5 6 
#
# 1 0.009439 -0.002741 0.000004 0.000000 0.000000 0.000000
# 2 -0.002741 0.016709 0.002545 0.000000 0.000000 0.000000
# 3 0.000004 0.002545 0.017618 0.000000 0.000000 0.000000
# 4 0.000000 0.000000 0.000000 0.051090 0.000000 0.000000
# 5 0.000000 0.000000 0.000000 0.000000 0.032268 0.000000
# 6 0.000000 0.000000 0.000000 0.000000 0.000000 0.034925
#
#
# Mechanical properties :
#
#
# Convention : Reuss Voigt Hill
#
# Bulk Modulus (GPa) = 23.05066 27.45784 25.25425
# Shear Modulus (GPa) = 28.26554 30.98179 29.62367
#
# Velocity S-wave (km/s) = 3.61363 3.78327 3.69942
# Velocity P-wave (km/s) = 5.29718 5.63643 5.46944
#
# Compressibility (1/GPa) = 0.04338271
#
# Stress axis : x y z
#
# Youngs Moduli (GPa) = 105.94126 59.84704 56.76098
#
# Poissons Ratio (x) = 0.16403 -0.00023
# Poissons Ratio (y) = 0.29036 -0.14445
# Poissons Ratio (z) = -0.00043 -0.15231
#
# Static dielectric constant tensor:
#      x y z
#    x 1.763270 0.000000 0.000000 
#    y 0.000000 1.787640 0.000000 
#    z 0.000000 0.000000 1.798800 
# 
# From -- ./inp_files/32458.got.cif
#   From: 2010.05.17/outbox.cif.g08.bks.cpg/sg66_17_cif.got.tgz:32458.got - 2010.06.03 17:51:23.
