data_PCOD9498538
_publ_section_title
;
Structure prediction by ZEFSAII (Michael W. Deem and Ramdas Pophale) SiO2 
 PCOD9498538
Probable space group: C C C M
;
_chemical_formula_sum "Si O2"
_cell_formula_units_Z 128
_cell_length_a 24.719565
_cell_length_b 11.763282
_cell_length_c 23.261193
_cell_angle_alpha 90.000000
_cell_angle_beta 90.000000
_cell_angle_gamma 90.000000
_cell_volume 6763.964462
_symmetry_space_group_name_H-M "C C C M"
_symmetry_group_IT_number 66
_symmetry_cell_setting 'orthorhombic'
loop_
_space_group_symop_operation_xyz
x,y,z
-x,-y,z
x,-y,1/2-z
-x,y,1/2-z
-x,-y,-z
x,y,-z
-x,y,1/2+z
x,-y,1/2+z
1/2+x,1/2+y,z
1/2-x,1/2-y,z
1/2+x,1/2-y,1/2-z
1/2-x,1/2+y,1/2-z
1/2-x,1/2-y,-z
1/2+x,1/2+y,-z
1/2-x,1/2+y,1/2+z
1/2+x,1/2-y,1/2+z
loop_
_atom_site_type_symbol
_atom_site_label
_atom_site_fract_x
_atom_site_fract_y
_atom_site_fract_z
Si Si1 0.251173 0.385131 0.430904
Si Si2 0.443119 0.720092 0.138076
Si Si3 0.804392 0.314485 0.252301
Si Si4 0.823640 0.491110 0.342861
Si Si5 0.061871 0.474165 0.681237
Si Si6 0.603358 0.374208 0.747898
Si Si7 0.956390 0.897989 0.870376
Si Si8 0.127320 0.946914 0.931544
O O1 0.245082 0.392551 0.500000
O O2 0.250000 0.250000 0.416071
O O3 0.205866 0.458212 0.398207
O O4 0.309968 0.435961 0.414358
O O5 0.431129 0.844722 0.160911
O O6 0.432290 0.644253 0.195191
O O7 0.504266 0.707128 0.114648
O O8 0.402198 0.666401 0.092202
O O9 0.750000 0.250000 0.236098
O O10 0.797257 0.381856 0.312303
O O11 0.818895 0.407901 0.204407
O O12 0.852095 0.222982 0.255761
O O13 0.887482 0.463212 0.348168
O O14 0.066672 0.500000 0.750000
O O15 0.000000 0.500000 0.665949
O O16 0.628919 0.500000 0.750000
O O17 0.565193 0.372295 0.692835
O O18 0.905461 0.944909 0.906399
O O19 0.000000 0.000000 0.873981
O O20 0.124231 0.949738 0.000000
#
# Coordination Sequence:
#
# PCOD9498538 Si02
#       8
#    16  16  16  16  16  16  16  16
#     4  10  22  39  68  94 116 158 210 267 317 364
#     4  11  22  35  58  89 121 164 203 246 306 369
#     4  11  26  36  57  91 122 171 195 247 317 375
#     4  11  22  43  59  87 127 158 208 252 307 371
#     4  11  23  39  59  88 122 168 199 247 299 367
#     4  12  22  35  56  86 129 155 201 248 306 373
#     4  10  22  34  55  90 120 160 193 245 306 363
#     4  10  22  40  60  91 122 157 206 258 315 365
#
# _framework density 18.923814
#
# number of rings (size 3 to 8) (size 9 to 14) (size 15 to 20)
#    0.000    1.250    5.000    1.500   10.500    2.250 
#    0.000    0.000    0.000    2.625    0.000    0.000 
#    0.000    0.000    0.000    0.000    0.000    0.000 
#
# Total GULP energy -356949.716212 kJ/mol
# GULP energy per Si atom -5577.339316 kJ/mol
# Density = 1.888074 g / cm^3
# Si number density = 18.923814 Si / 1000 Ang^3
#
#
#
# Elastic Constant Matrix: (Units=GPa)
#
#
# Indices 1 2 3 4 5 6 
#
# 1 120.7412 7.2887 33.6259 0.0000 0.0000 0.0000
# 2 7.2887 46.9566 3.1154 0.0000 0.0000 0.0000
# 3 33.6259 3.1154 47.1263 0.0000 0.0000 0.0000
# 4 0.0000 0.0000 0.0000 22.9440 0.0000 0.0000
# 5 0.0000 0.0000 0.0000 0.0000 38.5698 0.0000
# 6 0.0000 0.0000 0.0000 0.0000 0.0000 25.8283
#
#
#
# Elastic Compliance Matrix: (Units=1/GPa)
#
#
# Indices 1 2 3 4 5 6 
#
# 1 0.010395 -0.001126 -0.007343 0.000000 0.000000 0.000000
# 2 -0.001126 0.021512 -0.000618 0.000000 0.000000 0.000000
# 3 -0.007343 -0.000618 0.026500 0.000000 0.000000 0.000000
# 4 0.000000 0.000000 0.000000 0.043584 0.000000 0.000000
# 5 0.000000 0.000000 0.000000 0.000000 0.025927 0.000000
# 6 0.000000 0.000000 0.000000 0.000000 0.000000 0.038717
#
#
# Mechanical properties :
#
#
# Convention : Reuss Voigt Hill
#
# Bulk Modulus (GPa) = 24.85590 33.65379 29.25484
# Shear Modulus (GPa) = 25.22435 28.85469 27.03952
#
# Velocity S-wave (km/s) = 3.65491 3.90908 3.78413
# Velocity P-wave (km/s) = 5.56546 6.18037 5.88096
#
# Compressibility (1/GPa) = 0.04023190
#
# Stress axis : x y z
#
# Youngs Moduli (GPa) = 96.19930 46.48537 37.73634
#
# Poissons Ratio (x) = 0.05236 0.27709
# Poissons Ratio (y) = 0.10836 0.02334
# Poissons Ratio (z) = 0.70636 0.02875
#
# Static dielectric constant tensor:
#      x y z
#    x 1.701840 0.000000 0.000000 
#    y 0.000000 1.732280 0.000000 
#    z 0.000000 0.000000 1.641330 
# 
# From -- ./inp_files/59943.got.cif
#   From: 2010.05.17/outbox.cif.g08.bks.cpg/sg66_30_cif.got.tgz:59943.got - 2010.06.03 17:51:23.
