data_PCOD9498866
_publ_section_title
;
Structure prediction by ZEFSAII (Michael W. Deem and Ramdas Pophale) SiO2 
 PCOD9498866
Probable space group: C C C M
;
_chemical_formula_sum "Si O2"
_cell_formula_units_Z 68
_cell_length_a 22.561296
_cell_length_b 6.292069
_cell_length_c 20.096489
_cell_angle_alpha 90.000000
_cell_angle_beta 90.000000
_cell_angle_gamma 90.000000
_cell_volume 2852.841935
_symmetry_space_group_name_H-M "C C C M"
_symmetry_group_IT_number 66
_symmetry_cell_setting 'orthorhombic'
loop_
_space_group_symop_operation_xyz
x,y,z
-x,-y,z
x,-y,1/2-z
-x,y,1/2-z
-x,-y,-z
x,y,-z
-x,y,1/2+z
x,-y,1/2+z
1/2+x,1/2+y,z
1/2-x,1/2-y,z
1/2+x,1/2-y,1/2-z
1/2-x,1/2+y,1/2-z
1/2-x,1/2-y,-z
1/2+x,1/2+y,-z
1/2-x,1/2+y,1/2+z
1/2+x,1/2-y,1/2+z
loop_
_atom_site_type_symbol
_atom_site_label
_atom_site_fract_x
_atom_site_fract_y
_atom_site_fract_z
Si Si1 0.000000 0.000000 0.250000
Si Si2 0.187810 0.332281 0.802514
Si Si3 0.337903 0.091815 0.575334
Si Si4 0.541974 0.174480 0.426525
Si Si5 0.901530 0.036146 0.154980
O O1 0.048436 0.127374 0.294498
O O2 0.161616 0.500000 0.750000
O O3 0.250000 0.250000 0.774852
O O4 0.200917 0.459297 0.871541
O O5 0.143760 0.135631 0.813267
O O6 0.314881 0.129353 0.500000
O O7 0.362480 0.300092 0.612792
O O8 0.395445 0.943866 0.568336
O O9 0.516269 0.214516 0.500000
O O10 0.557790 0.392751 0.392555
O O11 0.500000 0.000000 0.392463
#
# Coordination Sequence:
#
# PCOD9498866 Si02
#       5
#     4  16  16  16  16
#     4  12  24  36  64  96 136 178 236 280 342 412
#     4  11  27  45  71  96 133 182 236 291 353 423
#     4  10  22  42  68 101 136 178 231 289 357 423
#     4   9  18  34  58  89 127 171 217 267 330 403
#     4  11  23  41  62  96 134 177 223 284 349 413
#
# _framework density 23.835882000000002
#
# number of rings (size 3 to 8) (size 9 to 14) (size 15 to 20)
#    0.000    1.647    0.000    3.529    4.941    3.294 
#    0.000   10.588    0.000    0.000    0.000    0.000 
#    0.000    0.000    0.000    0.000    0.000    0.000 
#
# Total GULP energy -189773.371913 kJ/mol
# GULP energy per Si atom -5581.569762 kJ/mol
# Density = 2.378163 g / cm^3
# Si number density = 23.835882 Si / 1000 Ang^3
#
#
#
# Elastic Constant Matrix: (Units=GPa)
#
#
# Indices 1 2 3 4 5 6 
#
# 1 62.0816 24.4964 8.5429 0.0000 0.0000 0.0000
# 2 24.4964 108.9836 49.3747 0.0000 0.0000 0.0000
# 3 8.5429 49.3747 105.6464 0.0000 0.0000 0.0000
# 4 0.0000 0.0000 0.0000 -14.0984 0.0000 0.0000
# 5 0.0000 0.0000 0.0000 0.0000 24.4774 0.0000
# 6 0.0000 0.0000 0.0000 0.0000 0.0000 37.7769
#
#
#
# Elastic Compliance Matrix: (Units=1/GPa)
#
#
# Indices 1 2 3 4 5 6 
#
# 1 0.017700 -0.004224 0.000543 0.000000 0.000000 0.000000
# 2 -0.004224 0.012649 -0.005570 0.000000 0.000000 0.000000
# 3 0.000543 -0.005570 0.012025 0.000000 0.000000 0.000000
# 4 0.000000 0.000000 0.000000 -0.070930 0.000000 0.000000
# 5 0.000000 0.000000 0.000000 0.000000 0.040854 0.000000
# 6 0.000000 0.000000 0.000000 0.000000 0.000000 0.026471
#
#
# Mechanical properties :
#
#
# Convention : Reuss Voigt Hill
#
# Bulk Modulus (GPa) = 41.89204 49.05995 45.47600
# Shear Modulus (GPa) = 76.65440 22.58437 49.61938
#
# Velocity S-wave (km/s) = 5.67706 3.08148 4.56753
# Velocity P-wave (km/s) = 7.78366 5.76955 6.85103
#
# Compressibility (1/GPa) = 0.02387088
#
# Stress axis : x y z
#
# Youngs Moduli (GPa) = 56.49708 79.05989 83.16191
#
# Poissons Ratio (x) = 0.33399 -0.04516
# Poissons Ratio (y) = 0.23867 0.46320
# Poissons Ratio (z) = -0.03068 0.44035
#
# Static dielectric constant tensor:
#      x y z
#    x 1.854410 0.000000 0.000000 
#    y 0.000000 1.893890 0.000000 
#    z 0.000000 0.000000 2.079950 
# 
# From -- ./inp_files/52838.got.cif
#   From: 2010.05.17/outbox.cif.g08.bks.cpg/sg66_27_cif.got.tgz:52838.got - 2010.06.03 17:51:23.
