data_PCOD9498237
_publ_section_title
;
Structure prediction by ZEFSAII (Michael W. Deem and Ramdas Pophale) SiO2 
 PCOD9498237
Probable space group: C C C M
;
_chemical_formula_sum "Si O2"
_cell_formula_units_Z 52
_cell_length_a 9.965613
_cell_length_b 10.628881
_cell_length_c 25.853120
_cell_angle_alpha 90.000000
_cell_angle_beta 90.000000
_cell_angle_gamma 90.000000
_cell_volume 2738.448165
_symmetry_space_group_name_H-M "C C C M"
_symmetry_group_IT_number 66
_symmetry_cell_setting 'orthorhombic'
loop_
_space_group_symop_operation_xyz
x,y,z
-x,-y,z
x,-y,1/2-z
-x,y,1/2-z
-x,-y,-z
x,y,-z
-x,y,1/2+z
x,-y,1/2+z
1/2+x,1/2+y,z
1/2-x,1/2-y,z
1/2+x,1/2-y,1/2-z
1/2-x,1/2+y,1/2-z
1/2-x,1/2-y,-z
1/2+x,1/2+y,-z
1/2-x,1/2+y,1/2+z
1/2+x,1/2-y,1/2+z
loop_
_atom_site_type_symbol
_atom_site_label
_atom_site_fract_x
_atom_site_fract_y
_atom_site_fract_z
Si Si1 0.500000 0.500000 0.250000
Si Si2 0.241752 0.615083 0.217830
Si Si3 0.647131 0.859558 0.062089
Si Si4 0.654317 0.863218 0.398917
O O1 0.398446 0.576550 0.213793
O O2 0.180279 0.500000 0.250000
O O3 0.250000 0.750000 0.245458
O O4 0.171759 0.629743 0.163020
O O5 0.750000 0.750000 0.078000
O O6 0.499513 0.839277 0.085777
O O7 0.692123 0.999515 0.078928
O O8 0.635183 0.857590 0.000000
O O9 0.750000 0.750000 0.417412
#
# Coordination Sequence:
#
# PCOD9498237 Si02
#       4
#     4  16  16  16
#     4   8  20  40  54  82 134 148 194 254 288 356
#     4   9  20  40  58  88 120 163 196 245 299 354
#     4  10  23  42  61  89 125 160 198 250 309 362
#     4  10  21  39  62  93 119 156 207 249 293 362
#
# _framework density 18.988858
#
# number of rings (size 3 to 8) (size 9 to 14) (size 15 to 20)
#    0.923    1.538    0.000    1.846    0.000    9.846 
#   22.154    3.077    0.000    0.000    0.000    0.000 
#    0.000    0.000    0.000    0.000    0.000    0.000 
#
# Total GULP energy -144792.779071 kJ/mol
# GULP energy per Si atom -5568.953041 kJ/mol
# Density = 1.894564 g / cm^3
# Si number density = 18.988858 Si / 1000 Ang^3
#
#
#
# Elastic Constant Matrix: (Units=GPa)
#
#
# Indices 1 2 3 4 5 6 
#
# 1 86.4263 92.9757 27.2335 0.0000 0.0000 0.0000
# 2 92.9757 195.2807 43.7824 0.0000 0.0000 0.0000
# 3 27.2335 43.7824 58.9718 0.0000 0.0000 0.0000
# 4 0.0000 0.0000 0.0000 52.3156 0.0000 0.0000
# 5 0.0000 0.0000 0.0000 0.0000 1.1227 0.0000
# 6 0.0000 0.0000 0.0000 0.0000 0.0000 32.0023
#
#
#
# Elastic Compliance Matrix: (Units=1/GPa)
#
#
# Indices 1 2 3 4 5 6 
#
# 1 0.024196 -0.010815 -0.003144 0.000000 0.000000 0.000000
# 2 -0.010815 0.010977 -0.003156 0.000000 0.000000 0.000000
# 3 -0.003144 -0.003156 0.020752 0.000000 0.000000 0.000000
# 4 0.000000 0.000000 0.000000 0.019115 0.000000 0.000000
# 5 0.000000 0.000000 0.000000 0.000000 0.890740 0.000000
# 6 0.000000 0.000000 0.000000 0.000000 0.000000 0.031248
#
#
# Mechanical properties :
#
#
# Convention : Reuss Voigt Hill
#
# Bulk Modulus (GPa) = 46.09242 74.29577 60.19409
# Shear Modulus (GPa) = 4.81468 28.86726 16.84097
#
# Velocity S-wave (km/s) = 1.59406 3.90323 2.98130
# Velocity P-wave (km/s) = 5.26442 7.71521 6.60449
#
# Compressibility (1/GPa) = 0.02169554
#
# Stress axis : x y z
#
# Youngs Moduli (GPa) = 41.32924 91.09555 48.18777
#
# Poissons Ratio (x) = 0.98520 0.15152
# Poissons Ratio (y) = 0.44698 0.15206
# Poissons Ratio (z) = 0.12996 0.28746
#
# Static dielectric constant tensor:
#      x y z
#    x 1.659120 0.000000 0.000000 
#    y 0.000000 2.317380 0.000000 
#    z 0.000000 0.000000 1.646780 
# 
# From -- ./inp_files/63162.got.cif
#   From: 2010.05.17/outbox.cif.g08.bks.cpg/sg66_32_cif.got.tgz:63162.got - 2010.06.03 17:51:23.
