data_PCOD9498258
_publ_section_title
;
Structure prediction by ZEFSAII (Michael W. Deem and Ramdas Pophale) SiO2 
 PCOD9498258
Probable space group: C C C M
;
_chemical_formula_sum "Si O2"
_cell_formula_units_Z 56
_cell_length_a 23.821334
_cell_length_b 12.072781
_cell_length_c 9.499783
_cell_angle_alpha 90.000000
_cell_angle_beta 90.000000
_cell_angle_gamma 90.000000
_cell_volume 2732.040204
_symmetry_space_group_name_H-M "C C C M"
_symmetry_group_IT_number 66
_symmetry_cell_setting 'orthorhombic'
loop_
_space_group_symop_operation_xyz
x,y,z
-x,-y,z
x,-y,1/2-z
-x,y,1/2-z
-x,-y,-z
x,y,-z
-x,y,1/2+z
x,-y,1/2+z
1/2+x,1/2+y,z
1/2-x,1/2-y,z
1/2+x,1/2-y,1/2-z
1/2-x,1/2+y,1/2-z
1/2-x,1/2-y,-z
1/2+x,1/2+y,-z
1/2-x,1/2+y,1/2+z
1/2+x,1/2-y,1/2+z
loop_
_atom_site_type_symbol
_atom_site_label
_atom_site_fract_x
_atom_site_fract_y
_atom_site_fract_z
Si Si1 0.346725 0.500000 0.750000
Si Si2 0.837461 0.624727 0.000000
Si Si3 0.798727 0.137611 0.500000
Si Si4 0.904032 0.500000 0.750000
Si Si5 0.467818 0.316906 0.000000
Si Si6 0.000000 0.663828 0.250000
Si Si7 0.084254 0.056743 0.500000
O O1 0.311835 0.573088 0.643080
O O2 0.383174 0.424168 0.644994
O O3 0.865209 0.562262 0.134305
O O4 0.842739 0.758297 0.000000
O O5 0.769346 0.634517 0.000000
O O6 0.949417 0.588332 0.687158
O O7 0.468768 0.239043 0.135564
O O8 0.528672 0.374302 0.000000
O O9 0.428706 0.424849 0.000000
#
# Coordination Sequence:
#
# PCOD9498258 Si02
#       7
#     8   8   8   8   8   8   8
#     4  10  21  39  63  94 125 157 209 262 324 386
#     4  11  24  45  68  92 123 172 207 269 321 370
#     4  10  24  43  69  94 124 159 215 264 329 380
#     4  11  25  42  65  92 131 168 221 255 316 366
#     4  11  22  37  59  91 137 159 219 247 318 388
#     4  11  24  39  62  94 128 175 208 259 304 390
#     4  10  22  35  60  98 125 174 197 266 318 383
#
# _framework density 20.497502999999998
#
# number of rings (size 3 to 8) (size 9 to 14) (size 15 to 20)
#    0.000    1.429    0.000    4.286   12.000    4.571 
#    0.000    0.000    0.000    6.857    0.000    0.000 
#    0.000    0.000    0.000    0.000    0.000    0.000 
#
# Total GULP energy -155969.334113 kJ/mol
# GULP energy per Si atom -5570.333361 kJ/mol
# Density = 2.045085 g / cm^3
# Si number density = 20.497503 Si / 1000 Ang^3
#
#
#
# Elastic Constant Matrix: (Units=GPa)
#
#
# Indices 1 2 3 4 5 6 
#
# 1 79.4166 25.4513 16.6139 0.0000 0.0000 0.0000
# 2 25.4513 103.9985 34.4686 0.0000 0.0000 0.0000
# 3 16.6139 34.4686 113.9899 0.0000 0.0000 0.0000
# 4 0.0000 0.0000 0.0000 22.4277 0.0000 0.0000
# 5 0.0000 0.0000 0.0000 0.0000 24.3951 0.0000
# 6 0.0000 0.0000 0.0000 0.0000 0.0000 24.8352
#
#
#
# Elastic Compliance Matrix: (Units=1/GPa)
#
#
# Indices 1 2 3 4 5 6 
#
# 1 0.013786 -0.003010 -0.001099 0.000000 0.000000 0.000000
# 2 -0.003010 0.011344 -0.002991 0.000000 0.000000 0.000000
# 3 -0.001099 -0.002991 0.009837 0.000000 0.000000 0.000000
# 4 0.000000 0.000000 0.000000 0.044588 0.000000 0.000000
# 5 0.000000 0.000000 0.000000 0.000000 0.040992 0.000000
# 6 0.000000 0.000000 0.000000 0.000000 0.000000 0.040266
#
#
# Mechanical properties :
#
#
# Convention : Reuss Voigt Hill
#
# Bulk Modulus (GPa) = 48.15397 50.05250 49.10323
# Shear Modulus (GPa) = 27.48233 29.05634 28.26933
#
# Velocity S-wave (km/s) = 3.66562 3.76913 3.71773
# Velocity P-wave (km/s) = 6.43889 6.58890 6.51433
#
# Compressibility (1/GPa) = 0.02076672
#
# Stress axis : x y z
#
# Youngs Moduli (GPa) = 72.53579 88.15613 101.65187
#
# Poissons Ratio (x) = 0.26531 0.11175
# Poissons Ratio (y) = 0.21830 0.30409
# Poissons Ratio (z) = 0.07974 0.26371
#
# Static dielectric constant tensor:
#      x y z
#    x 1.784410 0.000000 0.000000 
#    y 0.000000 1.828680 0.000000 
#    z 0.000000 0.000000 2.055260 
# 
# From -- ./inp_files/9857.got.cif
#   From: 2010.05.17/outbox.cif.g08.bks.cpg/sg66_5_cif.got.tgz:9857.got - 2010.06.03 17:51:23.
