data_PCOD9498307
_publ_section_title
;
Structure prediction by ZEFSAII (Michael W. Deem and Ramdas Pophale) SiO2 
 PCOD9498307
Probable space group: C C C M
;
_chemical_formula_sum "Si O2"
_cell_formula_units_Z 112
_cell_length_a 31.346335
_cell_length_b 11.576900
_cell_length_c 14.475065
_cell_angle_alpha 90.000000
_cell_angle_beta 90.000000
_cell_angle_gamma 90.000000
_cell_volume 5252.905346
_symmetry_space_group_name_H-M "C C C M"
_symmetry_group_IT_number 66
_symmetry_cell_setting 'orthorhombic'
loop_
_space_group_symop_operation_xyz
x,y,z
-x,-y,z
x,-y,1/2-z
-x,y,1/2-z
-x,-y,-z
x,y,-z
-x,y,1/2+z
x,-y,1/2+z
1/2+x,1/2+y,z
1/2-x,1/2-y,z
1/2+x,1/2-y,1/2-z
1/2-x,1/2+y,1/2-z
1/2-x,1/2-y,-z
1/2+x,1/2+y,-z
1/2-x,1/2+y,1/2+z
1/2+x,1/2-y,1/2+z
loop_
_atom_site_type_symbol
_atom_site_label
_atom_site_fract_x
_atom_site_fract_y
_atom_site_fract_z
Si Si1 0.807322 0.818090 0.212101
Si Si2 0.191794 0.562401 0.653068
Si Si3 0.597631 0.632708 0.758737
Si Si4 0.778694 0.953751 0.394254
Si Si5 0.595354 0.029143 0.606415
Si Si6 0.939369 0.286715 0.109655
Si Si7 0.539350 0.758214 0.889659
O O1 0.792589 0.693453 0.173432
O O2 0.858315 0.804086 0.217945
O O3 0.798850 0.925754 0.143358
O O4 0.789717 0.859577 0.313593
O O5 0.185533 0.500000 0.750000
O O6 0.228539 0.486702 0.605267
O O7 0.145305 0.557591 0.608158
O O8 0.608661 0.500000 0.750000
O O9 0.581183 0.680840 0.662308
O O10 0.560522 0.654009 0.833540
O O11 0.791755 0.924654 0.500000
O O12 0.581327 0.022047 0.500000
O O13 0.566969 0.132596 0.644345
O O14 0.583170 0.904050 0.644761
O O15 0.989935 0.283968 0.128189
O O16 0.933129 0.276813 0.000000
O O17 0.544604 0.741481 0.000000
#
# Coordination Sequence:
#
# PCOD9498307 Si02
#       7
#    16  16  16  16  16  16  16
#     4  11  24  47  67  98 137 173 221 287 339 395
#     4  12  23  41  70  98 141 171 216 277 333 401
#     4  12  24  43  65  91 128 178 230 272 329 392
#     4  11  25  45  71  99 130 179 229 276 337 401
#     4  10  21  39  66 101 133 170 216 266 336 405
#     4  10  23  42  65  97 135 171 214 275 336 396
#     4  10  22  41  66  97 133 171 216 273 333 397
#
# _framework density 21.321534
#
# number of rings (size 3 to 8) (size 9 to 14) (size 15 to 20)
#    0.000    1.143    4.286    2.571    0.000    6.286 
#    0.000    5.000    0.000    0.000    0.000    0.000 
#    0.000    0.000    0.000    0.000    0.000    0.000 
#
# Total GULP energy -312766.944975 kJ/mol
# GULP energy per Si atom -5585.124017 kJ/mol
# Density = 2.127301 g / cm^3
# Si number density = 21.321534 Si / 1000 Ang^3
#
#
#
# Elastic Constant Matrix: (Units=GPa)
#
#
# Indices 1 2 3 4 5 6 
#
# 1 91.6721 -1.5229 -0.1862 0.0000 0.0000 0.0000
# 2 -1.5229 38.3598 -5.7496 0.0000 0.0000 0.0000
# 3 -0.1862 -5.7496 72.1403 0.0000 0.0000 0.0000
# 4 0.0000 0.0000 0.0000 2.6725 0.0000 0.0000
# 5 0.0000 0.0000 0.0000 0.0000 48.9847 0.0000
# 6 0.0000 0.0000 0.0000 0.0000 0.0000 32.4672
#
#
#
# Elastic Compliance Matrix: (Units=1/GPa)
#
#
# Indices 1 2 3 4 5 6 
#
# 1 0.010916 0.000443 0.000063 0.000000 0.000000 0.000000
# 2 0.000443 0.026402 0.002105 0.000000 0.000000 0.000000
# 3 0.000063 0.002105 0.014030 0.000000 0.000000 0.000000
# 4 0.000000 0.000000 0.000000 0.374180 0.000000 0.000000
# 5 0.000000 0.000000 0.000000 0.000000 0.020415 0.000000
# 6 0.000000 0.000000 0.000000 0.000000 0.000000 0.030800
#
#
# Mechanical properties :
#
#
# Convention : Reuss Voigt Hill
#
# Bulk Modulus (GPa) = 17.67679 20.80610 19.24145
# Shear Modulus (GPa) = 10.19625 30.80028 20.49826
#
# Velocity S-wave (km/s) = 2.18918 3.80486 3.10399
# Velocity P-wave (km/s) = 3.83388 5.39278 4.67871
#
# Compressibility (1/GPa) = 0.05657136
#
# Stress axis : x y z
#
# Youngs Moduli (GPa) = 91.60926 37.87573 71.27662
#
# Poissons Ratio (x) = -0.01677 -0.00452
# Poissons Ratio (y) = -0.04057 -0.15007
# Poissons Ratio (z) = -0.00581 -0.07974
#
# Static dielectric constant tensor:
#      x y z
#    x 1.781960 0.000000 0.000000 
#    y 0.000000 1.790090 0.000000 
#    z 0.000000 0.000000 1.790170 
# 
# From -- ./inp_files/26991.got.cif
#   From: 2010.05.17/outbox.cif.g08.bks.cpg/sg66_14_cif.got.tgz:26991.got - 2010.06.03 17:51:23.
