data_PCOD9498861
_publ_section_title
;
Structure prediction by ZEFSAII (Michael W. Deem and Ramdas Pophale) SiO2 
 PCOD9498861
Probable space group: C C C M
;
_chemical_formula_sum "Si O2"
_cell_formula_units_Z 48
_cell_length_a 4.902712
_cell_length_b 15.767032
_cell_length_c 28.010823
_cell_angle_alpha 90.000000
_cell_angle_beta 90.000000
_cell_angle_gamma 90.000000
_cell_volume 2165.270707
_symmetry_space_group_name_H-M "C C C M"
_symmetry_group_IT_number 66
_symmetry_cell_setting 'orthorhombic'
loop_
_space_group_symop_operation_xyz
x,y,z
-x,-y,z
x,-y,1/2-z
-x,y,1/2-z
-x,-y,-z
x,y,-z
-x,y,1/2+z
x,-y,1/2+z
1/2+x,1/2+y,z
1/2-x,1/2-y,z
1/2+x,1/2-y,1/2-z
1/2-x,1/2+y,1/2-z
1/2-x,1/2-y,-z
1/2+x,1/2+y,-z
1/2-x,1/2+y,1/2+z
1/2+x,1/2-y,1/2+z
loop_
_atom_site_type_symbol
_atom_site_label
_atom_site_fract_x
_atom_site_fract_y
_atom_site_fract_z
Si Si1 0.252815 0.053226 0.877069
Si Si2 0.010032 0.810444 0.053887
Si Si3 0.497684 0.813438 0.694958
O O1 0.087762 0.112361 0.913852
O O2 0.426261 0.109302 0.839659
O O3 0.500000 0.000000 0.901074
O O4 0.000000 0.000000 0.854463
O O5 0.750000 0.750000 0.050686
O O6 0.250000 0.750000 0.073404
O O7 0.090355 0.837447 0.000000
O O8 0.500000 0.843229 0.750000
O O9 0.250000 0.750000 0.689097
O O10 0.750000 0.750000 0.686237
#
# Coordination Sequence:
#
# PCOD9498861 Si02
#       3
#    16  16  16
#     4  12  25  39  63  99 135 166 203 266 334 383
#     4  10  22  42  67  92 124 171 220 262 309 378
#     4  10  22  43  68  90 121 172 225 266 310 378
#
# _framework density 22.168126000000001
#
# number of rings (size 3 to 8) (size 9 to 14) (size 15 to 20)
#    0.000    1.333    0.000    5.000    0.000    4.667 
#    0.000    1.667    0.000    0.000    0.000    0.000 
#    0.000    0.000    0.000    0.000    0.000    0.000 
#
# Total GULP energy -134027.473498 kJ/mol
# GULP energy per Si atom -5584.478062 kJ/mol
# Density = 2.211767 g / cm^3
# Si number density = 22.168126 Si / 1000 Ang^3
#
#
#
# Elastic Constant Matrix: (Units=GPa)
#
#
# Indices 1 2 3 4 5 6 
#
# 1 199.1673 59.2533 41.6484 0.0000 0.0000 0.0000
# 2 59.2533 94.1488 63.0586 0.0000 0.0000 0.0000
# 3 41.6484 63.0586 101.1753 0.0000 0.0000 0.0000
# 4 0.0000 0.0000 0.0000 -18.4258 0.0000 0.0000
# 5 0.0000 0.0000 0.0000 0.0000 29.1343 0.0000
# 6 0.0000 0.0000 0.0000 0.0000 0.0000 76.6000
#
#
#
# Elastic Compliance Matrix: (Units=1/GPa)
#
#
# Indices 1 2 3 4 5 6 
#
# 1 0.006180 -0.003752 -0.000206 0.000000 0.000000 0.000000
# 2 -0.003752 0.020510 -0.011239 0.000000 0.000000 0.000000
# 3 -0.000206 -0.011239 0.016973 0.000000 0.000000 0.000000
# 4 0.000000 0.000000 0.000000 -0.054272 0.000000 0.000000
# 5 0.000000 0.000000 0.000000 0.000000 0.034324 0.000000
# 6 0.000000 0.000000 0.000000 0.000000 0.000000 0.013055
#
#
# Mechanical properties :
#
#
# Convention : Reuss Voigt Hill
#
# Bulk Modulus (GPa) = 75.35221 80.26800 77.81010
# Shear Modulus (GPa) = 69.84582 32.83043 51.33813
#
# Velocity S-wave (km/s) = 5.61923 3.85252 4.81755
# Velocity P-wave (km/s) = 8.72731 7.48843 8.13150
#
# Compressibility (1/GPa) = 0.01327101
#
# Stress axis : x y z
#
# Youngs Moduli (GPa) = 161.81046 48.75650 58.91639
#
# Poissons Ratio (x) = 0.18292 0.01212
# Poissons Ratio (y) = 0.60706 0.66215
# Poissons Ratio (z) = 0.03329 0.54796
#
# Static dielectric constant tensor:
#      x y z
#    x 1.766410 0.000000 0.000000 
#    y 0.000000 1.823650 0.000000 
#    z 0.000000 0.000000 1.785530 
# 
# From -- ./inp_files/60881.got.cif
#   From: 2010.05.17/outbox.cif.g08.bks.cpg/sg66_31_cif.got.tgz:60881.got - 2010.06.03 17:51:23.
