data_PCOD9498854
_publ_section_title
;
Structure prediction by ZEFSAII (Michael W. Deem and Ramdas Pophale) SiO2 
 PCOD9498854
Probable space group: C C C M
;
_chemical_formula_sum "Si O2"
_cell_formula_units_Z 120
_cell_length_a 11.010951
_cell_length_b 26.524912
_cell_length_c 21.891662
_cell_angle_alpha 90.000000
_cell_angle_beta 90.000000
_cell_angle_gamma 90.000000
_cell_volume 6393.777454
_symmetry_space_group_name_H-M "C C C M"
_symmetry_group_IT_number 66
_symmetry_cell_setting 'orthorhombic'
loop_
_space_group_symop_operation_xyz
x,y,z
-x,-y,z
x,-y,1/2-z
-x,y,1/2-z
-x,-y,-z
x,y,-z
-x,y,1/2+z
x,-y,1/2+z
1/2+x,1/2+y,z
1/2-x,1/2-y,z
1/2+x,1/2-y,1/2-z
1/2-x,1/2+y,1/2-z
1/2-x,1/2-y,-z
1/2+x,1/2+y,-z
1/2-x,1/2+y,1/2+z
1/2+x,1/2-y,1/2+z
loop_
_atom_site_type_symbol
_atom_site_label
_atom_site_fract_x
_atom_site_fract_y
_atom_site_fract_z
Si Si1 0.250000 0.250000 0.329256
Si Si2 0.188578 0.697893 0.571413
Si Si3 0.854783 0.502907 0.178304
Si Si4 0.859880 0.846062 0.269517
Si Si5 0.898048 0.312223 0.070776
Si Si6 0.781902 0.896566 0.146744
Si Si7 0.756928 0.094845 0.114309
Si Si8 0.005238 0.940016 0.568009
O O1 0.182822 0.210059 0.286134
O O2 0.159847 0.277888 0.376350
O O3 0.220938 0.694983 0.500000
O O4 0.250000 0.750000 0.594956
O O5 0.237517 0.648713 0.604596
O O6 0.042647 0.695179 0.576107
O O7 0.817552 0.500000 0.250000
O O8 0.805392 0.555047 0.150546
O O9 0.801392 0.455872 0.141097
O O10 0.000000 0.500000 0.176007
O O11 0.791869 0.872614 0.213656
O O12 0.823270 0.876819 0.329729
O O13 0.000000 0.846692 0.250000
O O14 0.843410 0.367911 0.085072
O O15 0.865237 0.299517 0.000000
O O16 0.909711 0.915613 0.119285
O O17 0.868649 0.080860 0.070706
O O18 0.056553 0.930769 0.500000
O O19 0.000000 0.000000 0.578102
#
# Coordination Sequence:
#
# PCOD9498854 Si02
#       8
#     8  16  16  16  16  16  16  16
#     4  10  25  40  62  94 123 160 214 262 316 376
#     4  10  24  43  64  91 122 163 215 264 314 373
#     4  11  23  39  60  90 128 167 208 250 309 381
#     4  11  24  39  61  93 124 161 205 254 318 377
#     4  10  22  42  65  90 125 167 211 262 319 376
#     4  12  23  40  65  90 127 167 203 259 316 375
#     4  11  21  41  62  93 129 163 208 257 317 379
#     4  11  23  38  62  93 126 165 209 257 308 373
#
# _framework density 18.768246999999999
#
# number of rings (size 3 to 8) (size 9 to 14) (size 15 to 20)
#    0.000    1.200    4.000    1.800    2.800    0.000 
#    0.000    4.667    0.000    3.200    0.000    0.000 
#    0.000    0.000    0.000    0.000    0.000    0.000 
#
# Total GULP energy -334923.798351 kJ/mol
# GULP energy per Si atom -5582.063306 kJ/mol
# Density = 1.872553 g / cm^3
# Si number density = 18.768247 Si / 1000 Ang^3
#
#
#
# Elastic Constant Matrix: (Units=GPa)
#
#
# Indices 1 2 3 4 5 6 
#
# 1 84.9010 54.3777 28.4306 0.0000 0.0000 0.0000
# 2 54.3777 146.0474 40.7168 0.0000 0.0000 0.0000
# 3 28.4306 40.7168 77.1733 0.0000 0.0000 0.0000
# 4 0.0000 0.0000 0.0000 160.1619 0.0000 0.0000
# 5 0.0000 0.0000 0.0000 0.0000 17.2136 0.0000
# 6 0.0000 0.0000 0.0000 0.0000 0.0000 28.2409
#
#
#
# Elastic Compliance Matrix: (Units=1/GPa)
#
#
# Indices 1 2 3 4 5 6 
#
# 1 0.016134 -0.005100 -0.003253 0.000000 0.000000 0.000000
# 2 -0.005100 0.009640 -0.003207 0.000000 0.000000 0.000000
# 3 -0.003253 -0.003207 0.015848 0.000000 0.000000 0.000000
# 4 0.000000 0.000000 0.000000 0.006244 0.000000 0.000000
# 5 0.000000 0.000000 0.000000 0.000000 0.058094 0.000000
# 6 0.000000 0.000000 0.000000 0.000000 0.000000 0.035410
#
#
# Mechanical properties :
#
#
# Convention : Reuss Voigt Hill
#
# Bulk Modulus (GPa) = 54.04845 61.68577 57.86711
# Shear Modulus (GPa) = 29.29825 53.42971 41.36398
#
# Velocity S-wave (km/s) = 3.95530 5.34134 4.69970
# Velocity P-wave (km/s) = 7.05121 8.42487 7.76846
#
# Compressibility (1/GPa) = 0.01850192
#
# Stress axis : x y z
#
# Youngs Moduli (GPa) = 61.97910 103.73128 63.09791
#
# Poissons Ratio (x) = 0.52908 0.20525
# Poissons Ratio (y) = 0.31612 0.20237
# Poissons Ratio (z) = 0.20161 0.33269
#
# Static dielectric constant tensor:
#      x y z
#    x 1.636840 0.000000 0.000000 
#    y 0.000000 1.634790 0.000000 
#    z 0.000000 0.000000 1.638610 
# 
# From -- ./inp_files/49057.got.cif
#   From: 2010.05.17/outbox.cif.g08.bks.cpg/sg66_25_cif.got.tgz:49057.got - 2010.06.03 17:51:23.
