data_PCOD9498769
_publ_section_title
;
Structure prediction by ZEFSAII (Michael W. Deem and Ramdas Pophale) SiO2 
 PCOD9498769
Probable space group: C C C M
;
_chemical_formula_sum "Si O2"
_cell_formula_units_Z 112
_cell_length_a 14.558284
_cell_length_b 22.746803
_cell_length_c 15.369648
_cell_angle_alpha 90.000000
_cell_angle_beta 90.000000
_cell_angle_gamma 90.000000
_cell_volume 5089.726841
_symmetry_space_group_name_H-M "C C C M"
_symmetry_group_IT_number 66
_symmetry_cell_setting 'orthorhombic'
loop_
_space_group_symop_operation_xyz
x,y,z
-x,-y,z
x,-y,1/2-z
-x,y,1/2-z
-x,-y,-z
x,y,-z
-x,y,1/2+z
x,-y,1/2+z
1/2+x,1/2+y,z
1/2-x,1/2-y,z
1/2+x,1/2-y,1/2-z
1/2-x,1/2+y,1/2-z
1/2-x,1/2-y,-z
1/2+x,1/2+y,-z
1/2-x,1/2+y,1/2+z
1/2+x,1/2-y,1/2+z
loop_
_atom_site_type_symbol
_atom_site_label
_atom_site_fract_x
_atom_site_fract_y
_atom_site_fract_z
Si Si1 0.130915 0.709955 0.403265
Si Si2 0.942122 0.943625 0.897588
Si Si3 0.260213 0.814998 0.226234
Si Si4 0.427621 0.323156 0.813263
Si Si5 0.557611 0.913620 0.100603
Si Si6 0.738776 0.979385 0.848207
Si Si7 0.856468 0.406777 0.099951
O O1 0.172958 0.703975 0.500000
O O2 0.192908 0.696058 0.319961
O O3 0.097184 0.776077 0.387376
O O4 0.057057 0.657541 0.398612
O O5 0.967614 0.883107 0.850860
O O6 0.832808 0.952366 0.883739
O O7 0.960241 0.937771 0.000000
O O8 0.000000 0.000000 0.865629
O O9 0.250000 0.750000 0.185589
O O10 0.160431 0.838076 0.253816
O O11 0.316630 0.857806 0.164316
O O12 0.500000 0.292355 0.750000
O O13 0.649579 0.936923 0.146537
O O14 0.456217 0.930501 0.131957
O O15 0.566942 0.933357 0.000000
O O16 0.753697 0.000000 0.750000
O O17 0.711538 0.038092 0.899293
O O18 0.867708 0.386180 0.000000
#
# Coordination Sequence:
#
# PCOD9498769 Si02
#       7
#    16  16  16  16  16  16  16
#     4  10  22  42  70 100 133 172 221 279 342 406
#     4  11  26  45  67  93 128 177 230 283 339 404
#     4  10  24  42  65 100 131 178 230 281 350 406
#     4  11  25  42  66  97 132 173 221 286 338 409
#     4  10  22  40  66  99 133 173 219 273 335 406
#     4  12  25  41  66  98 133 175 225 286 345 409
#     4  11  24  42  66  97 139 184 225 276 342 419
#
# _framework density 22.005109999999998
#
# number of rings (size 3 to 8) (size 9 to 14) (size 15 to 20)
#    0.000    1.286    0.000    4.714    8.000    8.000 
#    0.000    0.714    0.000    0.000    0.000    0.000 
#    0.000    0.000    0.000    0.000    0.000    0.000 
#
# Total GULP energy -312970.088231 kJ/mol
# GULP energy per Si atom -5588.751576 kJ/mol
# Density = 2.195503 g / cm^3
# Si number density = 22.005110 Si / 1000 Ang^3
#
#
#
# Elastic Constant Matrix: (Units=GPa)
#
#
# Indices 1 2 3 4 5 6 
#
# 1 53.9070 5.9646 18.6035 0.0000 0.0000 0.0000
# 2 5.9646 105.0907 26.8886 0.0000 0.0000 0.0000
# 3 18.6035 26.8886 89.4159 0.0000 0.0000 0.0000
# 4 0.0000 0.0000 0.0000 31.4626 0.0000 0.0000
# 5 0.0000 0.0000 0.0000 0.0000 16.6399 0.0000
# 6 0.0000 0.0000 0.0000 0.0000 0.0000 35.7108
#
#
#
# Elastic Compliance Matrix: (Units=1/GPa)
#
#
# Indices 1 2 3 4 5 6 
#
# 1 0.019986 -0.000076 -0.004135 0.000000 0.000000 0.000000
# 2 -0.000076 0.010309 -0.003084 0.000000 0.000000 0.000000
# 3 -0.004135 -0.003084 0.012972 0.000000 0.000000 0.000000
# 4 0.000000 0.000000 0.000000 0.031784 0.000000 0.000000
# 5 0.000000 0.000000 0.000000 0.000000 0.060096 0.000000
# 6 0.000000 0.000000 0.000000 0.000000 0.000000 0.028003
#
#
# Mechanical properties :
#
#
# Convention : Reuss Voigt Hill
#
# Bulk Modulus (GPa) = 34.87351 39.03635 36.95493
# Shear Modulus (GPa) = 26.69525 29.89314 28.29420
#
# Velocity S-wave (km/s) = 3.48679 3.68973 3.58970
# Velocity P-wave (km/s) = 5.66503 5.99419 5.83194
#
# Compressibility (1/GPa) = 0.02867506
#
# Stress axis : x y z
#
# Youngs Moduli (GPa) = 50.03504 97.00222 77.09196
#
# Poissons Ratio (x) = 0.00740 0.31880
# Poissons Ratio (y) = 0.00382 0.23777
# Poissons Ratio (z) = 0.20691 0.29917
#
# Static dielectric constant tensor:
#      x y z
#    x 1.838460 0.000000 0.000000 
#    y 0.000000 1.849670 0.000000 
#    z 0.000000 0.000000 1.785220 
# 
# From -- ./inp_files/28736.got.cif
#   From: 2010.05.17/outbox.cif.g08.bks.cpg/sg66_15_cif.got.tgz:28736.got - 2010.06.03 17:51:23.
