data_PCOD9498037
_publ_section_title
;
Structure prediction by ZEFSAII (Michael W. Deem and Ramdas Pophale) SiO2 
 PCOD9498037
Probable space group: C C C M
;
_chemical_formula_sum "Si O2"
_cell_formula_units_Z 68
_cell_length_a 18.900788
_cell_length_b 7.811914
_cell_length_c 21.764913
_cell_angle_alpha 90.000000
_cell_angle_beta 90.000000
_cell_angle_gamma 90.000000
_cell_volume 3213.618360
_symmetry_space_group_name_H-M "C C C M"
_symmetry_group_IT_number 66
_symmetry_cell_setting 'orthorhombic'
loop_
_space_group_symop_operation_xyz
x,y,z
-x,-y,z
x,-y,1/2-z
-x,y,1/2-z
-x,-y,-z
x,y,-z
-x,y,1/2+z
x,-y,1/2+z
1/2+x,1/2+y,z
1/2-x,1/2-y,z
1/2+x,1/2-y,1/2-z
1/2-x,1/2+y,1/2-z
1/2-x,1/2-y,-z
1/2+x,1/2+y,-z
1/2-x,1/2+y,1/2+z
1/2+x,1/2-y,1/2+z
loop_
_atom_site_type_symbol
_atom_site_label
_atom_site_fract_x
_atom_site_fract_y
_atom_site_fract_z
Si Si1 0.919569 0.873573 0.364290
Si Si2 0.840629 0.427351 0.071841
Si Si3 0.198236 0.097245 0.073010
Si Si4 0.958728 0.680767 0.929764
Si Si5 0.500000 0.500000 0.750000
O O1 0.871480 0.709472 0.381091
O O2 0.994370 0.818831 0.394940
O O3 0.871518 0.029075 0.391778
O O4 0.945778 0.899895 0.294805
O O5 0.756908 0.446024 0.075066
O O6 0.879968 0.611009 0.084282
O O7 0.859433 0.383932 0.000000
O O8 0.250000 0.250000 0.095796
O O9 0.183652 0.124251 0.000000
O O10 0.000000 0.500000 0.923990
O O11 0.960339 0.734907 0.000000
#
# Coordination Sequence:
#
# PCOD9498037 Si02
#       5
#    16  16  16  16   4
#     4  11  22  42  61  81 132 175 218 272 304 368
#     4   9  18  37  69 105 129 154 200 263 347 424
#     4  10  21  37  66 106 136 156 195 265 352 418
#     4   8  15  31  62  98 123 151 195 255 336 403
#     4  12  32  44  56  84 124 176 252 266 280 360
#
# _framework density 21.159949999999998
#
# number of rings (size 3 to 8) (size 9 to 14) (size 15 to 20)
#    0.000    2.353    0.000    4.235    3.294    1.882 
#    0.000   11.765    0.000    0.000    0.000    0.000 
#    0.000    0.000    0.000    0.000    0.000    0.000 
#
# Total GULP energy -189332.031996 kJ/mol
# GULP energy per Si atom -5568.589176 kJ/mol
# Density = 2.111179 g / cm^3
# Si number density = 21.159950 Si / 1000 Ang^3
#
#
#
# Elastic Constant Matrix: (Units=GPa)
#
#
# Indices 1 2 3 4 5 6 
#
# 1 190.9225 34.2225 57.2906 0.0000 0.0000 0.0000
# 2 34.2225 103.1525 59.8194 0.0000 0.0000 0.0000
# 3 57.2906 59.8194 108.5853 0.0000 0.0000 0.0000
# 4 0.0000 0.0000 0.0000 -2.5949 0.0000 0.0000
# 5 0.0000 0.0000 0.0000 0.0000 28.7186 0.0000
# 6 0.0000 0.0000 0.0000 0.0000 0.0000 38.7559
#
#
#
# Elastic Compliance Matrix: (Units=1/GPa)
#
#
# Indices 1 2 3 4 5 6 
#
# 1 0.006227 -0.000236 -0.003155 0.000000 0.000000 0.000000
# 2 -0.000236 0.014254 -0.007728 0.000000 0.000000 0.000000
# 3 -0.003155 -0.007728 0.015132 0.000000 0.000000 0.000000
# 4 0.000000 0.000000 0.000000 -0.385367 0.000000 0.000000
# 5 0.000000 0.000000 0.000000 0.000000 0.034821 0.000000
# 6 0.000000 0.000000 0.000000 0.000000 0.000000 0.025803
#
#
# Mechanical properties :
#
#
# Convention : Reuss Voigt Hill
#
# Bulk Modulus (GPa) = 74.77345 78.36948 76.57147
# Shear Modulus (GPa) = -19.05243 29.73108 5.33933
#
# Velocity S-wave (km/s) = -3.00392 3.75248 1.59022
# Velocity P-wave (km/s) = 4.83555 7.47609 6.29581
#
# Compressibility (1/GPa) = 0.01337373
#
# Stress axis : x y z
#
# Youngs Moduli (GPa) = 160.59458 70.15401 66.08720
#
# Poissons Ratio (x) = 0.01656 0.20852
# Poissons Ratio (y) = 0.03791 0.51073
# Poissons Ratio (z) = 0.50672 0.54216
#
# Static dielectric constant tensor:
#      x y z
#    x 1.884520 0.000000 0.000000 
#    y 0.000000 1.955480 0.000000 
#    z 0.000000 0.000000 1.683310 
# 
# From -- ./inp_files/42521.got.cif
#   From: 2010.05.17/outbox.cif.g08.bks.cpg/sg66_22_cif.got.tgz:42521.got - 2010.06.03 17:51:23.
