data_PCOD9498648
_publ_section_title
;
Structure prediction by ZEFSAII (Michael W. Deem and Ramdas Pophale) SiO2 
 PCOD9498648
Probable space group: C C C M
;
_chemical_formula_sum "Si O2"
_cell_formula_units_Z 48
_cell_length_a 29.869474
_cell_length_b 7.340111
_cell_length_c 10.987921
_cell_angle_alpha 90.000000
_cell_angle_beta 90.000000
_cell_angle_gamma 90.000000
_cell_volume 2409.049538
_symmetry_space_group_name_H-M "C C C M"
_symmetry_group_IT_number 66
_symmetry_cell_setting 'orthorhombic'
loop_
_space_group_symop_operation_xyz
x,y,z
-x,-y,z
x,-y,1/2-z
-x,y,1/2-z
-x,-y,-z
x,y,-z
-x,y,1/2+z
x,-y,1/2+z
1/2+x,1/2+y,z
1/2-x,1/2-y,z
1/2+x,1/2-y,1/2-z
1/2-x,1/2+y,1/2-z
1/2-x,1/2-y,-z
1/2+x,1/2+y,-z
1/2-x,1/2+y,1/2+z
1/2+x,1/2-y,1/2+z
loop_
_atom_site_type_symbol
_atom_site_label
_atom_site_fract_x
_atom_site_fract_y
_atom_site_fract_z
Si Si1 0.886315 0.864979 0.136483
Si Si2 0.204301 0.635264 0.363543
Si Si3 0.480358 0.795014 0.369923
O O1 0.838638 0.766446 0.145584
O O2 0.926839 0.718932 0.140305
O O3 0.891766 0.000000 0.250000
O O4 0.888853 0.950997 0.000000
O O5 0.203110 0.500000 0.250000
O O6 0.202722 0.549276 0.500000
O O7 0.250000 0.750000 0.357022
O O8 0.500000 0.705249 0.250000
O O9 0.493299 0.712443 0.500000
O O10 0.500000 0.000000 0.372007
#
# Coordination Sequence:
#
# PCOD9498648 Si02
#       3
#    16  16  16
#     4  10  22  39  59  87 120 155 197 243 295 353
#     4  10  22  39  61  90 122 155 197 245 293 351
#     4   9  19  35  56  81 112 150 195 241 287 342
#
# _framework density 19.924871
#
# number of rings (size 3 to 8) (size 9 to 14) (size 15 to 20)
#    0.000    2.333    0.000    1.000    4.667    4.000 
#    0.000    3.333    0.000    0.000    0.000    0.000 
#    0.000    0.000    0.000    0.000    0.000    0.000 
#
# Total GULP energy -133737.213351 kJ/mol
# GULP energy per Si atom -5572.383890 kJ/mol
# Density = 1.987952 g / cm^3
# Si number density = 19.924871 Si / 1000 Ang^3
#
#
#
# Elastic Constant Matrix: (Units=GPa)
#
#
# Indices 1 2 3 4 5 6 
#
# 1 148.1077 37.2576 62.1382 0.0000 0.0000 0.0000
# 2 37.2576 76.5079 66.6135 0.0000 0.0000 0.0000
# 3 62.1382 66.6135 230.4380 0.0000 0.0000 0.0000
# 4 0.0000 0.0000 0.0000 18.2658 0.0000 0.0000
# 5 0.0000 0.0000 0.0000 0.0000 32.5851 0.0000
# 6 0.0000 0.0000 0.0000 0.0000 0.0000 20.9768
#
#
#
# Elastic Compliance Matrix: (Units=1/GPa)
#
#
# Indices 1 2 3 4 5 6 
#
# 1 0.008010 -0.002699 -0.001379 0.000000 0.000000 0.000000
# 2 -0.002699 0.018376 -0.004584 0.000000 0.000000 0.000000
# 3 -0.001379 -0.004584 0.006037 0.000000 0.000000 0.000000
# 4 0.000000 0.000000 0.000000 0.054747 0.000000 0.000000
# 5 0.000000 0.000000 0.000000 0.000000 0.030689 0.000000
# 6 0.000000 0.000000 0.000000 0.000000 0.000000 0.047672
#
#
# Mechanical properties :
#
#
# Convention : Reuss Voigt Hill
#
# Bulk Modulus (GPa) = 66.24032 87.45246 76.84639
# Shear Modulus (GPa) = 26.61145 33.63518 30.12331
#
# Velocity S-wave (km/s) = 3.65854 4.11311 3.89246
# Velocity P-wave (km/s) = 7.15288 8.15740 7.67160
#
# Compressibility (1/GPa) = 0.01509654
#
# Stress axis : x y z
#
# Youngs Moduli (GPa) = 124.84918 54.41738 165.65260
#
# Poissons Ratio (x) = 0.14690 0.22852
# Poissons Ratio (y) = 0.33702 0.75939
# Poissons Ratio (z) = 0.17223 0.24946
#
# Static dielectric constant tensor:
#      x y z
#    x 1.678420 0.000000 0.000000 
#    y 0.000000 1.657800 0.000000 
#    z 0.000000 0.000000 1.778700 
# 
# From -- ./inp_files/2769.got.cif
#   From: 2010.05.17/outbox.cif.g08.bks.cpg/sg66_2_cif.got.tgz:2769.got - 2010.06.03 17:51:23.
