data_PCOD9498580
_publ_section_title
;
Structure prediction by ZEFSAII (Michael W. Deem and Ramdas Pophale) SiO2 
 PCOD9498580
Probable space group: C C C M
;
_chemical_formula_sum "Si O2"
_cell_formula_units_Z 60
_cell_length_a 8.923153
_cell_length_b 13.034404
_cell_length_c 27.183232
_cell_angle_alpha 90.000000
_cell_angle_beta 90.000000
_cell_angle_gamma 90.000000
_cell_volume 3161.626835
_symmetry_space_group_name_H-M "C C C M"
_symmetry_group_IT_number 66
_symmetry_cell_setting 'orthorhombic'
loop_
_space_group_symop_operation_xyz
x,y,z
-x,-y,z
x,-y,1/2-z
-x,y,1/2-z
-x,-y,-z
x,y,-z
-x,y,1/2+z
x,-y,1/2+z
1/2+x,1/2+y,z
1/2-x,1/2-y,z
1/2+x,1/2-y,1/2-z
1/2-x,1/2+y,1/2-z
1/2-x,1/2-y,-z
1/2+x,1/2+y,-z
1/2-x,1/2+y,1/2+z
1/2+x,1/2-y,1/2+z
loop_
_atom_site_type_symbol
_atom_site_label
_atom_site_fract_x
_atom_site_fract_y
_atom_site_fract_z
Si Si1 0.749177 0.005105 0.500000
Si Si2 0.009264 0.326256 0.500000
Si Si3 0.500000 0.000000 0.250000
Si Si4 0.590228 0.803368 0.296733
Si Si5 0.927596 0.224742 0.101912
Si Si6 0.000000 0.000000 0.582457
O O1 0.627744 0.094788 0.500000
O O2 0.856070 0.013108 0.547107
O O3 0.659637 0.896973 0.500000
O O4 0.006448 0.259143 0.450525
O O5 0.596517 0.923805 0.283745
O O6 0.500000 0.759477 0.250000
O O7 0.750000 0.750000 0.298110
O O8 0.517038 0.785920 0.350008
O O9 0.750000 0.250000 0.097911
O O10 0.965232 0.105385 0.110531
#
# Coordination Sequence:
#
# PCOD9498580 Si02
#       6
#     8   8   4  16  16   8
#     4  10  22  37  61  88 127 172 213 245 312 373
#     4  11  21  39  61  94 128 167 206 256 312 379
#     4   8  20  44  66  88 124 160 202 272 302 374
#     4   9  21  46  66  93 125 166 209 263 318 369
#     4  11  22  41  63  89 132 165 202 260 319 370
#     4  11  22  40  59  90 124 170 207 255 310 370
#
# _framework density 18.977571999999999
#
# number of rings (size 3 to 8) (size 9 to 14) (size 15 to 20)
#    0.800    1.067    2.667    2.000    0.000    4.267 
#   14.400    0.000    0.000    0.000    0.000    0.000 
#    0.000    0.000    0.000    0.000    0.000    0.000 
#
# Total GULP energy -167169.290760 kJ/mol
# GULP energy per Si atom -5572.309692 kJ/mol
# Density = 1.893438 g / cm^3
# Si number density = 18.977572 Si / 1000 Ang^3
#
#
#
# Elastic Constant Matrix: (Units=GPa)
#
#
# Indices 1 2 3 4 5 6 
#
# 1 52.1467 23.1415 10.9505 0.0000 0.0000 0.0000
# 2 23.1415 147.1497 47.4050 0.0000 0.0000 0.0000
# 3 10.9505 47.4050 145.2099 0.0000 0.0000 0.0000
# 4 0.0000 0.0000 0.0000 53.5252 0.0000 0.0000
# 5 0.0000 0.0000 0.0000 0.0000 -8.5444 0.0000
# 6 0.0000 0.0000 0.0000 0.0000 0.0000 25.9637
#
#
#
# Elastic Compliance Matrix: (Units=1/GPa)
#
#
# Indices 1 2 3 4 5 6 
#
# 1 0.020655 -0.003069 -0.000556 0.000000 0.000000 0.000000
# 2 -0.003069 0.008051 -0.002397 0.000000 0.000000 0.000000
# 3 -0.000556 -0.002397 0.007711 0.000000 0.000000 0.000000
# 4 0.000000 0.000000 0.000000 0.018683 0.000000 0.000000
# 5 0.000000 0.000000 0.000000 0.000000 -0.117036 0.000000
# 6 0.000000 0.000000 0.000000 0.000000 0.000000 0.038515
#
#
# Mechanical properties :
#
#
# Convention : Reuss Voigt Hill
#
# Bulk Modulus (GPa) = 41.02814 56.38893 48.70854
# Shear Modulus (GPa) = -1537.15601 31.72285 -752.71658
#
# Velocity S-wave (km/s) = -28.49112 4.09295 -19.93730
# Velocity P-wave (km/s) = 32.56776 7.21902 22.45601
#
# Compressibility (1/GPa) = 0.02437352
#
# Stress axis : x y z
#
# Youngs Moduli (GPa) = 48.41337 124.21399 129.68629
#
# Poissons Ratio (x) = 0.38126 0.07206
# Poissons Ratio (y) = 0.14860 0.31082
# Poissons Ratio (z) = 0.02690 0.29771
#
# Static dielectric constant tensor:
#      x y z
#    x 1.657090 0.000000 0.000000 
#    y 0.000000 1.675530 0.000000 
#    z 0.000000 0.000000 1.684800 
# 
# From -- ./inp_files/64225.got.cif
#   From: 2010.05.17/outbox.cif.g08.bks.cpg/sg66_33_cif.got.tgz:64225.got - 2010.06.03 17:51:23.
