data_PCOD9498509
_publ_section_title
;
Structure prediction by ZEFSAII (Michael W. Deem and Ramdas Pophale) SiO2 
 PCOD9498509
Probable space group: C C C M
;
_chemical_formula_sum "Si O2"
_cell_formula_units_Z 112
_cell_length_a 10.019842
_cell_length_b 22.324057
_cell_length_c 24.782410
_cell_angle_alpha 90.000000
_cell_angle_beta 90.000000
_cell_angle_gamma 90.000000
_cell_volume 5543.416801
_symmetry_space_group_name_H-M "C C C M"
_symmetry_group_IT_number 66
_symmetry_cell_setting 'orthorhombic'
loop_
_space_group_symop_operation_xyz
x,y,z
-x,-y,z
x,-y,1/2-z
-x,y,1/2-z
-x,-y,-z
x,y,-z
-x,y,1/2+z
x,-y,1/2+z
1/2+x,1/2+y,z
1/2-x,1/2-y,z
1/2+x,1/2-y,1/2-z
1/2-x,1/2+y,1/2-z
1/2-x,1/2-y,-z
1/2+x,1/2+y,-z
1/2-x,1/2+y,1/2+z
1/2+x,1/2-y,1/2+z
loop_
_atom_site_type_symbol
_atom_site_label
_atom_site_fract_x
_atom_site_fract_y
_atom_site_fract_z
Si Si1 0.022267 0.389667 0.937664
Si Si2 0.231787 0.562043 0.894380
Si Si3 0.345150 0.064260 0.730537
Si Si4 0.609979 0.228758 0.108607
Si Si5 0.654092 0.198125 0.233612
Si Si6 0.454689 0.650918 0.935236
Si Si7 0.801074 0.939372 0.064642
O O1 0.161851 0.411786 0.913913
O O2 0.902856 0.436787 0.929703
O O3 0.966206 0.327782 0.914973
O O4 0.048334 0.380194 0.000000
O O5 0.178531 0.564796 0.833558
O O6 0.323739 0.617484 0.912208
O O7 0.315403 0.502653 0.906178
O O8 0.500000 0.063905 0.750000
O O9 0.296453 0.130809 0.747902
O O10 0.287862 0.000000 0.750000
O O11 0.750000 0.250000 0.081697
O O12 0.646570 0.208923 0.169122
O O13 0.523987 0.288374 0.098521
O O14 0.500000 0.204149 0.250000
O O15 0.750000 0.250000 0.256102
O O16 0.578475 0.606203 0.927437
O O17 0.441290 0.661985 0.000000
O O18 0.792255 0.951040 0.000000
#
# Coordination Sequence:
#
# PCOD9498509 Si02
#       7
#    16  16  16  16  16  16  16
#     4  11  22  36  61  95 127 162 211 268 317 381
#     4  12  21  39  67  93 123 167 223 264 317 395
#     4  10  23  40  67  94 124 163 211 274 336 384
#     4  11  21  39  65  93 129 167 219 271 322 388
#     4  10  21  43  65  90 122 162 215 271 328 387
#     4  11  23  41  65  95 137 182 214 259 332 400
#     4  10  24  39  57  92 137 175 210 259 323 385
#
# _framework density 20.204146000000001
#
# number of rings (size 3 to 8) (size 9 to 14) (size 15 to 20)
#    0.000    1.286    2.857    3.429    4.000    3.429 
#    5.143    2.143    0.000    0.000    0.000    0.000 
#    0.000    0.000    0.000    0.000    0.000    0.000 
#
# Total GULP energy -312375.154945 kJ/mol
# GULP energy per Si atom -5578.127767 kJ/mol
# Density = 2.015816 g / cm^3
# Si number density = 20.204146 Si / 1000 Ang^3
#
#
#
# Elastic Constant Matrix: (Units=GPa)
#
#
# Indices 1 2 3 4 5 6 
#
# 1 54.5633 21.6589 2.5681 0.0000 0.0000 0.0000
# 2 21.6589 158.6683 19.5869 0.0000 0.0000 0.0000
# 3 2.5681 19.5869 20.9100 0.0000 0.0000 0.0000
# 4 0.0000 0.0000 0.0000 30.6899 0.0000 0.0000
# 5 0.0000 0.0000 0.0000 0.0000 17.1536 0.0000
# 6 0.0000 0.0000 0.0000 0.0000 0.0000 18.3171
#
#
#
# Elastic Compliance Matrix: (Units=1/GPa)
#
#
# Indices 1 2 3 4 5 6 
#
# 1 0.019378 -0.002659 0.000111 0.000000 0.000000 0.000000
# 2 -0.002659 0.007491 -0.006691 0.000000 0.000000 0.000000
# 3 0.000111 -0.006691 0.054078 0.000000 0.000000 0.000000
# 4 0.000000 0.000000 0.000000 0.032584 0.000000 0.000000
# 5 0.000000 0.000000 0.000000 0.000000 0.058297 0.000000
# 6 0.000000 0.000000 0.000000 0.000000 0.000000 0.054594
#
#
# Mechanical properties :
#
#
# Convention : Reuss Voigt Hill
#
# Bulk Modulus (GPa) = 16.00796 35.75215 25.88006
# Shear Modulus (GPa) = 18.81665 25.92062 22.36863
#
# Velocity S-wave (km/s) = 3.05507 3.58570 3.33097
# Velocity P-wave (km/s) = 4.51497 5.90566 5.25651
#
# Compressibility (1/GPa) = 0.06246894
#
# Stress axis : x y z
#
# Youngs Moduli (GPa) = 51.60620 133.48741 18.49186
#
# Poissons Ratio (x) = 0.35491 -0.00205
# Poissons Ratio (y) = 0.13721 0.12373
# Poissons Ratio (z) = -0.00571 0.89314
#
# Static dielectric constant tensor:
#      x y z
#    x 1.767080 0.000000 0.000000 
#    y 0.000000 1.777690 0.000000 
#    z 0.000000 0.000000 1.727110 
# 
# From -- ./inp_files/57172.got.cif
#   From: 2010.05.17/outbox.cif.g08.bks.cpg/sg66_29_cif.got.tgz:57172.got - 2010.06.03 17:51:23.
