data_PCOD9498119
_publ_section_title
;
Structure prediction by ZEFSAII (Michael W. Deem and Ramdas Pophale) SiO2 
 PCOD9498119
Probable space group: C C C M
;
_chemical_formula_sum "Si O2"
_cell_formula_units_Z 64
_cell_length_a 14.157790
_cell_length_b 8.038636
_cell_length_c 27.309321
_cell_angle_alpha 90.000000
_cell_angle_beta 90.000000
_cell_angle_gamma 90.000000
_cell_volume 3108.055263
_symmetry_space_group_name_H-M "C C C M"
_symmetry_group_IT_number 66
_symmetry_cell_setting 'orthorhombic'
loop_
_space_group_symop_operation_xyz
x,y,z
-x,-y,z
x,-y,1/2-z
-x,y,1/2-z
-x,-y,-z
x,y,-z
-x,y,1/2+z
x,-y,1/2+z
1/2+x,1/2+y,z
1/2-x,1/2-y,z
1/2+x,1/2-y,1/2-z
1/2-x,1/2+y,1/2-z
1/2-x,1/2-y,-z
1/2+x,1/2+y,-z
1/2-x,1/2+y,1/2+z
1/2+x,1/2-y,1/2+z
loop_
_atom_site_type_symbol
_atom_site_label
_atom_site_fract_x
_atom_site_fract_y
_atom_site_fract_z
Si Si1 0.982220 0.189369 0.854938
Si Si2 0.830164 0.379800 0.614118
Si Si3 0.670497 0.114094 0.796400
Si Si4 0.640131 0.801663 0.444338
O O1 0.922285 0.291096 0.815252
O O2 0.920569 0.200132 0.904891
O O3 0.080086 0.281247 0.865481
O O4 0.000000 0.000000 0.840603
O O5 0.750000 0.250000 0.599078
O O6 0.795163 0.499197 0.658246
O O7 0.863025 0.505245 0.571700
O O8 0.750000 0.250000 0.785061
O O9 0.652012 0.000000 0.750000
O O10 0.608366 0.776887 0.500000
O O11 0.750000 0.750000 0.440791
#
# Coordination Sequence:
#
# PCOD9498119 Si02
#       4
#    16  16  16  16
#     4  11  23  40  63  90 123 163 203 250 303 361
#     4  11  22  39  62  88 121 160 202 250 305 359
#     4  11  23  41  63  90 120 154 197 247 305 364
#     4  10  21  38  61  90 124 162 205 253 304 362
#
# _framework density 20.591653999999998
#
# number of rings (size 3 to 8) (size 9 to 14) (size 15 to 20)
#    0.000    1.250    0.000    9.750    0.000    5.000 
#    0.000    1.250    0.000    0.000    0.000    0.000 
#    0.000    0.000    0.000    0.000    0.000    0.000 
#
# Total GULP energy -179091.714091 kJ/mol
# GULP energy per Si atom -5596.616065 kJ/mol
# Density = 2.054479 g / cm^3
# Si number density = 20.591654 Si / 1000 Ang^3
#
#
#
# Elastic Constant Matrix: (Units=GPa)
#
#
# Indices 1 2 3 4 5 6 
#
# 1 85.7079 19.1419 8.1740 0.0000 0.0000 0.0000
# 2 19.1419 80.7940 7.5820 0.0000 0.0000 0.0000
# 3 8.1740 7.5820 96.7152 0.0000 0.0000 0.0000
# 4 0.0000 0.0000 0.0000 9.8537 0.0000 0.0000
# 5 0.0000 0.0000 0.0000 0.0000 10.4885 0.0000
# 6 0.0000 0.0000 0.0000 0.0000 0.0000 41.5212
#
#
#
# Elastic Compliance Matrix: (Units=1/GPa)
#
#
# Indices 1 2 3 4 5 6 
#
# 1 0.012384 -0.002857 -0.000823 0.000000 0.000000 0.000000
# 2 -0.002857 0.013128 -0.000788 0.000000 0.000000 0.000000
# 3 -0.000823 -0.000788 0.010471 0.000000 0.000000 0.000000
# 4 0.000000 0.000000 0.000000 0.101485 0.000000 0.000000
# 5 0.000000 0.000000 0.000000 0.000000 0.095343 0.000000
# 6 0.000000 0.000000 0.000000 0.000000 0.000000 0.024084
#
#
# Mechanical properties :
#
#
# Convention : Reuss Voigt Hill
#
# Bulk Modulus (GPa) = 36.97080 37.00144 36.98612
# Shear Modulus (GPa) = 18.19208 27.59395 22.89301
#
# Velocity S-wave (km/s) = 2.97554 3.66465 3.33793
# Velocity P-wave (km/s) = 5.45879 5.99286 5.73205
#
# Compressibility (1/GPa) = 0.02704837
#
# Stress axis : x y z
#
# Youngs Moduli (GPa) = 80.74908 76.17343 95.50256
#
# Poissons Ratio (x) = 0.21762 0.07857
# Poissons Ratio (y) = 0.23069 0.07523
# Poissons Ratio (z) = 0.06643 0.06000
#
# Static dielectric constant tensor:
#      x y z
#    x 1.716860 0.000000 0.000000 
#    y 0.000000 1.720720 0.000000 
#    z 0.000000 0.000000 1.727110 
# 
# From -- ./inp_files/67888.got.cif
#   From: 2010.05.17/outbox.cif.g08.bks.cpg/sg66_34_cif.got.tgz:67888.got - 2010.06.03 17:51:23.
