data_PCOD9498322
_publ_section_title
;
Structure prediction by ZEFSAII (Michael W. Deem and Ramdas Pophale) SiO2 
 PCOD9498322
Probable space group: C C C M
;
_chemical_formula_sum "Si O2"
_cell_formula_units_Z 112
_cell_length_a 12.172912
_cell_length_b 15.881189
_cell_length_c 27.391679
_cell_angle_alpha 90.000000
_cell_angle_beta 90.000000
_cell_angle_gamma 90.000000
_cell_volume 5295.368044
_symmetry_space_group_name_H-M "C C C M"
_symmetry_group_IT_number 66
_symmetry_cell_setting 'orthorhombic'
loop_
_space_group_symop_operation_xyz
x,y,z
-x,-y,z
x,-y,1/2-z
-x,y,1/2-z
-x,-y,-z
x,y,-z
-x,y,1/2+z
x,-y,1/2+z
1/2+x,1/2+y,z
1/2-x,1/2-y,z
1/2+x,1/2-y,1/2-z
1/2-x,1/2+y,1/2-z
1/2-x,1/2-y,-z
1/2+x,1/2+y,-z
1/2-x,1/2+y,1/2+z
1/2+x,1/2-y,1/2+z
loop_
_atom_site_type_symbol
_atom_site_label
_atom_site_fract_x
_atom_site_fract_y
_atom_site_fract_z
Si Si1 0.390265 0.119098 0.782973
Si Si2 0.755319 0.520191 0.153420
Si Si3 0.712564 0.844933 0.685481
Si Si4 0.462710 0.406610 0.192743
Si Si5 0.866397 0.711108 0.444260
Si Si6 0.129456 0.510349 0.944239
Si Si7 0.000008 0.270216 0.854665
O O1 0.500000 0.118258 0.750000
O O2 0.359525 0.033890 0.810648
O O3 0.298403 0.139538 0.742869
O O4 0.397839 0.188228 0.826312
O O5 0.723640 0.422584 0.161904
O O6 0.664042 0.583716 0.174478
O O7 0.795702 0.530502 0.097921
O O8 0.750000 0.750000 0.679298
O O9 0.593456 0.837895 0.660704
O O10 0.500000 0.500000 0.177253
O O11 0.500000 0.399903 0.250000
O O12 0.509737 0.322545 0.168064
O O13 0.882389 0.739049 0.500000
O O14 0.750000 0.750000 0.426819
O O15 0.851170 0.610573 0.444081
O O16 0.972178 0.735171 0.411731
O O17 0.000000 0.500000 0.932905
O O18 0.147971 0.479351 0.000000
#
# Coordination Sequence:
#
# PCOD9498322 Si02
#       7
#    16  16  16  16  16  16  16
#     4  10  25  39  60  94 128 163 213 267 322 384
#     4  12  25  40  66  95 130 171 213 276 325 390
#     4  11  23  37  62  87 123 171 219 257 311 382
#     4  11  27  43  60  89 135 181 218 249 319 397
#     4  10  21  39  67  96 121 159 218 275 325 386
#     4  10  22  42  68  99 130 165 213 277 343 397
#     4  11  22  41  62  89 130 167 211 268 323 386
#
# _framework density 21.150562000000001
#
# number of rings (size 3 to 8) (size 9 to 14) (size 15 to 20)
#    0.000    1.286    1.429    3.857   12.000    1.714 
#    0.000    0.714    0.000    0.857    0.000    5.000 
#    0.000    0.000    0.000    0.000    0.000    0.000 
#
# Total GULP energy -312077.324449 kJ/mol
# GULP energy per Si atom -5572.809365 kJ/mol
# Density = 2.110242 g / cm^3
# Si number density = 21.150562 Si / 1000 Ang^3
#
#
#
# Elastic Constant Matrix: (Units=GPa)
#
#
# Indices 1 2 3 4 5 6 
#
# 1 57.2157 13.8602 53.7811 0.0000 0.0000 0.0000
# 2 13.8602 84.8243 30.6222 0.0000 0.0000 0.0000
# 3 53.7811 30.6222 167.2620 0.0000 0.0000 0.0000
# 4 0.0000 0.0000 0.0000 -0.3537 0.0000 0.0000
# 5 0.0000 0.0000 0.0000 0.0000 53.7192 0.0000
# 6 0.0000 0.0000 0.0000 0.0000 0.0000 34.7820
#
#
#
# Elastic Compliance Matrix: (Units=1/GPa)
#
#
# Indices 1 2 3 4 5 6 
#
# 1 0.025176 -0.001276 -0.007862 0.000000 0.000000 0.000000
# 2 -0.001276 0.012688 -0.001913 0.000000 0.000000 0.000000
# 3 -0.007862 -0.001913 0.008857 0.000000 0.000000 0.000000
# 4 0.000000 0.000000 0.000000 -2.827547 0.000000 0.000000
# 5 0.000000 0.000000 0.000000 0.000000 0.018615 0.000000
# 6 0.000000 0.000000 0.000000 0.000000 0.000000 0.028750
#
#
# Mechanical properties :
#
#
# Convention : Reuss Voigt Hill
#
# Bulk Modulus (GPa) = 40.61570 56.20321 48.40946
# Shear Modulus (GPa) = -1.84969 31.69875 14.92453
#
# Velocity S-wave (km/s) = -0.93618 3.87553 2.65926
# Velocity P-wave (km/s) = 4.25162 6.83059 5.68916
#
# Compressibility (1/GPa) = 0.02462102
#
# Stress axis : x y z
#
# Youngs Moduli (GPa) = 39.71961 78.81448 112.90952
#
# Poissons Ratio (x) = 0.10054 0.88766
# Poissons Ratio (y) = 0.05067 0.21597
# Poissons Ratio (z) = 0.31226 0.15075
#
# Static dielectric constant tensor:
#      x y z
#    x 1.976240 0.000000 0.000000 
#    y 0.000000 1.791190 0.000000 
#    z 0.000000 0.000000 1.831220 
# 
# From -- ./inp_files/64671.got.cif
#   From: 2010.05.17/outbox.cif.g08.bks.cpg/sg66_33_cif.got.tgz:64671.got - 2010.06.03 17:51:23.
