data_PCOD9498280
_publ_section_title
;
Structure prediction by ZEFSAII (Michael W. Deem and Ramdas Pophale) SiO2 
 PCOD9498280
Probable space group: C C C M
;
_chemical_formula_sum "Si O2"
_cell_formula_units_Z 72
_cell_length_a 8.110266
_cell_length_b 28.123028
_cell_length_c 14.622474
_cell_angle_alpha 90.000000
_cell_angle_beta 90.000000
_cell_angle_gamma 90.000000
_cell_volume 3335.170460
_symmetry_space_group_name_H-M "C C C M"
_symmetry_group_IT_number 66
_symmetry_cell_setting 'orthorhombic'
loop_
_space_group_symop_operation_xyz
x,y,z
-x,-y,z
x,-y,1/2-z
-x,y,1/2-z
-x,-y,-z
x,y,-z
-x,y,1/2+z
x,-y,1/2+z
1/2+x,1/2+y,z
1/2-x,1/2-y,z
1/2+x,1/2-y,1/2-z
1/2-x,1/2+y,1/2-z
1/2-x,1/2-y,-z
1/2+x,1/2+y,-z
1/2-x,1/2+y,1/2+z
1/2+x,1/2-y,1/2+z
loop_
_atom_site_type_symbol
_atom_site_label
_atom_site_fract_x
_atom_site_fract_y
_atom_site_fract_z
Si Si1 0.956194 0.883862 0.853936
Si Si2 0.715792 0.194289 0.600765
Si Si3 0.678027 0.520126 0.110201
Si Si4 0.500000 0.858526 0.750000
Si Si5 0.812333 0.576785 0.395727
O O1 0.882102 0.837094 0.898298
O O2 0.818406 0.925945 0.856088
O O3 0.000000 0.873558 0.750000
O O4 0.122138 0.904776 0.898439
O O5 0.636375 0.186905 0.500000
O O6 0.750000 0.250000 0.610810
O O7 0.613898 0.174380 0.686102
O O8 0.500000 0.500000 0.140890
O O9 0.804643 0.478578 0.134539
O O10 0.678210 0.522370 0.000000
O O11 0.595687 0.891350 0.677496
O O12 0.878477 0.579188 0.500000
#
# Coordination Sequence:
#
# PCOD9498280 Si02
#       5
#    16  16  16   8  16
#     4  11  20  39  67  96 121 169 220 270 310 385
#     4  11  26  46  67  92 127 169 218 278 334 382
#     4   8  16  32  58  90 122 156 201 255 307 367
#     4  12  24  42  65  98 132 172 217 268 326 404
#     4  10  21  39  64  96 133 171 210 262 325 386
#
# _framework density 21.588103
#
# number of rings (size 3 to 8) (size 9 to 14) (size 15 to 20)
#    0.000    1.778    2.222    4.000    1.556    4.000 
#    0.000    2.222    0.000    9.333    0.000    0.000 
#    0.000    0.000    0.000    0.000    0.000    0.000 
#
# Total GULP energy -201163.004710 kJ/mol
# GULP energy per Si atom -5587.861242 kJ/mol
# Density = 2.153897 g / cm^3
# Si number density = 21.588103 Si / 1000 Ang^3
#
#
#
# Elastic Constant Matrix: (Units=GPa)
#
#
# Indices 1 2 3 4 5 6 
#
# 1 54.0101 45.4536 34.0376 0.0000 0.0000 0.0000
# 2 45.4536 178.8975 60.4887 0.0000 0.0000 0.0000
# 3 34.0376 60.4887 158.7561 0.0000 0.0000 0.0000
# 4 0.0000 0.0000 0.0000 30.7090 0.0000 0.0000
# 5 0.0000 0.0000 0.0000 0.0000 37.4037 0.0000
# 6 0.0000 0.0000 0.0000 0.0000 0.0000 20.6472
#
#
#
# Elastic Compliance Matrix: (Units=1/GPa)
#
#
# Indices 1 2 3 4 5 6 
#
# 1 0.025037 -0.005219 -0.003380 0.000000 0.000000 0.000000
# 2 -0.005219 0.007504 -0.001740 0.000000 0.000000 0.000000
# 3 -0.003380 -0.001740 0.007687 0.000000 0.000000 0.000000
# 4 0.000000 0.000000 0.000000 0.032564 0.000000 0.000000
# 5 0.000000 0.000000 0.000000 0.000000 0.026735 0.000000
# 6 0.000000 0.000000 0.000000 0.000000 0.000000 0.048433
#
#
# Mechanical properties :
#
#
# Convention : Reuss Voigt Hill
#
# Bulk Modulus (GPa) = 51.14929 74.62484 62.88707
# Shear Modulus (GPa) = 28.54647 34.53090 31.53869
#
# Velocity S-wave (km/s) = 3.64032 4.00376 3.82636
# Velocity P-wave (km/s) = 6.43537 7.48439 6.97961
#
# Compressibility (1/GPa) = 0.01955061
#
# Stress axis : x y z
#
# Youngs Moduli (GPa) = 39.94135 133.25973 130.09553
#
# Poissons Ratio (x) = 0.69542 0.43967
# Poissons Ratio (y) = 0.20844 0.22641
# Poissons Ratio (z) = 0.13498 0.23192
#
# Static dielectric constant tensor:
#      x y z
#    x 1.843080 0.000000 0.000000 
#    y 0.000000 1.757570 0.000000 
#    z 0.000000 0.000000 1.781900 
# 
# From -- ./inp_files/24489.got.cif
#   From: 2010.05.17/outbox.cif.g08.bks.cpg/sg66_13_cif.got.tgz:24489.got - 2010.06.03 17:51:23.
