data_PCOD9498321
_publ_section_title
;
Structure prediction by ZEFSAII (Michael W. Deem and Ramdas Pophale) SiO2 
 PCOD9498321
Probable space group: C C C M
;
_chemical_formula_sum "Si O2"
_cell_formula_units_Z 116
_cell_length_a 18.936433
_cell_length_b 22.145195
_cell_length_c 14.814976
_cell_angle_alpha 90.000000
_cell_angle_beta 90.000000
_cell_angle_gamma 90.000000
_cell_volume 6212.675021
_symmetry_space_group_name_H-M "C C C M"
_symmetry_group_IT_number 66
_symmetry_cell_setting 'orthorhombic'
loop_
_space_group_symop_operation_xyz
x,y,z
-x,-y,z
x,-y,1/2-z
-x,y,1/2-z
-x,-y,-z
x,y,-z
-x,y,1/2+z
x,-y,1/2+z
1/2+x,1/2+y,z
1/2-x,1/2-y,z
1/2+x,1/2-y,1/2-z
1/2-x,1/2+y,1/2-z
1/2-x,1/2-y,-z
1/2+x,1/2+y,-z
1/2-x,1/2+y,1/2+z
1/2+x,1/2-y,1/2+z
loop_
_atom_site_type_symbol
_atom_site_label
_atom_site_fract_x
_atom_site_fract_y
_atom_site_fract_z
Si Si1 0.334338 0.259589 0.106046
Si Si2 0.331453 0.737697 0.107334
Si Si3 0.814804 0.572685 0.747124
Si Si4 0.191118 0.101917 0.603647
Si Si5 0.000000 0.000000 0.000000
Si Si6 0.708409 0.609140 0.892016
Si Si7 0.401056 0.509474 0.351369
Si Si8 0.584573 0.181832 0.755497
O O1 0.250000 0.250000 0.117668
O O2 0.337014 0.330890 0.128079
O O3 0.380629 0.217035 0.169706
O O4 0.350519 0.249930 0.000000
O O5 0.250000 0.750000 0.134818
O O6 0.340724 0.666982 0.126849
O O7 0.384928 0.779535 0.160763
O O8 0.336787 0.747819 0.000000
O O9 0.825994 0.500000 0.750000
O O10 0.755386 0.585482 0.670028
O O11 0.781266 0.601189 0.838649
O O12 0.883519 0.614344 0.732982
O O13 0.217061 0.104557 0.500000
O O14 0.128614 0.053168 0.608879
O O15 0.042663 0.035516 0.079855
O O16 0.665180 0.553139 0.854104
O O17 0.718399 0.606446 0.000000
O O18 0.424012 0.500000 0.250000
O O19 0.500000 0.181905 0.750000
#
# Coordination Sequence:
#
# PCOD9498321 Si02
#       8
#    16  16  16  16   4  16  16  16
#     4  10  21  39  67  95 118 160 211 261 309 372
#     4  10  21  39  67  95 118 160 211 261 309 372
#     4  12  23  38  66  94 120 160 216 271 310 371
#     4  11  20  37  66  94 120 153 215 265 307 359
#     4  12  26  44  52  82 144 180 196 252 326 386
#     4  11  20  37  66  94 120 153 215 265 307 359
#     4  12  23  39  59  90 127 172 207 255 312 378
#     4  12  26  43  61  92 135 169 202 263 334 385
#
# _framework density 18.671505
#
# number of rings (size 3 to 8) (size 9 to 14) (size 15 to 20)
#    0.000    0.828    6.897    1.448    0.000    0.828 
#    2.483    0.000    0.000    0.000    0.000    3.862 
#    0.000    0.000    0.000    0.000    0.000    0.000 
#
# Total GULP energy -323148.326119 kJ/mol
# GULP energy per Si atom -5571.522864 kJ/mol
# Density = 1.862901 g / cm^3
# Si number density = 18.671505 Si / 1000 Ang^3
#
#
#
# Elastic Constant Matrix: (Units=GPa)
#
#
# Indices 1 2 3 4 5 6 
#
# 1 93.4783 42.3464 33.5152 0.0000 0.0000 0.0000
# 2 42.3464 128.1759 40.7538 0.0000 0.0000 0.0000
# 3 33.5152 40.7538 123.1185 0.0000 0.0000 0.0000
# 4 0.0000 0.0000 0.0000 21.9614 0.0000 0.0000
# 5 0.0000 0.0000 0.0000 0.0000 13.2598 0.0000
# 6 0.0000 0.0000 0.0000 0.0000 0.0000 11.3944
#
#
#
# Elastic Compliance Matrix: (Units=1/GPa)
#
#
# Indices 1 2 3 4 5 6 
#
# 1 0.013186 -0.003593 -0.002400 0.000000 0.000000 0.000000
# 2 -0.003593 0.009699 -0.002232 0.000000 0.000000 0.000000
# 3 -0.002400 -0.002232 0.009514 0.000000 0.000000 0.000000
# 4 0.000000 0.000000 0.000000 0.045534 0.000000 0.000000
# 5 0.000000 0.000000 0.000000 0.000000 0.075416 0.000000
# 6 0.000000 0.000000 0.000000 0.000000 0.000000 0.087763
#
#
# Mechanical properties :
#
#
# Convention : Reuss Voigt Hill
#
# Bulk Modulus (GPa) = 62.70364 64.22262 63.46313
# Shear Modulus (GPa) = 19.02016 24.53361 21.77689
#
# Velocity S-wave (km/s) = 3.19513 3.62879 3.41884
# Velocity P-wave (km/s) = 6.87512 7.21306 7.04611
#
# Compressibility (1/GPa) = 0.01594804
#
# Stress axis : x y z
#
# Youngs Moduli (GPa) = 75.83834 103.10723 105.10284
#
# Poissons Ratio (x) = 0.37049 0.25225
# Poissons Ratio (y) = 0.27250 0.23461
# Poissons Ratio (z) = 0.18202 0.23016
#
# Static dielectric constant tensor:
#      x y z
#    x 1.633080 0.000000 0.000000 
#    y 0.000000 1.755470 0.000000 
#    z 0.000000 0.000000 1.672400 
# 
# From -- ./inp_files/30368.got.cif
#   From: 2010.05.17/outbox.cif.g08.bks.cpg/sg66_16_cif.got.tgz:30368.got - 2010.06.03 17:51:23.
