data_PCOD9498472
_publ_section_title
;
Structure prediction by ZEFSAII (Michael W. Deem and Ramdas Pophale) SiO2 
 PCOD9498472
Probable space group: C C C M
;
_chemical_formula_sum "Si O2"
_cell_formula_units_Z 104
_cell_length_a 18.840258
_cell_length_b 27.969966
_cell_length_c 10.472298
_cell_angle_alpha 90.000000
_cell_angle_beta 90.000000
_cell_angle_gamma 90.000000
_cell_volume 5518.496561
_symmetry_space_group_name_H-M "C C C M"
_symmetry_group_IT_number 66
_symmetry_cell_setting 'orthorhombic'
loop_
_space_group_symop_operation_xyz
x,y,z
-x,-y,z
x,-y,1/2-z
-x,y,1/2-z
-x,-y,-z
x,y,-z
-x,y,1/2+z
x,-y,1/2+z
1/2+x,1/2+y,z
1/2-x,1/2-y,z
1/2+x,1/2-y,1/2-z
1/2-x,1/2+y,1/2-z
1/2-x,1/2-y,-z
1/2+x,1/2+y,-z
1/2-x,1/2+y,1/2+z
1/2+x,1/2-y,1/2+z
loop_
_atom_site_type_symbol
_atom_site_label
_atom_site_fract_x
_atom_site_fract_y
_atom_site_fract_z
Si Si1 0.214667 0.944890 0.739982
Si Si2 0.801881 0.638520 0.146558
Si Si3 0.020864 0.875486 0.500000
Si Si4 0.114360 0.962559 0.500000
Si Si5 0.943001 0.695122 0.138948
Si Si6 0.716796 0.303028 0.143729
Si Si7 0.869833 0.924527 0.500000
Si Si8 0.077479 0.201189 0.799354
O O1 0.280941 0.913933 0.693207
O O2 0.157337 0.946641 0.625891
O O3 0.178017 0.924213 0.869645
O O4 0.236190 0.000000 0.750000
O O5 0.883018 0.654847 0.151585
O O6 0.759096 0.670821 0.245298
O O7 0.777374 0.645093 0.000000
O O8 0.045996 0.929797 0.500000
O O9 0.058115 0.845278 0.615398
O O10 0.934758 0.885322 0.500000
O O11 0.103200 0.019621 0.500000
O O12 0.903558 0.747146 0.139826
O O13 0.000000 0.689875 0.250000
O O14 0.978538 0.691733 0.000000
O O15 0.750000 0.250000 0.139661
O O16 0.635412 0.305687 0.190106
O O17 0.723815 0.322807 0.000000
O O18 0.000000 0.212938 0.750000
#
# Coordination Sequence:
#
# PCOD9498472 Si02
#       8
#    16  16   8   8  16  16   8  16
#     4  10  22  42  64  92 124 160 208 267 325 383
#     4  11  23  40  67  93 123 165 211 254 322 392
#     4  12  25  38  58  85 117 173 223 262 311 369
#     4  10  21  42  61  84 121 169 211 269 329 381
#     4  10  22  42  61  88 126 166 206 253 312 382
#     4  11  25  42  61  91 126 164 215 274 321 373
#     4  10  25  40  60  88 125 161 219 275 320 375
#     4  11  25  38  56  86 124 168 212 259 314 370
#
# _framework density 18.845711999999999
#
# number of rings (size 3 to 8) (size 9 to 14) (size 15 to 20)
#    0.000    1.385    3.077    1.154    7.538    1.538 
#    0.000    2.308    0.000    0.462    0.000    2.154 
#    0.000    0.000    0.000    0.000    0.000    0.000 
#
# Total GULP energy -289651.217845 kJ/mol
# GULP energy per Si atom -5570.215728 kJ/mol
# Density = 1.880282 g / cm^3
# Si number density = 18.845712 Si / 1000 Ang^3
#
#
#
# Elastic Constant Matrix: (Units=GPa)
#
#
# Indices 1 2 3 4 5 6 
#
# 1 62.3500 41.0970 54.9877 0.0000 0.0000 0.0000
# 2 41.0970 95.9027 52.6762 0.0000 0.0000 0.0000
# 3 54.9877 52.6762 167.8444 0.0000 0.0000 0.0000
# 4 0.0000 0.0000 0.0000 34.1124 0.0000 0.0000
# 5 0.0000 0.0000 0.0000 0.0000 16.6513 0.0000
# 6 0.0000 0.0000 0.0000 0.0000 0.0000 38.5925
#
#
#
# Elastic Compliance Matrix: (Units=1/GPa)
#
#
# Indices 1 2 3 4 5 6 
#
# 1 0.026900 -0.008080 -0.006277 0.000000 0.000000 0.000000
# 2 -0.008080 0.015026 -0.002069 0.000000 0.000000 0.000000
# 3 -0.006277 -0.002069 0.008664 0.000000 0.000000 0.000000
# 4 0.000000 0.000000 0.000000 0.029315 0.000000 0.000000
# 5 0.000000 0.000000 0.000000 0.000000 0.060055 0.000000
# 6 0.000000 0.000000 0.000000 0.000000 0.000000 0.025912
#
#
# Mechanical properties :
#
#
# Convention : Reuss Voigt Hill
#
# Bulk Modulus (GPa) = 56.37421 69.29100 62.83260
# Shear Modulus (GPa) = 24.43378 29.69366 27.06372
#
# Velocity S-wave (km/s) = 3.60462 3.97371 3.79366
# Velocity P-wave (km/s) = 6.87771 7.60928 7.25273
#
# Compressibility (1/GPa) = 0.01773861
#
# Stress axis : x y z
#
# Youngs Moduli (GPa) = 37.17494 66.55188 115.42590
#
# Poissons Ratio (x) = 0.53771 0.72453
# Poissons Ratio (y) = 0.30036 0.23879
# Poissons Ratio (z) = 0.23335 0.13768
#
# Static dielectric constant tensor:
#      x y z
#    x 1.640510 0.000000 0.000000 
#    y 0.000000 1.727440 0.000000 
#    z 0.000000 0.000000 1.676470 
# 
# From -- ./inp_files/8192.got.cif
#   From: 2010.05.17/outbox.cif.g08.bks.cpg/sg66_5_cif.got.tgz:8192.got - 2010.06.03 17:51:23.
