data_PCOD9498994
_publ_section_title
;
Structure prediction by ZEFSAII (Michael W. Deem and Ramdas Pophale) SiO2 
 PCOD9498994
Probable space group: C C C M
;
_chemical_formula_sum "Si O2"
_cell_formula_units_Z 116
_cell_length_a 9.904390
_cell_length_b 22.147586
_cell_length_c 26.950205
_cell_angle_alpha 90.000000
_cell_angle_beta 90.000000
_cell_angle_gamma 90.000000
_cell_volume 5911.751943
_symmetry_space_group_name_H-M "C C C M"
_symmetry_group_IT_number 66
_symmetry_cell_setting 'orthorhombic'
loop_
_space_group_symop_operation_xyz
x,y,z
-x,-y,z
x,-y,1/2-z
-x,y,1/2-z
-x,-y,-z
x,y,-z
-x,y,1/2+z
x,-y,1/2+z
1/2+x,1/2+y,z
1/2-x,1/2-y,z
1/2+x,1/2-y,1/2-z
1/2-x,1/2+y,1/2-z
1/2-x,1/2-y,-z
1/2+x,1/2+y,-z
1/2-x,1/2+y,1/2+z
1/2+x,1/2-y,1/2+z
loop_
_atom_site_type_symbol
_atom_site_label
_atom_site_fract_x
_atom_site_fract_y
_atom_site_fract_z
Si Si1 0.490557 0.897317 0.193820
Si Si2 0.564542 0.685480 0.559345
Si Si3 0.306495 0.098446 0.557755
Si Si4 0.500000 0.500000 0.000000
Si Si5 0.751440 0.153080 0.441556
Si Si6 0.997521 0.308182 0.103643
Si Si7 0.782011 0.977947 0.089022
Si Si8 0.273280 0.998741 0.306702
O O1 0.500000 0.874675 0.250000
O O2 0.490824 0.841343 0.156312
O O3 0.615093 0.944768 0.188858
O O4 0.356682 0.938571 0.187899
O O5 0.586452 0.698978 0.500000
O O6 0.669930 0.633468 0.574252
O O7 0.411276 0.662740 0.564490
O O8 0.576253 0.745101 0.592744
O O9 0.288076 0.088399 0.500000
O O10 0.427600 0.143351 0.567534
O O11 0.321065 0.033254 0.581593
O O12 0.610369 0.515334 0.955447
O O13 0.723543 0.156595 0.500000
O O14 0.651657 0.198130 0.413668
O O15 0.719410 0.087355 0.419591
O O16 0.824626 0.986822 0.146538
O O17 0.219366 0.000000 0.250000
#
# Coordination Sequence:
#
# PCOD9498994 Si02
#       8
#    16  16  16   4  16  16  16  16
#     4   9  18  34  58  87 118 148 187 248 322 361
#     4  10  23  40  55  75 117 172 206 226 280 373
#     4  11  22  36  56  84 122 154 197 246 295 365
#     4  12  24  36  54  82 132 176 184 208 308 398
#     4  11  22  36  56  84 122 154 197 246 295 365
#     4  12  21  35  59  87 114 149 200 257 298 337
#     4  12  21  36  59  89 117 154 199 239 301 364
#     4   9  18  36  59  86 119 151 192 251 308 359
#
# _framework density 19.621932000000001
#
# number of rings (size 3 to 8) (size 9 to 14) (size 15 to 20)
#    0.000    1.379    4.138    3.724    1.931    2.759 
#    0.000    1.724    0.000    4.966    0.000    0.000 
#    0.000    0.000    0.000    0.000    0.000    0.000 
#
# Total GULP energy -323014.237363 kJ/mol
# GULP energy per Si atom -5569.210989 kJ/mol
# Density = 1.957727 g / cm^3
# Si number density = 19.621932 Si / 1000 Ang^3
#
#
#
# Elastic Constant Matrix: (Units=GPa)
#
#
# Indices 1 2 3 4 5 6 
#
# 1 52.9630 2.2226 17.2915 0.0000 0.0000 0.0000
# 2 2.2226 88.0195 32.7510 0.0000 0.0000 0.0000
# 3 17.2915 32.7510 116.3785 0.0000 0.0000 0.0000
# 4 0.0000 0.0000 0.0000 18.2894 0.0000 0.0000
# 5 0.0000 0.0000 0.0000 0.0000 -9.7295 0.0000
# 6 0.0000 0.0000 0.0000 0.0000 0.0000 -35.5790
#
#
#
# Elastic Compliance Matrix: (Units=1/GPa)
#
#
# Indices 1 2 3 4 5 6 
#
# 1 0.019879 0.000667 -0.003141 0.000000 0.000000 0.000000
# 2 0.000667 0.012712 -0.003677 0.000000 0.000000 0.000000
# 3 -0.003141 -0.003677 0.010094 0.000000 0.000000 0.000000
# 4 0.000000 0.000000 0.000000 0.054676 0.000000 0.000000
# 5 0.000000 0.000000 0.000000 0.000000 -0.102780 0.000000
# 6 0.000000 0.000000 0.000000 0.000000 0.000000 -0.028106
#
#
# Mechanical properties :
#
#
# Convention : Reuss Voigt Hill
#
# Bulk Modulus (GPa) = 32.91301 40.21013 36.56157
# Shear Modulus (GPa) = -450.61326 8.26925 -221.17200
#
# Velocity S-wave (km/s) = -15.17057 2.05510 -10.62833
# Velocity P-wave (km/s) = 17.03090 5.11548 11.48659
#
# Compressibility (1/GPa) = 0.03038312
#
# Stress axis : x y z
#
# Youngs Moduli (GPa) = 50.30516 78.66412 99.06848
#
# Poissons Ratio (x) = -0.05246 0.31120
# Poissons Ratio (y) = -0.03355 0.36423
# Poissons Ratio (z) = 0.15802 0.28921
#
# Static dielectric constant tensor:
#      x y z
#    x 1.711500 0.000000 0.000000 
#    y 0.000000 1.727140 0.000000 
#    z 0.000000 0.000000 1.700330 
# 
# From -- ./inp_files/68341.got.cif
#   From: 2010.05.17/outbox.cif.g08.bks.cpg/sg66_35_cif.got.tgz:68341.got - 2010.06.03 17:51:23.
