data_PCOD9498397
_publ_section_title
;
Structure prediction by ZEFSAII (Michael W. Deem and Ramdas Pophale) SiO2 
 PCOD9498397
Probable space group: C C C M
;
_chemical_formula_sum "Si O2"
_cell_formula_units_Z 56
_cell_length_a 18.379173
_cell_length_b 7.346682
_cell_length_c 17.492728
_cell_angle_alpha 90.000000
_cell_angle_beta 90.000000
_cell_angle_gamma 90.000000
_cell_volume 2361.972032
_symmetry_space_group_name_H-M "C C C M"
_symmetry_group_IT_number 66
_symmetry_cell_setting 'orthorhombic'
loop_
_space_group_symop_operation_xyz
x,y,z
-x,-y,z
x,-y,1/2-z
-x,y,1/2-z
-x,-y,-z
x,y,-z
-x,y,1/2+z
x,-y,1/2+z
1/2+x,1/2+y,z
1/2-x,1/2-y,z
1/2+x,1/2-y,1/2-z
1/2-x,1/2+y,1/2-z
1/2-x,1/2-y,-z
1/2+x,1/2+y,-z
1/2-x,1/2+y,1/2+z
1/2+x,1/2-y,1/2+z
loop_
_atom_site_type_symbol
_atom_site_label
_atom_site_fract_x
_atom_site_fract_y
_atom_site_fract_z
Si Si1 0.916322 0.782238 0.235830
Si Si2 0.201400 0.500000 0.250000
Si Si3 0.730114 0.460649 0.085643
Si Si4 0.572695 0.610779 0.916896
O O1 0.852278 0.666963 0.271961
O O2 0.000000 0.732610 0.250000
O O3 0.908409 0.000000 0.250000
O O4 0.909207 0.742552 0.145871
O O5 0.244499 0.464242 0.169776
O O6 0.750000 0.250000 0.085705
O O7 0.643038 0.483516 0.082721
O O8 0.755798 0.533857 0.000000
O O9 0.500000 0.500000 0.895399
O O10 0.560084 0.688768 0.000000
#
# Coordination Sequence:
#
# PCOD9498397 Si02
#       4
#    16   8  16  16
#     4  11  23  43  66  98 135 172 225 283 335 406
#     4  12  27  40  71 100 136 184 228 276 349 410
#     4  10  24  43  66 102 141 177 227 288 346 410
#     4  10  21  40  67  93 125 176 225 273 341 405
#
# _framework density 23.709002000000002
#
# number of rings (size 3 to 8) (size 9 to 14) (size 15 to 20)
#    0.000    1.429    2.857    2.143    6.000    1.143 
#    0.000    2.857    0.000    3.429    0.000    0.000 
#    0.000    0.000    0.000    0.000    0.000    0.000 
#
# Total GULP energy -156130.724956 kJ/mol
# GULP energy per Si atom -5576.097320 kJ/mol
# Density = 2.365504 g / cm^3
# Si number density = 23.709002 Si / 1000 Ang^3
#
#
#
# Elastic Constant Matrix: (Units=GPa)
#
#
# Indices 1 2 3 4 5 6 
#
# 1 142.6437 28.9120 50.7691 0.0000 0.0000 0.0000
# 2 28.9120 68.5853 15.1434 0.0000 0.0000 0.0000
# 3 50.7691 15.1434 183.0062 0.0000 0.0000 0.0000
# 4 0.0000 0.0000 0.0000 22.4894 0.0000 0.0000
# 5 0.0000 0.0000 0.0000 0.0000 40.3761 0.0000
# 6 0.0000 0.0000 0.0000 0.0000 0.0000 22.4263
#
#
#
# Elastic Compliance Matrix: (Units=1/GPa)
#
#
# Indices 1 2 3 4 5 6 
#
# 1 0.008369 -0.003071 -0.002068 0.000000 0.000000 0.000000
# 2 -0.003071 0.015979 -0.000470 0.000000 0.000000 0.000000
# 3 -0.002068 -0.000470 0.006077 0.000000 0.000000 0.000000
# 4 0.000000 0.000000 0.000000 0.044465 0.000000 0.000000
# 5 0.000000 0.000000 0.000000 0.000000 0.024767 0.000000
# 6 0.000000 0.000000 0.000000 0.000000 0.000000 0.044590
#
#
# Mechanical properties :
#
#
# Convention : Reuss Voigt Hill
#
# Bulk Modulus (GPa) = 52.06592 64.87604 58.47098
# Shear Modulus (GPa) = 30.88940 37.01907 33.95423
#
# Velocity S-wave (km/s) = 3.61342 3.95573 3.78845
# Velocity P-wave (km/s) = 6.27831 6.94886 6.62208
#
# Compressibility (1/GPa) = 0.01920642
#
# Stress axis : x y z
#
# Youngs Moduli (GPa) = 119.49045 62.58242 164.56115
#
# Poissons Ratio (x) = 0.19221 0.34023
# Poissons Ratio (y) = 0.36700 0.07737
# Poissons Ratio (z) = 0.24705 0.02942
#
# Static dielectric constant tensor:
#      x y z
#    x 1.952780 0.000000 0.000000 
#    y 0.000000 1.951410 0.000000 
#    z 0.000000 0.000000 2.109720 
# 
# From -- ./inp_files/41095.got.cif
#   From: 2010.05.17/outbox.cif.g08.bks.cpg/sg66_21_cif.got.tgz:41095.got - 2010.06.03 17:51:23.
