data_PCOD9498080
_publ_section_title
;
Structure prediction by ZEFSAII (Michael W. Deem and Ramdas Pophale) SiO2 
 PCOD9498080
Probable space group: C C C M
;
_chemical_formula_sum "Si O2"
_cell_formula_units_Z 112
_cell_length_a 35.599337
_cell_length_b 11.608070
_cell_length_c 14.373869
_cell_angle_alpha 90.000000
_cell_angle_beta 90.000000
_cell_angle_gamma 90.000000
_cell_volume 5939.851816
_symmetry_space_group_name_H-M "C C C M"
_symmetry_group_IT_number 66
_symmetry_cell_setting 'orthorhombic'
loop_
_space_group_symop_operation_xyz
x,y,z
-x,-y,z
x,-y,1/2-z
-x,y,1/2-z
-x,-y,-z
x,y,-z
-x,y,1/2+z
x,-y,1/2+z
1/2+x,1/2+y,z
1/2-x,1/2-y,z
1/2+x,1/2-y,1/2-z
1/2-x,1/2+y,1/2-z
1/2-x,1/2-y,-z
1/2+x,1/2+y,-z
1/2-x,1/2+y,1/2+z
1/2+x,1/2-y,1/2+z
loop_
_atom_site_type_symbol
_atom_site_label
_atom_site_fract_x
_atom_site_fract_y
_atom_site_fract_z
Si Si1 0.291063 0.803901 0.250060
Si Si2 0.862631 0.862926 0.249970
Si Si3 0.078644 0.245591 0.612408
Si Si4 0.187301 0.499944 0.611009
Si Si5 0.078615 0.245581 0.887590
Si Si6 0.901262 0.500011 0.888496
Si Si7 0.000015 0.868114 0.112668
O O1 0.250000 0.750000 0.250058
O O2 0.323851 0.708196 0.250091
O O3 0.296198 0.887271 0.160852
O O4 0.296186 0.887344 0.339226
O O5 0.887920 0.823355 0.337944
O O6 0.887958 0.823426 0.162044
O O7 0.856843 0.000000 0.250000
O O8 0.082465 0.238592 0.500000
O O9 0.081335 0.379260 0.641717
O O10 0.038449 0.193952 0.639838
O O11 0.192166 0.499892 0.500000
O O12 0.142849 0.499990 0.633500
O O13 0.081337 0.379241 0.858270
O O14 0.038408 0.194015 0.860167
O O15 0.082432 0.238580 0.000000
O O16 0.904479 0.500023 0.000000
O O17 0.000017 0.868261 0.000000
O O18 0.000000 0.000000 0.143655
#
# Coordination Sequence:
#
# PCOD9498080 Si02
#       7
#    16  16  16  16  16  16  16
#     4  11  25  42  67  95 128 160 203 258 307 371
#     4  12  25  38  60  87 118 163 201 243 308 368
#     4  10  21  38  59  87 120 156 206 255 303 366
#     4  10  21  43  71  94 123 167 206 251 312 372
#     4  10  21  38  59  87 120 156 206 255 303 366
#     4   9  17  34  63  89 113 155 202 245 301 356
#     4   9  18  34  56  81 119 167 204 248 306 358
#
# _framework density 18.855689000000002
#
# number of rings (size 3 to 8) (size 9 to 14) (size 15 to 20)
#    0.000    1.857    2.857    0.857    2.000    4.000 
#    0.000    4.286    0.000    1.714    0.000    0.000 
#    0.000    0.000    0.000    0.000    0.000    0.000 
#
# Total GULP energy -312815.091062 kJ/mol
# GULP energy per Si atom -5585.983769 kJ/mol
# Density = 1.881277 g / cm^3
# Si number density = 18.855689 Si / 1000 Ang^3
#
#
#
# Elastic Constant Matrix: (Units=GPa)
#
#
# Indices 1 2 3 4 5 6 
#
# 1 193.7112 124.3375 52.6972 0.0000 0.0000 0.0000
# 2 124.3375 215.8159 53.5944 0.0000 0.0000 0.0000
# 3 52.6972 53.5944 127.7094 0.0000 0.0000 0.0000
# 4 0.0000 0.0000 0.0000 18.9365 0.0000 0.0000
# 5 0.0000 0.0000 0.0000 0.0000 14.5729 0.0000
# 6 0.0000 0.0000 0.0000 0.0000 0.0000 35.0799
#
#
#
# Elastic Compliance Matrix: (Units=1/GPa)
#
#
# Indices 1 2 3 4 5 6 
#
# 1 0.008481 -0.004484 -0.001618 0.000000 0.000000 0.000000
# 2 -0.004484 0.007544 -0.001315 0.000000 0.000000 0.000000
# 3 -0.001618 -0.001315 0.009050 0.000000 0.000000 0.000000
# 4 0.000000 0.000000 0.000000 0.052808 0.000000 0.000000
# 5 0.000000 0.000000 0.000000 0.000000 0.068621 0.000000
# 6 0.000000 0.000000 0.000000 0.000000 0.000000 0.028506
#
#
# Mechanical properties :
#
#
# Convention : Reuss Voigt Hill
#
# Bulk Modulus (GPa) = 97.65925 110.94383 104.30154
# Shear Modulus (GPa) = 25.87227 34.15835 30.01531
#
# Velocity S-wave (km/s) = 3.70823 4.26087 3.99412
# Velocity P-wave (km/s) = 8.38094 9.11991 8.75822
#
# Compressibility (1/GPa) = 0.01023969
#
# Stress axis : x y z
#
# Youngs Moduli (GPa) = 117.91511 132.55999 110.50003
#
# Poissons Ratio (x) = 0.59443 0.17874
# Poissons Ratio (y) = 0.52876 0.14536
# Poissons Ratio (z) = 0.19073 0.17438
#
# Static dielectric constant tensor:
#      x y z
#    x 1.605370 0.000000 0.000000 
#    y 0.000000 1.641150 0.000000 
#    z 0.000000 0.000000 1.681100 
# 
# From -- ./inp_files/33785.got.cif
#   From: 2010.05.17/outbox.cif.g08.bks.cpg/sg66_17_cif.got.tgz:33785.got - 2010.06.03 17:51:23.
