data_PCOD9498610
_publ_section_title
;
Structure prediction by ZEFSAII (Michael W. Deem and Ramdas Pophale) SiO2 
 PCOD9498610
Probable space group: C C C M
;
_chemical_formula_sum "Si O2"
_cell_formula_units_Z 96
_cell_length_a 19.579203
_cell_length_b 15.136162
_cell_length_c 17.153002
_cell_angle_alpha 90.000000
_cell_angle_beta 90.000000
_cell_angle_gamma 90.000000
_cell_volume 5083.360556
_symmetry_space_group_name_H-M "C C C M"
_symmetry_group_IT_number 66
_symmetry_cell_setting 'orthorhombic'
loop_
_space_group_symop_operation_xyz
x,y,z
-x,-y,z
x,-y,1/2-z
-x,y,1/2-z
-x,-y,-z
x,y,-z
-x,y,1/2+z
x,-y,1/2+z
1/2+x,1/2+y,z
1/2-x,1/2-y,z
1/2+x,1/2-y,1/2-z
1/2-x,1/2+y,1/2-z
1/2-x,1/2-y,-z
1/2+x,1/2+y,-z
1/2-x,1/2+y,1/2+z
1/2+x,1/2-y,1/2+z
loop_
_atom_site_type_symbol
_atom_site_label
_atom_site_fract_x
_atom_site_fract_y
_atom_site_fract_z
Si Si1 0.815857 0.629740 0.411560
Si Si2 0.675414 0.261081 0.767340
Si Si3 0.067787 0.943125 0.592881
Si Si4 0.692250 0.454123 0.172812
Si Si5 0.027025 0.407313 0.408878
Si Si6 0.043278 0.758689 0.675013
O O1 0.806043 0.662157 0.500000
O O2 0.819420 0.705289 0.346560
O O3 0.752941 0.567650 0.387099
O O4 0.890975 0.587981 0.407239
O O5 0.750000 0.250000 0.729238
O O6 0.662845 0.361130 0.795300
O O7 0.616125 0.229745 0.710294
O O8 0.078644 0.946967 0.500000
O O9 0.055280 0.842567 0.619660
O O10 0.132523 0.986741 0.636153
O O11 0.000000 0.000000 0.611339
O O12 0.721825 0.500000 0.250000
O O13 0.006347 0.399718 0.500000
O O14 0.000000 0.500000 0.376608
O O15 0.997041 0.322120 0.364816
O O16 0.000000 0.788813 0.750000
#
# Coordination Sequence:
#
# PCOD9498610 Si02
#       6
#    16  16  16  16  16  16
#     4  10  22  41  64  91 123 162 211 262 317 375
#     4  10  22  38  59  93 125 164 203 258 316 377
#     4  11  25  40  62  92 126 170 212 255 318 389
#     4  11  22  39  62  91 131 168 205 260 317 378
#     4  10  23  42  63  88 122 161 207 267 321 369
#     4  12  22  40  64  92 126 165 210 263 316 381
#
# _framework density 18.885144
#
# number of rings (size 3 to 8) (size 9 to 14) (size 15 to 20)
#    0.000    1.333    3.333    2.000    0.000    6.667 
#    0.000    0.000    0.000    1.000    0.000    0.000 
#    0.000    0.000    0.000    0.000    0.000    0.000 
#
# Total GULP energy -267972.172232 kJ/mol
# GULP energy per Si atom -5582.753588 kJ/mol
# Density = 1.884216 g / cm^3
# Si number density = 18.885144 Si / 1000 Ang^3
#
#
#
# Elastic Constant Matrix: (Units=GPa)
#
#
# Indices 1 2 3 4 5 6 
#
# 1 113.4628 32.7193 35.6444 0.0000 0.0000 0.0000
# 2 32.7193 98.0339 22.0938 0.0000 0.0000 0.0000
# 3 35.6444 22.0938 63.8293 0.0000 0.0000 0.0000
# 4 0.0000 0.0000 0.0000 0.8841 0.0000 0.0000
# 5 0.0000 0.0000 0.0000 0.0000 33.4327 0.0000
# 6 0.0000 0.0000 0.0000 0.0000 0.0000 24.8433
#
#
#
# Elastic Compliance Matrix: (Units=1/GPa)
#
#
# Indices 1 2 3 4 5 6 
#
# 1 0.011241 -0.002535 -0.005400 0.000000 0.000000 0.000000
# 2 -0.002535 0.011635 -0.002612 0.000000 0.000000 0.000000
# 3 -0.005400 -0.002612 0.019586 0.000000 0.000000 0.000000
# 4 0.000000 0.000000 0.000000 1.131031 0.000000 0.000000
# 5 0.000000 0.000000 0.000000 0.000000 0.029911 0.000000
# 6 0.000000 0.000000 0.000000 0.000000 0.000000 0.040252
#
#
# Mechanical properties :
#
#
# Convention : Reuss Voigt Hill
#
# Bulk Modulus (GPa) = 46.79609 50.69344 48.74476
# Shear Modulus (GPa) = 3.93121 24.15659 14.04390
#
# Velocity S-wave (km/s) = 1.44436 3.58038 2.72995
# Velocity P-wave (km/s) = 5.25496 6.63275 5.98365
#
# Compressibility (1/GPa) = 0.02136931
#
# Stress axis : x y z
#
# Youngs Moduli (GPa) = 88.96203 85.94638 51.05606
#
# Poissons Ratio (x) = 0.21785 0.27569
# Poissons Ratio (y) = 0.22549 0.13335
# Poissons Ratio (z) = 0.48038 0.22449
#
# Static dielectric constant tensor:
#      x y z
#    x 1.684480 0.000000 0.000000 
#    y 0.000000 1.660380 0.000000 
#    z 0.000000 0.000000 1.640110 
# 
# From -- ./inp_files/28395.got.cif
#   From: 2010.05.17/outbox.cif.g08.bks.cpg/sg66_15_cif.got.tgz:28395.got - 2010.06.03 17:51:23.
