data_PCOD9498654
_publ_section_title
;
Structure prediction by ZEFSAII (Michael W. Deem and Ramdas Pophale) SiO2 
 PCOD9498654
Probable space group: C C C M
;
_chemical_formula_sum "Si O2"
_cell_formula_units_Z 72
_cell_length_a 9.710610
_cell_length_b 27.552456
_cell_length_c 14.196261
_cell_angle_alpha 90.000000
_cell_angle_beta 90.000000
_cell_angle_gamma 90.000000
_cell_volume 3798.226024
_symmetry_space_group_name_H-M "C C C M"
_symmetry_group_IT_number 66
_symmetry_cell_setting 'orthorhombic'
loop_
_space_group_symop_operation_xyz
x,y,z
-x,-y,z
x,-y,1/2-z
-x,y,1/2-z
-x,-y,-z
x,y,-z
-x,y,1/2+z
x,-y,1/2+z
1/2+x,1/2+y,z
1/2-x,1/2-y,z
1/2+x,1/2-y,1/2-z
1/2-x,1/2+y,1/2-z
1/2-x,1/2-y,-z
1/2+x,1/2+y,-z
1/2-x,1/2+y,1/2+z
1/2+x,1/2-y,1/2+z
loop_
_atom_site_type_symbol
_atom_site_label
_atom_site_fract_x
_atom_site_fract_y
_atom_site_fract_z
Si Si1 0.724373 0.192906 0.237671
Si Si2 0.518015 0.846071 0.887826
Si Si3 0.904832 0.544232 0.114045
Si Si4 0.589061 0.547696 0.113121
Si Si5 0.000000 0.869373 0.750000
O O1 0.750000 0.250000 0.230046
O O2 0.622467 0.174602 0.155462
O O3 0.642652 0.180570 0.334073
O O4 0.866487 0.163755 0.235617
O O5 0.532566 0.903193 0.863875
O O6 0.525246 0.840428 0.000000
O O7 0.746833 0.541500 0.146679
O O8 0.000000 0.500000 0.145892
O O9 0.899194 0.541340 0.000000
O O10 0.500000 0.500000 0.134954
O O11 0.525893 0.594681 0.162449
O O12 0.589502 0.553714 0.000000
#
# Coordination Sequence:
#
# PCOD9498654 Si02
#       5
#    16  16  16  16   8
#     4  11  25  44  64  92 127 161 209 272 313 359
#     4  10  22  44  68  92 123 165 212 252 310 377
#     4   9  18  36  63  91 121 160 204 250 299 364
#     4  10  22  39  60  92 130 164 202 250 306 372
#     4  12  23  40  64  92 128 166 205 252 324 376
#
# _framework density 18.956218
#
# number of rings (size 3 to 8) (size 9 to 14) (size 15 to 20)
#    0.000    1.778    2.222    1.667    3.111    1.778 
#    0.000    4.444    0.000    0.000    0.000    0.000 
#    0.000    0.000    0.000    0.000    0.000    0.000 
#
# Total GULP energy -201200.950839 kJ/mol
# GULP energy per Si atom -5588.915301 kJ/mol
# Density = 1.891307 g / cm^3
# Si number density = 18.956218 Si / 1000 Ang^3
#
#
#
# Elastic Constant Matrix: (Units=GPa)
#
#
# Indices 1 2 3 4 5 6 
#
# 1 189.8668 123.1569 63.6489 0.0000 0.0000 0.0000
# 2 123.1569 204.0894 54.0520 0.0000 0.0000 0.0000
# 3 63.6489 54.0520 101.9347 0.0000 0.0000 0.0000
# 4 0.0000 0.0000 0.0000 25.3489 0.0000 0.0000
# 5 0.0000 0.0000 0.0000 0.0000 16.8736 0.0000
# 6 0.0000 0.0000 0.0000 0.0000 0.0000 29.0218
#
#
#
# Elastic Compliance Matrix: (Units=1/GPa)
#
#
# Indices 1 2 3 4 5 6 
#
# 1 0.009564 -0.004874 -0.003387 0.000000 0.000000 0.000000
# 2 -0.004874 0.008185 -0.001296 0.000000 0.000000 0.000000
# 3 -0.003387 -0.001296 0.012613 0.000000 0.000000 0.000000
# 4 0.000000 0.000000 0.000000 0.039449 0.000000 0.000000
# 5 0.000000 0.000000 0.000000 0.000000 0.059264 0.000000
# 6 0.000000 0.000000 0.000000 0.000000 0.000000 0.034457
#
#
# Mechanical properties :
#
#
# Convention : Reuss Voigt Hill
#
# Bulk Modulus (GPa) = 88.92522 108.62295 98.77409
# Shear Modulus (GPa) = 26.82460 31.25106 29.03783
#
# Velocity S-wave (km/s) = 3.76584 4.06469 3.91811
# Velocity P-wave (km/s) = 8.11920 8.91377 8.52575
#
# Compressibility (1/GPa) = 0.01124540
#
# Stress axis : x y z
#
# Youngs Moduli (GPa) = 104.55810 122.18169 79.28553
#
# Poissons Ratio (x) = 0.59555 0.26856
# Poissons Ratio (y) = 0.50965 0.10278
# Poissons Ratio (z) = 0.35416 0.15839
#
# Static dielectric constant tensor:
#      x y z
#    x 1.641500 0.000000 0.000000 
#    y 0.000000 1.618170 0.000000 
#    z 0.000000 0.000000 1.669300 
# 
# From -- ./inp_files/24495.got.cif
#   From: 2010.05.17/outbox.cif.g08.bks.cpg/sg66_13_cif.got.tgz:24495.got - 2010.06.03 17:51:23.
