data_PCOD9498358
_publ_section_title
;
Structure prediction by ZEFSAII (Michael W. Deem and Ramdas Pophale) SiO2 
 PCOD9498358
Probable space group: C C C M
;
_chemical_formula_sum "Si O2"
_cell_formula_units_Z 80
_cell_length_a 10.162400
_cell_length_b 24.103231
_cell_length_c 14.897699
_cell_angle_alpha 90.000000
_cell_angle_beta 90.000000
_cell_angle_gamma 90.000000
_cell_volume 3649.141831
_symmetry_space_group_name_H-M "C C C M"
_symmetry_group_IT_number 66
_symmetry_cell_setting 'orthorhombic'
loop_
_space_group_symop_operation_xyz
x,y,z
-x,-y,z
x,-y,1/2-z
-x,y,1/2-z
-x,-y,-z
x,y,-z
-x,y,1/2+z
x,-y,1/2+z
1/2+x,1/2+y,z
1/2-x,1/2-y,z
1/2+x,1/2-y,1/2-z
1/2-x,1/2+y,1/2-z
1/2-x,1/2-y,-z
1/2+x,1/2+y,-z
1/2-x,1/2+y,1/2+z
1/2+x,1/2-y,1/2+z
loop_
_atom_site_type_symbol
_atom_site_label
_atom_site_fract_x
_atom_site_fract_y
_atom_site_fract_z
Si Si1 0.898650 0.768503 0.330536
Si Si2 0.209042 0.877188 0.798294
Si Si3 0.154180 0.013604 0.600848
Si Si4 0.543409 0.155149 0.902523
Si Si5 0.752920 0.889701 0.101023
O O1 0.750000 0.750000 0.303818
O O2 0.876663 0.832777 0.354583
O O3 0.948819 0.722025 0.398822
O O4 0.000000 0.764437 0.250000
O O5 0.360521 0.865743 0.824578
O O6 0.182423 0.867391 0.692736
O O7 0.181958 0.939675 0.826591
O O8 0.180052 0.035326 0.500000
O O9 0.234408 0.956347 0.609580
O O10 0.000000 0.000000 0.606449
O O11 0.396629 0.132054 0.894917
O O12 0.595228 0.136994 0.000000
O O13 0.804011 0.875641 0.000000
#
# Coordination Sequence:
#
# PCOD9498358 Si02
#       5
#    16  16  16  16  16
#     4  10  22  39  61  93 127 167 215 266 317 388
#     4  11  22  37  65  91 126 165 214 257 324 384
#     4  10  23  41  61  92 128 163 210 264 321 386
#     4  10  21  40  64  92 126 163 210 267 325 383
#     4  10  22  40  63  90 127 168 211 267 321 384
#
# _framework density 21.922961999999998
#
# number of rings (size 3 to 8) (size 9 to 14) (size 15 to 20)
#    0.000    1.800    0.000    4.200    2.800    6.000 
#    0.000    6.000    0.000    8.400    0.000    0.000 
#    0.000    0.000    0.000    0.000    0.000    0.000 
#
# Total GULP energy -223182.433966 kJ/mol
# GULP energy per Si atom -5579.560849 kJ/mol
# Density = 2.187306 g / cm^3
# Si number density = 21.922962 Si / 1000 Ang^3
#
#
#
# Elastic Constant Matrix: (Units=GPa)
#
#
# Indices 1 2 3 4 5 6 
#
# 1 78.1693 51.4715 19.4140 0.0000 0.0000 0.0000
# 2 51.4715 108.0801 32.7405 0.0000 0.0000 0.0000
# 3 19.4140 32.7405 113.3627 0.0000 0.0000 0.0000
# 4 0.0000 0.0000 0.0000 25.6920 0.0000 0.0000
# 5 0.0000 0.0000 0.0000 0.0000 27.1438 0.0000
# 6 0.0000 0.0000 0.0000 0.0000 0.0000 21.2356
#
#
#
# Elastic Compliance Matrix: (Units=1/GPa)
#
#
# Indices 1 2 3 4 5 6 
#
# 1 0.018686 -0.008690 -0.000690 0.000000 0.000000 0.000000
# 2 -0.008690 0.014181 -0.002607 0.000000 0.000000 0.000000
# 3 -0.000690 -0.002607 0.009693 0.000000 0.000000 0.000000
# 4 0.000000 0.000000 0.000000 0.038923 0.000000 0.000000
# 5 0.000000 0.000000 0.000000 0.000000 0.036841 0.000000
# 6 0.000000 0.000000 0.000000 0.000000 0.000000 0.047091
#
#
# Mechanical properties :
#
#
# Convention : Reuss Voigt Hill
#
# Bulk Modulus (GPa) = 53.80932 56.31823 55.06377
# Shear Modulus (GPa) = 25.56456 27.88004 26.72230
#
# Velocity S-wave (km/s) = 3.41854 3.57000 3.49509
# Velocity P-wave (km/s) = 6.33876 6.53744 6.43887
#
# Compressibility (1/GPa) = 0.01858414
#
# Stress axis : x y z
#
# Youngs Moduli (GPa) = 53.51552 70.51852 103.17248
#
# Poissons Ratio (x) = 0.61280 0.07123
# Poissons Ratio (y) = 0.46504 0.26901
# Poissons Ratio (z) = 0.03694 0.18387
#
# Static dielectric constant tensor:
#      x y z
#    x 1.785980 0.000000 0.000000 
#    y 0.000000 1.826980 0.000000 
#    z 0.000000 0.000000 1.843230 
# 
# From -- ./inp_files/26430.got.cif
#   From: 2010.05.17/outbox.cif.g08.bks.cpg/sg66_14_cif.got.tgz:26430.got - 2010.06.03 17:51:23.
