data_PCOD9498982
_publ_section_title
;
Structure prediction by ZEFSAII (Michael W. Deem and Ramdas Pophale) SiO2 
 PCOD9498982
Probable space group: C C C M
;
_chemical_formula_sum "Si O2"
_cell_formula_units_Z 80
_cell_length_a 22.308069
_cell_length_b 9.512502
_cell_length_c 14.457735
_cell_angle_alpha 90.000000
_cell_angle_beta 90.000000
_cell_angle_gamma 90.000000
_cell_volume 3068.011622
_symmetry_space_group_name_H-M "C C C M"
_symmetry_group_IT_number 66
_symmetry_cell_setting 'orthorhombic'
loop_
_space_group_symop_operation_xyz
x,y,z
-x,-y,z
x,-y,1/2-z
-x,y,1/2-z
-x,-y,-z
x,y,-z
-x,y,1/2+z
x,-y,1/2+z
1/2+x,1/2+y,z
1/2-x,1/2-y,z
1/2+x,1/2-y,1/2-z
1/2-x,1/2+y,1/2-z
1/2-x,1/2-y,-z
1/2+x,1/2+y,-z
1/2-x,1/2+y,1/2+z
1/2+x,1/2-y,1/2+z
loop_
_atom_site_type_symbol
_atom_site_label
_atom_site_fract_x
_atom_site_fract_y
_atom_site_fract_z
Si Si1 0.791510 0.445793 0.145263
Si Si2 0.012355 0.333764 0.391168
Si Si3 0.414586 0.297793 0.756495
Si Si4 0.659406 0.632369 0.394742
Si Si5 0.179036 0.268693 0.902619
O O1 0.793053 0.500000 0.250000
O O2 0.721542 0.452102 0.115876
O O3 0.816037 0.290926 0.125764
O O4 0.830260 0.563750 0.094853
O O5 0.019152 0.294251 0.500000
O O6 0.964651 0.229371 0.337388
O O7 0.000000 0.500000 0.391333
O O8 0.066877 0.321009 0.318347
O O9 0.394394 0.409553 0.675521
O O10 0.354248 0.285197 0.813885
O O11 0.639044 0.625759 0.500000
O O12 0.250000 0.250000 0.894710
O O13 0.157642 0.207294 0.000000
#
# Coordination Sequence:
#
# PCOD9498982 Si02
#       5
#    16  16  16  16  16
#     4  11  21  37  56  81 124 163 206 246 300 368
#     4  10  23  39  56  82 115 155 207 265 319 368
#     4  11  21  37  56  84 115 161 205 248 302 378
#     4  11  23  37  56  87 122 165 206 249 306 369
#     4  11  23  38  58  89 126 165 207 255 308 367
#
# _framework density 26.075520000000001
#
# number of rings (size 3 to 8) (size 9 to 14) (size 15 to 20)
#    0.000    1.200    2.000    6.000    5.600    0.000 
#    0.000    0.000    0.000    0.000    0.000   25.200 
#    0.000   52.800    0.000    0.000    0.000    0.000 
#
# Total GULP energy -223067.314091 kJ/mol
# GULP energy per Si atom -5576.682852 kJ/mol
# Density = 2.601617 g / cm^3
# Si number density = 26.075520 Si / 1000 Ang^3
#
#
#
# Elastic Constant Matrix: (Units=GPa)
#
#
# Indices 1 2 3 4 5 6 
#
# 1 76.7990 -0.1334 48.8579 0.0000 0.0000 0.0000
# 2 -0.1334 90.8736 15.4229 0.0000 0.0000 0.0000
# 3 48.8579 15.4229 288.1126 0.0000 0.0000 0.0000
# 4 0.0000 0.0000 0.0000 90.7911 0.0000 0.0000
# 5 0.0000 0.0000 0.0000 0.0000 5.4365 0.0000
# 6 0.0000 0.0000 0.0000 0.0000 0.0000 22.0139
#
#
#
# Elastic Compliance Matrix: (Units=1/GPa)
#
#
# Indices 1 2 3 4 5 6 
#
# 1 0.014614 0.000446 -0.002502 0.000000 0.000000 0.000000
# 2 0.000446 0.011119 -0.000671 0.000000 0.000000 0.000000
# 3 -0.002502 -0.000671 0.003931 0.000000 0.000000 0.000000
# 4 0.000000 0.000000 0.000000 0.011014 0.000000 0.000000
# 5 0.000000 0.000000 0.000000 0.000000 0.183943 0.000000
# 6 0.000000 0.000000 0.000000 0.000000 0.000000 0.045426
#
#
# Mechanical properties :
#
#
# Convention : Reuss Voigt Hill
#
# Bulk Modulus (GPa) = 41.30554 64.89777 53.10165
# Shear Modulus (GPa) = 17.63234 49.75749 33.69491
#
# Velocity S-wave (km/s) = 2.60321 4.37304 3.59862
# Velocity P-wave (km/s) = 4.99107 7.10214 6.13804
#
# Compressibility (1/GPa) = 0.02420983
#
# Stress axis : x y z
#
# Youngs Moduli (GPa) = 68.42982 89.93775 254.38378
#
# Poissons Ratio (x) = -0.04012 0.63647
# Poissons Ratio (y) = -0.03053 0.17065
# Poissons Ratio (z) = 0.17121 0.06033
#
# Static dielectric constant tensor:
#      x y z
#    x 2.173250 0.000000 0.000000 
#    y 0.000000 2.156500 0.000000 
#    z 0.000000 0.000000 2.080550 
# 
# From -- ./inp_files/32084.got.cif
#   From: 2010.05.17/outbox.cif.g08.bks.cpg/sg66_17_cif.got.tgz:32084.got - 2010.06.03 17:51:23.
