data_PCOD9498685
_publ_section_title
;
Structure prediction by ZEFSAII (Michael W. Deem and Ramdas Pophale) SiO2 
 PCOD9498685
Probable space group: C C C M
;
_chemical_formula_sum "Si O2"
_cell_formula_units_Z 88
_cell_length_a 13.487387
_cell_length_b 12.583608
_cell_length_c 24.454573
_cell_angle_alpha 90.000000
_cell_angle_beta 90.000000
_cell_angle_gamma 90.000000
_cell_volume 4150.429908
_symmetry_space_group_name_H-M "C C C M"
_symmetry_group_IT_number 66
_symmetry_cell_setting 'orthorhombic'
loop_
_space_group_symop_operation_xyz
x,y,z
-x,-y,z
x,-y,1/2-z
-x,y,1/2-z
-x,-y,-z
x,y,-z
-x,y,1/2+z
x,-y,1/2+z
1/2+x,1/2+y,z
1/2-x,1/2-y,z
1/2+x,1/2-y,1/2-z
1/2-x,1/2+y,1/2-z
1/2-x,1/2-y,-z
1/2+x,1/2+y,-z
1/2-x,1/2+y,1/2+z
1/2+x,1/2-y,1/2+z
loop_
_atom_site_type_symbol
_atom_site_label
_atom_site_fract_x
_atom_site_fract_y
_atom_site_fract_z
Si Si1 0.116773 0.490777 0.441369
Si Si2 0.107132 0.946560 0.436935
Si Si3 0.596229 0.871349 0.787715
Si Si4 0.360816 0.781683 0.397341
Si Si5 0.260001 0.042379 0.347905
Si Si6 0.250000 0.250000 0.716748
O O1 0.144932 0.447397 0.500000
O O2 0.152062 0.612830 0.433697
O O3 0.158640 0.422565 0.392333
O O4 0.000000 0.500000 0.437942
O O5 0.141616 0.967439 0.500000
O O6 0.176678 0.988368 0.386810
O O7 0.099272 0.819703 0.428962
O O8 0.000000 0.000000 0.431467
O O9 0.500000 0.895447 0.750000
O O10 0.572338 0.816888 0.845959
O O11 0.659109 0.787738 0.753392
O O12 0.674741 0.964316 0.807917
O O13 0.250000 0.750000 0.377452
O O14 0.221514 0.145138 0.317103
#
# Coordination Sequence:
#
# PCOD9498685 Si02
#       6
#    16  16  16  16  16   8
#     4  10  22  39  65 100 134 169 223 284 338 400
#     4  11  24  42  69 102 141 186 230 281 346 417
#     4  11  25  46  72  97 133 179 235 289 346 409
#     4  11  21  43  71  99 131 180 235 283 338 412
#     4  11  25  43  67  97 136 174 228 286 338 410
#     4  12  26  42  63  98 131 176 220 286 348 404
#
# _framework density 21.202622999999999
#
# number of rings (size 3 to 8) (size 9 to 14) (size 15 to 20)
#    0.000    1.091    4.545    1.636    7.636    1.455 
#    0.000    3.636    0.000    0.000    0.000    0.000 
#    0.000    0.000    0.000    0.000    0.000    0.000 
#
# Total GULP energy -245346.333837 kJ/mol
# GULP energy per Si atom -5576.053042 kJ/mol
# Density = 2.115437 g / cm^3
# Si number density = 21.202623 Si / 1000 Ang^3
#
#
#
# Elastic Constant Matrix: (Units=GPa)
#
#
# Indices 1 2 3 4 5 6 
#
# 1 107.7032 36.4438 49.5949 0.0000 0.0000 0.0000
# 2 36.4438 92.0158 39.1596 0.0000 0.0000 0.0000
# 3 49.5949 39.1596 145.5680 0.0000 0.0000 0.0000
# 4 0.0000 0.0000 0.0000 13.5901 0.0000 0.0000
# 5 0.0000 0.0000 0.0000 0.0000 -107.7581 0.0000
# 6 0.0000 0.0000 0.0000 0.0000 0.0000 28.5022
#
#
#
# Elastic Compliance Matrix: (Units=1/GPa)
#
#
# Indices 1 2 3 4 5 6 
#
# 1 0.011869 -0.003365 -0.003138 0.000000 0.000000 0.000000
# 2 -0.003365 0.013227 -0.002412 0.000000 0.000000 0.000000
# 3 -0.003138 -0.002412 0.008588 0.000000 0.000000 0.000000
# 4 0.000000 0.000000 0.000000 0.073583 0.000000 0.000000
# 5 0.000000 0.000000 0.000000 0.000000 -0.009280 0.000000
# 6 0.000000 0.000000 0.000000 0.000000 0.000000 0.035085
#
#
# Mechanical properties :
#
#
# Convention : Reuss Voigt Hill
#
# Bulk Modulus (GPa) = 63.08039 66.18705 64.63372
# Shear Modulus (GPa) = 32.01318 1.53941 16.77630
#
# Velocity S-wave (km/s) = 3.88992 0.85301 2.81594
# Velocity P-wave (km/s) = 7.07044 5.67929 6.41270
#
# Compressibility (1/GPa) = 0.01585279
#
# Stress axis : x y z
#
# Youngs Moduli (GPa) = 84.25617 75.60396 116.44614
#
# Poissons Ratio (x) = 0.25441 0.36545
# Poissons Ratio (y) = 0.28353 0.28083
# Poissons Ratio (z) = 0.26443 0.18233
#
# Static dielectric constant tensor:
#      x y z
#    x 1.812740 0.000000 0.000000 
#    y 0.000000 1.760540 0.000000 
#    z 0.000000 0.000000 1.815840 
# 
# From -- ./inp_files/58012.got.cif
#   From: 2010.05.17/outbox.cif.g08.bks.cpg/sg66_30_cif.got.tgz:58012.got - 2010.06.03 17:51:23.
