data_PCOD9498944
_publ_section_title
;
Structure prediction by ZEFSAII (Michael W. Deem and Ramdas Pophale) SiO2 
 PCOD9498944
Probable space group: C C C M
;
_chemical_formula_sum "Si O2"
_cell_formula_units_Z 68
_cell_length_a 28.230047
_cell_length_b 5.121722
_cell_length_c 19.433390
_cell_angle_alpha 90.000000
_cell_angle_beta 90.000000
_cell_angle_gamma 90.000000
_cell_volume 2809.804926
_symmetry_space_group_name_H-M "C C C M"
_symmetry_group_IT_number 66
_symmetry_cell_setting 'orthorhombic'
loop_
_space_group_symop_operation_xyz
x,y,z
-x,-y,z
x,-y,1/2-z
-x,y,1/2-z
-x,-y,-z
x,y,-z
-x,y,1/2+z
x,-y,1/2+z
1/2+x,1/2+y,z
1/2-x,1/2-y,z
1/2+x,1/2-y,1/2-z
1/2-x,1/2+y,1/2-z
1/2-x,1/2-y,-z
1/2+x,1/2+y,-z
1/2-x,1/2+y,1/2+z
1/2+x,1/2-y,1/2+z
loop_
_atom_site_type_symbol
_atom_site_label
_atom_site_fract_x
_atom_site_fract_y
_atom_site_fract_z
Si Si1 0.817758 0.749612 0.293148
Si Si2 0.205621 0.437120 0.919394
Si Si3 0.076819 0.274605 0.658889
Si Si4 0.100045 0.228200 0.079522
Si Si5 0.500000 0.500000 0.750000
O O1 0.802726 0.500000 0.250000
O O2 0.799659 0.687117 0.369915
O O3 0.874776 0.747862 0.297712
O O4 0.803066 0.000000 0.250000
O O5 0.250000 0.250000 0.904152
O O6 0.156312 0.277779 0.908589
O O7 0.207875 0.511893 0.000000
O O8 0.073988 0.563427 0.628071
O O9 0.085159 0.063009 0.598559
O O10 0.033216 0.181347 0.703523
O O11 0.090512 0.284117 0.000000
#
# Coordination Sequence:
#
# PCOD9498944 Si02
#       5
#    16  16  16  16   4
#     4  11  22  43  69 100 145 191 235 292 365 423
#     4   9  20  41  72 108 144 188 243 294 346 424
#     4  11  24  42  67 100 132 182 231 289 352 418
#     4  10  22  44  70  97 138 182 227 282 355 420
#     4  12  28  42  70 102 136 174 248 292 336 438
#
# _framework density 24.200968
#
# number of rings (size 3 to 8) (size 9 to 14) (size 15 to 20)
#    0.000    1.647    1.176    3.529    0.000    2.824 
#    0.000   18.824    0.000   32.471    0.000    0.000 
#    0.000    2.824    0.000    0.000    0.000    0.471 
#
# Total GULP energy -190699.515081 kJ/mol
# GULP energy per Si atom -5608.809267 kJ/mol
# Density = 2.414589 g / cm^3
# Si number density = 24.200968 Si / 1000 Ang^3
#
#
#
# Elastic Constant Matrix: (Units=GPa)
#
#
# Indices 1 2 3 4 5 6 
#
# 1 135.0353 10.4491 52.6250 0.0000 0.0000 0.0000
# 2 10.4491 129.6792 56.7529 0.0000 0.0000 0.0000
# 3 52.6250 56.7529 128.9347 0.0000 0.0000 0.0000
# 4 0.0000 0.0000 0.0000 39.6968 0.0000 0.0000
# 5 0.0000 0.0000 0.0000 0.0000 31.6579 0.0000
# 6 0.0000 0.0000 0.0000 0.0000 0.0000 42.4727
#
#
#
# Elastic Compliance Matrix: (Units=1/GPa)
#
#
# Indices 1 2 3 4 5 6 
#
# 1 0.008928 0.001084 -0.004121 0.000000 0.000000 0.000000
# 2 0.001084 0.009683 -0.004705 0.000000 0.000000 0.000000
# 3 -0.004121 -0.004705 0.011509 0.000000 0.000000 0.000000
# 4 0.000000 0.000000 0.000000 0.025191 0.000000 0.000000
# 5 0.000000 0.000000 0.000000 0.000000 0.031588 0.000000
# 6 0.000000 0.000000 0.000000 0.000000 0.000000 0.023545
#
#
# Mechanical properties :
#
#
# Convention : Reuss Voigt Hill
#
# Bulk Modulus (GPa) = 68.32349 70.36701 69.34525
# Shear Modulus (GPa) = 38.22508 41.02027 39.62267
#
# Velocity S-wave (km/s) = 3.97859 4.12149 4.05067
# Velocity P-wave (km/s) = 7.02841 7.19639 7.11290
#
# Compressibility (1/GPa) = 0.01463626
#
# Stress axis : x y z
#
# Youngs Moduli (GPa) = 112.01213 103.27471 86.89074
#
# Poissons Ratio (x) = -0.11197 0.35808
# Poissons Ratio (y) = -0.12144 0.40879
# Poissons Ratio (z) = 0.46161 0.48587
#
# Static dielectric constant tensor:
#      x y z
#    x 1.915280 0.000000 0.000000 
#    y 0.000000 1.895070 0.000000 
#    z 0.000000 0.000000 1.869320 
# 
# From -- ./inp_files/52822.got.cif
#   From: 2010.05.17/outbox.cif.g08.bks.cpg/sg66_27_cif.got.tgz:52822.got - 2010.06.03 17:51:23.
