data_PCOD9498570
_publ_section_title
;
Structure prediction by ZEFSAII (Michael W. Deem and Ramdas Pophale) SiO2 
 PCOD9498570
Probable space group: C C C M
;
_chemical_formula_sum "Si O2"
_cell_formula_units_Z 112
_cell_length_a 27.359069
_cell_length_b 15.702183
_cell_length_c 14.439338
_cell_angle_alpha 90.000000
_cell_angle_beta 90.000000
_cell_angle_gamma 90.000000
_cell_volume 6203.097848
_symmetry_space_group_name_H-M "C C C M"
_symmetry_group_IT_number 66
_symmetry_cell_setting 'orthorhombic'
loop_
_space_group_symop_operation_xyz
x,y,z
-x,-y,z
x,-y,1/2-z
-x,y,1/2-z
-x,-y,-z
x,y,-z
-x,y,1/2+z
x,-y,1/2+z
1/2+x,1/2+y,z
1/2-x,1/2-y,z
1/2+x,1/2-y,1/2-z
1/2-x,1/2+y,1/2-z
1/2-x,1/2-y,-z
1/2+x,1/2+y,-z
1/2-x,1/2+y,1/2+z
1/2+x,1/2-y,1/2+z
loop_
_atom_site_type_symbol
_atom_site_label
_atom_site_fract_x
_atom_site_fract_y
_atom_site_fract_z
Si Si1 0.555020 0.312211 0.111015
Si Si2 0.311021 0.590578 0.295987
Si Si3 0.190621 0.150114 0.000000
Si Si4 0.806948 0.589525 0.796918
Si Si5 0.369572 0.245728 0.742215
Si Si6 0.191529 0.349693 0.000000
Si Si7 0.559130 0.499806 0.894788
Si Si8 0.940751 0.810966 0.888238
O O1 0.592918 0.249071 0.157383
O O2 0.569972 0.407392 0.145272
O O3 0.498047 0.296206 0.133840
O O4 0.557945 0.312407 0.000000
O O5 0.324658 0.500000 0.250000
O O6 0.323668 0.602349 0.405358
O O7 0.251958 0.598716 0.290379
O O8 0.335860 0.670195 0.245511
O O9 0.175072 0.250055 0.000000
O O10 0.249430 0.153566 0.000000
O O11 0.819727 0.500000 0.750000
O O12 0.834530 0.665331 0.745121
O O13 0.821418 0.602029 0.905072
O O14 0.404628 0.250560 0.832736
O O15 0.500000 0.500000 0.899253
O O16 0.571164 0.592092 0.855788
O O17 0.577843 0.499553 0.000000
O O18 0.935868 0.807523 0.000000
#
# Coordination Sequence:
#
# PCOD9498570 Si02
#       8
#    16  16   8  16  16   8  16  16
#     4   9  19  36  50  72 117 160 186 223 284 343
#     4  10  22  37  56  87 122 152 183 233 294 342
#     4   9  16  34  60  81 113 150 186 229 287 338
#     4  10  22  41  60  82 114 147 189 248 301 343
#     4  12  22  32  58  86 109 149 197 239 278 347
#     4   9  16  34  64  83 103 146 186 241 296 337
#     4   7  12  27  47  66 100 148 180 206 258 326
#     4   9  19  32  52  81 113 145 185 237 284 337
#
# _framework density 18.055495000000001
#
# number of rings (size 3 to 8) (size 9 to 14) (size 15 to 20)
#    0.000    2.571    1.429    2.571    4.000    0.000 
#    2.571    2.143    0.000    2.571    0.000    2.000 
#    0.000    0.000    0.000    0.000    0.000    0.000 
#
# Total GULP energy -312266.133696 kJ/mol
# GULP energy per Si atom -5576.180959 kJ/mol
# Density = 1.801440 g / cm^3
# Si number density = 18.055495 Si / 1000 Ang^3
#
#
#
# Elastic Constant Matrix: (Units=GPa)
#
#
# Indices 1 2 3 4 5 6 
#
# 1 82.1282 56.7729 31.8856 0.0000 0.0000 0.0000
# 2 56.7729 118.5287 51.4965 0.0000 0.0000 0.0000
# 3 31.8856 51.4965 94.0830 0.0000 0.0000 0.0000
# 4 0.0000 0.0000 0.0000 19.0046 0.0000 0.0000
# 5 0.0000 0.0000 0.0000 0.0000 25.2141 0.0000
# 6 0.0000 0.0000 0.0000 0.0000 0.0000 27.8166
#
#
#
# Elastic Compliance Matrix: (Units=1/GPa)
#
#
# Indices 1 2 3 4 5 6 
#
# 1 0.018447 -0.008029 -0.001857 0.000000 0.000000 0.000000
# 2 -0.008029 0.014564 -0.005250 0.000000 0.000000 0.000000
# 3 -0.001857 -0.005250 0.014132 0.000000 0.000000 0.000000
# 4 0.000000 0.000000 0.000000 0.052619 0.000000 0.000000
# 5 0.000000 0.000000 0.000000 0.000000 0.039660 0.000000
# 6 0.000000 0.000000 0.000000 0.000000 0.000000 0.035950
#
#
# Mechanical properties :
#
#
# Convention : Reuss Voigt Hill
#
# Bulk Modulus (GPa) = 59.27721 63.89444 61.58582
# Shear Modulus (GPa) = 23.66658 24.71273 24.18966
#
# Velocity S-wave (km/s) = 3.62438 3.70362 3.66422
# Velocity P-wave (km/s) = 7.10047 7.33169 7.21701
#
# Compressibility (1/GPa) = 0.01686989
#
# Stress axis : x y z
#
# Youngs Moduli (GPa) = 54.20823 68.66452 70.76082
#
# Poissons Ratio (x) = 0.55131 0.13142
# Poissons Ratio (y) = 0.43524 0.37151
# Poissons Ratio (z) = 0.10068 0.36051
#
# Static dielectric constant tensor:
#      x y z
#    x 1.631720 0.000000 0.000000 
#    y 0.000000 1.602390 0.000000 
#    z 0.000000 0.000000 1.666460 
# 
# From -- ./inp_files/33357.got.cif
#   From: 2010.05.17/outbox.cif.g08.bks.cpg/sg66_17_cif.got.tgz:33357.got - 2010.06.03 17:51:23.
