data_PCOD9498495
_publ_section_title
;
Structure prediction by ZEFSAII (Michael W. Deem and Ramdas Pophale) SiO2 
 PCOD9498495
Probable space group: C C C M
;
_chemical_formula_sum "Si O2"
_cell_formula_units_Z 116
_cell_length_a 28.889060
_cell_length_b 11.193606
_cell_length_c 17.621404
_cell_angle_alpha 90.000000
_cell_angle_beta 90.000000
_cell_angle_gamma 90.000000
_cell_volume 5698.281965
_symmetry_space_group_name_H-M "C C C M"
_symmetry_group_IT_number 66
_symmetry_cell_setting 'orthorhombic'
loop_
_space_group_symop_operation_xyz
x,y,z
-x,-y,z
x,-y,1/2-z
-x,y,1/2-z
-x,-y,-z
x,y,-z
-x,y,1/2+z
x,-y,1/2+z
1/2+x,1/2+y,z
1/2-x,1/2-y,z
1/2+x,1/2-y,1/2-z
1/2-x,1/2+y,1/2-z
1/2-x,1/2-y,-z
1/2+x,1/2+y,-z
1/2-x,1/2+y,1/2+z
1/2+x,1/2-y,1/2+z
loop_
_atom_site_type_symbol
_atom_site_label
_atom_site_fract_x
_atom_site_fract_y
_atom_site_fract_z
Si Si1 0.000000 0.500000 0.000000
Si Si2 0.630413 0.674297 0.170762
Si Si3 0.600551 0.437665 0.910684
Si Si4 0.175039 0.194136 0.330389
Si Si5 0.061448 0.315078 0.083193
Si Si6 0.773322 0.431580 0.174679
Si Si7 0.010362 0.139808 0.339237
Si Si8 0.776029 0.125388 0.417214
O O1 0.034999 0.439233 0.934588
O O2 0.602200 0.559320 0.139533
O O3 0.639966 0.681809 0.259811
O O4 0.604169 0.791837 0.139862
O O5 0.680766 0.649279 0.136463
O O6 0.650003 0.373439 0.898833
O O7 0.562043 0.352096 0.872682
O O8 0.591081 0.458642 0.000000
O O9 0.190228 0.329565 0.346480
O O10 0.223344 0.129763 0.309019
O O11 0.021627 0.226362 0.112102
O O12 0.079003 0.275007 0.000000
O O13 0.788901 0.500000 0.250000
O O14 0.760269 0.527879 0.111680
O O15 0.000000 0.164130 0.250000
O O16 0.000000 0.000000 0.351547
O O17 0.794015 0.091481 0.500000
O O18 0.750000 0.250000 0.420944
#
# Coordination Sequence:
#
# PCOD9498495 Si02
#       8
#     4  16  16  16  16  16  16  16
#     4   8  24  44  68  96 126 196 214 266 322 424
#     4  12  21  38  66  98 125 173 231 282 328 413
#     4  12  24  38  62 104 136 167 217 282 353 412
#     4  11  24  38  64  93 133 176 224 280 347 408
#     4  10  21  42  68  95 131 174 224 268 340 404
#     4  11  21  41  63  88 129 182 223 281 343 411
#     4  11  23  38  65 101 136 167 212 278 352 412
#     4  11  23  39  63  96 127 172 232 285 334 401
#
# _framework density 20.357013999999999
#
# number of rings (size 3 to 8) (size 9 to 14) (size 15 to 20)
#    0.414    0.552    4.138    3.724    1.931    1.103 
#    0.000    4.483    0.000    0.000    0.000    0.000 
#    0.000    0.000    0.000    0.000    0.000    0.000 
#
# Total GULP energy -322961.392445 kJ/mol
# GULP energy per Si atom -5568.299870 kJ/mol
# Density = 2.031068 g / cm^3
# Si number density = 20.357014 Si / 1000 Ang^3
#
#
#
# Elastic Constant Matrix: (Units=GPa)
#
#
# Indices 1 2 3 4 5 6 
#
# 1 61.8566 19.2471 19.5177 0.0000 0.0000 0.0000
# 2 19.2471 78.2602 18.5317 0.0000 0.0000 0.0000
# 3 19.5177 18.5317 82.0778 0.0000 0.0000 0.0000
# 4 0.0000 0.0000 0.0000 15.2991 0.0000 0.0000
# 5 0.0000 0.0000 0.0000 0.0000 -1.9875 0.0000
# 6 0.0000 0.0000 0.0000 0.0000 0.0000 38.9812
#
#
#
# Elastic Compliance Matrix: (Units=1/GPa)
#
#
# Indices 1 2 3 4 5 6 
#
# 1 0.018436 -0.003693 -0.003550 0.000000 0.000000 0.000000
# 2 -0.003693 0.014240 -0.002337 0.000000 0.000000 0.000000
# 3 -0.003550 -0.002337 0.013555 0.000000 0.000000 0.000000
# 4 0.000000 0.000000 0.000000 0.065364 0.000000 0.000000
# 5 0.000000 0.000000 0.000000 0.000000 -0.503142 0.000000
# 6 0.000000 0.000000 0.000000 0.000000 0.000000 0.025653
#
#
# Mechanical properties :
#
#
# Convention : Reuss Voigt Hill
#
# Bulk Modulus (GPa) = 36.94087 37.42084 37.18085
# Shear Modulus (GPa) = -14.80558 21.45176 3.32309
#
# Velocity S-wave (km/s) = -2.69977 3.24972 1.27904
# Velocity P-wave (km/s) = 2.90991 5.70115 4.52607
#
# Compressibility (1/GPa) = 0.02707029
#
# Stress axis : x y z
#
# Youngs Moduli (GPa) = 54.24226 70.22688 73.77161
#
# Poissons Ratio (x) = 0.25938 0.26189
# Poissons Ratio (y) = 0.20034 0.17239
# Poissons Ratio (z) = 0.19256 0.16410
#
# Static dielectric constant tensor:
#      x y z
#    x 1.801900 0.000000 0.000000 
#    y 0.000000 1.726960 0.000000 
#    z 0.000000 0.000000 1.774740 
# 
# From -- ./inp_files/44350.got.cif
#   From: 2010.05.17/outbox.cif.g08.bks.cpg/sg66_23_cif.got.tgz:44350.got - 2010.06.03 17:51:23.
