data_PCOD9498787
_publ_section_title
;
Structure prediction by ZEFSAII (Michael W. Deem and Ramdas Pophale) SiO2 
 PCOD9498787
Probable space group: C C C M
;
_chemical_formula_sum "Si O2"
_cell_formula_units_Z 48
_cell_length_a 8.362553
_cell_length_b 10.829400
_cell_length_c 20.855768
_cell_angle_alpha 90.000000
_cell_angle_beta 90.000000
_cell_angle_gamma 90.000000
_cell_volume 1888.728204
_symmetry_space_group_name_H-M "C C C M"
_symmetry_group_IT_number 66
_symmetry_cell_setting 'orthorhombic'
loop_
_space_group_symop_operation_xyz
x,y,z
-x,-y,z
x,-y,1/2-z
-x,y,1/2-z
-x,-y,-z
x,y,-z
-x,y,1/2+z
x,-y,1/2+z
1/2+x,1/2+y,z
1/2-x,1/2-y,z
1/2+x,1/2-y,1/2-z
1/2-x,1/2+y,1/2-z
1/2-x,1/2-y,-z
1/2+x,1/2+y,-z
1/2-x,1/2+y,1/2+z
1/2+x,1/2-y,1/2+z
loop_
_atom_site_type_symbol
_atom_site_label
_atom_site_fract_x
_atom_site_fract_y
_atom_site_fract_z
Si Si1 0.110823 0.621817 0.427901
Si Si2 0.596884 0.368895 0.069164
Si Si3 0.806852 0.999147 0.821759
O O1 0.186223 0.621060 0.500000
O O2 0.226469 0.605572 0.366344
O O3 0.000000 0.500000 0.425926
O O4 0.013069 0.749111 0.424688
O O5 0.500000 0.500000 0.066805
O O6 0.710222 0.384193 0.130581
O O7 0.679785 0.363771 0.000000
O O8 0.738032 0.000000 0.750000
O O9 0.000000 0.000000 0.813167
#
# Coordination Sequence:
#
# PCOD9498787 Si02
#       3
#    16  16  16
#     4  10  22  41  66  96 128 167 219 275 330 387
#     4   9  19  38  64  91 121 162 214 266 313 373
#     4  10  22  41  62  93 133 174 217 267 329 400
#
# _framework density 25.413924999999999
#
# number of rings (size 3 to 8) (size 9 to 14) (size 15 to 20)
#    0.000    2.333    0.000    1.000    0.000    9.333 
#    0.000   43.333    0.000    0.000    0.000    0.000 
#    0.000    0.000    0.000    0.000    0.000    0.000 
#
# Total GULP energy -133780.159500 kJ/mol
# GULP energy per Si atom -5574.173313 kJ/mol
# Density = 2.535608 g / cm^3
# Si number density = 25.413925 Si / 1000 Ang^3
#
#
#
# Elastic Constant Matrix: (Units=GPa)
#
#
# Indices 1 2 3 4 5 6 
#
# 1 69.6388 67.3662 53.3772 0.0000 0.0000 0.0000
# 2 67.3662 228.0196 59.3556 0.0000 0.0000 0.0000
# 3 53.3772 59.3556 326.8251 0.0000 0.0000 0.0000
# 4 0.0000 0.0000 0.0000 -152.2083 0.0000 0.0000
# 5 0.0000 0.0000 0.0000 0.0000 -33.9425 0.0000
# 6 0.0000 0.0000 0.0000 0.0000 0.0000 78.4112
#
#
#
# Elastic Compliance Matrix: (Units=1/GPa)
#
#
# Indices 1 2 3 4 5 6 
#
# 1 0.021925 -0.005821 -0.002524 0.000000 0.000000 0.000000
# 2 -0.005821 0.006148 -0.000166 0.000000 0.000000 0.000000
# 3 -0.002524 -0.000166 0.003502 0.000000 0.000000 0.000000
# 4 0.000000 0.000000 0.000000 -0.006570 0.000000 0.000000
# 5 0.000000 0.000000 0.000000 0.000000 -0.029462 0.000000
# 6 0.000000 0.000000 0.000000 0.000000 0.000000 0.012753
#
#
# Mechanical properties :
#
#
# Convention : Reuss Voigt Hill
#
# Bulk Modulus (GPa) = 68.70589 109.40905 89.05747
# Shear Modulus (GPa) = 165.73317 8.07771 86.90544
#
# Velocity S-wave (km/s) = 8.08425 1.78476 5.85408
# Velocity P-wave (km/s) = 10.68801 6.88414 8.98958
#
# Compressibility (1/GPa) = 0.01455479
#
# Stress axis : x y z
#
# Youngs Moduli (GPa) = 45.61056 162.64333 285.54620
#
# Poissons Ratio (x) = 0.94667 0.72063
# Poissons Ratio (y) = 0.26548 0.04741
# Poissons Ratio (z) = 0.11511 0.02700
#
# Static dielectric constant tensor:
#      x y z
#    x 2.567580 0.000000 0.000000 
#    y 0.000000 2.020780 0.000000 
#    z 0.000000 0.000000 2.099070 
# 
# From -- ./inp_files/54725.got.cif
#   From: 2010.05.17/outbox.cif.g08.bks.cpg/sg66_28_cif.got.tgz:54725.got - 2010.06.03 17:51:23.
