data_PCOD9498546
_publ_section_title
;
Structure prediction by ZEFSAII (Michael W. Deem and Ramdas Pophale) SiO2 
 PCOD9498546
Probable space group: C C C M
;
_chemical_formula_sum "Si O2"
_cell_formula_units_Z 96
_cell_length_a 26.434052
_cell_length_b 10.241374
_cell_length_c 18.776746
_cell_angle_alpha 90.000000
_cell_angle_beta 90.000000
_cell_angle_gamma 90.000000
_cell_volume 5083.259695
_symmetry_space_group_name_H-M "C C C M"
_symmetry_group_IT_number 66
_symmetry_cell_setting 'orthorhombic'
loop_
_space_group_symop_operation_xyz
x,y,z
-x,-y,z
x,-y,1/2-z
-x,y,1/2-z
-x,-y,-z
x,y,-z
-x,y,1/2+z
x,-y,1/2+z
1/2+x,1/2+y,z
1/2-x,1/2-y,z
1/2+x,1/2-y,1/2-z
1/2-x,1/2+y,1/2-z
1/2-x,1/2-y,-z
1/2+x,1/2+y,-z
1/2-x,1/2+y,1/2+z
1/2+x,1/2-y,1/2+z
loop_
_atom_site_type_symbol
_atom_site_label
_atom_site_fract_x
_atom_site_fract_y
_atom_site_fract_z
Si Si1 0.057788 0.646338 0.727483
Si Si2 0.854531 0.044955 0.417347
Si Si3 0.172194 0.583820 0.916782
Si Si4 0.372137 0.306380 0.329441
Si Si5 0.397083 0.163936 0.920161
Si Si6 0.269821 0.555817 0.824535
O O1 0.074313 0.500000 0.750000
O O2 0.093001 0.753834 0.766263
O O3 0.063211 0.651170 0.642837
O O4 0.000000 0.664575 0.750000
O O5 0.848673 0.002812 0.500000
O O6 0.886880 0.938568 0.372071
O O7 0.876537 0.189041 0.417096
O O8 0.801196 0.042682 0.375574
O O9 0.133389 0.690296 0.886242
O O10 0.147723 0.440792 0.907280
O O11 0.223394 0.600123 0.872323
O O12 0.181749 0.605393 0.000000
O O13 0.314828 0.342440 0.304594
O O14 0.416605 0.138462 0.000000
O O15 0.250849 0.500000 0.750000
#
# Coordination Sequence:
#
# PCOD9498546 Si02
#       6
#    16  16  16  16  16  16
#     4  11  23  43  69  96 119 158 208 270 323 369
#     4   9  20  39  61  86 128 165 200 250 306 367
#     4  11  22  37  60  88 122 166 210 252 303 362
#     4  10  22  39  61  87 122 159 202 258 306 369
#     4  10  22  41  63  89 126 164 202 256 311 369
#     4  10  22  35  56  88 122 165 209 249 297 366
#
# _framework density 18.88552
#
# number of rings (size 3 to 8) (size 9 to 14) (size 15 to 20)
#    1.000    0.833    1.667    2.500    2.333    1.333 
#    3.000    7.500    0.000    2.000    0.000    0.000 
#    0.000    0.000    0.000    0.000    0.000    0.000 
#
# Total GULP energy -267404.061823 kJ/mol
# GULP energy per Si atom -5570.917955 kJ/mol
# Density = 1.884254 g / cm^3
# Si number density = 18.885520 Si / 1000 Ang^3
#
#
#
# Elastic Constant Matrix: (Units=GPa)
#
#
# Indices 1 2 3 4 5 6 
#
# 1 52.3733 9.0156 38.2888 0.0000 0.0000 0.0000
# 2 9.0156 82.6610 13.7304 0.0000 0.0000 0.0000
# 3 38.2888 13.7304 95.2207 0.0000 0.0000 0.0000
# 4 0.0000 0.0000 0.0000 19.7062 0.0000 0.0000
# 5 0.0000 0.0000 0.0000 0.0000 25.9957 0.0000
# 6 0.0000 0.0000 0.0000 0.0000 0.0000 8.8028
#
#
#
# Elastic Compliance Matrix: (Units=1/GPa)
#
#
# Indices 1 2 3 4 5 6 
#
# 1 0.027155 -0.001176 -0.010750 0.000000 0.000000 0.000000
# 2 -0.001176 0.012445 -0.001322 0.000000 0.000000 0.000000
# 3 -0.010750 -0.001322 0.015015 0.000000 0.000000 0.000000
# 4 0.000000 0.000000 0.000000 0.050746 0.000000 0.000000
# 5 0.000000 0.000000 0.000000 0.000000 0.038468 0.000000
# 6 0.000000 0.000000 0.000000 0.000000 0.000000 0.113600
#
#
# Mechanical properties :
#
#
# Convention : Reuss Voigt Hill
#
# Bulk Modulus (GPa) = 35.56113 39.14717 37.35415
# Shear Modulus (GPa) = 17.04757 22.18229 19.61493
#
# Velocity S-wave (km/s) = 3.00772 3.43091 3.22626
# Velocity P-wave (km/s) = 5.56171 6.03892 5.80522
#
# Compressibility (1/GPa) = 0.02812059
#
# Stress axis : x y z
#
# Youngs Moduli (GPa) = 36.82580 80.35086 66.60027
#
# Poissons Ratio (x) = 0.09450 0.71592
# Poissons Ratio (y) = 0.04331 0.08802
# Poissons Ratio (z) = 0.39586 0.10620
#
# Static dielectric constant tensor:
#      x y z
#    x 1.624340 0.000000 0.000000 
#    y 0.000000 1.690580 0.000000 
#    z 0.000000 0.000000 1.659520 
# 
# From -- ./inp_files/43613.got.cif
#   From: 2010.05.17/outbox.cif.g08.bks.cpg/sg66_22_cif.got.tgz:43613.got - 2010.06.03 17:51:23.
