data_PCOD9498115
_publ_section_title
;
Structure prediction by ZEFSAII (Michael W. Deem and Ramdas Pophale) SiO2 
 PCOD9498115
Probable space group: C C C M
;
_chemical_formula_sum "Si O2"
_cell_formula_units_Z 116
_cell_length_a 29.126681
_cell_length_b 11.513337
_cell_length_c 18.357577
_cell_angle_alpha 90.000000
_cell_angle_beta 90.000000
_cell_angle_gamma 90.000000
_cell_volume 6156.127057
_symmetry_space_group_name_H-M "C C C M"
_symmetry_group_IT_number 66
_symmetry_cell_setting 'orthorhombic'
loop_
_space_group_symop_operation_xyz
x,y,z
-x,-y,z
x,-y,1/2-z
-x,y,1/2-z
-x,-y,-z
x,y,-z
-x,y,1/2+z
x,-y,1/2+z
1/2+x,1/2+y,z
1/2-x,1/2-y,z
1/2+x,1/2-y,1/2-z
1/2-x,1/2+y,1/2-z
1/2-x,1/2-y,-z
1/2+x,1/2+y,-z
1/2-x,1/2+y,1/2+z
1/2+x,1/2-y,1/2+z
loop_
_atom_site_type_symbol
_atom_site_label
_atom_site_fract_x
_atom_site_fract_y
_atom_site_fract_z
Si Si1 0.050423 0.306733 0.770464
Si Si2 0.000000 0.500000 0.500000
Si Si3 0.799790 0.804451 0.319702
Si Si4 0.303347 0.536235 0.413562
Si Si5 0.643889 0.300576 0.325128
Si Si6 0.339500 0.102518 0.582206
Si Si7 0.708295 0.865317 0.915998
Si Si8 0.936481 0.465529 0.866502
O O1 0.091777 0.229030 0.802135
O O2 0.047473 0.415159 0.827200
O O3 0.064497 0.367120 0.694864
O O4 0.000000 0.256384 0.750000
O O5 0.967883 0.557006 0.564311
O O6 0.750000 0.750000 0.302452
O O7 0.827680 0.833084 0.246970
O O8 0.827426 0.705558 0.363541
O O9 0.795352 0.918241 0.369531
O O10 0.304229 0.516588 0.500000
O O11 0.349440 0.596419 0.383180
O O12 0.262677 0.631195 0.398408
O O13 0.671621 0.192573 0.361786
O O14 0.343576 0.148245 0.500000
O O15 0.385005 0.032479 0.603774
O O16 0.301056 0.003726 0.583663
O O17 0.700798 0.824974 0.000000
#
# Coordination Sequence:
#
# PCOD9498115 Si02
#       8
#    16   4  16  16  16  16  16  16
#     4  11  22  39  58  87 125 164 194 250 327 382
#     4  12  20  34  64  92 122 170 204 248 308 382
#     4  12  24  39  61  88 123 168 215 259 306 369
#     4  11  24  43  61  86 125 169 218 262 309 372
#     4  12  24  38  62  91 123 162 207 263 317 377
#     4  11  21  34  58  92 125 165 203 247 311 374
#     4  10  21  38  61  89 129 166 205 254 315 381
#     4  11  20  36  58  89 130 159 197 250 311 380
#
# _framework density 18.843015000000001
#
# number of rings (size 3 to 8) (size 9 to 14) (size 15 to 20)
#    0.000    0.828    6.207    2.897    0.000    2.207 
#    1.241    0.000    0.000    1.655    0.000    0.966 
#    0.000    0.000    0.000    0.000    0.000    0.000 
#
# Total GULP energy -323053.801715 kJ/mol
# GULP energy per Si atom -5569.893133 kJ/mol
# Density = 1.880013 g / cm^3
# Si number density = 18.843015 Si / 1000 Ang^3
#
#
#
# Elastic Constant Matrix: (Units=GPa)
#
#
# Indices 1 2 3 4 5 6 
#
# 1 115.8684 17.5653 27.0760 0.0000 0.0000 0.0000
# 2 17.5653 43.2162 6.7678 0.0000 0.0000 0.0000
# 3 27.0760 6.7678 96.5576 0.0000 0.0000 0.0000
# 4 0.0000 0.0000 0.0000 25.9379 0.0000 0.0000
# 5 0.0000 0.0000 0.0000 0.0000 30.2701 0.0000
# 6 0.0000 0.0000 0.0000 0.0000 0.0000 24.4996
#
#
#
# Elastic Compliance Matrix: (Units=1/GPa)
#
#
# Indices 1 2 3 4 5 6 
#
# 1 0.009753 -0.003575 -0.002484 0.000000 0.000000 0.000000
# 2 -0.003575 0.024707 -0.000729 0.000000 0.000000 0.000000
# 3 -0.002484 -0.000729 0.011104 0.000000 0.000000 0.000000
# 4 0.000000 0.000000 0.000000 0.038554 0.000000 0.000000
# 5 0.000000 0.000000 0.000000 0.000000 0.033036 0.000000
# 6 0.000000 0.000000 0.000000 0.000000 0.000000 0.040817
#
#
# Mechanical properties :
#
#
# Convention : Reuss Voigt Hill
#
# Bulk Modulus (GPa) = 31.26285 39.82893 35.54589
# Shear Modulus (GPa) = 27.44087 29.75706 28.59896
#
# Velocity S-wave (km/s) = 3.82028 3.97824 3.90006
# Velocity P-wave (km/s) = 6.00721 6.50269 6.25985
#
# Compressibility (1/GPa) = 0.03198685
#
# Stress axis : x y z
#
# Youngs Moduli (GPa) = 102.53291 40.47472 90.05562
#
# Poissons Ratio (x) = 0.14470 0.22372
# Poissons Ratio (y) = 0.36656 0.06567
# Poissons Ratio (z) = 0.25472 0.02952
#
# Static dielectric constant tensor:
#      x y z
#    x 1.716540 0.000000 0.000000 
#    y 0.000000 1.672460 0.000000 
#    z 0.000000 0.000000 1.641820 
# 
# From -- ./inp_files/44761.got.cif
#   From: 2010.05.17/outbox.cif.g08.bks.cpg/sg66_23_cif.got.tgz:44761.got - 2010.06.03 17:51:23.
