data_PCOD9498603
_publ_section_title
;
Structure prediction by ZEFSAII (Michael W. Deem and Ramdas Pophale) SiO2 
 PCOD9498603
Probable space group: C C C M
;
_chemical_formula_sum "Si O2"
_cell_formula_units_Z 52
_cell_length_a 7.331858
_cell_length_b 20.482566
_cell_length_c 13.774395
_cell_angle_alpha 90.000000
_cell_angle_beta 90.000000
_cell_angle_gamma 90.000000
_cell_volume 2068.573425
_symmetry_space_group_name_H-M "C C C M"
_symmetry_group_IT_number 66
_symmetry_cell_setting 'orthorhombic'
loop_
_space_group_symop_operation_xyz
x,y,z
-x,-y,z
x,-y,1/2-z
-x,y,1/2-z
-x,-y,-z
x,y,-z
-x,y,1/2+z
x,-y,1/2+z
1/2+x,1/2+y,z
1/2-x,1/2-y,z
1/2+x,1/2-y,1/2-z
1/2-x,1/2+y,1/2-z
1/2-x,1/2-y,-z
1/2+x,1/2+y,-z
1/2-x,1/2+y,1/2+z
1/2+x,1/2-y,1/2+z
loop_
_atom_site_type_symbol
_atom_site_label
_atom_site_fract_x
_atom_site_fract_y
_atom_site_fract_z
Si Si1 0.212176 0.681545 0.778063
Si Si2 0.500000 0.500000 0.250000
Si Si3 0.077752 0.566966 0.893134
Si Si4 0.831403 0.109821 0.609958
O O1 0.250000 0.750000 0.829369
O O2 0.218557 0.614123 0.839321
O O3 0.340811 0.671372 0.683378
O O4 0.000000 0.685062 0.750000
O O5 0.605756 0.452684 0.326344
O O6 0.000000 0.500000 0.849352
O O7 0.887391 0.604890 0.901945
O O8 0.150929 0.550148 0.000000
O O9 0.907446 0.113749 0.500000
#
# Coordination Sequence:
#
# PCOD9498603 Si02
#       4
#    16   4  16  16
#     4  10  22  39  63  90 130 172 215 260 321 386
#     4  12  22  36  66  94 128 160 222 264 308 382
#     4   9  18  37  64  93 125 164 213 268 325 380
#     4  10  22  38  58  88 126 167 208 261 321 377
#
# _framework density 25.138095
#
# number of rings (size 3 to 8) (size 9 to 14) (size 15 to 20)
#    0.000    2.154    0.000    2.308    2.154    5.538 
#    0.000    1.538    0.000    1.846    0.000    0.000 
#    0.000    0.000    0.000    0.000    0.000    0.000 
#
# Total GULP energy -144893.653780 kJ/mol
# GULP energy per Si atom -5572.832838 kJ/mol
# Density = 2.508088 g / cm^3
# Si number density = 25.138095 Si / 1000 Ang^3
#
#
#
# Elastic Constant Matrix: (Units=GPa)
#
#
# Indices 1 2 3 4 5 6 
#
# 1 47.3184 11.6896 42.5447 0.0000 0.0000 0.0000
# 2 11.6896 160.2496 80.5712 0.0000 0.0000 0.0000
# 3 42.5447 80.5712 189.8051 0.0000 0.0000 0.0000
# 4 0.0000 0.0000 0.0000 -174.1548 0.0000 0.0000
# 5 0.0000 0.0000 0.0000 0.0000 21.7852 0.0000
# 6 0.0000 0.0000 0.0000 0.0000 0.0000 42.5469
#
#
#
# Elastic Compliance Matrix: (Units=1/GPa)
#
#
# Indices 1 2 3 4 5 6 
#
# 1 0.026695 0.001349 -0.006556 0.000000 0.000000 0.000000
# 2 0.001349 0.008002 -0.003699 0.000000 0.000000 0.000000
# 3 -0.006556 -0.003699 0.008308 0.000000 0.000000 0.000000
# 4 0.000000 0.000000 0.000000 -0.005742 0.000000 0.000000
# 5 0.000000 0.000000 0.000000 0.000000 0.045903 0.000000
# 6 0.000000 0.000000 0.000000 0.000000 0.000000 0.023503
#
#
# Mechanical properties :
#
#
# Convention : Reuss Voigt Hill
#
# Bulk Modulus (GPa) = 39.69430 74.10935 56.90182
# Shear Modulus (GPa) = 37.62806 -4.46003 16.58402
#
# Velocity S-wave (km/s) = 3.87312 -1.33344 2.57128
# Velocity P-wave (km/s) = 5.98550 5.21288 5.61250
#
# Compressibility (1/GPa) = 0.02519254
#
# Stress axis : x y z
#
# Youngs Moduli (GPa) = 37.46007 124.97351 120.35992
#
# Poissons Ratio (x) = -0.16861 0.78913
# Poissons Ratio (y) = -0.05054 0.44522
# Poissons Ratio (z) = 0.24560 0.46229
#
# Static dielectric constant tensor:
#      x y z
#    x 2.044520 0.000000 0.000000 
#    y 0.000000 2.064750 0.000000 
#    z 0.000000 0.000000 2.123460 
# 
# From -- ./inp_files/23737.got.cif
#   From: 2010.05.17/outbox.cif.g08.bks.cpg/sg66_12_cif.got.tgz:23737.got - 2010.06.03 17:51:23.
