data_PCOD9498893
_publ_section_title
;
Structure prediction by ZEFSAII (Michael W. Deem and Ramdas Pophale) SiO2 
 PCOD9498893
Probable space group: C C C M
;
_chemical_formula_sum "Si O2"
_cell_formula_units_Z 52
_cell_length_a 19.298221
_cell_length_b 5.120934
_cell_length_c 23.191517
_cell_angle_alpha 90.000000
_cell_angle_beta 90.000000
_cell_angle_gamma 90.000000
_cell_volume 2291.899721
_symmetry_space_group_name_H-M "C C C M"
_symmetry_group_IT_number 66
_symmetry_cell_setting 'orthorhombic'
loop_
_space_group_symop_operation_xyz
x,y,z
-x,-y,z
x,-y,1/2-z
-x,y,1/2-z
-x,-y,-z
x,y,-z
-x,y,1/2+z
x,-y,1/2+z
1/2+x,1/2+y,z
1/2-x,1/2-y,z
1/2+x,1/2-y,1/2-z
1/2-x,1/2+y,1/2-z
1/2-x,1/2-y,-z
1/2+x,1/2+y,-z
1/2-x,1/2+y,1/2+z
1/2+x,1/2-y,1/2+z
loop_
_atom_site_type_symbol
_atom_site_label
_atom_site_fract_x
_atom_site_fract_y
_atom_site_fract_z
Si Si1 0.326694 0.145494 0.345166
Si Si2 0.922003 0.608686 0.934047
Si Si3 0.000000 0.500000 0.750000
Si Si4 0.105939 0.152268 0.820969
O O1 0.250000 0.250000 0.353029
O O2 0.367372 0.092437 0.405163
O O3 0.370138 0.360039 0.308783
O O4 0.331247 0.860206 0.316529
O O5 0.915371 0.844568 0.888721
O O6 0.000000 0.500000 0.931501
O O7 0.905611 0.671641 0.000000
O O8 0.955852 0.696859 0.789590
#
# Coordination Sequence:
#
# PCOD9498893 Si02
#       4
#    16  16   4  16
#     4  10  22  43  64  96 134 171 216 263 327 398
#     4   9  20  39  64  98 133 168 216 271 323 382
#     4  12  24  46  70  98 128 170 222 280 340 386
#     4  10  23  40  67  98 125 171 218 266 323 388
#
# _framework density 22.688601999999999
#
# number of rings (size 3 to 8) (size 9 to 14) (size 15 to 20)
#    1.846    0.308    1.538    0.923    0.000    9.231 
#    0.000    7.692    0.000    0.000    0.000    0.000 
#    0.000    0.000    0.000    0.000    0.000    0.000 
#
# Total GULP energy -145014.825977 kJ/mol
# GULP energy per Si atom -5577.493307 kJ/mol
# Density = 2.263696 g / cm^3
# Si number density = 22.688602 Si / 1000 Ang^3
#
#
#
# Elastic Constant Matrix: (Units=GPa)
#
#
# Indices 1 2 3 4 5 6 
#
# 1 113.4123 7.9144 36.6582 0.0000 0.0000 0.0000
# 2 7.9144 93.4616 37.9779 0.0000 0.0000 0.0000
# 3 36.6582 37.9779 113.3223 0.0000 0.0000 0.0000
# 4 0.0000 0.0000 0.0000 27.2445 0.0000 0.0000
# 5 0.0000 0.0000 0.0000 0.0000 -3.2809 0.0000
# 6 0.0000 0.0000 0.0000 0.0000 0.0000 29.5306
#
#
#
# Elastic Compliance Matrix: (Units=1/GPa)
#
#
# Indices 1 2 3 4 5 6 
#
# 1 0.009870 0.000534 -0.003372 0.000000 0.000000 0.000000
# 2 0.000534 0.012415 -0.004334 0.000000 0.000000 0.000000
# 3 -0.003372 -0.004334 0.011367 0.000000 0.000000 0.000000
# 4 0.000000 0.000000 0.000000 0.036705 0.000000 0.000000
# 5 0.000000 0.000000 0.000000 0.000000 -0.304795 0.000000
# 6 0.000000 0.000000 0.000000 0.000000 0.000000 0.033863
#
#
# Mechanical properties :
#
#
# Convention : Reuss Voigt Hill
#
# Bulk Modulus (GPa) = 51.78539 53.92192 52.85365
# Shear Modulus (GPa) = -27.80948 26.54188 -0.63380
#
# Velocity S-wave (km/s) = -3.50480 3.42399 -0.52911
# Velocity P-wave (km/s) = 2.54868 6.28087 4.79297
#
# Compressibility (1/GPa) = 0.01931047
#
# Stress axis : x y z
#
# Youngs Moduli (GPa) = 101.31724 80.54594 87.97026
#
# Poissons Ratio (x) = -0.04304 0.29663
# Poissons Ratio (y) = -0.05414 0.38123
# Poissons Ratio (z) = 0.34163 0.34905
#
# Static dielectric constant tensor:
#      x y z
#    x 1.845380 0.000000 0.000000 
#    y 0.000000 1.843620 0.000000 
#    z 0.000000 0.000000 1.898890 
# 
# From -- ./inp_files/57763.got.cif
#   From: 2010.05.17/outbox.cif.g08.bks.cpg/sg66_29_cif.got.tgz:57763.got - 2010.06.03 17:51:23.
