data_PCOD9498837
_publ_section_title
;
Structure prediction by ZEFSAII (Michael W. Deem and Ramdas Pophale) SiO2 
 PCOD9498837
Probable space group: C C C M
;
_chemical_formula_sum "Si O2"
_cell_formula_units_Z 56
_cell_length_a 30.829973
_cell_length_b 5.314928
_cell_length_c 14.955061
_cell_angle_alpha 90.000000
_cell_angle_beta 90.000000
_cell_angle_gamma 90.000000
_cell_volume 2450.522638
_symmetry_space_group_name_H-M "C C C M"
_symmetry_group_IT_number 66
_symmetry_cell_setting 'orthorhombic'
loop_
_space_group_symop_operation_xyz
x,y,z
-x,-y,z
x,-y,1/2-z
-x,y,1/2-z
-x,-y,-z
x,y,-z
-x,y,1/2+z
x,-y,1/2+z
1/2+x,1/2+y,z
1/2-x,1/2-y,z
1/2+x,1/2-y,1/2-z
1/2-x,1/2+y,1/2-z
1/2-x,1/2-y,-z
1/2+x,1/2+y,-z
1/2-x,1/2+y,1/2+z
1/2+x,1/2-y,1/2+z
loop_
_atom_site_type_symbol
_atom_site_label
_atom_site_fract_x
_atom_site_fract_y
_atom_site_fract_z
Si Si1 0.299770 0.842619 0.000000
Si Si2 0.330117 0.754413 0.196535
Si Si3 0.081012 0.067674 0.346128
Si Si4 0.121632 0.285151 0.000000
Si Si5 0.457950 0.833393 0.000000
O O1 0.250000 0.750000 0.000000
O O2 0.313820 0.739404 0.904078
O O3 0.328593 0.109764 0.000000
O O4 0.319746 0.500000 0.250000
O O5 0.381974 0.764672 0.184265
O O6 0.314531 0.000000 0.250000
O O7 0.044781 0.169571 0.411461
O O8 0.062143 0.000000 0.250000
O O9 0.108203 0.871821 0.410268
O O10 0.087644 0.515190 0.000000
O O11 0.500000 0.000000 0.000000
#
# Coordination Sequence:
#
# PCOD9498837 Si02
#       5
#     8  16  16   8   8
#     4  12  24  43  72 106 144 192 242 309 381 441
#     4  11  24  44  72 103 141 193 248 301 366 451
#     4  10  22  41  72  97 140 197 238 294 377 451
#     4  11  22  46  66  97 149 182 243 306 366 442
#     4  11  24  42  70 101 140 179 240 307 369 444
#
# _framework density 22.852269
#
# number of rings (size 3 to 8) (size 9 to 14) (size 15 to 20)
#    0.000    1.143    2.857    4.286    0.000    4.571 
#    0.000   14.286    0.000    0.000    0.000    0.000 
#    0.000    0.000    0.000    0.000    0.000    0.000 
#
# Total GULP energy -156079.877780 kJ/mol
# GULP energy per Si atom -5574.281349 kJ/mol
# Density = 2.280026 g / cm^3
# Si number density = 22.852269 Si / 1000 Ang^3
#
#
#
# Elastic Constant Matrix: (Units=GPa)
#
#
# Indices 1 2 3 4 5 6 
#
# 1 55.1245 62.9779 41.0962 0.0000 0.0000 0.0000
# 2 62.9779 117.3955 103.1792 0.0000 0.0000 0.0000
# 3 41.0962 103.1792 281.1068 0.0000 0.0000 0.0000
# 4 0.0000 0.0000 0.0000 31.0864 0.0000 0.0000
# 5 0.0000 0.0000 0.0000 0.0000 -5.3996 0.0000
# 6 0.0000 0.0000 0.0000 0.0000 0.0000 14.4708
#
#
#
# Elastic Compliance Matrix: (Units=1/GPa)
#
#
# Indices 1 2 3 4 5 6 
#
# 1 0.049329 -0.029708 0.003693 0.000000 0.000000 0.000000
# 2 -0.029708 0.030467 -0.006840 0.000000 0.000000 0.000000
# 3 0.003693 -0.006840 0.005528 0.000000 0.000000 0.000000
# 4 0.000000 0.000000 0.000000 0.032168 0.000000 0.000000
# 5 0.000000 0.000000 0.000000 0.000000 -0.185199 0.000000
# 6 0.000000 0.000000 0.000000 0.000000 0.000000 0.069104
#
#
# Mechanical properties :
#
#
# Convention : Reuss Voigt Hill
#
# Bulk Modulus (GPa) = 50.98637 96.45927 73.72282
# Shear Modulus (GPa) = 67.89262 24.45643 46.17452
#
# Velocity S-wave (km/s) = 5.45654 3.27494 4.49995
# Velocity P-wave (km/s) = 7.87770 7.52342 7.70260
#
# Compressibility (1/GPa) = 0.01961309
#
# Stress axis : x y z
#
# Youngs Moduli (GPa) = 20.27222 32.82252 180.89931
#
# Poissons Ratio (x) = 0.97510 -0.66803
# Poissons Ratio (y) = 0.60226 1.23727
# Poissons Ratio (z) = -0.07486 0.22449
#
# Static dielectric constant tensor:
#      x y z
#    x 1.596290 0.000000 0.000000 
#    y 0.000000 1.975730 0.000000 
#    z 0.000000 0.000000 1.725290 
# 
# From -- ./inp_files/33559.got.cif
#   From: 2010.05.17/outbox.cif.g08.bks.cpg/sg66_17_cif.got.tgz:33559.got - 2010.06.03 17:51:23.
