data_PCOD9498427
_publ_section_title
;
Structure prediction by ZEFSAII (Michael W. Deem and Ramdas Pophale) SiO2 
 PCOD9498427
Probable space group: C C C M
;
_chemical_formula_sum "Si O2"
_cell_formula_units_Z 80
_cell_length_a 28.710950
_cell_length_b 7.417767
_cell_length_c 16.437472
_cell_angle_alpha 90.000000
_cell_angle_beta 90.000000
_cell_angle_gamma 90.000000
_cell_volume 3500.707109
_symmetry_space_group_name_H-M "C C C M"
_symmetry_group_IT_number 66
_symmetry_cell_setting 'orthorhombic'
loop_
_space_group_symop_operation_xyz
x,y,z
-x,-y,z
x,-y,1/2-z
-x,y,1/2-z
-x,-y,-z
x,y,-z
-x,y,1/2+z
x,-y,1/2+z
1/2+x,1/2+y,z
1/2-x,1/2-y,z
1/2+x,1/2-y,1/2-z
1/2-x,1/2+y,1/2-z
1/2-x,1/2-y,-z
1/2+x,1/2+y,-z
1/2-x,1/2+y,1/2+z
1/2+x,1/2-y,1/2+z
loop_
_atom_site_type_symbol
_atom_site_label
_atom_site_fract_x
_atom_site_fract_y
_atom_site_fract_z
Si Si1 0.389112 0.831428 0.591329
Si Si2 0.867321 0.717939 0.640672
Si Si3 0.682317 0.437383 0.344744
Si Si4 0.223376 0.561200 0.092747
Si Si5 0.551344 0.784575 0.235021
O O1 0.389577 0.769038 0.500000
O O2 0.343487 0.748616 0.635505
O O3 0.432103 0.758175 0.643337
O O4 0.390895 0.050340 0.593545
O O5 0.817833 0.614723 0.655473
O O6 0.905608 0.772412 0.707743
O O7 0.847849 0.907734 0.608124
O O8 0.681440 0.500000 0.250000
O O9 0.735327 0.437398 0.374385
O O10 0.250000 0.750000 0.083269
O O11 0.206849 0.510243 0.000000
O O12 0.500000 0.710787 0.250000
O O13 0.549487 0.000000 0.250000
#
# Coordination Sequence:
#
# PCOD9498427 Si02
#       5
#    16  16  16  16  16
#     4  11  23  39  64  94 123 158 212 269 316 372
#     4  10  21  41  62  86 125 169 210 251 318 380
#     4  11  22  38  61  92 125 171 211 255 315 382
#     4   9  19  36  57  85 124 164 206 257 307 365
#     4   9  19  39  65  91 122 165 212 260 320 382
#
# _framework density 22.852523999999999
#
# number of rings (size 3 to 8) (size 9 to 14) (size 15 to 20)
#    0.000    2.000    2.000    1.200    0.000    5.600 
#    3.600   13.000    0.000    1.200    0.000    0.000 
#    0.000    0.000    0.000    0.000    0.000    0.000 
#
# Total GULP energy -222710.851180 kJ/mol
# GULP energy per Si atom -5567.771279 kJ/mol
# Density = 2.280051 g / cm^3
# Si number density = 22.852524 Si / 1000 Ang^3
#
#
#
# Elastic Constant Matrix: (Units=GPa)
#
#
# Indices 1 2 3 4 5 6 
#
# 1 158.8456 6.8149 58.0531 0.0000 0.0000 0.0000
# 2 6.8149 109.5166 6.7828 0.0000 0.0000 0.0000
# 3 58.0531 6.7828 126.2338 0.0000 0.0000 0.0000
# 4 0.0000 0.0000 0.0000 10.5835 0.0000 0.0000
# 5 0.0000 0.0000 0.0000 0.0000 17.1651 0.0000
# 6 0.0000 0.0000 0.0000 0.0000 0.0000 14.1412
#
#
#
# Elastic Compliance Matrix: (Units=1/GPa)
#
#
# Indices 1 2 3 4 5 6 
#
# 1 0.007574 -0.000256 -0.003470 0.000000 0.000000 0.000000
# 2 -0.000256 0.009170 -0.000375 0.000000 0.000000 0.000000
# 3 -0.003470 -0.000375 0.009538 0.000000 0.000000 0.000000
# 4 0.000000 0.000000 0.000000 0.094487 0.000000 0.000000
# 5 0.000000 0.000000 0.000000 0.000000 0.058258 0.000000
# 6 0.000000 0.000000 0.000000 0.000000 0.000000 0.070716
#
#
# Mechanical properties :
#
#
# Convention : Reuss Voigt Hill
#
# Bulk Modulus (GPa) = 55.30811 59.76640 57.53725
# Shear Modulus (GPa) = 18.94148 29.90762 24.42455
#
# Velocity S-wave (km/s) = 2.88211 3.62155 3.27278
# Velocity P-wave (km/s) = 5.94392 6.61040 6.28600
#
# Compressibility (1/GPa) = 0.01808053
#
# Stress axis : x y z
#
# Youngs Moduli (GPa) = 132.02264 109.04882 104.84855
#
# Poissons Ratio (x) = 0.02797 0.36378
# Poissons Ratio (y) = 0.03386 0.03930
# Poissons Ratio (z) = 0.45807 0.04087
#
# Static dielectric constant tensor:
#      x y z
#    x 1.881280 0.000000 0.000000 
#    y 0.000000 1.915790 0.000000 
#    z 0.000000 0.000000 1.880500 
# 
# From -- ./inp_files/44114.got.cif
#   From: 2010.05.17/outbox.cif.g08.bks.cpg/sg66_23_cif.got.tgz:44114.got - 2010.06.03 17:51:23.
