data_PCOD9498948
_publ_section_title
;
Structure prediction by ZEFSAII (Michael W. Deem and Ramdas Pophale) SiO2 
 PCOD9498948
Probable space group: C C C M
;
_chemical_formula_sum "Si O2"
_cell_formula_units_Z 64
_cell_length_a 16.403724
_cell_length_b 11.961884
_cell_length_c 13.905770
_cell_angle_alpha 90.000000
_cell_angle_beta 90.000000
_cell_angle_gamma 90.000000
_cell_volume 2728.582453
_symmetry_space_group_name_H-M "C C C M"
_symmetry_group_IT_number 66
_symmetry_cell_setting 'orthorhombic'
loop_
_space_group_symop_operation_xyz
x,y,z
-x,-y,z
x,-y,1/2-z
-x,y,1/2-z
-x,-y,-z
x,y,-z
-x,y,1/2+z
x,-y,1/2+z
1/2+x,1/2+y,z
1/2-x,1/2-y,z
1/2+x,1/2-y,1/2-z
1/2-x,1/2+y,1/2-z
1/2-x,1/2-y,-z
1/2+x,1/2+y,-z
1/2-x,1/2+y,1/2+z
1/2+x,1/2-y,1/2+z
loop_
_atom_site_type_symbol
_atom_site_label
_atom_site_fract_x
_atom_site_fract_y
_atom_site_fract_z
Si Si1 0.860048 0.187362 0.885539
Si Si2 0.203034 0.053234 0.115111
Si Si3 0.547097 0.697592 0.885988
Si Si4 0.638774 0.873901 0.228011
O O1 0.845127 0.295609 0.820515
O O2 0.955452 0.157982 0.868225
O O3 0.807549 0.077677 0.861598
O O4 0.850098 0.210613 0.000000
O O5 0.118414 0.112489 0.142474
O O6 0.279103 0.112090 0.165102
O O7 0.212292 0.062130 0.000000
O O8 0.569536 0.811274 0.832663
O O9 0.553819 0.714426 0.000000
O O10 0.613692 0.000000 0.250000
#
# Coordination Sequence:
#
# PCOD9498948 Si02
#       4
#    16  16  16  16
#     4  10  24  46  72 103 139 186 238 294 352 412
#     4  10  23  44  73 104 137 181 238 298 355 414
#     4  10  22  44  73 102 137 183 239 296 351 411
#     4  12  27  41  66 103 146 188 233 284 351 426
#
# _framework density 23.455401999999999
#
# number of rings (size 3 to 8) (size 9 to 14) (size 15 to 20)
#    0.000    1.500    0.000    3.000    7.000    9.000 
#    0.000    7.500    0.000    0.000    0.000    0.000 
#    0.000    2.000    0.000    0.000    0.000    0.000 
#
# Total GULP energy -179398.463107 kJ/mol
# GULP energy per Si atom -5606.201972 kJ/mol
# Density = 2.340202 g / cm^3
# Si number density = 23.455402 Si / 1000 Ang^3
#
#
#
# Elastic Constant Matrix: (Units=GPa)
#
#
# Indices 1 2 3 4 5 6 
#
# 1 85.4594 -13.1013 13.8205 0.0000 0.0000 0.0000
# 2 -13.1013 84.4462 17.7372 0.0000 0.0000 0.0000
# 3 13.8205 17.7372 72.7208 0.0000 0.0000 0.0000
# 4 0.0000 0.0000 0.0000 56.0592 0.0000 0.0000
# 5 0.0000 0.0000 0.0000 0.0000 43.7738 0.0000
# 6 0.0000 0.0000 0.0000 0.0000 0.0000 38.0481
#
#
#
# Elastic Compliance Matrix: (Units=1/GPa)
#
#
# Indices 1 2 3 4 5 6 
#
# 1 0.012587 0.002588 -0.003023 0.000000 0.000000 0.000000
# 2 0.002588 0.013013 -0.003666 0.000000 0.000000 0.000000
# 3 -0.003023 -0.003666 0.015220 0.000000 0.000000 0.000000
# 4 0.000000 0.000000 0.000000 0.017838 0.000000 0.000000
# 5 0.000000 0.000000 0.000000 0.000000 0.022845 0.000000
# 6 0.000000 0.000000 0.000000 0.000000 0.000000 0.026283
#
#
# Mechanical properties :
#
#
# Convention : Reuss Voigt Hill
#
# Bulk Modulus (GPa) = 30.65829 31.05993 30.85911
# Shear Modulus (GPa) = 39.41312 42.52088 40.96700
#
# Velocity S-wave (km/s) = 4.10365 4.26236 4.18376
# Velocity P-wave (km/s) = 5.96259 6.12328 6.04347
#
# Compressibility (1/GPa) = 0.03261760
#
# Stress axis : x y z
#
# Youngs Moduli (GPa) = 79.44625 76.84426 65.70324
#
# Poissons Ratio (x) = -0.19886 0.19865
# Poissons Ratio (y) = -0.20559 0.24086
# Poissons Ratio (z) = 0.24020 0.28170
#
# Static dielectric constant tensor:
#      x y z
#    x 1.886160 0.000000 0.000000 
#    y 0.000000 1.839440 0.000000 
#    z 0.000000 0.000000 1.899720 
# 
# From -- ./inp_files/25793.got.cif
#   From: 2010.05.17/outbox.cif.g08.bks.cpg/sg66_13_cif.got.tgz:25793.got - 2010.06.03 17:51:23.
