data_PCOD9498028
_publ_section_title
;
Structure prediction by ZEFSAII (Michael W. Deem and Ramdas Pophale) SiO2 
 PCOD9498028
Probable space group: C C C M
;
_chemical_formula_sum "Si O2"
_cell_formula_units_Z 52
_cell_length_a 8.816119
_cell_length_b 18.290547
_cell_length_c 15.348797
_cell_angle_alpha 90.000000
_cell_angle_beta 90.000000
_cell_angle_gamma 90.000000
_cell_volume 2475.018672
_symmetry_space_group_name_H-M "C C C M"
_symmetry_group_IT_number 66
_symmetry_cell_setting 'orthorhombic'
loop_
_space_group_symop_operation_xyz
x,y,z
-x,-y,z
x,-y,1/2-z
-x,y,1/2-z
-x,-y,-z
x,y,-z
-x,y,1/2+z
x,-y,1/2+z
1/2+x,1/2+y,z
1/2-x,1/2-y,z
1/2+x,1/2-y,1/2-z
1/2-x,1/2+y,1/2-z
1/2-x,1/2-y,-z
1/2+x,1/2+y,-z
1/2-x,1/2+y,1/2+z
1/2+x,1/2-y,1/2+z
loop_
_atom_site_type_symbol
_atom_site_label
_atom_site_fract_x
_atom_site_fract_y
_atom_site_fract_z
Si Si1 0.500000 0.000000 0.750000
Si Si2 0.162797 0.364361 0.166575
Si Si3 0.701810 0.572948 0.500000
Si Si4 0.672293 0.822911 0.641999
Si Si5 0.345451 0.598970 0.500000
O O1 0.398591 0.054226 0.808698
O O2 0.224700 0.335015 0.258308
O O3 0.010068 0.319974 0.143062
O O4 0.277515 0.365376 0.087066
O O5 0.780716 0.608414 0.583818
O O6 0.526405 0.597292 0.500000
O O7 0.707693 0.485779 0.500000
O O8 0.750000 0.750000 0.607434
#
# Coordination Sequence:
#
# PCOD9498028 Si02
#       5
#     4  16   8  16   8
#     4   8  16  34  60  86 104 146 200 242 288 332
#     4  10  21  37  63  85 114 153 197 243 287 353
#     4  11  24  38  60  86 122 151 188 248 294 345
#     4  10  22  41  60  85 115 155 196 238 288 344
#     4  11  23  38  57  92 118 151 192 237 304 343
#
# _framework density 21.009941999999999
#
# number of rings (size 3 to 8) (size 9 to 14) (size 15 to 20)
#    0.000    2.154    0.000    5.077    0.000    8.000 
#    0.000    5.385    0.000    0.000    0.000    0.000 
#    0.000    0.000    0.000    0.000    0.000    0.000 
#
# Total GULP energy -145344.321181 kJ/mol
# GULP energy per Si atom -5590.166199 kJ/mol
# Density = 2.096212 g / cm^3
# Si number density = 21.009942 Si / 1000 Ang^3
#
#
#
# Elastic Constant Matrix: (Units=GPa)
#
#
# Indices 1 2 3 4 5 6 
#
# 1 35.0987 1.9848 42.1064 0.0000 0.0000 0.0000
# 2 1.9848 47.6999 -3.2874 0.0000 0.0000 0.0000
# 3 42.1064 -3.2874 134.6711 0.0000 0.0000 0.0000
# 4 0.0000 0.0000 0.0000 -36.9429 0.0000 0.0000
# 5 0.0000 0.0000 0.0000 0.0000 69.6790 0.0000
# 6 0.0000 0.0000 0.0000 0.0000 0.0000 28.1817
#
#
#
# Elastic Compliance Matrix: (Units=1/GPa)
#
#
# Indices 1 2 3 4 5 6 
#
# 1 0.045992 -0.002910 -0.014451 0.000000 0.000000 0.000000
# 2 -0.002910 0.021184 0.001427 0.000000 0.000000 0.000000
# 3 -0.014451 0.001427 0.011979 0.000000 0.000000 0.000000
# 4 0.000000 0.000000 0.000000 -0.027069 0.000000 0.000000
# 5 0.000000 0.000000 0.000000 0.000000 0.014352 0.000000
# 6 0.000000 0.000000 0.000000 0.000000 0.000000 0.035484
#
#
# Mechanical properties :
#
#
# Convention : Reuss Voigt Hill
#
# Bulk Modulus (GPa) = 21.14760 33.23081 27.18920
# Shear Modulus (GPa) = 33.43359 23.96129 28.69744
#
# Velocity S-wave (km/s) = 3.99347 3.38075 3.69982
# Velocity P-wave (km/s) = 5.59920 5.57587 5.58755
#
# Compressibility (1/GPa) = 0.04728669
#
# Stress axis : x y z
#
# Youngs Moduli (GPa) = 21.74310 47.20581 83.48272
#
# Poissons Ratio (x) = 0.13735 1.20639
# Poissons Ratio (y) = 0.06327 -0.11912
# Poissons Ratio (z) = 0.31421 -0.06736
#
# Static dielectric constant tensor:
#      x y z
#    x 1.711720 0.000000 0.000000 
#    y 0.000000 1.758280 0.000000 
#    z 0.000000 0.000000 1.741990 
# 
# From -- ./inp_files/23774.got.cif
#   From: 2010.05.17/outbox.cif.g08.bks.cpg/sg66_12_cif.got.tgz:23774.got - 2010.06.03 17:51:23.
