data_PCOD9498566
_publ_section_title
;
Structure prediction by ZEFSAII (Michael W. Deem and Ramdas Pophale) SiO2 
 PCOD9498566
Probable space group: C C C M
;
_chemical_formula_sum "Si O2"
_cell_formula_units_Z 80
_cell_length_a 23.592518
_cell_length_b 11.822588
_cell_length_c 13.430944
_cell_angle_alpha 90.000000
_cell_angle_beta 90.000000
_cell_angle_gamma 90.000000
_cell_volume 3746.220954
_symmetry_space_group_name_H-M "C C C M"
_symmetry_group_IT_number 66
_symmetry_cell_setting 'orthorhombic'
loop_
_space_group_symop_operation_xyz
x,y,z
-x,-y,z
x,-y,1/2-z
-x,y,1/2-z
-x,-y,-z
x,y,-z
-x,y,1/2+z
x,-y,1/2+z
1/2+x,1/2+y,z
1/2-x,1/2-y,z
1/2+x,1/2-y,1/2-z
1/2-x,1/2+y,1/2-z
1/2-x,1/2-y,-z
1/2+x,1/2+y,-z
1/2-x,1/2+y,1/2+z
1/2+x,1/2-y,1/2+z
loop_
_atom_site_type_symbol
_atom_site_label
_atom_site_fract_x
_atom_site_fract_y
_atom_site_fract_z
Si Si1 0.157383 0.688332 0.380134
Si Si2 0.980359 0.870582 0.112062
Si Si3 0.225954 0.919623 0.620157
Si Si4 0.083707 0.771255 0.774117
Si Si5 0.197789 0.828069 0.119371
O O1 0.146181 0.681314 0.500000
O O2 0.186131 0.811803 0.357359
O O3 0.208576 0.603898 0.353938
O O4 0.103593 0.675364 0.306299
O O5 0.028670 0.784553 0.154038
O O6 0.930775 0.867419 0.192657
O O7 0.963460 0.839319 0.000000
O O8 0.000000 0.000000 0.109294
O O9 0.225380 0.921651 0.500000
O O10 0.206600 0.043135 0.652599
O O11 0.137552 0.786316 0.843080
O O12 0.250000 0.750000 0.152971
O O13 0.197665 0.825799 0.000000
#
# Coordination Sequence:
#
# PCOD9498566 Si02
#       5
#    16  16  16  16  16
#     4   9  18  32  52  81 109 143 186 228 273 324
#     4  10  23  39  53  77 110 146 192 242 288 335
#     4   8  17  33  51  74 112 150 182 223 272 326
#     4  11  21  34  55  82 106 151 192 228 279 342
#     4  10  22  37  54  82 120 157 188 224 277 337
#
# _framework density 21.354855000000001
#
# number of rings (size 3 to 8) (size 9 to 14) (size 15 to 20)
#    0.000    2.400    0.000    3.600    8.400    0.000 
#    0.000    0.000    0.000    0.000    0.000   11.200 
#    0.000   32.000    0.000    0.000    0.000    0.000 
#
# Total GULP energy -222862.898998 kJ/mol
# GULP energy per Si atom -5571.572475 kJ/mol
# Density = 2.130625 g / cm^3
# Si number density = 21.354855 Si / 1000 Ang^3
#
#
#
# Elastic Constant Matrix: (Units=GPa)
#
#
# Indices 1 2 3 4 5 6 
#
# 1 82.0744 4.0479 11.8275 0.0000 0.0000 0.0000
# 2 4.0479 8.2607 3.8360 0.0000 0.0000 0.0000
# 3 11.8275 3.8360 104.3638 0.0000 0.0000 0.0000
# 4 0.0000 0.0000 0.0000 11.5607 0.0000 0.0000
# 5 0.0000 0.0000 0.0000 0.0000 23.9179 0.0000
# 6 0.0000 0.0000 0.0000 0.0000 0.0000 20.3539
#
#
#
# Elastic Compliance Matrix: (Units=1/GPa)
#
#
# Indices 1 2 3 4 5 6 
#
# 1 0.012638 -0.005624 -0.001226 0.000000 0.000000 0.000000
# 2 -0.005624 0.125660 -0.003981 0.000000 0.000000 0.000000
# 3 -0.001226 -0.003981 0.009867 0.000000 0.000000 0.000000
# 4 0.000000 0.000000 0.000000 0.086500 0.000000 0.000000
# 5 0.000000 0.000000 0.000000 0.000000 0.041810 0.000000
# 6 0.000000 0.000000 0.000000 0.000000 0.000000 0.049131
#
#
# Mechanical properties :
#
#
# Convention : Reuss Voigt Hill
#
# Bulk Modulus (GPa) = 7.90493 26.01353 16.95923
# Shear Modulus (GPa) = 12.83913 22.83233 17.83573
#
# Velocity S-wave (km/s) = 2.45465 3.27339 2.89313
# Velocity P-wave (km/s) = 3.42688 5.14731 4.37254
#
# Compressibility (1/GPa) = 0.12650340
#
# Stress axis : x y z
#
# Youngs Moduli (GPa) = 79.12621 7.95800 101.34688
#
# Poissons Ratio (x) = 0.04475 0.12421
# Poissons Ratio (y) = 0.44499 0.40350
# Poissons Ratio (z) = 0.09697 0.03168
#
# Static dielectric constant tensor:
#      x y z
#    x 1.824680 0.000000 0.000000 
#    y 0.000000 1.773450 0.000000 
#    z 0.000000 0.000000 1.845920 
# 
# From -- ./inp_files/32087.got.cif
#   From: 2010.05.17/outbox.cif.g08.bks.cpg/sg66_17_cif.got.tgz:32087.got - 2010.06.03 17:51:23.
