data_PCOD9498958
_publ_section_title
;
Structure prediction by ZEFSAII (Michael W. Deem and Ramdas Pophale) SiO2 
 PCOD9498958
Probable space group: C C C M
;
_chemical_formula_sum "Si O2"
_cell_formula_units_Z 116
_cell_length_a 25.915182
_cell_length_b 8.200676
_cell_length_c 27.221450
_cell_angle_alpha 90.000000
_cell_angle_beta 90.000000
_cell_angle_gamma 90.000000
_cell_volume 5785.157298
_symmetry_space_group_name_H-M "C C C M"
_symmetry_group_IT_number 66
_symmetry_cell_setting 'orthorhombic'
loop_
_space_group_symop_operation_xyz
x,y,z
-x,-y,z
x,-y,1/2-z
-x,y,1/2-z
-x,-y,-z
x,y,-z
-x,y,1/2+z
x,-y,1/2+z
1/2+x,1/2+y,z
1/2-x,1/2-y,z
1/2+x,1/2-y,1/2-z
1/2-x,1/2+y,1/2-z
1/2-x,1/2-y,-z
1/2+x,1/2+y,-z
1/2-x,1/2+y,1/2+z
1/2+x,1/2-y,1/2+z
loop_
_atom_site_type_symbol
_atom_site_label
_atom_site_fract_x
_atom_site_fract_y
_atom_site_fract_z
Si Si1 0.750000 0.250000 0.000000
Si Si2 0.800104 0.358635 0.152634
Si Si3 0.862867 0.938375 0.611001
Si Si4 0.578647 0.600859 0.797306
Si Si5 0.110004 0.345327 0.275521
Si Si6 0.961074 0.151814 0.945474
Si Si7 0.742540 0.562086 0.923066
Si Si8 0.013846 0.311800 0.656265
O O1 0.749138 0.400671 0.957993
O O2 0.750000 0.250000 0.166151
O O3 0.836099 0.236148 0.120949
O O4 0.837288 0.394853 0.198153
O O5 0.780580 0.514279 0.122130
O O6 0.904753 0.915474 0.568477
O O7 0.891092 0.009468 0.659298
O O8 0.816398 0.053893 0.595128
O O9 0.559123 0.500000 0.750000
O O10 0.618047 0.718785 0.768359
O O11 0.531251 0.699117 0.821380
O O12 0.084823 0.500000 0.250000
O O13 0.066951 0.287249 0.314191
O O14 0.977189 0.266248 0.900485
O O15 0.961354 0.225804 0.000000
O O16 0.000000 0.000000 0.945118
O O17 0.750000 0.750000 0.940745
O O18 0.000000 0.500000 0.660203
#
# Coordination Sequence:
#
# PCOD9498958 Si02
#       8
#     4  16  16  16  16  16  16  16
#     4  12  22  48  76 106 138 174 242 296 364 418
#     4  10  22  47  66  95 142 182 225 288 350 416
#     4  11  22  44  69  98 135 182 232 293 350 420
#     4  12  24  40  68  98 134 182 239 278 350 426
#     4  12  25  41  64 101 138 186 233 286 358 418
#     4  11  24  43  70  96 131 184 229 281 354 422
#     4  11  26  45  75 105 142 183 234 300 360 417
#     4  12  25  42  65 100 142 175 233 303 346 418
#
# _framework density 20.051311999999999
#
# number of rings (size 3 to 8) (size 9 to 14) (size 15 to 20)
#    0.000    0.690    7.586    0.621    2.897    1.931 
#    4.966    0.000    0.000    0.000    0.000    0.000 
#    0.000    0.000    0.000    0.000    0.000    0.000 
#
# Total GULP energy -322954.185504 kJ/mol
# GULP energy per Si atom -5568.175612 kJ/mol
# Density = 2.000567 g / cm^3
# Si number density = 20.051312 Si / 1000 Ang^3
#
#
#
# Elastic Constant Matrix: (Units=GPa)
#
#
# Indices 1 2 3 4 5 6 
#
# 1 122.8563 39.1980 53.6841 0.0000 0.0000 0.0000
# 2 39.1980 128.5579 54.7925 0.0000 0.0000 0.0000
# 3 53.6841 54.7925 144.4016 0.0000 0.0000 0.0000
# 4 0.0000 0.0000 0.0000 -8.5291 0.0000 0.0000
# 5 0.0000 0.0000 0.0000 0.0000 -47.9206 0.0000
# 6 0.0000 0.0000 0.0000 0.0000 0.0000 20.5828
#
#
#
# Elastic Compliance Matrix: (Units=1/GPa)
#
#
# Indices 1 2 3 4 5 6 
#
# 1 0.010039 -0.001754 -0.003067 0.000000 0.000000 0.000000
# 2 -0.001754 0.009586 -0.002985 0.000000 0.000000 0.000000
# 3 -0.003067 -0.002985 0.009198 0.000000 0.000000 0.000000
# 4 0.000000 0.000000 0.000000 -0.117246 0.000000 0.000000
# 5 0.000000 0.000000 0.000000 0.000000 -0.020868 0.000000
# 6 0.000000 0.000000 0.000000 0.000000 0.000000 0.048584
#
#
# Mechanical properties :
#
#
# Convention : Reuss Voigt Hill
#
# Bulk Modulus (GPa) = 75.69364 76.79611 76.24488
# Shear Modulus (GPa) = -122.87613 9.36938 -56.75338
#
# Velocity S-wave (km/s) = -7.83670 2.16399 -5.32593
# Velocity P-wave (km/s) = 6.63726 6.68032 0.53548
#
# Compressibility (1/GPa) = 0.01321115
#
# Stress axis : x y z
#
# Youngs Moduli (GPa) = 99.60883 104.32217 108.71955
#
# Poissons Ratio (x) = 0.18298 0.33342
# Poissons Ratio (y) = 0.17471 0.32455
# Poissons Ratio (z) = 0.30548 0.31142
#
# Static dielectric constant tensor:
#      x y z
#    x 1.699570 0.000000 0.000000 
#    y 0.000000 1.806200 0.000000 
#    z 0.000000 0.000000 1.734120 
# 
# From -- ./inp_files/66125.got.cif
#   From: 2010.05.17/outbox.cif.g08.bks.cpg/sg66_34_cif.got.tgz:66125.got - 2010.06.03 17:51:23.
