data_PCOD9498743
_publ_section_title
;
Structure prediction by ZEFSAII (Michael W. Deem and Ramdas Pophale) SiO2 
 PCOD9498743
Probable space group: C C C M
;
_chemical_formula_sum "Si O2"
_cell_formula_units_Z 96
_cell_length_a 14.421992
_cell_length_b 20.433289
_cell_length_c 14.813832
_cell_angle_alpha 90.000000
_cell_angle_beta 90.000000
_cell_angle_gamma 90.000000
_cell_volume 4365.469346
_symmetry_space_group_name_H-M "C C C M"
_symmetry_group_IT_number 66
_symmetry_cell_setting 'orthorhombic'
loop_
_space_group_symop_operation_xyz
x,y,z
-x,-y,z
x,-y,1/2-z
-x,y,1/2-z
-x,-y,-z
x,y,-z
-x,y,1/2+z
x,-y,1/2+z
1/2+x,1/2+y,z
1/2-x,1/2-y,z
1/2+x,1/2-y,1/2-z
1/2-x,1/2+y,1/2-z
1/2-x,1/2-y,-z
1/2+x,1/2+y,-z
1/2-x,1/2+y,1/2+z
1/2+x,1/2-y,1/2+z
loop_
_atom_site_type_symbol
_atom_site_label
_atom_site_fract_x
_atom_site_fract_y
_atom_site_fract_z
Si Si1 0.425108 0.347958 0.824115
Si Si2 0.801787 0.516599 0.891540
Si Si3 0.098035 0.015403 0.101928
Si Si4 0.716904 0.146998 0.275486
Si Si5 0.069079 0.708382 0.394432
Si Si6 0.394788 0.117405 0.394191
O O1 0.500000 0.368141 0.750000
O O2 0.402297 0.405934 0.894118
O O3 0.325490 0.340202 0.777151
O O4 0.462069 0.281659 0.869641
O O5 0.698068 0.490254 0.865512
O O6 0.810004 0.578443 0.826067
O O7 0.879820 0.460880 0.881524
O O8 0.798982 0.534070 0.000000
O O9 0.092940 0.989910 0.000000
O O10 0.000000 0.000000 0.147126
O O11 0.660184 0.197184 0.336302
O O12 0.677739 0.147839 0.174991
O O13 0.089535 0.703996 0.500000
O O14 0.992887 0.652162 0.373536
O O15 0.375731 0.129844 0.500000
#
# Coordination Sequence:
#
# PCOD9498743 Si02
#       6
#    16  16  16  16  16  16
#     4  11  24  39  60  93 127 164 211 263 313 380
#     4   9  19  36  60  94 129 162 210 262 315 374
#     4   9  19  36  60  87 121 163 205 258 315 372
#     4  11  22  39  65  93 127 167 213 263 317 377
#     4  11  24  43  66  90 123 167 216 269 321 379
#     4  10  22  40  63  92 130 169 210 261 320 389
#
# _framework density 21.990760999999999
#
# number of rings (size 3 to 8) (size 9 to 14) (size 15 to 20)
#    0.000    1.833    0.000    3.500    2.333    3.667 
#    0.000    5.000    0.000    4.000    0.000    0.000 
#    0.000    0.000    0.000    0.000    0.000    0.000 
#
# Total GULP energy -267766.202020 kJ/mol
# GULP energy per Si atom -5578.462542 kJ/mol
# Density = 2.194071 g / cm^3
# Si number density = 21.990761 Si / 1000 Ang^3
#
#
#
# Elastic Constant Matrix: (Units=GPa)
#
#
# Indices 1 2 3 4 5 6 
#
# 1 107.5913 39.5131 42.1081 0.0000 0.0000 0.0000
# 2 39.5131 67.0358 9.7460 0.0000 0.0000 0.0000
# 3 42.1081 9.7460 84.8494 0.0000 0.0000 0.0000
# 4 0.0000 0.0000 0.0000 25.3334 0.0000 0.0000
# 5 0.0000 0.0000 0.0000 0.0000 -101.6146 0.0000
# 6 0.0000 0.0000 0.0000 0.0000 0.0000 32.0913
#
#
#
# Elastic Compliance Matrix: (Units=1/GPa)
#
#
# Indices 1 2 3 4 5 6 
#
# 1 0.014609 -0.007685 -0.006367 0.000000 0.000000 0.000000
# 2 -0.007685 0.019214 0.001607 0.000000 0.000000 0.000000
# 3 -0.006367 0.001607 0.014761 0.000000 0.000000 0.000000
# 4 0.000000 0.000000 0.000000 0.039474 0.000000 0.000000
# 5 0.000000 0.000000 0.000000 0.000000 -0.009841 0.000000
# 6 0.000000 0.000000 0.000000 0.000000 0.000000 0.031161
#
#
# Mechanical properties :
#
#
# Convention : Reuss Voigt Hill
#
# Bulk Modulus (GPa) = 42.20732 49.13455 45.67093
# Shear Modulus (GPa) = 35.17043 2.36931 18.76987
#
# Velocity S-wave (km/s) = 4.00350 1.03911 2.92470
# Velocity P-wave (km/s) = 6.37225 4.88175 5.67613
#
# Compressibility (1/GPa) = 0.02369257
#
# Stress axis : x y z
#
# Youngs Moduli (GPa) = 68.45219 52.04631 67.74694
#
# Poissons Ratio (x) = 0.39999 0.43135
# Poissons Ratio (y) = 0.52607 -0.10887
# Poissons Ratio (z) = 0.43584 -0.08364
#
# Static dielectric constant tensor:
#      x y z
#    x 1.808340 0.000000 0.000000 
#    y 0.000000 1.861800 0.000000 
#    z 0.000000 0.000000 1.802500 
# 
# From -- ./inp_files/28303.got.cif
#   From: 2010.05.17/outbox.cif.g08.bks.cpg/sg66_15_cif.got.tgz:28303.got - 2010.06.03 17:51:23.
