data_PCOD9498906
_publ_section_title
;
Structure prediction by ZEFSAII (Michael W. Deem and Ramdas Pophale) SiO2 
 PCOD9498906
Probable space group: C C C M
;
_chemical_formula_sum "Si O2"
_cell_formula_units_Z 64
_cell_length_a 10.820869
_cell_length_b 9.494505
_cell_length_c 26.784914
_cell_angle_alpha 90.000000
_cell_angle_beta 90.000000
_cell_angle_gamma 90.000000
_cell_volume 2751.849784
_symmetry_space_group_name_H-M "C C C M"
_symmetry_group_IT_number 66
_symmetry_cell_setting 'orthorhombic'
loop_
_space_group_symop_operation_xyz
x,y,z
-x,-y,z
x,-y,1/2-z
-x,y,1/2-z
-x,-y,-z
x,y,-z
-x,y,1/2+z
x,-y,1/2+z
1/2+x,1/2+y,z
1/2-x,1/2-y,z
1/2+x,1/2-y,1/2-z
1/2-x,1/2+y,1/2-z
1/2-x,1/2-y,-z
1/2+x,1/2+y,-z
1/2-x,1/2+y,1/2+z
1/2+x,1/2-y,1/2+z
loop_
_atom_site_type_symbol
_atom_site_label
_atom_site_fract_x
_atom_site_fract_y
_atom_site_fract_z
Si Si1 0.040727 0.756342 0.644977
Si Si2 0.156916 0.145262 0.721059
Si Si3 0.899893 0.373320 0.944278
Si Si4 0.245430 0.479123 0.132272
O O1 0.128550 0.619218 0.646267
O O2 0.964644 0.787366 0.695575
O O3 0.950457 0.731869 0.598004
O O4 0.131879 0.885643 0.633861
O O5 0.250000 0.250000 0.750310
O O6 0.239895 0.095856 0.674224
O O7 0.133646 0.000000 0.750000
O O8 0.780562 0.448544 0.920654
O O9 0.000000 0.500000 0.947209
O O10 0.884819 0.316408 0.000000
#
# Coordination Sequence:
#
# PCOD9498906 Si02
#       4
#    16  16  16  16
#     4  10  22  43  69  98 140 179 228 284 339 410
#     4  12  27  48  71  99 136 181 236 291 351 414
#     4   9  18  37  69 105 143 184 225 279 348 412
#     4  10  22  43  69 100 139 181 225 286 343 407
#
# _framework density 23.257083000000002
#
# number of rings (size 3 to 8) (size 9 to 14) (size 15 to 20)
#    0.000    1.750    2.500    0.750    3.500    3.000 
#    0.000    8.750    0.000    3.000    0.000    0.000 
#    0.000    0.000    0.000    0.000    0.000    0.000 
#
# Total GULP energy -179045.370323 kJ/mol
# GULP energy per Si atom -5595.167823 kJ/mol
# Density = 2.320415 g / cm^3
# Si number density = 23.257083 Si / 1000 Ang^3
#
#
#
# Elastic Constant Matrix: (Units=GPa)
#
#
# Indices 1 2 3 4 5 6 
#
# 1 132.7882 57.5495 45.2080 0.0000 0.0000 0.0000
# 2 57.5495 91.9687 36.7474 0.0000 0.0000 0.0000
# 3 45.2080 36.7474 158.8555 0.0000 0.0000 0.0000
# 4 0.0000 0.0000 0.0000 25.8046 0.0000 0.0000
# 5 0.0000 0.0000 0.0000 0.0000 20.1859 0.0000
# 6 0.0000 0.0000 0.0000 0.0000 0.0000 41.7422
#
#
#
# Elastic Compliance Matrix: (Units=1/GPa)
#
#
# Indices 1 2 3 4 5 6 
#
# 1 0.010712 -0.006044 -0.001650 0.000000 0.000000 0.000000
# 2 -0.006044 0.015390 -0.001840 0.000000 0.000000 0.000000
# 3 -0.001650 -0.001840 0.007190 0.000000 0.000000 0.000000
# 4 0.000000 0.000000 0.000000 0.038753 0.000000 0.000000
# 5 0.000000 0.000000 0.000000 0.000000 0.049540 0.000000
# 6 0.000000 0.000000 0.000000 0.000000 0.000000 0.023957
#
#
# Mechanical properties :
#
#
# Convention : Reuss Voigt Hill
#
# Bulk Modulus (GPa) = 70.30289 73.62470 71.96379
# Shear Modulus (GPa) = 29.52441 33.82038 31.67240
#
# Velocity S-wave (km/s) = 3.56684 3.81753 3.69431
# Velocity P-wave (km/s) = 6.87440 7.15241 7.01478
#
# Compressibility (1/GPa) = 0.01422417
#
# Stress axis : x y z
#
# Youngs Moduli (GPa) = 93.35402 64.97586 139.07392
#
# Poissons Ratio (x) = 0.39268 0.22953
# Poissons Ratio (y) = 0.56419 0.25593
# Poissons Ratio (z) = 0.15407 0.11957
#
# Static dielectric constant tensor:
#      x y z
#    x 1.956980 0.000000 0.000000 
#    y 0.000000 1.916660 0.000000 
#    z 0.000000 0.000000 1.861370 
# 
# From -- ./inp_files/68590.got.cif
#   From: 2010.05.17/outbox.cif.g08.bks.cpg/sg66_35_cif.got.tgz:68590.got - 2010.06.03 17:51:23.
