data_PCOD9498591
_publ_section_title
;
Structure prediction by ZEFSAII (Michael W. Deem and Ramdas Pophale) SiO2 
 PCOD9498591
Probable space group: C C C M
;
_chemical_formula_sum "Si O2"
_cell_formula_units_Z 60
_cell_length_a 7.540054
_cell_length_b 25.988695
_cell_length_c 16.460622
_cell_angle_alpha 90.000000
_cell_angle_beta 90.000000
_cell_angle_gamma 90.000000
_cell_volume 3225.560339
_symmetry_space_group_name_H-M "C C C M"
_symmetry_group_IT_number 66
_symmetry_cell_setting 'orthorhombic'
loop_
_space_group_symop_operation_xyz
x,y,z
-x,-y,z
x,-y,1/2-z
-x,y,1/2-z
-x,-y,-z
x,y,-z
-x,y,1/2+z
x,-y,1/2+z
1/2+x,1/2+y,z
1/2-x,1/2-y,z
1/2+x,1/2-y,1/2-z
1/2-x,1/2+y,1/2-z
1/2-x,1/2-y,-z
1/2+x,1/2+y,-z
1/2-x,1/2+y,1/2+z
1/2+x,1/2-y,1/2+z
loop_
_atom_site_type_symbol
_atom_site_label
_atom_site_fract_x
_atom_site_fract_y
_atom_site_fract_z
Si Si1 0.357279 0.595454 0.000000
Si Si2 0.045936 0.559220 0.500000
Si Si3 0.843332 0.916897 0.868464
Si Si4 0.000000 0.000000 0.750000
Si Si5 0.617217 0.703149 0.169457
Si Si6 0.579663 0.714612 0.500000
O O1 0.476922 0.578441 0.076775
O O2 0.359795 0.656302 0.000000
O O3 0.150926 0.582467 0.000000
O O4 0.170872 0.572497 0.576614
O O5 0.000000 0.500000 0.500000
O O6 0.825610 0.856970 0.841392
O O7 0.875475 0.960632 0.801109
O O8 0.500000 0.701703 0.250000
O O9 0.750000 0.750000 0.185135
O O10 0.528186 0.719674 0.083731
O O11 0.750000 0.750000 0.500000
#
# Coordination Sequence:
#
# PCOD9498591 Si02
#       6
#     8   8  16   4  16   8
#     4   9  21  41  63  89 127 163 214 260 325 387
#     4  11  22  41  65  96 122 165 221 273 327 386
#     4  10  23  41  65  91 127 171 211 268 326 393
#     4  12  20  42  66  84 136 172 208 266 326 390
#     4  11  23  43  64  96 133 172 217 270 335 394
#     4  10  22  37  66  96 124 169 215 263 329 392
#
# _framework density 18.601420000000001
#
# number of rings (size 3 to 8) (size 9 to 14) (size 15 to 20)
#    0.000    1.600    1.333    3.600    3.733    2.133 
#    0.000    6.000    0.000    0.000    0.000    0.000 
#    0.000    0.000    0.000    0.000    0.000    0.000 
#
# Total GULP energy -167097.268316 kJ/mol
# GULP energy per Si atom -5569.908944 kJ/mol
# Density = 1.855908 g / cm^3
# Si number density = 18.601420 Si / 1000 Ang^3
#
#
#
# Elastic Constant Matrix: (Units=GPa)
#
#
# Indices 1 2 3 4 5 6 
#
# 1 142.3754 74.1733 60.1580 0.0000 0.0000 0.0000
# 2 74.1733 137.2211 82.9672 0.0000 0.0000 0.0000
# 3 60.1580 82.9672 116.2072 0.0000 0.0000 0.0000
# 4 0.0000 0.0000 0.0000 57.2831 0.0000 0.0000
# 5 0.0000 0.0000 0.0000 0.0000 46.8886 0.0000
# 6 0.0000 0.0000 0.0000 0.0000 0.0000 36.6690
#
#
#
# Elastic Compliance Matrix: (Units=1/GPa)
#
#
# Indices 1 2 3 4 5 6 
#
# 1 0.010128 -0.004055 -0.002348 0.000000 0.000000 0.000000
# 2 -0.004055 0.014446 -0.008215 0.000000 0.000000 0.000000
# 3 -0.002348 -0.008215 0.015686 0.000000 0.000000 0.000000
# 4 0.000000 0.000000 0.000000 0.017457 0.000000 0.000000
# 5 0.000000 0.000000 0.000000 0.000000 0.021327 0.000000
# 6 0.000000 0.000000 0.000000 0.000000 0.000000 0.027271
#
#
# Mechanical properties :
#
#
# Convention : Reuss Voigt Hill
#
# Bulk Modulus (GPa) = 90.70610 92.26672 91.48641
# Shear Modulus (GPa) = 35.91258 40.06849 37.99053
#
# Velocity S-wave (km/s) = 4.39867 4.64622 4.52413
# Velocity P-wave (km/s) = 8.64098 8.85961 8.75098
#
# Compressibility (1/GPa) = 0.01102462
#
# Stress axis : x y z
#
# Youngs Moduli (GPa) = 98.73231 69.22170 63.75125
#
# Poissons Ratio (x) = 0.28070 0.14969
# Poissons Ratio (y) = 0.40037 0.52371
# Poissons Ratio (z) = 0.23183 0.56865
#
# Static dielectric constant tensor:
#      x y z
#    x 1.537340 0.000000 0.000000 
#    y 0.000000 1.523380 0.000000 
#    z 0.000000 0.000000 1.826470 
# 
# From -- ./inp_files/34904.got.cif
#   From: 2010.05.17/outbox.cif.g08.bks.cpg/sg66_18_cif.got.tgz:34904.got - 2010.06.03 17:51:23.
