data_PCOD9498889
_publ_section_title
;
Structure prediction by ZEFSAII (Michael W. Deem and Ramdas Pophale) SiO2 
 PCOD9498889
Probable space group: C C C M
;
_chemical_formula_sum "Si O2"
_cell_formula_units_Z 88
_cell_length_a 18.227648
_cell_length_b 15.283652
_cell_length_c 14.882663
_cell_angle_alpha 90.000000
_cell_angle_beta 90.000000
_cell_angle_gamma 90.000000
_cell_volume 4146.087101
_symmetry_space_group_name_H-M "C C C M"
_symmetry_group_IT_number 66
_symmetry_cell_setting 'orthorhombic'
loop_
_space_group_symop_operation_xyz
x,y,z
-x,-y,z
x,-y,1/2-z
-x,y,1/2-z
-x,-y,-z
x,y,-z
-x,y,1/2+z
x,-y,1/2+z
1/2+x,1/2+y,z
1/2-x,1/2-y,z
1/2+x,1/2-y,1/2-z
1/2-x,1/2+y,1/2-z
1/2-x,1/2-y,-z
1/2+x,1/2+y,-z
1/2-x,1/2+y,1/2+z
1/2+x,1/2-y,1/2+z
loop_
_atom_site_type_symbol
_atom_site_label
_atom_site_fract_x
_atom_site_fract_y
_atom_site_fract_z
Si Si1 0.582225 0.012578 0.142677
Si Si2 0.516475 0.361627 0.109304
Si Si3 0.386638 0.523985 0.606263
Si Si4 0.250000 0.750000 0.233893
Si Si5 0.773724 0.432458 0.667368
Si Si6 0.616591 0.786270 0.606199
O O1 0.649280 0.947976 0.115726
O O2 0.500000 0.000000 0.105121
O O3 0.575092 0.000000 0.250000
O O4 0.608172 0.110838 0.121991
O O5 0.577696 0.432986 0.139142
O O6 0.438284 0.397470 0.141775
O O7 0.542704 0.265293 0.133565
O O8 0.514621 0.361909 0.000000
O O9 0.398151 0.521228 0.500000
O O10 0.301459 0.539044 0.620558
O O11 0.237347 0.664780 0.295021
O O12 0.319462 0.746694 0.167369
O O13 0.777898 0.500000 0.750000
O O14 0.631226 0.771166 0.500000
#
# Coordination Sequence:
#
# PCOD9498889 Si02
#       6
#    16  16  16   8  16  16
#     4  10  22  43  62  83 128 166 206 254 312 365
#     4   8  17  34  59  93 124 154 198 254 308 361
#     4   9  18  37  61  87 127 165 196 248 313 373
#     4  12  23  40  59  92 128 156 200 264 315 370
#     4  11  22  40  58  89 125 162 204 254 309 376
#     4  11  22  39  66  93 118 158 214 266 306 364
#
# _framework density 21.224830999999998
#
# number of rings (size 3 to 8) (size 9 to 14) (size 15 to 20)
#    0.000    2.000    3.636    2.455    0.000    2.545 
#    0.000    5.909    0.000    0.000    0.000    0.000 
#    0.000    0.000    0.000    0.000    0.000    0.000 
#
# Total GULP energy -245407.158338 kJ/mol
# GULP energy per Si atom -5577.435417 kJ/mol
# Density = 2.117652 g / cm^3
# Si number density = 21.224831 Si / 1000 Ang^3
#
#
#
# Elastic Constant Matrix: (Units=GPa)
#
#
# Indices 1 2 3 4 5 6 
#
# 1 168.1883 46.1285 15.3566 0.0000 0.0000 0.0000
# 2 46.1285 116.6033 15.2249 0.0000 0.0000 0.0000
# 3 15.3566 15.2249 42.9163 0.0000 0.0000 0.0000
# 4 0.0000 0.0000 0.0000 16.1182 0.0000 0.0000
# 5 0.0000 0.0000 0.0000 0.0000 17.4190 0.0000
# 6 0.0000 0.0000 0.0000 0.0000 0.0000 35.2301
#
#
#
# Elastic Compliance Matrix: (Units=1/GPa)
#
#
# Indices 1 2 3 4 5 6 
#
# 1 0.006765 -0.002475 -0.001543 0.000000 0.000000 0.000000
# 2 -0.002475 0.009898 -0.002626 0.000000 0.000000 0.000000
# 3 -0.001543 -0.002626 0.024785 0.000000 0.000000 0.000000
# 4 0.000000 0.000000 0.000000 0.062042 0.000000 0.000000
# 5 0.000000 0.000000 0.000000 0.000000 0.057409 0.000000
# 6 0.000000 0.000000 0.000000 0.000000 0.000000 0.028385
#
#
# Mechanical properties :
#
#
# Convention : Reuss Voigt Hill
#
# Bulk Modulus (GPa) = 35.51007 53.45866 44.48436
# Shear Modulus (GPa) = 23.58960 30.48662 27.03811
#
# Velocity S-wave (km/s) = 3.33741 3.79405 3.57303
# Velocity P-wave (km/s) = 5.62297 6.66593 6.16654
#
# Compressibility (1/GPa) = 0.02816103
#
# Stress axis : x y z
#
# Youngs Moduli (GPa) = 147.81130 101.03016 40.34732
#
# Poissons Ratio (x) = 0.25004 0.06225
# Poissons Ratio (y) = 0.36583 0.10594
# Poissons Ratio (z) = 0.22805 0.26529
#
# Static dielectric constant tensor:
#      x y z
#    x 1.840930 0.000000 0.000000 
#    y 0.000000 1.754950 0.000000 
#    z 0.000000 0.000000 1.791340 
# 
# From -- ./inp_files/50907.got.cif
#   From: 2010.05.17/outbox.cif.g08.bks.cpg/sg66_26_cif.got.tgz:50907.got - 2010.06.03 17:51:23.
