data_PCOD9498589
_publ_section_title
;
Structure prediction by ZEFSAII (Michael W. Deem and Ramdas Pophale) SiO2 
 PCOD9498589
Probable space group: C C C M
;
_chemical_formula_sum "Si O2"
_cell_formula_units_Z 80
_cell_length_a 16.025056
_cell_length_b 11.347878
_cell_length_c 21.808103
_cell_angle_alpha 90.000000
_cell_angle_beta 90.000000
_cell_angle_gamma 90.000000
_cell_volume 3965.811827
_symmetry_space_group_name_H-M "C C C M"
_symmetry_group_IT_number 66
_symmetry_cell_setting 'orthorhombic'
loop_
_space_group_symop_operation_xyz
x,y,z
-x,-y,z
x,-y,1/2-z
-x,y,1/2-z
-x,-y,-z
x,y,-z
-x,y,1/2+z
x,-y,1/2+z
1/2+x,1/2+y,z
1/2-x,1/2-y,z
1/2+x,1/2-y,1/2-z
1/2-x,1/2+y,1/2-z
1/2-x,1/2-y,-z
1/2+x,1/2+y,-z
1/2-x,1/2+y,1/2+z
1/2+x,1/2-y,1/2+z
loop_
_atom_site_type_symbol
_atom_site_label
_atom_site_fract_x
_atom_site_fract_y
_atom_site_fract_z
Si Si1 0.039223 0.346871 0.570758
Si Si2 0.791432 0.949205 0.182062
Si Si3 0.838310 0.196744 0.865911
Si Si4 0.389668 0.923112 0.363672
Si Si5 0.907939 0.248140 0.736475
O O1 0.049518 0.378110 0.500000
O O2 0.088762 0.230157 0.587847
O O3 0.081865 0.447777 0.613710
O O4 0.942154 0.342812 0.588971
O O5 0.709428 0.916320 0.143596
O O6 0.853213 0.840726 0.195074
O O7 0.767121 0.000000 0.250000
O O8 0.833287 0.058944 0.147972
O O9 0.750000 0.250000 0.887078
O O10 0.859380 0.257020 0.800318
O O11 0.419088 0.871685 0.298211
O O12 0.000000 0.198634 0.750000
#
# Coordination Sequence:
#
# PCOD9498589 Si02
#       5
#    16  16  16  16  16
#     4  11  25  42  64  89 125 173 222 272 323 373
#     4  10  22  37  64  94 137 163 203 258 334 400
#     4  11  21  41  61  95 127 162 209 264 323 391
#     4  11  21  39  61  92 127 161 208 269 322 380
#     4  11  22  38  64  98 129 168 199 253 333 404
#
# _framework density 20.172415999999998
#
# number of rings (size 3 to 8) (size 9 to 14) (size 15 to 20)
#    0.000    1.200    4.000    4.200    0.000    4.000 
#    0.000    0.000    0.000   13.200    0.000    0.000 
#    0.000    0.000    0.000    0.000    0.000    0.000 
#
# Total GULP energy -223200.684782 kJ/mol
# GULP energy per Si atom -5580.017120 kJ/mol
# Density = 2.012650 g / cm^3
# Si number density = 20.172416 Si / 1000 Ang^3
#
#
#
# Elastic Constant Matrix: (Units=GPa)
#
#
# Indices 1 2 3 4 5 6 
#
# 1 138.2178 50.6085 53.4347 0.0000 0.0000 0.0000
# 2 50.6085 71.8617 55.9488 0.0000 0.0000 0.0000
# 3 53.4347 55.9488 67.4526 0.0000 0.0000 0.0000
# 4 0.0000 0.0000 0.0000 11.4864 0.0000 0.0000
# 5 0.0000 0.0000 0.0000 0.0000 0.9332 0.0000
# 6 0.0000 0.0000 0.0000 0.0000 0.0000 31.5157
#
#
#
# Elastic Compliance Matrix: (Units=1/GPa)
#
#
# Indices 1 2 3 4 5 6 
#
# 1 0.010601 -0.002618 -0.006226 0.000000 0.000000 0.000000
# 2 -0.002618 0.039932 -0.031048 0.000000 0.000000 0.000000
# 3 -0.006226 -0.031048 0.045510 0.000000 0.000000 0.000000
# 4 0.000000 0.000000 0.000000 0.087059 0.000000 0.000000
# 5 0.000000 0.000000 0.000000 0.000000 1.071599 0.000000
# 6 0.000000 0.000000 0.000000 0.000000 0.000000 0.031730
#
#
# Mechanical properties :
#
#
# Convention : Reuss Voigt Hill
#
# Bulk Modulus (GPa) = 61.50469 66.39067 63.94768
# Shear Modulus (GPa) = 3.64528 16.62308 10.13418
#
# Velocity S-wave (km/s) = 1.34573 2.87374 2.24381
# Velocity P-wave (km/s) = 5.74198 6.63282 6.20341
#
# Compressibility (1/GPa) = 0.01625892
#
# Stress axis : x y z
#
# Youngs Moduli (GPa) = 94.33514 25.04249 21.97316
#
# Poissons Ratio (x) = 0.06556 0.13680
# Poissons Ratio (y) = 0.24698 0.68222
# Poissons Ratio (z) = 0.58732 0.77752
#
# Static dielectric constant tensor:
#      x y z
#    x 1.763000 0.000000 0.000000 
#    y 0.000000 1.746580 0.000000 
#    z 0.000000 0.000000 1.690560 
# 
# From -- ./inp_files/57867.got.cif
#   From: 2010.05.17/outbox.cif.g08.bks.cpg/sg66_29_cif.got.tgz:57867.got - 2010.06.03 17:51:23.
