data_PCOD9498036
_publ_section_title
;
Structure prediction by ZEFSAII (Michael W. Deem and Ramdas Pophale) SiO2 
 PCOD9498036
Probable space group: C C C M
;
_chemical_formula_sum "Si O2"
_cell_formula_units_Z 96
_cell_length_a 20.283704
_cell_length_b 17.663707
_cell_length_c 14.669161
_cell_angle_alpha 90.000000
_cell_angle_beta 90.000000
_cell_angle_gamma 90.000000
_cell_volume 5255.746280
_symmetry_space_group_name_H-M "C C C M"
_symmetry_group_IT_number 66
_symmetry_cell_setting 'orthorhombic'
loop_
_space_group_symop_operation_xyz
x,y,z
-x,-y,z
x,-y,1/2-z
-x,y,1/2-z
-x,-y,-z
x,y,-z
-x,y,1/2+z
x,-y,1/2+z
1/2+x,1/2+y,z
1/2-x,1/2-y,z
1/2+x,1/2-y,1/2-z
1/2-x,1/2+y,1/2-z
1/2-x,1/2-y,-z
1/2+x,1/2+y,-z
1/2-x,1/2+y,1/2+z
1/2+x,1/2-y,1/2+z
loop_
_atom_site_type_symbol
_atom_site_label
_atom_site_fract_x
_atom_site_fract_y
_atom_site_fract_z
Si Si1 0.203009 0.927995 0.000000
Si Si2 0.441424 0.852153 0.185946
Si Si3 0.682730 0.914536 0.208466
Si Si4 0.554902 0.324882 0.823213
Si Si5 0.814309 0.449961 0.500000
Si Si6 0.939080 0.443331 0.000000
Si Si7 0.788622 0.169225 0.816781
Si Si8 0.950436 0.071110 0.000000
O O1 0.218058 0.876156 0.912010
O O2 0.126588 0.951895 0.000000
O O3 0.247060 0.002551 0.000000
O O4 0.500000 0.881440 0.250000
O O5 0.374537 0.866480 0.242019
O O6 0.454775 0.764726 0.163121
O O7 0.440080 0.894968 0.091195
O O8 0.678491 0.910201 0.098666
O O9 0.751588 0.879574 0.240685
O O10 0.677027 0.000000 0.250000
O O11 0.500000 0.348993 0.750000
O O12 0.632842 0.328527 0.797876
O O13 0.542373 0.375474 0.911833
O O14 0.872230 0.510608 0.500000
O O15 0.000000 0.500000 0.000000
O O16 0.750000 0.250000 0.823272
O O17 0.000000 0.000000 0.000000
#
# Coordination Sequence:
#
# PCOD9498036 Si02
#       8
#     8  16  16  16   8   8  16   8
#     4  10  21  37  65  97 122 160 214 278 325 384
#     4  11  23  39  62  88 128 172 216 264 313 389
#     4  12  23  40  63  92 133 164 210 268 326 393
#     4  10  23  43  65  93 125 172 217 261 328 384
#     4  12  24  38  57  95 129 165 206 254 332 381
#     4  12  23  35  58  91 124 169 212 258 316 380
#     4  11  21  40  66  93 124 164 219 272 324 375
#     4  10  23  42  67  98 127 159 218 282 329 379
#
# _framework density 18.265722
#
# number of rings (size 3 to 8) (size 9 to 14) (size 15 to 20)
#    0.000    1.000    5.000    1.750    0.000    1.667 
#    0.000    1.250    0.000    0.000    0.000    0.000 
#    0.000    0.000    0.000    0.000    0.000    0.000 
#
# Total GULP energy -267901.664431 kJ/mol
# GULP energy per Si atom -5581.284676 kJ/mol
# Density = 1.822415 g / cm^3
# Si number density = 18.265722 Si / 1000 Ang^3
#
#
#
# Elastic Constant Matrix: (Units=GPa)
#
#
# Indices 1 2 3 4 5 6 
#
# 1 116.7091 38.1876 80.8978 0.0000 0.0000 0.0000
# 2 38.1876 70.3743 54.1086 0.0000 0.0000 0.0000
# 3 80.8978 54.1086 171.6740 0.0000 0.0000 0.0000
# 4 0.0000 0.0000 0.0000 27.6886 0.0000 0.0000
# 5 0.0000 0.0000 0.0000 0.0000 33.9306 0.0000
# 6 0.0000 0.0000 0.0000 0.0000 0.0000 26.7367
#
#
#
# Elastic Compliance Matrix: (Units=1/GPa)
#
#
# Indices 1 2 3 4 5 6 
#
# 1 0.013233 -0.003149 -0.005243 0.000000 0.000000 0.000000
# 2 -0.003149 0.019504 -0.004663 0.000000 0.000000 0.000000
# 3 -0.005243 -0.004663 0.009766 0.000000 0.000000 0.000000
# 4 0.000000 0.000000 0.000000 0.036116 0.000000 0.000000
# 5 0.000000 0.000000 0.000000 0.000000 0.029472 0.000000
# 6 0.000000 0.000000 0.000000 0.000000 0.000000 0.037402
#
#
# Mechanical properties :
#
#
# Convention : Reuss Voigt Hill
#
# Bulk Modulus (GPa) = 61.00894 78.34949 69.67922
# Shear Modulus (GPa) = 28.23771 30.04206 29.13988
#
# Velocity S-wave (km/s) = 3.93611 4.05992 3.99849
# Velocity P-wave (km/s) = 7.35735 8.06006 7.71671
#
# Compressibility (1/GPa) = 0.01639104
#
# Stress axis : x y z
#
# Youngs Moduli (GPa) = 75.56748 51.27105 102.40112
#
# Poissons Ratio (x) = 0.16148 0.53691
# Poissons Ratio (y) = 0.23800 0.47752
# Poissons Ratio (z) = 0.39622 0.23909
#
# Static dielectric constant tensor:
#      x y z
#    x 1.649880 0.000000 0.000000 
#    y 0.000000 1.620580 0.000000 
#    z 0.000000 0.000000 1.595340 
# 
# From -- ./inp_files/31275.got.cif
#   From: 2010.05.17/outbox.cif.g08.bks.cpg/sg66_16_cif.got.tgz:31275.got - 2010.06.03 17:51:23.
