data_PCOD9498955
_publ_section_title
;
Structure prediction by ZEFSAII (Michael W. Deem and Ramdas Pophale) SiO2 
 PCOD9498955
Probable space group: C C C M
;
_chemical_formula_sum "Si O2"
_cell_formula_units_Z 72
_cell_length_a 11.614974
_cell_length_b 10.540865
_cell_length_c 28.390119
_cell_angle_alpha 90.000000
_cell_angle_beta 90.000000
_cell_angle_gamma 90.000000
_cell_volume 3475.855441
_symmetry_space_group_name_H-M "C C C M"
_symmetry_group_IT_number 66
_symmetry_cell_setting 'orthorhombic'
loop_
_space_group_symop_operation_xyz
x,y,z
-x,-y,z
x,-y,1/2-z
-x,y,1/2-z
-x,-y,-z
x,y,-z
-x,y,1/2+z
x,-y,1/2+z
1/2+x,1/2+y,z
1/2-x,1/2-y,z
1/2+x,1/2-y,1/2-z
1/2-x,1/2+y,1/2-z
1/2-x,1/2-y,-z
1/2+x,1/2+y,-z
1/2-x,1/2+y,1/2+z
1/2+x,1/2-y,1/2+z
loop_
_atom_site_type_symbol
_atom_site_label
_atom_site_fract_x
_atom_site_fract_y
_atom_site_fract_z
Si Si1 0.250000 0.750000 0.846212
Si Si2 0.862379 0.983030 0.697447
Si Si3 0.786381 0.895483 0.000000
Si Si4 0.962158 0.355898 0.900680
Si Si5 0.643396 0.849834 0.500000
Si Si6 0.101997 0.895562 0.395607
O O1 0.329277 0.658483 0.816215
O O2 0.161131 0.669544 0.876966
O O3 0.826271 0.067356 0.651662
O O4 0.813265 0.000000 0.750000
O O5 0.000000 0.000000 0.700864
O O6 0.750000 0.750000 0.000000
O O7 0.845726 0.909266 0.051848
O O8 0.692616 0.007487 0.000000
O O9 0.000000 0.500000 0.892118
O O10 0.052584 0.245807 0.887641
O O11 0.936462 0.332625 0.955261
O O12 0.750000 0.750000 0.500000
O O13 0.000000 0.000000 0.395915
#
# Coordination Sequence:
#
# PCOD9498955 Si02
#       6
#     8  16   8  16   8  16
#     4  12  22  47  68 100 134 177 232 278 352 402
#     4  10  22  45  73  98 135 181 228 286 344 408
#     4  12  24  38  60 100 137 177 229 277 338 416
#     4  12  24  41  66 100 139 180 229 284 337 406
#     4  12  22  38  62  96 135 186 226 273 339 406
#     4  11  21  43  66  93 134 183 220 279 341 405
#
# _framework density 20.714326
#
# number of rings (size 3 to 8) (size 9 to 14) (size 15 to 20)
#    0.000    0.667    5.556    5.333    0.000    0.000 
#    6.000    0.000    0.000    0.000    0.000    0.000 
#    0.000    0.000    0.000    0.000    0.000    0.000 
#
# Total GULP energy -200855.543106 kJ/mol
# GULP energy per Si atom -5579.320642 kJ/mol
# Density = 2.066718 g / cm^3
# Si number density = 20.714326 Si / 1000 Ang^3
#
#
#
# Elastic Constant Matrix: (Units=GPa)
#
#
# Indices 1 2 3 4 5 6 
#
# 1 36.1495 28.4006 29.3392 0.0000 0.0000 0.0000
# 2 28.4006 141.8516 44.7285 0.0000 0.0000 0.0000
# 3 29.3392 44.7285 175.1220 0.0000 0.0000 0.0000
# 4 0.0000 0.0000 0.0000 120.9760 0.0000 0.0000
# 5 0.0000 0.0000 0.0000 0.0000 -40.2651 0.0000
# 6 0.0000 0.0000 0.0000 0.0000 0.0000 41.7651
#
#
#
# Elastic Compliance Matrix: (Units=1/GPa)
#
#
# Indices 1 2 3 4 5 6 
#
# 1 0.035864 -0.005749 -0.004540 0.000000 0.000000 0.000000
# 2 -0.005749 0.008589 -0.001231 0.000000 0.000000 0.000000
# 3 -0.004540 -0.001231 0.006785 0.000000 0.000000 0.000000
# 4 0.000000 0.000000 0.000000 0.008266 0.000000 0.000000
# 5 0.000000 0.000000 0.000000 0.000000 -0.024835 0.000000
# 6 0.000000 0.000000 0.000000 0.000000 0.000000 0.023943
#
#
# Mechanical properties :
#
#
# Convention : Reuss Voigt Hill
#
# Bulk Modulus (GPa) = 35.46227 62.00663 48.73445
# Shear Modulus (GPa) = 54.91406 41.20551 48.05979
#
# Velocity S-wave (km/s) = 5.15439 4.46491 4.82199
# Velocity P-wave (km/s) = 7.25124 7.52195 7.38784
#
# Compressibility (1/GPa) = 0.02819899
#
# Stress axis : x y z
#
# Youngs Moduli (GPa) = 27.88280 116.43296 147.37863
#
# Poissons Ratio (x) = 0.66936 0.66913
# Poissons Ratio (y) = 0.16030 0.18135
# Poissons Ratio (z) = 0.12659 0.14327
#
# Static dielectric constant tensor:
#      x y z
#    x 1.882280 0.000000 0.000000 
#    y 0.000000 1.732040 0.000000 
#    z 0.000000 0.000000 2.458170 
# 
# From -- ./inp_files/64370.got.cif
#   From: 2010.05.17/outbox.cif.g08.bks.cpg/sg66_33_cif.got.tgz:64370.got - 2010.06.03 17:51:23.
