data_PCOD9498217
_publ_section_title
;
Structure prediction by ZEFSAII (Michael W. Deem and Ramdas Pophale) SiO2 
 PCOD9498217
Probable space group: C C C M
;
_chemical_formula_sum "Si O2"
_cell_formula_units_Z 60
_cell_length_a 27.696751
_cell_length_b 11.710708
_cell_length_c 9.824084
_cell_angle_alpha 90.000000
_cell_angle_beta 90.000000
_cell_angle_gamma 90.000000
_cell_volume 3186.427533
_symmetry_space_group_name_H-M "C C C M"
_symmetry_group_IT_number 66
_symmetry_cell_setting 'orthorhombic'
loop_
_space_group_symop_operation_xyz
x,y,z
-x,-y,z
x,-y,1/2-z
-x,y,1/2-z
-x,-y,-z
x,y,-z
-x,y,1/2+z
x,-y,1/2+z
1/2+x,1/2+y,z
1/2-x,1/2-y,z
1/2+x,1/2-y,1/2-z
1/2-x,1/2+y,1/2-z
1/2-x,1/2-y,-z
1/2+x,1/2+y,-z
1/2-x,1/2+y,1/2+z
1/2+x,1/2-y,1/2+z
loop_
_atom_site_type_symbol
_atom_site_label
_atom_site_fract_x
_atom_site_fract_y
_atom_site_fract_z
Si Si1 0.177390 0.354488 0.500000
Si Si2 0.843337 0.000000 0.250000
Si Si3 0.416677 0.109196 0.344122
Si Si4 0.000000 0.000000 0.250000
Si Si5 0.785409 0.906285 0.500000
Si Si6 0.076133 0.176466 0.155056
O O1 0.141195 0.379544 0.374080
O O2 0.195547 0.224274 0.500000
O O3 0.227779 0.420199 0.500000
O O4 0.877302 0.104528 0.296899
O O5 0.809415 0.962964 0.370932
O O6 0.436953 0.103148 0.500000
O O7 0.432412 0.221386 0.261478
O O8 0.426902 0.000000 0.250000
O O9 0.966511 0.083732 0.337199
O O10 0.081728 0.218384 0.000000
#
# Coordination Sequence:
#
# PCOD9498217 Si02
#       6
#     8   8  16   4   8  16
#     4   9  22  36  57  81 127 167 213 246 306 354
#     4  11  20  35  58  88 122 160 200 261 304 357
#     4  10  21  39  61  86 121 166 204 251 296 365
#     4  10  26  40  70  94 126 144 196 256 314 378
#     4  11  20  36  55  87 124 165 207 262 305 357
#     4  11  22  40  62  93 121 158 199 249 316 369
#
# _framework density 18.829864000000001
#
# number of rings (size 3 to 8) (size 9 to 14) (size 15 to 20)
#    0.800    0.800    4.000    1.200    1.867    2.133 
#    0.000    0.667    0.000    8.000    0.000    0.000 
#    0.000    0.000    0.000    0.000    0.000    0.000 
#
# Total GULP energy -167254.141756 kJ/mol
# GULP energy per Si atom -5575.138059 kJ/mol
# Density = 1.878701 g / cm^3
# Si number density = 18.829864 Si / 1000 Ang^3
#
#
#
# Elastic Constant Matrix: (Units=GPa)
#
#
# Indices 1 2 3 4 5 6 
#
# 1 56.3195 20.3763 29.8831 0.0000 0.0000 0.0000
# 2 20.3763 116.1823 65.9269 0.0000 0.0000 0.0000
# 3 29.8831 65.9269 172.0188 0.0000 0.0000 0.0000
# 4 0.0000 0.0000 0.0000 33.9092 0.0000 0.0000
# 5 0.0000 0.0000 0.0000 0.0000 -23.4150 0.0000
# 6 0.0000 0.0000 0.0000 0.0000 0.0000 -51.3658
#
#
#
# Elastic Compliance Matrix: (Units=1/GPa)
#
#
# Indices 1 2 3 4 5 6 
#
# 1 0.019900 -0.001953 -0.002708 0.000000 0.000000 0.000000
# 2 -0.001953 0.011191 -0.003950 0.000000 0.000000 0.000000
# 3 -0.002708 -0.003950 0.007798 0.000000 0.000000 0.000000
# 4 0.000000 0.000000 0.000000 0.029490 0.000000 0.000000
# 5 0.000000 0.000000 0.000000 0.000000 -0.042708 0.000000
# 6 0.000000 0.000000 0.000000 0.000000 0.000000 -0.019468
#
#
# Mechanical properties :
#
#
# Convention : Reuss Voigt Hill
#
# Bulk Modulus (GPa) = 46.15616 64.09925 55.12770
# Shear Modulus (GPa) = 163.14844 7.04797 85.09820
#
# Velocity S-wave (km/s) = 9.31834 1.93678 6.72988
# Velocity P-wave (km/s) = 11.84655 6.25433 9.47252
#
# Compressibility (1/GPa) = 0.02166558
#
# Stress axis : x y z
#
# Youngs Moduli (GPa) = 50.25236 89.35814 128.24553
#
# Poissons Ratio (x) = 0.17453 0.34734
# Poissons Ratio (y) = 0.09815 0.50653
# Poissons Ratio (z) = 0.13610 0.35293
#
# Static dielectric constant tensor:
#      x y z
#    x 1.647110 0.000000 0.000000 
#    y 0.000000 1.640230 0.000000 
#    z 0.000000 0.000000 1.628360 
# 
# From -- ./inp_files/9847.got.cif
#   From: 2010.05.17/outbox.cif.g08.bks.cpg/sg66_5_cif.got.tgz:9847.got - 2010.06.03 17:51:23.
