data_PCOD9498102
_publ_section_title
;
Structure prediction by ZEFSAII (Michael W. Deem and Ramdas Pophale) SiO2 
 PCOD9498102
Probable space group: C C C M
;
_chemical_formula_sum "Si O2"
_cell_formula_units_Z 112
_cell_length_a 21.500885
_cell_length_b 15.305437
_cell_length_c 14.584039
_cell_angle_alpha 90.000000
_cell_angle_beta 90.000000
_cell_angle_gamma 90.000000
_cell_volume 4799.321983
_symmetry_space_group_name_H-M "C C C M"
_symmetry_group_IT_number 66
_symmetry_cell_setting 'orthorhombic'
loop_
_space_group_symop_operation_xyz
x,y,z
-x,-y,z
x,-y,1/2-z
-x,y,1/2-z
-x,-y,-z
x,y,-z
-x,y,1/2+z
x,-y,1/2+z
1/2+x,1/2+y,z
1/2-x,1/2-y,z
1/2+x,1/2-y,1/2-z
1/2-x,1/2+y,1/2-z
1/2-x,1/2-y,-z
1/2+x,1/2+y,-z
1/2-x,1/2+y,1/2+z
1/2+x,1/2-y,1/2+z
loop_
_atom_site_type_symbol
_atom_site_label
_atom_site_fract_x
_atom_site_fract_y
_atom_site_fract_z
Si Si1 0.930195 0.485285 0.359780
Si Si2 0.830713 0.839623 0.604169
Si Si3 0.394907 0.189431 0.202437
Si Si4 0.902755 0.668309 0.400940
Si Si5 0.849412 0.140834 0.606528
Si Si6 0.934031 0.030696 0.106894
Si Si7 0.761982 0.396205 0.258934
O O1 0.928402 0.500000 0.250000
O O2 0.916309 0.383693 0.369942
O O3 0.889073 0.564404 0.398828
O O4 0.000000 0.500000 0.392535
O O5 0.819591 0.870902 0.500000
O O6 0.846641 0.737508 0.599090
O O7 0.775093 0.863640 0.670015
O O8 0.893141 0.888130 0.642006
O O9 0.432147 0.186200 0.299959
O O10 0.387210 0.283382 0.158290
O O11 0.325900 0.154481 0.227595
O O12 0.935122 0.685333 0.500000
O O13 0.840812 0.163726 0.500000
O O14 0.888290 0.051579 0.611865
O O15 0.784093 0.124685 0.656832
O O16 0.946614 0.053555 0.000000
O O17 0.000000 0.000000 0.146427
O O18 0.772627 0.500000 0.250000
#
# Coordination Sequence:
#
# PCOD9498102 Si02
#       7
#    16  16  16  16  16  16  16
#     4   9  20  41  64  89 125 166 216 276 327 384
#     4  10  21  38  60  90 128 168 213 267 325 387
#     4  11  24  42  63  95 130 171 220 267 325 393
#     4  10  21  38  62  91 124 164 214 265 322 385
#     4  11  24  42  65  96 134 174 217 270 330 391
#     4   9  19  39  65  95 130 167 215 269 322 390
#     4  12  23  40  65  91 129 176 215 267 322 383
#
# _framework density 23.33663
#
# number of rings (size 3 to 8) (size 9 to 14) (size 15 to 20)
#    0.000    1.714    2.857    1.714    0.000    3.714 
#    0.000    5.714    0.000    0.000    0.000    0.000 
#    0.000    0.000    0.000    0.000    0.000    0.000 
#
# Total GULP energy -312758.035754 kJ/mol
# GULP energy per Si atom -5584.964924 kJ/mol
# Density = 2.328351 g / cm^3
# Si number density = 23.336630 Si / 1000 Ang^3
#
#
#
# Elastic Constant Matrix: (Units=GPa)
#
#
# Indices 1 2 3 4 5 6 
#
# 1 87.4649 8.9162 24.4658 0.0000 0.0000 0.0000
# 2 8.9162 118.0075 36.9222 0.0000 0.0000 0.0000
# 3 24.4658 36.9222 132.1502 0.0000 0.0000 0.0000
# 4 0.0000 0.0000 0.0000 24.2840 0.0000 0.0000
# 5 0.0000 0.0000 0.0000 0.0000 1.8185 0.0000
# 6 0.0000 0.0000 0.0000 0.0000 0.0000 12.3029
#
#
#
# Elastic Compliance Matrix: (Units=1/GPa)
#
#
# Indices 1 2 3 4 5 6 
#
# 1 0.012063 -0.000233 -0.002168 0.000000 0.000000 0.000000
# 2 -0.000233 0.009290 -0.002553 0.000000 0.000000 0.000000
# 3 -0.002168 -0.002553 0.008682 0.000000 0.000000 0.000000
# 4 0.000000 0.000000 0.000000 0.041179 0.000000 0.000000
# 5 0.000000 0.000000 0.000000 0.000000 0.549890 0.000000
# 6 0.000000 0.000000 0.000000 0.000000 0.000000 0.081282
#
#
# Mechanical properties :
#
#
# Convention : Reuss Voigt Hill
#
# Bulk Modulus (GPa) = 49.68265 53.13680 51.40972
# Shear Modulus (GPa) = 6.95407 25.50231 16.22819
#
# Velocity S-wave (km/s) = 1.72811 3.30934 2.63990
# Velocity P-wave (km/s) = 5.03166 6.11731 5.60085
#
# Compressibility (1/GPa) = 0.02012775
#
# Stress axis : x y z
#
# Youngs Moduli (GPa) = 82.89520 107.63942 115.18436
#
# Poissons Ratio (x) = 0.02509 0.24975
# Poissons Ratio (y) = 0.01932 0.29401
# Poissons Ratio (z) = 0.17974 0.27475
#
# Static dielectric constant tensor:
#      x y z
#    x 1.883580 0.000000 0.000000 
#    y 0.000000 1.892900 0.000000 
#    z 0.000000 0.000000 1.937780 
# 
# From -- ./inp_files/32468.got.cif
#   From: 2010.05.17/outbox.cif.g08.bks.cpg/sg66_17_cif.got.tgz:32468.got - 2010.06.03 17:51:23.
