data_PCOD9498325
_publ_section_title
;
Structure prediction by ZEFSAII (Michael W. Deem and Ramdas Pophale) SiO2 
 PCOD9498325
Probable space group: C C C M
;
_chemical_formula_sum "Si O2"
_cell_formula_units_Z 88
_cell_length_a 17.863246
_cell_length_b 8.728045
_cell_length_c 26.813068
_cell_angle_alpha 90.000000
_cell_angle_beta 90.000000
_cell_angle_gamma 90.000000
_cell_volume 4180.458008
_symmetry_space_group_name_H-M "C C C M"
_symmetry_group_IT_number 66
_symmetry_cell_setting 'orthorhombic'
loop_
_space_group_symop_operation_xyz
x,y,z
-x,-y,z
x,-y,1/2-z
-x,y,1/2-z
-x,-y,-z
x,y,-z
-x,y,1/2+z
x,-y,1/2+z
1/2+x,1/2+y,z
1/2-x,1/2-y,z
1/2+x,1/2-y,1/2-z
1/2-x,1/2+y,1/2-z
1/2-x,1/2-y,-z
1/2+x,1/2+y,-z
1/2-x,1/2+y,1/2+z
1/2+x,1/2-y,1/2+z
loop_
_atom_site_type_symbol
_atom_site_label
_atom_site_fract_x
_atom_site_fract_y
_atom_site_fract_z
Si Si1 0.489338 0.180796 0.944339
Si Si2 0.551944 0.700771 0.657268
Si Si3 0.174107 0.685520 0.590156
Si Si4 0.303318 0.889691 0.846891
Si Si5 0.284412 0.500000 0.750000
Si Si6 0.393024 0.641553 0.683771
O O1 0.527185 0.279304 0.900639
O O2 0.400141 0.203016 0.942056
O O3 0.500000 0.000000 0.933197
O O4 0.517967 0.212823 0.000000
O O5 0.615212 0.825347 0.666511
O O6 0.474315 0.719344 0.687522
O O7 0.586214 0.533304 0.668250
O O8 0.250000 0.750000 0.567434
O O9 0.187527 0.513838 0.609697
O O10 0.154545 0.780896 0.640323
O O11 0.250000 0.750000 0.863215
O O12 0.264287 0.959433 0.797882
O O13 0.341181 0.633934 0.732281
#
# Coordination Sequence:
#
# PCOD9498325 Si02
#       6
#    16  16  16  16   8  16
#     4  10  21  39  68  94 120 161 209 257 310 386
#     4  10  21  43  61  89 123 165 200 252 324 366
#     4  11  21  39  63  92 126 162 199 258 325 367
#     4  12  24  39  62  88 124 169 208 261 305 373
#     4  12  24  39  62  95 124 172 220 260 303 368
#     4  10  23  38  63  88 127 165 205 259 308 371
#
# _framework density 21.050325000000001
#
# number of rings (size 3 to 8) (size 9 to 14) (size 15 to 20)
#    0.000    1.273    5.455    0.000    2.545    1.818 
#    0.000    7.273    8.000    4.364    0.000    0.000 
#    0.000    0.000    0.000    0.000    0.000    0.000 
#
# Total GULP energy -245940.145039 kJ/mol
# GULP energy per Si atom -5589.548751 kJ/mol
# Density = 2.100241 g / cm^3
# Si number density = 21.050325 Si / 1000 Ang^3
#
#
#
# Elastic Constant Matrix: (Units=GPa)
#
#
# Indices 1 2 3 4 5 6 
#
# 1 135.1350 21.1509 14.5461 0.0000 0.0000 0.0000
# 2 21.1509 40.5549 9.3768 0.0000 0.0000 0.0000
# 3 14.5461 9.3768 75.3546 0.0000 0.0000 0.0000
# 4 0.0000 0.0000 0.0000 9.3397 0.0000 0.0000
# 5 0.0000 0.0000 0.0000 0.0000 25.8487 0.0000
# 6 0.0000 0.0000 0.0000 0.0000 0.0000 37.0965
#
#
#
# Elastic Compliance Matrix: (Units=1/GPa)
#
#
# Indices 1 2 3 4 5 6 
#
# 1 0.008141 -0.003998 -0.001074 0.000000 0.000000 0.000000
# 2 -0.003998 0.027351 -0.002632 0.000000 0.000000 0.000000
# 3 -0.001074 -0.002632 0.013805 0.000000 0.000000 0.000000
# 4 0.000000 0.000000 0.000000 0.107070 0.000000 0.000000
# 5 0.000000 0.000000 0.000000 0.000000 0.038687 0.000000
# 6 0.000000 0.000000 0.000000 0.000000 0.000000 0.026957
#
#
# Mechanical properties :
#
#
# Convention : Reuss Voigt Hill
#
# Bulk Modulus (GPa) = 29.50636 37.91022 33.70829
# Shear Modulus (GPa) = 20.10331 28.18837 24.14584
#
# Velocity S-wave (km/s) = 3.09368 3.66333 3.39049
# Velocity P-wave (km/s) = 5.17770 5.99515 5.60136
#
# Compressibility (1/GPa) = 0.03389100
#
# Stress axis : x y z
#
# Youngs Moduli (GPa) = 122.83012 36.56125 72.43534
#
# Poissons Ratio (x) = 0.14616 0.07780
# Poissons Ratio (y) = 0.49103 0.19063
# Poissons Ratio (z) = 0.13193 0.09622
#
# Static dielectric constant tensor:
#      x y z
#    x 1.780410 0.000000 0.000000 
#    y 0.000000 1.824280 0.000000 
#    z 0.000000 0.000000 1.735030 
# 
# From -- ./inp_files/68182.got.cif
#   From: 2010.05.17/outbox.cif.g08.bks.cpg/sg66_35_cif.got.tgz:68182.got - 2010.06.03 17:51:23.
