data_PCOD9498368
_publ_section_title
;
Structure prediction by ZEFSAII (Michael W. Deem and Ramdas Pophale) SiO2 
 PCOD9498368
Probable space group: C C C M
;
_chemical_formula_sum "Si O2"
_cell_formula_units_Z 56
_cell_length_a 16.926115
_cell_length_b 8.523664
_cell_length_c 16.747166
_cell_angle_alpha 90.000000
_cell_angle_beta 90.000000
_cell_angle_gamma 90.000000
_cell_volume 2416.155793
_symmetry_space_group_name_H-M "C C C M"
_symmetry_group_IT_number 66
_symmetry_cell_setting 'orthorhombic'
loop_
_space_group_symop_operation_xyz
x,y,z
-x,-y,z
x,-y,1/2-z
-x,y,1/2-z
-x,-y,-z
x,y,-z
-x,y,1/2+z
x,-y,1/2+z
1/2+x,1/2+y,z
1/2-x,1/2-y,z
1/2+x,1/2-y,1/2-z
1/2-x,1/2+y,1/2-z
1/2-x,1/2-y,-z
1/2+x,1/2+y,-z
1/2-x,1/2+y,1/2+z
1/2+x,1/2-y,1/2+z
loop_
_atom_site_type_symbol
_atom_site_label
_atom_site_fract_x
_atom_site_fract_y
_atom_site_fract_z
Si Si1 0.900081 0.859735 0.313587
Si Si2 0.975786 0.317487 0.409261
Si Si3 0.250000 0.750000 0.727441
Si Si4 0.174932 0.105453 0.911093
O O1 0.976646 0.766480 0.339163
O O2 0.828700 0.752838 0.280330
O O3 0.911578 0.000000 0.250000
O O4 0.873705 0.949221 0.393980
O O5 0.998644 0.270119 0.500000
O O6 0.000000 0.500000 0.403240
O O7 0.885667 0.253151 0.402884
O O8 0.236101 0.888547 0.662573
O O9 0.208480 0.103405 0.000000
#
# Coordination Sequence:
#
# PCOD9498368 Si02
#       4
#    16  16   8  16
#     4  10  22  40  61  90 124 163 208 253 307 368
#     4  10  22  40  65  95 124 158 204 258 310 362
#     4  10  23  38  57  88 122 156 200 252 303 354
#     4  10  21  40  65  89 121 165 208 250 302 370
#
# _framework density 23.177312000000001
#
# number of rings (size 3 to 8) (size 9 to 14) (size 15 to 20)
#    0.000    2.000    0.000    2.143    0.000   17.143 
#    0.000   15.714    0.000    0.000    0.000    0.000 
#    0.000    0.000    0.000    0.000    0.000    0.000 
#
# Total GULP energy -156198.646133 kJ/mol
# GULP energy per Si atom -5578.523076 kJ/mol
# Density = 2.312456 g / cm^3
# Si number density = 23.177312 Si / 1000 Ang^3
#
#
#
# Elastic Constant Matrix: (Units=GPa)
#
#
# Indices 1 2 3 4 5 6 
#
# 1 91.5920 25.9722 56.0110 0.0000 0.0000 0.0000
# 2 25.9722 56.9802 42.6138 0.0000 0.0000 0.0000
# 3 56.0110 42.6138 137.4604 0.0000 0.0000 0.0000
# 4 0.0000 0.0000 0.0000 30.1227 0.0000 0.0000
# 5 0.0000 0.0000 0.0000 0.0000 30.4424 0.0000
# 6 0.0000 0.0000 0.0000 0.0000 0.0000 25.0975
#
#
#
# Elastic Compliance Matrix: (Units=1/GPa)
#
#
# Indices 1 2 3 4 5 6 
#
# 1 0.014908 -0.002932 -0.005166 0.000000 0.000000 0.000000
# 2 -0.002932 0.023424 -0.006067 0.000000 0.000000 0.000000
# 3 -0.005166 -0.006067 0.011260 0.000000 0.000000 0.000000
# 4 0.000000 0.000000 0.000000 0.033198 0.000000 0.000000
# 5 0.000000 0.000000 0.000000 0.000000 0.032849 0.000000
# 6 0.000000 0.000000 0.000000 0.000000 0.000000 0.039845
#
#
# Mechanical properties :
#
#
# Convention : Reuss Voigt Hill
#
# Bulk Modulus (GPa) = 47.02951 59.46962 53.24956
# Shear Modulus (GPa) = 26.19165 27.89490 27.04327
#
# Velocity S-wave (km/s) = 3.36528 3.47298 3.41955
# Velocity P-wave (km/s) = 5.95276 6.46501 6.21416
#
# Compressibility (1/GPa) = 0.02126324
#
# Stress axis : x y z
#
# Youngs Moduli (GPa) = 67.07618 42.69197 88.80632
#
# Poissons Ratio (x) = 0.12518 0.45875
# Poissons Ratio (y) = 0.19667 0.53877
# Poissons Ratio (z) = 0.34650 0.25900
#
# Static dielectric constant tensor:
#      x y z
#    x 1.984120 0.000000 0.000000 
#    y 0.000000 1.924400 0.000000 
#    z 0.000000 0.000000 1.912540 
# 
# From -- ./inp_files/36051.got.cif
#   From: 2010.05.17/outbox.cif.g08.bks.cpg/sg66_19_cif.got.tgz:36051.got - 2010.06.03 17:51:23.
