data_PCOD9498128
_publ_section_title
;
Structure prediction by ZEFSAII (Michael W. Deem and Ramdas Pophale) SiO2 
 PCOD9498128
Probable space group: C C C M
;
_chemical_formula_sum "Si O2"
_cell_formula_units_Z 96
_cell_length_a 18.921213
_cell_length_b 14.512763
_cell_length_c 14.381383
_cell_angle_alpha 90.000000
_cell_angle_beta 90.000000
_cell_angle_gamma 90.000000
_cell_volume 3949.114540
_symmetry_space_group_name_H-M "C C C M"
_symmetry_group_IT_number 66
_symmetry_cell_setting 'orthorhombic'
loop_
_space_group_symop_operation_xyz
x,y,z
-x,-y,z
x,-y,1/2-z
-x,y,1/2-z
-x,-y,-z
x,y,-z
-x,y,1/2+z
x,-y,1/2+z
1/2+x,1/2+y,z
1/2-x,1/2-y,z
1/2+x,1/2-y,1/2-z
1/2-x,1/2+y,1/2-z
1/2-x,1/2-y,-z
1/2+x,1/2+y,-z
1/2-x,1/2+y,1/2+z
1/2+x,1/2-y,1/2+z
loop_
_atom_site_type_symbol
_atom_site_label
_atom_site_fract_x
_atom_site_fract_y
_atom_site_fract_z
Si Si1 0.561468 0.425098 0.389470
Si Si2 0.664619 0.187065 0.393516
Si Si3 0.450654 0.288380 0.393951
Si Si4 0.206855 0.154071 0.393032
Si Si5 0.203743 0.881573 0.693477
Si Si6 0.011475 0.397972 0.140282
O O1 0.500000 0.500000 0.374305
O O2 0.577763 0.422062 0.500000
O O3 0.521770 0.332830 0.353059
O O4 0.635506 0.438978 0.338520
O O5 0.668888 0.220551 0.500000
O O6 0.727495 0.115694 0.371892
O O7 0.676932 0.275239 0.326717
O O8 0.589401 0.139252 0.380965
O O9 0.455549 0.320575 0.500000
O O10 0.374724 0.324606 0.365924
O O11 0.456511 0.179157 0.392672
O O12 0.209805 0.116780 0.500000
O O13 0.250000 0.250000 0.395784
O O14 0.230237 0.102647 0.299033
O O15 0.000000 0.500000 0.103115
O O16 0.000000 0.401026 0.250000
#
# Coordination Sequence:
#
# PCOD9498128 Si02
#       6
#    16  16  16  16  16  16
#     4  10  21  39  65 100 140 179 228 283 347 423
#     4  11  21  36  64 102 137 172 222 285 355 413
#     4  10  21  38  62  90 127 177 225 281 341 404
#     4  10  21  38  61  92 127 179 239 285 343 419
#     4  11  20  37  65  99 136 180 225 288 356 412
#     4  11  24  40  63  95 131 176 228 281 332 410
#
# _framework density 24.309248
#
# number of rings (size 3 to 8) (size 9 to 14) (size 15 to 20)
#    0.000    1.500    3.333    3.500    0.000    1.333 
#    0.000    3.333    0.000    5.500    0.000    0.000 
#    0.000    0.000    0.000    0.000    0.000    0.000 
#
# Total GULP energy -268238.608049 kJ/mol
# GULP energy per Si atom -5588.304334 kJ/mol
# Density = 2.425392 g / cm^3
# Si number density = 24.309248 Si / 1000 Ang^3
#
#
#
# Elastic Constant Matrix: (Units=GPa)
#
#
# Indices 1 2 3 4 5 6 
#
# 1 74.3038 8.2749 15.8084 0.0000 0.0000 0.0000
# 2 8.2749 80.8975 5.5247 0.0000 0.0000 0.0000
# 3 15.8084 5.5247 165.2253 0.0000 0.0000 0.0000
# 4 0.0000 0.0000 0.0000 19.3746 0.0000 0.0000
# 5 0.0000 0.0000 0.0000 0.0000 33.1062 0.0000
# 6 0.0000 0.0000 0.0000 0.0000 0.0000 35.7804
#
#
#
# Elastic Compliance Matrix: (Units=1/GPa)
#
#
# Indices 1 2 3 4 5 6 
#
# 1 0.013880 -0.001332 -0.001283 0.000000 0.000000 0.000000
# 2 -0.001332 0.012517 -0.000291 0.000000 0.000000 0.000000
# 3 -0.001283 -0.000291 0.006185 0.000000 0.000000 0.000000
# 4 0.000000 0.000000 0.000000 0.051614 0.000000 0.000000
# 5 0.000000 0.000000 0.000000 0.000000 0.030206 0.000000
# 6 0.000000 0.000000 0.000000 0.000000 0.000000 0.027948
#
#
# Mechanical properties :
#
#
# Convention : Reuss Voigt Hill
#
# Bulk Modulus (GPa) = 37.35700 42.18253 39.76976
# Shear Modulus (GPa) = 31.82964 37.04013 34.43489
#
# Velocity S-wave (km/s) = 3.62244 3.90770 3.76777
# Velocity P-wave (km/s) = 5.73558 6.14413 5.94336
#
# Compressibility (1/GPa) = 0.02676875
#
# Stress axis : x y z
#
# Youngs Moduli (GPa) = 72.04780 79.88843 161.68481
#
# Poissons Ratio (x) = 0.10642 0.20751
# Poissons Ratio (y) = 0.09597 0.04707
# Poissons Ratio (z) = 0.09247 0.02326
#
# Static dielectric constant tensor:
#      x y z
#    x 1.918110 0.000000 0.000000 
#    y 0.000000 2.047530 0.000000 
#    z 0.000000 0.000000 3.566180 
# 
# From -- ./inp_files/31199.got.cif
#   From: 2010.05.17/outbox.cif.g08.bks.cpg/sg66_16_cif.got.tgz:31199.got - 2010.06.03 17:51:23.
