data_PCOD9498925
_publ_section_title
;
Structure prediction by ZEFSAII (Michael W. Deem and Ramdas Pophale) SiO2 
 PCOD9498925
Probable space group: C C C M
;
_chemical_formula_sum "Si O2"
_cell_formula_units_Z 56
_cell_length_a 13.944663
_cell_length_b 8.465250
_cell_length_c 22.412837
_cell_angle_alpha 90.000000
_cell_angle_beta 90.000000
_cell_angle_gamma 90.000000
_cell_volume 2645.724654
_symmetry_space_group_name_H-M "C C C M"
_symmetry_group_IT_number 66
_symmetry_cell_setting 'orthorhombic'
loop_
_space_group_symop_operation_xyz
x,y,z
-x,-y,z
x,-y,1/2-z
-x,y,1/2-z
-x,-y,-z
x,y,-z
-x,y,1/2+z
x,-y,1/2+z
1/2+x,1/2+y,z
1/2-x,1/2-y,z
1/2+x,1/2-y,1/2-z
1/2-x,1/2+y,1/2-z
1/2-x,1/2-y,-z
1/2+x,1/2+y,-z
1/2-x,1/2+y,1/2+z
1/2+x,1/2-y,1/2+z
loop_
_atom_site_type_symbol
_atom_site_label
_atom_site_fract_x
_atom_site_fract_y
_atom_site_fract_z
Si Si1 0.252297 0.000000 0.750000
Si Si2 0.022025 0.316651 0.000000
Si Si3 0.151253 0.843415 0.596361
Si Si4 0.606681 0.260080 0.275564
Si Si5 0.830564 0.884265 0.500000
O O1 0.330505 0.898974 0.712121
O O2 0.175292 0.863972 0.768072
O O3 0.082086 0.265531 0.942687
O O4 0.000000 0.500000 0.000000
O O5 0.928834 0.209788 0.000000
O O6 0.250000 0.750000 0.600793
O O7 0.106949 0.855569 0.662233
O O8 0.170030 0.001908 0.558166
O O9 0.500000 0.235008 0.250000
O O10 0.750000 0.750000 0.500000
#
# Coordination Sequence:
#
# PCOD9498925 Si02
#       5
#     8   8  16  16   8
#     4  10  22  44  62  98 138 182 244 284 348 434
#     4  11  24  41  70 108 140 181 238 291 368 440
#     4  11  22  45  69  99 146 183 236 304 360 433
#     4  11  24  44  70  99 143 192 240 296 360 425
#     4  11  24  45  70 108 138 187 246 293 374 442
#
# _framework density 21.166224
#
# number of rings (size 3 to 8) (size 9 to 14) (size 15 to 20)
#    0.000    1.143    2.857    6.000    0.000    6.857 
#   10.286    0.000    0.000    0.000    0.000    0.000 
#    0.000    0.000    0.000    0.000    0.000    0.000 
#
# Total GULP energy -155943.771799 kJ/mol
# GULP energy per Si atom -5569.420421 kJ/mol
# Density = 2.111805 g / cm^3
# Si number density = 21.166224 Si / 1000 Ang^3
#
#
#
# Elastic Constant Matrix: (Units=GPa)
#
#
# Indices 1 2 3 4 5 6 
#
# 1 193.3727 51.3137 57.3103 0.0000 0.0000 0.0000
# 2 51.3137 128.3141 59.1543 0.0000 0.0000 0.0000
# 3 57.3103 59.1543 121.0462 0.0000 0.0000 0.0000
# 4 0.0000 0.0000 0.0000 12.7040 0.0000 0.0000
# 5 0.0000 0.0000 0.0000 0.0000 32.4684 0.0000
# 6 0.0000 0.0000 0.0000 0.0000 0.0000 45.3781
#
#
#
# Elastic Compliance Matrix: (Units=1/GPa)
#
#
# Indices 1 2 3 4 5 6 
#
# 1 0.006220 -0.001458 -0.002232 0.000000 0.000000 0.000000
# 2 -0.001458 0.010402 -0.004393 0.000000 0.000000 0.000000
# 3 -0.002232 -0.004393 0.011465 0.000000 0.000000 0.000000
# 4 0.000000 0.000000 0.000000 0.078715 0.000000 0.000000
# 5 0.000000 0.000000 0.000000 0.000000 0.030799 0.000000
# 6 0.000000 0.000000 0.000000 0.000000 0.000000 0.022037
#
#
# Mechanical properties :
#
#
# Convention : Reuss Voigt Hill
#
# Bulk Modulus (GPa) = 83.89335 86.47663 85.18499
# Shear Modulus (GPa) = 27.81210 36.44042 32.12626
#
# Velocity S-wave (km/s) = 3.62883 4.15376 3.90013
# Velocity P-wave (km/s) = 7.56831 7.99685 7.78553
#
# Compressibility (1/GPa) = 0.01191990
#
# Stress axis : x y z
#
# Youngs Moduli (GPa) = 160.77424 96.13828 87.22298
#
# Poissons Ratio (x) = 0.14020 0.19470
# Poissons Ratio (y) = 0.23446 0.38315
# Poissons Ratio (z) = 0.35888 0.42231
#
# Static dielectric constant tensor:
#      x y z
#    x 1.729510 0.000000 0.000000 
#    y 0.000000 1.788900 0.000000 
#    z 0.000000 0.000000 1.798040 
# 
# From -- ./inp_files/64210.got.cif
#   From: 2010.05.17/outbox.cif.g08.bks.cpg/sg66_33_cif.got.tgz:64210.got - 2010.06.03 17:51:23.
