data_PCOD9498185
_publ_section_title
;
Structure prediction by ZEFSAII (Michael W. Deem and Ramdas Pophale) SiO2 
 PCOD9498185
Probable space group: C C C M
;
_chemical_formula_sum "Si O2"
_cell_formula_units_Z 116
_cell_length_a 29.614920
_cell_length_b 12.223881
_cell_length_c 16.998621
_cell_angle_alpha 90.000000
_cell_angle_beta 90.000000
_cell_angle_gamma 90.000000
_cell_volume 6153.658174
_symmetry_space_group_name_H-M "C C C M"
_symmetry_group_IT_number 66
_symmetry_cell_setting 'orthorhombic'
loop_
_space_group_symop_operation_xyz
x,y,z
-x,-y,z
x,-y,1/2-z
-x,y,1/2-z
-x,-y,-z
x,y,-z
-x,y,1/2+z
x,-y,1/2+z
1/2+x,1/2+y,z
1/2-x,1/2-y,z
1/2+x,1/2-y,1/2-z
1/2-x,1/2+y,1/2-z
1/2-x,1/2-y,-z
1/2+x,1/2+y,-z
1/2-x,1/2+y,1/2+z
1/2+x,1/2-y,1/2+z
loop_
_atom_site_type_symbol
_atom_site_label
_atom_site_fract_x
_atom_site_fract_y
_atom_site_fract_z
Si Si1 0.205687 0.579534 0.129438
Si Si2 0.750000 0.250000 0.000000
Si Si3 0.535313 0.653460 0.407703
Si Si4 0.568387 0.573828 0.092050
Si Si5 0.785174 0.654599 0.189422
Si Si6 0.602676 0.009496 0.912116
Si Si7 0.047306 0.643573 0.793516
Si Si8 0.886531 0.283828 0.655529
O O1 0.229534 0.663473 0.069022
O O2 0.223757 0.454074 0.136839
O O3 0.212241 0.622900 0.218304
O O4 0.152160 0.560232 0.109192
O O5 0.545006 0.672828 0.500000
O O6 0.565801 0.551218 0.379280
O O7 0.483062 0.617246 0.402315
O O8 0.541349 0.757810 0.354695
O O9 0.599636 0.661792 0.133148
O O10 0.580057 0.569779 0.000000
O O11 0.750000 0.750000 0.175704
O O12 0.834135 0.702164 0.170545
O O13 0.567395 0.046421 0.845861
O O14 0.603285 0.877804 0.908703
O O15 0.590485 0.046038 0.000000
O O16 0.084589 0.680640 0.730964
O O17 0.000000 0.624132 0.750000
#
# Coordination Sequence:
#
# PCOD9498185 Si02
#       8
#    16   4  16  16  16  16  16  16
#     4  10  21  38  69  98 125 170 214 262 331 389
#     4  12  20  40  74 104 124 160 226 272 312 406
#     4   9  19  37  59  82 116 160 202 246 307 367
#     4   9  18  37  60  83 114 159 208 251 301 371
#     4  10  21  42  65  92 132 170 209 263 328 398
#     4  11  23  41  62  88 124 167 208 253 322 384
#     4  12  23  38  58  90 126 158 208 264 307 363
#     4  11  22  38  62  88 121 163 208 253 312 379
#
# _framework density 18.850577000000001
#
# number of rings (size 3 to 8) (size 9 to 14) (size 15 to 20)
#    0.000    1.655    4.138    2.069    0.000    1.655 
#    0.000    5.172    3.034    0.000    0.000    0.000 
#    0.000    0.000    0.000    0.000    0.000    0.000 
#
# Total GULP energy -323030.255719 kJ/mol
# GULP energy per Si atom -5569.487168 kJ/mol
# Density = 1.880767 g / cm^3
# Si number density = 18.850577 Si / 1000 Ang^3
#
#
#
# Elastic Constant Matrix: (Units=GPa)
#
#
# Indices 1 2 3 4 5 6 
#
# 1 82.4767 60.2733 40.2937 0.0000 0.0000 0.0000
# 2 60.2733 133.0910 51.7648 0.0000 0.0000 0.0000
# 3 40.2937 51.7648 81.7567 0.0000 0.0000 0.0000
# 4 0.0000 0.0000 0.0000 24.0069 0.0000 0.0000
# 5 0.0000 0.0000 0.0000 0.0000 16.4548 0.0000
# 6 0.0000 0.0000 0.0000 0.0000 0.0000 36.0895
#
#
#
# Elastic Compliance Matrix: (Units=1/GPa)
#
#
# Indices 1 2 3 4 5 6 
#
# 1 0.019774 -0.006852 -0.005407 0.000000 0.000000 0.000000
# 2 -0.006852 0.012343 -0.004438 0.000000 0.000000 0.000000
# 3 -0.005407 -0.004438 0.017706 0.000000 0.000000 0.000000
# 4 0.000000 0.000000 0.000000 0.041655 0.000000 0.000000
# 5 0.000000 0.000000 0.000000 0.000000 0.060773 0.000000
# 6 0.000000 0.000000 0.000000 0.000000 0.000000 0.027709
#
#
# Mechanical properties :
#
#
# Convention : Reuss Voigt Hill
#
# Bulk Modulus (GPa) = 60.86901 66.88756 63.87829
# Shear Modulus (GPa) = 22.84891 24.97641 23.91266
#
# Velocity S-wave (km/s) = 3.48531 3.64396 3.56552
# Velocity P-wave (km/s) = 6.96828 7.29826 7.13518
#
# Compressibility (1/GPa) = 0.01642872
#
# Stress axis : x y z
#
# Youngs Moduli (GPa) = 50.57268 81.01889 56.47727
#
# Poissons Ratio (x) = 0.55513 0.30538
# Poissons Ratio (y) = 0.34652 0.25065
# Poissons Ratio (z) = 0.27345 0.35956
#
# Static dielectric constant tensor:
#      x y z
#    x 1.626870 0.000000 0.000000 
#    y 0.000000 1.696220 0.000000 
#    z 0.000000 0.000000 1.654260 
# 
# From -- ./inp_files/44775.got.cif
#   From: 2010.05.17/outbox.cif.g08.bks.cpg/sg66_23_cif.got.tgz:44775.got - 2010.06.03 17:51:23.
