data_PCOD9498936
_publ_section_title
;
Structure prediction by ZEFSAII (Michael W. Deem and Ramdas Pophale) SiO2 
 PCOD9498936
Probable space group: C C C M
;
_chemical_formula_sum "Si O2"
_cell_formula_units_Z 72
_cell_length_a 15.659252
_cell_length_b 7.755000
_cell_length_c 27.166031
_cell_angle_alpha 90.000000
_cell_angle_beta 90.000000
_cell_angle_gamma 90.000000
_cell_volume 3298.974869
_symmetry_space_group_name_H-M "C C C M"
_symmetry_group_IT_number 66
_symmetry_cell_setting 'orthorhombic'
loop_
_space_group_symop_operation_xyz
x,y,z
-x,-y,z
x,-y,1/2-z
-x,y,1/2-z
-x,-y,-z
x,y,-z
-x,y,1/2+z
x,-y,1/2+z
1/2+x,1/2+y,z
1/2-x,1/2-y,z
1/2+x,1/2-y,1/2-z
1/2-x,1/2+y,1/2-z
1/2-x,1/2-y,-z
1/2+x,1/2+y,-z
1/2-x,1/2+y,1/2+z
1/2+x,1/2-y,1/2+z
loop_
_atom_site_type_symbol
_atom_site_label
_atom_site_fract_x
_atom_site_fract_y
_atom_site_fract_z
Si Si1 0.750000 0.250000 0.422712
Si Si2 0.649949 0.441005 0.899174
Si Si3 0.390580 0.156120 0.000000
Si Si4 0.657015 0.000000 0.250000
Si Si5 0.750000 0.250000 0.823748
Si Si6 0.412307 0.741968 0.000000
Si Si7 0.000000 0.260011 0.750000
Si Si8 0.500000 0.500000 0.164614
O O1 0.731086 0.432311 0.398379
O O2 0.664789 0.222724 0.454513
O O3 0.673477 0.292256 0.861001
O O4 0.623581 0.358514 0.951709
O O5 0.575173 0.546602 0.872632
O O6 0.484376 0.241109 0.000000
O O7 0.388300 0.946519 0.000000
O O8 0.718191 0.906227 0.289144
O O9 0.585941 0.859522 0.233043
O O10 0.025014 0.148700 0.702720
#
# Coordination Sequence:
#
# PCOD9498936 Si02
#       8
#     8  16   8   8   8   8   8   8
#     4  11  24  39  68  99 136 181 242 301 350 403
#     4  12  26  44  69 106 146 190 241 293 358 429
#     4  10  22  44  68  94 132 198 240 295 344 399
#     4  11  26  48  72 103 142 180 236 299 370 432
#     4  12  28  44  74 109 138 190 228 311 364 430
#     4  11  24  47  68 100 152 197 242 285 343 434
#     4  10  24  50  72  98 144 186 234 304 358 444
#     4  11  24  45  72 106 134 197 238 291 366 434
#
# _framework density 21.824960000000001
#
# number of rings (size 3 to 8) (size 9 to 14) (size 15 to 20)
#    0.000    0.889    2.222    4.000    6.222    2.667 
#    8.000    0.000    0.000    0.000    0.000    0.000 
#    0.000    0.000    0.000    0.000    0.000    0.000 
#
# Total GULP energy -200691.499010 kJ/mol
# GULP energy per Si atom -5574.763861 kJ/mol
# Density = 2.177529 g / cm^3
# Si number density = 21.824960 Si / 1000 Ang^3
#
#
#
# Elastic Constant Matrix: (Units=GPa)
#
#
# Indices 1 2 3 4 5 6 
#
# 1 79.9164 23.8430 48.7059 0.0000 0.0000 0.0000
# 2 23.8430 96.3613 60.9516 0.0000 0.0000 0.0000
# 3 48.7059 60.9516 154.9642 0.0000 0.0000 0.0000
# 4 0.0000 0.0000 0.0000 -5.4815 0.0000 0.0000
# 5 0.0000 0.0000 0.0000 0.0000 66.6050 0.0000
# 6 0.0000 0.0000 0.0000 0.0000 0.0000 36.5198
#
#
#
# Elastic Compliance Matrix: (Units=1/GPa)
#
#
# Indices 1 2 3 4 5 6 
#
# 1 0.015551 -0.001007 -0.004492 0.000000 0.000000 0.000000
# 2 -0.001007 0.013880 -0.005143 0.000000 0.000000 0.000000
# 3 -0.004492 -0.005143 0.009888 0.000000 0.000000 0.000000
# 4 0.000000 0.000000 0.000000 -0.182431 0.000000 0.000000
# 5 0.000000 0.000000 0.000000 0.000000 0.015014 0.000000
# 6 0.000000 0.000000 0.000000 0.000000 0.000000 0.027382
#
#
# Mechanical properties :
#
#
# Convention : Reuss Voigt Hill
#
# Bulk Modulus (GPa) = 55.44524 66.47144 60.95834
# Shear Modulus (GPa) = -68.10019 32.71139 -17.69440
#
# Velocity S-wave (km/s) = -5.59202 3.87564 -2.85044
# Velocity P-wave (km/s) = 4.02921 7.10987 4.14220
#
# Compressibility (1/GPa) = 0.01803581
#
# Stress axis : x y z
#
# Youngs Moduli (GPa) = 64.30457 72.04753 101.13543
#
# Poissons Ratio (x) = 0.07252 0.45428
# Poissons Ratio (y) = 0.06473 0.52013
# Poissons Ratio (z) = 0.28884 0.37053
#
# Static dielectric constant tensor:
#      x y z
#    x 2.248560 0.000000 0.000000 
#    y 0.000000 1.894590 0.000000 
#    z 0.000000 0.000000 1.766890 
# 
# From -- ./inp_files/64408.got.cif
#   From: 2010.05.17/outbox.cif.g08.bks.cpg/sg66_33_cif.got.tgz:64408.got - 2010.06.03 17:51:23.
