data_PCOD9498429
_publ_section_title
;
Structure prediction by ZEFSAII (Michael W. Deem and Ramdas Pophale) SiO2 
 PCOD9498429
Probable space group: C C C M
;
_chemical_formula_sum "Si O2"
_cell_formula_units_Z 96
_cell_length_a 12.095279
_cell_length_b 23.599596
_cell_length_c 17.004845
_cell_angle_alpha 90.000000
_cell_angle_beta 90.000000
_cell_angle_gamma 90.000000
_cell_volume 4853.925839
_symmetry_space_group_name_H-M "C C C M"
_symmetry_group_IT_number 66
_symmetry_cell_setting 'orthorhombic'
loop_
_space_group_symop_operation_xyz
x,y,z
-x,-y,z
x,-y,1/2-z
-x,y,1/2-z
-x,-y,-z
x,y,-z
-x,y,1/2+z
x,-y,1/2+z
1/2+x,1/2+y,z
1/2-x,1/2-y,z
1/2+x,1/2-y,1/2-z
1/2-x,1/2+y,1/2-z
1/2-x,1/2-y,-z
1/2+x,1/2+y,-z
1/2-x,1/2+y,1/2+z
1/2+x,1/2-y,1/2+z
loop_
_atom_site_type_symbol
_atom_site_label
_atom_site_fract_x
_atom_site_fract_y
_atom_site_fract_z
Si Si1 0.338101 0.707592 0.590006
Si Si2 0.126734 0.492750 0.843035
Si Si3 0.644641 0.874175 0.913600
Si Si4 0.776397 0.604673 0.405681
Si Si5 0.411493 0.304558 0.594879
Si Si6 0.949543 0.311499 0.836845
O O1 0.354907 0.729296 0.500000
O O2 0.250000 0.750000 0.631252
O O3 0.265870 0.651593 0.584839
O O4 0.459214 0.692335 0.620197
O O5 0.130387 0.500000 0.750000
O O6 0.149071 0.427247 0.857775
O O7 0.208059 0.538447 0.883964
O O8 0.000000 0.500000 0.871388
O O9 0.556747 0.825889 0.889930
O O10 0.612447 0.894663 0.000000
O O11 0.796119 0.611447 0.500000
O O12 0.664019 0.640538 0.387448
O O13 0.869650 0.635823 0.353516
O O14 0.405012 0.297537 0.500000
O O15 0.383806 0.244428 0.635464
O O16 0.000000 0.306961 0.750000
#
# Coordination Sequence:
#
# PCOD9498429 Si02
#       6
#    16  16  16  16  16  16
#     4   9  17  34  61  90 117 151 200 253 303 358
#     4  11  23  40  60  89 124 163 204 259 317 374
#     4  11  21  36  63  90 114 154 209 254 298 364
#     4  11  23  40  65  92 125 167 214 264 317 374
#     4  10  21  41  63  89 124 164 211 260 308 368
#     4  12  23  37  56  92 129 164 196 253 318 382
#
# _framework density 19.777805000000001
#
# number of rings (size 3 to 8) (size 9 to 14) (size 15 to 20)
#    0.000    1.333    3.333    3.500    0.000    2.000 
#    9.000    0.833    0.000    5.000    0.000    0.000 
#    0.000    0.000    0.000    0.000    0.000    0.000 
#
# Total GULP energy -267475.935061 kJ/mol
# GULP energy per Si atom -5572.415314 kJ/mol
# Density = 1.973279 g / cm^3
# Si number density = 19.777805 Si / 1000 Ang^3
#
#
#
# Elastic Constant Matrix: (Units=GPa)
#
#
# Indices 1 2 3 4 5 6 
#
# 1 86.8561 28.4427 14.6716 0.0000 0.0000 0.0000
# 2 28.4427 87.7406 22.7838 0.0000 0.0000 0.0000
# 3 14.6716 22.7838 61.0279 0.0000 0.0000 0.0000
# 4 0.0000 0.0000 0.0000 -45.4585 0.0000 0.0000
# 5 0.0000 0.0000 0.0000 0.0000 -13.9897 0.0000
# 6 0.0000 0.0000 0.0000 0.0000 0.0000 34.5708
#
#
#
# Elastic Compliance Matrix: (Units=1/GPa)
#
#
# Indices 1 2 3 4 5 6 
#
# 1 0.013042 -0.003780 -0.001724 0.000000 0.000000 0.000000
# 2 -0.003780 0.013716 -0.004212 0.000000 0.000000 0.000000
# 3 -0.001724 -0.004212 0.018373 0.000000 0.000000 0.000000
# 4 0.000000 0.000000 0.000000 -0.021998 0.000000 0.000000
# 5 0.000000 0.000000 0.000000 0.000000 -0.071481 0.000000
# 6 0.000000 0.000000 0.000000 0.000000 0.000000 0.028926
#
#
# Mechanical properties :
#
#
# Convention : Reuss Voigt Hill
#
# Bulk Modulus (GPa) = 38.91217 40.82455 39.86836
# Shear Modulus (GPa) = 582.89098 6.33963 294.61530
#
# Velocity S-wave (km/s) = 17.18603 1.79231 12.21826
# Velocity P-wave (km/s) = 20.33544 4.99696 14.80709
#
# Compressibility (1/GPa) = 0.02569890
#
# Stress axis : x y z
#
# Youngs Moduli (GPa) = 76.67264 72.90540 54.42783
#
# Poissons Ratio (x) = 0.27560 0.09385
# Poissons Ratio (y) = 0.28984 0.22925
# Poissons Ratio (z) = 0.13220 0.30708
#
# Static dielectric constant tensor:
#      x y z
#    x 1.731930 0.000000 0.000000 
#    y 0.000000 1.720370 0.000000 
#    z 0.000000 0.000000 1.893540 
# 
# From -- ./inp_files/38828.got.cif
#   From: 2010.05.17/outbox.cif.g08.bks.cpg/sg66_20_cif.got.tgz:38828.got - 2010.06.03 17:51:23.
