data_PCOD9498369
_publ_section_title
;
Structure prediction by ZEFSAII (Michael W. Deem and Ramdas Pophale) SiO2 
 PCOD9498369
Probable space group: C C C M
;
_chemical_formula_sum "Si O2"
_cell_formula_units_Z 64
_cell_length_a 6.395286
_cell_length_b 19.342140
_cell_length_c 25.236881
_cell_angle_alpha 90.000000
_cell_angle_beta 90.000000
_cell_angle_gamma 90.000000
_cell_volume 3121.764757
_symmetry_space_group_name_H-M "C C C M"
_symmetry_group_IT_number 66
_symmetry_cell_setting 'orthorhombic'
loop_
_space_group_symop_operation_xyz
x,y,z
-x,-y,z
x,-y,1/2-z
-x,y,1/2-z
-x,-y,-z
x,y,-z
-x,y,1/2+z
x,-y,1/2+z
1/2+x,1/2+y,z
1/2-x,1/2-y,z
1/2+x,1/2-y,1/2-z
1/2-x,1/2+y,1/2-z
1/2-x,1/2-y,-z
1/2+x,1/2+y,-z
1/2-x,1/2+y,1/2+z
1/2+x,1/2-y,1/2+z
loop_
_atom_site_type_symbol
_atom_site_label
_atom_site_fract_x
_atom_site_fract_y
_atom_site_fract_z
Si Si1 0.623634 0.437874 0.346344
Si Si2 0.619819 0.814513 0.799077
Si Si3 0.250000 0.250000 0.375119
Si Si4 0.500000 0.000000 0.408646
Si Si5 0.325024 0.389130 0.560334
O O1 0.500000 0.500000 0.316580
O O2 0.702807 0.367452 0.319600
O O3 0.482979 0.422219 0.397718
O O4 0.834614 0.467017 0.369728
O O5 0.500000 0.848795 0.750000
O O6 0.750000 0.750000 0.777374
O O7 0.445764 0.781600 0.839940
O O8 0.297004 0.313692 0.414368
O O9 0.381150 0.061842 0.438996
O O10 0.402771 0.386311 0.500000
#
# Coordination Sequence:
#
# PCOD9498369 Si02
#       5
#    16  16   8   8  16
#     4  10  23  43  68  95 136 168 217 275 324 392
#     4  12  24  44  74  97 124 174 224 276 336 398
#     4  12  23  42  66  98 136 168 217 276 326 390
#     4  10  21  40  65  90 136 178 219 260 325 384
#     4  11  23  39  65  98 134 175 220 265 327 396
#
# _framework density 20.501224000000001
#
# number of rings (size 3 to 8) (size 9 to 14) (size 15 to 20)
#    0.000    1.000    6.250    0.750    0.000    5.500 
#    0.000    1.875    5.500    0.000    0.000    0.000 
#    0.000    0.000    0.000    0.000    0.000    0.000 
#
# Total GULP energy -178164.001458 kJ/mol
# GULP energy per Si atom -5567.625046 kJ/mol
# Density = 2.045456 g / cm^3
# Si number density = 20.501224 Si / 1000 Ang^3
#
#
#
# Elastic Constant Matrix: (Units=GPa)
#
#
# Indices 1 2 3 4 5 6 
#
# 1 89.9870 43.5925 26.2167 0.0000 0.0000 0.0000
# 2 43.5925 141.0866 40.1550 0.0000 0.0000 0.0000
# 3 26.2167 40.1550 84.0581 0.0000 0.0000 0.0000
# 4 0.0000 0.0000 0.0000 11.9873 0.0000 0.0000
# 5 0.0000 0.0000 0.0000 0.0000 -0.0259 0.0000
# 6 0.0000 0.0000 0.0000 0.0000 0.0000 33.4674
#
#
#
# Elastic Compliance Matrix: (Units=1/GPa)
#
#
# Indices 1 2 3 4 5 6 
#
# 1 0.013533 -0.003449 -0.002573 0.000000 0.000000 0.000000
# 2 -0.003449 0.009082 -0.003263 0.000000 0.000000 0.000000
# 3 -0.002573 -0.003263 0.014258 0.000000 0.000000 0.000000
# 4 0.000000 0.000000 0.000000 0.083421 0.000000 0.000000
# 5 0.000000 0.000000 0.000000 0.000000-38.654035 0.000000
# 6 0.000000 0.000000 0.000000 0.000000 0.000000 0.029880
#
#
# Mechanical properties :
#
#
# Convention : Reuss Voigt Hill
#
# Bulk Modulus (GPa) = 54.63629 59.45111 57.04370
# Shear Modulus (GPa) = -0.12994 22.76361 11.31683
#
# Velocity S-wave (km/s) = -0.25203 3.33581 2.35203
# Velocity P-wave (km/s) = 5.15979 6.62560 5.93810
#
# Compressibility (1/GPa) = 0.01830285
#
# Stress axis : x y z
#
# Youngs Moduli (GPa) = 73.89213 110.10560 70.13713
#
# Poissons Ratio (x) = 0.37976 0.18048
# Poissons Ratio (y) = 0.25486 0.22885
# Poissons Ratio (z) = 0.19014 0.35926
#
# Static dielectric constant tensor:
#      x y z
#    x 1.762610 0.000000 0.000000 
#    y 0.000000 1.689900 0.000000 
#    z 0.000000 0.000000 1.717460 
# 
# From -- ./inp_files/61277.got.cif
#   From: 2010.05.17/outbox.cif.g08.bks.cpg/sg66_31_cif.got.tgz:61277.got - 2010.06.03 17:51:23.
