data_PCOD9498940
_publ_section_title
;
Structure prediction by ZEFSAII (Michael W. Deem and Ramdas Pophale) SiO2 
 PCOD9498940
Probable space group: C C C M
;
_chemical_formula_sum "Si O2"
_cell_formula_units_Z 104
_cell_length_a 17.604337
_cell_length_b 12.128027
_cell_length_c 25.735926
_cell_angle_alpha 90.000000
_cell_angle_beta 90.000000
_cell_angle_gamma 90.000000
_cell_volume 5494.771385
_symmetry_space_group_name_H-M "C C C M"
_symmetry_group_IT_number 66
_symmetry_cell_setting 'orthorhombic'
loop_
_space_group_symop_operation_xyz
x,y,z
-x,-y,z
x,-y,1/2-z
-x,y,1/2-z
-x,-y,-z
x,y,-z
-x,y,1/2+z
x,-y,1/2+z
1/2+x,1/2+y,z
1/2-x,1/2-y,z
1/2+x,1/2-y,1/2-z
1/2-x,1/2+y,1/2-z
1/2-x,1/2-y,-z
1/2+x,1/2+y,-z
1/2-x,1/2+y,1/2+z
1/2+x,1/2-y,1/2+z
loop_
_atom_site_type_symbol
_atom_site_label
_atom_site_fract_x
_atom_site_fract_y
_atom_site_fract_z
Si Si1 0.000000 0.000000 0.648877
Si Si2 0.149797 0.913710 0.204071
Si Si3 0.055755 0.773030 0.628351
Si Si4 0.356461 0.203802 0.771917
Si Si5 0.319461 0.163667 0.940891
Si Si6 0.055207 0.604364 0.817504
Si Si7 0.208747 0.515284 0.343871
O O1 0.065216 0.062038 0.682550
O O2 0.963971 0.100735 0.617303
O O3 0.166053 0.793826 0.228723
O O4 0.158572 0.000000 0.250000
O O5 0.214327 0.948470 0.163776
O O6 0.109988 0.770699 0.679382
O O7 0.103916 0.717576 0.582630
O O8 0.984373 0.699624 0.647996
O O9 0.422567 0.140382 0.740934
O O10 0.302621 0.112076 0.799267
O O11 0.250000 0.250000 0.940325
O O12 0.296018 0.071802 0.899511
O O13 0.330786 0.126269 0.000000
O O14 0.136512 0.563941 0.838401
O O15 0.000000 0.500000 0.820501
#
# Coordination Sequence:
#
# PCOD9498940 Si02
#       7
#     8  16  16  16  16  16  16
#     4  12  23  40  57  86 132 170 209 244 309 372
#     4  12  24  37  54  87 127 173 207 243 305 374
#     4  11  23  38  62  88 125 163 213 253 308 379
#     4  11  23  36  55  86 130 170 205 246 295 382
#     4  10  22  44  69  91 115 157 214 277 328 365
#     4  12  22  37  60  90 127 170 203 246 308 364
#     4  11  26  39  59  90 128 162 215 265 308 368
#
# _framework density 18.927084000000001
#
# number of rings (size 3 to 8) (size 9 to 14) (size 15 to 20)
#    0.000    0.769    6.154    3.000    4.308    1.846 
#    0.000    1.923    0.000    0.923    0.000    1.077 
#    0.000    0.000    0.000    0.000    0.000    0.000 
#
# Total GULP energy -290368.711093 kJ/mol
# GULP energy per Si atom -5584.013675 kJ/mol
# Density = 1.888401 g / cm^3
# Si number density = 18.927084 Si / 1000 Ang^3
#
#
#
# Elastic Constant Matrix: (Units=GPa)
#
#
# Indices 1 2 3 4 5 6 
#
# 1 101.4526 32.4132 42.0746 0.0000 0.0000 0.0000
# 2 32.4132 107.7864 34.2299 0.0000 0.0000 0.0000
# 3 42.0746 34.2299 109.1570 0.0000 0.0000 0.0000
# 4 0.0000 0.0000 0.0000 0.8618 0.0000 0.0000
# 5 0.0000 0.0000 0.0000 0.0000 9.8262 0.0000
# 6 0.0000 0.0000 0.0000 0.0000 0.0000 33.4180
#
#
#
# Elastic Compliance Matrix: (Units=1/GPa)
#
#
# Indices 1 2 3 4 5 6 
#
# 1 0.012281 -0.002432 -0.003971 0.000000 0.000000 0.000000
# 2 -0.002432 0.010785 -0.002445 0.000000 0.000000 0.000000
# 3 -0.003971 -0.002445 0.011458 0.000000 0.000000 0.000000
# 4 0.000000 0.000000 0.000000 1.160300 0.000000 0.000000
# 5 0.000000 0.000000 0.000000 0.000000 0.101769 0.000000
# 6 0.000000 0.000000 0.000000 0.000000 0.000000 0.029924
#
#
# Mechanical properties :
#
#
# Convention : Reuss Voigt Hill
#
# Bulk Modulus (GPa) = 59.42094 59.53682 59.47888
# Shear Modulus (GPa) = 3.70419 22.79975 13.25197
#
# Velocity S-wave (km/s) = 1.40048 3.47451 2.64892
# Velocity P-wave (km/s) = 5.83763 6.90076 6.39134
#
# Compressibility (1/GPa) = 0.01682908
#
# Stress axis : x y z
#
# Youngs Moduli (GPa) = 81.42898 92.71878 87.27260
#
# Poissons Ratio (x) = 0.22549 0.34656
# Poissons Ratio (y) = 0.19803 0.21336
# Poissons Ratio (z) = 0.32335 0.22667
#
# Static dielectric constant tensor:
#      x y z
#    x 1.788260 0.000000 0.000000 
#    y 0.000000 1.704200 0.000000 
#    z 0.000000 0.000000 1.638730 
# 
# From -- ./inp_files/65264.got.cif
#   From: 2010.05.17/outbox.cif.g08.bks.cpg/sg66_33_cif.got.tgz:65264.got - 2010.06.03 17:51:23.
