data_PCOD9498447
_publ_section_title
;
Structure prediction by ZEFSAII (Michael W. Deem and Ramdas Pophale) SiO2 
 PCOD9498447
Probable space group: C C C M
;
_chemical_formula_sum "Si O2"
_cell_formula_units_Z 64
_cell_length_a 11.761689
_cell_length_b 10.008292
_cell_length_c 22.778552
_cell_angle_alpha 90.000000
_cell_angle_beta 90.000000
_cell_angle_gamma 90.000000
_cell_volume 2681.363990
_symmetry_space_group_name_H-M "C C C M"
_symmetry_group_IT_number 66
_symmetry_cell_setting 'orthorhombic'
loop_
_space_group_symop_operation_xyz
x,y,z
-x,-y,z
x,-y,1/2-z
-x,y,1/2-z
-x,-y,-z
x,y,-z
-x,y,1/2+z
x,-y,1/2+z
1/2+x,1/2+y,z
1/2-x,1/2-y,z
1/2+x,1/2-y,1/2-z
1/2-x,1/2+y,1/2-z
1/2-x,1/2-y,-z
1/2+x,1/2+y,-z
1/2-x,1/2+y,1/2+z
1/2+x,1/2-y,1/2+z
loop_
_atom_site_type_symbol
_atom_site_label
_atom_site_fract_x
_atom_site_fract_y
_atom_site_fract_z
Si Si1 0.789693 0.537760 0.000000
Si Si2 0.847030 0.943591 0.314798
Si Si3 0.564295 0.689070 0.000000
Si Si4 0.958672 0.195244 0.629181
Si Si5 0.633329 0.979626 0.127760
O O1 0.828380 0.477733 0.062039
O O2 0.655708 0.568824 0.000000
O O3 0.858254 0.678030 0.000000
O O4 0.887586 0.061685 0.358392
O O5 0.713633 0.939916 0.328078
O O6 0.865986 0.000000 0.250000
O O7 0.930687 0.820826 0.329421
O O8 0.500530 0.693017 0.938404
O O9 0.871183 0.318339 0.636492
O O10 0.500000 0.000000 0.134478
#
# Coordination Sequence:
#
# PCOD9498447 Si02
#       5
#     8  16   8  16  16
#     4   9  17  35  63  92 127 157 192 262 315 373
#     4  11  24  43  62  88 123 168 216 262 305 358
#     4   9  16  32  68  96 115 155 206 255 318 376
#     4  10  21  41  66  94 121 157 208 263 310 371
#     4  11  23  41  63  95 128 163 204 251 323 384
#
# _framework density 23.868448999999998
#
# number of rings (size 3 to 8) (size 9 to 14) (size 15 to 20)
#    0.000    1.750    2.500    2.625    0.000    4.500 
#   13.500    0.000    0.000    6.000    0.000    0.000 
#    0.000    0.000    0.000    0.000    0.000    0.000 
#
# Total GULP energy -178561.392381 kJ/mol
# GULP energy per Si atom -5580.043512 kJ/mol
# Density = 2.381412 g / cm^3
# Si number density = 23.868449 Si / 1000 Ang^3
#
#
#
# Elastic Constant Matrix: (Units=GPa)
#
#
# Indices 1 2 3 4 5 6 
#
# 1 134.0420 4.3704 42.4717 0.0000 0.0000 0.0000
# 2 4.3704 37.8002 -7.1768 0.0000 0.0000 0.0000
# 3 42.4717 -7.1768 146.1954 0.0000 0.0000 0.0000
# 4 0.0000 0.0000 0.0000 -16.2315 0.0000 0.0000
# 5 0.0000 0.0000 0.0000 0.0000 -299.8751 0.0000
# 6 0.0000 0.0000 0.0000 0.0000 0.0000 36.0172
#
#
#
# Elastic Compliance Matrix: (Units=1/GPa)
#
#
# Indices 1 2 3 4 5 6 
#
# 1 0.008293 -0.001429 -0.002479 0.000000 0.000000 0.000000
# 2 -0.001429 0.026950 0.001738 0.000000 0.000000 0.000000
# 3 -0.002479 0.001738 0.007646 0.000000 0.000000 0.000000
# 4 0.000000 0.000000 0.000000 -0.061609 0.000000 0.000000
# 5 0.000000 0.000000 0.000000 0.000000 -0.003335 0.000000
# 6 0.000000 0.000000 0.000000 0.000000 0.000000 0.027764
#
#
# Mechanical properties :
#
#
# Convention : Reuss Voigt Hill
#
# Bulk Modulus (GPa) = 25.94202 44.15203 35.04702
# Shear Modulus (GPa) = 218.34337 -37.45971 90.44183
#
# Velocity S-wave (km/s) = 9.57478 -3.96589 6.16231
# Velocity P-wave (km/s) = 11.53809 1.55976 8.08377
#
# Compressibility (1/GPa) = 0.03854750
#
# Stress axis : x y z
#
# Youngs Moduli (GPa) = 120.59063 37.10552 130.79165
#
# Poissons Ratio (x) = 0.05304 0.32427
# Poissons Ratio (y) = 0.17238 -0.22735
# Poissons Ratio (z) = 0.29898 -0.06450
#
# Static dielectric constant tensor:
#      x y z
#    x 1.998850 0.000000 0.000000 
#    y 0.000000 2.138550 0.000000 
#    z 0.000000 0.000000 1.908750 
# 
# From -- ./inp_files/56335.got.cif
#   From: 2010.05.17/outbox.cif.g08.bks.cpg/sg66_29_cif.got.tgz:56335.got - 2010.06.03 17:51:23.
