data_PCOD9498243
_publ_section_title
;
Structure prediction by ZEFSAII (Michael W. Deem and Ramdas Pophale) SiO2 
 PCOD9498243
Probable space group: C C C M
;
_chemical_formula_sum "Si O2"
_cell_formula_units_Z 64
_cell_length_a 19.174579
_cell_length_b 8.354390
_cell_length_c 20.526654
_cell_angle_alpha 90.000000
_cell_angle_beta 90.000000
_cell_angle_gamma 90.000000
_cell_volume 3288.203932
_symmetry_space_group_name_H-M "C C C M"
_symmetry_group_IT_number 66
_symmetry_cell_setting 'orthorhombic'
loop_
_space_group_symop_operation_xyz
x,y,z
-x,-y,z
x,-y,1/2-z
-x,y,1/2-z
-x,-y,-z
x,y,-z
-x,y,1/2+z
x,-y,1/2+z
1/2+x,1/2+y,z
1/2-x,1/2-y,z
1/2+x,1/2-y,1/2-z
1/2-x,1/2+y,1/2-z
1/2-x,1/2-y,-z
1/2+x,1/2+y,-z
1/2-x,1/2+y,1/2+z
1/2+x,1/2-y,1/2+z
loop_
_atom_site_type_symbol
_atom_site_label
_atom_site_fract_x
_atom_site_fract_y
_atom_site_fract_z
Si Si1 0.892720 0.919178 0.500000
Si Si2 0.573103 0.061490 0.630971
Si Si3 0.325391 0.188666 0.231040
Si Si4 0.833414 0.753319 0.626020
Si Si5 0.542405 0.247913 0.500000
O O1 0.857381 0.867134 0.567733
O O2 0.966877 0.829109 0.500000
O O3 0.903048 0.107884 0.500000
O O4 0.614311 0.183697 0.677535
O O5 0.552369 0.144024 0.564002
O O6 0.500000 0.000000 0.661344
O O7 0.625442 0.914141 0.616435
O O8 0.250000 0.250000 0.207792
O O9 0.345778 0.285143 0.296745
O O10 0.317107 0.000000 0.250000
O O11 0.750000 0.750000 0.621210
#
# Coordination Sequence:
#
# PCOD9498243 Si02
#       5
#     8  16  16  16   8
#     4  11  22  41  58  87 126 160 200 253 313 356
#     4  11  21  40  65  91 120 161 208 249 300 367
#     4   9  21  38  61  92 123 157 196 253 305 361
#     4  10  21  39  63  89 122 160 198 249 311 365
#     4  11  24  38  60  88 123 160 202 262 301 351
#
# _framework density 19.463512999999999
#
# number of rings (size 3 to 8) (size 9 to 14) (size 15 to 20)
#    0.000    1.750    2.500    1.500    0.000   10.500 
#    0.000    1.875    0.000    3.000    0.000    0.000 
#    0.000    0.000    0.000    0.000    0.000    0.000 
#
# Total GULP energy -178485.811980 kJ/mol
# GULP energy per Si atom -5577.681624 kJ/mol
# Density = 1.941921 g / cm^3
# Si number density = 19.463513 Si / 1000 Ang^3
#
#
#
# Elastic Constant Matrix: (Units=GPa)
#
#
# Indices 1 2 3 4 5 6 
#
# 1 92.9089 25.5483 64.4764 0.0000 0.0000 0.0000
# 2 25.5483 29.8359 23.1790 0.0000 0.0000 0.0000
# 3 64.4764 23.1790 119.1818 0.0000 0.0000 0.0000
# 4 0.0000 0.0000 0.0000 -515.2302 0.0000 0.0000
# 5 0.0000 0.0000 0.0000 0.0000 184.7249 0.0000
# 6 0.0000 0.0000 0.0000 0.0000 0.0000 28.7864
#
#
#
# Elastic Compliance Matrix: (Units=1/GPa)
#
#
# Indices 1 2 3 4 5 6 
#
# 1 0.019476 -0.010003 -0.008591 0.000000 0.000000 0.000000
# 2 -0.010003 0.044620 -0.003266 0.000000 0.000000 0.000000
# 3 -0.008591 -0.003266 0.013673 0.000000 0.000000 0.000000
# 4 0.000000 0.000000 0.000000 -0.001941 0.000000 0.000000
# 5 0.000000 0.000000 0.000000 0.000000 0.005413 0.000000
# 6 0.000000 0.000000 0.000000 0.000000 0.000000 0.034739
#
#
# Mechanical properties :
#
#
# Convention : Reuss Voigt Hill
#
# Bulk Modulus (GPa) = 29.36971 52.03710 40.70340
# Shear Modulus (GPa) = 29.23135 -51.76225 -11.26545
#
# Velocity S-wave (km/s) = 3.87958 -5.16258 -2.40843
# Velocity P-wave (km/s) = 5.93216 2.95678 3.63648
#
# Compressibility (1/GPa) = 0.03404868
#
# Stress axis : x y z
#
# Youngs Moduli (GPa) = 51.34626 22.41165 73.13503
#
# Poissons Ratio (x) = 0.22418 0.62829
# Poissons Ratio (y) = 0.51361 0.23889
# Poissons Ratio (z) = 0.44110 0.07320
#
# Static dielectric constant tensor:
#      x y z
#    x 1.681730 0.000000 0.000000 
#    y 0.000000 1.690840 0.000000 
#    z 0.000000 0.000000 1.704070 
# 
# From -- ./inp_files/42405.got.cif
#   From: 2010.05.17/outbox.cif.g08.bks.cpg/sg66_22_cif.got.tgz:42405.got - 2010.06.03 17:51:23.
