data_PCOD9498563
_publ_section_title
;
Structure prediction by ZEFSAII (Michael W. Deem and Ramdas Pophale) SiO2 
 PCOD9498563
Probable space group: C C C M
;
_chemical_formula_sum "Si O2"
_cell_formula_units_Z 72
_cell_length_a 8.091722
_cell_length_b 15.703785
_cell_length_c 23.864009
_cell_angle_alpha 90.000000
_cell_angle_beta 90.000000
_cell_angle_gamma 90.000000
_cell_volume 3032.415435
_symmetry_space_group_name_H-M "C C C M"
_symmetry_group_IT_number 66
_symmetry_cell_setting 'orthorhombic'
loop_
_space_group_symop_operation_xyz
x,y,z
-x,-y,z
x,-y,1/2-z
-x,y,1/2-z
-x,-y,-z
x,y,-z
-x,y,1/2+z
x,-y,1/2+z
1/2+x,1/2+y,z
1/2-x,1/2-y,z
1/2+x,1/2-y,1/2-z
1/2-x,1/2+y,1/2-z
1/2-x,1/2-y,-z
1/2+x,1/2+y,-z
1/2-x,1/2+y,1/2+z
1/2+x,1/2-y,1/2+z
loop_
_atom_site_type_symbol
_atom_site_label
_atom_site_fract_x
_atom_site_fract_y
_atom_site_fract_z
Si Si1 0.251060 0.464727 0.000000
Si Si2 0.750000 0.250000 0.096268
Si Si3 0.837218 0.045180 0.623513
Si Si4 0.177730 0.393019 0.324094
Si Si5 0.304693 0.842361 0.705699
Si Si6 0.079871 0.352136 0.500000
O O1 0.344056 0.446789 0.057313
O O2 0.202431 0.565413 0.000000
O O3 0.094064 0.400861 0.000000
O O4 0.714863 0.327887 0.138509
O O5 0.883920 0.292485 0.053943
O O6 0.806567 0.133144 0.653428
O O7 0.689381 0.981885 0.643019
O O8 0.000000 0.000000 0.645209
O O9 0.230784 0.401272 0.259545
O O10 0.993533 0.353962 0.315140
O O11 0.250000 0.750000 0.725323
#
# Coordination Sequence:
#
# PCOD9498563 Si02
#       6
#     8   8  16  16  16   8
#     4  11  23  46  64 100 140 183 227 287 348 413
#     4  11  20  40  70 106 130 181 234 280 336 419
#     4  12  27  45  70  99 141 185 237 284 347 412
#     4  11  24  44  72 100 143 182 228 285 354 413
#     4  11  26  44  69 105 140 180 231 290 347 415
#     4  10  22  36  73 103 134 174 236 281 347 406
#
# _framework density 23.743448999999998
#
# number of rings (size 3 to 8) (size 9 to 14) (size 15 to 20)
#    0.000    0.889    3.333    3.000    6.222    3.556 
#    0.000    0.556    0.000    0.000    0.000    0.000 
#    0.000    0.000    0.000    0.000    0.000    0.000 
#
# Total GULP energy -201166.650407 kJ/mol
# GULP energy per Si atom -5587.962511 kJ/mol
# Density = 2.368941 g / cm^3
# Si number density = 23.743449 Si / 1000 Ang^3
#
#
#
# Elastic Constant Matrix: (Units=GPa)
#
#
# Indices 1 2 3 4 5 6 
#
# 1 72.2979 3.1539 15.8626 0.0000 0.0000 0.0000
# 2 3.1539 78.4292 22.5197 0.0000 0.0000 0.0000
# 3 15.8626 22.5197 151.5441 0.0000 0.0000 0.0000
# 4 0.0000 0.0000 0.0000 37.7676 0.0000 0.0000
# 5 0.0000 0.0000 0.0000 0.0000 -9.1453 0.0000
# 6 0.0000 0.0000 0.0000 0.0000 0.0000 25.6795
#
#
#
# Elastic Compliance Matrix: (Units=1/GPa)
#
#
# Indices 1 2 3 4 5 6 
#
# 1 0.014158 -0.000150 -0.001460 0.000000 0.000000 0.000000
# 2 -0.000150 0.013320 -0.001964 0.000000 0.000000 0.000000
# 3 -0.001460 -0.001964 0.007043 0.000000 0.000000 0.000000
# 4 0.000000 0.000000 0.000000 0.026478 0.000000 0.000000
# 5 0.000000 0.000000 0.000000 0.000000 -0.109345 0.000000
# 6 0.000000 0.000000 0.000000 0.000000 0.000000 0.038942
#
#
# Mechanical properties :
#
#
# Convention : Reuss Voigt Hill
#
# Bulk Modulus (GPa) = 36.52988 42.81594 39.67291
# Shear Modulus (GPa) = 728.01012 28.24269 378.12641
#
# Velocity S-wave (km/s) = 17.52943 3.45265 12.63332
# Velocity P-wave (km/s) = 20.61859 5.82806 15.15079
#
# Compressibility (1/GPa) = 0.02737485
#
# Stress axis : x y z
#
# Youngs Moduli (GPa) = 70.62903 75.07373 141.97814
#
# Poissons Ratio (x) = 0.01128 0.20724
# Poissons Ratio (y) = 0.01061 0.27880
# Poissons Ratio (z) = 0.10310 0.14742
#
# Static dielectric constant tensor:
#      x y z
#    x 1.924330 0.000000 0.000000 
#    y 0.000000 1.918770 0.000000 
#    z 0.000000 0.000000 1.865800 
# 
# From -- ./inp_files/55291.got.cif
#   From: 2010.05.17/outbox.cif.g08.bks.cpg/sg66_28_cif.got.tgz:55291.got - 2010.06.03 17:51:23.
