data_PCOD9498127
_publ_section_title
;
Structure prediction by ZEFSAII (Michael W. Deem and Ramdas Pophale) SiO2 
 PCOD9498127
Probable space group: C C C M
;
_chemical_formula_sum "Si O2"
_cell_formula_units_Z 80
_cell_length_a 26.156755
_cell_length_b 9.940863
_cell_length_c 13.494295
_cell_angle_alpha 90.000000
_cell_angle_beta 90.000000
_cell_angle_gamma 90.000000
_cell_volume 3508.796275
_symmetry_space_group_name_H-M "C C C M"
_symmetry_group_IT_number 66
_symmetry_cell_setting 'orthorhombic'
loop_
_space_group_symop_operation_xyz
x,y,z
-x,-y,z
x,-y,1/2-z
-x,y,1/2-z
-x,-y,-z
x,y,-z
-x,y,1/2+z
x,-y,1/2+z
1/2+x,1/2+y,z
1/2-x,1/2-y,z
1/2+x,1/2-y,1/2-z
1/2-x,1/2+y,1/2-z
1/2-x,1/2-y,-z
1/2+x,1/2+y,-z
1/2-x,1/2+y,1/2+z
1/2+x,1/2-y,1/2+z
loop_
_atom_site_type_symbol
_atom_site_label
_atom_site_fract_x
_atom_site_fract_y
_atom_site_fract_z
Si Si1 0.749368 0.597115 0.881212
Si Si2 0.358241 0.496120 0.115401
Si Si3 0.146320 0.441305 0.387808
Si Si4 0.957457 0.386075 0.611821
Si Si5 0.397173 0.280157 0.245518
O O1 0.750000 0.750000 0.839292
O O2 0.701695 0.499365 0.855880
O O3 0.802584 0.522722 0.865076
O O4 0.743508 0.612395 0.000000
O O5 0.371511 0.344379 0.148044
O O6 0.394300 0.597904 0.175629
O O7 0.364816 0.517600 0.000000
O O8 0.151349 0.382974 0.500000
O O9 0.097110 0.538009 0.390317
O O10 0.133974 0.332367 0.304665
O O11 0.967131 0.330515 0.500000
O O12 0.949033 0.280775 0.700515
O O13 0.000000 0.500000 0.629601
#
# Coordination Sequence:
#
# PCOD9498127 Si02
#       5
#    16  16  16  16  16
#     4   9  18  36  60  87 129 184 235 282 341 416
#     4  10  22  41  62  90 136 188 229 281 347 413
#     4  10  21  38  61  91 130 175 223 282 348 415
#     4  10  22  42  68  96 128 168 220 288 358 414
#     4  11  22  38  61 100 130 174 228 285 337 413
#
# _framework density 22.799842000000002
#
# number of rings (size 3 to 8) (size 9 to 14) (size 15 to 20)
#    0.000    2.000    0.000    3.000    0.000    5.600 
#   18.000    3.000    0.000   11.400    0.000   22.400 
#    0.000    0.800    0.000    0.000    0.000    0.000 
#
# Total GULP energy -223272.847632 kJ/mol
# GULP energy per Si atom -5581.821191 kJ/mol
# Density = 2.274795 g / cm^3
# Si number density = 22.799842 Si / 1000 Ang^3
#
#
#
# Elastic Constant Matrix: (Units=GPa)
#
#
# Indices 1 2 3 4 5 6 
#
# 1 126.7604 42.7312 51.0262 0.0000 0.0000 0.0000
# 2 42.7312 92.0775 63.8094 0.0000 0.0000 0.0000
# 3 51.0262 63.8094 176.9857 0.0000 0.0000 0.0000
# 4 0.0000 0.0000 0.0000 44.9578 0.0000 0.0000
# 5 0.0000 0.0000 0.0000 0.0000 60.7904 0.0000
# 6 0.0000 0.0000 0.0000 0.0000 0.0000 25.4299
#
#
#
# Elastic Compliance Matrix: (Units=1/GPa)
#
#
# Indices 1 2 3 4 5 6 
#
# 1 0.009664 -0.003405 -0.001559 0.000000 0.000000 0.000000
# 2 -0.003405 0.015677 -0.004671 0.000000 0.000000 0.000000
# 3 -0.001559 -0.004671 0.007783 0.000000 0.000000 0.000000
# 4 0.000000 0.000000 0.000000 0.022243 0.000000 0.000000
# 5 0.000000 0.000000 0.000000 0.000000 0.016450 0.000000
# 6 0.000000 0.000000 0.000000 0.000000 0.000000 0.039324
#
#
# Mechanical properties :
#
#
# Convention : Reuss Voigt Hill
#
# Bulk Modulus (GPa) = 72.16701 78.99523 75.58112
# Shear Modulus (GPa) = 37.02927 42.11941 39.57434
#
# Velocity S-wave (km/s) = 4.03439 4.30275 4.17073
# Velocity P-wave (km/s) = 7.30909 7.70762 7.51100
#
# Compressibility (1/GPa) = 0.01385675
#
# Stress axis : x y z
#
# Youngs Moduli (GPa) = 103.47603 63.78714 128.47777
#
# Poissons Ratio (x) = 0.21718 0.20026
# Poissons Ratio (y) = 0.35231 0.60006
# Poissons Ratio (z) = 0.16129 0.29792
#
# Static dielectric constant tensor:
#      x y z
#    x 1.847440 0.000000 0.000000 
#    y 0.000000 1.889240 0.000000 
#    z 0.000000 0.000000 1.928890 
# 
# From -- ./inp_files/32076.got.cif
#   From: 2010.05.17/outbox.cif.g08.bks.cpg/sg66_17_cif.got.tgz:32076.got - 2010.06.03 17:51:23.
