data_PCOD9498168
_publ_section_title
;
Structure prediction by ZEFSAII (Michael W. Deem and Ramdas Pophale) SiO2 
 PCOD9498168
Probable space group: C C C M
;
_chemical_formula_sum "Si O2"
_cell_formula_units_Z 116
_cell_length_a 19.113144
_cell_length_b 17.068635
_cell_length_c 18.912458
_cell_angle_alpha 90.000000
_cell_angle_beta 90.000000
_cell_angle_gamma 90.000000
_cell_volume 6169.911005
_symmetry_space_group_name_H-M "C C C M"
_symmetry_group_IT_number 66
_symmetry_cell_setting 'orthorhombic'
loop_
_space_group_symop_operation_xyz
x,y,z
-x,-y,z
x,-y,1/2-z
-x,y,1/2-z
-x,-y,-z
x,y,-z
-x,y,1/2+z
x,-y,1/2+z
1/2+x,1/2+y,z
1/2-x,1/2-y,z
1/2+x,1/2-y,1/2-z
1/2-x,1/2+y,1/2-z
1/2-x,1/2-y,-z
1/2+x,1/2+y,-z
1/2-x,1/2+y,1/2+z
1/2+x,1/2-y,1/2+z
loop_
_atom_site_type_symbol
_atom_site_label
_atom_site_fract_x
_atom_site_fract_y
_atom_site_fract_z
Si Si1 0.423045 0.307459 0.582060
Si Si2 0.150070 0.975056 0.918854
Si Si3 0.710314 0.026177 0.830938
Si Si4 0.668020 0.757234 0.843412
Si Si5 0.616878 0.090020 0.578371
Si Si6 0.500000 0.000000 0.500000
Si Si7 0.578118 0.366897 0.583441
Si Si8 0.323323 0.791626 0.176971
O O1 0.421929 0.281382 0.500000
O O2 0.379573 0.387923 0.587614
O O3 0.501895 0.332693 0.600149
O O4 0.386357 0.243906 0.631320
O O5 0.213720 0.984971 0.865598
O O6 0.090034 0.040277 0.907725
O O7 0.175069 0.985197 0.000000
O O8 0.687199 0.116402 0.834800
O O9 0.711870 0.000000 0.750000
O O10 0.657278 0.972567 0.874439
O O11 0.750000 0.750000 0.862398
O O12 0.627222 0.826529 0.884310
O O13 0.632711 0.676812 0.866916
O O14 0.664402 0.773642 0.759764
O O15 0.650522 0.095563 0.500000
O O16 0.540232 0.055015 0.560680
O O17 0.591210 0.349899 0.500000
O O18 0.250000 0.750000 0.156456
#
# Coordination Sequence:
#
# PCOD9498168 Si02
#       8
#    16  16  16  16  16   4  16  16
#     4  10  22  41  63  92 132 173 211 260 315 380
#     4  10  21  38  64  95 130 167 214 259 317 384
#     4  12  23  40  65  95 126 168 213 264 323 376
#     4  11  23  40  65  93 126 162 210 276 324 374
#     4  10  22  43  66  90 121 163 213 260 325 377
#     4   8  24  44  64  88 126 160 210 274 316 374
#     4  10  22  39  63  96 126 166 210 264 325 380
#     4  11  24  42  61  92 133 169 215 260 317 381
#
# _framework density 18.800919
#
# number of rings (size 3 to 8) (size 9 to 14) (size 15 to 20)
#    0.414    1.103    2.759    2.069    1.931    6.897 
#    2.483    0.345    0.000    2.483    0.000    0.000 
#    0.000    0.000    0.000    0.000    0.000    0.000 
#
# Total GULP energy -323153.337264 kJ/mol
# GULP energy per Si atom -5571.609263 kJ/mol
# Density = 1.875813 g / cm^3
# Si number density = 18.800919 Si / 1000 Ang^3
#
#
#
# Elastic Constant Matrix: (Units=GPa)
#
#
# Indices 1 2 3 4 5 6 
#
# 1 71.4301 21.2689 40.5837 0.0000 0.0000 0.0000
# 2 21.2689 89.0562 33.0148 0.0000 0.0000 0.0000
# 3 40.5837 33.0148 74.3720 0.0000 0.0000 0.0000
# 4 0.0000 0.0000 0.0000 27.5229 0.0000 0.0000
# 5 0.0000 0.0000 0.0000 0.0000 -50.3083 0.0000
# 6 0.0000 0.0000 0.0000 0.0000 0.0000 10.4589
#
#
#
# Elastic Compliance Matrix: (Units=1/GPa)
#
#
# Indices 1 2 3 4 5 6 
#
# 1 0.020349 -0.000890 -0.010709 0.000000 0.000000 0.000000
# 2 -0.000890 0.013480 -0.005498 0.000000 0.000000 0.000000
# 3 -0.010709 -0.005498 0.021731 0.000000 0.000000 0.000000
# 4 0.000000 0.000000 0.000000 0.036333 0.000000 0.000000
# 5 0.000000 0.000000 0.000000 0.000000 -0.019877 0.000000
# 6 0.000000 0.000000 0.000000 0.000000 0.000000 0.095612
#
#
# Mechanical properties :
#
#
# Convention : Reuss Voigt Hill
#
# Bulk Modulus (GPa) = 46.80597 47.17700 46.99149
# Shear Modulus (GPa) = 23.92984 6.86741 15.39862
#
# Velocity S-wave (km/s) = 3.57150 1.91328 2.86498
# Velocity P-wave (km/s) = 6.47743 5.47980 5.99939
#
# Compressibility (1/GPa) = 0.02136480
#
# Stress axis : x y z
#
# Youngs Moduli (GPa) = 49.14184 74.18574 46.01807
#
# Poissons Ratio (x) = 0.06601 0.49282
# Poissons Ratio (y) = 0.04373 0.25302
# Poissons Ratio (z) = 0.52628 0.40789
#
# Static dielectric constant tensor:
#      x y z
#    x 1.649520 0.000000 0.000000 
#    y 0.000000 1.669090 0.000000 
#    z 0.000000 0.000000 1.630990 
# 
# From -- ./inp_files/41872.got.cif
#   From: 2010.05.17/outbox.cif.g08.bks.cpg/sg66_21_cif.got.tgz:41872.got - 2010.06.03 17:51:23.
