data_PCOD9498804
_publ_section_title
;
Structure prediction by ZEFSAII (Michael W. Deem and Ramdas Pophale) SiO2 
 PCOD9498804
Probable space group: C C C M
;
_chemical_formula_sum "Si O2"
_cell_formula_units_Z 80
_cell_length_a 18.687187
_cell_length_b 25.880709
_cell_length_c 8.656522
_cell_angle_alpha 90.000000
_cell_angle_beta 90.000000
_cell_angle_gamma 90.000000
_cell_volume 4186.619947
_symmetry_space_group_name_H-M "C C C M"
_symmetry_group_IT_number 66
_symmetry_cell_setting 'orthorhombic'
loop_
_space_group_symop_operation_xyz
x,y,z
-x,-y,z
x,-y,1/2-z
-x,y,1/2-z
-x,-y,-z
x,y,-z
-x,y,1/2+z
x,-y,1/2+z
1/2+x,1/2+y,z
1/2-x,1/2-y,z
1/2+x,1/2-y,1/2-z
1/2-x,1/2+y,1/2-z
1/2-x,1/2-y,-z
1/2+x,1/2+y,-z
1/2-x,1/2+y,1/2+z
1/2+x,1/2-y,1/2+z
loop_
_atom_site_type_symbol
_atom_site_label
_atom_site_fract_x
_atom_site_fract_y
_atom_site_fract_z
Si Si1 0.666495 0.746321 0.685448
Si Si2 0.579681 0.850795 0.314879
Si Si3 0.079151 0.150685 0.183682
Si Si4 0.831350 0.056583 0.184818
Si Si5 0.826858 0.556597 0.184793
O O1 0.661929 0.737682 0.500000
O O2 0.750000 0.750000 0.726596
O O3 0.626049 0.799734 0.720825
O O4 0.628058 0.699183 0.769570
O O5 0.500000 0.844849 0.250000
O O6 0.577586 0.856734 0.500000
O O7 0.618021 0.900302 0.240979
O O8 0.114011 0.099633 0.257222
O O9 0.000000 0.158870 0.250000
O O10 0.076232 0.145351 0.000000
O O11 0.751992 0.069125 0.248636
O O12 0.850037 0.000000 0.250000
O O13 0.828975 0.055107 0.000000
O O14 0.846073 0.500000 0.250000
O O15 0.823441 0.554600 0.000000
#
# Coordination Sequence:
#
# PCOD9498804 Si02
#       5
#    16  16  16  16  16
#     4  10  22  41  65  91 121 158 199 246 300 358
#     4  11  23  39  60  88 123 161 202 249 303 360
#     4  12  25  41  62  90 124 161 202 248 301 358
#     4  11  22  40  64  91 123 159 202 248 298 354
#     4  11  22  39  63  91 122 158 202 248 299 357
#
# _framework density 19.108492999999999
#
# number of rings (size 3 to 8) (size 9 to 14) (size 15 to 20)
#    0.000    1.000    0.000    9.000    0.000    6.000 
#    0.000    4.000    0.000    0.000    0.000    0.000 
#    0.000    0.000    0.000    0.000    0.000    0.000 
#
# Total GULP energy -223886.860725 kJ/mol
# GULP energy per Si atom -5597.171518 kJ/mol
# Density = 1.906500 g / cm^3
# Si number density = 19.108493 Si / 1000 Ang^3
#
#
#
# Elastic Constant Matrix: (Units=GPa)
#
#
# Indices 1 2 3 4 5 6 
#
# 1 152.7334 96.7779 83.8782 0.0000 0.0000 0.0000
# 2 96.7779 101.0525 77.3993 0.0000 0.0000 0.0000
# 3 83.8782 77.3993 163.4579 0.0000 0.0000 0.0000
# 4 0.0000 0.0000 0.0000 43.5736 0.0000 0.0000
# 5 0.0000 0.0000 0.0000 0.0000 30.7895 0.0000
# 6 0.0000 0.0000 0.0000 0.0000 0.0000 74.4300
#
#
#
# Elastic Compliance Matrix: (Units=1/GPa)
#
#
# Indices 1 2 3 4 5 6 
#
# 1 0.016910 -0.014982 -0.001583 0.000000 0.000000 0.000000
# 2 -0.014982 0.028801 -0.005950 0.000000 0.000000 0.000000
# 3 -0.001583 -0.005950 0.009747 0.000000 0.000000 0.000000
# 4 0.000000 0.000000 0.000000 0.022950 0.000000 0.000000
# 5 0.000000 0.000000 0.000000 0.000000 0.032479 0.000000
# 6 0.000000 0.000000 0.000000 0.000000 0.000000 0.013435
#
#
# Mechanical properties :
#
#
# Convention : Reuss Voigt Hill
#
# Bulk Modulus (GPa) = 95.88838 103.70608 99.79723
# Shear Modulus (GPa) = 28.93037 40.37119 34.65078
#
# Velocity S-wave (km/s) = 3.89524 4.60144 4.26299
# Velocity P-wave (km/s) = 8.39765 9.08961 8.75047
#
# Compressibility (1/GPa) = 0.01042879
#
# Stress axis : x y z
#
# Youngs Moduli (GPa) = 59.13633 34.72066 102.59123
#
# Poissons Ratio (x) = 0.52019 0.16242
# Poissons Ratio (y) = 0.88599 0.61039
# Poissons Ratio (z) = 0.09362 0.20658
#
# Static dielectric constant tensor:
#      x y z
#    x 1.633230 0.000000 0.000000 
#    y 0.000000 1.634220 0.000000 
#    z 0.000000 0.000000 1.621060 
# 
# From -- ./inp_files/6694.got.cif
#   From: 2010.05.17/outbox.cif.g08.bks.cpg/sg66_4_cif.got.tgz:6694.got - 2010.06.03 17:51:23.
