data_PCOD9498387
_publ_section_title
;
Structure prediction by ZEFSAII (Michael W. Deem and Ramdas Pophale) SiO2 
 PCOD9498387
Probable space group: C C C M
;
_chemical_formula_sum "Si O2"
_cell_formula_units_Z 112
_cell_length_a 15.231061
_cell_length_b 15.231062
_cell_length_c 23.241750
_cell_angle_alpha 90.000000
_cell_angle_beta 90.000000
_cell_angle_gamma 90.000000
_cell_volume 5391.742822
_symmetry_space_group_name_H-M "C C C M"
_symmetry_group_IT_number 66
_symmetry_cell_setting 'orthorhombic'
loop_
_space_group_symop_operation_xyz
x,y,z
-x,-y,z
x,-y,1/2-z
-x,y,1/2-z
-x,-y,-z
x,y,-z
-x,y,1/2+z
x,-y,1/2+z
1/2+x,1/2+y,z
1/2-x,1/2-y,z
1/2+x,1/2-y,1/2-z
1/2-x,1/2+y,1/2-z
1/2-x,1/2-y,-z
1/2+x,1/2+y,-z
1/2-x,1/2+y,1/2+z
1/2+x,1/2-y,1/2+z
loop_
_atom_site_type_symbol
_atom_site_label
_atom_site_fract_x
_atom_site_fract_y
_atom_site_fract_z
Si Si1 0.360198 0.494858 0.634031
Si Si2 0.556818 0.806085 0.068229
Si Si3 0.930881 0.569119 0.358119
Si Si4 0.693915 0.056819 0.431770
Si Si5 0.500000 0.736282 0.250000
Si Si6 0.673852 0.173853 0.760030
Si Si7 0.236282 0.000000 0.250000
Si Si8 0.005143 0.139802 0.365969
O O1 0.289749 0.537615 0.592151
O O2 0.317420 0.469085 0.694773
O O3 0.410686 0.410686 0.608947
O O4 0.432195 0.567806 0.647811
O O5 0.489081 0.868550 0.101796
O O6 0.653346 0.846654 0.079380
O O7 0.537613 0.710251 0.092151
O O8 0.541936 0.810305 0.000000
O O9 0.868550 0.510919 0.398203
O O10 0.870180 0.629821 0.317377
O O11 0.000000 0.500000 0.328669
O O12 0.689695 0.041937 0.500000
O O13 0.413470 0.788595 0.270389
O O14 0.530915 0.682579 0.305227
O O15 0.750000 0.250000 0.765966
O O16 0.711405 0.086530 0.729612
#
# Coordination Sequence:
#
# PCOD9498387 Si02
#       8
#    16  16  16  16   8  16   8  16
#     4  11  24  42  64  90 125 172 219 264 320 386
#     4  10  22  41  65  94 127 166 210 263 325 388
#     4  10  21  40  66  96 128 165 207 263 324 390
#     4  10  22  41  65  94 127 166 210 263 325 388
#     4  12  26  42  66  96 136 170 216 269 333 394
#     4  12  26  41  67 101 135 173 222 274 333 404
#     4  12  26  42  66  96 136 170 216 269 333 394
#     4  11  24  42  64  90 125 172 219 264 320 386
#
# _framework density 20.772504999999999
#
# number of rings (size 3 to 8) (size 9 to 14) (size 15 to 20)
#    0.000    1.143    2.857    3.000    4.000    4.571 
#    0.000    2.857    0.000    2.571    0.000    0.000 
#    0.000    0.000    0.000    0.000    0.000    0.000 
#
# Total GULP energy -312705.150464 kJ/mol
# GULP energy per Si atom -5584.020544 kJ/mol
# Density = 2.072523 g / cm^3
# Si number density = 20.772505 Si / 1000 Ang^3
#
#
#
# Elastic Constant Matrix: (Units=GPa)
#
#
# Indices 1 2 3 4 5 6 
#
# 1 114.2381 52.0949 13.9368 0.0000 0.0000 0.0000
# 2 52.0949 114.2387 13.9368 0.0000 0.0000 0.0000
# 3 13.9368 13.9368 49.8456 0.0000 0.0000 0.0000
# 4 0.0000 0.0000 0.0000 6.1002 0.0000 0.0000
# 5 0.0000 0.0000 0.0000 0.0000 6.1002 0.0000
# 6 0.0000 0.0000 0.0000 0.0000 0.0000 36.6806
#
#
#
# Elastic Compliance Matrix: (Units=1/GPa)
#
#
# Indices 1 2 3 4 5 6 
#
# 1 0.011200 -0.004892 -0.001764 0.000000 0.000000 0.000000
# 2 -0.004892 0.011200 -0.001764 0.000000 0.000000 0.000000
# 3 -0.001764 -0.001764 0.021048 0.000000 0.000000 0.000000
# 4 0.000000 0.000000 0.000000 0.163928 0.000000 0.000000
# 5 0.000000 0.000000 0.000000 0.000000 0.163929 0.000000
# 6 0.000000 0.000000 0.000000 0.000000 0.000000 0.027262
#
#
# Mechanical properties :
#
#
# Convention : Reuss Voigt Hill
#
# Bulk Modulus (GPa) = 37.58138 48.69547 43.13843
# Shear Modulus (GPa) = 11.78478 22.99980 17.39229
#
# Velocity S-wave (km/s) = 2.38444 3.33111 2.89671
# Velocity P-wave (km/s) = 5.07069 6.18775 5.65686
#
# Compressibility (1/GPa) = 0.02660892
#
# Stress axis : x y z
#
# Youngs Moduli (GPa) = 89.28802 89.28853 47.51009
#
# Poissons Ratio (x) = 0.43681 0.08379
# Poissons Ratio (y) = 0.43681 0.08379
# Poissons Ratio (z) = 0.15747 0.15747
#
# Static dielectric constant tensor:
#      x y z
#    x 1.801250 0.000000 0.000000 
#    y 0.000000 1.801250 0.000000 
#    z 0.000000 0.000000 1.715740 
# 
# From -- ./inp_files/64713.got.cif
#   From: 2010.05.17/outbox.cif.g08.bks.cpg/sg66_33_cif.got.tgz:64713.got - 2010.06.03 17:51:23.
