data_PCOD9498155
_publ_section_title
;
Structure prediction by ZEFSAII (Michael W. Deem and Ramdas Pophale) SiO2 
 PCOD9498155
Probable space group: C C C M
;
_chemical_formula_sum "Si O2"
_cell_formula_units_Z 96
_cell_length_a 13.648478
_cell_length_b 22.105879
_cell_length_c 14.618577
_cell_angle_alpha 90.000000
_cell_angle_beta 90.000000
_cell_angle_gamma 90.000000
_cell_volume 4410.594303
_symmetry_space_group_name_H-M "C C C M"
_symmetry_group_IT_number 66
_symmetry_cell_setting 'orthorhombic'
loop_
_space_group_symop_operation_xyz
x,y,z
-x,-y,z
x,-y,1/2-z
-x,y,1/2-z
-x,-y,-z
x,y,-z
-x,y,1/2+z
x,-y,1/2+z
1/2+x,1/2+y,z
1/2-x,1/2-y,z
1/2+x,1/2-y,1/2-z
1/2-x,1/2+y,1/2-z
1/2-x,1/2-y,-z
1/2+x,1/2+y,-z
1/2-x,1/2+y,1/2+z
1/2+x,1/2-y,1/2+z
loop_
_atom_site_type_symbol
_atom_site_label
_atom_site_fract_x
_atom_site_fract_y
_atom_site_fract_z
Si Si1 0.859369 0.354125 0.106961
Si Si2 0.758604 0.466880 0.655144
Si Si3 0.823857 0.867632 0.266627
Si Si4 0.081657 0.951589 0.896800
Si Si5 0.887700 0.262835 0.749459
Si Si6 0.917281 0.628048 0.894300
O O1 0.771903 0.377526 0.169441
O O2 0.869067 0.286864 0.147830
O O3 0.966754 0.383007 0.123885
O O4 0.837310 0.357377 0.000000
O O5 0.785858 0.500000 0.750000
O O6 0.688432 0.410755 0.680731
O O7 0.686478 0.512869 0.603674
O O8 0.853411 0.433115 0.614845
O O9 0.909637 0.894709 0.329457
O O10 0.828186 0.798379 0.236352
O O11 0.059140 0.932458 0.000000
O O12 0.000000 0.000000 0.867027
O O13 0.883519 0.318972 0.676773
O O14 0.000000 0.243268 0.750000
O O15 0.909894 0.649243 0.000000
#
# Coordination Sequence:
#
# PCOD9498155 Si02
#       6
#    16  16  16  16  16  16
#     4  10  21  38  63  93 128 164 206 260 320 381
#     4  10  22  38  64  92 120 169 212 262 312 380
#     4  11  22  37  63  91 124 163 213 262 321 373
#     4  10  23  42  61  89 127 167 218 270 312 374
#     4  10  22  38  62  94 126 165 209 260 319 386
#     4  10  21  42  66  92 133 171 207 266 323 386
#
# _framework density 21.765774
#
# number of rings (size 3 to 8) (size 9 to 14) (size 15 to 20)
#    0.000    1.833    1.667    1.500    2.333    4.333 
#    0.000    8.333    0.000    9.000    0.000    0.000 
#    0.000    0.000    0.000    0.000    0.000    0.000 
#
# Total GULP energy -267634.629347 kJ/mol
# GULP energy per Si atom -5575.721445 kJ/mol
# Density = 2.171623 g / cm^3
# Si number density = 21.765774 Si / 1000 Ang^3
#
#
#
# Elastic Constant Matrix: (Units=GPa)
#
#
# Indices 1 2 3 4 5 6 
#
# 1 76.2506 21.8685 18.2745 0.0000 0.0000 0.0000
# 2 21.8685 87.0404 8.0467 0.0000 0.0000 0.0000
# 3 18.2745 8.0467 67.6815 0.0000 0.0000 0.0000
# 4 0.0000 0.0000 0.0000 11.2925 0.0000 0.0000
# 5 0.0000 0.0000 0.0000 0.0000 23.0021 0.0000
# 6 0.0000 0.0000 0.0000 0.0000 0.0000 36.9112
#
#
#
# Elastic Compliance Matrix: (Units=1/GPa)
#
#
# Indices 1 2 3 4 5 6 
#
# 1 0.014968 -0.003425 -0.003634 0.000000 0.000000 0.000000
# 2 -0.003425 0.012400 -0.000550 0.000000 0.000000 0.000000
# 3 -0.003634 -0.000550 0.015822 0.000000 0.000000 0.000000
# 4 0.000000 0.000000 0.000000 0.088555 0.000000 0.000000
# 5 0.000000 0.000000 0.000000 0.000000 0.043474 0.000000
# 6 0.000000 0.000000 0.000000 0.000000 0.000000 0.027092
#
#
# Mechanical properties :
#
#
# Convention : Reuss Voigt Hill
#
# Bulk Modulus (GPa) = 35.74911 36.37243 36.06077
# Shear Modulus (GPa) = 22.04084 26.42669 24.23377
#
# Velocity S-wave (km/s) = 3.18565 3.48823 3.34037
# Velocity P-wave (km/s) = 5.47643 5.74202 5.61080
#
# Compressibility (1/GPa) = 0.02797273
#
# Stress axis : x y z
#
# Youngs Moduli (GPa) = 66.81003 80.64422 63.20435
#
# Poissons Ratio (x) = 0.27618 0.22970
# Poissons Ratio (y) = 0.22880 0.03474
# Poissons Ratio (z) = 0.24281 0.04432
#
# Static dielectric constant tensor:
#      x y z
#    x 1.897330 0.000000 0.000000 
#    y 0.000000 1.787230 0.000000 
#    z 0.000000 0.000000 1.778780 
# 
# From -- ./inp_files/28361.got.cif
#   From: 2010.05.17/outbox.cif.g08.bks.cpg/sg66_15_cif.got.tgz:28361.got - 2010.06.03 17:51:23.
