data_PCOD9498228
_publ_section_title
;
Structure prediction by ZEFSAII (Michael W. Deem and Ramdas Pophale) SiO2 
 PCOD9498228
Probable space group: C C C M
;
_chemical_formula_sum "Si O2"
_cell_formula_units_Z 64
_cell_length_a 5.064308
_cell_length_b 25.423900
_cell_length_c 23.530334
_cell_angle_alpha 90.000000
_cell_angle_beta 90.000000
_cell_angle_gamma 90.000000
_cell_volume 3029.635452
_symmetry_space_group_name_H-M "C C C M"
_symmetry_group_IT_number 66
_symmetry_cell_setting 'orthorhombic'
loop_
_space_group_symop_operation_xyz
x,y,z
-x,-y,z
x,-y,1/2-z
-x,y,1/2-z
-x,-y,-z
x,y,-z
-x,y,1/2+z
x,-y,1/2+z
1/2+x,1/2+y,z
1/2-x,1/2-y,z
1/2+x,1/2-y,1/2-z
1/2-x,1/2+y,1/2-z
1/2-x,1/2-y,-z
1/2+x,1/2+y,-z
1/2-x,1/2+y,1/2+z
1/2+x,1/2-y,1/2+z
loop_
_atom_site_type_symbol
_atom_site_label
_atom_site_fract_x
_atom_site_fract_y
_atom_site_fract_z
Si Si1 0.502788 0.288597 0.000000
Si Si2 0.748533 0.538189 0.000000
Si Si3 0.503107 0.287924 0.624467
Si Si4 0.252926 0.038387 0.876959
Si Si5 0.260578 0.628893 0.712418
O O1 0.250000 0.250000 0.000000
O O2 0.524658 0.315819 0.937809
O O3 0.750000 0.250000 0.000000
O O4 0.500000 0.500000 0.000000
O O5 0.738843 0.565883 0.060748
O O6 0.000000 0.500000 0.000000
O O7 0.750000 0.250000 0.617586
O O8 0.593799 0.325498 0.675693
O O9 0.250000 0.250000 0.635777
O O10 0.307180 0.082654 0.830882
O O11 0.500000 0.000000 0.877482
O O12 0.000000 0.000000 0.868085
O O13 0.500000 0.607454 0.750000
O O14 0.000000 0.643641 0.750000
#
# Coordination Sequence:
#
# PCOD9498228 Si02
#       5
#     8   8  16  16  16
#     4   8  16  33  60  89 112 142 188 239 306 374
#     4   8  16  33  58  87 114 148 197 245 305 370
#     4  10  21  40  63  87 118 152 191 250 309 358
#     4  10  21  39  62  87 120 158 198 254 309 356
#     4  12  26  40  58  88 121 162 213 246 288 367
#
# _framework density 21.124654
#
# number of rings (size 3 to 8) (size 9 to 14) (size 15 to 20)
#    0.000    2.000    0.000    3.000    0.000    6.000 
#    0.000    0.000    0.000   21.000    0.000    0.000 
#    0.000    0.000    0.000    0.000    0.000    0.000 
#
# Total GULP energy -178186.391391 kJ/mol
# GULP energy per Si atom -5568.324731 kJ/mol
# Density = 2.107657 g / cm^3
# Si number density = 21.124654 Si / 1000 Ang^3
#
#
#
# Elastic Constant Matrix: (Units=GPa)
#
#
# Indices 1 2 3 4 5 6 
#
# 1 173.5229 31.1195 40.6678 0.0000 0.0000 0.0000
# 2 31.1195 65.6604 53.1943 0.0000 0.0000 0.0000
# 3 40.6678 53.1943 168.3551 0.0000 0.0000 0.0000
# 4 0.0000 0.0000 0.0000 33.7461 0.0000 0.0000
# 5 0.0000 0.0000 0.0000 0.0000 40.9368 0.0000
# 6 0.0000 0.0000 0.0000 0.0000 0.0000 23.9281
#
#
#
# Elastic Compliance Matrix: (Units=1/GPa)
#
#
# Indices 1 2 3 4 5 6 
#
# 1 0.006375 -0.002384 -0.000787 0.000000 0.000000 0.000000
# 2 -0.002384 0.021361 -0.006174 0.000000 0.000000 0.000000
# 3 -0.000787 -0.006174 0.008080 0.000000 0.000000 0.000000
# 4 0.000000 0.000000 0.000000 0.029633 0.000000 0.000000
# 5 0.000000 0.000000 0.000000 0.000000 0.024428 0.000000
# 6 0.000000 0.000000 0.000000 0.000000 0.000000 0.041792
#
#
# Mechanical properties :
#
#
# Convention : Reuss Voigt Hill
#
# Bulk Modulus (GPa) = 58.38343 73.05573 65.71958
# Shear Modulus (GPa) = 32.03750 38.55932 35.29841
#
# Velocity S-wave (km/s) = 3.89857 4.27701 4.09217
# Velocity P-wave (km/s) = 6.92551 7.68432 7.31476
#
# Compressibility (1/GPa) = 0.01712815
#
# Stress axis : x y z
#
# Youngs Moduli (GPa) = 156.86662 46.81378 123.75546
#
# Poissons Ratio (x) = 0.11161 0.09735
# Poissons Ratio (y) = 0.37398 0.76401
# Poissons Ratio (z) = 0.12340 0.28901
#
# Static dielectric constant tensor:
#      x y z
#    x 1.695350 0.000000 0.000000 
#    y 0.000000 1.676330 0.000000 
#    z 0.000000 0.000000 1.944860 
# 
# From -- ./inp_files/45709.got.cif
#   From: 2010.05.17/outbox.cif.g08.bks.cpg/sg66_23_cif.got.tgz:45709.got - 2010.06.03 17:51:23.
