data_PCOD9498173
_publ_section_title
;
Structure prediction by ZEFSAII (Michael W. Deem and Ramdas Pophale) SiO2 
 PCOD9498173
Probable space group: C C C M
;
_chemical_formula_sum "Si O2"
_cell_formula_units_Z 88
_cell_length_a 11.393292
_cell_length_b 20.170139
_cell_length_c 17.011631
_cell_angle_alpha 90.000000
_cell_angle_beta 90.000000
_cell_angle_gamma 90.000000
_cell_volume 3909.345670
_symmetry_space_group_name_H-M "C C C M"
_symmetry_group_IT_number 66
_symmetry_cell_setting 'orthorhombic'
loop_
_space_group_symop_operation_xyz
x,y,z
-x,-y,z
x,-y,1/2-z
-x,y,1/2-z
-x,-y,-z
x,y,-z
-x,y,1/2+z
x,-y,1/2+z
1/2+x,1/2+y,z
1/2-x,1/2-y,z
1/2+x,1/2-y,1/2-z
1/2-x,1/2+y,1/2-z
1/2-x,1/2-y,-z
1/2+x,1/2+y,-z
1/2-x,1/2+y,1/2+z
1/2+x,1/2-y,1/2+z
loop_
_atom_site_type_symbol
_atom_site_label
_atom_site_fract_x
_atom_site_fract_y
_atom_site_fract_z
Si Si1 0.117152 0.241311 0.365094
Si Si2 0.106237 0.148820 0.500000
Si Si3 0.131281 0.128940 0.241447
Si Si4 0.251535 0.444642 0.623365
Si Si5 0.247123 0.597521 0.409673
Si Si6 0.487854 0.886966 0.157386
O O1 0.250000 0.250000 0.398727
O O2 0.054629 0.197552 0.430512
O O3 0.131421 0.199233 0.285823
O O4 0.059830 0.311783 0.349414
O O5 0.171691 0.102814 0.567994
O O6 0.215860 0.079209 0.288758
O O7 0.174606 0.135889 0.153330
O O8 0.000000 0.102049 0.250000
O O9 0.278199 0.520101 0.603518
O O10 0.112760 0.431193 0.616751
O O11 0.268295 0.614963 0.500000
O O12 0.111869 0.606639 0.385311
O O13 0.500000 0.903887 0.250000
#
# Coordination Sequence:
#
# PCOD9498173 Si02
#       6
#    16   8  16  16  16  16
#     4  11  21  40  72  97 139 181 244 291 349 437
#     4  10  21  38  65 105 132 183 241 290 342 434
#     4  11  25  47  71  96 137 198 248 294 360 434
#     4  11  23  43  69 102 144 189 241 290 370 451
#     4  12  27  44  70 110 150 183 239 316 377 430
#     4  12  24  41  70 106 144 193 234 296 375 444
#
# _framework density 22.510159999999999
#
# number of rings (size 3 to 8) (size 9 to 14) (size 15 to 20)
#    0.000    0.727    6.364    1.909    2.545    2.909 
#    6.545    0.909    0.000    4.909    0.000    0.000 
#    0.000    0.000    0.000    0.000    0.000    0.000 
#
# Total GULP energy -245289.128487 kJ/mol
# GULP energy per Si atom -5574.752920 kJ/mol
# Density = 2.245893 g / cm^3
# Si number density = 22.510160 Si / 1000 Ang^3
#
#
#
# Elastic Constant Matrix: (Units=GPa)
#
#
# Indices 1 2 3 4 5 6 
#
# 1 66.5670 -13.6469 3.4291 0.0000 0.0000 0.0000
# 2 -13.6469 53.4765 17.8063 0.0000 0.0000 0.0000
# 3 3.4291 17.8063 158.8023 0.0000 0.0000 0.0000
# 4 0.0000 0.0000 0.0000 -225.3375 0.0000 0.0000
# 5 0.0000 0.0000 0.0000 0.0000 4.8225 0.0000
# 6 0.0000 0.0000 0.0000 0.0000 0.0000 13.1335
#
#
#
# Elastic Compliance Matrix: (Units=1/GPa)
#
#
# Indices 1 2 3 4 5 6 
#
# 1 0.015957 0.004349 -0.000832 0.000000 0.000000 0.000000
# 2 0.004349 0.020610 -0.002405 0.000000 0.000000 0.000000
# 3 -0.000832 -0.002405 0.006585 0.000000 0.000000 0.000000
# 4 0.000000 0.000000 0.000000 -0.004438 0.000000 0.000000
# 5 0.000000 0.000000 0.000000 0.000000 0.207360 0.000000
# 6 0.000000 0.000000 0.000000 0.000000 0.000000 0.076141
#
#
# Mechanical properties :
#
#
# Convention : Reuss Voigt Hill
#
# Bulk Modulus (GPa) = 22.03791 32.66920 27.35356
# Shear Modulus (GPa) = 14.92017 -23.39249 -4.23616
#
# Velocity S-wave (km/s) = 2.57732 -3.22715 -1.37331
# Velocity P-wave (km/s) = 4.32068 0.81152 3.10860
#
# Compressibility (1/GPa) = 0.04537635
#
# Stress axis : x y z
#
# Youngs Moduli (GPa) = 62.66854 48.51899 151.86551
#
# Poissons Ratio (x) = -0.21102 0.12639
# Poissons Ratio (y) = -0.27256 0.36523
# Poissons Ratio (z) = 0.05216 0.11669
#
# Static dielectric constant tensor:
#      x y z
#    x 1.923550 0.000000 0.000000 
#    y 0.000000 1.833190 0.000000 
#    z 0.000000 0.000000 1.842770 
# 
# From -- ./inp_files/38635.got.cif
#   From: 2010.05.17/outbox.cif.g08.bks.cpg/sg66_20_cif.got.tgz:38635.got - 2010.06.03 17:51:23.
