data_PCOD9498734
_publ_section_title
;
Structure prediction by ZEFSAII (Michael W. Deem and Ramdas Pophale) SiO2 
 PCOD9498734
Probable space group: C C C M
;
_chemical_formula_sum "Si O2"
_cell_formula_units_Z 64
_cell_length_a 9.665707
_cell_length_b 24.535545
_cell_length_c 13.349986
_cell_angle_alpha 90.000000
_cell_angle_beta 90.000000
_cell_angle_gamma 90.000000
_cell_volume 3165.994424
_symmetry_space_group_name_H-M "C C C M"
_symmetry_group_IT_number 66
_symmetry_cell_setting 'orthorhombic'
loop_
_space_group_symop_operation_xyz
x,y,z
-x,-y,z
x,-y,1/2-z
-x,y,1/2-z
-x,-y,-z
x,y,-z
-x,y,1/2+z
x,-y,1/2+z
1/2+x,1/2+y,z
1/2-x,1/2-y,z
1/2+x,1/2-y,1/2-z
1/2-x,1/2+y,1/2-z
1/2-x,1/2-y,-z
1/2+x,1/2+y,-z
1/2-x,1/2+y,1/2+z
1/2+x,1/2-y,1/2+z
loop_
_atom_site_type_symbol
_atom_site_label
_atom_site_fract_x
_atom_site_fract_y
_atom_site_fract_z
Si Si1 0.030991 0.673353 0.000000
Si Si2 0.676607 0.610974 0.500000
Si Si3 0.250000 0.750000 0.328470
Si Si4 0.340496 0.560359 0.780037
Si Si5 0.368040 0.143859 0.197492
Si Si6 0.454444 0.708135 0.500000
O O1 0.930996 0.657259 0.090726
O O2 0.176988 0.643010 0.000000
O O3 0.050520 0.738268 0.000000
O O4 0.672876 0.575687 0.602430
O O5 0.547715 0.653985 0.500000
O O6 0.325425 0.795977 0.263000
O O7 0.355120 0.717012 0.402414
O O8 0.290755 0.500000 0.750000
O O9 0.500000 0.563501 0.750000
O O10 0.257954 0.604224 0.714490
O O11 0.500000 0.117997 0.250000
#
# Coordination Sequence:
#
# PCOD9498734 Si02
#       6
#     8   8   8  16  16   8
#     4  10  22  40  63 100 137 175 217 272 335 405
#     4  12  22  43  70  96 134 177 222 288 334 393
#     4   9  20  36  60  97 136 178 210 275 336 405
#     4  11  27  46  68  98 130 173 234 283 338 400
#     4  11  22  41  63  95 134 173 225 271 332 405
#     4   9  19  36  63  95 134 175 218 263 342 406
#
# _framework density 20.214818000000001
#
# number of rings (size 3 to 8) (size 9 to 14) (size 15 to 20)
#    0.000    1.500    2.500    2.625    0.000    9.500 
#    0.000    1.250    0.000    0.000    0.000    0.000 
#    0.000    0.000    0.000    0.000    0.000    0.000 
#
# Total GULP energy -178527.104211 kJ/mol
# GULP energy per Si atom -5578.972007 kJ/mol
# Density = 2.016881 g / cm^3
# Si number density = 20.214818 Si / 1000 Ang^3
#
#
#
# Elastic Constant Matrix: (Units=GPa)
#
#
# Indices 1 2 3 4 5 6 
#
# 1 82.2390 51.1478 7.8046 0.0000 0.0000 0.0000
# 2 51.1478 131.9310 41.5611 0.0000 0.0000 0.0000
# 3 7.8046 41.5611 56.3948 0.0000 0.0000 0.0000
# 4 0.0000 0.0000 0.0000 26.6216 0.0000 0.0000
# 5 0.0000 0.0000 0.0000 0.0000 16.1637 0.0000
# 6 0.0000 0.0000 0.0000 0.0000 0.0000 29.6619
#
#
#
# Elastic Compliance Matrix: (Units=1/GPa)
#
#
# Indices 1 2 3 4 5 6 
#
# 1 0.016443 -0.007369 0.003155 0.000000 0.000000 0.000000
# 2 -0.007369 0.013174 -0.008689 0.000000 0.000000 0.000000
# 3 0.003155 -0.008689 0.023699 0.000000 0.000000 0.000000
# 4 0.000000 0.000000 0.000000 0.037563 0.000000 0.000000
# 5 0.000000 0.000000 0.000000 0.000000 0.061867 0.000000
# 6 0.000000 0.000000 0.000000 0.000000 0.000000 0.033713
#
#
# Mechanical properties :
#
#
# Convention : Reuss Voigt Hill
#
# Bulk Modulus (GPa) = 36.34978 52.39909 44.37443
# Shear Modulus (GPa) = 22.58006 25.82620 24.20313
#
# Velocity S-wave (km/s) = 3.34579 3.57821 3.46395
# Velocity P-wave (km/s) = 5.73991 6.56116 6.16423
#
# Compressibility (1/GPa) = 0.02751048
#
# Stress axis : x y z
#
# Youngs Moduli (GPa) = 60.81571 75.90964 42.19620
#
# Poissons Ratio (x) = 0.55935 -0.13312
# Poissons Ratio (y) = 0.44813 0.36663
# Poissons Ratio (z) = -0.19186 0.65956
#
# Static dielectric constant tensor:
#      x y z
#    x 1.729380 0.000000 0.000000 
#    y 0.000000 1.711390 0.000000 
#    z 0.000000 0.000000 1.755350 
# 
# From -- ./inp_files/24247.got.cif
#   From: 2010.05.17/outbox.cif.g08.bks.cpg/sg66_13_cif.got.tgz:24247.got - 2010.06.03 17:51:23.
