data_PCOD9498828
_publ_section_title
;
Structure prediction by ZEFSAII (Michael W. Deem and Ramdas Pophale) SiO2 
 PCOD9498828
Probable space group: C C C M
;
_chemical_formula_sum "Si O2"
_cell_formula_units_Z 96
_cell_length_a 15.946399
_cell_length_b 20.360099
_cell_length_c 14.292287
_cell_angle_alpha 90.000000
_cell_angle_beta 90.000000
_cell_angle_gamma 90.000000
_cell_volume 4640.280570
_symmetry_space_group_name_H-M "C C C M"
_symmetry_group_IT_number 66
_symmetry_cell_setting 'orthorhombic'
loop_
_space_group_symop_operation_xyz
x,y,z
-x,-y,z
x,-y,1/2-z
-x,y,1/2-z
-x,-y,-z
x,y,-z
-x,y,1/2+z
x,-y,1/2+z
1/2+x,1/2+y,z
1/2-x,1/2-y,z
1/2+x,1/2-y,1/2-z
1/2-x,1/2+y,1/2-z
1/2-x,1/2-y,-z
1/2+x,1/2+y,-z
1/2-x,1/2+y,1/2+z
1/2+x,1/2-y,1/2+z
loop_
_atom_site_type_symbol
_atom_site_label
_atom_site_fract_x
_atom_site_fract_y
_atom_site_fract_z
Si Si1 0.392191 0.566440 0.886550
Si Si2 0.374038 0.048509 0.500000
Si Si3 0.088056 0.340986 0.801038
Si Si4 0.054177 0.402141 0.000000
Si Si5 0.343510 0.720411 0.389774
Si Si6 0.279652 0.930556 0.194482
Si Si7 0.420697 0.414901 0.887603
O O1 0.313617 0.593644 0.830236
O O2 0.394632 0.488600 0.861736
O O3 0.482473 0.595620 0.858892
O O4 0.382059 0.572600 0.000000
O O5 0.453325 0.097172 0.500000
O O6 0.320878 0.056836 0.406752
O O7 0.412374 0.975974 0.500000
O O8 0.085740 0.369306 0.905760
O O9 0.103103 0.264172 0.818414
O O10 0.162744 0.377729 0.747231
O O11 0.000000 0.354434 0.750000
O O12 0.369323 0.727559 0.500000
O O13 0.250000 0.750000 0.384138
O O14 0.357444 0.643989 0.366194
O O15 0.280197 0.000000 0.250000
O O16 0.424512 0.417939 0.000000
#
# Coordination Sequence:
#
# PCOD9498828 Si02
#       7
#    16   8  16   8  16  16  16
#     4   9  18  37  66  96 132 167 207 272 330 391
#     4  11  22  38  62  88 125 173 210 277 331 387
#     4  12  25  42  62  91 127 169 216 265 325 393
#     4  11  22  40  63  83 125 170 212 272 336 384
#     4  10  22  41  68  94 125 171 219 268 325 395
#     4  12  24  36  61  97 129 168 218 265 325 395
#     4   8  17  37  66  97 126 168 215 261 334 392
#
# _framework density 20.688404999999999
#
# number of rings (size 3 to 8) (size 9 to 14) (size 15 to 20)
#    0.000    1.667    5.000    1.000    2.333    0.333 
#    3.000    1.667    0.000    0.000    0.000    5.833 
#    0.000    0.000    0.000    0.000    0.000    0.083 
#
# Total GULP energy -268175.381842 kJ/mol
# GULP energy per Si atom -5586.987122 kJ/mol
# Density = 2.064132 g / cm^3
# Si number density = 20.688405 Si / 1000 Ang^3
#
#
#
# Elastic Constant Matrix: (Units=GPa)
#
#
# Indices 1 2 3 4 5 6 
#
# 1 113.3349 15.7823 44.2729 0.0000 0.0000 0.0000
# 2 15.7823 48.7956 16.8528 0.0000 0.0000 0.0000
# 3 44.2729 16.8528 138.2242 0.0000 0.0000 0.0000
# 4 0.0000 0.0000 0.0000 44.0102 0.0000 0.0000
# 5 0.0000 0.0000 0.0000 0.0000 20.6558 0.0000
# 6 0.0000 0.0000 0.0000 0.0000 0.0000 28.1802
#
#
#
# Elastic Compliance Matrix: (Units=1/GPa)
#
#
# Indices 1 2 3 4 5 6 
#
# 1 0.010326 -0.002294 -0.003028 0.000000 0.000000 0.000000
# 2 -0.002294 0.021904 -0.001936 0.000000 0.000000 0.000000
# 3 -0.003028 -0.001936 0.008440 0.000000 0.000000 0.000000
# 4 0.000000 0.000000 0.000000 0.022722 0.000000 0.000000
# 5 0.000000 0.000000 0.000000 0.000000 0.048413 0.000000
# 6 0.000000 0.000000 0.000000 0.000000 0.000000 0.035486
#
#
# Mechanical properties :
#
#
# Convention : Reuss Voigt Hill
#
# Bulk Modulus (GPa) = 38.23324 50.46341 44.34833
# Shear Modulus (GPa) = 29.32139 33.46568 31.39354
#
# Velocity S-wave (km/s) = 3.76877 4.02631 3.89967
# Velocity P-wave (km/s) = 6.12036 6.78675 6.46215
#
# Compressibility (1/GPa) = 0.02615525
#
# Stress axis : x y z
#
# Youngs Moduli (GPa) = 96.84724 45.65326 118.47823
#
# Poissons Ratio (x) = 0.10473 0.35870
# Poissons Ratio (y) = 0.22217 0.22936
# Poissons Ratio (z) = 0.29321 0.08838
#
# Static dielectric constant tensor:
#      x y z
#    x 1.783060 0.000000 0.000000 
#    y 0.000000 1.732540 0.000000 
#    z 0.000000 0.000000 1.762840 
# 
# From -- ./inp_files/28463.got.cif
#   From: 2010.05.17/outbox.cif.g08.bks.cpg/sg66_15_cif.got.tgz:28463.got - 2010.06.03 17:51:23.
