data_PCOD9498388
_publ_section_title
;
Structure prediction by ZEFSAII (Michael W. Deem and Ramdas Pophale) SiO2 
 PCOD9498388
Probable space group: C C C M
;
_chemical_formula_sum "Si O2"
_cell_formula_units_Z 96
_cell_length_a 21.036560
_cell_length_b 11.354828
_cell_length_c 19.329788
_cell_angle_alpha 90.000000
_cell_angle_beta 90.000000
_cell_angle_gamma 90.000000
_cell_volume 4617.239202
_symmetry_space_group_name_H-M "C C C M"
_symmetry_group_IT_number 66
_symmetry_cell_setting 'orthorhombic'
loop_
_space_group_symop_operation_xyz
x,y,z
-x,-y,z
x,-y,1/2-z
-x,y,1/2-z
-x,-y,-z
x,y,-z
-x,y,1/2+z
x,-y,1/2+z
1/2+x,1/2+y,z
1/2-x,1/2-y,z
1/2+x,1/2-y,1/2-z
1/2-x,1/2+y,1/2-z
1/2-x,1/2-y,-z
1/2+x,1/2+y,-z
1/2-x,1/2+y,1/2+z
1/2+x,1/2-y,1/2+z
loop_
_atom_site_type_symbol
_atom_site_label
_atom_site_fract_x
_atom_site_fract_y
_atom_site_fract_z
Si Si1 0.929871 0.869566 0.721884
Si Si2 0.148239 0.727314 0.674889
Si Si3 0.791732 0.368116 0.078464
Si Si4 0.916722 0.227020 0.921812
Si Si5 0.233003 0.060924 0.821769
Si Si6 0.960300 0.614087 0.920239
O O1 0.885712 0.771500 0.755973
O O2 0.918865 0.866354 0.639851
O O3 0.000000 0.838335 0.750000
O O4 0.919358 0.000000 0.750000
O O5 0.180175 0.849584 0.647591
O O6 0.205653 0.641464 0.693032
O O7 0.098623 0.660851 0.624844
O O8 0.750000 0.250000 0.081009
O O9 0.863587 0.326480 0.094669
O O10 0.757969 0.461582 0.126910
O O11 0.792359 0.413737 0.000000
O O12 0.986173 0.284957 0.922025
O O13 0.902079 0.184163 0.000000
O O14 0.213198 0.000000 0.750000
O O15 0.000000 0.500000 0.894229
O O16 0.940414 0.588367 0.000000
#
# Coordination Sequence:
#
# PCOD9498388 Si02
#       6
#    16  16  16  16  16  16
#     4  11  23  41  64  92 132 169 213 274 331 393
#     4  11  24  41  63  99 129 174 225 272 343 400
#     4  10  23  42  68  96 128 176 226 273 328 400
#     4  10  21  41  66  93 126 168 220 271 326 399
#     4  11  25  41  65  94 134 177 222 278 334 398
#     4  10  21  40  66  96 132 171 213 273 345 407
#
# _framework density 20.791644999999999
#
# number of rings (size 3 to 8) (size 9 to 14) (size 15 to 20)
#    0.000    1.500    1.667    2.500    7.000    2.667 
#    0.000    5.000    0.000    0.000    0.000    0.000 
#    0.000    0.000    0.000    0.000    0.000    0.000 
#
# Total GULP energy -268045.818546 kJ/mol
# GULP energy per Si atom -5584.287886 kJ/mol
# Density = 2.074432 g / cm^3
# Si number density = 20.791645 Si / 1000 Ang^3
#
#
#
# Elastic Constant Matrix: (Units=GPa)
#
#
# Indices 1 2 3 4 5 6 
#
# 1 115.4764 28.7895 33.3355 0.0000 0.0000 0.0000
# 2 28.7895 92.5517 64.0773 0.0000 0.0000 0.0000
# 3 33.3355 64.0773 121.0308 0.0000 0.0000 0.0000
# 4 0.0000 0.0000 0.0000 34.4055 0.0000 0.0000
# 5 0.0000 0.0000 0.0000 0.0000 24.5089 0.0000
# 6 0.0000 0.0000 0.0000 0.0000 0.0000 14.9321
#
#
#
# Elastic Compliance Matrix: (Units=1/GPa)
#
#
# Indices 1 2 3 4 5 6 
#
# 1 0.009599 -0.001824 -0.001678 0.000000 0.000000 0.000000
# 2 -0.001824 0.017404 -0.008712 0.000000 0.000000 0.000000
# 3 -0.001678 -0.008712 0.013337 0.000000 0.000000 0.000000
# 4 0.000000 0.000000 0.000000 0.029065 0.000000 0.000000
# 5 0.000000 0.000000 0.000000 0.000000 0.040802 0.000000
# 6 0.000000 0.000000 0.000000 0.000000 0.000000 0.066970
#
#
# Mechanical properties :
#
#
# Convention : Reuss Voigt Hill
#
# Bulk Modulus (GPa) = 62.84664 64.60706 63.72685
# Shear Modulus (GPa) = 24.16543 28.29306 26.22924
#
# Velocity S-wave (km/s) = 3.41290 3.69289 3.55565
# Velocity P-wave (km/s) = 6.76927 7.02312 6.89737
#
# Compressibility (1/GPa) = 0.01591175
#
# Stress axis : x y z
#
# Youngs Moduli (GPa) = 104.17782 57.45958 74.98088
#
# Poissons Ratio (x) = 0.10481 0.12583
# Poissons Ratio (y) = 0.19003 0.65320
# Poissons Ratio (z) = 0.17482 0.50056
#
# Static dielectric constant tensor:
#      x y z
#    x 1.784460 0.000000 0.000000 
#    y 0.000000 1.771900 0.000000 
#    z 0.000000 0.000000 1.745360 
# 
# From -- ./inp_files/51820.got.cif
#   From: 2010.05.17/outbox.cif.g08.bks.cpg/sg66_26_cif.got.tgz:51820.got - 2010.06.03 17:51:23.
