data_PCOD9498421
_publ_section_title
;
Structure prediction by ZEFSAII (Michael W. Deem and Ramdas Pophale) SiO2 
 PCOD9498421
Probable space group: C C C M
;
_chemical_formula_sum "Si O2"
_cell_formula_units_Z 48
_cell_length_a 5.242797
_cell_length_b 13.529748
_cell_length_c 27.738710
_cell_angle_alpha 90.000000
_cell_angle_beta 90.000000
_cell_angle_gamma 90.000000
_cell_volume 1967.609950
_symmetry_space_group_name_H-M "C C C M"
_symmetry_group_IT_number 66
_symmetry_cell_setting 'orthorhombic'
loop_
_space_group_symop_operation_xyz
x,y,z
-x,-y,z
x,-y,1/2-z
-x,y,1/2-z
-x,-y,-z
x,y,-z
-x,y,1/2+z
x,-y,1/2+z
1/2+x,1/2+y,z
1/2-x,1/2-y,z
1/2+x,1/2-y,1/2-z
1/2-x,1/2+y,1/2-z
1/2-x,1/2-y,-z
1/2+x,1/2+y,-z
1/2-x,1/2+y,1/2+z
1/2+x,1/2-y,1/2+z
loop_
_atom_site_type_symbol
_atom_site_label
_atom_site_fract_x
_atom_site_fract_y
_atom_site_fract_z
Si Si1 0.646491 0.105307 0.554233
Si Si2 0.000000 0.000000 0.622582
Si Si3 0.405566 0.153281 0.352068
Si Si4 0.750000 0.250000 0.718156
O O1 0.684782 0.140534 0.500000
O O2 0.486742 0.167326 0.592323
O O3 0.500000 0.000000 0.551120
O O4 0.896735 0.082015 0.585117
O O5 0.770204 0.944804 0.650404
O O6 0.250000 0.250000 0.338999
O O7 0.650771 0.161463 0.316855
O O8 0.500000 0.276273 0.750000
#
# Coordination Sequence:
#
# PCOD9498421 Si02
#       4
#    16   8  16   8
#     4   9  19  36  63 103 151 196 238 292 362 442
#     4  10  21  40  70 105 150 190 247 296 363 448
#     4  11  23  43  72 109 142 196 244 308 376 449
#     4  12  26  48  79 106 139 190 256 316 396 454
#
# _framework density 24.395078999999999
#
# number of rings (size 3 to 8) (size 9 to 14) (size 15 to 20)
#    0.000    1.667    1.667    2.500    0.000    2.000 
#    0.000    5.833    0.000   41.000    0.000    0.000 
#    0.000    0.000    0.000    0.000    0.000    0.000 
#
# Total GULP energy -133912.670729 kJ/mol
# GULP energy per Si atom -5579.694614 kJ/mol
# Density = 2.433956 g / cm^3
# Si number density = 24.395079 Si / 1000 Ang^3
#
#
#
# Elastic Constant Matrix: (Units=GPa)
#
#
# Indices 1 2 3 4 5 6 
#
# 1 161.2818 57.2738 81.4670 0.0000 0.0000 0.0000
# 2 57.2738 99.3906 63.1105 0.0000 0.0000 0.0000
# 3 81.4670 63.1105 179.5376 0.0000 0.0000 0.0000
# 4 0.0000 0.0000 0.0000 37.3539 0.0000 0.0000
# 5 0.0000 0.0000 0.0000 0.0000 8.8472 0.0000
# 6 0.0000 0.0000 0.0000 0.0000 0.0000 46.4729
#
#
#
# Elastic Compliance Matrix: (Units=1/GPa)
#
#
# Indices 1 2 3 4 5 6 
#
# 1 0.008796 -0.003262 -0.002844 0.000000 0.000000 0.000000
# 2 -0.003262 0.014162 -0.003498 0.000000 0.000000 0.000000
# 3 -0.002844 -0.003498 0.008090 0.000000 0.000000 0.000000
# 4 0.000000 0.000000 0.000000 0.026771 0.000000 0.000000
# 5 0.000000 0.000000 0.000000 0.000000 0.113030 0.000000
# 6 0.000000 0.000000 0.000000 0.000000 0.000000 0.021518
#
#
# Mechanical properties :
#
#
# Convention : Reuss Voigt Hill
#
# Bulk Modulus (GPa) = 84.46852 93.76805 89.11829
# Shear Modulus (GPa) = 23.19940 34.42537 28.81238
#
# Velocity S-wave (km/s) = 3.08715 3.76062 3.44040
# Velocity P-wave (km/s) = 6.88533 7.57476 7.23826
#
# Compressibility (1/GPa) = 0.01183873
#
# Stress axis : x y z
#
# Youngs Moduli (GPa) = 113.69357 70.60950 123.60797
#
# Poissons Ratio (x) = 0.23036 0.35158
# Poissons Ratio (y) = 0.37091 0.43238
# Poissons Ratio (z) = 0.32338 0.24699
#
# Static dielectric constant tensor:
#      x y z
#    x 2.143020 0.000000 0.000000 
#    y 0.000000 1.933970 0.000000 
#    z 0.000000 0.000000 1.939580 
# 
# From -- ./inp_files/66714.got.cif
#   From: 2010.05.17/outbox.cif.g08.bks.cpg/sg66_34_cif.got.tgz:66714.got - 2010.06.03 17:51:23.
