data_PCOD9498601
_publ_section_title
;
Structure prediction by ZEFSAII (Michael W. Deem and Ramdas Pophale) SiO2 
 PCOD9498601
Probable space group: C C C M
;
_chemical_formula_sum "Si O2"
_cell_formula_units_Z 116
_cell_length_a 25.725601
_cell_length_b 8.503870
_cell_length_c 29.337067
_cell_angle_alpha 90.000000
_cell_angle_beta 90.000000
_cell_angle_gamma 90.000000
_cell_volume 6417.987023
_symmetry_space_group_name_H-M "C C C M"
_symmetry_group_IT_number 66
_symmetry_cell_setting 'orthorhombic'
loop_
_space_group_symop_operation_xyz
x,y,z
-x,-y,z
x,-y,1/2-z
-x,y,1/2-z
-x,-y,-z
x,y,-z
-x,y,1/2+z
x,-y,1/2+z
1/2+x,1/2+y,z
1/2-x,1/2-y,z
1/2+x,1/2-y,1/2-z
1/2-x,1/2+y,1/2-z
1/2-x,1/2-y,-z
1/2+x,1/2+y,-z
1/2-x,1/2+y,1/2+z
1/2+x,1/2-y,1/2+z
loop_
_atom_site_type_symbol
_atom_site_label
_atom_site_fract_x
_atom_site_fract_y
_atom_site_fract_z
Si Si1 0.500000 0.500000 0.250000
Si Si2 0.114393 0.518497 0.695315
Si Si3 0.439790 0.328215 0.825458
Si Si4 0.326554 0.633913 0.446549
Si Si5 0.467882 0.856978 0.873787
Si Si6 0.707207 0.023673 0.445653
Si Si7 0.193681 0.682605 0.142446
Si Si8 0.106704 0.094588 0.386869
O O1 0.537044 0.612511 0.221483
O O2 0.109423 0.500000 0.750000
O O3 0.105429 0.700638 0.682143
O O4 0.068778 0.428163 0.666618
O O5 0.168133 0.445718 0.676182
O O6 0.486882 0.245735 0.851734
O O7 0.423622 0.481002 0.853110
O O8 0.336054 0.636138 0.500000
O O9 0.324534 0.817756 0.432636
O O10 0.268178 0.566691 0.440041
O O11 0.367981 0.520389 0.423718
O O12 0.430545 0.739256 0.901845
O O13 0.500000 0.000000 0.896890
O O14 0.699019 0.988270 0.500000
O O15 0.695074 0.889942 0.408934
O O16 0.250000 0.750000 0.154621
O O17 0.153882 0.826205 0.140215
#
# Coordination Sequence:
#
# PCOD9498601 Si02
#       8
#     4  16  16  16  16  16  16  16
#     4  12  20  32  62  88 106 132 186 252 304 316
#     4  10  22  38  58  80 112 154 189 234 285 340
#     4  11  21  35  57  85 110 139 183 242 291 333
#     4   9  18  33  58  85 110 142 186 233 285 340
#     4   9  19  36  55  80 109 144 184 234 290 333
#     4   9  18  35  57  84 113 144 186 240 288 329
#     4  11  22  37  53  80 117 155 191 228 277 338
#     4  11  20  34  54  84 114 146 186 231 283 341
#
# _framework density 18.074204000000002
#
# number of rings (size 3 to 8) (size 9 to 14) (size 15 to 20)
#    0.000    1.931    2.759    2.483    1.931    2.759 
#    0.000    1.379    0.000    2.069    0.000    1.931 
#    0.000    0.000    0.000    0.000    0.000    0.000 
#
# Total GULP energy -323208.163568 kJ/mol
# GULP energy per Si atom -5572.554544 kJ/mol
# Density = 1.803307 g / cm^3
# Si number density = 18.074204 Si / 1000 Ang^3
#
#
#
# Elastic Constant Matrix: (Units=GPa)
#
#
# Indices 1 2 3 4 5 6 
#
# 1 92.6746 55.3906 15.3611 0.0000 0.0000 0.0000
# 2 55.3906 102.7087 25.7247 0.0000 0.0000 0.0000
# 3 15.3611 25.7247 38.3584 0.0000 0.0000 0.0000
# 4 0.0000 0.0000 0.0000 -18.3813 0.0000 0.0000
# 5 0.0000 0.0000 0.0000 0.0000 -259.1637 0.0000
# 6 0.0000 0.0000 0.0000 0.0000 0.0000 35.2055
#
#
#
# Elastic Compliance Matrix: (Units=1/GPa)
#
#
# Indices 1 2 3 4 5 6 
#
# 1 0.015941 -0.008411 -0.000743 0.000000 0.000000 0.000000
# 2 -0.008411 0.016139 -0.007456 0.000000 0.000000 0.000000
# 3 -0.000743 -0.007456 0.031368 0.000000 0.000000 0.000000
# 4 0.000000 0.000000 0.000000 -0.054403 0.000000 0.000000
# 5 0.000000 0.000000 0.000000 0.000000 -0.003859 0.000000
# 6 0.000000 0.000000 0.000000 0.000000 0.000000 0.028405
#
#
# Mechanical properties :
#
#
# Convention : Reuss Voigt Hill
#
# Bulk Modulus (GPa) = 33.08095 47.41049 40.24572
# Shear Modulus (GPa) = 65.03195 -39.31687 12.85754
#
# Velocity S-wave (km/s) = 6.00489 -4.66907 2.67006
# Velocity P-wave (km/s) = 8.14989 1.66704 5.64100
#
# Compressibility (1/GPa) = 0.03022888
#
# Stress axis : x y z
#
# Youngs Moduli (GPa) = 62.73326 61.96005 31.88006
#
# Poissons Ratio (x) = 0.52112 0.02369
# Poissons Ratio (y) = 0.52762 0.23769
# Poissons Ratio (z) = 0.04662 0.46195
#
# Static dielectric constant tensor:
#      x y z
#    x 1.782120 0.000000 0.000000 
#    y 0.000000 1.664860 0.000000 
#    z 0.000000 0.000000 1.580650 
# 
# From -- ./inp_files/66128.got.cif
#   From: 2010.05.17/outbox.cif.g08.bks.cpg/sg66_34_cif.got.tgz:66128.got - 2010.06.03 17:51:23.
