data_PCOD9498167
_publ_section_title
;
Structure prediction by ZEFSAII (Michael W. Deem and Ramdas Pophale) SiO2 
 PCOD9498167
Probable space group: C C C M
;
_chemical_formula_sum "Si O2"
_cell_formula_units_Z 80
_cell_length_a 17.706830
_cell_length_b 8.154603
_cell_length_c 24.597574
_cell_angle_alpha 90.000000
_cell_angle_beta 90.000000
_cell_angle_gamma 90.000000
_cell_volume 3551.697063
_symmetry_space_group_name_H-M "C C C M"
_symmetry_group_IT_number 66
_symmetry_cell_setting 'orthorhombic'
loop_
_space_group_symop_operation_xyz
x,y,z
-x,-y,z
x,-y,1/2-z
-x,y,1/2-z
-x,-y,-z
x,y,-z
-x,y,1/2+z
x,-y,1/2+z
1/2+x,1/2+y,z
1/2-x,1/2-y,z
1/2+x,1/2-y,1/2-z
1/2-x,1/2+y,1/2-z
1/2-x,1/2-y,-z
1/2+x,1/2+y,-z
1/2-x,1/2+y,1/2+z
1/2+x,1/2-y,1/2+z
loop_
_atom_site_type_symbol
_atom_site_label
_atom_site_fract_x
_atom_site_fract_y
_atom_site_fract_z
Si Si1 0.086088 0.036205 0.561566
Si Si2 0.187792 0.145346 0.148121
Si Si3 0.327719 0.858280 0.941739
Si Si4 0.695058 0.904710 0.677304
Si Si5 0.911301 0.799405 0.756195
O O1 0.098706 0.971415 0.500000
O O2 0.104195 0.228193 0.559058
O O3 0.143095 0.966065 0.606114
O O4 0.000000 0.000000 0.577080
O O5 0.250000 0.250000 0.116416
O O6 0.125106 0.233282 0.184859
O O7 0.245202 0.050080 0.189697
O O8 0.250000 0.750000 0.942654
O O9 0.332637 0.945033 0.883818
O O10 0.329127 0.948859 0.000000
O O11 0.750000 0.750000 0.671747
O O12 0.631158 0.827726 0.715847
O O13 0.000000 0.770981 0.750000
O O14 0.901416 0.000000 0.750000
#
# Coordination Sequence:
#
# PCOD9498167 Si02
#       5
#    16  16  16  16  16
#     4  10  21  38  64  95 125 159 206 261 312 373
#     4  12  26  40  62  94 127 166 209 258 315 372
#     4   9  16  31  60  90 112 151 205 247 297 363
#     4  11  20  39  61  88 124 159 208 258 300 372
#     4  11  24  39  64  92 120 162 211 269 316 370
#
# _framework density 22.524443000000002
#
# number of rings (size 3 to 8) (size 9 to 14) (size 15 to 20)
#    0.000    1.400    6.000    0.600    5.600    0.400 
#    0.000    2.000    0.000    0.000    0.000    4.200 
#    0.000    0.000    0.000    0.000    0.000    0.000 
#
# Total GULP energy -222839.546153 kJ/mol
# GULP energy per Si atom -5570.988654 kJ/mol
# Density = 2.247318 g / cm^3
# Si number density = 22.524443 Si / 1000 Ang^3
#
#
#
# Elastic Constant Matrix: (Units=GPa)
#
#
# Indices 1 2 3 4 5 6 
#
# 1 156.6281 41.0578 52.0471 0.0000 0.0000 0.0000
# 2 41.0578 35.6529 22.1253 0.0000 0.0000 0.0000
# 3 52.0471 22.1253 132.0000 0.0000 0.0000 0.0000
# 4 0.0000 0.0000 0.0000 17.2224 0.0000 0.0000
# 5 0.0000 0.0000 0.0000 0.0000 35.5554 0.0000
# 6 0.0000 0.0000 0.0000 0.0000 0.0000 37.6494
#
#
#
# Elastic Compliance Matrix: (Units=1/GPa)
#
#
# Indices 1 2 3 4 5 6 
#
# 1 0.009673 -0.009791 -0.002173 0.000000 0.000000 0.000000
# 2 -0.009791 0.041215 -0.003048 0.000000 0.000000 0.000000
# 3 -0.002173 -0.003048 0.008943 0.000000 0.000000 0.000000
# 4 0.000000 0.000000 0.000000 0.058064 0.000000 0.000000
# 5 0.000000 0.000000 0.000000 0.000000 0.028125 0.000000
# 6 0.000000 0.000000 0.000000 0.000000 0.000000 0.026561
#
#
# Mechanical properties :
#
#
# Convention : Reuss Voigt Hill
#
# Bulk Modulus (GPa) = 33.54800 61.63794 47.59297
# Shear Modulus (GPa) = 23.52482 32.02214 27.77348
#
# Velocity S-wave (km/s) = 3.23524 3.77458 3.51527
# Velocity P-wave (km/s) = 5.37421 6.81329 6.13608
#
# Compressibility (1/GPa) = 0.02980804
#
# Stress axis : x y z
#
# Youngs Moduli (GPa) = 103.37789 24.26294 111.81443
#
# Poissons Ratio (x) = 0.23756 0.24297
# Poissons Ratio (y) = 1.01220 0.34078
# Poissons Ratio (z) = 0.22464 0.07395
#
# Static dielectric constant tensor:
#      x y z
#    x 1.797470 0.000000 0.000000 
#    y 0.000000 1.983690 0.000000 
#    z 0.000000 0.000000 1.901470 
# 
# From -- ./inp_files/65043.got.cif
#   From: 2010.05.17/outbox.cif.g08.bks.cpg/sg66_33_cif.got.tgz:65043.got - 2010.06.03 17:51:23.
