data_PCOD9498962
_publ_section_title
;
Structure prediction by ZEFSAII (Michael W. Deem and Ramdas Pophale) SiO2 
 PCOD9498962
Probable space group: C C C M
;
_chemical_formula_sum "Si O2"
_cell_formula_units_Z 36
_cell_length_a 9.174195
_cell_length_b 19.631989
_cell_length_c 8.565910
_cell_angle_alpha 90.000000
_cell_angle_beta 90.000000
_cell_angle_gamma 90.000000
_cell_volume 1542.786308
_symmetry_space_group_name_H-M "C C C M"
_symmetry_group_IT_number 66
_symmetry_cell_setting 'orthorhombic'
loop_
_space_group_symop_operation_xyz
x,y,z
-x,-y,z
x,-y,1/2-z
-x,y,1/2-z
-x,-y,-z
x,y,-z
-x,y,1/2+z
x,-y,1/2+z
1/2+x,1/2+y,z
1/2-x,1/2-y,z
1/2+x,1/2-y,1/2-z
1/2-x,1/2+y,1/2-z
1/2-x,1/2-y,-z
1/2+x,1/2+y,-z
1/2-x,1/2+y,1/2+z
1/2+x,1/2-y,1/2+z
loop_
_atom_site_type_symbol
_atom_site_label
_atom_site_fract_x
_atom_site_fract_y
_atom_site_fract_z
Si Si1 0.266780 0.669582 0.500000
Si Si2 0.500000 0.500000 0.250000
Si Si3 0.806777 0.879594 0.336597
Si Si4 0.971861 0.418969 0.000000
O O1 0.250000 0.750000 0.500000
O O2 0.338508 0.651620 0.332448
O O3 0.117755 0.625420 0.500000
O O4 0.393848 0.449923 0.340603
O O5 0.841474 0.840558 0.500000
O O6 0.636318 0.898360 0.357219
O O7 0.000000 0.500000 0.000000
#
# Coordination Sequence:
#
# PCOD9498962 Si02
#       4
#     8   4  16   8
#     4  12  26  48  71 110 149 197 246 304 382 456
#     4  12  22  48  68 118 144 186 256 306 382 422
#     4  10  26  42  72 103 148 191 240 312 361 446
#     4  10  22  48  76 107 144 191 252 313 376 435
#
# _framework density 23.334406999999999
#
# number of rings (size 3 to 8) (size 9 to 14) (size 15 to 20)
#    1.333    0.000    0.000    4.667    6.222    2.667 
#    8.000    0.000    0.000    0.000    0.000    0.000 
#    0.000    0.000    0.000    0.000    0.000    0.000 
#
# Total GULP energy -100329.652381 kJ/mol
# GULP energy per Si atom -5573.869577 kJ/mol
# Density = 2.328130 g / cm^3
# Si number density = 23.334407 Si / 1000 Ang^3
#
#
#
# Elastic Constant Matrix: (Units=GPa)
#
#
# Indices 1 2 3 4 5 6 
#
# 1 77.8116 14.0007 34.4638 0.0000 0.0000 0.0000
# 2 14.0007 121.8202 69.7935 0.0000 0.0000 0.0000
# 3 34.4638 69.7935 272.6855 0.0000 0.0000 0.0000
# 4 0.0000 0.0000 0.0000 8.3589 0.0000 0.0000
# 5 0.0000 0.0000 0.0000 0.0000 -11.0482 0.0000
# 6 0.0000 0.0000 0.0000 0.0000 0.0000 16.9728
#
#
#
# Elastic Compliance Matrix: (Units=1/GPa)
#
#
# Indices 1 2 3 4 5 6 
#
# 1 0.013662 -0.000681 -0.001552 0.000000 0.000000 0.000000
# 2 -0.000681 0.009653 -0.002385 0.000000 0.000000 0.000000
# 3 -0.001552 -0.002385 0.004474 0.000000 0.000000 0.000000
# 4 0.000000 0.000000 0.000000 0.119633 0.000000 0.000000
# 5 0.000000 0.000000 0.000000 0.000000 -0.090512 0.000000
# 6 0.000000 0.000000 0.000000 0.000000 0.000000 0.058918
#
#
# Mechanical properties :
#
#
# Convention : Reuss Voigt Hill
#
# Bulk Modulus (GPa) = 53.89950 78.75928 66.32939
# Shear Modulus (GPa) = 38.09611 26.46064 32.27838
#
# Velocity S-wave (km/s) = 4.04495 3.37111 3.72330
# Velocity P-wave (km/s) = 6.70554 6.99844 6.85356
#
# Compressibility (1/GPa) = 0.01855305
#
# Stress axis : x y z
#
# Youngs Moduli (GPa) = 73.19770 103.59142 223.52361
#
# Poissons Ratio (x) = 0.07051 0.34700
# Poissons Ratio (y) = 0.04983 0.53304
# Poissons Ratio (z) = 0.11363 0.24704
#
# Static dielectric constant tensor:
#      x y z
#    x 1.904460 0.000000 0.000000 
#    y 0.000000 2.058670 0.000000 
#    z 0.000000 0.000000 2.070390 
# 
# From -- ./inp_files/3326.got.cif
#   From: 2010.05.17/outbox.cif.g08.bks.cpg/sg66_2_cif.got.tgz:3326.got - 2010.06.03 17:51:23.
