data_PCOD9498618
_publ_section_title
;
Structure prediction by ZEFSAII (Michael W. Deem and Ramdas Pophale) SiO2 
 PCOD9498618
Probable space group: C C C M
;
_chemical_formula_sum "Si O2"
_cell_formula_units_Z 96
_cell_length_a 21.681786
_cell_length_b 12.196954
_cell_length_c 18.997989
_cell_angle_alpha 90.000000
_cell_angle_beta 90.000000
_cell_angle_gamma 90.000000
_cell_volume 5024.051371
_symmetry_space_group_name_H-M "C C C M"
_symmetry_group_IT_number 66
_symmetry_cell_setting 'orthorhombic'
loop_
_space_group_symop_operation_xyz
x,y,z
-x,-y,z
x,-y,1/2-z
-x,y,1/2-z
-x,-y,-z
x,y,-z
-x,y,1/2+z
x,-y,1/2+z
1/2+x,1/2+y,z
1/2-x,1/2-y,z
1/2+x,1/2-y,1/2-z
1/2-x,1/2+y,1/2-z
1/2-x,1/2-y,-z
1/2+x,1/2+y,-z
1/2-x,1/2+y,1/2+z
1/2+x,1/2-y,1/2+z
loop_
_atom_site_type_symbol
_atom_site_label
_atom_site_fract_x
_atom_site_fract_y
_atom_site_fract_z
Si Si1 0.121185 0.118113 0.417419
Si Si2 0.999480 0.868552 0.165444
Si Si3 0.819036 0.265121 0.814623
Si Si4 0.304178 0.403717 0.082994
Si Si5 0.622134 0.767187 0.834105
Si Si6 0.313641 0.009807 0.832583
O O1 0.116849 0.138811 0.500000
O O2 0.061008 0.161619 0.376955
O O3 0.175628 0.180762 0.378069
O O4 0.139309 0.990602 0.407772
O O5 0.000000 0.859281 0.250000
O O6 0.942374 0.789726 0.144996
O O7 0.000000 0.000000 0.150815
O O8 0.750000 0.250000 0.785603
O O9 0.863009 0.242022 0.748044
O O10 0.832261 0.384870 0.846515
O O11 0.326243 0.292175 0.118824
O O12 0.244438 0.451522 0.122010
O O13 0.292771 0.391911 0.000000
O O14 0.633198 0.897966 0.840210
O O15 0.295322 0.000000 0.750000
#
# Coordination Sequence:
#
# PCOD9498618 Si02
#       6
#    16  16  16  16  16  16
#     4  11  24  39  61  94 126 162 210 258 311 382
#     4  11  22  39  64  88 117 160 208 258 312 373
#     4  11  21  39  64  90 126 166 210 259 314 387
#     4  11  23  38  60  94 133 164 203 265 324 383
#     4  11  22  38  63  92 123 160 211 264 317 374
#     4  10  22  38  61  92 124 165 208 258 317 378
#
# _framework density 19.108084000000002
#
# number of rings (size 3 to 8) (size 9 to 14) (size 15 to 20)
#    0.000    1.167    5.000    2.500    0.000    3.333 
#    0.000    0.833    0.000    1.000    0.000    0.000 
#    0.000    0.000    0.000    0.000    0.000    0.000 
#
# Total GULP energy -267541.427211 kJ/mol
# GULP energy per Si atom -5573.779734 kJ/mol
# Density = 1.906459 g / cm^3
# Si number density = 19.108084 Si / 1000 Ang^3
#
#
#
# Elastic Constant Matrix: (Units=GPa)
#
#
# Indices 1 2 3 4 5 6 
#
# 1 73.3994 8.4200 14.5395 0.0000 0.0000 0.0000
# 2 8.4200 97.0995 34.1951 0.0000 0.0000 0.0000
# 3 14.5395 34.1951 52.8683 0.0000 0.0000 0.0000
# 4 0.0000 0.0000 0.0000 1.7473 0.0000 0.0000
# 5 0.0000 0.0000 0.0000 0.0000 18.8917 0.0000
# 6 0.0000 0.0000 0.0000 0.0000 0.0000 27.7202
#
#
#
# Elastic Compliance Matrix: (Units=1/GPa)
#
#
# Indices 1 2 3 4 5 6 
#
# 1 0.014412 0.000189 -0.004086 0.000000 0.000000 0.000000
# 2 0.000189 0.013339 -0.008680 0.000000 0.000000 0.000000
# 3 -0.004086 -0.008680 0.025653 0.000000 0.000000 0.000000
# 4 0.000000 0.000000 0.000000 0.572308 0.000000 0.000000
# 5 0.000000 0.000000 0.000000 0.000000 0.052933 0.000000
# 6 0.000000 0.000000 0.000000 0.000000 0.000000 0.036075
#
#
# Mechanical properties :
#
#
# Convention : Reuss Voigt Hill
#
# Bulk Modulus (GPa) = 35.39729 37.51959 36.45844
# Shear Modulus (GPa) = 6.67300 20.75268 13.71284
#
# Velocity S-wave (km/s) = 1.87078 3.29913 2.68180
# Velocity P-wave (km/s) = 4.81990 5.84726 5.35826
#
# Compressibility (1/GPa) = 0.02825075
#
# Stress axis : x y z
#
# Youngs Moduli (GPa) = 69.38791 74.96815 38.98243
#
# Poissons Ratio (x) = -0.01418 0.15927
# Poissons Ratio (y) = -0.01312 0.33835
# Poissons Ratio (z) = 0.28350 0.65070
#
# Static dielectric constant tensor:
#      x y z
#    x 1.702340 0.000000 0.000000 
#    y 0.000000 1.718560 0.000000 
#    z 0.000000 0.000000 1.636590 
# 
# From -- ./inp_files/38816.got.cif
#   From: 2010.05.17/outbox.cif.g08.bks.cpg/sg66_20_cif.got.tgz:38816.got - 2010.06.03 17:51:23.
