data_PCOD9498409
_publ_section_title
;
Structure prediction by ZEFSAII (Michael W. Deem and Ramdas Pophale) SiO2 
 PCOD9498409
Probable space group: C C C M
;
_chemical_formula_sum "Si O2"
_cell_formula_units_Z 116
_cell_length_a 11.988178
_cell_length_b 17.246224
_cell_length_c 28.110256
_cell_angle_alpha 90.000000
_cell_angle_beta 90.000000
_cell_angle_gamma 90.000000
_cell_volume 5811.818004
_symmetry_space_group_name_H-M "C C C M"
_symmetry_group_IT_number 66
_symmetry_cell_setting 'orthorhombic'
loop_
_space_group_symop_operation_xyz
x,y,z
-x,-y,z
x,-y,1/2-z
-x,y,1/2-z
-x,-y,-z
x,y,-z
-x,y,1/2+z
x,-y,1/2+z
1/2+x,1/2+y,z
1/2-x,1/2-y,z
1/2+x,1/2-y,1/2-z
1/2-x,1/2+y,1/2-z
1/2-x,1/2-y,-z
1/2+x,1/2+y,-z
1/2-x,1/2+y,1/2+z
1/2+x,1/2-y,1/2+z
loop_
_atom_site_type_symbol
_atom_site_label
_atom_site_fract_x
_atom_site_fract_y
_atom_site_fract_z
Si Si1 0.868525 0.953617 0.834517
Si Si2 0.810757 0.328799 0.358928
Si Si3 0.000000 0.000000 0.250000
Si Si4 0.234863 0.393898 0.358508
Si Si5 0.910708 0.431017 0.052358
Si Si6 0.466083 0.806005 0.194477
Si Si7 0.536437 0.335620 0.127125
Si Si8 0.929463 0.716896 0.053925
O O1 0.768019 0.897384 0.844997
O O2 0.968995 0.916420 0.866602
O O3 0.812420 0.038676 0.836239
O O4 0.922418 0.948351 0.782918
O O5 0.750000 0.250000 0.342002
O O6 0.829668 0.319949 0.415297
O O7 0.930849 0.341486 0.335299
O O8 0.166919 0.431198 0.401875
O O9 0.148369 0.349181 0.323130
O O10 0.331536 0.340986 0.381635
O O11 0.000000 0.500000 0.055985
O O12 0.975831 0.349373 0.052962
O O13 0.855509 0.438736 0.000000
O O14 0.500000 0.811113 0.250000
O O15 0.467520 0.717476 0.174933
O O16 0.475197 0.287464 0.085747
O O17 0.901232 0.737557 0.000000
#
# Coordination Sequence:
#
# PCOD9498409 Si02
#       8
#    16  16   4  16  16  16  16  16
#     4  12  26  44  68  94 137 177 232 276 342 413
#     4  11  22  43  67  97 134 175 221 284 339 397
#     4  12  28  48  68 102 126 200 230 272 350 420
#     4  12  24  43  68  96 136 176 222 286 339 400
#     4  10  21  40  67  99 135 176 223 277 345 409
#     4  11  26  41  67  99 130 173 228 281 339 403
#     4  11  23  46  64  99 136 179 222 282 340 409
#     4  10  21  41  70 103 135 178 232 281 346 417
#
# _framework density 19.959330999999999
#
# number of rings (size 3 to 8) (size 9 to 14) (size 15 to 20)
#    0.000    0.966    6.897    1.241    2.897    1.931 
#    0.000    2.759    0.000    1.655    0.000    0.000 
#    0.000    0.000    0.000    0.000    0.000    0.000 
#
# Total GULP energy -323235.713602 kJ/mol
# GULP energy per Si atom -5573.029545 kJ/mol
# Density = 1.991390 g / cm^3
# Si number density = 19.959331 Si / 1000 Ang^3
#
#
#
# Elastic Constant Matrix: (Units=GPa)
#
#
# Indices 1 2 3 4 5 6 
#
# 1 100.6388 25.1237 25.3779 0.0000 0.0000 0.0000
# 2 25.1237 74.3828 29.1912 0.0000 0.0000 0.0000
# 3 25.3779 29.1912 136.9397 0.0000 0.0000 0.0000
# 4 0.0000 0.0000 0.0000 -27.6130 0.0000 0.0000
# 5 0.0000 0.0000 0.0000 0.0000 -1.8587 0.0000
# 6 0.0000 0.0000 0.0000 0.0000 0.0000 33.3886
#
#
#
# Elastic Compliance Matrix: (Units=1/GPa)
#
#
# Indices 1 2 3 4 5 6 
#
# 1 0.011082 -0.003205 -0.001371 0.000000 0.000000 0.000000
# 2 -0.003205 0.015598 -0.002731 0.000000 0.000000 0.000000
# 3 -0.001371 -0.002731 0.008139 0.000000 0.000000 0.000000
# 4 0.000000 0.000000 0.000000 -0.036215 0.000000 0.000000
# 5 0.000000 0.000000 0.000000 0.000000 -0.538004 0.000000
# 6 0.000000 0.000000 0.000000 0.000000 0.000000 0.029950
#
#
# Mechanical properties :
#
#
# Convention : Reuss Voigt Hill
#
# Bulk Modulus (GPa) = 49.49140 52.37188 50.93164
# Shear Modulus (GPa) = -10.24380 16.26794 3.01207
#
# Velocity S-wave (km/s) = -2.26792 2.85801 1.22979
# Velocity P-wave (km/s) = 4.24170 6.09813 5.25258
#
# Compressibility (1/GPa) = 0.02020553
#
# Stress axis : x y z
#
# Youngs Moduli (GPa) = 90.23390 64.10912 122.87057
#
# Poissons Ratio (x) = 0.20549 0.16840
# Poissons Ratio (y) = 0.28923 0.33557
# Poissons Ratio (z) = 0.12367 0.17509
#
# Static dielectric constant tensor:
#      x y z
#    x 1.750750 0.000000 0.000000 
#    y 0.000000 1.949460 0.000000 
#    z 0.000000 0.000000 1.709310 
# 
# From -- ./inp_files/63858.got.cif
#   From: 2010.05.17/outbox.cif.g08.bks.cpg/sg66_32_cif.got.tgz:63858.got - 2010.06.03 17:51:23.
