data_PCOD9498220
_publ_section_title
;
Structure prediction by ZEFSAII (Michael W. Deem and Ramdas Pophale) SiO2 
 PCOD9498220
Probable space group: C C C M
;
_chemical_formula_sum "Si O2"
_cell_formula_units_Z 112
_cell_length_a 11.905935
_cell_length_b 16.318293
_cell_length_c 29.697516
_cell_angle_alpha 90.000000
_cell_angle_beta 90.000000
_cell_angle_gamma 90.000000
_cell_volume 5769.768110
_symmetry_space_group_name_H-M "C C C M"
_symmetry_group_IT_number 66
_symmetry_cell_setting 'orthorhombic'
loop_
_space_group_symop_operation_xyz
x,y,z
-x,-y,z
x,-y,1/2-z
-x,y,1/2-z
-x,-y,-z
x,y,-z
-x,y,1/2+z
x,-y,1/2+z
1/2+x,1/2+y,z
1/2-x,1/2-y,z
1/2+x,1/2-y,1/2-z
1/2-x,1/2+y,1/2-z
1/2-x,1/2-y,-z
1/2+x,1/2+y,-z
1/2-x,1/2+y,1/2+z
1/2+x,1/2-y,1/2+z
loop_
_atom_site_type_symbol
_atom_site_label
_atom_site_fract_x
_atom_site_fract_y
_atom_site_fract_z
Si Si1 0.598996 0.161800 0.308376
Si Si2 0.278080 0.000684 0.196720
Si Si3 0.314178 0.995475 0.053815
Si Si4 0.616526 0.452289 0.380777
Si Si5 0.369683 0.260570 0.103229
Si Si6 0.505584 0.133044 0.946553
Si Si7 0.660894 0.818369 0.294366
O O1 0.619710 0.063996 0.312891
O O2 0.647302 0.208341 0.351089
O O3 0.469860 0.189983 0.306617
O O4 0.656993 0.180636 0.260481
O O5 0.174854 0.032557 0.167465
O O6 0.255040 0.000000 0.250000
O O7 0.304853 0.906764 0.186472
O O8 0.380516 0.912904 0.067695
O O9 0.204328 0.013188 0.082465
O O10 0.403505 0.068949 0.061597
O O11 0.292860 0.992261 0.000000
O O12 0.500000 0.500000 0.383640
O O13 0.605013 0.355126 0.388118
O O14 0.250000 0.250000 0.077815
O O15 0.470846 0.215846 0.077702
O O16 0.512635 0.145194 0.000000
O O17 0.750000 0.750000 0.308811
#
# Coordination Sequence:
#
# PCOD9498220 Si02
#       7
#    16  16  16  16  16  16  16
#     4  10  21  39  61  87 123 160 213 259 315 373
#     4  10  22  41  62  86 123 166 217 263 315 373
#     4   9  19  40  66  95 130 164 208 264 321 383
#     4  12  27  42  60  93 133 170 214 259 324 392
#     4  12  22  39  64  93 124 163 208 269 310 372
#     4   9  19  37  67 100 123 158 213 264 316 378
#     4  10  22  37  61  91 120 162 208 266 315 372
#
# _framework density 19.411525000000001
#
# number of rings (size 3 to 8) (size 9 to 14) (size 15 to 20)
#    0.000    1.714    2.857    1.714    6.000    3.143 
#    0.000    0.714    0.000    1.714    0.000    0.000 
#    0.000    0.000    0.000    0.000    0.000    0.000 
#
# Total GULP energy -312596.640620 kJ/mol
# GULP energy per Si atom -5582.082868 kJ/mol
# Density = 1.936734 g / cm^3
# Si number density = 19.411525 Si / 1000 Ang^3
#
#
#
# Elastic Constant Matrix: (Units=GPa)
#
#
# Indices 1 2 3 4 5 6 
#
# 1 93.0793 73.1103 39.7403 0.0000 0.0000 0.0000
# 2 73.1103 146.1680 36.0825 0.0000 0.0000 0.0000
# 3 39.7403 36.0825 61.1722 0.0000 0.0000 0.0000
# 4 0.0000 0.0000 0.0000 8.7825 0.0000 0.0000
# 5 0.0000 0.0000 0.0000 0.0000 14.3080 0.0000
# 6 0.0000 0.0000 0.0000 0.0000 0.0000 34.5744
#
#
#
# Elastic Compliance Matrix: (Units=1/GPa)
#
#
# Indices 1 2 3 4 5 6 
#
# 1 0.021049 -0.008372 -0.008736 0.000000 0.000000 0.000000
# 2 -0.008372 0.011337 -0.001248 0.000000 0.000000 0.000000
# 3 -0.008736 -0.001248 0.022759 0.000000 0.000000 0.000000
# 4 0.000000 0.000000 0.000000 0.113862 0.000000 0.000000
# 5 0.000000 0.000000 0.000000 0.000000 0.069891 0.000000
# 6 0.000000 0.000000 0.000000 0.000000 0.000000 0.028923
#
#
# Mechanical properties :
#
#
# Convention : Reuss Voigt Hill
#
# Bulk Modulus (GPa) = 54.25293 66.47620 60.36456
# Shear Modulus (GPa) = 16.09374 21.63208 18.86291
#
# Velocity S-wave (km/s) = 2.88250 3.34187 3.12065
# Velocity P-wave (km/s) = 6.25203 7.01505 6.64450
#
# Compressibility (1/GPa) = 0.01843219
#
# Stress axis : x y z
#
# Youngs Moduli (GPa) = 47.50760 88.20664 43.93799
#
# Poissons Ratio (x) = 0.73844 0.38386
# Poissons Ratio (y) = 0.39772 0.05486
# Poissons Ratio (z) = 0.41505 0.11012
#
# Static dielectric constant tensor:
#      x y z
#    x 1.674860 0.000000 0.000000 
#    y 0.000000 1.676660 0.000000 
#    z 0.000000 0.000000 1.694650 
# 
# From -- ./inp_files/69075.got.cif
#   From: 2010.05.17/outbox.cif.g08.bks.cpg/sg66_35_cif.got.tgz:69075.got - 2010.06.03 17:51:23.
