data_PCOD9498263
_publ_section_title
;
Structure prediction by ZEFSAII (Michael W. Deem and Ramdas Pophale) SiO2 
 PCOD9498263
Probable space group: C C C M
;
_chemical_formula_sum "Si O2"
_cell_formula_units_Z 68
_cell_length_a 16.394652
_cell_length_b 9.809637
_cell_length_c 21.301860
_cell_angle_alpha 90.000000
_cell_angle_beta 90.000000
_cell_angle_gamma 90.000000
_cell_volume 3425.884093
_symmetry_space_group_name_H-M "C C C M"
_symmetry_group_IT_number 66
_symmetry_cell_setting 'orthorhombic'
loop_
_space_group_symop_operation_xyz
x,y,z
-x,-y,z
x,-y,1/2-z
-x,y,1/2-z
-x,-y,-z
x,y,-z
-x,y,1/2+z
x,-y,1/2+z
1/2+x,1/2+y,z
1/2-x,1/2-y,z
1/2+x,1/2-y,1/2-z
1/2-x,1/2+y,1/2-z
1/2-x,1/2-y,-z
1/2+x,1/2+y,-z
1/2-x,1/2+y,1/2+z
1/2+x,1/2-y,1/2+z
loop_
_atom_site_type_symbol
_atom_site_label
_atom_site_fract_x
_atom_site_fract_y
_atom_site_fract_z
Si Si1 0.500000 0.000000 0.750000
Si Si2 0.358322 0.860888 0.671625
Si Si3 0.909236 0.559053 0.429197
Si Si4 0.664704 0.332564 0.926243
Si Si5 0.823588 0.056228 0.683962
O O1 0.437516 0.910693 0.709307
O O2 0.270513 0.901808 0.699581
O O3 0.362521 0.699685 0.663749
O O4 0.358062 0.950658 0.609028
O O5 0.878690 0.563247 0.500000
O O6 0.900962 0.715162 0.407089
O O7 0.000000 0.500000 0.428204
O O8 0.750000 0.250000 0.924012
O O9 0.667998 0.449457 0.873363
O O10 0.651595 0.375305 0.000000
O O11 0.857975 0.000000 0.750000
#
# Coordination Sequence:
#
# PCOD9498263 Si02
#       5
#     4  16  16  16  16
#     4  12  24  44  64  88 124 170 214 242 320 392
#     4  11  24  39  64  92 123 165 206 261 314 364
#     4  10  21  39  64  91 121 165 210 250 307 375
#     4  10  21  39  64  92 128 169 207 257 314 375
#     4  11  25  39  62  99 128 161 206 268 315 370
#
# _framework density 19.848890999999998
#
# number of rings (size 3 to 8) (size 9 to 14) (size 15 to 20)
#    0.000    1.412    4.706    0.000    6.588    0.941 
#    0.000    6.471    0.000    4.235    0.000    0.000 
#    0.000    0.000    0.000    0.000    0.000    0.000 
#
# Total GULP energy -189502.271617 kJ/mol
# GULP energy per Si atom -5573.596224 kJ/mol
# Density = 1.980371 g / cm^3
# Si number density = 19.848891 Si / 1000 Ang^3
#
#
#
# Elastic Constant Matrix: (Units=GPa)
#
#
# Indices 1 2 3 4 5 6 
#
# 1 66.6203 42.7061 11.4635 0.0000 0.0000 0.0000
# 2 42.7061 201.6672 101.5995 0.0000 0.0000 0.0000
# 3 11.4635 101.5995 107.5027 0.0000 0.0000 0.0000
# 4 0.0000 0.0000 0.0000-3265.3206 0.0000 0.0000
# 5 0.0000 0.0000 0.0000 0.0000 -177.0636 0.0000
# 6 0.0000 0.0000 0.0000 0.0000 0.0000 30.7964
#
#
#
# Elastic Compliance Matrix: (Units=1/GPa)
#
#
# Indices 1 2 3 4 5 6 
#
# 1 0.017927 -0.005408 0.003200 0.000000 0.000000 0.000000
# 2 -0.005408 0.011097 -0.009911 0.000000 0.000000 0.000000
# 3 0.003200 -0.009911 0.018328 0.000000 0.000000 0.000000
# 4 0.000000 0.000000 0.000000 -0.000306 0.000000 0.000000
# 5 0.000000 0.000000 0.000000 0.000000 -0.005648 0.000000
# 6 0.000000 0.000000 0.000000 0.000000 0.000000 0.032471
#
#
# Mechanical properties :
#
#
# Convention : Reuss Voigt Hill
#
# Bulk Modulus (GPa) = 43.26694 76.36982 59.81838
# Shear Modulus (GPa) = 47.25346 -667.64950 -310.19802
#
# Velocity S-wave (km/s) = 4.88449 -18.36018 -12.51475
# Velocity P-wave (km/s) = 7.32506 20.27073 13.36499
#
# Compressibility (1/GPa) = 0.02311233
#
# Stress axis : x y z
#
# Youngs Moduli (GPa) = 55.78248 90.11353 54.56217
#
# Poissons Ratio (x) = 0.48736 -0.17458
# Poissons Ratio (y) = 0.30169 0.54077
# Poissons Ratio (z) = -0.17849 0.89312
#
# Static dielectric constant tensor:
#      x y z
#    x 1.791820 0.000000 0.000000 
#    y 0.000000 1.712480 0.000000 
#    z 0.000000 0.000000 1.757330 
# 
# From -- ./inp_files/46745.got.cif
#   From: 2010.05.17/outbox.cif.g08.bks.cpg/sg66_24_cif.got.tgz:46745.got - 2010.06.03 17:51:23.
