data_PCOD9498558
_publ_section_title
;
Structure prediction by ZEFSAII (Michael W. Deem and Ramdas Pophale) SiO2 
 PCOD9498558
Probable space group: C C C M
;
_chemical_formula_sum "Si O2"
_cell_formula_units_Z 80
_cell_length_a 11.708390
_cell_length_b 11.302513
_cell_length_c 30.769790
_cell_angle_alpha 90.000000
_cell_angle_beta 90.000000
_cell_angle_gamma 90.000000
_cell_volume 4071.896473
_symmetry_space_group_name_H-M "C C C M"
_symmetry_group_IT_number 66
_symmetry_cell_setting 'orthorhombic'
loop_
_space_group_symop_operation_xyz
x,y,z
-x,-y,z
x,-y,1/2-z
-x,y,1/2-z
-x,-y,-z
x,y,-z
-x,y,1/2+z
x,-y,1/2+z
1/2+x,1/2+y,z
1/2-x,1/2-y,z
1/2+x,1/2-y,1/2-z
1/2-x,1/2+y,1/2-z
1/2-x,1/2-y,-z
1/2+x,1/2+y,-z
1/2-x,1/2+y,1/2+z
1/2+x,1/2-y,1/2+z
loop_
_atom_site_type_symbol
_atom_site_label
_atom_site_fract_x
_atom_site_fract_y
_atom_site_fract_z
Si Si1 0.206463 0.617444 0.620086
Si Si2 0.637102 0.977998 0.699636
Si Si3 0.250000 0.250000 0.346677
Si Si4 0.605463 0.432512 0.096907
Si Si5 0.000000 0.500000 0.076371
Si Si6 0.891555 0.877326 0.500000
Si Si7 0.145676 0.602262 0.000000
O O1 0.250000 0.750000 0.614866
O O2 0.201348 0.573991 0.669781
O O3 0.293135 0.528705 0.595944
O O4 0.078532 0.590472 0.602962
O O5 0.681699 0.850159 0.681384
O O6 0.500000 0.000000 0.694777
O O7 0.664073 0.000000 0.750000
O O8 0.340005 0.321424 0.377351
O O9 0.500000 0.500000 0.119601
O O10 0.561399 0.397730 0.048507
O O11 0.915824 0.434928 0.043719
O O12 0.861570 0.741332 0.500000
O O13 0.772573 0.947384 0.500000
#
# Coordination Sequence:
#
# PCOD9498558 Si02
#       7
#    16  16   8  16   8   8   8
#     4  11  25  40  67  92 126 167 210 264 318 385
#     4  10  23  43  69  98 126 167 208 264 331 385
#     4  10  24  45  66  92 134 166 214 267 314 396
#     4  11  25  41  63  94 125 172 216 260 320 372
#     4  11  22  44  59  90 124 166 215 256 322 373
#     4  11  21  38  59  89 126 165 217 265 306 374
#     4  10  22  36  64  83 123 169 209 266 313 365
#
# _framework density 19.646864000000001
#
# number of rings (size 3 to 8) (size 9 to 14) (size 15 to 20)
#    0.000    1.400    3.000    1.500    9.800    0.000 
#    0.000    2.500    0.000    5.400    0.000    0.000 
#    0.000    0.000    0.000    0.000    0.000    0.000 
#
# Total GULP energy -222843.961661 kJ/mol
# GULP energy per Si atom -5571.099042 kJ/mol
# Density = 1.960215 g / cm^3
# Si number density = 19.646864 Si / 1000 Ang^3
#
#
#
# Elastic Constant Matrix: (Units=GPa)
#
#
# Indices 1 2 3 4 5 6 
#
# 1 73.8526 37.7640 21.6976 0.0000 0.0000 0.0000
# 2 37.7640 134.2731 59.4380 0.0000 0.0000 0.0000
# 3 21.6976 59.4380 128.2780 0.0000 0.0000 0.0000
# 4 0.0000 0.0000 0.0000 -17.6479 0.0000 0.0000
# 5 0.0000 0.0000 0.0000 0.0000 9.8115 0.0000
# 6 0.0000 0.0000 0.0000 0.0000 0.0000 37.6547
#
#
#
# Elastic Compliance Matrix: (Units=1/GPa)
#
#
# Indices 1 2 3 4 5 6 
#
# 1 0.015876 -0.004122 -0.000775 0.000000 0.000000 0.000000
# 2 -0.004122 0.010439 -0.004140 0.000000 0.000000 0.000000
# 3 -0.000775 -0.004140 0.009845 0.000000 0.000000 0.000000
# 4 0.000000 0.000000 0.000000 -0.056664 0.000000 0.000000
# 5 0.000000 0.000000 0.000000 0.000000 0.101921 0.000000
# 6 0.000000 0.000000 0.000000 0.000000 0.000000 0.026557
#
#
# Mechanical properties :
#
#
# Convention : Reuss Voigt Hill
#
# Bulk Modulus (GPa) = 55.29176 63.80032 59.54604
# Shear Modulus (GPa) = 37.85664 20.46395 29.16029
#
# Velocity S-wave (km/s) = 4.39436 3.23087 3.85674
# Velocity P-wave (km/s) = 7.34514 6.81631 7.08566
#
# Compressibility (1/GPa) = 0.01808588
#
# Stress axis : x y z
#
# Youngs Moduli (GPa) = 62.98825 95.79140 101.57460
#
# Poissons Ratio (x) = 0.39483 0.07877
# Poissons Ratio (y) = 0.25962 0.42051
# Poissons Ratio (z) = 0.04885 0.39657
#
# Static dielectric constant tensor:
#      x y z
#    x 1.827400 0.000000 0.000000 
#    y 0.000000 1.681710 0.000000 
#    z 0.000000 0.000000 1.710390 
# 
# From -- ./inp_files/68827.got.cif
#   From: 2010.05.17/outbox.cif.g08.bks.cpg/sg66_35_cif.got.tgz:68827.got - 2010.06.03 17:51:23.
