data_PCOD9498341
_publ_section_title
;
Structure prediction by ZEFSAII (Michael W. Deem and Ramdas Pophale) SiO2 
 PCOD9498341
Probable space group: C C C M
;
_chemical_formula_sum "Si O2"
_cell_formula_units_Z 112
_cell_length_a 14.897400
_cell_length_b 21.469049
_cell_length_c 17.513723
_cell_angle_alpha 90.000000
_cell_angle_beta 90.000000
_cell_angle_gamma 90.000000
_cell_volume 5601.466753
_symmetry_space_group_name_H-M "C C C M"
_symmetry_group_IT_number 66
_symmetry_cell_setting 'orthorhombic'
loop_
_space_group_symop_operation_xyz
x,y,z
-x,-y,z
x,-y,1/2-z
-x,y,1/2-z
-x,-y,-z
x,y,-z
-x,y,1/2+z
x,-y,1/2+z
1/2+x,1/2+y,z
1/2-x,1/2-y,z
1/2+x,1/2-y,1/2-z
1/2-x,1/2+y,1/2-z
1/2-x,1/2-y,-z
1/2+x,1/2+y,-z
1/2-x,1/2+y,1/2+z
1/2+x,1/2-y,1/2+z
loop_
_atom_site_type_symbol
_atom_site_label
_atom_site_fract_x
_atom_site_fract_y
_atom_site_fract_z
Si Si1 0.603976 0.880409 0.740343
Si Si2 0.150536 0.241480 0.210420
Si Si3 0.482795 0.694101 0.583259
Si Si4 0.198586 0.583725 0.087368
Si Si5 0.821835 0.804243 0.626516
Si Si6 0.566106 0.554723 0.088882
Si Si7 0.246263 0.037610 0.826062
O O1 0.500000 0.898179 0.750000
O O2 0.618290 0.807611 0.756711
O O3 0.631068 0.893194 0.652905
O O4 0.673221 0.917734 0.796148
O O5 0.250000 0.250000 0.176406
O O6 0.078997 0.219373 0.149796
O O7 0.162674 0.194806 0.281967
O O8 0.445579 0.710461 0.500000
O O9 0.584584 0.715586 0.590599
O O10 0.486209 0.619545 0.589622
O O11 0.283660 0.630228 0.097273
O O12 0.221113 0.513405 0.112359
O O13 0.167923 0.587086 0.000000
O O14 0.750000 0.750000 0.611705
O O15 0.500000 0.500000 0.116720
O O16 0.656470 0.565533 0.137257
O O17 0.589593 0.540174 0.000000
O O18 0.219312 0.000000 0.750000
#
# Coordination Sequence:
#
# PCOD9498341 Si02
#       7
#    16  16  16  16  16  16  16
#     4  11  23  45  66  93 130 179 214 269 331 393
#     4  11  22  43  67  92 128 170 221 265 324 396
#     4  11  24  38  62  96 130 169 213 267 325 391
#     4  11  23  41  67  98 126 160 220 275 323 378
#     4  11  22  41  65  91 127 170 213 269 326 381
#     4  10  21  40  62  90 133 171 210 269 334 390
#     4  10  23  40  65  92 125 171 216 261 324 395
#
# _framework density 19.994764
#
# number of rings (size 3 to 8) (size 9 to 14) (size 15 to 20)
#    0.000    1.286    2.857    3.857    2.000    5.429 
#    2.571    3.571    0.000    0.000    0.000    0.000 
#    0.000    0.000    0.000    0.000    0.000    0.000 
#
# Total GULP energy -312860.828731 kJ/mol
# GULP energy per Si atom -5586.800513 kJ/mol
# Density = 1.994926 g / cm^3
# Si number density = 19.994764 Si / 1000 Ang^3
#
#
#
# Elastic Constant Matrix: (Units=GPa)
#
#
# Indices 1 2 3 4 5 6 
#
# 1 123.3831 24.0543 56.4828 0.0000 0.0000 0.0000
# 2 24.0543 59.9846 50.2246 0.0000 0.0000 0.0000
# 3 56.4828 50.2246 109.7552 0.0000 0.0000 0.0000
# 4 0.0000 0.0000 0.0000 11.3752 0.0000 0.0000
# 5 0.0000 0.0000 0.0000 0.0000 3.7186 0.0000
# 6 0.0000 0.0000 0.0000 0.0000 0.0000 27.0044
#
#
#
# Elastic Compliance Matrix: (Units=1/GPa)
#
#
# Indices 1 2 3 4 5 6 
#
# 1 0.010612 0.000514 -0.005697 0.000000 0.000000 0.000000
# 2 0.000514 0.027051 -0.012643 0.000000 0.000000 0.000000
# 3 -0.005697 -0.012643 0.017828 0.000000 0.000000 0.000000
# 4 0.000000 0.000000 0.000000 0.087911 0.000000 0.000000
# 5 0.000000 0.000000 0.000000 0.000000 0.268917 0.000000
# 6 0.000000 0.000000 0.000000 0.000000 0.000000 0.037031
#
#
# Mechanical properties :
#
#
# Convention : Reuss Voigt Hill
#
# Bulk Modulus (GPa) = 50.40277 61.62737 56.01507
# Shear Modulus (GPa) = 10.17055 19.24374 14.70715
#
# Velocity S-wave (km/s) = 2.25780 3.10569 2.71504
# Velocity P-wave (km/s) = 5.66212 6.61431 6.15665
#
# Compressibility (1/GPa) = 0.01984018
#
# Stress axis : x y z
#
# Youngs Moduli (GPa) = 94.22886 36.96751 56.09022
#
# Poissons Ratio (x) = -0.01901 0.31953
# Poissons Ratio (y) = -0.04844 0.70916
# Poissons Ratio (z) = 0.53679 0.46739
#
# Static dielectric constant tensor:
#      x y z
#    x 1.708500 0.000000 0.000000 
#    y 0.000000 1.720630 0.000000 
#    z 0.000000 0.000000 1.711820 
# 
# From -- ./inp_files/28703.got.cif
#   From: 2010.05.17/outbox.cif.g08.bks.cpg/sg66_15_cif.got.tgz:28703.got - 2010.06.03 17:51:23.
