data_PCOD9498886
_publ_section_title
;
Structure prediction by ZEFSAII (Michael W. Deem and Ramdas Pophale) SiO2 
 PCOD9498886
Probable space group: C C C M
;
_chemical_formula_sum "Si O2"
_cell_formula_units_Z 60
_cell_length_a 17.914877
_cell_length_b 5.713509
_cell_length_c 27.815964
_cell_angle_alpha 90.000000
_cell_angle_beta 90.000000
_cell_angle_gamma 90.000000
_cell_volume 2847.153369
_symmetry_space_group_name_H-M "C C C M"
_symmetry_group_IT_number 66
_symmetry_cell_setting 'orthorhombic'
loop_
_space_group_symop_operation_xyz
x,y,z
-x,-y,z
x,-y,1/2-z
-x,y,1/2-z
-x,-y,-z
x,y,-z
-x,y,1/2+z
x,-y,1/2+z
1/2+x,1/2+y,z
1/2-x,1/2-y,z
1/2+x,1/2-y,1/2-z
1/2-x,1/2+y,1/2-z
1/2-x,1/2-y,-z
1/2+x,1/2+y,-z
1/2-x,1/2+y,1/2+z
1/2+x,1/2-y,1/2+z
loop_
_atom_site_type_symbol
_atom_site_label
_atom_site_fract_x
_atom_site_fract_y
_atom_site_fract_z
Si Si1 0.401327 0.822846 0.833190
Si Si2 0.000000 0.000000 0.097986
Si Si3 0.794546 0.497639 0.000000
Si Si4 0.750000 0.750000 0.719643
Si Si5 0.582780 0.100718 0.576681
Si Si6 0.000000 0.500000 0.750000
O O1 0.450252 0.659545 0.867308
O O2 0.321494 0.740173 0.815279
O O3 0.447694 0.855038 0.784892
O O4 0.398564 0.054916 0.866951
O O5 0.063742 0.129569 0.067849
O O6 0.750000 0.750000 0.000000
O O7 0.850421 0.503545 0.045568
O O8 0.750000 0.250000 0.000000
O O9 0.753697 0.500000 0.750000
O O10 0.500000 0.000000 0.565531
#
# Coordination Sequence:
#
# PCOD9498886 Si02
#       6
#    16   8   8   8  16   4
#     4  11  25  43  69 102 143 188 243 302 361 429
#     4  10  22  42  78 100 134 194 246 302 360 434
#     4  12  31  49  76 114 148 193 242 307 373 443
#     4  12  30  44  62 101 144 195 234 294 372 432
#     4  10  24  48  73 106 139 193 244 302 368 435
#     4  12  20  46  64 106 138 186 254 288 354 434
#
# _framework density 21.073682000000002
#
# number of rings (size 3 to 8) (size 9 to 14) (size 15 to 20)
#    0.000    1.067    5.333    0.400   16.800    0.533 
#    0.000    0.000    0.000    0.000    0.000    0.000 
#    0.000    0.000    0.000    0.000    0.000    0.000 
#
# Total GULP energy -167054.447004 kJ/mol
# GULP energy per Si atom -5568.481567 kJ/mol
# Density = 2.102572 g / cm^3
# Si number density = 21.073682 Si / 1000 Ang^3
#
#
#
# Elastic Constant Matrix: (Units=GPa)
#
#
# Indices 1 2 3 4 5 6 
#
# 1 161.5818 48.1247 46.7731 0.0000 0.0000 0.0000
# 2 48.1247 98.4236 26.8932 0.0000 0.0000 0.0000
# 3 46.7731 26.8932 81.4959 0.0000 0.0000 0.0000
# 4 0.0000 0.0000 0.0000 14.7523 0.0000 0.0000
# 5 0.0000 0.0000 0.0000 0.0000 -33.6818 0.0000
# 6 0.0000 0.0000 0.0000 0.0000 0.0000 36.1655
#
#
#
# Elastic Compliance Matrix: (Units=1/GPa)
#
#
# Indices 1 2 3 4 5 6 
#
# 1 0.008143 -0.002973 -0.003693 0.000000 0.000000 0.000000
# 2 -0.002973 0.012252 -0.002337 0.000000 0.000000 0.000000
# 3 -0.003693 -0.002337 0.015161 0.000000 0.000000 0.000000
# 4 0.000000 0.000000 0.000000 0.067786 0.000000 0.000000
# 5 0.000000 0.000000 0.000000 0.000000 -0.029690 0.000000
# 6 0.000000 0.000000 0.000000 0.000000 0.000000 0.027651
#
#
# Mechanical properties :
#
#
# Convention : Reuss Voigt Hill
#
# Bulk Modulus (GPa) = 56.97444 65.00926 60.99185
# Shear Modulus (GPa) = 39.94928 18.09455 29.02191
#
# Velocity S-wave (km/s) = 4.35868 2.93342 3.71504
# Velocity P-wave (km/s) = 7.24053 6.51067 6.88528
#
# Compressibility (1/GPa) = 0.01755173
#
# Stress axis : x y z
#
# Youngs Moduli (GPa) = 122.80391 81.61787 65.95837
#
# Poissons Ratio (x) = 0.24262 0.24356
# Poissons Ratio (y) = 0.36505 0.15415
# Poissons Ratio (z) = 0.45347 0.19075
#
# Static dielectric constant tensor:
#      x y z
#    x 2.172450 0.000000 0.000000 
#    y 0.000000 2.008180 0.000000 
#    z 0.000000 0.000000 1.769630 
# 
# From -- ./inp_files/61130.got.cif
#   From: 2010.05.17/outbox.cif.g08.bks.cpg/sg66_31_cif.got.tgz:61130.got - 2010.06.03 17:51:23.
