data_PCOD9498875
_publ_section_title
;
Structure prediction by ZEFSAII (Michael W. Deem and Ramdas Pophale) SiO2 
 PCOD9498875
Probable space group: C C C M
;
_chemical_formula_sum "Si O2"
_cell_formula_units_Z 64
_cell_length_a 10.467880
_cell_length_b 15.749789
_cell_length_c 14.617687
_cell_angle_alpha 90.000000
_cell_angle_beta 90.000000
_cell_angle_gamma 90.000000
_cell_volume 2409.972760
_symmetry_space_group_name_H-M "C C C M"
_symmetry_group_IT_number 66
_symmetry_cell_setting 'orthorhombic'
loop_
_space_group_symop_operation_xyz
x,y,z
-x,-y,z
x,-y,1/2-z
-x,y,1/2-z
-x,-y,-z
x,y,-z
-x,y,1/2+z
x,-y,1/2+z
1/2+x,1/2+y,z
1/2-x,1/2-y,z
1/2+x,1/2-y,1/2-z
1/2-x,1/2+y,1/2-z
1/2-x,1/2-y,-z
1/2+x,1/2+y,-z
1/2-x,1/2+y,1/2+z
1/2+x,1/2-y,1/2+z
loop_
_atom_site_type_symbol
_atom_site_label
_atom_site_fract_x
_atom_site_fract_y
_atom_site_fract_z
Si Si1 0.531260 0.342993 0.358495
Si Si2 0.250000 0.655741 0.859771
Si Si3 0.031261 0.342992 0.141505
Si Si4 0.250000 0.977062 0.605489
O O1 0.500000 0.347942 0.250000
O O2 0.390879 0.344671 0.402729
O O3 0.587780 0.250000 0.378216
O O4 0.626172 0.417828 0.382914
O O5 0.250000 0.750000 0.811232
O O6 0.250000 0.557928 0.826472
O O7 0.109121 0.655330 0.902729
O O8 0.126172 0.417827 0.117086
O O9 0.000000 0.347941 0.250000
O O10 0.250000 0.008253 0.500000
#
# Coordination Sequence:
#
# PCOD9498875 Si02
#       4
#    16  16  16  16
#     4  10  22  42  68  98 132 172 220 273 332 400
#     4  10  23  41  62  91 130 176 225 275 328 390
#     4  10  22  42  68  98 132 172 220 273 332 400
#     4  12  26  42  65 100 137 174 220 276 336 392
#
# _framework density 26.556318000000001
#
# number of rings (size 3 to 8) (size 9 to 14) (size 15 to 20)
#    0.000    1.500    0.000    3.750    0.000   16.500 
#    0.000    5.000    0.000    0.000    0.000    0.000 
#    0.000    0.000    0.000    0.000    0.000    0.000 
#
# Total GULP energy -178513.975449 kJ/mol
# GULP energy per Si atom -5578.561733 kJ/mol
# Density = 2.649587 g / cm^3
# Si number density = 26.556318 Si / 1000 Ang^3
#
#
#
# Elastic Constant Matrix: (Units=GPa)
#
#
# Indices 1 2 3 4 5 6 
#
# 1 205.3991 87.5945 19.1475 0.0000 0.0000 0.0000
# 2 87.5945 278.8541 20.9270 0.0000 0.0000 0.0000
# 3 19.1475 20.9270 118.6352 0.0000 0.0000 0.0000
# 4 0.0000 0.0000 0.0000 1.7861 0.0000 0.0000
# 5 0.0000 0.0000 0.0000 0.0000 -32.3819 0.0000
# 6 0.0000 0.0000 0.0000 0.0000 0.0000 69.9931
#
#
#
# Elastic Compliance Matrix: (Units=1/GPa)
#
#
# Indices 1 2 3 4 5 6 
#
# 1 0.005665 -0.001734 -0.000608 0.000000 0.000000 0.000000
# 2 -0.001734 0.004165 -0.000455 0.000000 0.000000 0.000000
# 3 -0.000608 -0.000455 0.008608 0.000000 0.000000 0.000000
# 4 0.000000 0.000000 0.000000 0.559890 0.000000 0.000000
# 5 0.000000 0.000000 0.000000 0.000000 -0.030881 0.000000
# 6 0.000000 0.000000 0.000000 0.000000 0.000000 0.014287
#
#
# Mechanical properties :
#
#
# Convention : Reuss Voigt Hill
#
# Bulk Modulus (GPa) = 77.86287 95.35850 86.61068
# Shear Modulus (GPa) = 8.74726 39.56074 24.15400
#
# Velocity S-wave (km/s) = 1.81687 3.86384 3.01913
# Velocity P-wave (km/s) = 5.81248 7.47607 6.69614
#
# Compressibility (1/GPa) = 0.01284309
#
# Stress axis : x y z
#
# Youngs Moduli (GPa) = 176.53316 240.10492 116.17589
#
# Poissons Ratio (x) = 0.41628 0.07069
# Poissons Ratio (y) = 0.30606 0.05284
# Poissons Ratio (z) = 0.10741 0.10921
#
# Static dielectric constant tensor:
#      x y z
#    x 2.014710 0.000000 0.000000 
#    y 0.000000 2.052770 0.000000 
#    z 0.000000 0.000000 2.170880 
# 
# From -- ./inp_files/25766.got.cif
#   From: 2010.05.17/outbox.cif.g08.bks.cpg/sg66_13_cif.got.tgz:25766.got - 2010.06.03 17:51:23.
