data_PCOD9498883
_publ_section_title
;
Structure prediction by ZEFSAII (Michael W. Deem and Ramdas Pophale) SiO2 
 PCOD9498883
Probable space group: C C C M
;
_chemical_formula_sum "Si O2"
_cell_formula_units_Z 52
_cell_length_a 18.068790
_cell_length_b 7.878024
_cell_length_c 14.699064
_cell_angle_alpha 90.000000
_cell_angle_beta 90.000000
_cell_angle_gamma 90.000000
_cell_volume 2092.358274
_symmetry_space_group_name_H-M "C C C M"
_symmetry_group_IT_number 66
_symmetry_cell_setting 'orthorhombic'
loop_
_space_group_symop_operation_xyz
x,y,z
-x,-y,z
x,-y,1/2-z
-x,y,1/2-z
-x,-y,-z
x,y,-z
-x,y,1/2+z
x,-y,1/2+z
1/2+x,1/2+y,z
1/2-x,1/2-y,z
1/2+x,1/2-y,1/2-z
1/2-x,1/2+y,1/2-z
1/2-x,1/2-y,-z
1/2+x,1/2+y,-z
1/2-x,1/2+y,1/2+z
1/2+x,1/2-y,1/2+z
loop_
_atom_site_type_symbol
_atom_site_label
_atom_site_fract_x
_atom_site_fract_y
_atom_site_fract_z
Si Si1 0.500000 0.000000 0.750000
Si Si2 0.922389 0.062909 0.855142
Si Si3 0.735252 0.448320 0.355786
Si Si4 0.102875 0.545853 0.103081
O O1 0.439799 0.072905 0.823677
O O2 0.918865 0.265315 0.865162
O O3 0.922677 0.000000 0.750000
O O4 0.844917 0.994841 0.894610
O O5 0.000000 0.000000 0.894936
O O6 0.733732 0.500000 0.250000
O O7 0.750000 0.250000 0.365363
O O8 0.808671 0.536279 0.393139
O O9 0.080730 0.510398 0.000000
#
# Coordination Sequence:
#
# PCOD9498883 Si02
#       4
#     4  16  16  16
#     4  12  26  48  74 106 146 192 236 316 364 442
#     4  10  22  42  72 108 148 196 244 296 368 436
#     4  11  23  42  72 107 149 202 248 304 375 443
#     4  12  27  46  75 110 148 196 250 307 373 447
#
# _framework density 24.852339000000001
#
# number of rings (size 3 to 8) (size 9 to 14) (size 15 to 20)
#    0.000    0.923    1.538    6.923    4.308    3.692 
#    0.000    0.000    0.000    0.000    0.000    0.000 
#    0.000    0.000    0.000    0.000    0.000    0.000 
#
# Total GULP energy -145340.167054 kJ/mol
# GULP energy per Si atom -5590.006425 kJ/mol
# Density = 2.479577 g / cm^3
# Si number density = 24.852339 Si / 1000 Ang^3
#
#
#
# Elastic Constant Matrix: (Units=GPa)
#
#
# Indices 1 2 3 4 5 6 
#
# 1 304.7086 70.6750 54.7080 0.0000 0.0000 0.0000
# 2 70.6750 116.7434 -7.4429 0.0000 0.0000 0.0000
# 3 54.7080 -7.4429 190.4183 0.0000 0.0000 0.0000
# 4 0.0000 0.0000 0.0000 18.4556 0.0000 0.0000
# 5 0.0000 0.0000 0.0000 0.0000 8885.4191 0.0000
# 6 0.0000 0.0000 0.0000 0.0000 0.0000 41.1371
#
#
#
# Elastic Compliance Matrix: (Units=1/GPa)
#
#
# Indices 1 2 3 4 5 6 
#
# 1 0.004107 -0.002568 -0.001280 0.000000 0.000000 0.000000
# 2 -0.002568 0.010193 0.001136 0.000000 0.000000 0.000000
# 3 -0.001280 0.001136 0.005664 0.000000 0.000000 0.000000
# 4 0.000000 0.000000 0.000000 0.054184 0.000000 0.000000
# 5 0.000000 0.000000 0.000000 0.000000 0.000113 0.000000
# 6 0.000000 0.000000 0.000000 0.000000 0.000000 0.024309
#
#
# Mechanical properties :
#
#
# Convention : Reuss Voigt Hill
#
# Bulk Modulus (GPa) = 68.77813 94.19449 81.48631
# Shear Modulus (GPa) = 45.93855 1821.93105 933.93480
#
# Velocity S-wave (km/s) = 4.30404 27.10524 19.40643
# Velocity P-wave (km/s) = 7.24116 31.89947 23.13018
#
# Compressibility (1/GPa) = 0.01453950
#
# Stress axis : x y z
#
# Youngs Moduli (GPa) = 243.46331 98.10659 176.55711
#
# Poissons Ratio (x) = 0.25196 0.22607
# Poissons Ratio (y) = 0.62526 -0.20062
# Poissons Ratio (z) = 0.31174 -0.11148
#
# Static dielectric constant tensor:
#      x y z
#    x 2.016540 0.000000 0.000000 
#    y 0.000000 2.005140 0.000000 
#    z 0.000000 0.000000 1.957570 
# 
# From -- ./inp_files/35941.got.cif
#   From: 2010.05.17/outbox.cif.g08.bks.cpg/sg66_18_cif.got.tgz:35941.got - 2010.06.03 17:51:23.
