data_PCOD9498742
_publ_section_title
;
Structure prediction by ZEFSAII (Michael W. Deem and Ramdas Pophale) SiO2 
 PCOD9498742
Probable space group: C C C M
;
_chemical_formula_sum "Si O2"
_cell_formula_units_Z 40
_cell_length_a 5.010987
_cell_length_b 14.966576
_cell_length_c 24.147232
_cell_angle_alpha 90.000000
_cell_angle_beta 90.000000
_cell_angle_gamma 90.000000
_cell_volume 1810.977632
_symmetry_space_group_name_H-M "C C C M"
_symmetry_group_IT_number 66
_symmetry_cell_setting 'orthorhombic'
loop_
_space_group_symop_operation_xyz
x,y,z
-x,-y,z
x,-y,1/2-z
-x,y,1/2-z
-x,-y,-z
x,y,-z
-x,y,1/2+z
x,-y,1/2+z
1/2+x,1/2+y,z
1/2-x,1/2-y,z
1/2+x,1/2-y,1/2-z
1/2-x,1/2+y,1/2-z
1/2-x,1/2-y,-z
1/2+x,1/2+y,-z
1/2-x,1/2+y,1/2+z
1/2+x,1/2-y,1/2+z
loop_
_atom_site_type_symbol
_atom_site_label
_atom_site_fract_x
_atom_site_fract_y
_atom_site_fract_z
Si Si1 0.738466 0.559843 0.598860
Si Si2 0.488566 0.318045 0.500000
Si Si3 0.243956 0.357383 0.715165
O O1 0.500000 0.500000 0.621804
O O2 0.580455 0.617178 0.551990
O O3 0.810196 0.619534 0.651264
O O4 0.000000 0.500000 0.580960
O O5 0.250000 0.250000 0.500000
O O6 0.750000 0.250000 0.500000
O O7 0.500000 0.388220 0.750000
O O8 0.250000 0.250000 0.717241
O O9 0.000000 0.392952 0.750000
#
# Coordination Sequence:
#
# PCOD9498742 Si02
#       3
#    16   8  16
#     4  12  25  42  66  97 133 168 215 278 339 394
#     4  12  26  46  70  94 128 176 226 270 326 402
#     4  10  22  40  63  92 128 172 220 266 321 397
#
# _framework density 22.087519
#
# number of rings (size 3 to 8) (size 9 to 14) (size 15 to 20)
#    0.000    0.800    0.000    7.200    0.000    9.600 
#    0.000    0.000    0.000    0.000    0.000    0.000 
#    0.000    0.000    0.000    0.000    0.000    0.000 
#
# Total GULP energy -111374.234230 kJ/mol
# GULP energy per Si atom -5568.711712 kJ/mol
# Density = 2.203725 g / cm^3
# Si number density = 22.087519 Si / 1000 Ang^3
#
#
#
# Elastic Constant Matrix: (Units=GPa)
#
#
# Indices 1 2 3 4 5 6 
#
# 1 192.6080 41.3114 35.7627 0.0000 0.0000 0.0000
# 2 41.3114 77.5355 25.0241 0.0000 0.0000 0.0000
# 3 35.7627 25.0241 162.7500 0.0000 0.0000 0.0000
# 4 0.0000 0.0000 0.0000 28.3014 0.0000 0.0000
# 5 0.0000 0.0000 0.0000 0.0000 29.0735 0.0000
# 6 0.0000 0.0000 0.0000 0.0000 0.0000 -315.3882
#
#
#
# Elastic Compliance Matrix: (Units=1/GPa)
#
#
# Indices 1 2 3 4 5 6 
#
# 1 0.005976 -0.002904 -0.000867 0.000000 0.000000 0.000000
# 2 -0.002904 0.014982 -0.001665 0.000000 0.000000 0.000000
# 3 -0.000867 -0.001665 0.006591 0.000000 0.000000 0.000000
# 4 0.000000 0.000000 0.000000 0.035334 0.000000 0.000000
# 5 0.000000 0.000000 0.000000 0.000000 0.034396 0.000000
# 6 0.000000 0.000000 0.000000 0.000000 0.000000 -0.003171
#
#
# Mechanical properties :
#
#
# Convention : Reuss Voigt Hill
#
# Bulk Modulus (GPa) = 59.96516 70.78775 65.37646
# Shear Modulus (GPa) = 45.23295 -29.54964 7.84166
#
# Velocity S-wave (km/s) = 4.53028 -3.66162 1.88626
# Velocity P-wave (km/s) = 7.38731 3.77382 5.86575
#
# Compressibility (1/GPa) = 0.01667635
#
# Stress axis : x y z
#
# Youngs Moduli (GPa) = 167.34440 66.74579 151.72463
#
# Poissons Ratio (x) = 0.19384 0.13148
# Poissons Ratio (y) = 0.48600 0.25269
# Poissons Ratio (z) = 0.14501 0.11116
#
# Static dielectric constant tensor:
#      x y z
#    x 1.776600 0.000000 0.000000 
#    y 0.000000 1.704600 0.000000 
#    z 0.000000 0.000000 2.091330 
# 
# From -- ./inp_files/53632.got.cif
#   From: 2010.05.17/outbox.cif.g08.bks.cpg/sg66_27_cif.got.tgz:53632.got - 2010.06.03 17:51:23.
