data_PCOD9498997
_publ_section_title
;
Structure prediction by ZEFSAII (Michael W. Deem and Ramdas Pophale) SiO2 
 PCOD9498997
Probable space group: C C C M
;
_chemical_formula_sum "Si O2"
_cell_formula_units_Z 56
_cell_length_a 12.381346
_cell_length_b 26.987776
_cell_length_c 9.061918
_cell_angle_alpha 90.000000
_cell_angle_beta 90.000000
_cell_angle_gamma 90.000000
_cell_volume 3027.994521
_symmetry_space_group_name_H-M "C C C M"
_symmetry_group_IT_number 66
_symmetry_cell_setting 'orthorhombic'
loop_
_space_group_symop_operation_xyz
x,y,z
-x,-y,z
x,-y,1/2-z
-x,y,1/2-z
-x,-y,-z
x,y,-z
-x,y,1/2+z
x,-y,1/2+z
1/2+x,1/2+y,z
1/2-x,1/2-y,z
1/2+x,1/2-y,1/2-z
1/2-x,1/2+y,1/2-z
1/2-x,1/2-y,-z
1/2+x,1/2+y,-z
1/2-x,1/2+y,1/2+z
1/2+x,1/2-y,1/2+z
loop_
_atom_site_type_symbol
_atom_site_label
_atom_site_fract_x
_atom_site_fract_y
_atom_site_fract_z
Si Si1 0.395428 0.191944 0.333491
Si Si2 0.619042 0.550706 0.677453
Si Si3 0.500000 0.289553 0.250000
Si Si4 0.801470 0.146462 0.667885
O O1 0.500000 0.169508 0.250000
O O2 0.382405 0.173801 0.500000
O O3 0.425810 0.250373 0.338459
O O4 0.291133 0.180996 0.236208
O O5 0.662575 0.500000 0.750000
O O6 0.500000 0.556723 0.750000
O O7 0.611350 0.547281 0.500000
O O8 0.685378 0.598355 0.729826
O O9 0.584855 0.324320 0.331852
O O10 0.775273 0.132618 0.500000
#
# Coordination Sequence:
#
# PCOD9498997 Si02
#       4
#    16  16   8  16
#     4  10  23  40  57  82 118 159 203 246 292 345
#     4  11  22  38  60  87 119 152 191 241 296 353
#     4  10  24  36  61  82 123 156 206 240 296 342
#     4  12  23  38  61  88 120 157 198 244 297 352
#
# _framework density 18.494088999999999
#
# number of rings (size 3 to 8) (size 9 to 14) (size 15 to 20)
#    0.857    0.286    1.429    6.857    0.000    5.714 
#    0.000    0.000    0.000    0.857    0.000    6.000 
#    0.000    0.000    0.000    0.000    0.000    0.000 
#
# Total GULP energy -156097.786567 kJ/mol
# GULP energy per Si atom -5574.920949 kJ/mol
# Density = 1.845200 g / cm^3
# Si number density = 18.494089 Si / 1000 Ang^3
#
#
#
# Elastic Constant Matrix: (Units=GPa)
#
#
# Indices 1 2 3 4 5 6 
#
# 1 83.1013 32.4920 35.9941 0.0000 0.0000 0.0000
# 2 32.4920 94.7249 39.9861 0.0000 0.0000 0.0000
# 3 35.9941 39.9861 182.4990 0.0000 0.0000 0.0000
# 4 0.0000 0.0000 0.0000 51.8394 0.0000 0.0000
# 5 0.0000 0.0000 0.0000 0.0000 17.9033 0.0000
# 6 0.0000 0.0000 0.0000 0.0000 0.0000 7.6404
#
#
#
# Elastic Compliance Matrix: (Units=1/GPa)
#
#
# Indices 1 2 3 4 5 6 
#
# 1 0.014501 -0.004151 -0.001951 0.000000 0.000000 0.000000
# 2 -0.004151 0.012821 -0.001990 0.000000 0.000000 0.000000
# 3 -0.001951 -0.001990 0.006300 0.000000 0.000000 0.000000
# 4 0.000000 0.000000 0.000000 0.019290 0.000000 0.000000
# 5 0.000000 0.000000 0.000000 0.000000 0.055855 0.000000
# 6 0.000000 0.000000 0.000000 0.000000 0.000000 0.130883
#
#
# Mechanical properties :
#
#
# Convention : Reuss Voigt Hill
#
# Bulk Modulus (GPa) = 57.34324 64.14106 60.74215
# Shear Modulus (GPa) = 19.10967 32.26684 25.68825
#
# Velocity S-wave (km/s) = 3.21796 4.18150 3.73097
# Velocity P-wave (km/s) = 6.69930 7.62040 7.17465
#
# Compressibility (1/GPa) = 0.01743885
#
# Stress axis : x y z
#
# Youngs Moduli (GPa) = 68.95933 77.99776 158.72221
#
# Poissons Ratio (x) = 0.32375 0.30961
# Poissons Ratio (y) = 0.28623 0.31593
# Poissons Ratio (z) = 0.13451 0.15525
#
# Static dielectric constant tensor:
#      x y z
#    x 1.629320 0.000000 0.000000 
#    y 0.000000 1.655110 0.000000 
#    z 0.000000 0.000000 1.654150 
# 
# From -- ./inp_files/3903.got.cif
#   From: 2010.05.17/outbox.cif.g08.bks.cpg/sg66_2_cif.got.tgz:3903.got - 2010.06.03 17:51:23.
