data_PCOD9498497
_publ_section_title
;
Structure prediction by ZEFSAII (Michael W. Deem and Ramdas Pophale) SiO2 
 PCOD9498497
Probable space group: C C C M
;
_chemical_formula_sum "Si O2"
_cell_formula_units_Z 112
_cell_length_a 15.132031
_cell_length_b 22.860987
_cell_length_c 14.404876
_cell_angle_alpha 90.000000
_cell_angle_beta 90.000000
_cell_angle_gamma 90.000000
_cell_volume 4983.124331
_symmetry_space_group_name_H-M "C C C M"
_symmetry_group_IT_number 66
_symmetry_cell_setting 'orthorhombic'
loop_
_space_group_symop_operation_xyz
x,y,z
-x,-y,z
x,-y,1/2-z
-x,y,1/2-z
-x,-y,-z
x,y,-z
-x,y,1/2+z
x,-y,1/2+z
1/2+x,1/2+y,z
1/2-x,1/2-y,z
1/2+x,1/2-y,1/2-z
1/2-x,1/2+y,1/2-z
1/2-x,1/2-y,-z
1/2+x,1/2+y,-z
1/2-x,1/2+y,1/2+z
1/2+x,1/2-y,1/2+z
loop_
_atom_site_type_symbol
_atom_site_label
_atom_site_fract_x
_atom_site_fract_y
_atom_site_fract_z
Si Si1 0.715470 0.949292 0.612696
Si Si2 0.128322 0.673327 0.390145
Si Si3 0.973430 0.064269 0.642660
Si Si4 0.567237 0.137888 0.889412
Si Si5 0.767326 0.922058 0.111565
Si Si6 0.630085 0.357912 0.896268
Si Si7 0.854782 0.252802 0.777127
O O1 0.717327 0.952401 0.500000
O O2 0.623492 0.918787 0.639486
O O3 0.795871 0.904998 0.636466
O O4 0.730585 0.015362 0.645884
O O5 0.136304 0.685515 0.500000
O O6 0.210255 0.633506 0.356080
O O7 0.123059 0.731888 0.329175
O O8 0.037879 0.637079 0.374856
O O9 0.870882 0.078425 0.632296
O O10 0.000000 0.065005 0.750000
O O11 0.037650 0.109745 0.595609
O O12 0.000000 0.000000 0.607187
O O13 0.605722 0.193438 0.835541
O O14 0.581267 0.145961 0.000000
O O15 0.757071 0.921386 0.000000
O O16 0.615040 0.307250 0.822162
O O17 0.657230 0.336226 0.000000
O O18 0.750000 0.250000 0.787074
#
# Coordination Sequence:
#
# PCOD9498497 Si02
#       7
#    16  16  16  16  16  16  16
#     4   9  18  35  68 105 134 170 219 277 348 417
#     4  10  25  47  68  96 140 189 234 283 345 417
#     4  11  24  39  63 100 145 187 230 283 348 420
#     4  10  21  42  69 101 139 176 223 285 348 414
#     4  10  21  42  71 101 137 182 231 282 346 427
#     4  11  23  41  66 102 139 178 227 285 357 418
#     4  12  25  42  70  97 132 180 236 293 342 408
#
# _framework density 22.475859
#
# number of rings (size 3 to 8) (size 9 to 14) (size 15 to 20)
#    0.000    1.571    2.857    1.286    2.000    3.143 
#    0.000    2.857    0.000    1.714    0.000    0.000 
#    0.000    0.000    0.000    0.000    0.000    0.000 
#
# Total GULP energy -313278.915414 kJ/mol
# GULP energy per Si atom -5594.266347 kJ/mol
# Density = 2.242470 g / cm^3
# Si number density = 22.475859 Si / 1000 Ang^3
#
#
#
# Elastic Constant Matrix: (Units=GPa)
#
#
# Indices 1 2 3 4 5 6 
#
# 1 116.5664 32.4996 27.2857 0.0000 0.0000 0.0000
# 2 32.4996 101.6526 47.6373 0.0000 0.0000 0.0000
# 3 27.2857 47.6373 88.6978 0.0000 0.0000 0.0000
# 4 0.0000 0.0000 0.0000 47.5238 0.0000 0.0000
# 5 0.0000 0.0000 0.0000 0.0000 30.3283 0.0000
# 6 0.0000 0.0000 0.0000 0.0000 0.0000 22.1271
#
#
#
# Elastic Compliance Matrix: (Units=1/GPa)
#
#
# Indices 1 2 3 4 5 6 
#
# 1 0.009617 -0.002256 -0.001747 0.000000 0.000000 0.000000
# 2 -0.002256 0.013675 -0.006651 0.000000 0.000000 0.000000
# 3 -0.001747 -0.006651 0.015383 0.000000 0.000000 0.000000
# 4 0.000000 0.000000 0.000000 0.021042 0.000000 0.000000
# 5 0.000000 0.000000 0.000000 0.000000 0.032973 0.000000
# 6 0.000000 0.000000 0.000000 0.000000 0.000000 0.045193
#
#
# Mechanical properties :
#
#
# Convention : Reuss Voigt Hill
#
# Bulk Modulus (GPa) = 57.57466 57.97354 57.77410
# Shear Modulus (GPa) = 30.30670 33.29545 31.80107
#
# Velocity S-wave (km/s) = 3.67606 3.85305 3.76560
# Velocity P-wave (km/s) = 6.60982 6.75606 6.68334
#
# Compressibility (1/GPa) = 0.01736875
#
# Stress axis : x y z
#
# Youngs Moduli (GPa) = 103.98620 73.12397 65.00478
#
# Poissons Ratio (x) = 0.16497 0.11354
# Poissons Ratio (y) = 0.23459 0.43233
# Poissons Ratio (z) = 0.18163 0.48633
#
# Static dielectric constant tensor:
#      x y z
#    x 1.877500 0.000000 0.000000 
#    y 0.000000 1.817050 0.000000 
#    z 0.000000 0.000000 1.898430 
# 
# From -- ./inp_files/28728.got.cif
#   From: 2010.05.17/outbox.cif.g08.bks.cpg/sg66_15_cif.got.tgz:28728.got - 2010.06.03 17:51:23.
