data_PCOD9498370
_publ_section_title
;
Structure prediction by ZEFSAII (Michael W. Deem and Ramdas Pophale) SiO2 
 PCOD9498370
Probable space group: C C C M
;
_chemical_formula_sum "Si O2"
_cell_formula_units_Z 112
_cell_length_a 21.378358
_cell_length_b 11.469814
_cell_length_c 23.596543
_cell_angle_alpha 90.000000
_cell_angle_beta 90.000000
_cell_angle_gamma 90.000000
_cell_volume 5786.008965
_symmetry_space_group_name_H-M "C C C M"
_symmetry_group_IT_number 66
_symmetry_cell_setting 'orthorhombic'
loop_
_space_group_symop_operation_xyz
x,y,z
-x,-y,z
x,-y,1/2-z
-x,y,1/2-z
-x,-y,-z
x,y,-z
-x,y,1/2+z
x,-y,1/2+z
1/2+x,1/2+y,z
1/2-x,1/2-y,z
1/2+x,1/2-y,1/2-z
1/2-x,1/2+y,1/2-z
1/2-x,1/2-y,-z
1/2+x,1/2+y,-z
1/2-x,1/2+y,1/2+z
1/2+x,1/2-y,1/2+z
loop_
_atom_site_type_symbol
_atom_site_label
_atom_site_fract_x
_atom_site_fract_y
_atom_site_fract_z
Si Si1 0.416647 0.777025 0.150459
Si Si2 0.591784 0.626033 0.235600
Si Si3 0.279459 0.366338 0.173265
Si Si4 0.846457 0.498667 0.318174
Si Si5 0.140973 0.835677 0.563635
Si Si6 0.937463 0.067067 0.065458
Si Si7 0.556202 0.197226 0.640423
O O1 0.410579 0.708119 0.209721
O O2 0.416804 0.676933 0.102545
O O3 0.484183 0.839072 0.141779
O O4 0.365232 0.878640 0.153752
O O5 0.565670 0.500000 0.250000
O O6 0.661235 0.602580 0.211198
O O7 0.558679 0.696443 0.185412
O O8 0.250000 0.250000 0.199797
O O9 0.224527 0.460026 0.169068
O O10 0.306958 0.330024 0.112119
O O11 0.853220 0.500000 0.250000
O O12 0.895103 0.400950 0.340040
O O13 0.161589 0.808592 0.500000
O O14 0.083907 0.751441 0.582687
O O15 0.115049 0.967382 0.565697
O O16 0.949754 0.101556 0.000000
O O17 0.000000 0.000000 0.086760
#
# Coordination Sequence:
#
# PCOD9498370 Si02
#       7
#    16  16  16  16  16  16  16
#     4  12  23  37  64  94 126 168 214 261 333 394
#     4  11  23  35  58  92 123 163 213 274 309 374
#     4  11  21  42  62  87 128 168 224 261 309 390
#     4  12  24  42  59  88 133 183 205 257 336 392
#     4  10  21  40  68  95 121 159 212 274 327 372
#     4  10  21  40  65  92 125 162 204 266 336 389
#     4  11  22  39  58  93 130 162 212 261 321 400
#
# _framework density 19.357039
#
# number of rings (size 3 to 8) (size 9 to 14) (size 15 to 20)
#    0.000    1.000    5.714    3.000    0.000    1.429 
#    0.000    3.571    0.000    3.429    0.000    0.000 
#    0.000    0.000    0.000    0.000    0.000    0.000 
#
# Total GULP energy -312735.558002 kJ/mol
# GULP energy per Si atom -5584.563536 kJ/mol
# Density = 1.931298 g / cm^3
# Si number density = 19.357039 Si / 1000 Ang^3
#
#
#
# Elastic Constant Matrix: (Units=GPa)
#
#
# Indices 1 2 3 4 5 6 
#
# 1 115.7932 28.4465 21.1848 0.0000 0.0000 0.0000
# 2 28.4465 71.5383 20.0119 0.0000 0.0000 0.0000
# 3 21.1848 20.0119 91.9299 0.0000 0.0000 0.0000
# 4 0.0000 0.0000 0.0000 -14.0665 0.0000 0.0000
# 5 0.0000 0.0000 0.0000 0.0000 9.6385 0.0000
# 6 0.0000 0.0000 0.0000 0.0000 0.0000 28.1233
#
#
#
# Elastic Compliance Matrix: (Units=1/GPa)
#
#
# Indices 1 2 3 4 5 6 
#
# 1 0.009760 -0.003463 -0.001495 0.000000 0.000000 0.000000
# 2 -0.003463 0.016113 -0.002710 0.000000 0.000000 0.000000
# 3 -0.001495 -0.002710 0.011812 0.000000 0.000000 0.000000
# 4 0.000000 0.000000 0.000000 -0.071091 0.000000 0.000000
# 5 0.000000 0.000000 0.000000 0.000000 0.103750 0.000000
# 6 0.000000 0.000000 0.000000 0.000000 0.000000 0.035558
#
#
# Mechanical properties :
#
#
# Convention : Reuss Voigt Hill
#
# Bulk Modulus (GPa) = 44.74205 46.50531 45.62368
# Shear Modulus (GPa) = 38.85329 18.71362 28.78345
#
# Velocity S-wave (km/s) = 4.48503 3.11265 3.86032
# Velocity P-wave (km/s) = 7.07000 6.08238 6.59470
#
# Compressibility (1/GPa) = 0.02235034
#
# Stress axis : x y z
#
# Youngs Moduli (GPa) = 102.45511 62.05983 84.65731
#
# Poissons Ratio (x) = 0.21490 0.12660
# Poissons Ratio (y) = 0.35478 0.22940
# Poissons Ratio (z) = 0.15321 0.16816
#
# Static dielectric constant tensor:
#      x y z
#    x 1.707970 0.000000 0.000000 
#    y 0.000000 1.507220 0.000000 
#    z 0.000000 0.000000 1.677330 
# 
# From -- ./inp_files/59548.got.cif
#   From: 2010.05.17/outbox.cif.g08.bks.cpg/sg66_30_cif.got.tgz:59548.got - 2010.06.03 17:51:23.
