data_PCOD9498266
_publ_section_title
;
Structure prediction by ZEFSAII (Michael W. Deem and Ramdas Pophale) SiO2 
 PCOD9498266
Probable space group: C C C M
;
_chemical_formula_sum "Si O2"
_cell_formula_units_Z 56
_cell_length_a 17.598892
_cell_length_b 10.735897
_cell_length_c 13.855902
_cell_angle_alpha 90.000000
_cell_angle_beta 90.000000
_cell_angle_gamma 90.000000
_cell_volume 2617.932625
_symmetry_space_group_name_H-M "C C C M"
_symmetry_group_IT_number 66
_symmetry_cell_setting 'orthorhombic'
loop_
_space_group_symop_operation_xyz
x,y,z
-x,-y,z
x,-y,1/2-z
-x,y,1/2-z
-x,-y,-z
x,y,-z
-x,y,1/2+z
x,-y,1/2+z
1/2+x,1/2+y,z
1/2-x,1/2-y,z
1/2+x,1/2-y,1/2-z
1/2-x,1/2+y,1/2-z
1/2-x,1/2-y,-z
1/2+x,1/2+y,-z
1/2-x,1/2+y,1/2+z
1/2+x,1/2-y,1/2+z
loop_
_atom_site_type_symbol
_atom_site_label
_atom_site_fract_x
_atom_site_fract_y
_atom_site_fract_z
Si Si1 0.451309 0.372000 0.612441
Si Si2 0.161793 0.000000 0.750000
Si Si3 0.717590 0.111746 0.607507
Si Si4 0.453528 0.123383 0.883341
O O1 0.500000 0.500000 0.612338
O O2 0.423741 0.356745 0.500000
O O3 0.389579 0.397195 0.695599
O O4 0.501955 0.251358 0.637231
O O5 0.218345 0.045426 0.832047
O O6 0.712071 0.055944 0.500000
O O7 0.750000 0.250000 0.598856
O O8 0.633259 0.116587 0.652299
O O9 0.500000 0.000000 0.856113
O O10 0.447329 0.123628 0.000000
#
# Coordination Sequence:
#
# PCOD9498266 Si02
#       4
#    16   8  16  16
#     4  10  21  39  64  92 124 164 210 258 306 364
#     4  12  23  36  61  96 124 156 210 264 307 356
#     4  10  22  41  62  87 125 168 204 246 311 381
#     4   9  19  39  65  89 117 158 205 253 308 368
#
# _framework density 21.390923999999998
#
# number of rings (size 3 to 8) (size 9 to 14) (size 15 to 20)
#    0.000    2.000    0.000    3.000    0.000    6.857 
#    0.000    3.571    0.000    8.571    0.000    4.000 
#    0.000    0.000    0.000    0.000    0.000    0.000 
#
# Total GULP energy -156329.470076 kJ/mol
# GULP energy per Si atom -5583.195360 kJ/mol
# Density = 2.134224 g / cm^3
# Si number density = 21.390924 Si / 1000 Ang^3
#
#
#
# Elastic Constant Matrix: (Units=GPa)
#
#
# Indices 1 2 3 4 5 6 
#
# 1 176.0737 67.0684 58.0100 0.0000 0.0000 0.0000
# 2 67.0684 117.3511 25.1139 0.0000 0.0000 0.0000
# 3 58.0100 25.1139 105.7834 0.0000 0.0000 0.0000
# 4 0.0000 0.0000 0.0000 -45.4086 0.0000 0.0000
# 5 0.0000 0.0000 0.0000 0.0000 12.5079 0.0000
# 6 0.0000 0.0000 0.0000 0.0000 0.0000 28.9060
#
#
#
# Elastic Compliance Matrix: (Units=1/GPa)
#
#
# Indices 1 2 3 4 5 6 
#
# 1 0.008420 -0.004029 -0.003661 0.000000 0.000000 0.000000
# 2 -0.004029 0.010905 -0.000380 0.000000 0.000000 0.000000
# 3 -0.003661 -0.000380 0.011551 0.000000 0.000000 0.000000
# 4 0.000000 0.000000 0.000000 -0.022022 0.000000 0.000000
# 5 0.000000 0.000000 0.000000 0.000000 0.079950 0.000000
# 6 0.000000 0.000000 0.000000 0.000000 0.000000 0.034595
#
#
# Mechanical properties :
#
#
# Convention : Reuss Voigt Hill
#
# Bulk Modulus (GPa) = 67.85417 77.73252 72.79335
# Shear Modulus (GPa) = 34.61394 15.80212 25.20803
#
# Velocity S-wave (km/s) = 4.02700 2.72091 3.43657
# Velocity P-wave (km/s) = 7.30836 6.80360 7.06050
#
# Compressibility (1/GPa) = 0.01473749
#
# Stress axis : x y z
#
# Youngs Moduli (GPa) = 118.76125 91.69895 86.57200
#
# Poissons Ratio (x) = 0.36944 0.31694
# Poissons Ratio (y) = 0.47847 0.03287
# Poissons Ratio (z) = 0.43479 0.03481
#
# Static dielectric constant tensor:
#      x y z
#    x 1.751980 0.000000 0.000000 
#    y 0.000000 1.678850 0.000000 
#    z 0.000000 0.000000 -14.562550 
# 
# From -- ./inp_files/25358.got.cif
#   From: 2010.05.17/outbox.cif.g08.bks.cpg/sg66_13_cif.got.tgz:25358.got - 2010.06.03 17:51:23.
