data_PCOD9498663
_publ_section_title
;
Structure prediction by ZEFSAII (Michael W. Deem and Ramdas Pophale) SiO2 
 PCOD9498663
Probable space group: C C C M
;
_chemical_formula_sum "Si O2"
_cell_formula_units_Z 96
_cell_length_a 18.215766
_cell_length_b 13.614160
_cell_length_c 19.809791
_cell_angle_alpha 90.000000
_cell_angle_beta 90.000000
_cell_angle_gamma 90.000000
_cell_volume 4912.676679
_symmetry_space_group_name_H-M "C C C M"
_symmetry_group_IT_number 66
_symmetry_cell_setting 'orthorhombic'
loop_
_space_group_symop_operation_xyz
x,y,z
-x,-y,z
x,-y,1/2-z
-x,y,1/2-z
-x,-y,-z
x,y,-z
-x,y,1/2+z
x,-y,1/2+z
1/2+x,1/2+y,z
1/2-x,1/2-y,z
1/2+x,1/2-y,1/2-z
1/2-x,1/2+y,1/2-z
1/2-x,1/2-y,-z
1/2+x,1/2+y,-z
1/2-x,1/2+y,1/2+z
1/2+x,1/2-y,1/2+z
loop_
_atom_site_type_symbol
_atom_site_label
_atom_site_fract_x
_atom_site_fract_y
_atom_site_fract_z
Si Si1 0.687630 0.324570 0.075825
Si Si2 0.522601 0.614386 0.418559
Si Si3 0.210447 0.853118 0.728870
Si Si4 0.579034 0.035575 0.672248
Si Si5 0.439169 0.263524 0.192038
Si Si6 0.235871 0.519543 0.142109
O O1 0.750000 0.250000 0.105955
O O2 0.605547 0.349715 0.102047
O O3 0.727383 0.429594 0.078906
O O4 0.675777 0.287773 0.000000
O O5 0.500000 0.500000 0.404658
O O6 0.516259 0.626818 0.500000
O O7 0.470005 0.682193 0.373817
O O8 0.250000 0.750000 0.729854
O O9 0.124956 0.829512 0.724078
O O10 0.236942 0.913447 0.794371
O O11 0.234533 0.913773 0.663113
O O12 0.585549 0.153218 0.672839
O O13 0.500000 0.000000 0.646074
O O14 0.583601 0.000000 0.750000
O O15 0.648547 0.985867 0.637112
O O16 0.500000 0.251386 0.250000
#
# Coordination Sequence:
#
# PCOD9498663 Si02
#       6
#    16  16  16  16  16  16
#     4  10  22  39  62  89 115 153 207 254 299 360
#     4  10  23  44  64  87 126 170 204 254 324 378
#     4  11  21  35  54  87 114 147 193 241 290 356
#     4  11  21  37  56  88 121 166 196 235 313 374
#     4  12  23  36  63  93 122 154 206 257 296 374
#     4  11  21  37  60  81 122 158 188 248 307 359
#
# _framework density 19.541281999999999
#
# number of rings (size 3 to 8) (size 9 to 14) (size 15 to 20)
#    0.000    1.167    5.000    2.500    2.333    1.667 
#    0.000    0.833    0.000    2.000    0.000    0.000 
#    0.000    0.000    0.000    0.000    0.000    0.000 
#
# Total GULP energy -267584.399383 kJ/mol
# GULP energy per Si atom -5574.674987 kJ/mol
# Density = 1.949680 g / cm^3
# Si number density = 19.541282 Si / 1000 Ang^3
#
#
#
# Elastic Constant Matrix: (Units=GPa)
#
#
# Indices 1 2 3 4 5 6 
#
# 1 145.2346 31.3721 14.4088 0.0000 0.0000 0.0000
# 2 31.3721 107.7150 30.7640 0.0000 0.0000 0.0000
# 3 14.4088 30.7640 43.6570 0.0000 0.0000 0.0000
# 4 0.0000 0.0000 0.0000 1.8530 0.0000 0.0000
# 5 0.0000 0.0000 0.0000 0.0000 -7.0106 0.0000
# 6 0.0000 0.0000 0.0000 0.0000 0.0000 38.1384
#
#
#
# Elastic Compliance Matrix: (Units=1/GPa)
#
#
# Indices 1 2 3 4 5 6 
#
# 1 0.007394 -0.001824 -0.001155 0.000000 0.000000 0.000000
# 2 -0.001824 0.012073 -0.007906 0.000000 0.000000 0.000000
# 3 -0.001155 -0.007906 0.028858 0.000000 0.000000 0.000000
# 4 0.000000 0.000000 0.000000 0.539660 0.000000 0.000000
# 5 0.000000 0.000000 0.000000 0.000000 -0.142641 0.000000
# 6 0.000000 0.000000 0.000000 0.000000 0.000000 0.026220
#
#
# Mechanical properties :
#
#
# Convention : Reuss Voigt Hill
#
# Bulk Modulus (GPa) = 37.65645 49.96626 43.81136
# Shear Modulus (GPa) = 9.95650 21.26695 15.61172
#
# Velocity S-wave (km/s) = 2.25968 3.30253 2.82957
# Velocity P-wave (km/s) = 5.11080 6.33777 5.75707
#
# Compressibility (1/GPa) = 0.02655588
#
# Stress axis : x y z
#
# Youngs Moduli (GPa) = 135.24604 82.83140 34.65247
#
# Poissons Ratio (x) = 0.15104 0.04004
# Poissons Ratio (y) = 0.24662 0.27395
# Poissons Ratio (z) = 0.15626 0.65482
#
# Static dielectric constant tensor:
#      x y z
#    x 1.744150 0.000000 0.000000 
#    y 0.000000 1.702460 0.000000 
#    z 0.000000 0.000000 1.696760 
# 
# From -- ./inp_files/56907.got.cif
#   From: 2010.05.17/outbox.cif.g08.bks.cpg/sg66_29_cif.got.tgz:56907.got - 2010.06.03 17:51:23.
