data_PCOD9498496
_publ_section_title
;
Structure prediction by ZEFSAII (Michael W. Deem and Ramdas Pophale) SiO2 
 PCOD9498496
Probable space group: C C C M
;
_chemical_formula_sum "Si O2"
_cell_formula_units_Z 68
_cell_length_a 16.638851
_cell_length_b 10.048528
_cell_length_c 20.921957
_cell_angle_alpha 90.000000
_cell_angle_beta 90.000000
_cell_angle_gamma 90.000000
_cell_volume 3498.066689
_symmetry_space_group_name_H-M "C C C M"
_symmetry_group_IT_number 66
_symmetry_cell_setting 'orthorhombic'
loop_
_space_group_symop_operation_xyz
x,y,z
-x,-y,z
x,-y,1/2-z
-x,y,1/2-z
-x,-y,-z
x,y,-z
-x,y,1/2+z
x,-y,1/2+z
1/2+x,1/2+y,z
1/2-x,1/2-y,z
1/2+x,1/2-y,1/2-z
1/2-x,1/2+y,1/2-z
1/2-x,1/2-y,-z
1/2+x,1/2+y,-z
1/2-x,1/2+y,1/2+z
1/2+x,1/2-y,1/2+z
loop_
_atom_site_type_symbol
_atom_site_label
_atom_site_fract_x
_atom_site_fract_y
_atom_site_fract_z
Si Si1 0.501456 0.345098 0.425655
Si Si2 0.000000 0.500000 0.750000
Si Si3 0.884539 0.306778 0.331394
Si Si4 0.178334 0.144646 0.426598
Si Si5 0.221094 0.938308 0.682105
O O1 0.500000 0.500000 0.403589
O O2 0.523852 0.348286 0.500000
O O3 0.562545 0.253606 0.387910
O O4 0.410259 0.292798 0.419767
O O5 0.941871 0.402192 0.709626
O O6 0.843981 0.175415 0.299912
O O7 0.803368 0.384584 0.349309
O O8 0.181586 0.090357 0.500000
O O9 0.250000 0.250000 0.419940
O O10 0.185938 0.037425 0.370537
O O11 0.244652 0.000000 0.750000
#
# Coordination Sequence:
#
# PCOD9498496 Si02
#       5
#    16   4  16  16  16
#     4  10  21  42  68  98 127 164 221 276 332 408
#     4  12  28  44  60  96 132 170 232 276 332 392
#     4  11  26  42  64  92 127 178 212 278 338 386
#     4  10  23  42  69  99 133 173 218 275 334 403
#     4  11  25  43  64  96 132 177 223 271 336 409
#
# _framework density 19.439309999999999
#
# number of rings (size 3 to 8) (size 9 to 14) (size 15 to 20)
#    0.000    1.412    3.529    0.000    9.882    0.941 
#    0.000    2.941    0.000    0.000    0.000    0.000 
#    0.000    0.000    0.000    0.000    0.000    0.000 
#
# Total GULP energy -189568.531108 kJ/mol
# GULP energy per Si atom -5575.545033 kJ/mol
# Density = 1.939507 g / cm^3
# Si number density = 19.439310 Si / 1000 Ang^3
#
#
#
# Elastic Constant Matrix: (Units=GPa)
#
#
# Indices 1 2 3 4 5 6 
#
# 1 146.0690 57.1118 53.3501 0.0000 0.0000 0.0000
# 2 57.1118 79.9256 54.1061 0.0000 0.0000 0.0000
# 3 53.3501 54.1061 82.3627 0.0000 0.0000 0.0000
# 4 0.0000 0.0000 0.0000 17.9150 0.0000 0.0000
# 5 0.0000 0.0000 0.0000 0.0000 30.5930 0.0000
# 6 0.0000 0.0000 0.0000 0.0000 0.0000 39.8156
#
#
#
# Elastic Compliance Matrix: (Units=1/GPa)
#
#
# Indices 1 2 3 4 5 6 
#
# 1 0.009946 -0.004945 -0.003194 0.000000 0.000000 0.000000
# 2 -0.004945 0.024990 -0.013214 0.000000 0.000000 0.000000
# 3 -0.003194 -0.013214 0.022891 0.000000 0.000000 0.000000
# 4 0.000000 0.000000 0.000000 0.055819 0.000000 0.000000
# 5 0.000000 0.000000 0.000000 0.000000 0.032687 0.000000
# 6 0.000000 0.000000 0.000000 0.000000 0.000000 0.025116
#
#
# Mechanical properties :
#
#
# Convention : Reuss Voigt Hill
#
# Bulk Modulus (GPa) = 66.12992 70.83259 68.48126
# Shear Modulus (GPa) = 22.81076 27.25066 25.03071
#
# Velocity S-wave (km/s) = 3.42926 3.74817 3.59225
# Velocity P-wave (km/s) = 7.05495 7.43294 7.24641
#
# Compressibility (1/GPa) = 0.01512175
#
# Stress axis : x y z
#
# Youngs Moduli (GPa) = 100.54196 40.01591 43.68568
#
# Poissons Ratio (x) = 0.19787 0.13954
# Poissons Ratio (y) = 0.49716 0.57725
# Poissons Ratio (z) = 0.32115 0.52876
#
# Static dielectric constant tensor:
#      x y z
#    x 1.681770 0.000000 0.000000 
#    y 0.000000 1.715880 0.000000 
#    z 0.000000 0.000000 1.653800 
# 
# From -- ./inp_files/48236.got.cif
#   From: 2010.05.17/outbox.cif.g08.bks.cpg/sg66_25_cif.got.tgz:48236.got - 2010.06.03 17:51:23.
