data_PCOD9498915
_publ_section_title
;
Structure prediction by ZEFSAII (Michael W. Deem and Ramdas Pophale) SiO2 
 PCOD9498915
Probable space group: C C C M
;
_chemical_formula_sum "Si O2"
_cell_formula_units_Z 40
_cell_length_a 4.851817
_cell_length_b 14.779004
_cell_length_c 24.095946
_cell_angle_alpha 90.000000
_cell_angle_beta 90.000000
_cell_angle_gamma 90.000000
_cell_volume 1727.800359
_symmetry_space_group_name_H-M "C C C M"
_symmetry_group_IT_number 66
_symmetry_cell_setting 'orthorhombic'
loop_
_space_group_symop_operation_xyz
x,y,z
-x,-y,z
x,-y,1/2-z
-x,y,1/2-z
-x,-y,-z
x,y,-z
-x,y,1/2+z
x,-y,1/2+z
1/2+x,1/2+y,z
1/2-x,1/2-y,z
1/2+x,1/2-y,1/2-z
1/2-x,1/2+y,1/2-z
1/2-x,1/2-y,-z
1/2+x,1/2+y,-z
1/2-x,1/2+y,1/2+z
1/2+x,1/2-y,1/2+z
loop_
_atom_site_type_symbol
_atom_site_label
_atom_site_fract_x
_atom_site_fract_y
_atom_site_fract_z
Si Si1 0.493545 0.319740 0.500000
Si Si2 0.753333 0.057418 0.096141
Si Si3 0.502092 0.181597 0.809880
O O1 0.250000 0.250000 0.500000
O O2 0.432718 0.383609 0.447192
O O3 0.750000 0.250000 0.500000
O O4 0.586109 0.117368 0.140040
O O5 0.500000 0.000000 0.069197
O O6 0.000000 0.000000 0.124435
O O7 0.500000 0.132128 0.750000
O O8 0.250000 0.250000 0.822142
O O9 0.750000 0.250000 0.801896
#
# Coordination Sequence:
#
# PCOD9498915 Si02
#       3
#     8  16  16
#     4  12  26  46  72  98 133 182 235 278 334 416
#     4  12  25  43  69 103 140 174 222 288 350 400
#     4  10  22  43  69  98 136 184 234 276 327 406
#
# _framework density 23.150822000000002
#
# number of rings (size 3 to 8) (size 9 to 14) (size 15 to 20)
#    0.000    0.800    0.000    7.200    0.000    4.000 
#    0.000    2.000    0.000    0.000    0.000    0.000 
#    0.000    0.000    0.000    0.000    0.000    0.000 
#
# Total GULP energy -111587.935184 kJ/mol
# GULP energy per Si atom -5579.396759 kJ/mol
# Density = 2.309813 g / cm^3
# Si number density = 23.150822 Si / 1000 Ang^3
#
#
#
# Elastic Constant Matrix: (Units=GPa)
#
#
# Indices 1 2 3 4 5 6 
#
# 1 199.5317 53.4598 46.8671 0.0000 0.0000 0.0000
# 2 53.4598 82.7003 66.5698 0.0000 0.0000 0.0000
# 3 46.8671 66.5698 155.6375 0.0000 0.0000 0.0000
# 4 0.0000 0.0000 0.0000 143.5856 0.0000 0.0000
# 5 0.0000 0.0000 0.0000 0.0000 24.4892 0.0000
# 6 0.0000 0.0000 0.0000 0.0000 0.0000 60.8748
#
#
#
# Elastic Compliance Matrix: (Units=1/GPa)
#
#
# Indices 1 2 3 4 5 6 
#
# 1 0.006067 -0.003738 -0.000228 0.000000 0.000000 0.000000
# 2 -0.003738 0.020745 -0.007747 0.000000 0.000000 0.000000
# 3 -0.000228 -0.007747 0.009807 0.000000 0.000000 0.000000
# 4 0.000000 0.000000 0.000000 0.006964 0.000000 0.000000
# 5 0.000000 0.000000 0.000000 0.000000 0.040834 0.000000
# 6 0.000000 0.000000 0.000000 0.000000 0.000000 0.016427
#
#
# Mechanical properties :
#
#
# Convention : Reuss Voigt Hill
#
# Bulk Modulus (GPa) = 75.80375 85.74033 80.77204
# Shear Modulus (GPa) = 38.85939 63.85477 51.35708
#
# Velocity S-wave (km/s) = 4.10143 5.25756 4.71507
# Velocity P-wave (km/s) = 7.43260 8.60069 8.03789
#
# Compressibility (1/GPa) = 0.01319196
#
# Stress axis : x y z
#
# Youngs Moduli (GPa) = 164.82969 48.20553 101.96293
#
# Poissons Ratio (x) = 0.18021 0.02324
# Poissons Ratio (y) = 0.61618 0.78993
# Poissons Ratio (z) = 0.03757 0.37346
#
# Static dielectric constant tensor:
#      x y z
#    x 1.825610 0.000000 0.000000 
#    y 0.000000 1.861440 0.000000 
#    z 0.000000 0.000000 1.939790 
# 
# From -- ./inp_files/53642.got.cif
#   From: 2010.05.17/outbox.cif.g08.bks.cpg/sg66_27_cif.got.tgz:53642.got - 2010.06.03 17:51:23.
