data_PCOD9498608
_publ_section_title
;
Structure prediction by ZEFSAII (Michael W. Deem and Ramdas Pophale) SiO2 
 PCOD9498608
Probable space group: C C C M
;
_chemical_formula_sum "Si O2"
_cell_formula_units_Z 104
_cell_length_a 9.112344
_cell_length_b 26.905924
_cell_length_c 21.248012
_cell_angle_alpha 90.000000
_cell_angle_beta 90.000000
_cell_angle_gamma 90.000000
_cell_volume 5209.503336
_symmetry_space_group_name_H-M "C C C M"
_symmetry_group_IT_number 66
_symmetry_cell_setting 'orthorhombic'
loop_
_space_group_symop_operation_xyz
x,y,z
-x,-y,z
x,-y,1/2-z
-x,y,1/2-z
-x,-y,-z
x,y,-z
-x,y,1/2+z
x,-y,1/2+z
1/2+x,1/2+y,z
1/2-x,1/2-y,z
1/2+x,1/2-y,1/2-z
1/2-x,1/2+y,1/2-z
1/2-x,1/2-y,-z
1/2+x,1/2+y,-z
1/2-x,1/2+y,1/2+z
1/2+x,1/2-y,1/2+z
loop_
_atom_site_type_symbol
_atom_site_label
_atom_site_fract_x
_atom_site_fract_y
_atom_site_fract_z
Si Si1 0.703260 0.870198 0.300967
Si Si2 0.477464 0.408466 0.500000
Si Si3 0.520627 0.916980 0.889438
Si Si4 0.653043 0.706656 0.217039
Si Si5 0.242737 0.454119 0.202038
Si Si6 0.202248 0.424373 0.000000
Si Si7 0.669861 0.961518 0.500000
Si Si8 0.479178 0.385084 0.140305
O O1 0.566071 0.877268 0.347085
O O2 0.740370 0.817340 0.270362
O O3 0.685192 0.909305 0.245112
O O4 0.857567 0.887046 0.331577
O O5 0.629169 0.437215 0.500000
O O6 0.337411 0.443454 0.500000
O O7 0.493066 0.379758 0.434031
O O8 0.611240 0.957412 0.848624
O O9 0.644744 0.896866 0.937808
O O10 0.399713 0.938825 0.936664
O O11 0.500000 0.722759 0.250000
O O12 0.750000 0.750000 0.187030
O O13 0.604549 0.662041 0.170600
O O14 0.266435 0.500000 0.250000
O O15 0.386497 0.433450 0.164633
O O16 0.141221 0.480108 0.000000
#
# Coordination Sequence:
#
# PCOD9498608 Si02
#       8
#    16   8  16  16  16   8   8  16
#     4  10  22  38  59  90 123 162 202 248 317 370
#     4  12  21  44  65  80 117 176 203 268 302 358
#     4  11  22  38  56  86 119 159 210 259 306 359
#     4   9  20  40  65  95 126 154 199 258 316 388
#     4  11  24  36  57  84 126 166 202 261 307 353
#     4  11  25  39  57  82 120 163 228 261 293 358
#     4  11  25  39  61  78 118 172 220 261 299 352
#     4  10  22  42  61  90 122 163 217 248 305 383
#
# _framework density 19.963515000000001
#
# number of rings (size 3 to 8) (size 9 to 14) (size 15 to 20)
#    0.000    1.538    3.077    3.000    4.308    4.308 
#    2.769    0.385    0.000    0.000    0.000    4.308 
#    0.000    0.000    0.000    0.000    0.000    0.000 
#
# Total GULP energy -289804.630705 kJ/mol
# GULP energy per Si atom -5573.165975 kJ/mol
# Density = 1.991808 g / cm^3
# Si number density = 19.963515 Si / 1000 Ang^3
#
#
#
# Elastic Constant Matrix: (Units=GPa)
#
#
# Indices 1 2 3 4 5 6 
#
# 1 124.7849 44.9838 51.6604 0.0000 0.0000 0.0000
# 2 44.9838 39.5568 17.3925 0.0000 0.0000 0.0000
# 3 51.6604 17.3925 122.6412 0.0000 0.0000 0.0000
# 4 0.0000 0.0000 0.0000 5.4385 0.0000 0.0000
# 5 0.0000 0.0000 0.0000 0.0000 35.8715 0.0000
# 6 0.0000 0.0000 0.0000 0.0000 0.0000 26.2538
#
#
#
# Elastic Compliance Matrix: (Units=1/GPa)
#
#
# Indices 1 2 3 4 5 6 
#
# 1 0.015434 -0.015670 -0.004279 0.000000 0.000000 0.000000
# 2 -0.015670 0.042871 0.000521 0.000000 0.000000 0.000000
# 3 -0.004279 0.000521 0.009882 0.000000 0.000000 0.000000
# 4 0.000000 0.000000 0.000000 0.183875 0.000000 0.000000
# 5 0.000000 0.000000 0.000000 0.000000 0.027877 0.000000
# 6 0.000000 0.000000 0.000000 0.000000 0.000000 0.038090
#
#
# Mechanical properties :
#
#
# Convention : Reuss Voigt Hill
#
# Bulk Modulus (GPa) = 34.09349 57.22849 45.66099
# Shear Modulus (GPa) = 13.63647 25.04251 19.33949
#
# Velocity S-wave (km/s) = 2.61640 3.54561 3.11584
# Velocity P-wave (km/s) = 5.12273 6.74467 5.98886
#
# Compressibility (1/GPa) = 0.02933111
#
# Stress axis : x y z
#
# Youngs Moduli (GPa) = 64.79053 23.32567 101.18908
#
# Poissons Ratio (x) = 0.36552 0.43300
# Poissons Ratio (y) = 1.01529 -0.05272
# Poissons Ratio (z) = 0.27725 -0.01215
#
# Static dielectric constant tensor:
#      x y z
#    x 1.794300 0.000000 0.000000 
#    y 0.000000 1.681800 0.000000 
#    z 0.000000 0.000000 1.830690 
# 
# From -- ./inp_files/47584.got.cif
#   From: 2010.05.17/outbox.cif.g08.bks.cpg/sg66_24_cif.got.tgz:47584.got - 2010.06.03 17:51:23.
