data_PCOD9498615
_publ_section_title
;
Structure prediction by ZEFSAII (Michael W. Deem and Ramdas Pophale) SiO2 
 PCOD9498615
Probable space group: C C C M
;
_chemical_formula_sum "Si O2"
_cell_formula_units_Z 64
_cell_length_a 17.078676
_cell_length_b 11.314147
_cell_length_c 15.029567
_cell_angle_alpha 90.000000
_cell_angle_beta 90.000000
_cell_angle_gamma 90.000000
_cell_volume 2904.173013
_symmetry_space_group_name_H-M "C C C M"
_symmetry_group_IT_number 66
_symmetry_cell_setting 'orthorhombic'
loop_
_space_group_symop_operation_xyz
x,y,z
-x,-y,z
x,-y,1/2-z
-x,y,1/2-z
-x,-y,-z
x,y,-z
-x,y,1/2+z
x,-y,1/2+z
1/2+x,1/2+y,z
1/2-x,1/2-y,z
1/2+x,1/2-y,1/2-z
1/2-x,1/2+y,1/2-z
1/2-x,1/2-y,-z
1/2+x,1/2+y,-z
1/2-x,1/2+y,1/2+z
1/2+x,1/2-y,1/2+z
loop_
_atom_site_type_symbol
_atom_site_label
_atom_site_fract_x
_atom_site_fract_y
_atom_site_fract_z
Si Si1 0.079368 0.081849 0.000000
Si Si2 0.136676 0.061034 0.660520
Si Si3 0.834042 0.320109 0.500000
Si Si4 0.500000 0.292797 0.250000
Si Si5 0.750000 0.750000 0.316124
Si Si6 0.626373 0.116002 0.692274
O O1 0.122036 0.037018 0.911673
O O2 0.095223 0.222178 0.000000
O O3 0.000000 0.000000 0.000000
O O4 0.056303 0.125963 0.689991
O O5 0.197835 0.158757 0.629355
O O6 0.167738 0.000000 0.750000
O O7 0.750000 0.250000 0.500000
O O8 0.843329 0.395339 0.591051
O O9 0.553728 0.206403 0.307766
O O10 0.691696 0.819180 0.251272
O O11 0.606201 0.000000 0.750000
#
# Coordination Sequence:
#
# PCOD9498615 Si02
#       6
#     8  16   8   8   8  16
#     4  12  24  41  70 100 132 174 227 285 345 405
#     4  11  22  39  64  93 131 172 221 281 339 397
#     4  12  26  42  69 109 137 179 242 287 345 432
#     4  10  22  42  66  98 134 182 232 276 340 420
#     4  10  22  38  60  92 130 174 220 276 332 416
#     4  11  23  43  67  94 138 182 229 282 354 408
#
# _framework density 22.037254999999998
#
# number of rings (size 3 to 8) (size 9 to 14) (size 15 to 20)
#    0.000    1.000    1.250    7.500    3.500    0.500 
#    0.000    7.500    0.000    0.000    0.000    0.000 
#    0.000    0.000    0.000    0.000    0.000    0.000 
#
# Total GULP energy -178855.460335 kJ/mol
# GULP energy per Si atom -5589.233135 kJ/mol
# Density = 2.198710 g / cm^3
# Si number density = 22.037255 Si / 1000 Ang^3
#
#
#
# Elastic Constant Matrix: (Units=GPa)
#
#
# Indices 1 2 3 4 5 6 
#
# 1 67.6538 14.1905 -18.7111 0.0000 0.0000 0.0000
# 2 14.1905 94.5405 21.6384 0.0000 0.0000 0.0000
# 3 -18.7111 21.6384 107.8317 0.0000 0.0000 0.0000
# 4 0.0000 0.0000 0.0000 31.4936 0.0000 0.0000
# 5 0.0000 0.0000 0.0000 0.0000 -5.4029 0.0000
# 6 0.0000 0.0000 0.0000 0.0000 0.0000 40.5224
#
#
#
# Elastic Compliance Matrix: (Units=1/GPa)
#
#
# Indices 1 2 3 4 5 6 
#
# 1 0.016437 -0.003270 0.003508 0.000000 0.000000 0.000000
# 2 -0.003270 0.011737 -0.002923 0.000000 0.000000 0.000000
# 3 0.003508 -0.002923 0.010469 0.000000 0.000000 0.000000
# 4 0.000000 0.000000 0.000000 0.031752 0.000000 0.000000
# 5 0.000000 0.000000 0.000000 0.000000 -0.185086 0.000000
# 6 0.000000 0.000000 0.000000 0.000000 0.000000 0.024678
#
#
# Mechanical properties :
#
#
# Convention : Reuss Voigt Hill
#
# Bulk Modulus (GPa) = 30.05291 33.80685 31.92988
# Shear Modulus (GPa) = -67.97944 30.18317 -18.89814
#
# Velocity S-wave (km/s) = -5.56008 3.70488 -2.93158
# Velocity P-wave (km/s) = 5.24904 5.80307 1.74975
#
# Compressibility (1/GPa) = 0.03327464
#
# Stress axis : x y z
#
# Youngs Moduli (GPa) = 60.83674 85.19847 95.51998
#
# Poissons Ratio (x) = 0.27862 -0.33513
# Poissons Ratio (y) = 0.19895 0.27918
# Poissons Ratio (z) = -0.21344 0.24902
#
# Static dielectric constant tensor:
#      x y z
#    x 1.877330 0.000000 0.000000 
#    y 0.000000 1.851720 0.000000 
#    z 0.000000 0.000000 1.777070 
# 
# From -- ./inp_files/25887.got.cif
#   From: 2010.05.17/outbox.cif.g08.bks.cpg/sg66_13_cif.got.tgz:25887.got - 2010.06.03 17:51:23.
