data_PCOD9498462
_publ_section_title
;
Structure prediction by ZEFSAII (Michael W. Deem and Ramdas Pophale) SiO2 
 PCOD9498462
Probable space group: C C C M
;
_chemical_formula_sum "Si O2"
_cell_formula_units_Z 52
_cell_length_a 33.407946
_cell_length_b 5.433238
_cell_length_c 15.203448
_cell_angle_alpha 90.000000
_cell_angle_beta 90.000000
_cell_angle_gamma 90.000000
_cell_volume 2759.628348
_symmetry_space_group_name_H-M "C C C M"
_symmetry_group_IT_number 66
_symmetry_cell_setting 'orthorhombic'
loop_
_space_group_symop_operation_xyz
x,y,z
-x,-y,z
x,-y,1/2-z
-x,y,1/2-z
-x,-y,-z
x,y,-z
-x,y,1/2+z
x,-y,1/2+z
1/2+x,1/2+y,z
1/2-x,1/2-y,z
1/2+x,1/2-y,1/2-z
1/2-x,1/2+y,1/2-z
1/2-x,1/2-y,-z
1/2+x,1/2+y,-z
1/2-x,1/2+y,1/2+z
1/2+x,1/2-y,1/2+z
loop_
_atom_site_type_symbol
_atom_site_label
_atom_site_fract_x
_atom_site_fract_y
_atom_site_fract_z
Si Si1 0.605580 0.478848 0.000000
Si Si2 0.500000 0.000000 0.250000
Si Si3 0.275170 0.000941 0.854111
Si Si4 0.157305 0.481927 0.000000
Si Si5 0.956828 0.893567 0.346432
O O1 0.633370 0.237780 0.000000
O O2 0.576952 0.452220 0.084662
O O3 0.629737 0.736518 0.000000
O O4 0.531042 0.880061 0.319261
O O5 0.250000 0.250000 0.871593
O O6 0.284832 0.000000 0.750000
O O7 0.250000 0.750000 0.872882
O O8 0.313987 0.014791 0.914887
O O9 0.947215 0.000000 0.250000
O O10 0.000000 0.000000 0.375341
#
# Coordination Sequence:
#
# PCOD9498462 Si02
#       5
#     8   4  16   8  16
#     4  12  27  38  60  92 133 167 192 252 318 376
#     4   8  18  38  68  82 108 162 226 274 278 360
#     4  10  21  41  69  89 115 160 209 250 292 357
#     4  12  26  39  58  96 131 159 194 246 319 364
#     4   9  21  40  63  87 115 163 222 255 305 347
#
# _framework density 18.843115999999998
#
# number of rings (size 3 to 8) (size 9 to 14) (size 15 to 20)
#    0.000    2.154    0.000    3.231    8.615    3.077 
#    0.000    0.000    0.000    0.000    0.000    0.000 
#    0.000    0.000    0.000    0.000    0.000    0.000 
#
# Total GULP energy -144793.145310 kJ/mol
# GULP energy per Si atom -5568.967127 kJ/mol
# Density = 1.880023 g / cm^3
# Si number density = 18.843116 Si / 1000 Ang^3
#
#
#
# Elastic Constant Matrix: (Units=GPa)
#
#
# Indices 1 2 3 4 5 6 
#
# 1 139.8622 73.7993 95.5711 0.0000 0.0000 0.0000
# 2 73.7993 131.6745 49.2789 0.0000 0.0000 0.0000
# 3 95.5711 49.2789 99.7134 0.0000 0.0000 0.0000
# 4 0.0000 0.0000 0.0000 35.2884 0.0000 0.0000
# 5 0.0000 0.0000 0.0000 0.0000 -46.1979 0.0000
# 6 0.0000 0.0000 0.0000 0.0000 0.0000 66.1136
#
#
#
# Elastic Compliance Matrix: (Units=1/GPa)
#
#
# Indices 1 2 3 4 5 6 
#
# 1 0.023990 -0.005939 -0.020058 0.000000 0.000000 0.000000
# 2 -0.005939 0.010788 0.000361 0.000000 0.000000 0.000000
# 3 -0.020058 0.000361 0.029076 0.000000 0.000000 0.000000
# 4 0.000000 0.000000 0.000000 0.028338 0.000000 0.000000
# 5 0.000000 0.000000 0.000000 0.000000 -0.021646 0.000000
# 6 0.000000 0.000000 0.000000 0.000000 0.000000 0.015125
#
#
# Mechanical properties :
#
#
# Convention : Reuss Voigt Hill
#
# Bulk Modulus (GPa) = 79.48831 89.83874 84.66352
# Shear Modulus (GPa) = 35.42653 21.21419 28.32036
#
# Velocity S-wave (km/s) = 4.34069 3.35898 3.88100
# Velocity P-wave (km/s) = 8.20963 7.92619 8.06915
#
# Compressibility (1/GPa) = 0.01258047
#
# Stress axis : x y z
#
# Youngs Moduli (GPa) = 41.68441 92.69525 34.39317
#
# Poissons Ratio (x) = 0.55049 0.68987
# Poissons Ratio (y) = 0.24755 -0.01240
# Poissons Ratio (z) = 0.83612 -0.03342
#
# Static dielectric constant tensor:
#      x y z
#    x 1.619440 0.000000 0.000000 
#    y 0.000000 1.708380 0.000000 
#    z 0.000000 0.000000 1.623030 
# 
# From -- ./inp_files/33563.got.cif
#   From: 2010.05.17/outbox.cif.g08.bks.cpg/sg66_17_cif.got.tgz:33563.got - 2010.06.03 17:51:23.
