data_PCOD9498897
_publ_section_title
;
Structure prediction by ZEFSAII (Michael W. Deem and Ramdas Pophale) SiO2 
 PCOD9498897
Probable space group: C C C M
;
_chemical_formula_sum "Si O2"
_cell_formula_units_Z 112
_cell_length_a 30.368882
_cell_length_b 11.201493
_cell_length_c 15.268413
_cell_angle_alpha 90.000000
_cell_angle_beta 90.000000
_cell_angle_gamma 90.000000
_cell_volume 5193.960168
_symmetry_space_group_name_H-M "C C C M"
_symmetry_group_IT_number 66
_symmetry_cell_setting 'orthorhombic'
loop_
_space_group_symop_operation_xyz
x,y,z
-x,-y,z
x,-y,1/2-z
-x,y,1/2-z
-x,-y,-z
x,y,-z
-x,y,1/2+z
x,-y,1/2+z
1/2+x,1/2+y,z
1/2-x,1/2-y,z
1/2+x,1/2-y,1/2-z
1/2-x,1/2+y,1/2-z
1/2-x,1/2-y,-z
1/2+x,1/2+y,-z
1/2-x,1/2+y,1/2+z
1/2+x,1/2-y,1/2+z
loop_
_atom_site_type_symbol
_atom_site_label
_atom_site_fract_x
_atom_site_fract_y
_atom_site_fract_z
Si Si1 0.335106 0.152779 0.404466
Si Si2 0.243516 0.449349 0.655013
Si Si3 0.075492 0.473008 0.605572
Si Si4 0.130496 0.845404 0.323894
Si Si5 0.341175 0.590870 0.132057
Si Si6 0.950179 0.307823 0.267496
Si Si7 0.705828 0.807853 0.899263
O O1 0.314617 0.140136 0.500000
O O2 0.293995 0.151684 0.338398
O O3 0.371841 0.051333 0.390875
O O4 0.357674 0.283199 0.405121
O O5 0.254144 0.500000 0.750000
O O6 0.289638 0.423379 0.609181
O O7 0.216099 0.553582 0.608030
O O8 0.064048 0.468905 0.500000
O O9 0.057390 0.591553 0.655471
O O10 0.060559 0.369982 0.673782
O O11 0.154135 0.882495 0.234613
O O12 0.082784 0.797104 0.296596
O O13 0.160325 0.738457 0.360373
O O14 0.134110 0.965007 0.383310
O O15 0.000000 0.268289 0.250000
O O16 0.750000 0.750000 0.858498
O O17 0.704197 0.769733 0.000000
#
# Coordination Sequence:
#
# PCOD9498897 Si02
#       7
#    16  16  16  16  16  16  16
#     4  11  24  38  59  91 129 172 216 270 330 387
#     4  12  22  35  58  87 121 169 223 265 314 384
#     4  10  22  43  68 100 138 168 206 269 344 409
#     4  11  22  43  61  88 126 166 214 271 320 394
#     4  11  22  40  60  83 120 174 221 257 318 382
#     4  11  24  42  72 103 128 165 217 274 344 413
#     4  11  22  37  59  91 128 168 216 269 331 391
#
# _framework density 21.563509
#
# number of rings (size 3 to 8) (size 9 to 14) (size 15 to 20)
#    0.000    1.000    4.286    3.429    2.000    5.143 
#    0.000    1.429    0.000    0.000    0.000    2.000 
#    0.000    0.000    0.000    0.000    0.000    0.000 
#
# Total GULP energy -312049.198782 kJ/mol
# GULP energy per Si atom -5572.307121 kJ/mol
# Density = 2.151443 g / cm^3
# Si number density = 21.563509 Si / 1000 Ang^3
#
#
#
# Elastic Constant Matrix: (Units=GPa)
#
#
# Indices 1 2 3 4 5 6 
#
# 1 151.1157 52.0813 25.9888 0.0000 0.0000 0.0000
# 2 52.0813 115.7099 12.1213 0.0000 0.0000 0.0000
# 3 25.9888 12.1213 87.9082 0.0000 0.0000 0.0000
# 4 0.0000 0.0000 0.0000 -0.3588 0.0000 0.0000
# 5 0.0000 0.0000 0.0000 0.0000 32.3235 0.0000
# 6 0.0000 0.0000 0.0000 0.0000 0.0000 22.1264
#
#
#
# Elastic Compliance Matrix: (Units=1/GPa)
#
#
# Indices 1 2 3 4 5 6 
#
# 1 0.008143 -0.003463 -0.001930 0.000000 0.000000 0.000000
# 2 -0.003463 0.010242 -0.000388 0.000000 0.000000 0.000000
# 3 -0.001930 -0.000388 0.012000 0.000000 0.000000 0.000000
# 4 0.000000 0.000000 0.000000 -2.787388 0.000000 0.000000
# 5 0.000000 0.000000 0.000000 0.000000 0.030937 0.000000
# 6 0.000000 0.000000 0.000000 0.000000 0.000000 0.045195
#
#
# Mechanical properties :
#
#
# Convention : Reuss Voigt Hill
#
# Bulk Modulus (GPa) = 53.13008 59.45739 56.29374
# Shear Modulus (GPa) = -1.87756 28.45438 13.28841
#
# Velocity S-wave (km/s) = -0.93413 3.63652 2.48512
# Velocity P-wave (km/s) = 4.85066 6.72795 5.86491
#
# Compressibility (1/GPa) = 0.01882173
#
# Stress axis : x y z
#
# Youngs Moduli (GPa) = 122.80754 97.64027 83.33625
#
# Poissons Ratio (x) = 0.33812 0.16082
# Poissons Ratio (y) = 0.42528 0.03237
# Poissons Ratio (z) = 0.23700 0.03792
#
# Static dielectric constant tensor:
#      x y z
#    x 1.800450 0.000000 0.000000 
#    y 0.000000 1.945000 0.000000 
#    z 0.000000 0.000000 1.977580 
# 
# From -- ./inp_files/33806.got.cif
#   From: 2010.05.17/outbox.cif.g08.bks.cpg/sg66_17_cif.got.tgz:33806.got - 2010.06.03 17:51:23.
