data_PCOD9498884
_publ_section_title
;
Structure prediction by ZEFSAII (Michael W. Deem and Ramdas Pophale) SiO2 
 PCOD9498884
Probable space group: C C C M
;
_chemical_formula_sum "Si O2"
_cell_formula_units_Z 60
_cell_length_a 9.570796
_cell_length_b 18.138574
_cell_length_c 16.142972
_cell_angle_alpha 90.000000
_cell_angle_beta 90.000000
_cell_angle_gamma 90.000000
_cell_volume 2802.429488
_symmetry_space_group_name_H-M "C C C M"
_symmetry_group_IT_number 66
_symmetry_cell_setting 'orthorhombic'
loop_
_space_group_symop_operation_xyz
x,y,z
-x,-y,z
x,-y,1/2-z
-x,y,1/2-z
-x,-y,-z
x,y,-z
-x,y,1/2+z
x,-y,1/2+z
1/2+x,1/2+y,z
1/2-x,1/2-y,z
1/2+x,1/2-y,1/2-z
1/2-x,1/2+y,1/2-z
1/2-x,1/2-y,-z
1/2+x,1/2+y,-z
1/2-x,1/2+y,1/2+z
1/2+x,1/2-y,1/2+z
loop_
_atom_site_type_symbol
_atom_site_label
_atom_site_fract_x
_atom_site_fract_y
_atom_site_fract_z
Si Si1 0.812842 0.668919 0.500000
Si Si2 0.500000 0.623393 0.750000
Si Si3 0.500000 0.000000 0.250000
Si Si4 0.851565 0.896002 0.092563
Si Si5 0.142787 0.318657 0.000000
Si Si6 0.755066 0.943161 0.646970
O O1 0.750000 0.750000 0.500000
O O2 0.766661 0.619467 0.578386
O O3 0.978926 0.684296 0.500000
O O4 0.563351 0.650009 0.838618
O O5 0.635348 0.581566 0.716325
O O6 0.606673 0.956944 0.309692
O O7 0.824959 0.981995 0.111139
O O8 0.916756 0.889530 0.000000
O O9 0.696541 0.863706 0.080046
O O10 0.250000 0.250000 0.000000
#
# Coordination Sequence:
#
# PCOD9498884 Si02
#       6
#     8   8   4  16   8  16
#     4  12  29  47  70 104 140 196 235 294 360 439
#     4  12  25  42  71 119 138 178 231 302 361 432
#     4  12  24  40  74 110 140 192 228 322 346 422
#     4  10  22  42  76 102 138 184 229 298 352 418
#     4  10  25  47  72  96 138 188 241 284 352 425
#     4  12  24  44  72 106 146 175 249 285 367 422
#
# _framework density 21.409994000000001
#
# number of rings (size 3 to 8) (size 9 to 14) (size 15 to 20)
#    0.800    0.000    4.000    3.200    5.600    2.667 
#    0.000    2.667    0.000    0.000    0.000    0.000 
#    0.000    0.000    0.000    0.000    0.000    0.000 
#
# Total GULP energy -167043.879629 kJ/mol
# GULP energy per Si atom -5568.129321 kJ/mol
# Density = 2.136126 g / cm^3
# Si number density = 21.409994 Si / 1000 Ang^3
#
#
#
# Elastic Constant Matrix: (Units=GPa)
#
#
# Indices 1 2 3 4 5 6 
#
# 1 160.5704 17.9405 49.2955 0.0000 0.0000 0.0000
# 2 17.9405 71.9618 34.2085 0.0000 0.0000 0.0000
# 3 49.2955 34.2085 152.0051 0.0000 0.0000 0.0000
# 4 0.0000 0.0000 0.0000 -26.1603 0.0000 0.0000
# 5 0.0000 0.0000 0.0000 0.0000 38.4694 0.0000
# 6 0.0000 0.0000 0.0000 0.0000 0.0000 29.2788
#
#
#
# Elastic Compliance Matrix: (Units=1/GPa)
#
#
# Indices 1 2 3 4 5 6 
#
# 1 0.006951 -0.000741 -0.002088 0.000000 0.000000 0.000000
# 2 -0.000741 0.015640 -0.003280 0.000000 0.000000 0.000000
# 3 -0.002088 -0.003280 0.007994 0.000000 0.000000 0.000000
# 4 0.000000 0.000000 0.000000 -0.038226 0.000000 0.000000
# 5 0.000000 0.000000 0.000000 0.000000 0.025995 0.000000
# 6 0.000000 0.000000 0.000000 0.000000 0.000000 0.034154
#
#
# Mechanical properties :
#
#
# Convention : Reuss Voigt Hill
#
# Bulk Modulus (GPa) = 54.43814 65.26958 59.85386
# Shear Modulus (GPa) = 70.57430 27.19043 48.88237
#
# Velocity S-wave (km/s) = 5.74759 3.56756 4.78342
# Velocity P-wave (km/s) = 8.33835 6.89360 7.65016
#
# Compressibility (1/GPa) = 0.01836947
#
# Stress axis : x y z
#
# Youngs Moduli (GPa) = 143.85435 63.93906 125.09652
#
# Poissons Ratio (x) = 0.04735 0.26116
# Poissons Ratio (y) = 0.10654 0.41026
# Poissons Ratio (z) = 0.30032 0.20969
#
# Static dielectric constant tensor:
#      x y z
#    x 1.777480 0.000000 0.000000 
#    y 0.000000 1.845820 0.000000 
#    z 0.000000 0.000000 1.861060 
# 
# From -- ./inp_files/36158.got.cif
#   From: 2010.05.17/outbox.cif.g08.bks.cpg/sg66_19_cif.got.tgz:36158.got - 2010.06.03 17:51:23.
