data_PCOD9498348
_publ_section_title
;
Structure prediction by ZEFSAII (Michael W. Deem and Ramdas Pophale) SiO2 
 PCOD9498348
Probable space group: C C C M
;
_chemical_formula_sum "Si O2"
_cell_formula_units_Z 112
_cell_length_a 21.161271
_cell_length_b 14.974419
_cell_length_c 15.136021
_cell_angle_alpha 90.000000
_cell_angle_beta 90.000000
_cell_angle_gamma 90.000000
_cell_volume 4796.268105
_symmetry_space_group_name_H-M "C C C M"
_symmetry_group_IT_number 66
_symmetry_cell_setting 'orthorhombic'
loop_
_space_group_symop_operation_xyz
x,y,z
-x,-y,z
x,-y,1/2-z
-x,y,1/2-z
-x,-y,-z
x,y,-z
-x,y,1/2+z
x,-y,1/2+z
1/2+x,1/2+y,z
1/2-x,1/2-y,z
1/2+x,1/2-y,1/2-z
1/2-x,1/2+y,1/2-z
1/2-x,1/2-y,-z
1/2+x,1/2+y,-z
1/2-x,1/2+y,1/2+z
1/2+x,1/2-y,1/2+z
loop_
_atom_site_type_symbol
_atom_site_label
_atom_site_fract_x
_atom_site_fract_y
_atom_site_fract_z
Si Si1 0.102144 0.691437 0.784940
Si Si2 0.651447 0.351617 0.896934
Si Si3 0.738845 0.106531 0.758142
Si Si4 0.072771 0.528157 0.904175
Si Si5 0.401961 0.830007 0.597843
Si Si6 0.433332 0.471422 0.102270
Si Si7 0.673123 0.341064 0.400070
O O1 0.109244 0.777243 0.846914
O O2 0.174717 0.661433 0.767260
O O3 0.076511 0.605118 0.834086
O O4 0.067354 0.700499 0.690296
O O5 0.714992 0.369784 0.840497
O O6 0.611996 0.443237 0.895913
O O7 0.663544 0.327922 0.000000
O O8 0.774335 0.136203 0.669631
O O9 0.728312 0.000000 0.750000
O O10 0.110228 0.435513 0.889798
O O11 0.000000 0.500000 0.907497
O O12 0.092881 0.563623 0.000000
O O13 0.433869 0.821760 0.500000
O O14 0.343048 0.763077 0.592492
O O15 0.500000 0.500000 0.143236
O O16 0.390698 0.389945 0.135561
O O17 0.447236 0.445763 0.000000
O O18 0.686256 0.374242 0.500000
#
# Coordination Sequence:
#
# PCOD9498348 Si02
#       7
#    16  16  16  16  16  16  16
#     4  12  25  42  65  98 133 177 228 277 335 410
#     4  11  24  42  65  97 138 178 219 277 345 409
#     4  12  24  41  65  94 133 179 225 277 333 401
#     4  10  23  45  70  97 133 174 223 285 346 409
#     4  10  22  40  64  93 127 170 223 278 335 396
#     4   9  19  39  67  97 131 172 220 275 335 402
#     4  10  21  40  63  91 131 175 223 281 342 402
#
# _framework density 23.351489000000001
#
# number of rings (size 3 to 8) (size 9 to 14) (size 15 to 20)
#    0.000    1.429    2.857    2.143    0.000    4.571 
#    0.000    7.143    0.000    0.000    0.000    0.000 
#    0.000    0.000    0.000    0.000    0.000    0.000 
#
# Total GULP energy -312902.166805 kJ/mol
# GULP energy per Si atom -5587.538693 kJ/mol
# Density = 2.329834 g / cm^3
# Si number density = 23.351489 Si / 1000 Ang^3
#
#
#
# Elastic Constant Matrix: (Units=GPa)
#
#
# Indices 1 2 3 4 5 6 
#
# 1 67.3283 6.8868 12.9010 0.0000 0.0000 0.0000
# 2 6.8868 118.7995 41.2261 0.0000 0.0000 0.0000
# 3 12.9010 41.2261 160.9330 0.0000 0.0000 0.0000
# 4 0.0000 0.0000 0.0000 30.3089 0.0000 0.0000
# 5 0.0000 0.0000 0.0000 0.0000 23.3512 0.0000
# 6 0.0000 0.0000 0.0000 0.0000 0.0000 19.7833
#
#
#
# Elastic Compliance Matrix: (Units=1/GPa)
#
#
# Indices 1 2 3 4 5 6 
#
# 1 0.015111 -0.000500 -0.001083 0.000000 0.000000 0.000000
# 2 -0.000500 0.009255 -0.002331 0.000000 0.000000 0.000000
# 3 -0.001083 -0.002331 0.006898 0.000000 0.000000 0.000000
# 4 0.000000 0.000000 0.000000 0.032994 0.000000 0.000000
# 5 0.000000 0.000000 0.000000 0.000000 0.042824 0.000000
# 6 0.000000 0.000000 0.000000 0.000000 0.000000 0.050548
#
#
# Mechanical properties :
#
#
# Convention : Reuss Voigt Hill
#
# Bulk Modulus (GPa) = 42.66941 52.12094 47.39518
# Shear Modulus (GPa) = 28.85659 33.75846 31.30753
#
# Velocity S-wave (km/s) = 3.51914 3.80632 3.66554
# Velocity P-wave (km/s) = 5.90125 6.45647 6.18510
#
# Compressibility (1/GPa) = 0.02343599
#
# Stress axis : x y z
#
# Youngs Moduli (GPa) = 66.17554 108.04506 144.97582
#
# Poissons Ratio (x) = 0.05403 0.15705
# Poissons Ratio (y) = 0.03309 0.33792
# Poissons Ratio (z) = 0.07169 0.25184
#
# Static dielectric constant tensor:
#      x y z
#    x 1.901440 0.000000 0.000000 
#    y 0.000000 1.881140 0.000000 
#    z 0.000000 0.000000 1.966620 
# 
# From -- ./inp_files/32491.got.cif
#   From: 2010.05.17/outbox.cif.g08.bks.cpg/sg66_17_cif.got.tgz:32491.got - 2010.06.03 17:51:23.
