data_PCOD9498096
_publ_section_title
;
Structure prediction by ZEFSAII (Michael W. Deem and Ramdas Pophale) SiO2 
 PCOD9498096
Probable space group: C C C M
;
_chemical_formula_sum "Si O2"
_cell_formula_units_Z 96
_cell_length_a 10.656820
_cell_length_b 23.456145
_cell_length_c 18.931682
_cell_angle_alpha 90.000000
_cell_angle_beta 90.000000
_cell_angle_gamma 90.000000
_cell_volume 4732.313080
_symmetry_space_group_name_H-M "C C C M"
_symmetry_group_IT_number 66
_symmetry_cell_setting 'orthorhombic'
loop_
_space_group_symop_operation_xyz
x,y,z
-x,-y,z
x,-y,1/2-z
-x,y,1/2-z
-x,-y,-z
x,y,-z
-x,y,1/2+z
x,-y,1/2+z
1/2+x,1/2+y,z
1/2-x,1/2-y,z
1/2+x,1/2-y,1/2-z
1/2-x,1/2+y,1/2-z
1/2-x,1/2-y,-z
1/2+x,1/2+y,-z
1/2-x,1/2+y,1/2+z
1/2+x,1/2-y,1/2+z
loop_
_atom_site_type_symbol
_atom_site_label
_atom_site_fract_x
_atom_site_fract_y
_atom_site_fract_z
Si Si1 0.274053 0.183283 0.863506
Si Si2 0.972966 0.379705 0.165974
Si Si3 0.774314 0.816328 0.697231
Si Si4 0.827576 0.073053 0.419739
Si Si5 0.677912 0.984910 0.331553
Si Si6 0.437787 0.414788 0.674041
O O1 0.250000 0.250000 0.878199
O O2 0.416356 0.158789 0.866021
O O3 0.230838 0.173012 0.781974
O O4 0.198828 0.140360 0.912914
O O5 0.844162 0.345370 0.160709
O O6 0.933527 0.443399 0.141524
O O7 0.000000 0.384333 0.250000
O O8 0.750000 0.750000 0.687435
O O9 0.898981 0.847866 0.670115
O O10 0.825796 0.053485 0.500000
O O11 0.962329 0.065631 0.383410
O O12 0.719494 0.040342 0.375398
O O13 0.807355 0.948418 0.330667
O O14 0.652169 0.000000 0.250000
O O15 0.500000 0.425417 0.750000
#
# Coordination Sequence:
#
# PCOD9498096 Si02
#       6
#    16  16  16  16  16  16
#     4  10  21  38  60  87 124 164 206 259 314 370
#     4   9  19  34  55  92 126 156 206 263 314 359
#     4   9  18  31  60  96 121 154 205 266 311 356
#     4  12  26  40  60  91 124 165 210 253 313 383
#     4  11  21  37  62  91 124 165 207 259 317 374
#     4  11  20  36  61  91 124 162 207 253 311 369
#
# _framework density 20.286064
#
# number of rings (size 3 to 8) (size 9 to 14) (size 15 to 20)
#    0.000    1.667    3.333    2.500    2.333    4.667 
#    0.000    1.667    0.000    1.500    0.000    0.000 
#    0.000    0.000    0.000    0.000    0.000    0.000 
#
# Total GULP energy -267884.634330 kJ/mol
# GULP energy per Si atom -5580.929882 kJ/mol
# Density = 2.023989 g / cm^3
# Si number density = 20.286064 Si / 1000 Ang^3
#
#
#
# Elastic Constant Matrix: (Units=GPa)
#
#
# Indices 1 2 3 4 5 6 
#
# 1 115.7414 43.7104 25.2350 0.0000 0.0000 0.0000
# 2 43.7104 123.3717 34.7800 0.0000 0.0000 0.0000
# 3 25.2350 34.7800 63.0916 0.0000 0.0000 0.0000
# 4 0.0000 0.0000 0.0000 -9.4029 0.0000 0.0000
# 5 0.0000 0.0000 0.0000 0.0000 -2.1459 0.0000
# 6 0.0000 0.0000 0.0000 0.0000 0.0000 28.2755
#
#
#
# Elastic Compliance Matrix: (Units=1/GPa)
#
#
# Indices 1 2 3 4 5 6 
#
# 1 0.010296 -0.002944 -0.002495 0.000000 0.000000 0.000000
# 2 -0.002944 0.010439 -0.004577 0.000000 0.000000 0.000000
# 3 -0.002495 -0.004577 0.019371 0.000000 0.000000 0.000000
# 4 0.000000 0.000000 0.000000 -0.106350 0.000000 0.000000
# 5 0.000000 0.000000 0.000000 0.000000 -0.466010 0.000000
# 6 0.000000 0.000000 0.000000 0.000000 0.000000 0.035366
#
#
# Mechanical properties :
#
#
# Convention : Reuss Voigt Hill
#
# Bulk Modulus (GPa) = 49.81749 56.62839 53.22294
# Shear Modulus (GPa) = -10.63458 16.57730 2.97136
#
# Velocity S-wave (km/s) = -2.29209 2.86173 1.21157
# Velocity P-wave (km/s) = 4.19594 6.23658 5.31511
#
# Compressibility (1/GPa) = 0.02007327
#
# Stress axis : x y z
#
# Youngs Moduli (GPa) = 97.12589 95.79352 51.62356
#
# Poissons Ratio (x) = 0.28206 0.12880
# Poissons Ratio (y) = 0.28598 0.23628
# Poissons Ratio (z) = 0.24232 0.43845
#
# Static dielectric constant tensor:
#      x y z
#    x 1.752050 0.000000 0.000000 
#    y 0.000000 1.809830 0.000000 
#    z 0.000000 0.000000 1.672860 
# 
# From -- ./inp_files/48948.got.cif
#   From: 2010.05.17/outbox.cif.g08.bks.cpg/sg66_25_cif.got.tgz:48948.got - 2010.06.03 17:51:23.
