data_PCOD9498541
_publ_section_title
;
Structure prediction by ZEFSAII (Michael W. Deem and Ramdas Pophale) SiO2 
 PCOD9498541
Probable space group: C C C M
;
_chemical_formula_sum "Si O2"
_cell_formula_units_Z 104
_cell_length_a 19.563497
_cell_length_b 22.514220
_cell_length_c 13.461892
_cell_angle_alpha 90.000000
_cell_angle_beta 90.000000
_cell_angle_gamma 90.000000
_cell_volume 5929.382888
_symmetry_space_group_name_H-M "C C C M"
_symmetry_group_IT_number 66
_symmetry_cell_setting 'orthorhombic'
loop_
_space_group_symop_operation_xyz
x,y,z
-x,-y,z
x,-y,1/2-z
-x,y,1/2-z
-x,-y,-z
x,y,-z
-x,y,1/2+z
x,-y,1/2+z
1/2+x,1/2+y,z
1/2-x,1/2-y,z
1/2+x,1/2-y,1/2-z
1/2-x,1/2+y,1/2-z
1/2-x,1/2-y,-z
1/2+x,1/2+y,-z
1/2-x,1/2+y,1/2+z
1/2+x,1/2-y,1/2+z
loop_
_atom_site_type_symbol
_atom_site_label
_atom_site_fract_x
_atom_site_fract_y
_atom_site_fract_z
Si Si1 0.296111 0.998034 0.112778
Si Si2 0.800805 0.193045 0.115904
Si Si3 0.052894 0.551716 0.612036
Si Si4 0.178509 0.286642 0.883535
Si Si5 0.573338 0.259692 0.224188
Si Si6 0.268289 0.102147 0.762036
Si Si7 0.000000 0.350760 0.250000
O O1 0.371025 0.026999 0.114247
O O2 0.247669 0.048888 0.161786
O O3 0.303516 0.938791 0.178030
O O4 0.276167 0.985112 0.000000
O O5 0.750000 0.250000 0.132149
O O6 0.877669 0.212152 0.143072
O O7 0.782329 0.141806 0.194932
O O8 0.793789 0.175945 0.000000
O O9 0.035624 0.569345 0.500000
O O10 0.000000 0.500000 0.639921
O O11 0.043721 0.607420 0.681285
O O12 0.250000 0.250000 0.879246
O O13 0.119979 0.251779 0.822226
O O14 0.192336 0.348879 0.827546
O O15 0.161332 0.295261 0.000000
O O16 0.500000 0.289597 0.250000
O O17 0.548655 0.194108 0.190304
#
# Coordination Sequence:
#
# PCOD9498541 Si02
#       7
#    16  16  16  16  16  16   8
#     4  10  23  36  54  82 110 148 196 248 289 339
#     4  11  22  38  59  84 117 154 197 244 298 358
#     4  10  22  35  48  72 108 152 199 232 274 329
#     4  11  21  37  61  85 114 154 200 247 298 349
#     4  10  22  37  56  84 116 150 191 237 292 352
#     4  11  20  36  59  79 113 149 193 240 291 339
#     4  10  23  32  58  72 110 161 182 232 280 332
#
# _framework density 17.539767999999999
#
# number of rings (size 3 to 8) (size 9 to 14) (size 15 to 20)
#    0.462    1.077    3.077    2.077    6.462    3.077 
#    0.000    0.000    0.000    0.000    0.000    2.154 
#    0.000    6.154    0.000    0.000    0.000    0.000 
#
# Total GULP energy -289622.962725 kJ/mol
# GULP energy per Si atom -5569.672360 kJ/mol
# Density = 1.749985 g / cm^3
# Si number density = 17.539768 Si / 1000 Ang^3
#
#
#
# Elastic Constant Matrix: (Units=GPa)
#
#
# Indices 1 2 3 4 5 6 
#
# 1 69.9564 19.4877 13.4083 0.0000 0.0000 0.0000
# 2 19.4877 62.8540 26.0468 0.0000 0.0000 0.0000
# 3 13.4083 26.0468 109.1843 0.0000 0.0000 0.0000
# 4 0.0000 0.0000 0.0000 37.5652 0.0000 0.0000
# 5 0.0000 0.0000 0.0000 0.0000 16.6562 0.0000
# 6 0.0000 0.0000 0.0000 0.0000 0.0000 26.4489
#
#
#
# Elastic Compliance Matrix: (Units=1/GPa)
#
#
# Indices 1 2 3 4 5 6 
#
# 1 0.015717 -0.004520 -0.000852 0.000000 0.000000 0.000000
# 2 -0.004520 0.018955 -0.003967 0.000000 0.000000 0.000000
# 3 -0.000852 -0.003967 0.010210 0.000000 0.000000 0.000000
# 4 0.000000 0.000000 0.000000 0.026620 0.000000 0.000000
# 5 0.000000 0.000000 0.000000 0.000000 0.060038 0.000000
# 6 0.000000 0.000000 0.000000 0.000000 0.000000 0.037809
#
#
# Mechanical properties :
#
#
# Convention : Reuss Voigt Hill
#
# Bulk Modulus (GPa) = 38.16126 39.98669 39.07398
# Shear Modulus (GPa) = 25.41153 28.33752 26.87452
#
# Velocity S-wave (km/s) = 3.81043 4.02383 3.91859
# Velocity P-wave (km/s) = 6.41587 6.66600 6.54213
#
# Compressibility (1/GPa) = 0.02620458
#
# Stress axis : x y z
#
# Youngs Moduli (GPa) = 63.62529 52.75610 97.94555
#
# Poissons Ratio (x) = 0.23846 0.08343
# Poissons Ratio (y) = 0.28759 0.38853
# Poissons Ratio (z) = 0.05420 0.20927
#
# Static dielectric constant tensor:
#      x y z
#    x 1.628150 0.000000 0.000000 
#    y 0.000000 1.613790 0.000000 
#    z 0.000000 0.000000 1.631810 
# 
# From -- ./inp_files/30319.got.cif
#   From: 2010.05.17/outbox.cif.g08.bks.cpg/sg66_16_cif.got.tgz:30319.got - 2010.06.03 17:51:23.
