data_PCOD9498027
_publ_section_title
;
Structure prediction by ZEFSAII (Michael W. Deem and Ramdas Pophale) SiO2 
 PCOD9498027
Probable space group: C C C M
;
_chemical_formula_sum "Si O2"
_cell_formula_units_Z 104
_cell_length_a 20.835536
_cell_length_b 9.286029
_cell_length_c 27.087735
_cell_angle_alpha 90.000000
_cell_angle_beta 90.000000
_cell_angle_gamma 90.000000
_cell_volume 5240.918486
_symmetry_space_group_name_H-M "C C C M"
_symmetry_group_IT_number 66
_symmetry_cell_setting 'orthorhombic'
loop_
_space_group_symop_operation_xyz
x,y,z
-x,-y,z
x,-y,1/2-z
-x,y,1/2-z
-x,-y,-z
x,y,-z
-x,y,1/2+z
x,-y,1/2+z
1/2+x,1/2+y,z
1/2-x,1/2-y,z
1/2+x,1/2-y,1/2-z
1/2-x,1/2+y,1/2-z
1/2-x,1/2-y,-z
1/2+x,1/2+y,-z
1/2-x,1/2+y,1/2+z
1/2+x,1/2-y,1/2+z
loop_
_atom_site_type_symbol
_atom_site_label
_atom_site_fract_x
_atom_site_fract_y
_atom_site_fract_z
Si Si1 0.408564 0.283103 0.608743
Si Si2 0.222760 0.531836 0.000000
Si Si3 0.860078 0.833232 0.500000
Si Si4 0.205918 0.045640 0.659857
Si Si5 0.671595 0.998440 0.600195
Si Si6 0.221431 0.500000 0.250000
Si Si7 0.988054 0.170630 0.305899
Si Si8 0.844138 0.267576 0.321046
O O1 0.402046 0.339814 0.551100
O O2 0.356620 0.377084 0.639591
O O3 0.383404 0.120517 0.602753
O O4 0.470467 0.281617 0.645496
O O5 0.182136 0.683988 0.000000
O O6 0.299519 0.555833 0.000000
O O7 0.196225 0.454035 0.047530
O O8 0.231425 0.086808 0.713565
O O9 0.198034 0.873096 0.666703
O O10 0.265106 0.074694 0.623806
O O11 0.652182 0.134331 0.631156
O O12 0.179345 0.618788 0.279171
O O13 0.000000 0.229841 0.250000
O O14 0.913715 0.203679 0.311891
O O15 0.000000 0.000000 0.303845
#
# Coordination Sequence:
#
# PCOD9498027 Si02
#       8
#    16   8   8  16  16   8  16  16
#     4  11  22  40  68  93 128 167 223 259 316 384
#     4   9  16  34  61  96 136 158 207 266 334 381
#     4   9  18  36  63  99 124 169 211 269 316 392
#     4  11  22  38  64  91 131 161 204 263 322 388
#     4  10  21  37  62  99 125 164 205 271 325 375
#     4  10  24  36  61  91 124 168 200 258 326 384
#     4  11  26  45  65  87 125 176 215 264 314 381
#     4  11  25  44  59  90 134 166 218 258 320 390
#
# _framework density 19.843848999999999
#
# number of rings (size 3 to 8) (size 9 to 14) (size 15 to 20)
#    0.000    1.538    3.077    2.308    6.462    3.077 
#    0.000    3.462    0.000    2.769    0.000    0.000 
#    0.000    0.000    0.000    0.000    0.000    0.000 
#
# Total GULP energy -289633.799191 kJ/mol
# GULP energy per Si atom -5569.880754 kJ/mol
# Density = 1.979868 g / cm^3
# Si number density = 19.843849 Si / 1000 Ang^3
#
#
#
# Elastic Constant Matrix: (Units=GPa)
#
#
# Indices 1 2 3 4 5 6 
#
# 1 39.5613 2.5664 21.1412 0.0000 0.0000 0.0000
# 2 2.5664 76.3562 18.0416 0.0000 0.0000 0.0000
# 3 21.1412 18.0416 152.8458 0.0000 0.0000 0.0000
# 4 0.0000 0.0000 0.0000 11.5998 0.0000 0.0000
# 5 0.0000 0.0000 0.0000 0.0000 30.6534 0.0000
# 6 0.0000 0.0000 0.0000 0.0000 0.0000 28.0364
#
#
#
# Elastic Compliance Matrix: (Units=1/GPa)
#
#
# Indices 1 2 3 4 5 6 
#
# 1 0.027295 -0.000026 -0.003772 0.000000 0.000000 0.000000
# 2 -0.000026 0.013472 -0.001587 0.000000 0.000000 0.000000
# 3 -0.003772 -0.001587 0.007252 0.000000 0.000000 0.000000
# 4 0.000000 0.000000 0.000000 0.086208 0.000000 0.000000
# 5 0.000000 0.000000 0.000000 0.000000 0.032623 0.000000
# 6 0.000000 0.000000 0.000000 0.000000 0.000000 0.035668
#
#
# Mechanical properties :
#
#
# Convention : Reuss Voigt Hill
#
# Bulk Modulus (GPa) = 26.84659 39.14019 32.99339
# Shear Modulus (GPa) = 22.15295 29.19220 25.67258
#
# Velocity S-wave (km/s) = 3.34483 3.83965 3.60075
# Velocity P-wave (km/s) = 5.33624 6.27886 5.82664
#
# Compressibility (1/GPa) = 0.03724868
#
# Stress axis : x y z
#
# Youngs Moduli (GPa) = 36.63706 74.22650 137.90077
#
# Poissons Ratio (x) = 0.00194 0.52020
# Poissons Ratio (y) = 0.00096 0.21880
# Poissons Ratio (z) = 0.13820 0.11777
#
# Static dielectric constant tensor:
#      x y z
#    x 1.714780 0.000000 0.000000 
#    y 0.000000 1.616650 0.000000 
#    z 0.000000 0.000000 1.534450 
# 
# From -- ./inp_files/65763.got.cif
#   From: 2010.05.17/outbox.cif.g08.bks.cpg/sg66_33_cif.got.tgz:65763.got - 2010.06.03 17:51:23.
