data_PCOD9498386
_publ_section_title
;
Structure prediction by ZEFSAII (Michael W. Deem and Ramdas Pophale) SiO2 
 PCOD9498386
Probable space group: C C C M
;
_chemical_formula_sum "Si O2"
_cell_formula_units_Z 96
_cell_length_a 15.009095
_cell_length_b 18.060158
_cell_length_c 15.266428
_cell_angle_alpha 90.000000
_cell_angle_beta 90.000000
_cell_angle_gamma 90.000000
_cell_volume 4138.219146
_symmetry_space_group_name_H-M "C C C M"
_symmetry_group_IT_number 66
_symmetry_cell_setting 'orthorhombic'
loop_
_space_group_symop_operation_xyz
x,y,z
-x,-y,z
x,-y,1/2-z
-x,y,1/2-z
-x,-y,-z
x,y,-z
-x,y,1/2+z
x,-y,1/2+z
1/2+x,1/2+y,z
1/2-x,1/2-y,z
1/2+x,1/2-y,1/2-z
1/2-x,1/2+y,1/2-z
1/2-x,1/2-y,-z
1/2+x,1/2+y,-z
1/2-x,1/2+y,1/2+z
1/2+x,1/2-y,1/2+z
loop_
_atom_site_type_symbol
_atom_site_label
_atom_site_fract_x
_atom_site_fract_y
_atom_site_fract_z
Si Si1 0.135087 0.525887 0.000000
Si Si2 0.194426 0.824768 0.399969
Si Si3 0.475385 0.125427 0.000000
Si Si4 0.404958 0.463389 0.606491
Si Si5 0.020482 0.260801 0.851167
Si Si6 0.735128 0.033571 0.338029
Si Si7 0.169246 0.197018 0.398141
O O1 0.193308 0.514886 0.914764
O O2 0.075236 0.451989 0.000000
O O3 0.078372 0.600216 0.000000
O O4 0.180657 0.854160 0.500000
O O5 0.250000 0.750000 0.406466
O O6 0.097564 0.802136 0.360724
O O7 0.262370 0.878870 0.349122
O O8 0.451557 0.171740 0.086083
O O9 0.500000 0.500000 0.627842
O O10 0.401417 0.460916 0.500000
O O11 0.339288 0.520784 0.650496
O O12 0.362850 0.383986 0.637596
O O13 0.000000 0.278130 0.750000
O O14 0.925097 0.238327 0.891424
O O15 0.697784 0.000000 0.250000
O O16 0.194012 0.184522 0.500000
O O17 0.250000 0.250000 0.361256
#
# Coordination Sequence:
#
# PCOD9498386 Si02
#       7
#     8  16   8  16  16  16  16
#     4  11  26  49  73  99 142 188 253 307 386 442
#     4  11  23  46  78 104 146 198 255 310 370 455
#     4  11  26  49  73 100 140 195 241 317 374 448
#     4  10  21  40  66  95 136 188 235 289 359 441
#     4  12  26  43  72 110 146 188 246 308 373 445
#     4  12  26  43  72 109 144 191 245 304 373 448
#     4  10  22  40  67  98 137 186 238 293 368 442
#
# _framework density 23.198384000000001
#
# number of rings (size 3 to 8) (size 9 to 14) (size 15 to 20)
#    0.000    1.000    3.333    2.000    4.667    5.000 
#    0.000    1.667    0.000    0.000    0.000    0.000 
#    0.000    0.000    0.000    0.000    0.000    0.000 
#
# Total GULP energy -267792.391042 kJ/mol
# GULP energy per Si atom -5579.008147 kJ/mol
# Density = 2.314558 g / cm^3
# Si number density = 23.198384 Si / 1000 Ang^3
#
#
#
# Elastic Constant Matrix: (Units=GPa)
#
#
# Indices 1 2 3 4 5 6 
#
# 1 112.6229 23.4283 16.1562 0.0000 0.0000 0.0000
# 2 23.4283 116.1312 26.0244 0.0000 0.0000 0.0000
# 3 16.1562 26.0244 131.6140 0.0000 0.0000 0.0000
# 4 0.0000 0.0000 0.0000 -24.4714 0.0000 0.0000
# 5 0.0000 0.0000 0.0000 0.0000 -32.8516 0.0000
# 6 0.0000 0.0000 0.0000 0.0000 0.0000 41.3905
#
#
#
# Elastic Compliance Matrix: (Units=1/GPa)
#
#
# Indices 1 2 3 4 5 6 
#
# 1 0.009350 -0.001705 -0.000811 0.000000 0.000000 0.000000
# 2 -0.001705 0.009321 -0.001634 0.000000 0.000000 0.000000
# 3 -0.000811 -0.001634 0.008021 0.000000 0.000000 0.000000
# 4 0.000000 0.000000 0.000000 -0.040864 0.000000 0.000000
# 5 0.000000 0.000000 0.000000 0.000000 -0.030440 0.000000
# 6 0.000000 0.000000 0.000000 0.000000 0.000000 0.024160
#
#
# Mechanical properties :
#
#
# Convention : Reuss Voigt Hill
#
# Bulk Modulus (GPa) = 54.36749 54.62066 54.49407
# Shear Modulus (GPa) = -830.15580 16.46415 -406.84583
#
# Velocity S-wave (km/s) = -18.93746 2.66693 -13.25736
# Velocity P-wave (km/s) = 21.32330 5.75148 14.51902
#
# Compressibility (1/GPa) = 0.01839335
#
# Stress axis : x y z
#
# Youngs Moduli (GPa) = 106.95092 107.28504 124.67973
#
# Poissons Ratio (x) = 0.18288 0.10108
# Poissons Ratio (y) = 0.18231 0.20370
# Poissons Ratio (z) = 0.08671 0.17528
#
# Static dielectric constant tensor:
#      x y z
#    x 1.935330 0.000000 0.000000 
#    y 0.000000 2.111900 0.000000 
#    z 0.000000 0.000000 1.843840 
# 
# From -- ./inp_files/28445.got.cif
#   From: 2010.05.17/outbox.cif.g08.bks.cpg/sg66_15_cif.got.tgz:28445.got - 2010.06.03 17:51:23.
