data_PCOD9498468
_publ_section_title
;
Structure prediction by ZEFSAII (Michael W. Deem and Ramdas Pophale) SiO2 
 PCOD9498468
Probable space group: C C C M
;
_chemical_formula_sum "Si O2"
_cell_formula_units_Z 56
_cell_length_a 13.989231
_cell_length_b 11.177417
_cell_length_c 16.553417
_cell_angle_alpha 90.000000
_cell_angle_beta 90.000000
_cell_angle_gamma 90.000000
_cell_volume 2588.349696
_symmetry_space_group_name_H-M "C C C M"
_symmetry_group_IT_number 66
_symmetry_cell_setting 'orthorhombic'
loop_
_space_group_symop_operation_xyz
x,y,z
-x,-y,z
x,-y,1/2-z
-x,y,1/2-z
-x,-y,-z
x,y,-z
-x,y,1/2+z
x,-y,1/2+z
1/2+x,1/2+y,z
1/2-x,1/2-y,z
1/2+x,1/2-y,1/2-z
1/2-x,1/2+y,1/2-z
1/2-x,1/2-y,-z
1/2+x,1/2+y,-z
1/2-x,1/2+y,1/2+z
1/2+x,1/2-y,1/2+z
loop_
_atom_site_type_symbol
_atom_site_label
_atom_site_fract_x
_atom_site_fract_y
_atom_site_fract_z
Si Si1 0.410914 0.166360 0.699276
Si Si2 0.750000 0.750000 0.180171
Si Si3 0.063060 0.890431 0.094143
Si Si4 0.273681 0.998505 0.905948
O O1 0.500000 0.121869 0.750000
O O2 0.339939 0.234838 0.760504
O O3 0.450564 0.265800 0.638022
O O4 0.351153 0.066664 0.650708
O O5 0.749358 0.868997 0.126054
O O6 0.174677 0.924971 0.099369
O O7 0.037262 0.877305 0.000000
O O8 0.000000 0.000000 0.127728
O O9 0.303628 0.000211 0.000000
#
# Coordination Sequence:
#
# PCOD9498468 Si02
#       4
#    16   8  16  16
#     4  12  25  42  70 104 142 186 239 296 363 418
#     4  12  25  42  67 100 142 182 238 300 345 420
#     4  10  21  41  71 104 138 181 237 296 358 429
#     4  11  24  45  69  99 142 190 236 291 361 434
#
# _framework density 21.635406
#
# number of rings (size 3 to 8) (size 9 to 14) (size 15 to 20)
#    0.000    0.857    2.857    3.857    0.000    7.429 
#    0.000    5.714    0.000    0.000    0.000    0.000 
#    0.000    0.000    0.000    0.000    0.000    0.000 
#
# Total GULP energy -156766.641209 kJ/mol
# GULP energy per Si atom -5598.808615 kJ/mol
# Density = 2.158616 g / cm^3
# Si number density = 21.635406 Si / 1000 Ang^3
#
#
#
# Elastic Constant Matrix: (Units=GPa)
#
#
# Indices 1 2 3 4 5 6 
#
# 1 110.5542 46.1254 64.0642 0.0000 0.0000 0.0000
# 2 46.1254 172.1404 82.1629 0.0000 0.0000 0.0000
# 3 64.0642 82.1629 130.3216 0.0000 0.0000 0.0000
# 4 0.0000 0.0000 0.0000 26.9253 0.0000 0.0000
# 5 0.0000 0.0000 0.0000 0.0000 35.8603 0.0000
# 6 0.0000 0.0000 0.0000 0.0000 0.0000 30.6410
#
#
#
# Elastic Compliance Matrix: (Units=1/GPa)
#
#
# Indices 1 2 3 4 5 6 
#
# 1 0.012692 -0.000605 -0.005858 0.000000 0.000000 0.000000
# 2 -0.000605 0.008339 -0.004960 0.000000 0.000000 0.000000
# 3 -0.005858 -0.004960 0.013680 0.000000 0.000000 0.000000
# 4 0.000000 0.000000 0.000000 0.037140 0.000000 0.000000
# 5 0.000000 0.000000 0.000000 0.000000 0.027886 0.000000
# 6 0.000000 0.000000 0.000000 0.000000 0.000000 0.032636
#
#
# Mechanical properties :
#
#
# Convention : Reuss Voigt Hill
#
# Bulk Modulus (GPa) = 84.27788 88.63569 86.45678
# Shear Modulus (GPa) = 31.41229 33.39624 32.40427
#
# Velocity S-wave (km/s) = 3.81451 3.93312 3.87427
# Velocity P-wave (km/s) = 7.64453 7.85384 7.74989
#
# Compressibility (1/GPa) = 0.01186551
#
# Stress axis : x y z
#
# Youngs Moduli (GPa) = 78.78783 119.92381 73.09937
#
# Poissons Ratio (x) = 0.07254 0.42822
# Poissons Ratio (y) = 0.04766 0.36256
# Poissons Ratio (z) = 0.46154 0.59480
#
# Static dielectric constant tensor:
#      x y z
#    x 1.803430 0.000000 0.000000 
#    y 0.000000 1.788860 0.000000 
#    z 0.000000 0.000000 1.779080 
# 
# From -- ./inp_files/25374.got.cif
#   From: 2010.05.17/outbox.cif.g08.bks.cpg/sg66_13_cif.got.tgz:25374.got - 2010.06.03 17:51:23.
