data_PCOD9498130
_publ_section_title
;
Structure prediction by ZEFSAII (Michael W. Deem and Ramdas Pophale) SiO2 
 PCOD9498130
Probable space group: C C C M
;
_chemical_formula_sum "Si O2"
_cell_formula_units_Z 56
_cell_length_a 14.203293
_cell_length_b 5.292748
_cell_length_c 30.815968
_cell_angle_alpha 90.000000
_cell_angle_beta 90.000000
_cell_angle_gamma 90.000000
_cell_volume 2316.573465
_symmetry_space_group_name_H-M "C C C M"
_symmetry_group_IT_number 66
_symmetry_cell_setting 'orthorhombic'
loop_
_space_group_symop_operation_xyz
x,y,z
-x,-y,z
x,-y,1/2-z
-x,y,1/2-z
-x,-y,-z
x,y,-z
-x,y,1/2+z
x,-y,1/2+z
1/2+x,1/2+y,z
1/2-x,1/2-y,z
1/2+x,1/2-y,1/2-z
1/2-x,1/2+y,1/2-z
1/2-x,1/2-y,-z
1/2+x,1/2+y,-z
1/2-x,1/2+y,1/2+z
1/2+x,1/2-y,1/2+z
loop_
_atom_site_type_symbol
_atom_site_label
_atom_site_fract_x
_atom_site_fract_y
_atom_site_fract_z
Si Si1 0.363516 0.753951 0.777239
Si Si2 0.891928 0.200351 0.411084
Si Si3 0.397250 0.216143 0.375672
Si Si4 0.815680 0.006494 0.500000
O O1 0.388209 0.500000 0.750000
O O2 0.250000 0.750000 0.783731
O O3 0.407574 0.805498 0.824386
O O4 0.386793 0.000000 0.750000
O O5 0.852665 0.480974 0.401891
O O6 0.878056 0.065076 0.457420
O O7 0.000265 0.245032 0.397487
O O8 0.848524 0.988523 0.380034
O O9 0.750000 0.250000 0.500000
O O10 0.750000 0.750000 0.500000
#
# Coordination Sequence:
#
# PCOD9498130 Si02
#       4
#    16  16  16   8
#     4  10  21  38  61  92 131 171 212 261 318 382
#     4  10  23  41  62  93 126 165 211 266 329 394
#     4  10  21  40  65  93 128 168 212 266 324 386
#     4  12  26  44  66  94 127 166 214 270 337 405
#
# _framework density 24.173635000000001
#
# number of rings (size 3 to 8) (size 9 to 14) (size 15 to 20)
#    0.000    1.714    0.000    3.429    0.000    8.000 
#    0.000   17.143    0.000    0.000    0.000    0.000 
#    0.000    0.000    0.000    0.000    0.000    0.000 
#
# Total GULP energy -156081.386449 kJ/mol
# GULP energy per Si atom -5574.335230 kJ/mol
# Density = 2.411861 g / cm^3
# Si number density = 24.173635 Si / 1000 Ang^3
#
#
#
# Elastic Constant Matrix: (Units=GPa)
#
#
# Indices 1 2 3 4 5 6 
#
# 1 130.3983 25.1580 43.6481 0.0000 0.0000 0.0000
# 2 25.1580 262.2401 77.5069 0.0000 0.0000 0.0000
# 3 43.6481 77.5069 220.9882 0.0000 0.0000 0.0000
# 4 0.0000 0.0000 0.0000 45.9322 0.0000 0.0000
# 5 0.0000 0.0000 0.0000 0.0000 -10.1907 0.0000
# 6 0.0000 0.0000 0.0000 0.0000 0.0000 -10.8586
#
#
#
# Elastic Compliance Matrix: (Units=1/GPa)
#
#
# Indices 1 2 3 4 5 6 
#
# 1 0.008240 -0.000345 -0.001506 0.000000 0.000000 0.000000
# 2 -0.000345 0.004269 -0.001429 0.000000 0.000000 0.000000
# 3 -0.001506 -0.001429 0.005324 0.000000 0.000000 0.000000
# 4 0.000000 0.000000 0.000000 0.021771 0.000000 0.000000
# 5 0.000000 0.000000 0.000000 0.000000 -0.098129 0.000000
# 6 0.000000 0.000000 0.000000 0.000000 0.000000 -0.092093
#
#
# Mechanical properties :
#
#
# Convention : Reuss Voigt Hill
#
# Bulk Modulus (GPa) = 88.72275 100.69473 94.70874
# Shear Modulus (GPa) = -35.63777 36.13082 0.24653
#
# Velocity S-wave (km/s) = -3.84375 3.87025 0.31969
# Velocity P-wave (km/s) = 4.13313 7.85601 6.27693
#
# Compressibility (1/GPa) = 0.01127107
#
# Stress axis : x y z
#
# Youngs Moduli (GPa) = 121.36449 234.25954 187.83438
#
# Poissons Ratio (x) = 0.08088 0.28294
# Poissons Ratio (y) = 0.04190 0.26841
# Poissons Ratio (z) = 0.18282 0.33475
#
# Static dielectric constant tensor:
#      x y z
#    x 1.741870 0.000000 0.000000 
#    y 0.000000 1.919630 0.000000 
#    z 0.000000 0.000000 2.225020 
# 
# From -- ./inp_files/69321.got.cif
#   From: 2010.05.17/outbox.cif.g08.bks.cpg/sg66_35_cif.got.tgz:69321.got - 2010.06.03 17:51:23.
