data_PCOD9498503
_publ_section_title
;
Structure prediction by ZEFSAII (Michael W. Deem and Ramdas Pophale) SiO2 
 PCOD9498503
Probable space group: C C C M
;
_chemical_formula_sum "Si O2"
_cell_formula_units_Z 112
_cell_length_a 13.343603
_cell_length_b 14.748917
_cell_length_c 29.561078
_cell_angle_alpha 90.000000
_cell_angle_beta 90.000000
_cell_angle_gamma 90.000000
_cell_volume 5817.729323
_symmetry_space_group_name_H-M "C C C M"
_symmetry_group_IT_number 66
_symmetry_cell_setting 'orthorhombic'
loop_
_space_group_symop_operation_xyz
x,y,z
-x,-y,z
x,-y,1/2-z
-x,y,1/2-z
-x,-y,-z
x,y,-z
-x,y,1/2+z
x,-y,1/2+z
1/2+x,1/2+y,z
1/2-x,1/2-y,z
1/2+x,1/2-y,1/2-z
1/2-x,1/2+y,1/2-z
1/2-x,1/2-y,-z
1/2+x,1/2+y,-z
1/2-x,1/2+y,1/2+z
1/2+x,1/2-y,1/2+z
loop_
_atom_site_type_symbol
_atom_site_label
_atom_site_fract_x
_atom_site_fract_y
_atom_site_fract_z
Si Si1 0.737398 0.655888 0.304597
Si Si2 0.598926 0.439612 0.449402
Si Si3 0.133661 0.735066 0.447458
Si Si4 0.412231 0.651963 0.720388
Si Si5 0.528369 0.844415 0.703516
Si Si6 0.798767 0.972589 0.854243
Si Si7 0.427197 0.925088 0.382742
O O1 0.750000 0.750000 0.332028
O O2 0.673763 0.669552 0.258338
O O3 0.853053 0.643702 0.294129
O O4 0.692561 0.571579 0.331519
O O5 0.500000 0.500000 0.450399
O O6 0.647381 0.447666 0.500000
O O7 0.580003 0.332249 0.443087
O O8 0.658900 0.469352 0.405096
O O9 0.132137 0.708674 0.500000
O O10 0.250000 0.750000 0.434340
O O11 0.090623 0.656957 0.416800
O O12 0.500000 0.603701 0.750000
O O13 0.470729 0.744710 0.704455
O O14 0.359584 0.597282 0.679101
O O15 0.500000 0.890218 0.750000
O O16 0.490935 0.891014 0.659201
O O17 0.680742 0.952686 0.861801
O O18 0.500000 0.000000 0.404763
#
# Coordination Sequence:
#
# PCOD9498503 Si02
#       7
#    16  16  16  16  16  16  16
#     4  12  24  44  59  92 137 183 220 277 340 401
#     4  10  23  44  72 106 135 170 220 282 350 404
#     4  10  21  42  73 103 134 169 220 284 336 396
#     4  11  25  42  67  97 130 172 234 283 337 392
#     4  11  23  41  64  88 132 178 219 276 332 393
#     4  12  26  41  68  99 133 175 224 286 333 405
#     4  12  25  42  64 101 135 180 227 269 337 414
#
# _framework density 19.251497000000001
#
# number of rings (size 3 to 8) (size 9 to 14) (size 15 to 20)
#    0.000    0.857    5.714    2.143    2.000    2.286 
#    0.000    0.000    0.000    0.429    0.000    0.000 
#    0.000    0.000    0.000    0.000    0.000    0.000 
#
# Total GULP energy -311927.388395 kJ/mol
# GULP energy per Si atom -5570.131936 kJ/mol
# Density = 1.920768 g / cm^3
# Si number density = 19.251497 Si / 1000 Ang^3
#
#
#
# Elastic Constant Matrix: (Units=GPa)
#
#
# Indices 1 2 3 4 5 6 
#
# 1 117.0112 30.6824 54.7359 0.0000 0.0000 0.0000
# 2 30.6824 109.2127 53.6082 0.0000 0.0000 0.0000
# 3 54.7359 53.6082 108.7460 0.0000 0.0000 0.0000
# 4 0.0000 0.0000 0.0000 45.9943 0.0000 0.0000
# 5 0.0000 0.0000 0.0000 0.0000 -21.4409 0.0000
# 6 0.0000 0.0000 0.0000 0.0000 0.0000 44.8971
#
#
#
# Elastic Compliance Matrix: (Units=1/GPa)
#
#
# Indices 1 2 3 4 5 6 
#
# 1 0.011199 -0.000500 -0.005390 0.000000 0.000000 0.000000
# 2 -0.000500 0.012102 -0.005714 0.000000 0.000000 0.000000
# 3 -0.005390 -0.005714 0.014726 0.000000 0.000000 0.000000
# 4 0.000000 0.000000 0.000000 0.021742 0.000000 0.000000
# 5 0.000000 0.000000 0.000000 0.000000 -0.046640 0.000000
# 6 0.000000 0.000000 0.000000 0.000000 0.000000 0.022273
#
#
# Mechanical properties :
#
#
# Convention : Reuss Voigt Hill
#
# Bulk Modulus (GPa) = 67.48868 68.11365 67.80117
# Shear Modulus (GPa) = 78.67921 26.95298 52.81610
#
# Velocity S-wave (km/s) = 6.39983 3.74578 5.24351
# Velocity P-wave (km/s) = 9.47327 7.35973 8.48258
#
# Compressibility (1/GPa) = 0.01481730
#
# Stress axis : x y z
#
# Youngs Moduli (GPa) = 89.29520 82.63257 67.90922
#
# Poissons Ratio (x) = 0.04135 0.36604
# Poissons Ratio (y) = 0.04469 0.38803
# Poissons Ratio (z) = 0.48131 0.47215
#
# Static dielectric constant tensor:
#      x y z
#    x 1.649410 0.000000 0.000000 
#    y 0.000000 1.773890 0.000000 
#    z 0.000000 0.000000 1.656850 
# 
# From -- ./inp_files/69089.got.cif
#   From: 2010.05.17/outbox.cif.g08.bks.cpg/sg66_35_cif.got.tgz:69089.got - 2010.06.03 17:51:23.
