data_PCOD9498960
_publ_section_title
;
Structure prediction by ZEFSAII (Michael W. Deem and Ramdas Pophale) SiO2 
 PCOD9498960
Probable space group: C C C M
;
_chemical_formula_sum "Si O2"
_cell_formula_units_Z 116
_cell_length_a 9.756833
_cell_length_b 21.905590
_cell_length_c 26.564657
_cell_angle_alpha 90.000000
_cell_angle_beta 90.000000
_cell_angle_gamma 90.000000
_cell_volume 5677.642448
_symmetry_space_group_name_H-M "C C C M"
_symmetry_group_IT_number 66
_symmetry_cell_setting 'orthorhombic'
loop_
_space_group_symop_operation_xyz
x,y,z
-x,-y,z
x,-y,1/2-z
-x,y,1/2-z
-x,-y,-z
x,y,-z
-x,y,1/2+z
x,-y,1/2+z
1/2+x,1/2+y,z
1/2-x,1/2-y,z
1/2+x,1/2-y,1/2-z
1/2-x,1/2+y,1/2-z
1/2-x,1/2-y,-z
1/2+x,1/2+y,-z
1/2-x,1/2+y,1/2+z
1/2+x,1/2-y,1/2+z
loop_
_atom_site_type_symbol
_atom_site_label
_atom_site_fract_x
_atom_site_fract_y
_atom_site_fract_z
Si Si1 0.656786 0.501137 0.439277
Si Si2 0.061939 0.322798 0.109736
Si Si3 0.126662 0.380841 0.216255
Si Si4 0.349180 0.309151 0.272523
Si Si5 0.197167 0.624008 0.939956
Si Si6 0.500000 0.000000 0.250000
Si Si7 0.573039 0.689964 0.386072
Si Si8 0.317344 0.634756 0.440901
O O1 0.500000 0.500000 0.420847
O O2 0.649826 0.507567 0.500000
O O3 0.736970 0.560409 0.421520
O O4 0.723350 0.435418 0.429641
O O5 0.947446 0.365920 0.085925
O O6 0.988352 0.257926 0.116299
O O7 0.114795 0.349823 0.162237
O O8 0.191889 0.321680 0.072919
O O9 0.268015 0.361680 0.242402
O O10 0.093885 0.453338 0.217689
O O11 0.000000 0.355602 0.250000
O O12 0.500000 0.297826 0.250000
O O13 0.250000 0.250000 0.269158
O O14 0.371501 0.325681 0.330812
O O15 0.301792 0.677352 0.923758
O O16 0.181879 0.623280 0.000000
O O17 0.447757 0.650054 0.406966
O O18 0.353856 0.638984 0.500000
#
# Coordination Sequence:
#
# PCOD9498960 Si02
#       8
#    16  16  16  16  16   4  16  16
#     4   9  18  39  64  86 120 175 232 274 322 382
#     4  12  25  40  63 101 136 170 222 277 341 415
#     4  10  22  47  70  96 132 179 219 273 351 411
#     4  12  24  42  71 101 132 173 225 288 345 408
#     4  11  23  39  64  95 135 181 227 277 331 399
#     4   8  24  44  78  96 138 188 206 270 376 416
#     4  12  24  40  64  96 128 178 230 271 333 406
#     4  11  24  42  64  94 137 183 226 280 338 397
#
# _framework density 20.431014999999999
#
# number of rings (size 3 to 8) (size 9 to 14) (size 15 to 20)
#    0.414    0.690    1.379    6.207    0.000    4.966 
#    0.000    2.414    0.000    0.000    0.000    0.000 
#    0.000    0.000    0.000    0.000    0.000    0.000 
#
# Total GULP energy -324029.386655 kJ/mol
# GULP energy per Si atom -5586.713563 kJ/mol
# Density = 2.038451 g / cm^3
# Si number density = 20.431015 Si / 1000 Ang^3
#
#
#
# Elastic Constant Matrix: (Units=GPa)
#
#
# Indices 1 2 3 4 5 6 
#
# 1 129.0584 39.3151 38.1665 0.0000 0.0000 0.0000
# 2 39.3151 113.9403 49.3723 0.0000 0.0000 0.0000
# 3 38.1665 49.3723 88.1872 0.0000 0.0000 0.0000
# 4 0.0000 0.0000 0.0000 36.4326 0.0000 0.0000
# 5 0.0000 0.0000 0.0000 0.0000 38.3253 0.0000
# 6 0.0000 0.0000 0.0000 0.0000 0.0000 -6.9104
#
#
#
# Elastic Compliance Matrix: (Units=1/GPa)
#
#
# Indices 1 2 3 4 5 6 
#
# 1 0.009191 -0.001911 -0.002907 0.000000 0.000000 0.000000
# 2 -0.001911 0.011985 -0.005883 0.000000 0.000000 0.000000
# 3 -0.002907 -0.005883 0.015891 0.000000 0.000000 0.000000
# 4 0.000000 0.000000 0.000000 0.027448 0.000000 0.000000
# 5 0.000000 0.000000 0.000000 0.000000 0.026092 0.000000
# 6 0.000000 0.000000 0.000000 0.000000 0.000000 -0.144710
#
#
# Mechanical properties :
#
#
# Convention : Reuss Voigt Hill
#
# Bulk Modulus (GPa) = 63.84131 64.98820 64.41476
# Shear Modulus (GPa) = -181.96474 27.19164 -77.38655
#
# Velocity S-wave (km/s) = -9.44756 3.65211 -6.16111
# Velocity P-wave (km/s) = 9.36447 7.04709 4.36073
#
# Compressibility (1/GPa) = 0.01566384
#
# Stress axis : x y z
#
# Youngs Moduli (GPa) = 108.80792 83.43675 62.92734
#
# Poissons Ratio (x) = 0.15947 0.18296
# Poissons Ratio (y) = 0.20797 0.37019
# Poissons Ratio (z) = 0.31636 0.49084
#
# Static dielectric constant tensor:
#      x y z
#    x 1.724090 0.000000 0.000000 
#    y 0.000000 1.763420 0.000000 
#    z 0.000000 0.000000 1.712830 
# 
# From -- ./inp_files/62882.got.cif
#   From: 2010.05.17/outbox.cif.g08.bks.cpg/sg66_32_cif.got.tgz:62882.got - 2010.06.03 17:51:23.
