data_PCOD9498143
_publ_section_title
;
Structure prediction by ZEFSAII (Michael W. Deem and Ramdas Pophale) SiO2 
 PCOD9498143
Probable space group: C C C M
;
_chemical_formula_sum "Si O2"
_cell_formula_units_Z 80
_cell_length_a 5.161866
_cell_length_b 23.747734
_cell_length_c 33.281271
_cell_angle_alpha 90.000000
_cell_angle_beta 90.000000
_cell_angle_gamma 90.000000
_cell_volume 4079.705420
_symmetry_space_group_name_H-M "C C C M"
_symmetry_group_IT_number 66
_symmetry_cell_setting 'orthorhombic'
loop_
_space_group_symop_operation_xyz
x,y,z
-x,-y,z
x,-y,1/2-z
-x,y,1/2-z
-x,-y,-z
x,y,-z
-x,y,1/2+z
x,-y,1/2+z
1/2+x,1/2+y,z
1/2-x,1/2-y,z
1/2+x,1/2-y,1/2-z
1/2-x,1/2+y,1/2-z
1/2-x,1/2-y,-z
1/2+x,1/2+y,-z
1/2-x,1/2+y,1/2+z
1/2+x,1/2-y,1/2+z
loop_
_atom_site_type_symbol
_atom_site_label
_atom_site_fract_x
_atom_site_fract_y
_atom_site_fract_z
Si Si1 0.253220 0.961942 0.085785
Si Si2 0.134633 0.312192 0.908857
Si Si3 0.889563 0.933489 0.500000
Si Si4 0.765820 0.321189 0.500000
Si Si5 0.246941 0.817750 0.776352
Si Si6 0.854722 0.145546 0.133433
O O1 0.231445 0.915958 0.119947
O O2 0.500000 0.000000 0.090852
O O3 0.262930 0.933296 0.041801
O O4 0.000000 0.000000 0.086806
O O5 0.250000 0.250000 0.907528
O O6 0.118067 0.329770 0.955561
O O7 0.351487 0.346114 0.882885
O O8 0.850678 0.315192 0.890061
O O9 0.056200 0.874564 0.500000
O O10 0.000000 0.000000 0.500000
O O11 0.750000 0.250000 0.500000
O O12 0.500000 0.832677 0.750000
O O13 0.250000 0.750000 0.782189
O O14 0.199920 0.843957 0.819972
O O15 0.000000 0.832446 0.750000
#
# Coordination Sequence:
#
# PCOD9498143 Si02
#       6
#    16  16   8   8  16  16
#     4  11  24  41  62  91 122 165 221 278 312 369
#     4  11  23  38  59  90 128 170 212 251 315 387
#     4  10  21  40  64  89 126 176 232 269 323 375
#     4  10  22  40  59  93 138 176 216 275 329 387
#     4  10  21  38  62  93 124 155 198 253 320 400
#     4  12  23  40  66  88 126 165 212 259 326 378
#
# _framework density 19.609256999999999
#
# number of rings (size 3 to 8) (size 9 to 14) (size 15 to 20)
#    0.000    1.200    2.000    4.500    2.800    3.200 
#    0.000    3.000    0.000    3.600    0.000    0.000 
#    0.000    0.000    0.000    0.000    0.000    0.000 
#
# Total GULP energy -222915.244838 kJ/mol
# GULP energy per Si atom -5572.881121 kJ/mol
# Density = 1.956463 g / cm^3
# Si number density = 19.609257 Si / 1000 Ang^3
#
#
#
# Elastic Constant Matrix: (Units=GPa)
#
#
# Indices 1 2 3 4 5 6 
#
# 1 103.1516 35.7174 44.2991 0.0000 0.0000 0.0000
# 2 35.7174 104.7664 41.0280 0.0000 0.0000 0.0000
# 3 44.2991 41.0280 198.9828 0.0000 0.0000 0.0000
# 4 0.0000 0.0000 0.0000 29.4931 0.0000 0.0000
# 5 0.0000 0.0000 0.0000 0.0000 16.5350 0.0000
# 6 0.0000 0.0000 0.0000 0.0000 0.0000 31.9957
#
#
#
# Elastic Compliance Matrix: (Units=1/GPa)
#
#
# Indices 1 2 3 4 5 6 
#
# 1 0.011634 -0.003211 -0.001928 0.000000 0.000000 0.000000
# 2 -0.003211 0.011270 -0.001609 0.000000 0.000000 0.000000
# 3 -0.001928 -0.001609 0.005786 0.000000 0.000000 0.000000
# 4 0.000000 0.000000 0.000000 0.033906 0.000000 0.000000
# 5 0.000000 0.000000 0.000000 0.000000 0.060478 0.000000
# 6 0.000000 0.000000 0.000000 0.000000 0.000000 0.031254
#
#
# Mechanical properties :
#
#
# Convention : Reuss Voigt Hill
#
# Bulk Modulus (GPa) = 65.81345 72.10998 68.96171
# Shear Modulus (GPa) = 28.92008 34.66186 31.79097
#
# Velocity S-wave (km/s) = 3.84450 4.20888 4.03081
# Velocity P-wave (km/s) = 7.30358 7.77643 7.54371
#
# Compressibility (1/GPa) = 0.01519446
#
# Stress axis : x y z
#
# Youngs Moduli (GPa) = 85.95160 88.73180 172.81618
#
# Poissons Ratio (x) = 0.28496 0.33319
# Poissons Ratio (y) = 0.27603 0.27802
# Poissons Ratio (z) = 0.16571 0.14275
#
# Static dielectric constant tensor:
#      x y z
#    x 1.725200 0.000000 0.000000 
#    y 0.000000 1.773240 0.000000 
#    z 0.000000 0.000000 1.836350 
# 
# From -- ./inp_files/67216.got.cif
#   From: 2010.05.17/outbox.cif.g08.bks.cpg/sg66_34_cif.got.tgz:67216.got - 2010.06.03 17:51:23.
