data_PCOD9498304
_publ_section_title
;
Structure prediction by ZEFSAII (Michael W. Deem and Ramdas Pophale) SiO2 
 PCOD9498304
Probable space group: C C C M
;
_chemical_formula_sum "Si O2"
_cell_formula_units_Z 52
_cell_length_a 11.887658
_cell_length_b 18.763505
_cell_length_c 9.647670
_cell_angle_alpha 90.000000
_cell_angle_beta 90.000000
_cell_angle_gamma 90.000000
_cell_volume 2151.952641
_symmetry_space_group_name_H-M "C C C M"
_symmetry_group_IT_number 66
_symmetry_cell_setting 'orthorhombic'
loop_
_space_group_symop_operation_xyz
x,y,z
-x,-y,z
x,-y,1/2-z
-x,y,1/2-z
-x,-y,-z
x,y,-z
-x,y,1/2+z
x,-y,1/2+z
1/2+x,1/2+y,z
1/2-x,1/2-y,z
1/2+x,1/2-y,1/2-z
1/2-x,1/2+y,1/2-z
1/2-x,1/2-y,-z
1/2+x,1/2+y,-z
1/2-x,1/2+y,1/2+z
1/2+x,1/2-y,1/2+z
loop_
_atom_site_type_symbol
_atom_site_label
_atom_site_fract_x
_atom_site_fract_y
_atom_site_fract_z
Si Si1 0.674491 0.386782 0.156978
Si Si2 0.601773 0.102861 0.658545
Si Si3 0.382051 0.732786 0.646048
Si Si4 0.000000 0.000000 0.250000
O O1 0.780656 0.403492 0.257591
O O2 0.613397 0.316516 0.219315
O O3 0.583473 0.449426 0.164330
O O4 0.713461 0.374973 0.000000
O O5 0.500000 0.073275 0.750000
O O6 0.611577 0.075492 0.500000
O O7 0.572725 0.187341 0.646006
O O8 0.413649 0.695736 0.500000
O O9 0.250000 0.750000 0.638830
#
# Coordination Sequence:
#
# PCOD9498304 Si02
#       4
#    16  16  16   4
#     4  11  24  42  65  92 126 174 227 273 325 389
#     4  10  21  39  66 100 136 169 209 269 335 395
#     4   8  17  35  59  91 130 167 205 261 325 385
#     4  12  30  48  62  90 130 180 228 282 322 380
#
# _framework density 24.164100000000001
#
# number of rings (size 3 to 8) (size 9 to 14) (size 15 to 20)
#    0.000    2.154    0.000    4.154    2.154   11.692 
#    0.000    0.769    0.000    3.692    0.000    0.000 
#    0.000    0.000    0.000    0.000    0.000    0.000 
#
# Total GULP energy -145142.045361 kJ/mol
# GULP energy per Si atom -5582.386360 kJ/mol
# Density = 2.410910 g / cm^3
# Si number density = 24.164100 Si / 1000 Ang^3
#
#
#
# Elastic Constant Matrix: (Units=GPa)
#
#
# Indices 1 2 3 4 5 6 
#
# 1 112.8982 3.9187 82.2886 0.0000 0.0000 0.0000
# 2 3.9187 103.7841 39.1036 0.0000 0.0000 0.0000
# 3 82.2886 39.1036 240.3180 0.0000 0.0000 0.0000
# 4 0.0000 0.0000 0.0000 -3.8370 0.0000 0.0000
# 5 0.0000 0.0000 0.0000 0.0000 16.7548 0.0000
# 6 0.0000 0.0000 0.0000 0.0000 0.0000 21.3124
#
#
#
# Elastic Compliance Matrix: (Units=1/GPa)
#
#
# Indices 1 2 3 4 5 6 
#
# 1 0.011933 0.001160 -0.004275 0.000000 0.000000 0.000000
# 2 0.001160 0.010377 -0.002086 0.000000 0.000000 0.000000
# 3 -0.004275 -0.002086 0.005964 0.000000 0.000000 0.000000
# 4 0.000000 0.000000 0.000000 -0.260617 0.000000 0.000000
# 5 0.000000 0.000000 0.000000 0.000000 0.059685 0.000000
# 6 0.000000 0.000000 0.000000 0.000000 0.000000 0.046921
#
#
# Mechanical properties :
#
#
# Convention : Reuss Voigt Hill
#
# Bulk Modulus (GPa) = 55.94793 78.62467 67.28630
# Shear Modulus (GPa) = -45.71301 28.95865 -8.37718
#
# Velocity S-wave (km/s) = -4.35417 3.46557 -1.86395
# Velocity P-wave (km/s) = 1.44042 6.97295 4.82427
#
# Compressibility (1/GPa) = 0.01787376
#
# Stress axis : x y z
#
# Youngs Moduli (GPa) = 83.80061 96.36253 167.66371
#
# Poissons Ratio (x) = -0.11179 0.71674
# Poissons Ratio (y) = -0.09722 0.34972
# Poissons Ratio (z) = 0.35823 0.20099
#
# Static dielectric constant tensor:
#      x y z
#    x 2.045350 0.000000 0.000000 
#    y 0.000000 1.965760 0.000000 
#    z 0.000000 0.000000 2.065690 
# 
# From -- ./inp_files/4938.got.cif
#   From: 2010.05.17/outbox.cif.g08.bks.cpg/sg66_3_cif.got.tgz:4938.got - 2010.06.03 17:51:23.
