data_PCOD9498060
_publ_section_title
;
Structure prediction by ZEFSAII (Michael W. Deem and Ramdas Pophale) SiO2 
 PCOD9498060
Probable space group: C C C M
;
_chemical_formula_sum "Si O2"
_cell_formula_units_Z 96
_cell_length_a 24.596489
_cell_length_b 23.214168
_cell_length_c 8.770082
_cell_angle_alpha 90.000000
_cell_angle_beta 90.000000
_cell_angle_gamma 90.000000
_cell_volume 5007.603055
_symmetry_space_group_name_H-M "C C C M"
_symmetry_group_IT_number 66
_symmetry_cell_setting 'orthorhombic'
loop_
_space_group_symop_operation_xyz
x,y,z
-x,-y,z
x,-y,1/2-z
-x,y,1/2-z
-x,-y,-z
x,y,-z
-x,y,1/2+z
x,-y,1/2+z
1/2+x,1/2+y,z
1/2-x,1/2-y,z
1/2+x,1/2-y,1/2-z
1/2-x,1/2+y,1/2-z
1/2-x,1/2-y,-z
1/2+x,1/2+y,-z
1/2-x,1/2+y,1/2+z
1/2+x,1/2-y,1/2+z
loop_
_atom_site_type_symbol
_atom_site_label
_atom_site_fract_x
_atom_site_fract_y
_atom_site_fract_z
Si Si1 0.557512 0.173438 0.681725
Si Si2 0.942217 0.935671 0.183844
Si Si3 0.660979 0.763300 0.316965
Si Si4 0.774842 0.376158 0.181756
Si Si5 0.335214 0.363438 0.818323
Si Si6 0.889056 0.437229 0.817749
O O1 0.500000 0.191199 0.750000
O O2 0.557023 0.175508 0.500000
O O3 0.604956 0.213218 0.748172
O O4 0.571982 0.109379 0.739734
O O5 0.890382 0.896626 0.226656
O O6 0.000000 0.914088 0.250000
O O7 0.934660 0.000000 0.250000
O O8 0.945624 0.938351 0.000000
O O9 0.658663 0.763696 0.500000
O O10 0.706210 0.811192 0.273644
O O11 0.668724 0.699193 0.257886
O O12 0.720276 0.394460 0.266651
O O13 0.827192 0.415921 0.212645
O O14 0.765070 0.376187 0.000000
O O15 0.335950 0.357302 0.000000
O O16 0.897620 0.500000 0.750000
O O17 0.897055 0.436063 0.000000
#
# Coordination Sequence:
#
# PCOD9498060 Si02
#       6
#    16  16  16  16  16  16
#     4  11  22  38  59  83 113 149 189 234 284 334
#     4  10  22  40  60  82 109 142 180 224 275 327
#     4  10  21  38  58  82 114 150 187 230 280 331
#     4   9  20  37  56  80 113 150 186 228 279 330
#     4  11  23  36  56  87 115 144 186 229 274 335
#     4  10  21  38  58  83 114 149 191 236 283 334
#
# _framework density 19.170847999999999
#
# number of rings (size 3 to 8) (size 9 to 14) (size 15 to 20)
#    0.000    1.833    0.000    5.500    0.000   10.333 
#    0.000    6.667    0.000    0.000    0.000    0.000 
#    0.000    0.000    0.000    0.000    0.000    0.000 
#
# Total GULP energy -268194.968121 kJ/mol
# GULP energy per Si atom -5587.395169 kJ/mol
# Density = 1.912721 g / cm^3
# Si number density = 19.170848 Si / 1000 Ang^3
#
#
#
# Elastic Constant Matrix: (Units=GPa)
#
#
# Indices 1 2 3 4 5 6 
#
# 1 126.3451 1.4144 36.5439 0.0000 0.0000 0.0000
# 2 1.4144 13.8618 -0.3680 0.0000 0.0000 0.0000
# 3 36.5439 -0.3680 46.8586 0.0000 0.0000 0.0000
# 4 0.0000 0.0000 0.0000 123.7566 0.0000 0.0000
# 5 0.0000 0.0000 0.0000 0.0000 33.4098 0.0000
# 6 0.0000 0.0000 0.0000 0.0000 0.0000 10.5880
#
#
#
# Elastic Compliance Matrix: (Units=1/GPa)
#
#
# Indices 1 2 3 4 5 6 
#
# 1 0.010242 -0.001257 -0.007997 0.000000 0.000000 0.000000
# 2 -0.001257 0.072310 0.001548 0.000000 0.000000 0.000000
# 3 -0.007997 0.001548 0.027590 0.000000 0.000000 0.000000
# 4 0.000000 0.000000 0.000000 0.008080 0.000000 0.000000
# 5 0.000000 0.000000 0.000000 0.000000 0.029931 0.000000
# 6 0.000000 0.000000 0.000000 0.000000 0.000000 0.094446
#
#
# Mechanical properties :
#
#
# Convention : Reuss Voigt Hill
#
# Bulk Modulus (GPa) = 10.55636 29.13847 19.84741
# Shear Modulus (GPa) = 17.26580 43.51589 30.39084
#
# Velocity S-wave (km/s) = 3.00430 4.76951 3.98586
# Velocity P-wave (km/s) = 4.18961 6.75007 5.61766
#
# Compressibility (1/GPa) = 0.09472960
#
# Stress axis : x y z
#
# Youngs Moduli (GPa) = 97.63653 13.82928 36.24513
#
# Poissons Ratio (x) = 0.01739 0.28987
# Poissons Ratio (y) = 0.12277 -0.05612
# Poissons Ratio (z) = 0.78084 -0.02141
#
# Static dielectric constant tensor:
#      x y z
#    x 1.637770 0.000000 0.000000 
#    y 0.000000 1.720040 0.000000 
#    z 0.000000 0.000000 1.635980 
# 
# From -- ./inp_files/9101.got.cif
#   From: 2010.05.17/outbox.cif.g08.bks.cpg/sg66_5_cif.got.tgz:9101.got - 2010.06.03 17:51:23.
