data_PCOD9498379
_publ_section_title
;
Structure prediction by ZEFSAII (Michael W. Deem and Ramdas Pophale) SiO2 
 PCOD9498379
Probable space group: C C C M
;
_chemical_formula_sum "Si O2"
_cell_formula_units_Z 52
_cell_length_a 5.376673
_cell_length_b 33.806204
_cell_length_c 14.328952
_cell_angle_alpha 90.000000
_cell_angle_beta 90.000000
_cell_angle_gamma 90.000000
_cell_volume 2604.500589
_symmetry_space_group_name_H-M "C C C M"
_symmetry_group_IT_number 66
_symmetry_cell_setting 'orthorhombic'
loop_
_space_group_symop_operation_xyz
x,y,z
-x,-y,z
x,-y,1/2-z
-x,y,1/2-z
-x,-y,-z
x,y,-z
-x,y,1/2+z
x,-y,1/2+z
1/2+x,1/2+y,z
1/2-x,1/2-y,z
1/2+x,1/2-y,1/2-z
1/2-x,1/2+y,1/2-z
1/2-x,1/2-y,-z
1/2+x,1/2+y,-z
1/2-x,1/2+y,1/2+z
1/2+x,1/2-y,1/2+z
loop_
_atom_site_type_symbol
_atom_site_label
_atom_site_fract_x
_atom_site_fract_y
_atom_site_fract_z
Si Si1 0.500000 0.000000 0.250000
Si Si2 0.149946 0.958991 0.105478
Si Si3 0.499676 0.774113 0.111415
Si Si4 0.000000 0.102732 0.250000
Si Si5 0.000000 0.345584 0.750000
O O1 0.641191 0.029260 0.179788
O O2 0.997101 0.924888 0.157585
O O3 0.229501 0.948422 0.000000
O O4 0.000000 0.000000 0.099204
O O5 0.750000 0.750000 0.135969
O O6 0.502895 0.816039 0.162032
O O7 0.250000 0.750000 0.137549
O O8 0.496848 0.779102 0.000000
O O9 0.749841 0.128530 0.247617
#
# Coordination Sequence:
#
# PCOD9498379 Si02
#       5
#     4  16  16   8   8
#     4  12  18  44  68  96 122 158 234 292 324 400
#     4  11  24  42  67  92 125 176 227 281 334 391
#     4  10  21  40  66  93 123 165 219 266 311 387
#     4  12  25  43  60  96 138 170 213 275 328 409
#     4  12  25  39  65  92 135 172 205 266 337 389
#
# _framework density 19.965440000000001
#
# number of rings (size 3 to 8) (size 9 to 14) (size 15 to 20)
#    0.000    0.923    3.077    4.154    0.000    2.462 
#    0.000    0.000    0.000    0.000    0.000    0.000 
#    0.000    0.000    0.000    0.000    0.000    0.000 
#
# Total GULP energy -145254.804983 kJ/mol
# GULP energy per Si atom -5586.723269 kJ/mol
# Density = 1.992000 g / cm^3
# Si number density = 19.965440 Si / 1000 Ang^3
#
#
#
# Elastic Constant Matrix: (Units=GPa)
#
#
# Indices 1 2 3 4 5 6 
#
# 1 153.6110 79.0771 58.9059 0.0000 0.0000 0.0000
# 2 79.0771 142.0106 62.9479 0.0000 0.0000 0.0000
# 3 58.9059 62.9479 175.2937 0.0000 0.0000 0.0000
# 4 0.0000 0.0000 0.0000 -182.7766 0.0000 0.0000
# 5 0.0000 0.0000 0.0000 0.0000 42.6283 0.0000
# 6 0.0000 0.0000 0.0000 0.0000 0.0000 46.3082
#
#
#
# Elastic Compliance Matrix: (Units=1/GPa)
#
#
# Indices 1 2 3 4 5 6 
#
# 1 0.009459 -0.004589 -0.001531 0.000000 0.000000 0.000000
# 2 -0.004589 0.010601 -0.002265 0.000000 0.000000 0.000000
# 3 -0.001531 -0.002265 0.007032 0.000000 0.000000 0.000000
# 4 0.000000 0.000000 0.000000 -0.005471 0.000000 0.000000
# 5 0.000000 0.000000 0.000000 0.000000 0.023459 0.000000
# 6 0.000000 0.000000 0.000000 0.000000 0.000000 0.021594
#
#
# Mechanical properties :
#
#
# Convention : Reuss Voigt Hill
#
# Bulk Modulus (GPa) = 96.86387 96.97523 96.91955
# Shear Modulus (GPa) = 57.54791 -0.76905 28.38943
#
# Velocity S-wave (km/s) = 5.37460 -0.62131 3.77494
# Velocity P-wave (km/s) = 9.33468 6.93991 8.22492
#
# Compressibility (1/GPa) = 0.01032377
#
# Stress axis : x y z
#
# Youngs Moduli (GPa) = 105.71717 94.33283 142.19849
#
# Poissons Ratio (x) = 0.43286 0.21769
# Poissons Ratio (y) = 0.48510 0.32204
# Poissons Ratio (z) = 0.16184 0.21364
#
# Static dielectric constant tensor:
#      x y z
#    x 1.748610 0.000000 0.000000 
#    y 0.000000 1.699470 0.000000 
#    z 0.000000 0.000000 1.730240 
# 
# From -- ./inp_files/34959.got.cif
#   From: 2010.05.17/outbox.cif.g08.bks.cpg/sg66_18_cif.got.tgz:34959.got - 2010.06.03 17:51:23.
