data_PCOD9498428
_publ_section_title
;
Structure prediction by ZEFSAII (Michael W. Deem and Ramdas Pophale) SiO2 
 PCOD9498428
Probable space group: C C C M
;
_chemical_formula_sum "Si O2"
_cell_formula_units_Z 68
_cell_length_a 7.462815
_cell_length_b 24.656503
_cell_length_c 18.740142
_cell_angle_alpha 90.000000
_cell_angle_beta 90.000000
_cell_angle_gamma 90.000000
_cell_volume 3448.315818
_symmetry_space_group_name_H-M "C C C M"
_symmetry_group_IT_number 66
_symmetry_cell_setting 'orthorhombic'
loop_
_space_group_symop_operation_xyz
x,y,z
-x,-y,z
x,-y,1/2-z
-x,y,1/2-z
-x,-y,-z
x,y,-z
-x,y,1/2+z
x,-y,1/2+z
1/2+x,1/2+y,z
1/2-x,1/2-y,z
1/2+x,1/2-y,1/2-z
1/2-x,1/2+y,1/2-z
1/2-x,1/2-y,-z
1/2+x,1/2+y,-z
1/2-x,1/2+y,1/2+z
1/2+x,1/2-y,1/2+z
loop_
_atom_site_type_symbol
_atom_site_label
_atom_site_fract_x
_atom_site_fract_y
_atom_site_fract_z
Si Si1 0.945192 0.437449 0.420557
Si Si2 0.805902 0.188294 0.714872
Si Si3 0.000000 0.000000 0.250000
Si Si4 0.739185 0.594857 0.321033
Si Si5 0.097641 0.125407 0.083857
O O1 0.981465 0.414078 0.500000
O O2 0.735388 0.425364 0.407173
O O3 0.000000 0.500000 0.423227
O O4 0.075366 0.414441 0.361095
O O5 0.750000 0.250000 0.724826
O O6 0.720124 0.139070 0.759683
O O7 0.812277 0.172226 0.631837
O O8 0.000000 0.185815 0.750000
O O9 0.137143 0.041528 0.290117
O O10 0.593661 0.615272 0.379547
O O11 0.081272 0.136710 0.000000
#
# Coordination Sequence:
#
# PCOD9498428 Si02
#       5
#    16  16   4  16  16
#     4  10  22  37  59  92 123 159 200 239 301 366
#     4  10  23  41  61  88 118 157 205 250 305 364
#     4  12  20  40  60  92 124 154 210 242 302 368
#     4  11  22  40  61  89 123 161 200 254 299 365
#     4  10  21  41  62  87 119 158 203 248 303 358
#
# _framework density 19.719771999999999
#
# number of rings (size 3 to 8) (size 9 to 14) (size 15 to 20)
#    0.000    1.647    3.529    2.118    3.294    0.471 
#    0.000    4.706    0.000    3.529    0.000    0.000 
#    0.000    0.000    0.000    0.000    0.000    0.000 
#
# Total GULP energy -189445.335191 kJ/mol
# GULP energy per Si atom -5571.921623 kJ/mol
# Density = 1.967489 g / cm^3
# Si number density = 19.719772 Si / 1000 Ang^3
#
#
#
# Elastic Constant Matrix: (Units=GPa)
#
#
# Indices 1 2 3 4 5 6 
#
# 1 57.4269 5.0240 32.1712 0.0000 0.0000 0.0000
# 2 5.0240 87.6195 57.0023 0.0000 0.0000 0.0000
# 3 32.1712 57.0023 149.5359 0.0000 0.0000 0.0000
# 4 0.0000 0.0000 0.0000 12.9579 0.0000 0.0000
# 5 0.0000 0.0000 0.0000 0.0000 49.2387 0.0000
# 6 0.0000 0.0000 0.0000 0.0000 0.0000 22.2608
#
#
#
# Elastic Compliance Matrix: (Units=1/GPa)
#
#
# Indices 1 2 3 4 5 6 
#
# 1 0.020117 0.002210 -0.005170 0.000000 0.000000 0.000000
# 2 0.002210 0.015420 -0.006353 0.000000 0.000000 0.000000
# 3 -0.005170 -0.006353 0.010222 0.000000 0.000000 0.000000
# 4 0.000000 0.000000 0.000000 0.077173 0.000000 0.000000
# 5 0.000000 0.000000 0.000000 0.000000 0.020309 0.000000
# 6 0.000000 0.000000 0.000000 0.000000 0.000000 0.044922
#
#
# Mechanical properties :
#
#
# Convention : Reuss Voigt Hill
#
# Bulk Modulus (GPa) = 36.85870 53.66417 45.26144
# Shear Modulus (GPa) = 23.16606 30.25046 26.70826
#
# Velocity S-wave (km/s) = 3.43120 3.92090 3.68420
# Velocity P-wave (km/s) = 5.86765 6.91161 6.41092
#
# Compressibility (1/GPa) = 0.02713064
#
# Stress axis : x y z
#
# Youngs Moduli (GPa) = 49.71015 64.85285 97.83215
#
# Poissons Ratio (x) = -0.14334 0.50583
# Poissons Ratio (y) = -0.10987 0.62156
# Poissons Ratio (z) = 0.25702 0.41203
#
# Static dielectric constant tensor:
#      x y z
#    x 1.700740 0.000000 0.000000 
#    y 0.000000 1.507110 0.000000 
#    z 0.000000 0.000000 1.731820 
# 
# From -- ./inp_files/36486.got.cif
#   From: 2010.05.17/outbox.cif.g08.bks.cpg/sg66_19_cif.got.tgz:36486.got - 2010.06.03 17:51:23.
