data_PCOD9498752
_publ_section_title
;
Structure prediction by ZEFSAII (Michael W. Deem and Ramdas Pophale) SiO2 
 PCOD9498752
Probable space group: C C C M
;
_chemical_formula_sum "Si O2"
_cell_formula_units_Z 64
_cell_length_a 8.236911
_cell_length_b 11.199641
_cell_length_c 30.520909
_cell_angle_alpha 90.000000
_cell_angle_beta 90.000000
_cell_angle_gamma 90.000000
_cell_volume 2815.567472
_symmetry_space_group_name_H-M "C C C M"
_symmetry_group_IT_number 66
_symmetry_cell_setting 'orthorhombic'
loop_
_space_group_symop_operation_xyz
x,y,z
-x,-y,z
x,-y,1/2-z
-x,y,1/2-z
-x,-y,-z
x,y,-z
-x,y,1/2+z
x,-y,1/2+z
1/2+x,1/2+y,z
1/2-x,1/2-y,z
1/2+x,1/2-y,1/2-z
1/2-x,1/2+y,1/2-z
1/2-x,1/2-y,-z
1/2+x,1/2+y,-z
1/2-x,1/2+y,1/2+z
1/2+x,1/2-y,1/2+z
loop_
_atom_site_type_symbol
_atom_site_label
_atom_site_fract_x
_atom_site_fract_y
_atom_site_fract_z
Si Si1 0.924129 0.123247 0.328754
Si Si2 0.037896 0.874812 0.925597
Si Si3 0.446707 0.874483 0.699576
Si Si4 0.105636 0.616178 0.050911
O O1 0.745387 0.127942 0.308701
O O2 0.012216 0.247983 0.317759
O O3 0.932896 0.119085 0.381334
O O4 0.000000 0.000000 0.312190
O O5 0.012657 0.742794 0.945185
O O6 0.233224 0.880077 0.919569
O O7 0.000000 0.000000 0.949641
O O8 0.500000 0.877591 0.750000
O O9 0.500000 0.000000 0.678583
O O10 0.000000 0.500000 0.060908
O O11 0.159824 0.607508 0.000000
#
# Coordination Sequence:
#
# PCOD9498752 Si02
#       4
#    16  16  16  16
#     4  10  24  42  64  95 126 163 210 259 314 373
#     4  10  22  40  64  94 128 165 208 259 311 368
#     4  10  24  44  66  92 124 165 210 258 314 375
#     4  10  23  42  65  94 128 167 210 256 309 370
#
# _framework density 22.730765000000002
#
# number of rings (size 3 to 8) (size 9 to 14) (size 15 to 20)
#    0.000    2.000    0.000    1.500    0.000   29.500 
#    0.000    2.500    0.000    0.000    0.000    0.000 
#    0.000    0.000    0.000    0.000    0.000    0.000 
#
# Total GULP energy -178416.860377 kJ/mol
# GULP energy per Si atom -5575.526887 kJ/mol
# Density = 2.267903 g / cm^3
# Si number density = 22.730765 Si / 1000 Ang^3
#
#
#
# Elastic Constant Matrix: (Units=GPa)
#
#
# Indices 1 2 3 4 5 6 
#
# 1 74.6671 47.6230 32.2972 0.0000 0.0000 0.0000
# 2 47.6230 289.3478 14.4001 0.0000 0.0000 0.0000
# 3 32.2972 14.4001 81.0793 0.0000 0.0000 0.0000
# 4 0.0000 0.0000 0.0000 -10.2400 0.0000 0.0000
# 5 0.0000 0.0000 0.0000 0.0000 -36.5717 0.0000
# 6 0.0000 0.0000 0.0000 0.0000 0.0000 42.9866
#
#
#
# Elastic Compliance Matrix: (Units=1/GPa)
#
#
# Indices 1 2 3 4 5 6 
#
# 1 0.017958 -0.002623 -0.006688 0.000000 0.000000 0.000000
# 2 -0.002623 0.003870 0.000357 0.000000 0.000000 0.000000
# 3 -0.006688 0.000357 0.014934 0.000000 0.000000 0.000000
# 4 0.000000 0.000000 0.000000 -0.097657 0.000000 0.000000
# 5 0.000000 0.000000 0.000000 0.000000 -0.027344 0.000000
# 6 0.000000 0.000000 0.000000 0.000000 0.000000 0.023263
#
#
# Mechanical properties :
#
#
# Convention : Reuss Voigt Hill
#
# Bulk Modulus (GPa) = 53.03296 70.41499 61.72397
# Shear Modulus (GPa) = -122.60024 22.61992 -49.99016
#
# Velocity S-wave (km/s) = -7.35207 3.15798 -4.69468
# Velocity P-wave (km/s) = 6.97775 6.65899 1.47424
#
# Compressibility (1/GPa) = 0.01885620
#
# Stress axis : x y z
#
# Youngs Moduli (GPa) = 55.68409 258.40100 66.96081
#
# Poissons Ratio (x) = 0.67776 0.44782
# Poissons Ratio (y) = 0.14605 -0.02394
# Poissons Ratio (z) = 0.37240 -0.09237
#
# Static dielectric constant tensor:
#      x y z
#    x 1.829330 0.000000 0.000000 
#    y 0.000000 1.958940 0.000000 
#    z 0.000000 0.000000 1.932260 
# 
# From -- ./inp_files/67896.got.cif
#   From: 2010.05.17/outbox.cif.g08.bks.cpg/sg66_34_cif.got.tgz:67896.got - 2010.06.03 17:51:23.
