data_PCOD9498181
_publ_section_title
;
Structure prediction by ZEFSAII (Michael W. Deem and Ramdas Pophale) SiO2 
 PCOD9498181
Probable space group: C C C M
;
_chemical_formula_sum "Si O2"
_cell_formula_units_Z 116
_cell_length_a 27.776982
_cell_length_b 12.080761
_cell_length_c 17.711309
_cell_angle_alpha 90.000000
_cell_angle_beta 90.000000
_cell_angle_gamma 90.000000
_cell_volume 5943.332259
_symmetry_space_group_name_H-M "C C C M"
_symmetry_group_IT_number 66
_symmetry_cell_setting 'orthorhombic'
loop_
_space_group_symop_operation_xyz
x,y,z
-x,-y,z
x,-y,1/2-z
-x,y,1/2-z
-x,-y,-z
x,y,-z
-x,y,1/2+z
x,-y,1/2+z
1/2+x,1/2+y,z
1/2-x,1/2-y,z
1/2+x,1/2-y,1/2-z
1/2-x,1/2+y,1/2-z
1/2-x,1/2-y,-z
1/2+x,1/2+y,-z
1/2-x,1/2+y,1/2+z
1/2+x,1/2-y,1/2+z
loop_
_atom_site_type_symbol
_atom_site_label
_atom_site_fract_x
_atom_site_fract_y
_atom_site_fract_z
Si Si1 0.605047 0.117242 0.206293
Si Si2 0.667727 0.695622 0.882299
Si Si3 0.944665 0.971731 0.085482
Si Si4 0.933040 0.750996 0.156104
Si Si5 0.522692 0.122586 0.085471
Si Si6 0.750000 0.750000 0.000000
Si Si7 0.651040 0.564538 0.585724
Si Si8 0.693325 0.729607 0.707494
O O1 0.577362 0.200976 0.262603
O O2 0.571669 0.114174 0.132823
O O3 0.658295 0.165345 0.192006
O O4 0.606927 0.000000 0.250000
O O5 0.617479 0.763333 0.889009
O O6 0.661512 0.566776 0.905628
O O7 0.682257 0.697584 0.794207
O O8 0.708165 0.746762 0.934341
O O9 0.937523 0.882738 0.151028
O O10 0.906928 0.070850 0.095407
O O11 0.934085 0.926348 0.000000
O O12 0.000000 0.000000 0.085485
O O13 0.981020 0.698846 0.121558
O O14 0.500000 0.000000 0.084920
O O15 0.531814 0.159648 0.000000
O O16 0.663790 0.597852 0.500000
O O17 0.677114 0.634978 0.649133
O O18 0.750000 0.750000 0.699080
#
# Coordination Sequence:
#
# PCOD9498181 Si02
#       8
#    16  16  16  16  16   4  16  16
#     4  11  24  44  65  91 128 173 220 268 325 400
#     4  10  22  41  67 100 125 165 220 282 337 389
#     4   9  19  36  61  96 128 164 209 259 315 381
#     4  10  21  38  66  92 130 166 207 266 327 388
#     4  11  23  39  64  93 128 173 214 266 326 389
#     4  12  20  40  76 100 128 160 232 292 336 378
#     4  10  21  40  66  92 134 173 209 266 331 394
#     4  11  25  44  66  92 132 175 221 274 337 399
#
# _framework density 19.517671
#
# number of rings (size 3 to 8) (size 9 to 14) (size 15 to 20)
#    0.000    1.655    2.759    1.241    3.862    1.931 
#    0.000    0.000    0.000    0.000    0.000    0.000 
#    0.000    0.000    0.000    0.000    0.000    0.000 
#
# Total GULP energy -323080.501133 kJ/mol
# GULP energy per Si atom -5570.353468 kJ/mol
# Density = 1.947325 g / cm^3
# Si number density = 19.517671 Si / 1000 Ang^3
#
#
#
# Elastic Constant Matrix: (Units=GPa)
#
#
# Indices 1 2 3 4 5 6 
#
# 1 158.0102 17.7326 58.8331 0.0000 0.0000 0.0000
# 2 17.7326 30.5138 21.2295 0.0000 0.0000 0.0000
# 3 58.8331 21.2295 101.2876 0.0000 0.0000 0.0000
# 4 0.0000 0.0000 0.0000 31.1766 0.0000 0.0000
# 5 0.0000 0.0000 0.0000 0.0000 14.4124 0.0000
# 6 0.0000 0.0000 0.0000 0.0000 0.0000 19.0603
#
#
#
# Elastic Compliance Matrix: (Units=1/GPa)
#
#
# Indices 1 2 3 4 5 6 
#
# 1 0.008149 -0.001689 -0.004379 0.000000 0.000000 0.000000
# 2 -0.001689 0.038717 -0.007134 0.000000 0.000000 0.000000
# 3 -0.004379 -0.007134 0.013912 0.000000 0.000000 0.000000
# 4 0.000000 0.000000 0.000000 0.032075 0.000000 0.000000
# 5 0.000000 0.000000 0.000000 0.000000 0.069385 0.000000
# 6 0.000000 0.000000 0.000000 0.000000 0.000000 0.052465
#
#
# Mechanical properties :
#
#
# Convention : Reuss Voigt Hill
#
# Bulk Modulus (GPa) = 29.09226 53.93355 41.51291
# Shear Modulus (GPa) = 19.79693 25.73096 22.76395
#
# Velocity S-wave (km/s) = 3.18828 3.63484 3.41885
# Velocity P-wave (km/s) = 5.33774 6.73121 6.07456
#
# Compressibility (1/GPa) = 0.03437341
#
# Stress axis : x y z
#
# Youngs Moduli (GPa) = 122.71755 25.82860 71.88113
#
# Poissons Ratio (x) = 0.04362 0.31479
# Poissons Ratio (y) = 0.20723 0.51280
# Poissons Ratio (z) = 0.53742 0.18426
#
# Static dielectric constant tensor:
#      x y z
#    x 1.706600 0.000000 0.000000 
#    y 0.000000 1.700530 0.000000 
#    z 0.000000 0.000000 1.680800 
# 
# From -- ./inp_files/44353.got.cif
#   From: 2010.05.17/outbox.cif.g08.bks.cpg/sg66_23_cif.got.tgz:44353.got - 2010.06.03 17:51:23.
