data_PCOD9498533
_publ_section_title
;
Structure prediction by ZEFSAII (Michael W. Deem and Ramdas Pophale) SiO2 
 PCOD9498533
Probable space group: C C C M
;
_chemical_formula_sum "Si O2"
_cell_formula_units_Z 52
_cell_length_a 16.684207
_cell_length_b 10.207146
_cell_length_c 13.509282
_cell_angle_alpha 90.000000
_cell_angle_beta 90.000000
_cell_angle_gamma 90.000000
_cell_volume 2300.605553
_symmetry_space_group_name_H-M "C C C M"
_symmetry_group_IT_number 66
_symmetry_cell_setting 'orthorhombic'
loop_
_space_group_symop_operation_xyz
x,y,z
-x,-y,z
x,-y,1/2-z
-x,y,1/2-z
-x,-y,-z
x,y,-z
-x,y,1/2+z
x,-y,1/2+z
1/2+x,1/2+y,z
1/2-x,1/2-y,z
1/2+x,1/2-y,1/2-z
1/2-x,1/2+y,1/2-z
1/2-x,1/2-y,-z
1/2+x,1/2+y,-z
1/2-x,1/2+y,1/2+z
1/2+x,1/2-y,1/2+z
loop_
_atom_site_type_symbol
_atom_site_label
_atom_site_fract_x
_atom_site_fract_y
_atom_site_fract_z
Si Si1 0.790788 0.470426 0.000000
Si Si2 0.121490 0.396723 0.162445
Si Si3 0.500000 0.000000 0.000000
Si Si4 0.407224 0.641287 0.778103
Si Si5 0.368658 0.703799 0.000000
O O1 0.802888 0.557718 0.903705
O O2 0.715115 0.376274 0.000000
O O3 0.864572 0.363597 0.000000
O O4 0.110496 0.500000 0.250000
O O5 0.131750 0.257509 0.214975
O O6 0.046805 0.411379 0.087380
O O7 0.372397 0.500000 0.750000
O O8 0.500000 0.642246 0.750000
O O9 0.404666 0.665139 0.895315
#
# Coordination Sequence:
#
# PCOD9498533 Si02
#       5
#     8  16   4  16   8
#     4  10  24  42  70  99 141 188 236 304 362 426
#     4  11  21  39  67 100 132 184 243 295 349 420
#     4  10  22  32  64 106 138 168 238 320 342 392
#     4  11  26  44  70 104 147 196 234 301 374 438
#     4  11  24  48  65 103 150 187 229 304 370 434
#
# _framework density 22.602744000000001
#
# number of rings (size 3 to 8) (size 9 to 14) (size 15 to 20)
#    0.000    1.231    3.077    2.308    4.308    7.385 
#    0.000    1.538    0.000    0.000    0.000    0.000 
#    0.000    0.000    0.000    0.000    0.000    0.000 
#
# Total GULP energy -144927.356467 kJ/mol
# GULP energy per Si atom -5574.129095 kJ/mol
# Density = 2.255130 g / cm^3
# Si number density = 22.602744 Si / 1000 Ang^3
#
#
#
# Elastic Constant Matrix: (Units=GPa)
#
#
# Indices 1 2 3 4 5 6 
#
# 1 32.8132 20.4479 42.1009 0.0000 0.0000 0.0000
# 2 20.4479 210.5063 106.2992 0.0000 0.0000 0.0000
# 3 42.1009 106.2992 249.4769 0.0000 0.0000 0.0000
# 4 0.0000 0.0000 0.0000 -213.2152 0.0000 0.0000
# 5 0.0000 0.0000 0.0000 0.0000 34.1554 0.0000
# 6 0.0000 0.0000 0.0000 0.0000 0.0000 21.4789
#
#
#
# Elastic Compliance Matrix: (Units=1/GPa)
#
#
# Indices 1 2 3 4 5 6 
#
# 1 0.038956 -0.000592 -0.006322 0.000000 0.000000 0.000000
# 2 -0.000592 0.006062 -0.002483 0.000000 0.000000 0.000000
# 3 -0.006322 -0.002483 0.006133 0.000000 0.000000 0.000000
# 4 0.000000 0.000000 0.000000 -0.004690 0.000000 0.000000
# 5 0.000000 0.000000 0.000000 0.000000 0.029278 0.000000
# 6 0.000000 0.000000 0.000000 0.000000 0.000000 0.046557
#
#
# Mechanical properties :
#
#
# Convention : Reuss Voigt Hill
#
# Bulk Modulus (GPa) = 30.90478 92.27693 61.59085
# Shear Modulus (GPa) = 32.92187 -9.91963 11.50112
#
# Velocity S-wave (km/s) = 3.82061 -2.09719 2.25819
# Velocity P-wave (km/s) = 5.75894 5.92029 5.84018
#
# Compressibility (1/GPa) = 0.03235745
#
# Stress axis : x y z
#
# Youngs Moduli (GPa) = 25.67026 164.96853 163.04613
#
# Poissons Ratio (x) = 0.09760 1.03077
# Poissons Ratio (y) = 0.01519 0.40484
# Poissons Ratio (z) = 0.16229 0.40962
#
# Static dielectric constant tensor:
#      x y z
#    x 2.257280 0.000000 0.000000 
#    y 0.000000 1.901470 0.000000 
#    z 0.000000 0.000000 1.814270 
# 
# From -- ./inp_files/30803.got.cif
#   From: 2010.05.17/outbox.cif.g08.bks.cpg/sg66_16_cif.got.tgz:30803.got - 2010.06.03 17:51:23.
