data_PCOD9498529
_publ_section_title
;
Structure prediction by ZEFSAII (Michael W. Deem and Ramdas Pophale) SiO2 
 PCOD9498529
Probable space group: C C C M
;
_chemical_formula_sum "Si O2"
_cell_formula_units_Z 36
_cell_length_a 12.463863
_cell_length_b 7.102414
_cell_length_c 15.208043
_cell_angle_alpha 90.000000
_cell_angle_beta 90.000000
_cell_angle_gamma 90.000000
_cell_volume 1346.269424
_symmetry_space_group_name_H-M "C C C M"
_symmetry_group_IT_number 66
_symmetry_cell_setting 'orthorhombic'
loop_
_space_group_symop_operation_xyz
x,y,z
-x,-y,z
x,-y,1/2-z
-x,y,1/2-z
-x,-y,-z
x,y,-z
-x,y,1/2+z
x,-y,1/2+z
1/2+x,1/2+y,z
1/2-x,1/2-y,z
1/2+x,1/2-y,1/2-z
1/2-x,1/2+y,1/2-z
1/2-x,1/2-y,-z
1/2+x,1/2+y,-z
1/2-x,1/2+y,1/2+z
1/2+x,1/2-y,1/2+z
loop_
_atom_site_type_symbol
_atom_site_label
_atom_site_fract_x
_atom_site_fract_y
_atom_site_fract_z
Si Si1 0.848306 0.508518 0.649430
Si Si2 0.000000 0.500000 0.500000
Si Si3 0.116755 0.946937 0.104499
O O1 0.881731 0.500000 0.750000
O O2 0.922065 0.407676 0.577721
O O3 0.863010 0.724297 0.617220
O O4 0.722331 0.458055 0.644622
O O5 0.117572 0.977754 0.000000
O O6 0.000000 0.000000 0.140516
#
# Coordination Sequence:
#
# PCOD9498529 Si02
#       3
#    16   4  16
#     4  11  23  45  71 104 144 187 239 297 359 427
#     4  12  22  46  66  94 148 196 230 296 360 428
#     4  10  21  48  76 101 140 191 243 300 357 421
#
# _framework density 26.740562000000001
#
# number of rings (size 3 to 8) (size 9 to 14) (size 15 to 20)
#    0.000    1.333    4.444    2.000    0.000    0.889 
#   32.000    2.222    0.000    0.000    0.000    0.000 
#    0.000    0.000    0.000    0.000    0.000    0.000 
#
# Total GULP energy -100368.632774 kJ/mol
# GULP energy per Si atom -5576.035154 kJ/mol
# Density = 2.667970 g / cm^3
# Si number density = 26.740562 Si / 1000 Ang^3
#
#
#
# Elastic Constant Matrix: (Units=GPa)
#
#
# Indices 1 2 3 4 5 6 
#
# 1 289.4728 14.8787 77.3209 0.0000 0.0000 0.0000
# 2 14.8787 81.1772 -10.6245 0.0000 0.0000 0.0000
# 3 77.3209 -10.6245 261.6028 0.0000 0.0000 0.0000
# 4 0.0000 0.0000 0.0000 15.2234 0.0000 0.0000
# 5 0.0000 0.0000 0.0000 0.0000 402.6052 0.0000
# 6 0.0000 0.0000 0.0000 0.0000 0.0000 42.1512
#
#
#
# Elastic Compliance Matrix: (Units=1/GPa)
#
#
# Indices 1 2 3 4 5 6 
#
# 1 0.003808 -0.000850 -0.001160 0.000000 0.000000 0.000000
# 2 -0.000850 0.012574 0.000762 0.000000 0.000000 0.000000
# 3 -0.001160 0.000762 0.004196 0.000000 0.000000 0.000000
# 4 0.000000 0.000000 0.000000 0.065688 0.000000 0.000000
# 5 0.000000 0.000000 0.000000 0.000000 0.002484 0.000000
# 6 0.000000 0.000000 0.000000 0.000000 0.000000 0.023724
#
#
# Mechanical properties :
#
#
# Convention : Reuss Voigt Hill
#
# Bulk Modulus (GPa) = 55.30150 88.37810 71.83980
# Shear Modulus (GPa) = 41.32283 128.70780 85.01531
#
# Velocity S-wave (km/s) = 3.93533 6.94525 5.64461
# Velocity P-wave (km/s) = 6.43232 9.87104 8.33103
#
# Compressibility (1/GPa) = 0.01808269
#
# Stress axis : x y z
#
# Youngs Moduli (GPa) = 262.59834 79.52788 238.29930
#
# Poissons Ratio (x) = 0.06758 0.27644
# Poissons Ratio (y) = 0.22316 -0.18155
# Poissons Ratio (z) = 0.30463 -0.06059
#
# Static dielectric constant tensor:
#      x y z
#    x 2.113630 0.000000 0.000000 
#    y 0.000000 2.168150 0.000000 
#    z 0.000000 0.000000 3.513060 
# 
# From -- ./inp_files/23015.got.cif
#   From: 2010.05.17/outbox.cif.g08.bks.cpg/sg66_12_cif.got.tgz:23015.got - 2010.06.03 17:51:23.
