data_PCOD9498177
_publ_section_title
;
Structure prediction by ZEFSAII (Michael W. Deem and Ramdas Pophale) SiO2 
 PCOD9498177
Probable space group: C C C M
;
_chemical_formula_sum "Si O2"
_cell_formula_units_Z 64
_cell_length_a 18.077014
_cell_length_b 10.994154
_cell_length_c 15.240458
_cell_angle_alpha 90.000000
_cell_angle_beta 90.000000
_cell_angle_gamma 90.000000
_cell_volume 3028.911114
_symmetry_space_group_name_H-M "C C C M"
_symmetry_group_IT_number 66
_symmetry_cell_setting 'orthorhombic'
loop_
_space_group_symop_operation_xyz
x,y,z
-x,-y,z
x,-y,1/2-z
-x,y,1/2-z
-x,-y,-z
x,y,-z
-x,y,1/2+z
x,-y,1/2+z
1/2+x,1/2+y,z
1/2-x,1/2-y,z
1/2+x,1/2-y,1/2-z
1/2-x,1/2+y,1/2-z
1/2-x,1/2-y,-z
1/2+x,1/2+y,-z
1/2-x,1/2+y,1/2+z
1/2+x,1/2-y,1/2+z
loop_
_atom_site_type_symbol
_atom_site_label
_atom_site_fract_x
_atom_site_fract_y
_atom_site_fract_z
Si Si1 0.040719 0.200653 0.000000
Si Si2 0.108149 0.951717 0.000000
Si Si3 0.543763 0.129609 0.668401
Si Si4 0.723963 0.617842 0.637890
Si Si5 0.718173 0.128070 0.666691
O O1 0.040910 0.287306 0.916438
O O2 0.968569 0.117876 0.000000
O O3 0.104016 0.097987 0.000000
O O4 0.148149 0.908919 0.089085
O O5 0.500000 0.186499 0.750000
O O6 0.631304 0.125411 0.691123
O O7 0.500000 0.000000 0.654250
O O8 0.750000 0.750000 0.606782
O O9 0.770986 0.497556 0.614790
O O10 0.732089 0.623840 0.743770
O O11 0.750000 0.250000 0.621851
#
# Coordination Sequence:
#
# PCOD9498177 Si02
#       5
#     8   8  16  16  16
#     4  11  27  45  65  99 145 189 231 285 355 429
#     4  11  25  43  61  99 139 181 235 281 356 436
#     4  11  24  44  72 101 141 184 241 292 359 434
#     4  10  21  38  65  94 133 171 225 289 349 417
#     4  10  22  40  67 100 128 176 235 294 360 419
#
# _framework density 21.129705999999999
#
# number of rings (size 3 to 8) (size 9 to 14) (size 15 to 20)
#    0.000    1.500    0.000    5.250   10.500    1.000 
#    0.000    3.750    0.000    0.000    0.000    0.000 
#    0.000    0.000    0.000    0.000    0.000    0.000 
#
# Total GULP energy -178264.539998 kJ/mol
# GULP energy per Si atom -5570.766875 kJ/mol
# Density = 2.108161 g / cm^3
# Si number density = 21.129706 Si / 1000 Ang^3
#
#
#
# Elastic Constant Matrix: (Units=GPa)
#
#
# Indices 1 2 3 4 5 6 
#
# 1 96.0482 33.5354 23.4588 0.0000 0.0000 0.0000
# 2 33.5354 178.3343 47.6283 0.0000 0.0000 0.0000
# 3 23.4588 47.6283 113.0509 0.0000 0.0000 0.0000
# 4 0.0000 0.0000 0.0000 8.6003 0.0000 0.0000
# 5 0.0000 0.0000 0.0000 0.0000 44.3951 0.0000
# 6 0.0000 0.0000 0.0000 0.0000 0.0000 38.4515
#
#
#
# Elastic Compliance Matrix: (Units=1/GPa)
#
#
# Indices 1 2 3 4 5 6 
#
# 1 0.011410 -0.001705 -0.001649 0.000000 0.000000 0.000000
# 2 -0.001705 0.006573 -0.002415 0.000000 0.000000 0.000000
# 3 -0.001649 -0.002415 0.010205 0.000000 0.000000 0.000000
# 4 0.000000 0.000000 0.000000 0.116275 0.000000 0.000000
# 5 0.000000 0.000000 0.000000 0.000000 0.022525 0.000000
# 6 0.000000 0.000000 0.000000 0.000000 0.000000 0.026007
#
#
# Mechanical properties :
#
#
# Convention : Reuss Voigt Hill
#
# Bulk Modulus (GPa) = 60.06484 66.29758 63.18121
# Shear Modulus (GPa) = 23.79999 37.14343 30.47171
#
# Velocity S-wave (km/s) = 3.35979 4.19725 3.80165
# Velocity P-wave (km/s) = 6.59844 7.41174 7.01688
#
# Compressibility (1/GPa) = 0.01664868
#
# Stress axis : x y z
#
# Youngs Moduli (GPa) = 87.64569 152.13310 97.98708
#
# Poissons Ratio (x) = 0.25940 0.16160
# Poissons Ratio (y) = 0.14944 0.23668
# Poissons Ratio (z) = 0.14455 0.36747
#
# Static dielectric constant tensor:
#      x y z
#    x 1.776340 0.000000 0.000000 
#    y 0.000000 1.690930 0.000000 
#    z 0.000000 0.000000 1.769780 
# 
# From -- ./inp_files/29615.got.cif
#   From: 2010.05.17/outbox.cif.g08.bks.cpg/sg66_15_cif.got.tgz:29615.got - 2010.06.03 17:51:23.
