data_PCOD9498274
_publ_section_title
;
Structure prediction by ZEFSAII (Michael W. Deem and Ramdas Pophale) SiO2 
 PCOD9498274
Probable space group: C C C M
;
_chemical_formula_sum "Si O2"
_cell_formula_units_Z 96
_cell_length_a 12.887960
_cell_length_b 21.983541
_cell_length_c 15.555715
_cell_angle_alpha 90.000000
_cell_angle_beta 90.000000
_cell_angle_gamma 90.000000
_cell_volume 4407.291795
_symmetry_space_group_name_H-M "C C C M"
_symmetry_group_IT_number 66
_symmetry_cell_setting 'orthorhombic'
loop_
_space_group_symop_operation_xyz
x,y,z
-x,-y,z
x,-y,1/2-z
-x,y,1/2-z
-x,-y,-z
x,y,-z
-x,y,1/2+z
x,-y,1/2+z
1/2+x,1/2+y,z
1/2-x,1/2-y,z
1/2+x,1/2-y,1/2-z
1/2-x,1/2+y,1/2-z
1/2-x,1/2-y,-z
1/2+x,1/2+y,-z
1/2-x,1/2+y,1/2+z
1/2+x,1/2-y,1/2+z
loop_
_atom_site_type_symbol
_atom_site_label
_atom_site_fract_x
_atom_site_fract_y
_atom_site_fract_z
Si Si1 0.443151 0.311907 0.836127
Si Si2 0.765479 0.519014 0.844628
Si Si3 0.048664 0.057978 0.097462
Si Si4 0.712923 0.149051 0.284241
Si Si5 0.045982 0.689925 0.406549
Si Si6 0.335738 0.111906 0.401431
O O1 0.500000 0.293392 0.750000
O O2 0.479999 0.379463 0.859474
O O3 0.320061 0.324273 0.821417
O O4 0.476895 0.261915 0.905421
O O5 0.724810 0.500000 0.750000
O O6 0.670123 0.541595 0.901750
O O7 0.820503 0.582514 0.821958
O O8 0.827041 0.461268 0.883077
O O9 0.010412 0.061881 0.000000
O O10 0.000000 0.000000 0.142361
O O11 0.620642 0.187716 0.324116
O O12 0.721002 0.142018 0.181249
O O13 0.095846 0.675402 0.500000
O O14 0.949022 0.644135 0.397605
O O15 0.297916 0.121798 0.500000
#
# Coordination Sequence:
#
# PCOD9498274 Si02
#       6
#    16  16  16  16  16  16
#     4  11  24  40  63  90 124 165 211 263 314 381
#     4   9  20  36  59  91 124 162 205 258 315 376
#     4  10  22  36  58  88 121 160 203 259 316 373
#     4  10  22  40  64  94 125 168 214 262 318 376
#     4  11  24  42  65  91 125 168 215 266 319 381
#     4  10  21  39  64  93 130 168 209 263 321 387
#
# _framework density 21.782084000000001
#
# number of rings (size 3 to 8) (size 9 to 14) (size 15 to 20)
#    0.000    1.833    0.000    3.000    7.000    5.333 
#    0.000    5.000    0.000    4.000    0.000    0.000 
#    0.000    0.000    0.000    0.000    0.000    0.000 
#
# Total GULP energy -267206.963917 kJ/mol
# GULP energy per Si atom -5566.811748 kJ/mol
# Density = 2.173251 g / cm^3
# Si number density = 21.782084 Si / 1000 Ang^3
#
#
#
# Elastic Constant Matrix: (Units=GPa)
#
#
# Indices 1 2 3 4 5 6 
#
# 1 27.2490 23.4704 10.9663 0.0000 0.0000 0.0000
# 2 23.4704 107.4158 35.7551 0.0000 0.0000 0.0000
# 3 10.9663 35.7551 105.3682 0.0000 0.0000 0.0000
# 4 0.0000 0.0000 0.0000 20.6880 0.0000 0.0000
# 5 0.0000 0.0000 0.0000 0.0000 -3.9861 0.0000
# 6 0.0000 0.0000 0.0000 0.0000 0.0000 32.6216
#
#
#
# Elastic Compliance Matrix: (Units=1/GPa)
#
#
# Indices 1 2 3 4 5 6 
#
# 1 0.045425 -0.009415 -0.001533 0.000000 0.000000 0.000000
# 2 -0.009415 0.012447 -0.003244 0.000000 0.000000 0.000000
# 3 -0.001533 -0.003244 0.010751 0.000000 0.000000 0.000000
# 4 0.000000 0.000000 0.000000 0.048337 0.000000 0.000000
# 5 0.000000 0.000000 0.000000 0.000000 -0.250874 0.000000
# 6 0.000000 0.000000 0.000000 0.000000 0.000000 0.030655
#
#
# Mechanical properties :
#
#
# Convention : Reuss Voigt Hill
#
# Bulk Modulus (GPa) = 24.85146 42.26851 33.55999
# Shear Modulus (GPa) = -81.34943 21.18745 -30.08099
#
# Velocity S-wave (km/s) = -6.11784 3.12220 -3.72021
# Velocity P-wave (km/s) = 6.20243 5.69603 1.73570
#
# Compressibility (1/GPa) = 0.04023908
#
# Stress axis : x y z
#
# Youngs Moduli (GPa) = 22.01433 80.34371 93.01687
#
# Poissons Ratio (x) = 0.75645 0.14257
# Poissons Ratio (y) = 0.20727 0.30171
# Poissons Ratio (z) = 0.03374 0.26061
#
# Static dielectric constant tensor:
#      x y z
#    x 1.830510 0.000000 0.000000 
#    y 0.000000 1.941300 0.000000 
#    z 0.000000 0.000000 1.819370 
# 
# From -- ./inp_files/28302.got.cif
#   From: 2010.05.17/outbox.cif.g08.bks.cpg/sg66_15_cif.got.tgz:28302.got - 2010.06.03 17:51:23.
