data_PCOD9498762
_publ_section_title
;
Structure prediction by ZEFSAII (Michael W. Deem and Ramdas Pophale) SiO2 
 PCOD9498762
Probable space group: C C C M
;
_chemical_formula_sum "Si O2"
_cell_formula_units_Z 104
_cell_length_a 8.286347
_cell_length_b 19.996161
_cell_length_c 30.692022
_cell_angle_alpha 90.000000
_cell_angle_beta 90.000000
_cell_angle_gamma 90.000000
_cell_volume 5085.518536
_symmetry_space_group_name_H-M "C C C M"
_symmetry_group_IT_number 66
_symmetry_cell_setting 'orthorhombic'
loop_
_space_group_symop_operation_xyz
x,y,z
-x,-y,z
x,-y,1/2-z
-x,y,1/2-z
-x,-y,-z
x,y,-z
-x,y,1/2+z
x,-y,1/2+z
1/2+x,1/2+y,z
1/2-x,1/2-y,z
1/2+x,1/2-y,1/2-z
1/2-x,1/2+y,1/2-z
1/2-x,1/2-y,-z
1/2+x,1/2+y,-z
1/2-x,1/2+y,1/2+z
1/2+x,1/2-y,1/2+z
loop_
_atom_site_type_symbol
_atom_site_label
_atom_site_fract_x
_atom_site_fract_y
_atom_site_fract_z
Si Si1 0.250000 0.250000 0.574685
Si Si2 0.070650 0.878740 0.953569
Si Si3 0.841104 0.532835 0.579323
Si Si4 0.670696 0.572788 0.771989
Si Si5 0.507498 0.842075 0.373557
Si Si6 0.174995 0.907840 0.376587
Si Si7 0.885276 0.697538 0.215540
O O1 0.160066 0.192212 0.548518
O O2 0.390980 0.214902 0.602706
O O3 0.213141 0.932927 0.951805
O O4 0.969623 0.888363 0.909038
O O5 0.980349 0.885208 0.000000
O O6 0.747671 0.476431 0.605517
O O7 0.000000 0.500000 0.558384
O O8 0.906201 0.589273 0.612538
O O9 0.716146 0.500000 0.750000
O O10 0.500000 0.588802 0.750000
O O11 0.645633 0.578104 0.825021
O O12 0.800304 0.631553 0.764516
O O13 0.317197 0.853008 0.383395
O O14 0.500376 0.826738 0.322925
O O15 0.750000 0.750000 0.200302
O O16 0.000000 0.732903 0.250000
#
# Coordination Sequence:
#
# PCOD9498762 Si02
#       7
#     8  16  16  16  16  16  16
#     4  10  23  42  68  86 126 176 220 258 322 402
#     4  11  24  40  65  98 130 170 216 270 330 391
#     4   9  20  40  63  91 126 169 211 263 325 387
#     4  10  24  40  64  94 128 173 218 267 327 385
#     4   9  22  41  64  89 123 174 211 267 325 385
#     4  10  22  40  65  95 131 160 220 270 323 391
#     4  11  25  40  60  92 133 169 222 273 324 394
#
# _framework density 20.450225
#
# number of rings (size 3 to 8) (size 9 to 14) (size 15 to 20)
#    0.000    2.000    0.000    1.154   11.846    3.077 
#    0.000    7.692    0.000    0.000    0.000    0.000 
#    0.000    0.000    0.000    0.000    0.000    0.000 
#
# Total GULP energy -289814.951563 kJ/mol
# GULP energy per Si atom -5573.364453 kJ/mol
# Density = 2.040368 g / cm^3
# Si number density = 20.450225 Si / 1000 Ang^3
#
#
#
# Elastic Constant Matrix: (Units=GPa)
#
#
# Indices 1 2 3 4 5 6 
#
# 1 77.4773 35.9522 64.6952 0.0000 0.0000 0.0000
# 2 35.9522 78.2258 49.2192 0.0000 0.0000 0.0000
# 3 64.6952 49.2192 115.7526 0.0000 0.0000 0.0000
# 4 0.0000 0.0000 0.0000 133.8689 0.0000 0.0000
# 5 0.0000 0.0000 0.0000 0.0000 12.8952 0.0000
# 6 0.0000 0.0000 0.0000 0.0000 0.0000 10.3642
#
#
#
# Elastic Compliance Matrix: (Units=1/GPa)
#
#
# Indices 1 2 3 4 5 6 
#
# 1 0.024954 -0.003677 -0.012383 0.000000 0.000000 0.000000
# 2 -0.003677 0.017995 -0.005596 0.000000 0.000000 0.000000
# 3 -0.012383 -0.005596 0.017940 0.000000 0.000000 0.000000
# 4 0.000000 0.000000 0.000000 0.007470 0.000000 0.000000
# 5 0.000000 0.000000 0.000000 0.000000 0.077548 0.000000
# 6 0.000000 0.000000 0.000000 0.000000 0.000000 0.096486
#
#
# Mechanical properties :
#
#
# Convention : Reuss Voigt Hill
#
# Bulk Modulus (GPa) = 56.89991 63.46541 60.18266
# Shear Modulus (GPa) = 17.14890 39.53161 28.34026
#
# Velocity S-wave (km/s) = 2.89895 4.40143 3.72669
# Velocity P-wave (km/s) = 6.25213 7.54530 6.92895
#
# Compressibility (1/GPa) = 0.01757472
#
# Stress axis : x y z
#
# Youngs Moduli (GPa) = 40.07440 55.57203 55.74177
#
# Poissons Ratio (x) = 0.20434 0.69026
# Poissons Ratio (y) = 0.14736 0.31195
# Poissons Ratio (z) = 0.49625 0.31100
#
# Static dielectric constant tensor:
#      x y z
#    x 1.816900 0.000000 0.000000 
#    y 0.000000 1.742460 0.000000 
#    z 0.000000 0.000000 1.899920 
# 
# From -- ./inp_files/62678.got.cif
#   From: 2010.05.17/outbox.cif.g08.bks.cpg/sg66_32_cif.got.tgz:62678.got - 2010.06.03 17:51:23.
