data_PCOD9498910
_publ_section_title
;
Structure prediction by ZEFSAII (Michael W. Deem and Ramdas Pophale) SiO2 
 PCOD9498910
Probable space group: C C C M
;
_chemical_formula_sum "Si O2"
_cell_formula_units_Z 104
_cell_length_a 28.607443
_cell_length_b 11.989220
_cell_length_c 15.377242
_cell_angle_alpha 90.000000
_cell_angle_beta 90.000000
_cell_angle_gamma 90.000000
_cell_volume 5274.100728
_symmetry_space_group_name_H-M "C C C M"
_symmetry_group_IT_number 66
_symmetry_cell_setting 'orthorhombic'
loop_
_space_group_symop_operation_xyz
x,y,z
-x,-y,z
x,-y,1/2-z
-x,y,1/2-z
-x,-y,-z
x,y,-z
-x,y,1/2+z
x,-y,1/2+z
1/2+x,1/2+y,z
1/2-x,1/2-y,z
1/2+x,1/2-y,1/2-z
1/2-x,1/2+y,1/2-z
1/2-x,1/2-y,-z
1/2+x,1/2+y,-z
1/2-x,1/2+y,1/2+z
1/2+x,1/2-y,1/2+z
loop_
_atom_site_type_symbol
_atom_site_label
_atom_site_fract_x
_atom_site_fract_y
_atom_site_fract_z
Si Si1 0.702662 0.500000 0.750000
Si Si2 0.555489 0.985876 0.603808
Si Si3 0.237326 0.382121 0.895264
Si Si4 0.365902 0.845028 0.398138
Si Si5 0.119147 0.874741 0.310477
Si Si6 0.547887 0.235329 0.196657
Si Si7 0.049639 0.954010 0.101878
O O1 0.732886 0.533355 0.834688
O O2 0.664514 0.399986 0.748209
O O3 0.561522 0.967541 0.500000
O O4 0.568254 0.878449 0.659707
O O5 0.500000 0.000000 0.617709
O O6 0.587425 0.090403 0.631619
O O7 0.250000 0.250000 0.882798
O O8 0.183297 0.392327 0.865137
O O9 0.242324 0.403765 0.000000
O O10 0.364500 0.864856 0.500000
O O11 0.366275 0.712410 0.384434
O O12 0.082175 0.803364 0.257797
O O13 0.091974 0.982285 0.349185
O O14 0.500000 0.218796 0.250000
O O15 0.544002 0.322159 0.116651
O O16 0.054064 0.979743 0.000000
O O17 0.000000 0.000000 0.135669
#
# Coordination Sequence:
#
# PCOD9498910 Si02
#       7
#     8  16  16  16  16  16  16
#     4  12  24  40  65 100 129 164 212 286 338 388
#     4  10  23  42  62  89 122 161 209 258 312 378
#     4  10  22  43  69  95 128 170 219 274 333 401
#     4  10  22  43  69  94 123 166 220 271 319 389
#     4  12  23  38  61  95 127 160 210 267 324 382
#     4  12  23  38  58  85 130 167 208 256 317 385
#     4  11  23  38  59  86 123 174 217 257 314 382
#
# _framework density 19.719000999999999
#
# number of rings (size 3 to 8) (size 9 to 14) (size 15 to 20)
#    0.000    1.077    4.615    1.846    0.000    4.000 
#    0.000    0.000    0.000    0.462    0.000    0.000 
#    0.000    0.000    0.000    0.000    0.000    0.000 
#
# Total GULP energy -289758.092779 kJ/mol
# GULP energy per Si atom -5572.271015 kJ/mol
# Density = 1.967412 g / cm^3
# Si number density = 19.719001 Si / 1000 Ang^3
#
#
#
# Elastic Constant Matrix: (Units=GPa)
#
#
# Indices 1 2 3 4 5 6 
#
# 1 118.0476 30.9369 40.0427 0.0000 0.0000 0.0000
# 2 30.9369 95.7673 31.2285 0.0000 0.0000 0.0000
# 3 40.0427 31.2285 68.0387 0.0000 0.0000 0.0000
# 4 0.0000 0.0000 0.0000 37.0975 0.0000 0.0000
# 5 0.0000 0.0000 0.0000 0.0000 24.5637 0.0000
# 6 0.0000 0.0000 0.0000 0.0000 0.0000 30.0159
#
#
#
# Elastic Compliance Matrix: (Units=1/GPa)
#
#
# Indices 1 2 3 4 5 6 
#
# 1 0.010806 -0.001666 -0.005595 0.000000 0.000000 0.000000
# 2 -0.001666 0.012537 -0.004773 0.000000 0.000000 0.000000
# 3 -0.005595 -0.004773 0.020181 0.000000 0.000000 0.000000
# 4 0.000000 0.000000 0.000000 0.026956 0.000000 0.000000
# 5 0.000000 0.000000 0.000000 0.000000 0.040710 0.000000
# 6 0.000000 0.000000 0.000000 0.000000 0.000000 0.033316
#
#
# Mechanical properties :
#
#
# Convention : Reuss Voigt Hill
#
# Bulk Modulus (GPa) = 51.40158 54.02996 52.71577
# Shear Modulus (GPa) = 28.56176 30.31180 29.43678
#
# Velocity S-wave (km/s) = 3.80996 3.92495 3.86789
# Velocity P-wave (km/s) = 6.74374 6.92819 6.83659
#
# Compressibility (1/GPa) = 0.01945465
#
# Stress axis : x y z
#
# Youngs Moduli (GPa) = 92.54473 79.76488 49.55150
#
# Poissons Ratio (x) = 0.13292 0.27722
# Poissons Ratio (y) = 0.15421 0.23653
# Poissons Ratio (z) = 0.51775 0.38076
#
# Static dielectric constant tensor:
#      x y z
#    x 1.754380 0.000000 0.000000 
#    y 0.000000 1.747590 0.000000 
#    z 0.000000 0.000000 1.741930 
# 
# From -- ./inp_files/44323.got.cif
#   From: 2010.05.17/outbox.cif.g08.bks.cpg/sg66_23_cif.got.tgz:44323.got - 2010.06.03 17:51:23.
