data_PCOD9498169
_publ_section_title
;
Structure prediction by ZEFSAII (Michael W. Deem and Ramdas Pophale) SiO2 
 PCOD9498169
Probable space group: C C C M
;
_chemical_formula_sum "Si O2"
_cell_formula_units_Z 88
_cell_length_a 20.517296
_cell_length_b 12.646633
_cell_length_c 16.390797
_cell_angle_alpha 90.000000
_cell_angle_beta 90.000000
_cell_angle_gamma 90.000000
_cell_volume 4252.997342
_symmetry_space_group_name_H-M "C C C M"
_symmetry_group_IT_number 66
_symmetry_cell_setting 'orthorhombic'
loop_
_space_group_symop_operation_xyz
x,y,z
-x,-y,z
x,-y,1/2-z
-x,y,1/2-z
-x,-y,-z
x,y,-z
-x,y,1/2+z
x,-y,1/2+z
1/2+x,1/2+y,z
1/2-x,1/2-y,z
1/2+x,1/2-y,1/2-z
1/2-x,1/2+y,1/2-z
1/2-x,1/2-y,-z
1/2+x,1/2+y,-z
1/2-x,1/2+y,1/2+z
1/2+x,1/2-y,1/2+z
loop_
_atom_site_type_symbol
_atom_site_label
_atom_site_fract_x
_atom_site_fract_y
_atom_site_fract_z
Si Si1 0.316260 0.526380 0.907344
Si Si2 0.928865 0.606253 0.906394
Si Si3 0.669535 0.916156 0.596471
Si Si4 0.634803 0.710822 0.698777
Si Si5 0.178338 0.214658 0.121163
Si Si6 0.500000 0.192155 0.250000
O O1 0.239998 0.534678 0.882713
O O2 0.356593 0.601331 0.848129
O O3 0.335994 0.404355 0.905999
O O4 0.321879 0.566640 0.000000
O O5 0.887216 0.501036 0.887537
O O6 0.876212 0.701766 0.905607
O O7 0.977709 0.627793 0.831149
O O8 0.955492 0.600649 0.000000
O O9 0.669185 0.895762 0.500000
O O10 0.658903 0.807907 0.643622
O O11 0.676292 0.710937 0.781059
O O12 0.561131 0.736800 0.723988
O O13 0.250000 0.250000 0.093452
#
# Coordination Sequence:
#
# PCOD9498169 Si02
#       6
#    16  16  16  16  16   8
#     4  11  22  38  63  95 128 161 206 269 339 400
#     4  10  22  41  65  95 129 171 222 271 325 389
#     4  10  21  38  64  96 128 161 206 272 344 401
#     4  11  24  40  59  88 127 171 217 263 321 386
#     4  11  21  37  63  93 126 164 212 267 328 394
#     4  10  26  45  63  92 132 184 231 271 312 392
#
# _framework density 20.691289000000001
#
# number of rings (size 3 to 8) (size 9 to 14) (size 15 to 20)
#    0.000    1.455    1.818    3.273    0.000    8.000 
#    0.000    9.091    0.000    5.455    0.000    0.000 
#    0.000    0.000    0.000    0.000    0.000    0.000 
#
# Total GULP energy -246114.199404 kJ/mol
# GULP energy per Si atom -5593.504532 kJ/mol
# Density = 2.064419 g / cm^3
# Si number density = 20.691289 Si / 1000 Ang^3
#
#
#
# Elastic Constant Matrix: (Units=GPa)
#
#
# Indices 1 2 3 4 5 6 
#
# 1 65.5970 12.0221 40.7534 0.0000 0.0000 0.0000
# 2 12.0221 111.5050 45.8194 0.0000 0.0000 0.0000
# 3 40.7534 45.8194 99.5295 0.0000 0.0000 0.0000
# 4 0.0000 0.0000 0.0000 47.6381 0.0000 0.0000
# 5 0.0000 0.0000 0.0000 0.0000 21.1521 0.0000
# 6 0.0000 0.0000 0.0000 0.0000 0.0000 22.7657
#
#
#
# Elastic Compliance Matrix: (Units=1/GPa)
#
#
# Indices 1 2 3 4 5 6 
#
# 1 0.020658 0.001540 -0.009167 0.000000 0.000000 0.000000
# 2 0.001540 0.011175 -0.005775 0.000000 0.000000 0.000000
# 3 -0.009167 -0.005775 0.016460 0.000000 0.000000 0.000000
# 4 0.000000 0.000000 0.000000 0.020992 0.000000 0.000000
# 5 0.000000 0.000000 0.000000 0.000000 0.047277 0.000000
# 6 0.000000 0.000000 0.000000 0.000000 0.000000 0.043926
#
#
# Mechanical properties :
#
#
# Convention : Reuss Voigt Hill
#
# Bulk Modulus (GPa) = 46.53934 52.64682 49.59308
# Shear Modulus (GPa) = 25.71292 30.18029 27.94661
#
# Velocity S-wave (km/s) = 3.52901 3.82330 3.67910
# Velocity P-wave (km/s) = 6.25670 6.70741 6.48597
#
# Compressibility (1/GPa) = 0.02148720
#
# Stress axis : x y z
#
# Youngs Moduli (GPa) = 48.40778 89.48300 60.75467
#
# Poissons Ratio (x) = -0.13779 0.55696
# Poissons Ratio (y) = -0.07454 0.35087
# Poissons Ratio (z) = 0.44378 0.51678
#
# Static dielectric constant tensor:
#      x y z
#    x 1.735720 0.000000 0.000000 
#    y 0.000000 1.698020 0.000000 
#    z 0.000000 0.000000 1.753760 
# 
# From -- ./inp_files/32232.got.cif
#   From: 2010.05.17/outbox.cif.g08.bks.cpg/sg66_17_cif.got.tgz:32232.got - 2010.06.03 17:51:23.
