data_PCOD9498455
_publ_section_title
;
Structure prediction by ZEFSAII (Michael W. Deem and Ramdas Pophale) SiO2 
 PCOD9498455
Probable space group: C C C M
;
_chemical_formula_sum "Si O2"
_cell_formula_units_Z 116
_cell_length_a 9.564082
_cell_length_b 25.955531
_cell_length_c 23.631609
_cell_angle_alpha 90.000000
_cell_angle_beta 90.000000
_cell_angle_gamma 90.000000
_cell_volume 5866.330158
_symmetry_space_group_name_H-M "C C C M"
_symmetry_group_IT_number 66
_symmetry_cell_setting 'orthorhombic'
loop_
_space_group_symop_operation_xyz
x,y,z
-x,-y,z
x,-y,1/2-z
-x,y,1/2-z
-x,-y,-z
x,y,-z
-x,y,1/2+z
x,-y,1/2+z
1/2+x,1/2+y,z
1/2-x,1/2-y,z
1/2+x,1/2-y,1/2-z
1/2-x,1/2+y,1/2-z
1/2-x,1/2-y,-z
1/2+x,1/2+y,-z
1/2-x,1/2+y,1/2+z
1/2+x,1/2-y,1/2+z
loop_
_atom_site_type_symbol
_atom_site_label
_atom_site_fract_x
_atom_site_fract_y
_atom_site_fract_z
Si Si1 0.435647 0.128297 0.693046
Si Si2 0.872039 0.715078 0.935632
Si Si3 0.540888 0.352524 0.315345
Si Si4 0.500000 0.500000 0.250000
Si Si5 0.670270 0.997535 0.067754
Si Si6 0.305016 0.886891 0.382766
Si Si7 0.832503 0.067781 0.157988
Si Si8 0.085759 0.258637 0.656475
O O1 0.500000 0.107288 0.750000
O O2 0.541164 0.111610 0.644173
O O3 0.286402 0.103846 0.684123
O O4 0.429623 0.190321 0.694538
O O5 0.750000 0.750000 0.909375
O O6 0.816375 0.657326 0.929719
O O7 0.012577 0.724365 0.901535
O O8 0.607701 0.769866 0.000000
O O9 0.500000 0.364546 0.250000
O O10 0.699180 0.365867 0.334024
O O11 0.453920 0.391170 0.355964
O O12 0.492651 0.293427 0.324036
O O13 0.399463 0.531073 0.206372
O O14 0.723462 0.941967 0.090044
O O15 0.500000 0.000000 0.076930
O O16 0.758904 0.037669 0.106223
O O17 0.692299 0.003950 0.000000
O O18 0.250000 0.250000 0.650541
#
# Coordination Sequence:
#
# PCOD9498455 Si02
#       8
#    16  16  16   4  16  16  16  16
#     4  11  24  40  65 101 135 171 225 275 331 414
#     4  10  21  41  67  95 124 163 220 278 331 394
#     4  12  24  43  66  95 139 178 215 270 341 408
#     4  12  28  44  72  96 144 176 222 290 336 402
#     4  11  25  47  71  98 133 176 230 290 343 400
#     4  11  23  43  67  97 129 174 223 277 338 404
#     4  12  25  45  66 101 129 178 225 272 340 400
#     4  11  23  41  63  95 138 174 218 268 334 415
#
# _framework density 19.773861
#
# number of rings (size 3 to 8) (size 9 to 14) (size 15 to 20)
#    0.000    0.828    4.828    2.483    1.931    0.276 
#    0.000    4.483    0.000    0.000    0.000    0.000 
#    0.000    0.000    0.000    0.000    0.000    0.000 
#
# Total GULP energy -323530.707327 kJ/mol
# GULP energy per Si atom -5578.115644 kJ/mol
# Density = 1.972885 g / cm^3
# Si number density = 19.773861 Si / 1000 Ang^3
#
#
#
# Elastic Constant Matrix: (Units=GPa)
#
#
# Indices 1 2 3 4 5 6 
#
# 1 84.1502 12.3479 33.0667 0.0000 0.0000 0.0000
# 2 12.3479 111.1030 37.0703 0.0000 0.0000 0.0000
# 3 33.0667 37.0703 85.0029 0.0000 0.0000 0.0000
# 4 0.0000 0.0000 0.0000 4.1788 0.0000 0.0000
# 5 0.0000 0.0000 0.0000 0.0000 15.5974 0.0000
# 6 0.0000 0.0000 0.0000 0.0000 0.0000 31.4498
#
#
#
# Elastic Compliance Matrix: (Units=1/GPa)
#
#
# Indices 1 2 3 4 5 6 
#
# 1 0.014037 0.000306 -0.005594 0.000000 0.000000 0.000000
# 2 0.000306 0.010540 -0.004716 0.000000 0.000000 0.000000
# 3 -0.005594 -0.004716 0.015997 0.000000 0.000000 0.000000
# 4 0.000000 0.000000 0.000000 0.239303 0.000000 0.000000
# 5 0.000000 0.000000 0.000000 0.000000 0.064113 0.000000
# 6 0.000000 0.000000 0.000000 0.000000 0.000000 0.031797
#
#
# Mechanical properties :
#
#
# Convention : Reuss Voigt Hill
#
# Bulk Modulus (GPa) = 48.62147 49.46954 49.04551
# Shear Modulus (GPa) = 12.41777 23.42995 17.92386
#
# Velocity S-wave (km/s) = 2.50869 3.44596 3.01398
# Velocity P-wave (km/s) = 5.74748 6.39569 6.08023
#
# Compressibility (1/GPa) = 0.02056704
#
# Stress axis : x y z
#
# Youngs Moduli (GPa) = 71.24183 94.87610 62.51173
#
# Poissons Ratio (x) = -0.02908 0.34969
# Poissons Ratio (y) = -0.02183 0.29479
# Poissons Ratio (z) = 0.39853 0.44742
#
# Static dielectric constant tensor:
#      x y z
#    x 1.799860 0.000000 0.000000 
#    y 0.000000 1.737620 0.000000 
#    z 0.000000 0.000000 1.680340 
# 
# From -- ./inp_files/55913.got.cif
#   From: 2010.05.17/outbox.cif.g08.bks.cpg/sg66_28_cif.got.tgz:55913.got - 2010.06.03 17:51:23.
