data_PCOD9498628
_publ_section_title
;
Structure prediction by ZEFSAII (Michael W. Deem and Ramdas Pophale) SiO2 
 PCOD9498628
Probable space group: C C C M
;
_chemical_formula_sum "Si O2"
_cell_formula_units_Z 64
_cell_length_a 7.504358
_cell_length_b 11.857912
_cell_length_c 29.112186
_cell_angle_alpha 90.000000
_cell_angle_beta 90.000000
_cell_angle_gamma 90.000000
_cell_volume 2590.577472
_symmetry_space_group_name_H-M "C C C M"
_symmetry_group_IT_number 66
_symmetry_cell_setting 'orthorhombic'
loop_
_space_group_symop_operation_xyz
x,y,z
-x,-y,z
x,-y,1/2-z
-x,y,1/2-z
-x,-y,-z
x,y,-z
-x,y,1/2+z
x,-y,1/2+z
1/2+x,1/2+y,z
1/2-x,1/2-y,z
1/2+x,1/2-y,1/2-z
1/2-x,1/2+y,1/2-z
1/2-x,1/2-y,-z
1/2+x,1/2+y,-z
1/2-x,1/2+y,1/2+z
1/2+x,1/2-y,1/2+z
loop_
_atom_site_type_symbol
_atom_site_label
_atom_site_fract_x
_atom_site_fract_y
_atom_site_fract_z
Si Si1 0.360596 0.410732 0.570505
Si Si2 0.190977 0.553926 0.637857
Si Si3 0.206164 0.624229 0.263822
Si Si4 0.475447 0.167114 0.051357
O O1 0.500000 0.500000 0.550929
O O2 0.319975 0.452413 0.622432
O O3 0.450731 0.290341 0.564293
O O4 0.160079 0.404837 0.550787
O O5 0.246271 0.623949 0.681698
O O6 0.000000 0.500000 0.650003
O O7 0.153722 0.625667 0.591633
O O8 0.283714 0.500000 0.250000
O O9 0.250000 0.750000 0.245138
O O10 0.000000 0.615797 0.250000
O O11 0.400138 0.164818 0.000000
#
# Coordination Sequence:
#
# PCOD9498628 Si02
#       4
#    16  16  16  16
#     4  10  22  38  63  94 130 173 225 271 324 385
#     4  10  22  44  68  94 134 177 220 275 340 401
#     4  11  25  48  74 103 136 173 225 287 352 417
#     4  10  23  41  62  95 136 181 224 271 326 390
#
# _framework density 24.704916000000001
#
# number of rings (size 3 to 8) (size 9 to 14) (size 15 to 20)
#    0.000    1.750    2.500    1.500    3.500   10.000 
#    0.000    1.250    0.000    0.000    0.000    0.000 
#    0.000    0.000    0.000    0.000    0.000    0.000 
#
# Total GULP energy -178624.543381 kJ/mol
# GULP energy per Si atom -5582.016981 kJ/mol
# Density = 2.464869 g / cm^3
# Si number density = 24.704916 Si / 1000 Ang^3
#
#
#
# Elastic Constant Matrix: (Units=GPa)
#
#
# Indices 1 2 3 4 5 6 
#
# 1 67.0828 24.5939 9.7903 0.0000 0.0000 0.0000
# 2 24.5939 187.3680 51.7613 0.0000 0.0000 0.0000
# 3 9.7903 51.7613 132.1018 0.0000 0.0000 0.0000
# 4 0.0000 0.0000 0.0000 68.8985 0.0000 0.0000
# 5 0.0000 0.0000 0.0000 0.0000 -4.6717 0.0000
# 6 0.0000 0.0000 0.0000 0.0000 0.0000 39.1074
#
#
#
# Elastic Compliance Matrix: (Units=1/GPa)
#
#
# Indices 1 2 3 4 5 6 
#
# 1 0.015679 -0.001948 -0.000399 0.000000 0.000000 0.000000
# 2 -0.001948 0.006227 -0.002296 0.000000 0.000000 0.000000
# 3 -0.000399 -0.002296 0.008499 0.000000 0.000000 0.000000
# 4 0.000000 0.000000 0.000000 0.014514 0.000000 0.000000
# 5 0.000000 0.000000 0.000000 0.000000 -0.214053 0.000000
# 6 0.000000 0.000000 0.000000 0.000000 0.000000 0.025571
#
#
# Mechanical properties :
#
#
# Convention : Reuss Voigt Hill
#
# Bulk Modulus (GPa) = 47.34682 62.09373 54.72027
# Shear Modulus (GPa) = -39.29628 40.69396 0.69884
#
# Velocity S-wave (km/s) = -3.99259 4.06298 0.53244
# Velocity P-wave (km/s) = 1.43103 6.87016 4.75138
#
# Compressibility (1/GPa) = 0.02112074
#
# Stress axis : x y z
#
# Youngs Moduli (GPa) = 63.77838 160.59295 117.66188
#
# Poissons Ratio (x) = 0.31282 0.04692
# Poissons Ratio (y) = 0.12423 0.27010
# Poissons Ratio (z) = 0.02543 0.36865
#
# Static dielectric constant tensor:
#      x y z
#    x 1.951740 0.000000 0.000000 
#    y 0.000000 2.045310 0.000000 
#    z 0.000000 0.000000 1.961280 
# 
# From -- ./inp_files/67915.got.cif
#   From: 2010.05.17/outbox.cif.g08.bks.cpg/sg66_34_cif.got.tgz:67915.got - 2010.06.03 17:51:23.
