data_PCOD9498838
_publ_section_title
;
Structure prediction by ZEFSAII (Michael W. Deem and Ramdas Pophale) SiO2 
 PCOD9498838
Probable space group: C C C M
;
_chemical_formula_sum "Si O2"
_cell_formula_units_Z 56
_cell_length_a 19.864094
_cell_length_b 6.974486
_cell_length_c 15.012258
_cell_angle_alpha 90.000000
_cell_angle_beta 90.000000
_cell_angle_gamma 90.000000
_cell_volume 2079.825929
_symmetry_space_group_name_H-M "C C C M"
_symmetry_group_IT_number 66
_symmetry_cell_setting 'orthorhombic'
loop_
_space_group_symop_operation_xyz
x,y,z
-x,-y,z
x,-y,1/2-z
-x,y,1/2-z
-x,-y,-z
x,y,-z
-x,y,1/2+z
x,-y,1/2+z
1/2+x,1/2+y,z
1/2-x,1/2-y,z
1/2+x,1/2-y,1/2-z
1/2-x,1/2+y,1/2-z
1/2-x,1/2-y,-z
1/2+x,1/2+y,-z
1/2-x,1/2+y,1/2+z
1/2+x,1/2-y,1/2+z
loop_
_atom_site_type_symbol
_atom_site_label
_atom_site_fract_x
_atom_site_fract_y
_atom_site_fract_z
Si Si1 0.500000 0.500000 0.250000
Si Si2 0.745207 0.019712 0.102937
Si Si3 0.099107 0.455650 0.652939
Si Si4 0.396016 0.501176 0.607170
Si Si5 0.000000 0.500000 0.000000
O O1 0.552050 0.409397 0.322157
O O2 0.750000 0.250000 0.106631
O O3 0.676302 0.973393 0.150986
O O4 0.818777 0.947027 0.130075
O O5 0.735914 0.966896 0.000000
O O6 0.073083 0.500000 0.750000
O O7 0.097414 0.229202 0.625791
O O8 0.055431 0.550680 0.576873
O O9 0.408056 0.525642 0.500000
#
# Coordination Sequence:
#
# PCOD9498838 Si02
#       5
#     4  16  16  16   4
#     4  12  26  36  62  90 112 158 206 258 280 350
#     4   8  15  35  59  80 108 152 194 233 282 347
#     4  11  22  35  62  90 119 151 193 242 301 356
#     4  10  22  42  61  83 120 160 201 242 295 352
#     4  12  22  36  54  92 126 154 178 248 304 360
#
# _framework density 26.925329999999999
#
# number of rings (size 3 to 8) (size 9 to 14) (size 15 to 20)
#    0.000    2.000    2.857    2.571    6.000    0.000 
#    0.000    0.000    0.000    0.000    0.000    9.000 
#    0.000    0.000    0.000    0.000    0.000    0.000 
#
# Total GULP energy -156206.062663 kJ/mol
# GULP energy per Si atom -5578.787952 kJ/mol
# Density = 2.686405 g / cm^3
# Si number density = 26.925330 Si / 1000 Ang^3
#
#
#
# Elastic Constant Matrix: (Units=GPa)
#
#
# Indices 1 2 3 4 5 6 
#
# 1 256.1312 -6.0558 143.9789 0.0000 0.0000 0.0000
# 2 -6.0558 144.7927 39.4145 0.0000 0.0000 0.0000
# 3 143.9789 39.4145 270.2605 0.0000 0.0000 0.0000
# 4 0.0000 0.0000 0.0000 -3.0947 0.0000 0.0000
# 5 0.0000 0.0000 0.0000 0.0000 45.8180 0.0000
# 6 0.0000 0.0000 0.0000 0.0000 0.0000 -11.7258
#
#
#
# Elastic Compliance Matrix: (Units=1/GPa)
#
#
# Indices 1 2 3 4 5 6 
#
# 1 0.005742 0.001117 -0.003222 0.000000 0.000000 0.000000
# 2 0.001117 0.007409 -0.001676 0.000000 0.000000 0.000000
# 3 -0.003222 -0.001676 0.005661 0.000000 0.000000 0.000000
# 4 0.000000 0.000000 0.000000 -0.323134 0.000000 0.000000
# 5 0.000000 0.000000 0.000000 0.000000 0.021825 0.000000
# 6 0.000000 0.000000 0.000000 0.000000 0.000000 -0.085282
#
#
# Mechanical properties :
#
#
# Convention : Reuss Voigt Hill
#
# Bulk Modulus (GPa) = 88.87914 113.98440 101.43177
# Shear Modulus (GPa) = -14.02650 39.12263 12.54806
#
# Velocity S-wave (km/s) = -2.28489 3.81597 2.16112
# Velocity P-wave (km/s) = 5.11079 7.86390 6.63178
#
# Compressibility (1/GPa) = 0.01125123
#
# Stress axis : x y z
#
# Youngs Moduli (GPa) = 174.16391 134.96542 176.65062
#
# Poissons Ratio (x) = -0.15078 0.56913
# Poissons Ratio (y) = -0.19457 0.29602
# Poissons Ratio (z) = 0.56112 0.22616
#
# Static dielectric constant tensor:
#      x y z
#    x 2.088100 0.000000 0.000000 
#    y 0.000000 -5.207760 0.000000 
#    z 0.000000 0.000000 1.950500 
# 
# From -- ./inp_files/30733.got.cif
#   From: 2010.05.17/outbox.cif.g08.bks.cpg/sg66_16_cif.got.tgz:30733.got - 2010.06.03 17:51:23.
