data_PCOD9498880
_publ_section_title
;
Structure prediction by ZEFSAII (Michael W. Deem and Ramdas Pophale) SiO2 
 PCOD9498880
Probable space group: C C C M
;
_chemical_formula_sum "Si O2"
_cell_formula_units_Z 88
_cell_length_a 24.756349
_cell_length_b 6.521968
_cell_length_c 28.655390
_cell_angle_alpha 90.000000
_cell_angle_beta 90.000000
_cell_angle_gamma 90.000000
_cell_volume 4626.702593
_symmetry_space_group_name_H-M "C C C M"
_symmetry_group_IT_number 66
_symmetry_cell_setting 'orthorhombic'
loop_
_space_group_symop_operation_xyz
x,y,z
-x,-y,z
x,-y,1/2-z
-x,y,1/2-z
-x,-y,-z
x,y,-z
-x,y,1/2+z
x,-y,1/2+z
1/2+x,1/2+y,z
1/2-x,1/2-y,z
1/2+x,1/2-y,1/2-z
1/2-x,1/2+y,1/2-z
1/2-x,1/2-y,-z
1/2+x,1/2+y,-z
1/2-x,1/2+y,1/2+z
1/2+x,1/2-y,1/2+z
loop_
_atom_site_type_symbol
_atom_site_label
_atom_site_fract_x
_atom_site_fract_y
_atom_site_fract_z
Si Si1 0.390119 0.623477 0.796960
Si Si2 0.060332 0.414409 0.631204
Si Si3 0.438221 0.423625 0.445680
Si Si4 0.364776 0.689618 0.380010
Si Si5 0.250000 0.250000 0.130954
Si Si6 0.789340 0.582411 0.701168
O O1 0.404933 0.500000 0.750000
O O2 0.433977 0.756676 0.825231
O O3 0.368935 0.455514 0.834102
O O4 0.343960 0.794919 0.787557
O O5 0.068478 0.282571 0.584363
O O6 0.105531 0.593853 0.632018
O O7 0.000000 0.500000 0.631537
O O8 0.500000 0.500000 0.441684
O O9 0.425596 0.395700 0.500000
O O10 0.401164 0.590733 0.420445
O O11 0.302190 0.672980 0.396670
O O12 0.216148 0.399401 0.165175
O O13 0.766792 0.500000 0.750000
O O14 0.750000 0.750000 0.680116
#
# Coordination Sequence:
#
# PCOD9498880 Si02
#       6
#    16  16  16  16   8  16
#     4  11  24  39  60  88 128 172 222 264 311 370
#     4  11  23  41  66  92 129 166 214 267 323 391
#     4  10  22  42  71 100 123 154 210 277 333 388
#     4  11  23  41  62  93 130 166 212 264 320 385
#     4  12  22  36  59  90 124 172 208 254 323 384
#     4  12  21  34  56  87 117 159 223 273 302 350
#
# _framework density 19.020026000000001
#
# number of rings (size 3 to 8) (size 9 to 14) (size 15 to 20)
#    0.000    0.909    6.364    1.636    0.000    1.091 
#    0.000    3.182    0.000    1.091    0.000    0.000 
#    0.000    0.000    0.000    0.000    0.000    0.000 
#
# Total GULP energy -245210.937907 kJ/mol
# GULP energy per Si atom -5572.975862 kJ/mol
# Density = 1.897674 g / cm^3
# Si number density = 19.020026 Si / 1000 Ang^3
#
#
#
# Elastic Constant Matrix: (Units=GPa)
#
#
# Indices 1 2 3 4 5 6 
#
# 1 107.7612 37.3083 51.8628 0.0000 0.0000 0.0000
# 2 37.3083 105.5755 40.7324 0.0000 0.0000 0.0000
# 3 51.8628 40.7324 101.2688 0.0000 0.0000 0.0000
# 4 0.0000 0.0000 0.0000 11.5348 0.0000 0.0000
# 5 0.0000 0.0000 0.0000 0.0000 8.1161 0.0000
# 6 0.0000 0.0000 0.0000 0.0000 0.0000 24.7881
#
#
#
# Elastic Compliance Matrix: (Units=1/GPa)
#
#
# Indices 1 2 3 4 5 6 
#
# 1 0.012793 -0.002359 -0.005603 0.000000 0.000000 0.000000
# 2 -0.002359 0.011647 -0.003476 0.000000 0.000000 0.000000
# 3 -0.005603 -0.003476 0.014142 0.000000 0.000000 0.000000
# 4 0.000000 0.000000 0.000000 0.086694 0.000000 0.000000
# 5 0.000000 0.000000 0.000000 0.000000 0.123211 0.000000
# 6 0.000000 0.000000 0.000000 0.000000 0.000000 0.040342
#
#
# Mechanical properties :
#
#
# Convention : Reuss Voigt Hill
#
# Bulk Modulus (GPa) = 63.67201 63.82362 63.74782
# Shear Modulus (GPa) = 15.77577 21.20126 18.48851
#
# Velocity S-wave (km/s) = 2.88311 3.34231 3.12116
# Velocity P-wave (km/s) = 6.68072 6.96588 6.82479
#
# Compressibility (1/GPa) = 0.01570549
#
# Stress axis : x y z
#
# Youngs Moduli (GPa) = 78.16749 85.86032 70.70964
#
# Poissons Ratio (x) = 0.20256 0.39617
# Poissons Ratio (y) = 0.18441 0.24581
# Poissons Ratio (z) = 0.43796 0.29848
#
# Static dielectric constant tensor:
#      x y z
#    x 1.744340 0.000000 0.000000 
#    y 0.000000 1.809380 0.000000 
#    z 0.000000 0.000000 1.616490 
# 
# From -- ./inp_files/70546.got.cif
#   From: 2010.05.17/outbox.cif.g08.bks.cpg/sg66_36_cif.got.tgz:70546.got - 2010.06.03 17:51:23.
