data_PCOD9498626
_publ_section_title
;
Structure prediction by ZEFSAII (Michael W. Deem and Ramdas Pophale) SiO2 
 PCOD9498626
Probable space group: C C C M
;
_chemical_formula_sum "Si O2"
_cell_formula_units_Z 52
_cell_length_a 31.682068
_cell_length_b 7.781389
_cell_length_c 9.313257
_cell_angle_alpha 90.000000
_cell_angle_beta 90.000000
_cell_angle_gamma 90.000000
_cell_volume 2296.001862
_symmetry_space_group_name_H-M "C C C M"
_symmetry_group_IT_number 66
_symmetry_cell_setting 'orthorhombic'
loop_
_space_group_symop_operation_xyz
x,y,z
-x,-y,z
x,-y,1/2-z
-x,y,1/2-z
-x,-y,-z
x,y,-z
-x,y,1/2+z
x,-y,1/2+z
1/2+x,1/2+y,z
1/2-x,1/2-y,z
1/2+x,1/2-y,1/2-z
1/2-x,1/2+y,1/2-z
1/2-x,1/2-y,-z
1/2+x,1/2+y,-z
1/2-x,1/2+y,1/2+z
1/2+x,1/2-y,1/2+z
loop_
_atom_site_type_symbol
_atom_site_label
_atom_site_fract_x
_atom_site_fract_y
_atom_site_fract_z
Si Si1 0.126229 0.651875 0.000000
Si Si2 0.182987 0.500000 0.750000
Si Si3 0.683441 0.500000 0.250000
Si Si4 0.750000 0.750000 0.249974
Si Si5 0.555861 0.139382 0.500000
Si Si6 0.000000 0.500000 0.750000
Si Si7 0.123285 0.940578 0.500000
O O1 0.153784 0.598973 0.138136
O O2 0.086231 0.526874 0.000000
O O3 0.114382 0.853528 0.000000
O O4 0.216362 0.372399 0.828054
O O5 0.716407 0.627303 0.328782
O O6 0.652696 0.410218 0.362228
O O7 0.527806 0.117676 0.356870
O O8 0.583985 0.311708 0.500000
#
# Coordination Sequence:
#
# PCOD9498626 Si02
#       7
#     8   8   8   8   8   4   8
#     4  12  25  46  71 108 138 193 236 301 346 438
#     4  11  23  40  64  97 146 196 256 295 360 392
#     4  11  24  42  65 103 142 198 254 295 357 400
#     4  10  22  38  62  96 144 200 248 318 338 398
#     4  11  26  50  82 107 149 178 225 290 364 452
#     4  10  26  54  80 118 140 180 220 286 380 450
#     4  12  27  46  73 108 145 191 247 295 356 438
#
# _framework density 22.648064000000002
#
# number of rings (size 3 to 8) (size 9 to 14) (size 15 to 20)
#    0.000    0.923    3.077    2.769    4.308    7.385 
#    0.000    4.615    0.000    0.000    0.000    0.000 
#    0.000    0.000    0.000    0.000    0.000    0.000 
#
# Total GULP energy -144993.019673 kJ/mol
# GULP energy per Si atom -5576.654603 kJ/mol
# Density = 2.259652 g / cm^3
# Si number density = 22.648064 Si / 1000 Ang^3
#
#
#
# Elastic Constant Matrix: (Units=GPa)
#
#
# Indices 1 2 3 4 5 6 
#
# 1 175.6535 101.6740 84.9698 0.0000 0.0000 0.0000
# 2 101.6740 167.3726 53.7243 0.0000 0.0000 0.0000
# 3 84.9698 53.7243 153.4152 0.0000 0.0000 0.0000
# 4 0.0000 0.0000 0.0000 20.3621 0.0000 0.0000
# 5 0.0000 0.0000 0.0000 0.0000 45.8828 0.0000
# 6 0.0000 0.0000 0.0000 0.0000 0.0000 61.6331
#
#
#
# Elastic Compliance Matrix: (Units=1/GPa)
#
#
# Indices 1 2 3 4 5 6 
#
# 1 0.010664 -0.005162 -0.004098 0.000000 0.000000 0.000000
# 2 -0.005162 0.009230 -0.000373 0.000000 0.000000 0.000000
# 3 -0.004098 -0.000373 0.008919 0.000000 0.000000 0.000000
# 4 0.000000 0.000000 0.000000 0.049111 0.000000 0.000000
# 5 0.000000 0.000000 0.000000 0.000000 0.021795 0.000000
# 6 0.000000 0.000000 0.000000 0.000000 0.000000 0.016225
#
#
# Mechanical properties :
#
#
# Convention : Reuss Voigt Hill
#
# Bulk Modulus (GPa) = 104.76490 108.57527 106.67008
# Shear Modulus (GPa) = 36.12896 42.64713 39.38805
#
# Velocity S-wave (km/s) = 3.99837 4.34410 4.17482
# Velocity P-wave (km/s) = 8.22643 8.55605 8.39286
#
# Compressibility (1/GPa) = 0.00954518
#
# Stress axis : x y z
#
# Youngs Moduli (GPa) = 93.77620 108.33673 112.12228
#
# Poissons Ratio (x) = 0.55927 0.45951
# Poissons Ratio (y) = 0.48411 0.04184
# Poissons Ratio (z) = 0.38433 0.04043
#
# Static dielectric constant tensor:
#      x y z
#    x 1.802820 0.000000 0.000000 
#    y 0.000000 2.018400 0.000000 
#    z 0.000000 0.000000 1.863800 
# 
# From -- ./inp_files/20322.got.cif
#   From: 2010.05.17/outbox.cif.g08.bks.cpg/sg66_11_cif.got.tgz:20322.got - 2010.06.03 17:51:23.
