data_PCOD9498949
_publ_section_title
;
Structure prediction by ZEFSAII (Michael W. Deem and Ramdas Pophale) SiO2 
 PCOD9498949
Probable space group: C C C M
;
_chemical_formula_sum "Si O2"
_cell_formula_units_Z 64
_cell_length_a 5.675846
_cell_length_b 20.470367
_cell_length_c 26.236647
_cell_angle_alpha 90.000000
_cell_angle_beta 90.000000
_cell_angle_gamma 90.000000
_cell_volume 3048.348139
_symmetry_space_group_name_H-M "C C C M"
_symmetry_group_IT_number 66
_symmetry_cell_setting 'orthorhombic'
loop_
_space_group_symop_operation_xyz
x,y,z
-x,-y,z
x,-y,1/2-z
-x,y,1/2-z
-x,-y,-z
x,y,-z
-x,y,1/2+z
x,-y,1/2+z
1/2+x,1/2+y,z
1/2-x,1/2-y,z
1/2+x,1/2-y,1/2-z
1/2-x,1/2+y,1/2-z
1/2-x,1/2-y,-z
1/2+x,1/2+y,-z
1/2-x,1/2+y,1/2+z
1/2+x,1/2-y,1/2+z
loop_
_atom_site_type_symbol
_atom_site_label
_atom_site_fract_x
_atom_site_fract_y
_atom_site_fract_z
Si Si1 0.500000 0.000000 0.168301
Si Si2 0.334040 0.394144 0.295157
Si Si3 0.250000 0.250000 0.302343
Si Si4 0.817215 0.104558 0.390449
Si Si5 0.758014 0.958771 0.000000
Si Si6 0.250000 0.750000 0.360959
O O1 0.365085 0.946758 0.200301
O O2 0.668241 0.954035 0.134700
O O3 0.500000 0.416462 0.250000
O O4 0.251943 0.321761 0.277919
O O5 0.454508 0.393346 0.352012
O O6 0.502496 0.251482 0.330717
O O7 0.797153 0.084386 0.449335
O O8 0.733842 0.179912 0.388528
O O9 0.500000 0.000000 0.000000
O O10 0.000000 0.000000 0.000000
#
# Coordination Sequence:
#
# PCOD9498949 Si02
#       6
#     8  16   8  16   8   8
#     4  12  22  46  70 100 140 189 234 305 360 434
#     4  11  26  44  74 105 148 191 243 302 367 440
#     4  10  22  47  70 104 142 198 238 289 360 444
#     4  11  25  44  72 105 147 188 245 302 364 438
#     4  12  26  45  74 107 142 197 245 305 369 432
#     4  10  22  44  74 105 144 187 242 298 358 440
#
# _framework density 20.994975
#
# number of rings (size 3 to 8) (size 9 to 14) (size 15 to 20)
#    0.000    1.000    3.750    2.250    0.000    8.500 
#    0.000    0.000    0.000    5.250    0.000    0.000 
#    0.000    0.000    0.000    0.000    0.000    0.000 
#
# Total GULP energy -178156.284836 kJ/mol
# GULP energy per Si atom -5567.383901 kJ/mol
# Density = 2.094719 g / cm^3
# Si number density = 20.994975 Si / 1000 Ang^3
#
#
#
# Elastic Constant Matrix: (Units=GPa)
#
#
# Indices 1 2 3 4 5 6 
#
# 1 83.3318 19.7800 30.4627 0.0000 0.0000 0.0000
# 2 19.7800 151.6534 18.5448 0.0000 0.0000 0.0000
# 3 30.4627 18.5448 105.8666 0.0000 0.0000 0.0000
# 4 0.0000 0.0000 0.0000 73.9046 0.0000 0.0000
# 5 0.0000 0.0000 0.0000 0.0000 12.0293 0.0000
# 6 0.0000 0.0000 0.0000 0.0000 0.0000 43.4531
#
#
#
# Elastic Compliance Matrix: (Units=1/GPa)
#
#
# Indices 1 2 3 4 5 6 
#
# 1 0.013669 -0.001330 -0.003700 0.000000 0.000000 0.000000
# 2 -0.001330 0.006868 -0.000820 0.000000 0.000000 0.000000
# 3 -0.003700 -0.000820 0.010654 0.000000 0.000000 0.000000
# 4 0.000000 0.000000 0.000000 0.013531 0.000000 0.000000
# 5 0.000000 0.000000 0.000000 0.000000 0.083130 0.000000
# 6 0.000000 0.000000 0.000000 0.000000 0.000000 0.023013
#
#
# Mechanical properties :
#
#
# Convention : Reuss Voigt Hill
#
# Bulk Modulus (GPa) = 51.31006 53.15853 52.23429
# Shear Modulus (GPa) = 29.57479 44.01502 36.79490
#
# Velocity S-wave (km/s) = 3.75728 4.58367 4.19090
# Velocity P-wave (km/s) = 6.58143 7.30671 6.95353
#
# Compressibility (1/GPa) = 0.01948936
#
# Stress axis : x y z
#
# Youngs Moduli (GPa) = 73.16051 145.60703 93.85964
#
# Poissons Ratio (x) = 0.19370 0.34728
# Poissons Ratio (y) = 0.09733 0.07699
# Poissons Ratio (z) = 0.27070 0.11943
#
# Static dielectric constant tensor:
#      x y z
#    x 1.776400 0.000000 0.000000 
#    y 0.000000 2.421030 0.000000 
#    z 0.000000 0.000000 1.779020 
# 
# From -- ./inp_files/61304.got.cif
#   From: 2010.05.17/outbox.cif.g08.bks.cpg/sg66_31_cif.got.tgz:61304.got - 2010.06.03 17:51:23.
