data_PCOD9498952
_publ_section_title
;
Structure prediction by ZEFSAII (Michael W. Deem and Ramdas Pophale) SiO2 
 PCOD9498952
Probable space group: C C C M
;
_chemical_formula_sum "Si O2"
_cell_formula_units_Z 60
_cell_length_a 22.847083
_cell_length_b 5.088889
_cell_length_c 25.431934
_cell_angle_alpha 90.000000
_cell_angle_beta 90.000000
_cell_angle_gamma 90.000000
_cell_volume 2956.876089
_symmetry_space_group_name_H-M "C C C M"
_symmetry_group_IT_number 66
_symmetry_cell_setting 'orthorhombic'
loop_
_space_group_symop_operation_xyz
x,y,z
-x,-y,z
x,-y,1/2-z
-x,y,1/2-z
-x,-y,-z
x,y,-z
-x,y,1/2+z
x,-y,1/2+z
1/2+x,1/2+y,z
1/2-x,1/2-y,z
1/2+x,1/2-y,1/2-z
1/2-x,1/2+y,1/2-z
1/2-x,1/2-y,-z
1/2+x,1/2+y,-z
1/2-x,1/2+y,1/2+z
1/2+x,1/2-y,1/2+z
loop_
_atom_site_type_symbol
_atom_site_label
_atom_site_fract_x
_atom_site_fract_y
_atom_site_fract_z
Si Si1 0.623909 0.378533 0.595163
Si Si2 0.685559 0.132684 0.120663
Si Si3 0.402191 0.649320 0.197776
Si Si4 0.541412 0.249467 0.500000
Si Si5 0.500000 0.000000 0.750000
O O1 0.651571 0.663060 0.581980
O O2 0.590046 0.441563 0.649949
O O3 0.581712 0.266517 0.551360
O O4 0.675232 0.166161 0.604297
O O5 0.750000 0.250000 0.125789
O O6 0.649493 0.169699 0.174910
O O7 0.383374 0.500000 0.250000
O O8 0.458650 0.817236 0.213958
O O9 0.500000 0.500000 0.500000
O O10 0.500000 0.000000 0.500000
#
# Coordination Sequence:
#
# PCOD9498952 Si02
#       5
#    16  16  16   8   4
#     4  10  24  45  66 102 135 176 234 286 341 419
#     4  10  22  45  69  99 139 180 233 287 347 412
#     4  10  24  41  67  96 143 175 235 278 354 408
#     4  12  26  46  71 102 139 188 232 289 349 412
#     4  12  22  44  64 108 140 198 220 296 352 428
#
# _framework density 20.291685000000001
#
# number of rings (size 3 to 8) (size 9 to 14) (size 15 to 20)
#    1.600    0.000    0.000    4.400    0.000    4.267 
#    9.600    4.000    0.000    0.000    0.000    0.000 
#    0.000    0.000    0.000    0.000    0.000    0.000 
#
# Total GULP energy -167224.232443 kJ/mol
# GULP energy per Si atom -5574.141081 kJ/mol
# Density = 2.024550 g / cm^3
# Si number density = 20.291685 Si / 1000 Ang^3
#
#
#
# Elastic Constant Matrix: (Units=GPa)
#
#
# Indices 1 2 3 4 5 6 
#
# 1 118.0858 35.0170 41.9222 0.0000 0.0000 0.0000
# 2 35.0170 117.5759 24.8055 0.0000 0.0000 0.0000
# 3 41.9222 24.8055 105.4271 0.0000 0.0000 0.0000
# 4 0.0000 0.0000 0.0000 22.9072 0.0000 0.0000
# 5 0.0000 0.0000 0.0000 0.0000 32.2551 0.0000
# 6 0.0000 0.0000 0.0000 0.0000 0.0000 31.0979
#
#
#
# Elastic Compliance Matrix: (Units=1/GPa)
#
#
# Indices 1 2 3 4 5 6 
#
# 1 0.010443 -0.002351 -0.003600 0.000000 0.000000 0.000000
# 2 -0.002351 0.009479 -0.001295 0.000000 0.000000 0.000000
# 3 -0.003600 -0.001295 0.011221 0.000000 0.000000 0.000000
# 4 0.000000 0.000000 0.000000 0.043654 0.000000 0.000000
# 5 0.000000 0.000000 0.000000 0.000000 0.031003 0.000000
# 6 0.000000 0.000000 0.000000 0.000000 0.000000 0.032157
#
#
# Mechanical properties :
#
#
# Convention : Reuss Voigt Hill
#
# Bulk Modulus (GPa) = 60.05405 60.50867 60.28136
# Shear Modulus (GPa) = 31.64567 33.20831 32.42699
#
# Velocity S-wave (km/s) = 3.95338 4.04982 4.00189
# Velocity P-wave (km/s) = 7.10624 7.19390 7.15020
#
# Compressibility (1/GPa) = 0.01665167
#
# Stress axis : x y z
#
# Youngs Moduli (GPa) = 95.75364 105.50093 89.11569
#
# Poissons Ratio (x) = 0.24802 0.32078
# Poissons Ratio (y) = 0.22511 0.11544
# Poissons Ratio (z) = 0.34468 0.13666
#
# Static dielectric constant tensor:
#      x y z
#    x 1.707870 0.000000 0.000000 
#    y 0.000000 1.755540 0.000000 
#    z 0.000000 0.000000 1.713970 
# 
# From -- ./inp_files/69727.got.cif
#   From: 2010.05.17/outbox.cif.g08.bks.cpg/sg66_35_cif.got.tgz:69727.got - 2010.06.03 17:51:23.
