data_PCOD9498141
_publ_section_title
;
Structure prediction by ZEFSAII (Michael W. Deem and Ramdas Pophale) SiO2 
 PCOD9498141
Probable space group: C C C M
;
_chemical_formula_sum "Si O2"
_cell_formula_units_Z 88
_cell_length_a 9.557445
_cell_length_b 24.447473
_cell_length_c 20.516796
_cell_angle_alpha 90.000000
_cell_angle_beta 90.000000
_cell_angle_gamma 90.000000
_cell_volume 4793.859737
_symmetry_space_group_name_H-M "C C C M"
_symmetry_group_IT_number 66
_symmetry_cell_setting 'orthorhombic'
loop_
_space_group_symop_operation_xyz
x,y,z
-x,-y,z
x,-y,1/2-z
-x,y,1/2-z
-x,-y,-z
x,y,-z
-x,y,1/2+z
x,-y,1/2+z
1/2+x,1/2+y,z
1/2-x,1/2-y,z
1/2+x,1/2-y,1/2-z
1/2-x,1/2+y,1/2-z
1/2-x,1/2-y,-z
1/2+x,1/2+y,-z
1/2-x,1/2+y,1/2+z
1/2+x,1/2-y,1/2+z
loop_
_atom_site_type_symbol
_atom_site_label
_atom_site_fract_x
_atom_site_fract_y
_atom_site_fract_z
Si Si1 0.954103 0.271684 0.612752
Si Si2 0.782207 0.338823 0.159470
Si Si3 0.013009 0.153642 0.427869
Si Si4 0.250000 0.750000 0.270454
Si Si5 0.994039 0.436363 0.828111
Si Si6 0.794888 0.378132 0.424989
O O1 0.884263 0.255143 0.682097
O O2 0.852663 0.316294 0.581077
O O3 0.105646 0.299168 0.623481
O O4 0.969557 0.217130 0.572207
O O5 0.637844 0.348684 0.122864
O O6 0.751438 0.304742 0.225918
O O7 0.860451 0.397199 0.160410
O O8 0.060912 0.137203 0.500000
O O9 0.870760 0.121465 0.411966
O O10 0.119726 0.409376 0.869195
O O11 0.000000 0.500000 0.847119
O O12 0.000000 0.434462 0.750000
O O13 0.819695 0.396644 0.500000
#
# Coordination Sequence:
#
# PCOD9498141 Si02
#       6
#    16  16  16   8  16  16
#     4  11  20  34  56  84 126 166 199 238 293 374
#     4  11  23  35  57  92 122 160 201 255 300 366
#     4  11  22  37  55  86 127 166 201 247 305 366
#     4  12  20  34  56  90 126 160 206 244 310 374
#     4  10  23  45  67  89 118 159 211 265 315 368
#     4  10  21  38  62  90 123 167 210 250 303 373
#
# _framework density 18.356815000000001
#
# number of rings (size 3 to 8) (size 9 to 14) (size 15 to 20)
#    0.000    1.273    3.636    3.273    0.000    6.182 
#    0.000    0.909    0.000    4.364    0.000    0.000 
#    0.000    0.000    0.000    0.000    0.000    0.000 
#
# Total GULP energy -245345.137090 kJ/mol
# GULP energy per Si atom -5576.025843 kJ/mol
# Density = 1.831503 g / cm^3
# Si number density = 18.356815 Si / 1000 Ang^3
#
#
#
# Elastic Constant Matrix: (Units=GPa)
#
#
# Indices 1 2 3 4 5 6 
#
# 1 104.4767 35.3766 60.4455 0.0000 0.0000 0.0000
# 2 35.3766 98.0181 33.0146 0.0000 0.0000 0.0000
# 3 60.4455 33.0146 99.0278 0.0000 0.0000 0.0000
# 4 0.0000 0.0000 0.0000 -16.4659 0.0000 0.0000
# 5 0.0000 0.0000 0.0000 0.0000 0.2867 0.0000
# 6 0.0000 0.0000 0.0000 0.0000 0.0000 6.2092
#
#
#
# Elastic Compliance Matrix: (Units=1/GPa)
#
#
# Indices 1 2 3 4 5 6 
#
# 1 0.015404 -0.002695 -0.008504 0.000000 0.000000 0.000000
# 2 -0.002695 0.011964 -0.002344 0.000000 0.000000 0.000000
# 3 -0.008504 -0.002344 0.016070 0.000000 0.000000 0.000000
# 4 0.000000 0.000000 0.000000 -0.060731 0.000000 0.000000
# 5 0.000000 0.000000 0.000000 0.000000 3.488217 0.000000
# 6 0.000000 0.000000 0.000000 0.000000 0.000000 0.161051
#
#
# Mechanical properties :
#
#
# Convention : Reuss Voigt Hill
#
# Bulk Modulus (GPa) = 61.15071 62.13288 61.64180
# Shear Modulus (GPa) = 1.36444 9.51839 5.44141
#
# Velocity S-wave (km/s) = 0.86308 2.27958 1.72357
# Velocity P-wave (km/s) = 5.86326 6.39135 6.13299
#
# Compressibility (1/GPa) = 0.01635304
#
# Stress axis : x y z
#
# Youngs Moduli (GPa) = 64.91750 83.58156 62.22699
#
# Poissons Ratio (x) = 0.22528 0.52917
# Poissons Ratio (y) = 0.17497 0.14583
# Poissons Ratio (z) = 0.55205 0.19588
#
# Static dielectric constant tensor:
#      x y z
#    x 1.642630 0.000000 0.000000 
#    y 0.000000 1.628420 0.000000 
#    z 0.000000 0.000000 1.649390 
# 
# From -- ./inp_files/47182.got.cif
#   From: 2010.05.17/outbox.cif.g08.bks.cpg/sg66_24_cif.got.tgz:47182.got - 2010.06.03 17:51:23.
