data_PCOD9498023
_publ_section_title
;
Structure prediction by ZEFSAII (Michael W. Deem and Ramdas Pophale) SiO2 
 PCOD9498023
Probable space group: C C C M
;
_chemical_formula_sum "Si O2"
_cell_formula_units_Z 120
_cell_length_a 17.264991
_cell_length_b 18.089161
_cell_length_c 20.231208
_cell_angle_alpha 90.000000
_cell_angle_beta 90.000000
_cell_angle_gamma 90.000000
_cell_volume 6318.392423
_symmetry_space_group_name_H-M "C C C M"
_symmetry_group_IT_number 66
_symmetry_cell_setting 'orthorhombic'
loop_
_space_group_symop_operation_xyz
x,y,z
-x,-y,z
x,-y,1/2-z
-x,y,1/2-z
-x,-y,-z
x,y,-z
-x,y,1/2+z
x,-y,1/2+z
1/2+x,1/2+y,z
1/2-x,1/2-y,z
1/2+x,1/2-y,1/2-z
1/2-x,1/2+y,1/2-z
1/2-x,1/2-y,-z
1/2+x,1/2+y,-z
1/2-x,1/2+y,1/2+z
1/2+x,1/2-y,1/2+z
loop_
_atom_site_type_symbol
_atom_site_label
_atom_site_fract_x
_atom_site_fract_y
_atom_site_fract_z
Si Si1 0.164008 0.234120 0.175882
Si Si2 0.226609 0.334948 0.572754
Si Si3 0.332144 0.000000 0.750000
Si Si4 0.544265 0.156073 0.925444
Si Si5 0.967257 0.182343 0.576984
Si Si6 0.703485 0.616369 0.708270
Si Si7 0.036758 0.920283 0.815604
Si Si8 0.937739 0.616201 0.809005
O O1 0.250000 0.250000 0.148477
O O2 0.110406 0.193906 0.121098
O O3 0.182235 0.182916 0.240610
O O4 0.118211 0.310787 0.192227
O O5 0.240329 0.369891 0.500000
O O6 0.250000 0.250000 0.566002
O O7 0.135670 0.344334 0.589619
O O8 0.276457 0.359595 0.634455
O O9 0.275476 0.933766 0.770814
O O10 0.388264 0.958584 0.698486
O O11 0.514021 0.240590 0.923307
O O12 0.489303 0.115026 0.874530
O O13 0.534419 0.128492 0.000000
O O14 0.952976 0.162222 0.500000
O O15 0.018836 0.125620 0.618965
O O16 0.625810 0.570115 0.701028
O O17 0.000000 0.882202 0.750000
O O18 0.000000 0.000000 0.822920
O O19 0.000000 0.622632 0.750000
#
# Coordination Sequence:
#
# PCOD9498023 Si02
#       8
#    16  16   8  16  16  16  16  16
#     4  11  23  39  64  94 121 161 213 257 312 364
#     4  10  21  37  62  95 126 158 200 257 315 365
#     4  12  25  42  59  92 132 164 208 258 309 380
#     4   9  20  39  62  91 124 160 205 254 309 364
#     4  10  22  39  62  91 124 162 205 258 308 367
#     4  12  24  39  65  90 127 162 206 257 315 367
#     4  11  23  39  61  88 122 164 206 249 314 377
#     4  11  24  39  64  94 124 162 212 258 307 363
#
# _framework density 18.992173000000001
#
# number of rings (size 3 to 8) (size 9 to 14) (size 15 to 20)
#    0.000    1.333    2.667    3.000    5.600    2.133 
#    0.000    0.667    0.000    3.200    0.000    0.000 
#    0.000    0.000    0.000    0.000    0.000    0.000 
#
# Total GULP energy -334643.581503 kJ/mol
# GULP energy per Si atom -5577.393025 kJ/mol
# Density = 1.894895 g / cm^3
# Si number density = 18.992173 Si / 1000 Ang^3
#
#
#
# Elastic Constant Matrix: (Units=GPa)
#
#
# Indices 1 2 3 4 5 6 
#
# 1 112.0746 24.2358 53.1996 0.0000 0.0000 0.0000
# 2 24.2358 46.8115 35.5220 0.0000 0.0000 0.0000
# 3 53.1996 35.5220 127.1942 0.0000 0.0000 0.0000
# 4 0.0000 0.0000 0.0000 13.2105 0.0000 0.0000
# 5 0.0000 0.0000 0.0000 0.0000 34.1326 0.0000
# 6 0.0000 0.0000 0.0000 0.0000 0.0000 26.3785
#
#
#
# Elastic Compliance Matrix: (Units=1/GPa)
#
#
# Indices 1 2 3 4 5 6 
#
# 1 0.011436 -0.002907 -0.003971 0.000000 0.000000 0.000000
# 2 -0.002907 0.027846 -0.006561 0.000000 0.000000 0.000000
# 3 -0.003971 -0.006561 0.011355 0.000000 0.000000 0.000000
# 4 0.000000 0.000000 0.000000 0.075697 0.000000 0.000000
# 5 0.000000 0.000000 0.000000 0.000000 0.029297 0.000000
# 6 0.000000 0.000000 0.000000 0.000000 0.000000 0.037910
#
#
# Mechanical properties :
#
#
# Convention : Reuss Voigt Hill
#
# Bulk Modulus (GPa) = 42.08957 56.88833 49.48895
# Shear Modulus (GPa) = 21.89711 26.28585 24.09148
#
# Velocity S-wave (km/s) = 3.39920 3.72430 3.56546
# Velocity P-wave (km/s) = 6.13317 6.96509 6.56232
#
# Compressibility (1/GPa) = 0.02375886
#
# Stress axis : x y z
#
# Youngs Moduli (GPa) = 87.43937 35.91190 88.06496
#
# Poissons Ratio (x) = 0.10441 0.34974
# Poissons Ratio (y) = 0.25422 0.57776
# Poissons Ratio (z) = 0.34726 0.23560
#
# Static dielectric constant tensor:
#      x y z
#    x 1.664670 0.000000 0.000000 
#    y 0.000000 1.665870 0.000000 
#    z 0.000000 0.000000 1.707310 
# 
# From -- ./inp_files/42054.got.cif
#   From: 2010.05.17/outbox.cif.g08.bks.cpg/sg66_22_cif.got.tgz:42054.got - 2010.06.03 17:51:23.
