data_PCOD9498879
_publ_section_title
;
Structure prediction by ZEFSAII (Michael W. Deem and Ramdas Pophale) SiO2 
 PCOD9498879
Probable space group: C C C M
;
_chemical_formula_sum "Si O2"
_cell_formula_units_Z 64
_cell_length_a 16.336413
_cell_length_b 11.223950
_cell_length_c 13.588197
_cell_angle_alpha 90.000000
_cell_angle_beta 90.000000
_cell_angle_gamma 90.000000
_cell_volume 2491.519337
_symmetry_space_group_name_H-M "C C C M"
_symmetry_group_IT_number 66
_symmetry_cell_setting 'orthorhombic'
loop_
_space_group_symop_operation_xyz
x,y,z
-x,-y,z
x,-y,1/2-z
-x,y,1/2-z
-x,-y,-z
x,y,-z
-x,y,1/2+z
x,-y,1/2+z
1/2+x,1/2+y,z
1/2-x,1/2-y,z
1/2+x,1/2-y,1/2-z
1/2-x,1/2+y,1/2-z
1/2-x,1/2-y,-z
1/2+x,1/2+y,-z
1/2-x,1/2+y,1/2+z
1/2+x,1/2-y,1/2+z
loop_
_atom_site_type_symbol
_atom_site_label
_atom_site_fract_x
_atom_site_fract_y
_atom_site_fract_z
Si Si1 0.006512 0.137523 0.385533
Si Si2 0.060293 0.391474 0.881717
Si Si3 0.807374 0.104394 0.110411
Si Si4 0.242568 0.620583 0.327176
O O1 0.983266 0.129879 0.500000
O O2 0.104118 0.162908 0.380852
O O3 0.961397 0.256305 0.345942
O O4 0.000000 0.000000 0.348995
O O5 0.151937 0.423404 0.850201
O O6 0.000000 0.500000 0.853818
O O7 0.056976 0.385829 0.000000
O O8 0.756587 0.128702 0.209544
O O9 0.811300 0.961591 0.123445
O O10 0.774444 0.126843 0.000000
O O11 0.250000 0.750000 0.370968
#
# Coordination Sequence:
#
# PCOD9498879 Si02
#       4
#    16  16  16  16
#     4   9  18  37  67  98 131 179 234 286 345 415
#     4  10  22  42  70 104 142 184 232 292 355 413
#     4  10  23  43  66  98 140 182 231 289 350 418
#     4  11  24  43  69 104 138 181 237 289 350 418
#
# _framework density 25.687138000000001
#
# number of rings (size 3 to 8) (size 9 to 14) (size 15 to 20)
#    0.000    2.000    0.000    2.250    0.000    8.500 
#    0.000   18.750    0.000    2.250    0.000    8.750 
#    0.000    1.000    0.000    0.000    0.000    0.000 
#
# Total GULP energy -178723.689032 kJ/mol
# GULP energy per Si atom -5585.115282 kJ/mol
# Density = 2.562867 g / cm^3
# Si number density = 25.687138 Si / 1000 Ang^3
#
#
#
# Elastic Constant Matrix: (Units=GPa)
#
#
# Indices 1 2 3 4 5 6 
#
# 1 83.2010 2.5305 6.4840 0.0000 0.0000 0.0000
# 2 2.5305 116.7055 -4.9835 0.0000 0.0000 0.0000
# 3 6.4840 -4.9835 162.5848 0.0000 0.0000 0.0000
# 4 0.0000 0.0000 0.0000 -125.9391 0.0000 0.0000
# 5 0.0000 0.0000 0.0000 0.0000 24.6394 0.0000
# 6 0.0000 0.0000 0.0000 0.0000 0.0000 39.2175
#
#
#
# Elastic Compliance Matrix: (Units=1/GPa)
#
#
# Indices 1 2 3 4 5 6 
#
# 1 0.012066 -0.000283 -0.000490 0.000000 0.000000 0.000000
# 2 -0.000283 0.008586 0.000274 0.000000 0.000000 0.000000
# 3 -0.000490 0.000274 0.006179 0.000000 0.000000 0.000000
# 4 0.000000 0.000000 0.000000 -0.007940 0.000000 0.000000
# 5 0.000000 0.000000 0.000000 0.000000 0.040585 0.000000
# 6 0.000000 0.000000 0.000000 0.000000 0.000000 0.025499
#
#
# Mechanical properties :
#
#
# Convention : Reuss Voigt Hill
#
# Bulk Modulus (GPa) = 38.70721 41.17259 39.93990
# Shear Modulus (GPa) = 52.86403 11.48091 32.17247
#
# Velocity S-wave (km/s) = 4.54144 2.11642 3.54287
# Velocity P-wave (km/s) = 6.52694 4.69421 5.68492
#
# Compressibility (1/GPa) = 0.02583498
#
# Stress axis : x y z
#
# Youngs Moduli (GPa) = 82.87852 116.46289 161.84935
#
# Poissons Ratio (x) = 0.03291 0.07928
# Poissons Ratio (y) = 0.02342 -0.04442
# Poissons Ratio (z) = 0.04060 -0.03196
#
# Static dielectric constant tensor:
#      x y z
#    x 1.948940 0.000000 0.000000 
#    y 0.000000 2.199670 0.000000 
#    z 0.000000 0.000000 1.971310 
# 
# From -- ./inp_files/29574.got.cif
#   From: 2010.05.17/outbox.cif.g08.bks.cpg/sg66_15_cif.got.tgz:29574.got - 2010.06.03 17:51:23.
