data_PCOD9498573
_publ_section_title
;
Structure prediction by ZEFSAII (Michael W. Deem and Ramdas Pophale) SiO2 
 PCOD9498573
Probable space group: C C C M
;
_chemical_formula_sum "Si O2"
_cell_formula_units_Z 68
_cell_length_a 19.008584
_cell_length_b 6.079110
_cell_length_c 29.280522
_cell_angle_alpha 90.000000
_cell_angle_beta 90.000000
_cell_angle_gamma 90.000000
_cell_volume 3383.518716
_symmetry_space_group_name_H-M "C C C M"
_symmetry_group_IT_number 66
_symmetry_cell_setting 'orthorhombic'
loop_
_space_group_symop_operation_xyz
x,y,z
-x,-y,z
x,-y,1/2-z
-x,y,1/2-z
-x,-y,-z
x,y,-z
-x,y,1/2+z
x,-y,1/2+z
1/2+x,1/2+y,z
1/2-x,1/2-y,z
1/2+x,1/2-y,1/2-z
1/2-x,1/2+y,1/2-z
1/2-x,1/2-y,-z
1/2+x,1/2+y,-z
1/2-x,1/2+y,1/2+z
1/2+x,1/2-y,1/2+z
loop_
_atom_site_type_symbol
_atom_site_label
_atom_site_fract_x
_atom_site_fract_y
_atom_site_fract_z
Si Si1 0.567423 0.353039 0.814130
Si Si2 0.329109 0.328767 0.139900
Si Si3 0.323862 0.627352 0.950426
Si Si4 0.923937 0.562174 0.598183
Si Si5 0.000000 0.500000 0.750000
O O1 0.500000 0.500000 0.805278
O O2 0.634687 0.515923 0.821089
O O3 0.560817 0.243690 0.863433
O O4 0.553848 0.153465 0.779013
O O5 0.250000 0.250000 0.152333
O O6 0.323259 0.466121 0.092741
O O7 0.380311 0.127428 0.125078
O O8 0.250000 0.750000 0.951183
O O9 0.378871 0.820493 0.940346
O O10 0.336444 0.520678 0.000000
O O11 0.000000 0.500000 0.580017
#
# Coordination Sequence:
#
# PCOD9498573 Si02
#       5
#    16  16  16  16   4
#     4  11  22  39  67 102 123 158 213 260 319 397
#     4  11  22  39  64  98 127 174 219 263 316 387
#     4  10  22  37  58  92 132 177 225 270 317 370
#     4  11  21  39  61  94 125 168 217 264 319 377
#     4  12  22  40  68 110 118 160 198 278 324 394
#
# _framework density 20.097422000000002
#
# number of rings (size 3 to 8) (size 9 to 14) (size 15 to 20)
#    0.000    1.176    5.882    0.353    0.000    1.882 
#    0.000    1.176    0.000    0.000   85.647    0.000 
#    0.000    0.000    0.000    0.000    0.000    0.000 
#
# Total GULP energy -189467.391217 kJ/mol
# GULP energy per Si atom -5572.570330 kJ/mol
# Density = 2.005168 g / cm^3
# Si number density = 20.097422 Si / 1000 Ang^3
#
#
#
# Elastic Constant Matrix: (Units=GPa)
#
#
# Indices 1 2 3 4 5 6 
#
# 1 162.2670 46.7447 36.1970 0.0000 0.0000 0.0000
# 2 46.7447 79.3337 28.4717 0.0000 0.0000 0.0000
# 3 36.1970 28.4717 79.2353 0.0000 0.0000 0.0000
# 4 0.0000 0.0000 0.0000 25.0694 0.0000 0.0000
# 5 0.0000 0.0000 0.0000 0.0000 10.6600 0.0000
# 6 0.0000 0.0000 0.0000 0.0000 0.0000 28.4537
#
#
#
# Elastic Compliance Matrix: (Units=1/GPa)
#
#
# Indices 1 2 3 4 5 6 
#
# 1 0.007736 -0.003777 -0.002177 0.000000 0.000000 0.000000
# 2 -0.003777 0.016315 -0.004137 0.000000 0.000000 0.000000
# 3 -0.002177 -0.004137 0.015102 0.000000 0.000000 0.000000
# 4 0.000000 0.000000 0.000000 0.039889 0.000000 0.000000
# 5 0.000000 0.000000 0.000000 0.000000 0.093809 0.000000
# 6 0.000000 0.000000 0.000000 0.000000 0.000000 0.035145
#
#
# Mechanical properties :
#
#
# Convention : Reuss Voigt Hill
#
# Bulk Modulus (GPa) = 52.71194 60.40697 56.55946
# Shear Modulus (GPa) = 21.32174 26.79811 24.05993
#
# Velocity S-wave (km/s) = 3.26071 3.65555 3.46376
# Velocity P-wave (km/s) = 6.36093 6.92385 6.64835
#
# Compressibility (1/GPa) = 0.01897103
#
# Stress axis : x y z
#
# Youngs Moduli (GPa) = 129.25927 61.29230 66.21759
#
# Poissons Ratio (x) = 0.23151 0.14415
# Poissons Ratio (y) = 0.48823 0.27395
# Poissons Ratio (z) = 0.28139 0.25357
#
# Static dielectric constant tensor:
#      x y z
#    x 1.743580 0.000000 0.000000 
#    y 0.000000 2.003010 0.000000 
#    z 0.000000 0.000000 1.711430 
# 
# From -- ./inp_files/61348.got.cif
#   From: 2010.05.17/outbox.cif.g08.bks.cpg/sg66_31_cif.got.tgz:61348.got - 2010.06.03 17:51:23.
