data_PCOD9498347
_publ_section_title
;
Structure prediction by ZEFSAII (Michael W. Deem and Ramdas Pophale) SiO2 
 PCOD9498347
Probable space group: C C C M
;
_chemical_formula_sum "Si O2"
_cell_formula_units_Z 88
_cell_length_a 10.525947
_cell_length_b 21.158075
_cell_length_c 18.558343
_cell_angle_alpha 90.000000
_cell_angle_beta 90.000000
_cell_angle_gamma 90.000000
_cell_volume 4133.105855
_symmetry_space_group_name_H-M "C C C M"
_symmetry_group_IT_number 66
_symmetry_cell_setting 'orthorhombic'
loop_
_space_group_symop_operation_xyz
x,y,z
-x,-y,z
x,-y,1/2-z
-x,y,1/2-z
-x,-y,-z
x,y,-z
-x,y,1/2+z
x,-y,1/2+z
1/2+x,1/2+y,z
1/2-x,1/2-y,z
1/2+x,1/2-y,1/2-z
1/2-x,1/2+y,1/2-z
1/2-x,1/2-y,-z
1/2+x,1/2+y,-z
1/2-x,1/2+y,1/2+z
1/2+x,1/2-y,1/2+z
loop_
_atom_site_type_symbol
_atom_site_label
_atom_site_fract_x
_atom_site_fract_y
_atom_site_fract_z
Si Si1 0.000000 0.000000 0.387620
Si Si2 0.092450 0.862205 0.421933
Si Si3 0.738761 0.677196 0.216888
Si Si4 0.672778 0.684958 0.375516
Si Si5 0.500000 0.000000 0.867942
Si Si6 0.758596 0.048852 0.917805
Si Si7 0.000000 0.608760 0.250000
O O1 0.861890 0.976708 0.359376
O O2 0.042302 0.934037 0.422756
O O3 0.151135 0.847818 0.500000
O O4 0.181630 0.856898 0.352495
O O5 0.966846 0.819014 0.410324
O O6 0.750000 0.750000 0.195681
O O7 0.655283 0.675302 0.289598
O O8 0.874386 0.650576 0.242451
O O9 0.750000 0.750000 0.386955
O O10 0.749945 0.624010 0.404779
O O11 0.370876 0.989536 0.911069
O O12 0.502686 0.938171 0.817834
O O13 0.805231 0.039539 0.000000
#
# Coordination Sequence:
#
# PCOD9498347 Si02
#       7
#     8  16  16  16   8  16   8
#     4  10  21  40  63  90 133 168 205 262 325 390
#     4  11  23  41  67 100 133 169 216 274 334 392
#     4  11  25  42  69  89 128 173 222 269 327 389
#     4  10  22  41  66  96 132 178 224 266 324 397
#     4  11  23  40  62  92 133 165 214 274 328 394
#     4  11  21  38  64  95 129 172 215 270 332 389
#     4  11  24  44  64  90 126 171 218 272 322 391
#
# _framework density 21.291492999999999
#
# number of rings (size 3 to 8) (size 9 to 14) (size 15 to 20)
#    0.000    1.273    1.818    5.182    5.091    1.818 
#    0.000    4.545    0.000    0.000    0.000    0.000 
#    0.000    0.000    0.000    0.000    0.000    0.000 
#
# Total GULP energy -245250.060206 kJ/mol
# GULP energy per Si atom -5573.865005 kJ/mol
# Density = 2.124303 g / cm^3
# Si number density = 21.291493 Si / 1000 Ang^3
#
#
#
# Elastic Constant Matrix: (Units=GPa)
#
#
# Indices 1 2 3 4 5 6 
#
# 1 107.8898 57.0662 28.6685 0.0000 0.0000 0.0000
# 2 57.0662 113.8842 27.4626 0.0000 0.0000 0.0000
# 3 28.6685 27.4626 90.2557 0.0000 0.0000 0.0000
# 4 0.0000 0.0000 0.0000 9.7120 0.0000 0.0000
# 5 0.0000 0.0000 0.0000 0.0000 21.5964 0.0000
# 6 0.0000 0.0000 0.0000 0.0000 0.0000 31.7690
#
#
#
# Elastic Compliance Matrix: (Units=1/GPa)
#
#
# Indices 1 2 3 4 5 6 
#
# 1 0.013048 -0.005978 -0.002326 0.000000 0.000000 0.000000
# 2 -0.005978 0.012215 -0.001818 0.000000 0.000000 0.000000
# 3 -0.002326 -0.001818 0.012372 0.000000 0.000000 0.000000
# 4 0.000000 0.000000 0.000000 0.102965 0.000000 0.000000
# 5 0.000000 0.000000 0.000000 0.000000 0.046304 0.000000
# 6 0.000000 0.000000 0.000000 0.000000 0.000000 0.031477
#
#
# Mechanical properties :
#
#
# Convention : Reuss Voigt Hill
#
# Bulk Modulus (GPa) = 57.49795 59.82492 58.66143
# Shear Modulus (GPa) = 20.45651 25.87097 23.16374
#
# Velocity S-wave (km/s) = 3.10301 3.48959 3.30196
# Velocity P-wave (km/s) = 6.31680 6.66298 6.49220
#
# Compressibility (1/GPa) = 0.01739193
#
# Stress axis : x y z
#
# Youngs Moduli (GPa) = 76.63730 81.86967 80.83068
#
# Poissons Ratio (x) = 0.48938 0.18800
# Poissons Ratio (y) = 0.45811 0.14694
# Poissons Ratio (z) = 0.17825 0.14883
#
# Static dielectric constant tensor:
#      x y z
#    x 1.854320 0.000000 0.000000 
#    y 0.000000 1.794240 0.000000 
#    z 0.000000 0.000000 1.820780 
# 
# From -- ./inp_files/38708.got.cif
#   From: 2010.05.17/outbox.cif.g08.bks.cpg/sg66_20_cif.got.tgz:38708.got - 2010.06.03 17:51:23.
