data_PCOD9498627
_publ_section_title
;
Structure prediction by ZEFSAII (Michael W. Deem and Ramdas Pophale) SiO2 
 PCOD9498627
Probable space group: C C C M
;
_chemical_formula_sum "Si O2"
_cell_formula_units_Z 64
_cell_length_a 16.754250
_cell_length_b 11.958384
_cell_length_c 16.246130
_cell_angle_alpha 90.000000
_cell_angle_beta 90.000000
_cell_angle_gamma 90.000000
_cell_volume 3254.973152
_symmetry_space_group_name_H-M "C C C M"
_symmetry_group_IT_number 66
_symmetry_cell_setting 'orthorhombic'
loop_
_space_group_symop_operation_xyz
x,y,z
-x,-y,z
x,-y,1/2-z
-x,y,1/2-z
-x,-y,-z
x,y,-z
-x,y,1/2+z
x,-y,1/2+z
1/2+x,1/2+y,z
1/2-x,1/2-y,z
1/2+x,1/2-y,1/2-z
1/2-x,1/2+y,1/2-z
1/2-x,1/2-y,-z
1/2+x,1/2+y,-z
1/2-x,1/2+y,1/2+z
1/2+x,1/2-y,1/2+z
loop_
_atom_site_type_symbol
_atom_site_label
_atom_site_fract_x
_atom_site_fract_y
_atom_site_fract_z
Si Si1 0.691800 0.093790 0.684445
Si Si2 0.039986 0.683837 0.000000
Si Si3 0.472279 0.619523 0.873536
Si Si4 0.373612 0.048582 0.000000
Si Si5 0.133302 0.839391 0.274268
O O1 0.668507 0.074691 0.588316
O O2 0.787595 0.103571 0.690412
O O3 0.655443 0.208527 0.720606
O O4 0.665367 0.000000 0.750000
O O5 0.046444 0.771237 0.926035
O O6 0.102554 0.582532 0.000000
O O7 0.953968 0.623421 0.000000
O O8 0.500000 0.500000 0.911086
O O9 0.396115 0.610852 0.812991
O O10 0.553186 0.648565 0.825960
#
# Coordination Sequence:
#
# PCOD9498627 Si02
#       5
#    16   8  16   8  16
#     4  11  22  41  64  94 130 177 217 282 333 396
#     4  11  23  41  61  98 128 173 222 276 339 389
#     4  11  21  40  63  93 128 170 218 279 324 407
#     4  11  24  42  64  95 139 168 230 274 331 404
#     4  10  22  38  63  92 127 167 228 260 339 390
#
# _framework density 19.662220000000001
#
# number of rings (size 3 to 8) (size 9 to 14) (size 15 to 20)
#    0.000    1.250    2.500    4.875    0.000    3.000 
#    0.000    3.750    0.000    9.000    0.000    0.000 
#    0.000    0.000    0.000    0.000    0.000    0.000 
#
# Total GULP energy -178181.049798 kJ/mol
# GULP energy per Si atom -5568.157806 kJ/mol
# Density = 1.961747 g / cm^3
# Si number density = 19.662220 Si / 1000 Ang^3
#
#
#
# Elastic Constant Matrix: (Units=GPa)
#
#
# Indices 1 2 3 4 5 6 
#
# 1 105.9923 44.4517 48.2322 0.0000 0.0000 0.0000
# 2 44.4517 134.6023 40.7414 0.0000 0.0000 0.0000
# 3 48.2322 40.7414 106.7681 0.0000 0.0000 0.0000
# 4 0.0000 0.0000 0.0000 38.5939 0.0000 0.0000
# 5 0.0000 0.0000 0.0000 0.0000 5.4119 0.0000
# 6 0.0000 0.0000 0.0000 0.0000 0.0000 32.0244
#
#
#
# Elastic Compliance Matrix: (Units=1/GPa)
#
#
# Indices 1 2 3 4 5 6 
#
# 1 0.012738 -0.002787 -0.004691 0.000000 0.000000 0.000000
# 2 -0.002787 0.009009 -0.002179 0.000000 0.000000 0.000000
# 3 -0.004691 -0.002179 0.012317 0.000000 0.000000 0.000000
# 4 0.000000 0.000000 0.000000 0.025911 0.000000 0.000000
# 5 0.000000 0.000000 0.000000 0.000000 0.184778 0.000000
# 6 0.000000 0.000000 0.000000 0.000000 0.000000 0.031226
#
#
# Mechanical properties :
#
#
# Convention : Reuss Voigt Hill
#
# Bulk Modulus (GPa) = 67.79395 68.24592 68.01993
# Shear Modulus (GPa) = 16.65507 29.46854 23.06180
#
# Velocity S-wave (km/s) = 2.91359 3.87556 3.42848
# Velocity P-wave (km/s) = 6.77295 7.40345 7.09521
#
# Compressibility (1/GPa) = 0.01475058
#
# Stress axis : x y z
#
# Youngs Moduli (GPa) = 78.50508 110.99876 81.19106
#
# Poissons Ratio (x) = 0.30933 0.38086
# Poissons Ratio (y) = 0.21878 0.17690
# Poissons Ratio (z) = 0.36826 0.24185
#
# Static dielectric constant tensor:
#      x y z
#    x 1.642990 0.000000 0.000000 
#    y 0.000000 1.724330 0.000000 
#    z 0.000000 0.000000 1.799010 
# 
# From -- ./inp_files/38025.got.cif
#   From: 2010.05.17/outbox.cif.g08.bks.cpg/sg66_20_cif.got.tgz:38025.got - 2010.06.03 17:51:23.
