data_PCOD9498405
_publ_section_title
;
Structure prediction by ZEFSAII (Michael W. Deem and Ramdas Pophale) SiO2 
 PCOD9498405
Probable space group: C C C M
;
_chemical_formula_sum "Si O2"
_cell_formula_units_Z 64
_cell_length_a 5.230370
_cell_length_b 35.072115
_cell_length_c 15.685975
_cell_angle_alpha 90.000000
_cell_angle_beta 90.000000
_cell_angle_gamma 90.000000
_cell_volume 2877.437421
_symmetry_space_group_name_H-M "C C C M"
_symmetry_group_IT_number 66
_symmetry_cell_setting 'orthorhombic'
loop_
_space_group_symop_operation_xyz
x,y,z
-x,-y,z
x,-y,1/2-z
-x,y,1/2-z
-x,-y,-z
x,y,-z
-x,y,1/2+z
x,-y,1/2+z
1/2+x,1/2+y,z
1/2-x,1/2-y,z
1/2+x,1/2-y,1/2-z
1/2-x,1/2+y,1/2-z
1/2-x,1/2-y,-z
1/2+x,1/2+y,-z
1/2-x,1/2+y,1/2+z
1/2+x,1/2-y,1/2+z
loop_
_atom_site_type_symbol
_atom_site_label
_atom_site_fract_x
_atom_site_fract_y
_atom_site_fract_z
Si Si1 0.244488 0.017047 0.346441
Si Si2 0.578542 0.140236 0.654403
Si Si3 0.493673 0.774665 0.100009
Si Si4 0.901006 0.098421 0.096829
O O1 0.193613 0.061912 0.348869
O O2 0.500000 0.000000 0.386168
O O3 0.247190 0.000000 0.250000
O O4 0.000000 0.000000 0.391857
O O5 0.500000 0.129737 0.750000
O O6 0.563279 0.185773 0.645113
O O7 0.347954 0.124953 0.596723
O O8 0.851026 0.121030 0.631931
O O9 0.750000 0.750000 0.103926
O O10 0.250000 0.750000 0.132586
O O11 0.438488 0.783210 0.000000
O O12 0.959648 0.086387 0.000000
#
# Coordination Sequence:
#
# PCOD9498405 Si02
#       4
#    16  16  16  16
#     4  10  23  40  67  96 132 177 220 288 339 419
#     4  12  27  43  70 104 141 187 231 287 349 416
#     4  10  21  40  67  97 136 182 228 283 345 407
#     4  12  26  45  70 101 141 182 235 289 347 419
#
# _framework density 22.242011999999999
#
# number of rings (size 3 to 8) (size 9 to 14) (size 15 to 20)
#    0.000    1.000    0.000    6.000   10.500    4.000 
#    0.000    0.000    0.000    0.000    0.000    0.000 
#    0.000    0.000    0.000    0.000    0.000    0.000 
#
# Total GULP energy -178691.035745 kJ/mol
# GULP energy per Si atom -5584.094867 kJ/mol
# Density = 2.219139 g / cm^3
# Si number density = 22.242012 Si / 1000 Ang^3
#
#
#
# Elastic Constant Matrix: (Units=GPa)
#
#
# Indices 1 2 3 4 5 6 
#
# 1 206.4938 74.7984 18.2790 0.0000 0.0000 0.0000
# 2 74.7984 168.7645 37.6113 0.0000 0.0000 0.0000
# 3 18.2790 37.6113 96.1012 0.0000 0.0000 0.0000
# 4 0.0000 0.0000 0.0000 32.4645 0.0000 0.0000
# 5 0.0000 0.0000 0.0000 0.0000 24.0316 0.0000
# 6 0.0000 0.0000 0.0000 0.0000 0.0000 51.7320
#
#
#
# Elastic Compliance Matrix: (Units=1/GPa)
#
#
# Indices 1 2 3 4 5 6 
#
# 1 0.005770 -0.002534 -0.000106 0.000000 0.000000 0.000000
# 2 -0.002534 0.007604 -0.002494 0.000000 0.000000 0.000000
# 3 -0.000106 -0.002494 0.011402 0.000000 0.000000 0.000000
# 4 0.000000 0.000000 0.000000 0.030803 0.000000 0.000000
# 5 0.000000 0.000000 0.000000 0.000000 0.041612 0.000000
# 6 0.000000 0.000000 0.000000 0.000000 0.000000 0.019330
#
#
# Mechanical properties :
#
#
# Convention : Reuss Voigt Hill
#
# Bulk Modulus (GPa) = 68.92415 81.41521 75.16968
# Shear Modulus (GPa) = 37.98671 44.35700 41.17185
#
# Velocity S-wave (km/s) = 4.13713 4.47059 4.30709
# Velocity P-wave (km/s) = 7.34008 7.95814 7.65535
#
# Compressibility (1/GPa) = 0.01450870
#
# Stress axis : x y z
#
# Youngs Moduli (GPa) = 173.31270 131.50558 87.70411
#
# Poissons Ratio (x) = 0.33320 0.00928
# Poissons Ratio (y) = 0.43912 0.21875
# Poissons Ratio (z) = 0.01834 0.32800
#
# Static dielectric constant tensor:
#      x y z
#    x 1.815490 0.000000 0.000000 
#    y 0.000000 2.128590 0.000000 
#    z 0.000000 0.000000 1.839230 
# 
# From -- ./inp_files/35049.got.cif
#   From: 2010.05.17/outbox.cif.g08.bks.cpg/sg66_18_cif.got.tgz:35049.got - 2010.06.03 17:51:23.
