data_PCOD9498852
_publ_section_title
;
Structure prediction by ZEFSAII (Michael W. Deem and Ramdas Pophale) SiO2 
 PCOD9498852
Probable space group: C C C M
;
_chemical_formula_sum "Si O2"
_cell_formula_units_Z 112
_cell_length_a 11.379320
_cell_length_b 27.991708
_cell_length_c 17.584439
_cell_angle_alpha 90.000000
_cell_angle_beta 90.000000
_cell_angle_gamma 90.000000
_cell_volume 5601.111615
_symmetry_space_group_name_H-M "C C C M"
_symmetry_group_IT_number 66
_symmetry_cell_setting 'orthorhombic'
loop_
_space_group_symop_operation_xyz
x,y,z
-x,-y,z
x,-y,1/2-z
-x,y,1/2-z
-x,-y,-z
x,y,-z
-x,y,1/2+z
x,-y,1/2+z
1/2+x,1/2+y,z
1/2-x,1/2-y,z
1/2+x,1/2-y,1/2-z
1/2-x,1/2+y,1/2-z
1/2-x,1/2-y,-z
1/2+x,1/2+y,-z
1/2-x,1/2+y,1/2+z
1/2+x,1/2-y,1/2+z
loop_
_atom_site_type_symbol
_atom_site_label
_atom_site_fract_x
_atom_site_fract_y
_atom_site_fract_z
Si Si1 0.004500 0.348794 0.158388
Si Si2 0.477369 0.671615 0.839052
Si Si3 0.936954 0.544457 0.834262
Si Si4 0.024331 0.070688 0.410000
Si Si5 0.671632 0.495961 0.337372
Si Si6 0.736055 0.192456 0.088232
Si Si7 0.887219 0.260484 0.413637
O O1 0.883908 0.329174 0.121456
O O2 0.000000 0.347318 0.250000
O O3 0.039523 0.402604 0.134461
O O4 0.097078 0.309925 0.130060
O O5 0.500000 0.668768 0.750000
O O6 0.510638 0.622649 0.880141
O O7 0.340435 0.675588 0.858083
O O8 0.543549 0.717592 0.873084
O O9 0.801026 0.527847 0.834013
O O10 0.000000 0.500000 0.875156
O O11 0.000000 0.546790 0.750000
O O12 0.037720 0.070526 0.500000
O O13 0.916085 0.037545 0.384185
O O14 0.143858 0.048319 0.373068
O O15 0.634368 0.500000 0.250000
O O16 0.750000 0.250000 0.089100
O O17 0.751232 0.177413 0.000000
O O18 0.933959 0.264862 0.500000
O O19 0.750000 0.250000 0.416431
#
# Coordination Sequence:
#
# PCOD9498852 Si02
#       7
#    16  16  16  16  16  16  16
#     4  11  25  40  69 100 134 179 235 282 334 408
#     4  12  26  42  71 100 135 174 232 286 341 414
#     4  10  22  42  64  99 135 171 218 283 337 390
#     4  11  25  43  65 100 139 178 225 282 348 413
#     4  11  21  41  71  97 132 177 230 278 336 403
#     4  11  24  44  68  94 136 183 224 276 344 410
#     4  11  25  44  66  97 140 180 221 277 348 415
#
# _framework density 19.996032
#
# number of rings (size 3 to 8) (size 9 to 14) (size 15 to 20)
#    0.000    1.000    2.857    4.714    6.000    1.143 
#    0.000    2.143    0.000    3.429    0.000    0.000 
#    0.000    0.000    0.000    0.000    0.000    0.000 
#
# Total GULP energy -312561.462508 kJ/mol
# GULP energy per Si atom -5581.454688 kJ/mol
# Density = 1.995052 g / cm^3
# Si number density = 19.996032 Si / 1000 Ang^3
#
#
#
# Elastic Constant Matrix: (Units=GPa)
#
#
# Indices 1 2 3 4 5 6 
#
# 1 108.7444 35.8073 29.2331 0.0000 0.0000 0.0000
# 2 35.8073 171.1854 50.2113 0.0000 0.0000 0.0000
# 3 29.2331 50.2113 150.1732 0.0000 0.0000 0.0000
# 4 0.0000 0.0000 0.0000 28.3828 0.0000 0.0000
# 5 0.0000 0.0000 0.0000 0.0000 19.5648 0.0000
# 6 0.0000 0.0000 0.0000 0.0000 0.0000 6.8446
#
#
#
# Elastic Compliance Matrix: (Units=1/GPa)
#
#
# Indices 1 2 3 4 5 6 
#
# 1 0.010135 -0.001709 -0.001402 0.000000 0.000000 0.000000
# 2 -0.001709 0.006765 -0.001929 0.000000 0.000000 0.000000
# 3 -0.001402 -0.001929 0.007577 0.000000 0.000000 0.000000
# 4 0.000000 0.000000 0.000000 0.035233 0.000000 0.000000
# 5 0.000000 0.000000 0.000000 0.000000 0.051112 0.000000
# 6 0.000000 0.000000 0.000000 0.000000 0.000000 0.146101
#
#
# Mechanical properties :
#
#
# Convention : Reuss Voigt Hill
#
# Bulk Modulus (GPa) = 69.45563 73.40070 71.42816
# Shear Modulus (GPa) = 18.39578 31.94852 25.17215
#
# Velocity S-wave (km/s) = 3.03639 4.00151 3.55189
# Velocity P-wave (km/s) = 6.86316 7.62475 7.25396
#
# Compressibility (1/GPa) = 0.01439768
#
# Stress axis : x y z
#
# Youngs Moduli (GPa) = 98.66433 147.82066 131.98069
#
# Poissons Ratio (x) = 0.25262 0.18498
# Poissons Ratio (y) = 0.16861 0.25462
# Poissons Ratio (z) = 0.13829 0.28518
#
# Static dielectric constant tensor:
#      x y z
#    x 1.727970 0.000000 0.000000 
#    y 0.000000 1.766930 0.000000 
#    z 0.000000 0.000000 1.679170 
# 
# From -- ./inp_files/27004.got.cif
#   From: 2010.05.17/outbox.cif.g08.bks.cpg/sg66_14_cif.got.tgz:27004.got - 2010.06.03 17:51:23.
