data_PCOD9498360
_publ_section_title
;
Structure prediction by ZEFSAII (Michael W. Deem and Ramdas Pophale) SiO2 
 PCOD9498360
Probable space group: C C C M
;
_chemical_formula_sum "Si O2"
_cell_formula_units_Z 48
_cell_length_a 8.706483
_cell_length_b 16.159830
_cell_length_c 15.420700
_cell_angle_alpha 90.000000
_cell_angle_beta 90.000000
_cell_angle_gamma 90.000000
_cell_volume 2169.619784
_symmetry_space_group_name_H-M "C C C M"
_symmetry_group_IT_number 66
_symmetry_cell_setting 'orthorhombic'
loop_
_space_group_symop_operation_xyz
x,y,z
-x,-y,z
x,-y,1/2-z
-x,y,1/2-z
-x,-y,-z
x,y,-z
-x,y,1/2+z
x,-y,1/2+z
1/2+x,1/2+y,z
1/2-x,1/2-y,z
1/2+x,1/2-y,1/2-z
1/2-x,1/2+y,1/2-z
1/2-x,1/2-y,-z
1/2+x,1/2+y,-z
1/2-x,1/2+y,1/2+z
1/2+x,1/2-y,1/2+z
loop_
_atom_site_type_symbol
_atom_site_label
_atom_site_fract_x
_atom_site_fract_y
_atom_site_fract_z
Si Si1 0.433238 0.744065 0.152301
Si Si2 0.404601 0.578862 0.600753
Si Si3 0.561749 0.914083 0.848585
O O1 0.500000 0.738850 0.250000
O O2 0.250000 0.750000 0.153944
O O3 0.494499 0.661390 0.107526
O O4 0.499515 0.828772 0.111643
O O5 0.500000 0.500000 0.632789
O O6 0.364618 0.564078 0.500000
O O7 0.245200 0.587848 0.650984
O O8 0.500000 0.913458 0.750000
O O9 0.500000 0.000000 0.888162
#
# Coordination Sequence:
#
# PCOD9498360 Si02
#       3
#    16  16  16
#     4  11  22  39  64  94 126 162 211 262 309 367
#     4  11  25  43  63  91 128 168 208 255 312 371
#     4  10  21  40  64  93 124 160 207 255 309 368
#
# _framework density 22.123692999999999
#
# number of rings (size 3 to 8) (size 9 to 14) (size 15 to 20)
#    0.000    1.333    0.000    7.000    0.000    7.333 
#    0.000    0.000    0.000    0.000    0.000    0.000 
#    0.000    0.000    0.000    0.000    0.000    0.000 
#
# Total GULP energy -134264.475800 kJ/mol
# GULP energy per Si atom -5594.353158 kJ/mol
# Density = 2.207334 g / cm^3
# Si number density = 22.123693 Si / 1000 Ang^3
#
#
#
# Elastic Constant Matrix: (Units=GPa)
#
#
# Indices 1 2 3 4 5 6 
#
# 1 246.4617 92.8214 29.2043 0.0000 0.0000 0.0000
# 2 92.8214 225.5223 2.1486 0.0000 0.0000 0.0000
# 3 29.2043 2.1486 55.5715 0.0000 0.0000 0.0000
# 4 0.0000 0.0000 0.0000 15.5792 0.0000 0.0000
# 5 0.0000 0.0000 0.0000 0.0000 -4.1439 0.0000
# 6 0.0000 0.0000 0.0000 0.0000 0.0000 45.4078
#
#
#
# Elastic Compliance Matrix: (Units=1/GPa)
#
#
# Indices 1 2 3 4 5 6 
#
# 1 0.005159 -0.002098 -0.002630 0.000000 0.000000 0.000000
# 2 -0.002098 0.005289 0.000898 0.000000 0.000000 0.000000
# 3 -0.002630 0.000898 0.019342 0.000000 0.000000 0.000000
# 4 0.000000 0.000000 0.000000 0.064188 0.000000 0.000000
# 5 0.000000 0.000000 0.000000 0.000000 -0.241319 0.000000
# 6 0.000000 0.000000 0.000000 0.000000 0.000000 0.022023
#
#
# Mechanical properties :
#
#
# Convention : Reuss Voigt Hill
#
# Bulk Modulus (GPa) = 45.18714 86.21156 65.69935
# Shear Modulus (GPa) = -45.33946 38.26070 -3.53938
#
# Velocity S-wave (km/s) = -4.53190 4.16312 -1.26621
# Velocity P-wave (km/s) = 2.62964 7.88424 5.25577
#
# Compressibility (1/GPa) = 0.02213019
#
# Stress axis : x y z
#
# Youngs Moduli (GPa) = 193.82033 189.06122 51.69994
#
# Poissons Ratio (x) = 0.39674 0.13599
# Poissons Ratio (y) = 0.40673 -0.04644
# Poissons Ratio (z) = 0.50980 -0.16983
#
# Static dielectric constant tensor:
#      x y z
#    x 1.742000 0.000000 0.000000 
#    y 0.000000 1.867290 0.000000 
#    z 0.000000 0.000000 1.838400 
# 
# From -- ./inp_files/23488.got.cif
#   From: 2010.05.17/outbox.cif.g08.bks.cpg/sg66_12_cif.got.tgz:23488.got - 2010.06.03 17:51:23.
