data_PCOD9498104
_publ_section_title
;
Structure prediction by ZEFSAII (Michael W. Deem and Ramdas Pophale) SiO2 
 PCOD9498104
Probable space group: C C C M
;
_chemical_formula_sum "Si O2"
_cell_formula_units_Z 80
_cell_length_a 26.674315
_cell_length_b 9.005236
_cell_length_c 16.659284
_cell_angle_alpha 90.000000
_cell_angle_beta 90.000000
_cell_angle_gamma 90.000000
_cell_volume 4001.701649
_symmetry_space_group_name_H-M "C C C M"
_symmetry_group_IT_number 66
_symmetry_cell_setting 'orthorhombic'
loop_
_space_group_symop_operation_xyz
x,y,z
-x,-y,z
x,-y,1/2-z
-x,y,1/2-z
-x,-y,-z
x,y,-z
-x,y,1/2+z
x,-y,1/2+z
1/2+x,1/2+y,z
1/2-x,1/2-y,z
1/2+x,1/2-y,1/2-z
1/2-x,1/2+y,1/2-z
1/2-x,1/2-y,-z
1/2+x,1/2+y,-z
1/2-x,1/2+y,1/2+z
1/2+x,1/2-y,1/2+z
loop_
_atom_site_type_symbol
_atom_site_label
_atom_site_fract_x
_atom_site_fract_y
_atom_site_fract_z
Si Si1 0.380085 0.436442 0.909299
Si Si2 0.447232 0.299271 0.795237
Si Si3 0.060406 0.522091 0.592125
Si Si4 0.626143 0.253930 0.154368
Si Si5 0.300563 0.669754 0.281113
O O1 0.434343 0.411366 0.867260
O O2 0.366772 0.610492 0.906258
O O3 0.339849 0.348960 0.854463
O O4 0.380473 0.384240 0.000000
O O5 0.500000 0.302619 0.750000
O O6 0.408720 0.322540 0.723838
O O7 0.434764 0.143437 0.838048
O O8 0.073486 0.563559 0.500000
O O9 0.095356 0.382790 0.617160
O O10 0.000000 0.500000 0.591333
O O11 0.676616 0.233530 0.206542
O O12 0.293024 0.500000 0.250000
O O13 0.250000 0.750000 0.307405
#
# Coordination Sequence:
#
# PCOD9498104 Si02
#       5
#    16  16  16  16  16
#     4  10  22  40  60  87 122 158 200 254 307 359
#     4  11  21  37  55  81 116 156 204 248 291 355
#     4  11  22  36  55  84 118 156 199 248 302 350
#     4  10  21  38  61  83 119 160 202 246 296 360
#     4   9  20  38  63  93 120 155 203 250 308 372
#
# _framework density 19.991496000000001
#
# number of rings (size 3 to 8) (size 9 to 14) (size 15 to 20)
#    0.000    1.800    2.000    3.600    0.000    5.200 
#    0.000    1.000    0.000   17.400    0.000    0.000 
#    0.000    0.000    0.000    0.000    0.000    0.000 
#
# Total GULP energy -222776.066667 kJ/mol
# GULP energy per Si atom -5569.401667 kJ/mol
# Density = 1.994599 g / cm^3
# Si number density = 19.991496 Si / 1000 Ang^3
#
#
#
# Elastic Constant Matrix: (Units=GPa)
#
#
# Indices 1 2 3 4 5 6 
#
# 1 90.2165 41.8483 46.3177 0.0000 0.0000 0.0000
# 2 41.8483 78.6921 47.8723 0.0000 0.0000 0.0000
# 3 46.3177 47.8723 144.6181 0.0000 0.0000 0.0000
# 4 0.0000 0.0000 0.0000 19.2251 0.0000 0.0000
# 5 0.0000 0.0000 0.0000 0.0000 18.2096 0.0000
# 6 0.0000 0.0000 0.0000 0.0000 0.0000 26.7129
#
#
#
# Elastic Compliance Matrix: (Units=1/GPa)
#
#
# Indices 1 2 3 4 5 6 
#
# 1 0.015578 -0.006573 -0.002813 0.000000 0.000000 0.000000
# 2 -0.006573 0.018685 -0.004080 0.000000 0.000000 0.000000
# 3 -0.002813 -0.004080 0.009167 0.000000 0.000000 0.000000
# 4 0.000000 0.000000 0.000000 0.052015 0.000000 0.000000
# 5 0.000000 0.000000 0.000000 0.000000 0.054916 0.000000
# 6 0.000000 0.000000 0.000000 0.000000 0.000000 0.037435
#
#
# Mechanical properties :
#
#
# Convention : Reuss Voigt Hill
#
# Bulk Modulus (GPa) = 60.61771 65.06705 62.84238
# Shear Modulus (GPa) = 22.70377 24.66207 23.68292
#
# Velocity S-wave (km/s) = 3.37363 3.51611 3.44561
# Velocity P-wave (km/s) = 6.75002 7.00729 6.87986
#
# Compressibility (1/GPa) = 0.01649683
#
# Stress axis : x y z
#
# Youngs Moduli (GPa) = 64.19433 53.51804 109.09274
#
# Poissons Ratio (x) = 0.35175 0.30693
# Poissons Ratio (y) = 0.42193 0.44513
# Poissons Ratio (z) = 0.18061 0.21837
#
# Static dielectric constant tensor:
#      x y z
#    x 1.757610 0.000000 0.000000 
#    y 0.000000 1.803010 0.000000 
#    z 0.000000 0.000000 1.711590 
# 
# From -- ./inp_files/36914.got.cif
#   From: 2010.05.17/outbox.cif.g08.bks.cpg/sg66_19_cif.got.tgz:36914.got - 2010.06.03 17:51:23.
