data_PCOD9498557
_publ_section_title
;
Structure prediction by ZEFSAII (Michael W. Deem and Ramdas Pophale) SiO2 
 PCOD9498557
Probable space group: C C C M
;
_chemical_formula_sum "Si O2"
_cell_formula_units_Z 60
_cell_length_a 5.219224
_cell_length_b 19.451979
_cell_length_c 26.199978
_cell_angle_alpha 90.000000
_cell_angle_beta 90.000000
_cell_angle_gamma 90.000000
_cell_volume 2659.932740
_symmetry_space_group_name_H-M "C C C M"
_symmetry_group_IT_number 66
_symmetry_cell_setting 'orthorhombic'
loop_
_space_group_symop_operation_xyz
x,y,z
-x,-y,z
x,-y,1/2-z
-x,y,1/2-z
-x,-y,-z
x,y,-z
-x,y,1/2+z
x,-y,1/2+z
1/2+x,1/2+y,z
1/2-x,1/2-y,z
1/2+x,1/2-y,1/2-z
1/2-x,1/2+y,1/2-z
1/2-x,1/2-y,-z
1/2+x,1/2+y,-z
1/2-x,1/2+y,1/2+z
1/2+x,1/2-y,1/2+z
loop_
_atom_site_type_symbol
_atom_site_label
_atom_site_fract_x
_atom_site_fract_y
_atom_site_fract_z
Si Si1 0.000000 0.000000 0.412255
Si Si2 0.404166 0.584867 0.000000
Si Si3 0.667798 0.931970 0.835318
Si Si4 0.570488 0.163317 0.500000
Si Si5 0.000000 0.000000 0.750000
Si Si6 0.987048 0.293306 0.617288
O O1 0.883640 0.059551 0.378323
O O2 0.179437 0.040371 0.451405
O O3 0.702922 0.605392 0.000000
O O4 0.234303 0.650881 0.000000
O O5 0.511397 0.863765 0.849250
O O6 0.500000 0.000000 0.842958
O O7 0.817553 0.949133 0.782920
O O8 0.588933 0.192602 0.557793
O O9 0.750000 0.250000 0.639239
O O10 0.250000 0.250000 0.619454
#
# Coordination Sequence:
#
# PCOD9498557 Si02
#       6
#     8   8  16   8   4  16
#     4  10  22  36  64 102 146 184 250 294 358 414
#     4  11  22  35  62 103 143 198 246 300 332 413
#     4  11  24  46  78 104 138 186 242 311 377 443
#     4  12  22  42  62  99 156 206 248 277 347 428
#     4  10  26  46  84 108 132 170 260 322 394 446
#     4  12  27  45  71 108 156 200 242 292 361 440
#
# _framework density 22.556958999999999
#
# number of rings (size 3 to 8) (size 9 to 14) (size 15 to 20)
#    0.000    0.800    2.667    4.400    7.467    1.067 
#    0.000    0.000    5.867    0.000    0.000    0.000 
#    0.000    0.000    0.000    0.000    0.000    0.000 
#
# Total GULP energy -167105.757084 kJ/mol
# GULP energy per Si atom -5570.191903 kJ/mol
# Density = 2.250562 g / cm^3
# Si number density = 22.556959 Si / 1000 Ang^3
#
#
#
# Elastic Constant Matrix: (Units=GPa)
#
#
# Indices 1 2 3 4 5 6 
#
# 1 93.8995 63.5042 32.0255 0.0000 0.0000 0.0000
# 2 63.5042 147.8168 55.6569 0.0000 0.0000 0.0000
# 3 32.0255 55.6569 119.7831 0.0000 0.0000 0.0000
# 4 0.0000 0.0000 0.0000 158.9152 0.0000 0.0000
# 5 0.0000 0.0000 0.0000 0.0000 -5.0522 0.0000
# 6 0.0000 0.0000 0.0000 0.0000 0.0000 46.9225
#
#
#
# Elastic Compliance Matrix: (Units=1/GPa)
#
#
# Indices 1 2 3 4 5 6 
#
# 1 0.015163 -0.006045 -0.001245 0.000000 0.000000 0.000000
# 2 -0.006045 0.010610 -0.003314 0.000000 0.000000 0.000000
# 3 -0.001245 -0.003314 0.010221 0.000000 0.000000 0.000000
# 4 0.000000 0.000000 0.000000 0.006293 0.000000 0.000000
# 5 0.000000 0.000000 0.000000 0.000000 -0.197935 0.000000
# 6 0.000000 0.000000 0.000000 0.000000 0.000000 0.021312
#
#
# Mechanical properties :
#
#
# Convention : Reuss Voigt Hill
#
# Bulk Modulus (GPa) = 67.63252 73.76361 70.69806
# Shear Modulus (GPa) = -46.21057 54.17796 3.98369
#
# Velocity S-wave (km/s) = -4.53108 4.90616 1.33037
# Velocity P-wave (km/s) = 1.63520 8.05394 5.81119
#
# Compressibility (1/GPa) = 0.01478579
#
# Stress axis : x y z
#
# Youngs Moduli (GPa) = 65.95093 94.25105 97.83838
#
# Poissons Ratio (x) = 0.56978 0.12181
# Poissons Ratio (y) = 0.39870 0.32420
# Poissons Ratio (z) = 0.08211 0.31231
#
# Static dielectric constant tensor:
#      x y z
#    x 2.470650 0.000000 0.000000 
#    y 0.000000 2.437090 0.000000 
#    z 0.000000 0.000000 1.853190 
# 
# From -- ./inp_files/61124.got.cif
#   From: 2010.05.17/outbox.cif.g08.bks.cpg/sg66_31_cif.got.tgz:61124.got - 2010.06.03 17:51:23.
