data_PCOD9498751
_publ_section_title
;
Structure prediction by ZEFSAII (Michael W. Deem and Ramdas Pophale) SiO2 
 PCOD9498751
Probable space group: C C C M
;
_chemical_formula_sum "Si O2"
_cell_formula_units_Z 104
_cell_length_a 23.133347
_cell_length_b 8.315697
_cell_length_c 27.282127
_cell_angle_alpha 90.000000
_cell_angle_beta 90.000000
_cell_angle_gamma 90.000000
_cell_volume 5248.260159
_symmetry_space_group_name_H-M "C C C M"
_symmetry_group_IT_number 66
_symmetry_cell_setting 'orthorhombic'
loop_
_space_group_symop_operation_xyz
x,y,z
-x,-y,z
x,-y,1/2-z
-x,y,1/2-z
-x,-y,-z
x,y,-z
-x,y,1/2+z
x,-y,1/2+z
1/2+x,1/2+y,z
1/2-x,1/2-y,z
1/2+x,1/2-y,1/2-z
1/2-x,1/2+y,1/2-z
1/2-x,1/2-y,-z
1/2+x,1/2+y,-z
1/2-x,1/2+y,1/2+z
1/2+x,1/2-y,1/2+z
loop_
_atom_site_type_symbol
_atom_site_label
_atom_site_fract_x
_atom_site_fract_y
_atom_site_fract_z
Si Si1 0.633331 0.105075 0.291894
Si Si2 0.131895 0.036157 0.618664
Si Si3 0.694553 0.854672 0.362726
Si Si4 0.000000 0.000000 0.634911
Si Si5 0.261899 0.560904 0.557110
Si Si6 0.295336 0.379455 0.208341
Si Si7 0.514533 0.182339 0.307605
O O1 0.665131 0.249066 0.264148
O O2 0.582361 0.188404 0.320556
O O3 0.604399 0.000000 0.250000
O O4 0.671707 0.987627 0.324720
O O5 0.144418 0.227810 0.624297
O O6 0.173054 0.976943 0.574695
O O7 0.165118 0.961968 0.667030
O O8 0.064605 0.989557 0.610940
O O9 0.750000 0.750000 0.344259
O O10 0.720108 0.951893 0.409120
O O11 0.989516 0.838245 0.666410
O O12 0.253921 0.523285 0.500000
O O13 0.250000 0.750000 0.564615
O O14 0.272966 0.500000 0.250000
O O15 0.250000 0.250000 0.185832
O O16 0.500000 0.200738 0.250000
O O17 0.500000 0.000000 0.323049
#
# Coordination Sequence:
#
# PCOD9498751 Si02
#       7
#    16  16  16   8  16  16  16
#     4  12  22  37  58  83 124 169 213 264 312 364
#     4  11  23  40  63  93 127 164 210 259 323 379
#     4  10  22  40  64  94 125 161 211 266 320 387
#     4  12  25  40  63  92 130 174 222 270 316 376
#     4  10  22  43  72  98 123 156 202 262 329 397
#     4  12  25  38  55  83 121 168 209 263 317 374
#     4  11  23  39  58  84 117 176 233 268 302 358
#
# _framework density 19.816089000000002
#
# number of rings (size 3 to 8) (size 9 to 14) (size 15 to 20)
#    0.000    0.923    3.077    5.769    2.154    5.231 
#    0.000    0.385    0.000    0.000    0.000    2.154 
#    0.000    0.000    0.000    0.000    0.000    0.000 
#
# Total GULP energy -289648.742848 kJ/mol
# GULP energy per Si atom -5570.168132 kJ/mol
# Density = 1.977099 g / cm^3
# Si number density = 19.816089 Si / 1000 Ang^3
#
#
#
# Elastic Constant Matrix: (Units=GPa)
#
#
# Indices 1 2 3 4 5 6 
#
# 1 108.4867 39.7078 37.2995 0.0000 0.0000 0.0000
# 2 39.7078 115.0618 37.0080 0.0000 0.0000 0.0000
# 3 37.2995 37.0080 78.0535 0.0000 0.0000 0.0000
# 4 0.0000 0.0000 0.0000 -486.4040 0.0000 0.0000
# 5 0.0000 0.0000 0.0000 0.0000 12.2326 0.0000
# 6 0.0000 0.0000 0.0000 0.0000 0.0000 27.8710
#
#
#
# Elastic Compliance Matrix: (Units=1/GPa)
#
#
# Indices 1 2 3 4 5 6 
#
# 1 0.011670 -0.002636 -0.004327 0.000000 0.000000 0.000000
# 2 -0.002636 0.010850 -0.003885 0.000000 0.000000 0.000000
# 3 -0.004327 -0.003885 0.016722 0.000000 0.000000 0.000000
# 4 0.000000 0.000000 0.000000 -0.002056 0.000000 0.000000
# 5 0.000000 0.000000 0.000000 0.000000 0.081749 0.000000
# 6 0.000000 0.000000 0.000000 0.000000 0.000000 0.035880
#
#
# Mechanical properties :
#
#
# Convention : Reuss Voigt Hill
#
# Bulk Modulus (GPa) = 56.99200 58.84807 57.92004
# Shear Modulus (GPa) = 27.41851 -76.75430 -24.66790
#
# Velocity S-wave (km/s) = 3.72378 -6.23036 -3.53206
# Velocity P-wave (km/s) = 6.87834 4.68988 3.55785
#
# Compressibility (1/GPa) = 0.01754632
#
# Stress axis : x y z
#
# Youngs Moduli (GPa) = 85.68880 92.16540 59.80309
#
# Poissons Ratio (x) = 0.24291 0.25878
# Poissons Ratio (y) = 0.22584 0.23233
# Poissons Ratio (z) = 0.37079 0.35806
#
# Static dielectric constant tensor:
#      x y z
#    x 1.920170 0.000000 0.000000 
#    y 0.000000 1.790420 0.000000 
#    z 0.000000 0.000000 1.655520 
# 
# From -- ./inp_files/66074.got.cif
#   From: 2010.05.17/outbox.cif.g08.bks.cpg/sg66_34_cif.got.tgz:66074.got - 2010.06.03 17:51:23.
