data_PCOD9498138
_publ_section_title
;
Structure prediction by ZEFSAII (Michael W. Deem and Ramdas Pophale) SiO2 
 PCOD9498138
Probable space group: C C C M
;
_chemical_formula_sum "Si O2"
_cell_formula_units_Z 64
_cell_length_a 11.598053
_cell_length_b 12.027422
_cell_length_c 21.837767
_cell_angle_alpha 90.000000
_cell_angle_beta 90.000000
_cell_angle_gamma 90.000000
_cell_volume 3046.252272
_symmetry_space_group_name_H-M "C C C M"
_symmetry_group_IT_number 66
_symmetry_cell_setting 'orthorhombic'
loop_
_space_group_symop_operation_xyz
x,y,z
-x,-y,z
x,-y,1/2-z
-x,y,1/2-z
-x,-y,-z
x,y,-z
-x,y,1/2+z
x,-y,1/2+z
1/2+x,1/2+y,z
1/2-x,1/2-y,z
1/2+x,1/2-y,1/2-z
1/2-x,1/2+y,1/2-z
1/2-x,1/2-y,-z
1/2+x,1/2+y,-z
1/2-x,1/2+y,1/2+z
1/2+x,1/2-y,1/2+z
loop_
_atom_site_type_symbol
_atom_site_label
_atom_site_fract_x
_atom_site_fract_y
_atom_site_fract_z
Si Si1 0.005554 0.701089 0.184776
Si Si2 0.758056 0.019174 0.933120
Si Si3 0.000000 0.500000 0.404228
Si Si4 0.380638 0.563116 0.686361
Si Si5 0.250000 0.750000 0.872870
O O1 0.975293 0.610953 0.134568
O O2 0.137484 0.732258 0.168878
O O3 0.000000 0.643186 0.250000
O O4 0.921539 0.808448 0.191367
O O5 0.620213 0.016740 0.937237
O O6 0.800162 0.952421 0.872853
O O7 0.783164 0.146352 0.915293
O O8 0.806829 0.987078 0.000000
O O9 0.500000 0.500000 0.672106
O O10 0.339846 0.500000 0.750000
#
# Coordination Sequence:
#
# PCOD9498138 Si02
#       5
#    16  16   8  16   8
#     4  11  21  40  62  93 126 166 207 260 314 378
#     4  11  23  42  64  92 127 169 211 258 312 377
#     4  10  26  40  58  92 131 168 209 252 315 374
#     4  11  21  41  67  95 126 157 209 265 317 357
#     4  10  21  38  62  88 126 170 209 256 311 378
#
# _framework density 21.009422000000001
#
# number of rings (size 3 to 8) (size 9 to 14) (size 15 to 20)
#    0.000    1.250    5.000    1.125    0.000    7.500 
#    0.000    3.750    0.000    0.000    0.000    0.000 
#    0.000    0.000    0.000    0.000    0.000    0.000 
#
# Total GULP energy -178341.115797 kJ/mol
# GULP energy per Si atom -5573.159869 kJ/mol
# Density = 2.096160 g / cm^3
# Si number density = 21.009422 Si / 1000 Ang^3
#
#
#
# Elastic Constant Matrix: (Units=GPa)
#
#
# Indices 1 2 3 4 5 6 
#
# 1 47.4792 -0.4504 51.5075 0.0000 0.0000 0.0000
# 2 -0.4504 87.3390 27.6577 0.0000 0.0000 0.0000
# 3 51.5075 27.6577 169.0001 0.0000 0.0000 0.0000
# 4 0.0000 0.0000 0.0000 -17.5703 0.0000 0.0000
# 5 0.0000 0.0000 0.0000 0.0000 7.4712 0.0000
# 6 0.0000 0.0000 0.0000 0.0000 0.0000 5.6127
#
#
#
# Elastic Compliance Matrix: (Units=1/GPa)
#
#
# Indices 1 2 3 4 5 6 
#
# 1 0.032437 0.003478 -0.010455 0.000000 0.000000 0.000000
# 2 0.003478 0.012448 -0.003097 0.000000 0.000000 0.000000
# 3 -0.010455 -0.003097 0.009611 0.000000 0.000000 0.000000
# 4 0.000000 0.000000 0.000000 -0.056914 0.000000 0.000000
# 5 0.000000 0.000000 0.000000 0.000000 0.133848 0.000000
# 6 0.000000 0.000000 0.000000 0.000000 0.000000 0.178168
#
#
# Mechanical properties :
#
#
# Convention : Reuss Voigt Hill
#
# Bulk Modulus (GPa) = 29.11439 51.24977 40.18208
# Shear Modulus (GPa) = 14.65433 14.10962 14.38198
#
# Velocity S-wave (km/s) = 2.64391 2.59431 2.61923
# Velocity P-wave (km/s) = 4.81749 5.78105 5.32113
#
# Compressibility (1/GPa) = 0.03434727
#
# Stress axis : x y z
#
# Youngs Moduli (GPa) = 30.82871 80.33160 104.05158
#
# Poissons Ratio (x) = -0.27941 1.08790
# Poissons Ratio (y) = -0.10723 0.32228
# Poissons Ratio (z) = 0.32233 0.24881
#
# Static dielectric constant tensor:
#      x y z
#    x 1.413400 0.000000 0.000000 
#    y 0.000000 1.766360 0.000000 
#    z 0.000000 0.000000 1.808340 
# 
# From -- ./inp_files/56377.got.cif
#   From: 2010.05.17/outbox.cif.g08.bks.cpg/sg66_29_cif.got.tgz:56377.got - 2010.06.03 17:51:23.
