data_PCOD9498680
_publ_section_title
;
Structure prediction by ZEFSAII (Michael W. Deem and Ramdas Pophale) SiO2 
 PCOD9498680
Probable space group: C C C M
;
_chemical_formula_sum "Si O2"
_cell_formula_units_Z 64
_cell_length_a 5.218328
_cell_length_b 29.244845
_cell_length_c 18.910790
_cell_angle_alpha 90.000000
_cell_angle_beta 90.000000
_cell_angle_gamma 90.000000
_cell_volume 2885.960411
_symmetry_space_group_name_H-M "C C C M"
_symmetry_group_IT_number 66
_symmetry_cell_setting 'orthorhombic'
loop_
_space_group_symop_operation_xyz
x,y,z
-x,-y,z
x,-y,1/2-z
-x,y,1/2-z
-x,-y,-z
x,y,-z
-x,y,1/2+z
x,-y,1/2+z
1/2+x,1/2+y,z
1/2-x,1/2-y,z
1/2+x,1/2-y,1/2-z
1/2-x,1/2+y,1/2-z
1/2-x,1/2-y,-z
1/2+x,1/2+y,-z
1/2-x,1/2+y,1/2+z
1/2+x,1/2-y,1/2+z
loop_
_atom_site_type_symbol
_atom_site_label
_atom_site_fract_x
_atom_site_fract_y
_atom_site_fract_z
Si Si1 0.696860 0.297748 0.654563
Si Si2 0.098700 0.608401 0.677941
Si Si3 0.749586 0.969199 0.081345
Si Si4 0.314521 0.172235 0.417677
O O1 0.750000 0.250000 0.693154
O O2 0.756647 0.344106 0.697338
O O3 0.419763 0.302706 0.620329
O O4 0.918831 0.300562 0.594281
O O5 0.264568 0.573497 0.633344
O O6 0.000000 0.587247 0.750000
O O7 0.874475 0.625458 0.624842
O O8 0.500000 0.000000 0.097521
O O9 0.723960 0.953031 0.000000
O O10 0.000000 0.000000 0.086537
O O11 0.262801 0.165117 0.500000
#
# Coordination Sequence:
#
# PCOD9498680 Si02
#       4
#    16  16  16  16
#     4  10  23  41  63  96 132 176 224 280 332 392
#     4  10  25  45  66  98 136 179 221 271 333 406
#     4  10  23  44  71 101 129 166 217 274 338 400
#     4  10  22  39  63  93 129 172 223 278 330 389
#
# _framework density 22.176327000000001
#
# number of rings (size 3 to 8) (size 9 to 14) (size 15 to 20)
#    1.500    0.500    0.000    2.250    3.500    4.500 
#    4.500    1.250    0.000    0.000    0.000    0.000 
#    0.000    0.000    0.000    0.000    0.000    0.000 
#
# Total GULP energy -178606.370543 kJ/mol
# GULP energy per Si atom -5581.449079 kJ/mol
# Density = 2.212585 g / cm^3
# Si number density = 22.176327 Si / 1000 Ang^3
#
#
#
# Elastic Constant Matrix: (Units=GPa)
#
#
# Indices 1 2 3 4 5 6 
#
# 1 116.4958 7.9021 10.3793 0.0000 0.0000 0.0000
# 2 7.9021 87.9985 40.4800 0.0000 0.0000 0.0000
# 3 10.3793 40.4800 58.8942 0.0000 0.0000 0.0000
# 4 0.0000 0.0000 0.0000 18.2965 0.0000 0.0000
# 5 0.0000 0.0000 0.0000 0.0000 -230.5770 0.0000
# 6 0.0000 0.0000 0.0000 0.0000 0.0000 19.6319
#
#
#
# Elastic Compliance Matrix: (Units=1/GPa)
#
#
# Indices 1 2 3 4 5 6 
#
# 1 0.008722 -0.000111 -0.001461 0.000000 0.000000 0.000000
# 2 -0.000111 0.016620 -0.011404 0.000000 0.000000 0.000000
# 3 -0.001461 -0.011404 0.025075 0.000000 0.000000 0.000000
# 4 0.000000 0.000000 0.000000 0.054655 0.000000 0.000000
# 5 0.000000 0.000000 0.000000 0.000000 -0.004337 0.000000
# 6 0.000000 0.000000 0.000000 0.000000 0.000000 0.050938
#
#
# Mechanical properties :
#
#
# Convention : Reuss Voigt Hill
#
# Bulk Modulus (GPa) = 40.87403 42.32347 41.59875
# Shear Modulus (GPa) = 26.91380 -24.88791 1.01295
#
# Velocity S-wave (km/s) = 3.48750 -3.35367 0.67658
# Velocity P-wave (km/s) = 5.88967 2.03231 4.40559
#
# Compressibility (1/GPa) = 0.02446541
#
# Stress axis : x y z
#
# Youngs Moduli (GPa) = 114.65683 60.17006 39.88021
#
# Poissons Ratio (x) = 0.00670 0.05825
# Poissons Ratio (y) = 0.01276 0.45478
# Poissons Ratio (z) = 0.16746 0.68615
#
# Static dielectric constant tensor:
#      x y z
#    x 1.852280 0.000000 0.000000 
#    y 0.000000 1.873960 0.000000 
#    z 0.000000 0.000000 1.746360 
# 
# From -- ./inp_files/35042.got.cif
#   From: 2010.05.17/outbox.cif.g08.bks.cpg/sg66_18_cif.got.tgz:35042.got - 2010.06.03 17:51:23.
