data_PCOD9498836
_publ_section_title
;
Structure prediction by ZEFSAII (Michael W. Deem and Ramdas Pophale) SiO2 
 PCOD9498836
Probable space group: C C C M
;
_chemical_formula_sum "Si O2"
_cell_formula_units_Z 48
_cell_length_a 8.655046
_cell_length_b 15.071228
_cell_length_c 16.224626
_cell_angle_alpha 90.000000
_cell_angle_beta 90.000000
_cell_angle_gamma 90.000000
_cell_volume 2116.375449
_symmetry_space_group_name_H-M "C C C M"
_symmetry_group_IT_number 66
_symmetry_cell_setting 'orthorhombic'
loop_
_space_group_symop_operation_xyz
x,y,z
-x,-y,z
x,-y,1/2-z
-x,y,1/2-z
-x,-y,-z
x,y,-z
-x,y,1/2+z
x,-y,1/2+z
1/2+x,1/2+y,z
1/2-x,1/2-y,z
1/2+x,1/2-y,1/2-z
1/2-x,1/2+y,1/2-z
1/2-x,1/2-y,-z
1/2+x,1/2+y,-z
1/2-x,1/2+y,1/2+z
1/2+x,1/2-y,1/2+z
loop_
_atom_site_type_symbol
_atom_site_label
_atom_site_fract_x
_atom_site_fract_y
_atom_site_fract_z
Si Si1 0.556428 0.160279 0.500000
Si Si2 0.892861 0.318076 0.822668
Si Si3 0.232845 0.500000 0.250000
Si Si4 0.000000 0.000000 0.373939
Si Si5 0.092072 0.131649 0.000000
O O1 0.468329 0.151941 0.588830
O O2 0.722858 0.108599 0.500000
O O3 0.589077 0.264622 0.500000
O O4 0.750000 0.250000 0.837029
O O5 0.847633 0.410073 0.777736
O O6 0.000000 0.274092 0.750000
O O7 0.347719 0.518141 0.324082
O O8 0.994675 0.910986 0.426416
#
# Coordination Sequence:
#
# PCOD9498836 Si02
#       5
#     8  16   8   8   8
#     4  11  25  45  73 107 152 189 252 306 380 439
#     4  12  28  46  75 108 151 198 251 311 375 447
#     4  11  25  44  70 104 148 192 248 302 374 440
#     4  10  22  42  70 104 144 190 242 300 376 449
#     4  10  22  41  71 106 142 190 242 304 371 450
#
# _framework density 22.680287
#
# number of rings (size 3 to 8) (size 9 to 14) (size 15 to 20)
#    0.000    1.000    0.000    5.000   14.000    2.667 
#    0.000    5.000    0.000    0.000    0.000    0.000 
#    0.000    0.000    0.000    0.000    0.000    0.000 
#
# Total GULP energy -133646.192863 kJ/mol
# GULP energy per Si atom -5568.591369 kJ/mol
# Density = 2.262867 g / cm^3
# Si number density = 22.680287 Si / 1000 Ang^3
#
#
#
# Elastic Constant Matrix: (Units=GPa)
#
#
# Indices 1 2 3 4 5 6 
#
# 1 67.5529 27.6272 90.4094 0.0000 0.0000 0.0000
# 2 27.6272 93.3752 37.4200 0.0000 0.0000 0.0000
# 3 90.4094 37.4200 158.4101 0.0000 0.0000 0.0000
# 4 0.0000 0.0000 0.0000 55.6093 0.0000 0.0000
# 5 0.0000 0.0000 0.0000 0.0000 70.3274 0.0000
# 6 0.0000 0.0000 0.0000 0.0000 0.0000 46.8600
#
#
#
# Elastic Compliance Matrix: (Units=1/GPa)
#
#
# Indices 1 2 3 4 5 6 
#
# 1 0.064565 -0.004789 -0.035718 0.000000 0.000000 0.000000
# 2 -0.004789 0.012185 -0.000145 0.000000 0.000000 0.000000
# 3 -0.035718 -0.000145 0.026732 0.000000 0.000000 0.000000
# 4 0.000000 0.000000 0.000000 0.017983 0.000000 0.000000
# 5 0.000000 0.000000 0.000000 0.000000 0.014219 0.000000
# 6 0.000000 0.000000 0.000000 0.000000 0.000000 0.021340
#
#
# Mechanical properties :
#
#
# Convention : Reuss Voigt Hill
#
# Bulk Modulus (GPa) = 45.09024 70.02793 57.55909
# Shear Modulus (GPa) = 20.34843 45.48477 32.91660
#
# Velocity S-wave (km/s) = 2.99856 4.48311 3.81377
# Velocity P-wave (km/s) = 5.64911 7.59874 6.69527
#
# Compressibility (1/GPa) = 0.02217775
#
# Stress axis : x y z
#
# Youngs Moduli (GPa) = 15.48838 82.07114 37.40824
#
# Poissons Ratio (x) = 0.39305 1.33613
# Poissons Ratio (y) = 0.07418 0.00542
# Poissons Ratio (z) = 0.55321 0.01190
#
# Static dielectric constant tensor:
#      x y z
#    x 1.934400 0.000000 0.000000 
#    y 0.000000 1.805200 0.000000 
#    z 0.000000 0.000000 2.005140 
# 
# From -- ./inp_files/35799.got.cif
#   From: 2010.05.17/outbox.cif.g08.bks.cpg/sg66_18_cif.got.tgz:35799.got - 2010.06.03 17:51:23.
