data_PCOD9498064
_publ_section_title
;
Structure prediction by ZEFSAII (Michael W. Deem and Ramdas Pophale) SiO2 
 PCOD9498064
Probable space group: C C C M
;
_chemical_formula_sum "Si O2"
_cell_formula_units_Z 56
_cell_length_a 5.576994
_cell_length_b 13.318770
_cell_length_c 33.622653
_cell_angle_alpha 90.000000
_cell_angle_beta 90.000000
_cell_angle_gamma 90.000000
_cell_volume 2497.446968
_symmetry_space_group_name_H-M "C C C M"
_symmetry_group_IT_number 66
_symmetry_cell_setting 'orthorhombic'
loop_
_space_group_symop_operation_xyz
x,y,z
-x,-y,z
x,-y,1/2-z
-x,y,1/2-z
-x,-y,-z
x,y,-z
-x,y,1/2+z
x,-y,1/2+z
1/2+x,1/2+y,z
1/2-x,1/2-y,z
1/2+x,1/2-y,1/2-z
1/2-x,1/2+y,1/2-z
1/2-x,1/2-y,-z
1/2+x,1/2+y,-z
1/2-x,1/2+y,1/2+z
1/2+x,1/2-y,1/2+z
loop_
_atom_site_type_symbol
_atom_site_label
_atom_site_fract_x
_atom_site_fract_y
_atom_site_fract_z
Si Si1 0.000000 0.500000 0.583784
Si Si2 0.124871 0.143069 0.622693
Si Si3 0.871637 0.109563 0.456829
Si Si4 0.001721 0.814153 0.293343
O O1 0.802532 0.552407 0.611320
O O2 0.901187 0.415323 0.553987
O O3 0.250000 0.250000 0.627157
O O4 0.965755 0.158212 0.583349
O O5 0.003055 0.125085 0.665335
O O6 0.907745 0.156945 0.500000
O O7 0.000000 0.000000 0.458508
O O8 0.250000 0.750000 0.295329
O O9 0.000000 0.866657 0.250000
O O10 0.750000 0.750000 0.292403
#
# Coordination Sequence:
#
# PCOD9498064 Si02
#       4
#     8  16  16  16
#     4  10  21  38  58  87 118 162 206 257 309 372
#     4  10  22  36  62  90 120 159 206 258 312 375
#     4   9  19  36  57  83 120 162 204 253 312 371
#     4   9  19  36  62  94 121 158 206 251 306 378
#
# _framework density 22.422898
#
# number of rings (size 3 to 8) (size 9 to 14) (size 15 to 20)
#    0.000    2.571    0.000    0.429    8.000    1.714 
#    0.000    1.429    0.000    9.429    0.000    0.000 
#    0.000    0.000    0.000    0.000    0.000    0.000 
#
# Total GULP energy -155875.768705 kJ/mol
# GULP energy per Si atom -5566.991739 kJ/mol
# Density = 2.237186 g / cm^3
# Si number density = 22.422898 Si / 1000 Ang^3
#
#
#
# Elastic Constant Matrix: (Units=GPa)
#
#
# Indices 1 2 3 4 5 6 
#
# 1 88.5746 5.9543 45.3654 0.0000 0.0000 0.0000
# 2 5.9543 42.7222 27.1850 0.0000 0.0000 0.0000
# 3 45.3654 27.1850 293.0500 0.0000 0.0000 0.0000
# 4 0.0000 0.0000 0.0000 27.8835 0.0000 0.0000
# 5 0.0000 0.0000 0.0000 0.0000 77.8780 0.0000
# 6 0.0000 0.0000 0.0000 0.0000 0.0000 25.0188
#
#
#
# Elastic Compliance Matrix: (Units=1/GPa)
#
#
# Indices 1 2 3 4 5 6 
#
# 1 0.012274 -0.000533 -0.001851 0.000000 0.000000 0.000000
# 2 -0.000533 0.024899 -0.002227 0.000000 0.000000 0.000000
# 3 -0.001851 -0.002227 0.003905 0.000000 0.000000 0.000000
# 4 0.000000 0.000000 0.000000 0.035863 0.000000 0.000000
# 5 0.000000 0.000000 0.000000 0.000000 0.012841 0.000000
# 6 0.000000 0.000000 0.000000 0.000000 0.000000 0.039970
#
#
# Mechanical properties :
#
#
# Convention : Reuss Voigt Hill
#
# Bulk Modulus (GPa) = 31.39132 64.59514 47.99323
# Shear Modulus (GPa) = 33.42426 49.21220 41.31823
#
# Velocity S-wave (km/s) = 3.86506 4.68988 4.29730
# Velocity P-wave (km/s) = 5.82652 7.62868 6.78768
#
# Compressibility (1/GPa) = 0.03185594
#
# Stress axis : x y z
#
# Youngs Moduli (GPa) = 81.47595 40.16298 256.05121
#
# Poissons Ratio (x) = 0.02141 0.47384
# Poissons Ratio (y) = 0.04343 0.57028
# Poissons Ratio (z) = 0.15078 0.08945
#
# Static dielectric constant tensor:
#      x y z
#    x 1.910690 0.000000 0.000000 
#    y 0.000000 1.880850 0.000000 
#    z 0.000000 0.000000 1.868140 
# 
# From -- ./inp_files/66742.got.cif
#   From: 2010.05.17/outbox.cif.g08.bks.cpg/sg66_34_cif.got.tgz:66742.got - 2010.06.03 17:51:23.
