data_PCOD9498760
_publ_section_title
;
Structure prediction by ZEFSAII (Michael W. Deem and Ramdas Pophale) SiO2 
 PCOD9498760
Probable space group: C C C M
;
_chemical_formula_sum "Si O2"
_cell_formula_units_Z 80
_cell_length_a 8.198913
_cell_length_b 22.464149
_cell_length_c 20.786582
_cell_angle_alpha 90.000000
_cell_angle_beta 90.000000
_cell_angle_gamma 90.000000
_cell_volume 3828.505999
_symmetry_space_group_name_H-M "C C C M"
_symmetry_group_IT_number 66
_symmetry_cell_setting 'orthorhombic'
loop_
_space_group_symop_operation_xyz
x,y,z
-x,-y,z
x,-y,1/2-z
-x,y,1/2-z
-x,-y,-z
x,y,-z
-x,y,1/2+z
x,-y,1/2+z
1/2+x,1/2+y,z
1/2-x,1/2-y,z
1/2+x,1/2-y,1/2-z
1/2-x,1/2+y,1/2-z
1/2-x,1/2-y,-z
1/2+x,1/2+y,-z
1/2-x,1/2+y,1/2+z
1/2+x,1/2-y,1/2+z
loop_
_atom_site_type_symbol
_atom_site_label
_atom_site_fract_x
_atom_site_fract_y
_atom_site_fract_z
Si Si1 0.250000 0.750000 0.322042
Si Si2 0.666800 0.472213 0.642629
Si Si3 0.740398 0.536931 0.000000
Si Si4 0.000000 0.336043 0.250000
Si Si5 0.696939 0.098592 0.139287
Si Si6 0.915255 0.591987 0.500000
Si Si7 0.549327 0.645937 0.176860
O O1 0.138056 0.706751 0.279542
O O2 0.371360 0.703530 0.356337
O O3 0.500000 0.500000 0.668868
O O4 0.646234 0.457219 0.566787
O O5 0.795383 0.526081 0.646266
O O6 0.679458 0.408727 0.676813
O O7 0.821417 0.471614 0.000000
O O8 0.891857 0.581593 0.000000
O O9 0.916742 0.374646 0.194138
O O10 0.634015 0.117739 0.068921
O O11 0.882061 0.122397 0.145847
O O12 0.500000 0.660924 0.250000
#
# Coordination Sequence:
#
# PCOD9498760 Si02
#       7
#     8  16   8   8  16   8  16
#     4  12  24  42  64  88 120 168 222 258 314 376
#     4   9  20  36  61  91 128 160 197 255 322 379
#     4   9  17  34  56  89 127 169 204 234 303 399
#     4  12  22  42  69  92 123 168 214 268 312 378
#     4  10  22  40  65  95 128 163 204 258 329 380
#     4   9  20  36  58  91 133 168 199 251 320 392
#     4  11  22  41  61  90 121 165 206 267 310 379
#
# _framework density 20.895879000000001
#
# number of rings (size 3 to 8) (size 9 to 14) (size 15 to 20)
#    0.000    1.800    3.000    0.300    2.800    6.000 
#    0.000    1.000    0.000    9.600    0.000    0.000 
#    0.000    0.000    0.000    0.000    0.000    0.000 
#
# Total GULP energy -223170.465919 kJ/mol
# GULP energy per Si atom -5579.261648 kJ/mol
# Density = 2.084832 g / cm^3
# Si number density = 20.895879 Si / 1000 Ang^3
#
#
#
# Elastic Constant Matrix: (Units=GPa)
#
#
# Indices 1 2 3 4 5 6 
#
# 1 84.7426 41.8949 40.3493 0.0000 0.0000 0.0000
# 2 41.8949 125.7222 44.8913 0.0000 0.0000 0.0000
# 3 40.3493 44.8913 83.9964 0.0000 0.0000 0.0000
# 4 0.0000 0.0000 0.0000 -20.9172 0.0000 0.0000
# 5 0.0000 0.0000 0.0000 0.0000 26.4090 0.0000
# 6 0.0000 0.0000 0.0000 0.0000 0.0000 32.5465
#
#
#
# Elastic Compliance Matrix: (Units=1/GPa)
#
#
# Indices 1 2 3 4 5 6 
#
# 1 0.016314 -0.003260 -0.006094 0.000000 0.000000 0.000000
# 2 -0.003260 0.010481 -0.004036 0.000000 0.000000 0.000000
# 3 -0.006094 -0.004036 0.016990 0.000000 0.000000 0.000000
# 4 0.000000 0.000000 0.000000 -0.047808 0.000000 0.000000
# 5 0.000000 0.000000 0.000000 0.000000 0.037866 0.000000
# 6 0.000000 0.000000 0.000000 0.000000 0.000000 0.030725
#
#
# Mechanical properties :
#
#
# Convention : Reuss Voigt Hill
#
# Bulk Modulus (GPa) = 58.80744 60.97024 59.88884
# Shear Modulus (GPa) = 51.53729 18.76272 35.15001
#
# Velocity S-wave (km/s) = 4.97166 2.99977 4.10585
# Velocity P-wave (km/s) = 7.82053 6.42181 7.15543
#
# Compressibility (1/GPa) = 0.01700465
#
# Stress axis : x y z
#
# Youngs Moduli (GPa) = 61.29711 95.40658 58.85963
#
# Poissons Ratio (x) = 0.31105 0.35871
# Poissons Ratio (y) = 0.19985 0.23753
# Poissons Ratio (z) = 0.37356 0.38502
#
# Static dielectric constant tensor:
#      x y z
#    x 1.800610 0.000000 0.000000 
#    y 0.000000 1.783690 0.000000 
#    z 0.000000 0.000000 1.742920 
# 
# From -- ./inp_files/55433.got.cif
#   From: 2010.05.17/outbox.cif.g08.bks.cpg/sg66_28_cif.got.tgz:55433.got - 2010.06.03 17:51:23.
