data_PCOD9498454
_publ_section_title
;
Structure prediction by ZEFSAII (Michael W. Deem and Ramdas Pophale) SiO2 
 PCOD9498454
Probable space group: C C C M
;
_chemical_formula_sum "Si O2"
_cell_formula_units_Z 80
_cell_length_a 27.287461
_cell_length_b 9.696341
_cell_length_c 14.739459
_cell_angle_alpha 90.000000
_cell_angle_beta 90.000000
_cell_angle_gamma 90.000000
_cell_volume 3899.891744
_symmetry_space_group_name_H-M "C C C M"
_symmetry_group_IT_number 66
_symmetry_cell_setting 'orthorhombic'
loop_
_space_group_symop_operation_xyz
x,y,z
-x,-y,z
x,-y,1/2-z
-x,y,1/2-z
-x,-y,-z
x,y,-z
-x,y,1/2+z
x,-y,1/2+z
1/2+x,1/2+y,z
1/2-x,1/2-y,z
1/2+x,1/2-y,1/2-z
1/2-x,1/2+y,1/2-z
1/2-x,1/2-y,-z
1/2+x,1/2+y,-z
1/2-x,1/2+y,1/2+z
1/2+x,1/2-y,1/2+z
loop_
_atom_site_type_symbol
_atom_site_label
_atom_site_fract_x
_atom_site_fract_y
_atom_site_fract_z
Si Si1 0.994521 0.661718 0.141983
Si Si2 0.618854 0.790386 0.868752
Si Si3 0.257121 0.965211 0.500000
Si Si4 0.432228 0.289170 0.500000
Si Si5 0.856922 0.955907 0.000000
Si Si6 0.357538 0.040415 0.500000
Si Si7 0.212494 0.358728 0.199203
O O1 0.939227 0.713332 0.129871
O O2 0.000000 0.500000 0.112700
O O3 0.000000 0.664327 0.250000
O O4 0.032446 0.757019 0.086511
O O5 0.636625 0.651444 0.917354
O O6 0.656758 0.805283 0.786543
O O7 0.630182 0.936624 0.917807
O O8 0.199971 0.004269 0.500000
O O9 0.271151 0.882267 0.407124
O O10 0.300264 0.079125 0.500000
O O11 0.400272 0.430024 0.500000
O O12 0.392007 0.169517 0.500000
O O13 0.218085 0.500000 0.250000
O O14 0.250000 0.250000 0.238401
#
# Coordination Sequence:
#
# PCOD9498454 Si02
#       7
#    16  16   8   8   8   8  16
#     4  11  24  41  67  96 129 174 224 280 335 393
#     4  10  21  41  67  94 126 178 220 264 335 407
#     4  10  21  45  65  91 133 179 215 263 338 408
#     4  12  23  43  64 102 134 166 227 288 322 386
#     4  11  23  42  72  93 133 183 215 273 347 395
#     4   9  19  35  69  94 123 168 221 272 315 392
#     4  11  23  43  69  99 133 175 224 273 331 404
#
# _framework density 20.513390999999999
#
# number of rings (size 3 to 8) (size 9 to 14) (size 15 to 20)
#    0.000    1.400    4.000    2.400    2.800    2.000 
#   10.800    2.000    0.000    0.000    0.000    0.000 
#    0.000    0.000    0.000    0.000    0.000    0.000 
#
# Total GULP energy -222692.106763 kJ/mol
# GULP energy per Si atom -5567.302669 kJ/mol
# Density = 2.046670 g / cm^3
# Si number density = 20.513391 Si / 1000 Ang^3
#
#
#
# Elastic Constant Matrix: (Units=GPa)
#
#
# Indices 1 2 3 4 5 6 
#
# 1 209.0247 70.3962 24.4201 0.0000 0.0000 0.0000
# 2 70.3962 113.6179 28.2538 0.0000 0.0000 0.0000
# 3 24.4201 28.2538 51.4887 0.0000 0.0000 0.0000
# 4 0.0000 0.0000 0.0000 7.9555 0.0000 0.0000
# 5 0.0000 0.0000 0.0000 0.0000 3.9644 0.0000
# 6 0.0000 0.0000 0.0000 0.0000 0.0000 37.6898
#
#
#
# Elastic Compliance Matrix: (Units=1/GPa)
#
#
# Indices 1 2 3 4 5 6 
#
# 1 0.006085 -0.003535 -0.000946 0.000000 0.000000 0.000000
# 2 -0.003535 0.012246 -0.005043 0.000000 0.000000 0.000000
# 3 -0.000946 -0.005043 0.022638 0.000000 0.000000 0.000000
# 4 0.000000 0.000000 0.000000 0.125700 0.000000 0.000000
# 5 0.000000 0.000000 0.000000 0.000000 0.252245 0.000000
# 6 0.000000 0.000000 0.000000 0.000000 0.000000 0.026532
#
#
# Mechanical properties :
#
#
# Convention : Reuss Voigt Hill
#
# Bulk Modulus (GPa) = 45.62042 68.91905 57.26973
# Shear Modulus (GPa) = 10.59768 26.65934 18.62851
#
# Velocity S-wave (km/s) = 2.27540 3.60892 3.01676
# Velocity P-wave (km/s) = 5.40286 7.14393 6.33351
#
# Compressibility (1/GPa) = 0.02192001
#
# Stress axis : x y z
#
# Youngs Moduli (GPa) = 164.33289 81.66092 44.17369
#
# Poissons Ratio (x) = 0.28867 0.04180
# Poissons Ratio (y) = 0.58092 0.22277
# Poissons Ratio (z) = 0.15551 0.41183
#
# Static dielectric constant tensor:
#      x y z
#    x 1.863260 0.000000 0.000000 
#    y 0.000000 1.677090 0.000000 
#    z 0.000000 0.000000 1.790460 
# 
# From -- ./inp_files/44171.got.cif
#   From: 2010.05.17/outbox.cif.g08.bks.cpg/sg66_23_cif.got.tgz:44171.got - 2010.06.03 17:51:23.
