data_PCOD9498149
_publ_section_title
;
Structure prediction by ZEFSAII (Michael W. Deem and Ramdas Pophale) SiO2 
 PCOD9498149
Probable space group: C C C M
;
_chemical_formula_sum "Si O2"
_cell_formula_units_Z 68
_cell_length_a 14.506412
_cell_length_b 17.513345
_cell_length_c 11.189371
_cell_angle_alpha 90.000000
_cell_angle_beta 90.000000
_cell_angle_gamma 90.000000
_cell_volume 2842.724579
_symmetry_space_group_name_H-M "C C C M"
_symmetry_group_IT_number 66
_symmetry_cell_setting 'orthorhombic'
loop_
_space_group_symop_operation_xyz
x,y,z
-x,-y,z
x,-y,1/2-z
-x,y,1/2-z
-x,-y,-z
x,y,-z
-x,y,1/2+z
x,-y,1/2+z
1/2+x,1/2+y,z
1/2-x,1/2-y,z
1/2+x,1/2-y,1/2-z
1/2-x,1/2+y,1/2-z
1/2-x,1/2-y,-z
1/2+x,1/2+y,-z
1/2-x,1/2+y,1/2+z
1/2+x,1/2-y,1/2+z
loop_
_atom_site_type_symbol
_atom_site_label
_atom_site_fract_x
_atom_site_fract_y
_atom_site_fract_z
Si Si1 0.742369 0.339201 0.766907
Si Si2 0.809073 0.030118 0.623008
Si Si3 0.556462 0.849379 0.366015
Si Si4 0.549309 0.335349 0.871222
Si Si5 0.000000 0.000000 0.000000
O O1 0.750000 0.250000 0.741684
O O2 0.712286 0.380976 0.645616
O O3 0.837390 0.361227 0.829851
O O4 0.657151 0.351115 0.856792
O O5 0.761340 0.005506 0.500000
O O6 0.775572 0.000000 0.750000
O O7 0.915754 0.010390 0.602500
O O8 0.500000 0.877108 0.250000
O O9 0.535782 0.879199 0.500000
O O10 0.539536 0.756884 0.374876
O O11 0.500000 0.359406 0.750000
O O12 0.517895 0.370971 0.000000
#
# Coordination Sequence:
#
# PCOD9498149 Si02
#       5
#    16  16  16  16   4
#     4  10  21  38  62  97 136 180 240 303 365 423
#     4  10  23  42  66  94 134 188 236 290 344 422
#     4   9  18  34  57  84 125 174 221 286 363 429
#     4   9  18  32  50  82 126 174 224 281 355 431
#     4   8  22  44  64  92 136 186 246 280 332 422
#
# _framework density 23.920712999999999
#
# number of rings (size 3 to 8) (size 9 to 14) (size 15 to 20)
#    0.706    1.882    0.000    1.059    0.000    8.941 
#    4.235    4.706    0.000    0.706    0.000    3.294 
#    0.000    0.000    0.000    0.000    0.000    0.000 
#
# Total GULP energy -189412.189412 kJ/mol
# GULP energy per Si atom -5570.946747 kJ/mol
# Density = 2.386627 g / cm^3
# Si number density = 23.920713 Si / 1000 Ang^3
#
#
#
# Elastic Constant Matrix: (Units=GPa)
#
#
# Indices 1 2 3 4 5 6 
#
# 1 97.8272 24.0528 75.5195 0.0000 0.0000 0.0000
# 2 24.0528 60.5151 46.9529 0.0000 0.0000 0.0000
# 3 75.5195 46.9529 257.9431 0.0000 0.0000 0.0000
# 4 0.0000 0.0000 0.0000 25.1103 0.0000 0.0000
# 5 0.0000 0.0000 0.0000 0.0000 15.4229 0.0000
# 6 0.0000 0.0000 0.0000 0.0000 0.0000 29.6668
#
#
#
# Elastic Compliance Matrix: (Units=1/GPa)
#
#
# Indices 1 2 3 4 5 6 
#
# 1 0.013573 -0.002692 -0.003484 0.000000 0.000000 0.000000
# 2 -0.002692 0.019776 -0.002812 0.000000 0.000000 0.000000
# 3 -0.003484 -0.002812 0.005409 0.000000 0.000000 0.000000
# 4 0.000000 0.000000 0.000000 0.039824 0.000000 0.000000
# 5 0.000000 0.000000 0.000000 0.000000 0.064838 0.000000
# 6 0.000000 0.000000 0.000000 0.000000 0.000000 0.033708
#
#
# Mechanical properties :
#
#
# Convention : Reuss Voigt Hill
#
# Bulk Modulus (GPa) = 48.11553 78.81508 63.46530
# Shear Modulus (GPa) = 24.74858 32.02403 28.38630
#
# Velocity S-wave (km/s) = 3.22002 3.66287 3.44856
# Velocity P-wave (km/s) = 5.82949 7.13504 6.51505
#
# Compressibility (1/GPa) = 0.02078331
#
# Stress axis : x y z
#
# Youngs Moduli (GPa) = 73.67310 50.56557 184.88839
#
# Poissons Ratio (x) = 0.13611 0.64415
# Poissons Ratio (y) = 0.19832 0.51986
# Poissons Ratio (z) = 0.25668 0.14218
#
# Static dielectric constant tensor:
#      x y z
#    x 1.838160 0.000000 0.000000 
#    y 0.000000 1.950490 0.000000 
#    z 0.000000 0.000000 1.922380 
# 
# From -- ./inp_files/16134.got.cif
#   From: 2010.05.17/outbox.cif.g08.bks.cpg/sg66_9_cif.got.tgz:16134.got - 2010.06.03 17:51:23.
