data_PCOD9498808
_publ_section_title
;
Structure prediction by ZEFSAII (Michael W. Deem and Ramdas Pophale) SiO2 
 PCOD9498808
Probable space group: C C C M
;
_chemical_formula_sum "Si O2"
_cell_formula_units_Z 96
_cell_length_a 8.251989
_cell_length_b 19.001374
_cell_length_c 30.041716
_cell_angle_alpha 90.000000
_cell_angle_beta 90.000000
_cell_angle_gamma 90.000000
_cell_volume 4710.514909
_symmetry_space_group_name_H-M "C C C M"
_symmetry_group_IT_number 66
_symmetry_cell_setting 'orthorhombic'
loop_
_space_group_symop_operation_xyz
x,y,z
-x,-y,z
x,-y,1/2-z
-x,y,1/2-z
-x,-y,-z
x,y,-z
-x,y,1/2+z
x,-y,1/2+z
1/2+x,1/2+y,z
1/2-x,1/2-y,z
1/2+x,1/2-y,1/2-z
1/2-x,1/2+y,1/2-z
1/2-x,1/2-y,-z
1/2+x,1/2+y,-z
1/2-x,1/2+y,1/2+z
1/2+x,1/2-y,1/2+z
loop_
_atom_site_type_symbol
_atom_site_label
_atom_site_fract_x
_atom_site_fract_y
_atom_site_fract_z
Si Si1 0.344890 0.539578 0.655347
Si Si2 0.892014 0.189836 0.385212
Si Si3 0.812018 0.829464 0.550358
Si Si4 0.555288 0.258139 0.203937
Si Si5 0.554759 0.899968 0.201241
Si Si6 0.878063 0.439942 0.891699
O O1 0.500000 0.500000 0.674557
O O2 0.334251 0.611799 0.627133
O O3 0.222260 0.560462 0.693975
O O4 0.283161 0.480917 0.621197
O O5 0.750000 0.250000 0.390144
O O6 0.013097 0.178657 0.426314
O O7 0.002264 0.207278 0.342010
O O8 0.825089 0.857260 0.500000
O O9 0.750000 0.750000 0.549003
O O10 0.680871 0.875717 0.578016
O O11 0.500000 0.294931 0.250000
O O12 0.750000 0.250000 0.204704
O O13 0.454721 0.184763 0.203274
O O14 0.500000 0.921696 0.250000
O O15 0.452834 0.917312 0.156347
O O16 0.000000 0.500000 0.910517
#
# Coordination Sequence:
#
# PCOD9498808 Si02
#       6
#    16  16  16  16  16  16
#     4  11  23  41  65  98 130 178 226 269 344 412
#     4  12  23  42  69  96 133 173 221 287 345 406
#     4  11  25  45  70  98 129 174 228 282 345 417
#     4  11  23  38  64  96 133 179 231 277 334 407
#     4  10  22  41  65  94 136 181 226 281 336 404
#     4  10  22  42  66  93 134 179 219 278 340 414
#
# _framework density 20.379937000000002
#
# number of rings (size 3 to 8) (size 9 to 14) (size 15 to 20)
#    0.000    1.167    3.333    3.000    4.667    3.667 
#    0.000    5.000    0.000    0.000    0.000    0.000 
#    0.000    0.000    0.000    0.000    0.000    0.000 
#
# Total GULP energy -267404.090727 kJ/mol
# GULP energy per Si atom -5570.918557 kJ/mol
# Density = 2.033355 g / cm^3
# Si number density = 20.379937 Si / 1000 Ang^3
#
#
#
# Elastic Constant Matrix: (Units=GPa)
#
#
# Indices 1 2 3 4 5 6 
#
# 1 92.6697 25.0418 67.7484 0.0000 0.0000 0.0000
# 2 25.0418 83.1371 40.5309 0.0000 0.0000 0.0000
# 3 67.7484 40.5309 130.2056 0.0000 0.0000 0.0000
# 4 0.0000 0.0000 0.0000 20.9875 0.0000 0.0000
# 5 0.0000 0.0000 0.0000 0.0000 153.0273 0.0000
# 6 0.0000 0.0000 0.0000 0.0000 0.0000 37.1074
#
#
#
# Elastic Compliance Matrix: (Units=1/GPa)
#
#
# Indices 1 2 3 4 5 6 
#
# 1 0.017483 -0.000980 -0.008792 0.000000 0.000000 0.000000
# 2 -0.000980 0.014235 -0.003921 0.000000 0.000000 0.000000
# 3 -0.008792 -0.003921 0.013475 0.000000 0.000000 0.000000
# 4 0.000000 0.000000 0.000000 0.047647 0.000000 0.000000
# 5 0.000000 0.000000 0.000000 0.000000 0.006535 0.000000
# 6 0.000000 0.000000 0.000000 0.000000 0.000000 0.026949
#
#
# Mechanical properties :
#
#
# Convention : Reuss Voigt Hill
#
# Bulk Modulus (GPa) = 56.15562 63.62829 59.89196
# Shear Modulus (GPa) = 31.31910 53.73719 42.52815
#
# Velocity S-wave (km/s) = 3.92441 5.14052 4.57307
# Velocity P-wave (km/s) = 6.93893 8.15611 7.57202
#
# Compressibility (1/GPa) = 0.01780766
#
# Stress axis : x y z
#
# Youngs Moduli (GPa) = 57.19737 70.24837 74.20959
#
# Poissons Ratio (x) = 0.06884 0.65244
# Poissons Ratio (y) = 0.05605 0.29100
# Poissons Ratio (z) = 0.50287 0.27546
#
# Static dielectric constant tensor:
#      x y z
#    x 1.788170 0.000000 0.000000 
#    y 0.000000 12.909750 0.000000 
#    z 0.000000 0.000000 1.730040 
# 
# From -- ./inp_files/62613.got.cif
#   From: 2010.05.17/outbox.cif.g08.bks.cpg/sg66_32_cif.got.tgz:62613.got - 2010.06.03 17:51:23.
