data_PCOD9498817
_publ_section_title
;
Structure prediction by ZEFSAII (Michael W. Deem and Ramdas Pophale) SiO2 
 PCOD9498817
Probable space group: C C C M
;
_chemical_formula_sum "Si O2"
_cell_formula_units_Z 80
_cell_length_a 22.048363
_cell_length_b 9.192521
_cell_length_c 18.619363
_cell_angle_alpha 90.000000
_cell_angle_beta 90.000000
_cell_angle_gamma 90.000000
_cell_volume 3773.773236
_symmetry_space_group_name_H-M "C C C M"
_symmetry_group_IT_number 66
_symmetry_cell_setting 'orthorhombic'
loop_
_space_group_symop_operation_xyz
x,y,z
-x,-y,z
x,-y,1/2-z
-x,y,1/2-z
-x,-y,-z
x,y,-z
-x,y,1/2+z
x,-y,1/2+z
1/2+x,1/2+y,z
1/2-x,1/2-y,z
1/2+x,1/2-y,1/2-z
1/2-x,1/2+y,1/2-z
1/2-x,1/2-y,-z
1/2+x,1/2+y,-z
1/2-x,1/2+y,1/2+z
1/2+x,1/2-y,1/2+z
loop_
_atom_site_type_symbol
_atom_site_label
_atom_site_fract_x
_atom_site_fract_y
_atom_site_fract_z
Si Si1 0.765075 0.917016 0.418377
Si Si2 0.024249 0.331130 0.672949
Si Si3 0.931974 0.162286 0.414951
Si Si4 0.311974 0.829331 0.413708
Si Si5 0.385110 0.413232 0.674496
O O1 0.782992 0.968354 0.500000
O O2 0.750000 0.750000 0.423381
O O3 0.819727 0.931314 0.362990
O O4 0.704625 0.004974 0.396636
O O5 0.091256 0.254944 0.674091
O O6 0.000000 0.500000 0.669695
O O7 0.000000 0.277463 0.750000
O O8 0.989299 0.255506 0.608082
O O9 0.928849 0.143967 0.500000
O O10 0.872986 0.254776 0.387289
O O11 0.929039 0.008221 0.376150
O O12 0.316326 0.819525 0.500000
O O13 0.250000 0.750000 0.390650
O O14 0.385253 0.500000 0.750000
#
# Coordination Sequence:
#
# PCOD9498817 Si02
#       5
#    16  16  16  16  16
#     4  10  22  41  66  96 134 174 216 276 337 398
#     4  11  26  46  65  91 131 174 215 276 347 398
#     4  11  23  41  70  98 126 174 225 273 324 397
#     4   9  17  35  61  91 122 157 206 260 320 377
#     4  12  24  43  66  96 131 175 224 275 335 407
#
# _framework density 21.198943
#
# number of rings (size 3 to 8) (size 9 to 14) (size 15 to 20)
#    0.000    1.400    4.000    1.200    2.800    2.800 
#    3.600    0.000    0.000    0.000    0.000    0.000 
#    0.000    0.000    0.000    0.000    0.000    0.000 
#
# Total GULP energy -222800.915887 kJ/mol
# GULP energy per Si atom -5570.022897 kJ/mol
# Density = 2.115069 g / cm^3
# Si number density = 21.198943 Si / 1000 Ang^3
#
#
#
# Elastic Constant Matrix: (Units=GPa)
#
#
# Indices 1 2 3 4 5 6 
#
# 1 75.9225 24.1545 26.0243 0.0000 0.0000 0.0000
# 2 24.1545 117.0412 24.1531 0.0000 0.0000 0.0000
# 3 26.0243 24.1531 96.1896 0.0000 0.0000 0.0000
# 4 0.0000 0.0000 0.0000 18.2912 0.0000 0.0000
# 5 0.0000 0.0000 0.0000 0.0000 -12.7988 0.0000
# 6 0.0000 0.0000 0.0000 0.0000 0.0000 39.4528
#
#
#
# Elastic Compliance Matrix: (Units=1/GPa)
#
#
# Indices 1 2 3 4 5 6 
#
# 1 0.015132 -0.002403 -0.003491 0.000000 0.000000 0.000000
# 2 -0.002403 0.009392 -0.001708 0.000000 0.000000 0.000000
# 3 -0.003491 -0.001708 0.011770 0.000000 0.000000 0.000000
# 4 0.000000 0.000000 0.000000 0.054671 0.000000 0.000000
# 5 0.000000 0.000000 0.000000 0.000000 -0.078132 0.000000
# 6 0.000000 0.000000 0.000000 0.000000 0.000000 0.025347
#
#
# Mechanical properties :
#
#
# Convention : Reuss Voigt Hill
#
# Bulk Modulus (GPa) = 47.41428 48.64635 48.03032
# Shear Modulus (GPa) = 82.76278 23.31045 53.03662
#
# Velocity S-wave (km/s) = 6.25506 3.31963 5.00728
# Velocity P-wave (km/s) = 8.63612 6.13926 7.49243
#
# Compressibility (1/GPa) = 0.02109069
#
# Stress axis : x y z
#
# Youngs Moduli (GPa) = 66.08405 106.46925 84.96498
#
# Poissons Ratio (x) = 0.25580 0.29659
# Poissons Ratio (y) = 0.15877 0.14515
# Poissons Ratio (z) = 0.23069 0.18189
#
# Static dielectric constant tensor:
#      x y z
#    x 1.805260 0.000000 0.000000 
#    y 0.000000 1.859370 0.000000 
#    z 0.000000 0.000000 1.748860 
# 
# From -- ./inp_files/44115.got.cif
#   From: 2010.05.17/outbox.cif.g08.bks.cpg/sg66_23_cif.got.tgz:44115.got - 2010.06.03 17:51:23.
