data_PCOD9498156
_publ_section_title
;
Structure prediction by ZEFSAII (Michael W. Deem and Ramdas Pophale) SiO2 
 PCOD9498156
Probable space group: C C C M
;
_chemical_formula_sum "Si O2"
_cell_formula_units_Z 80
_cell_length_a 21.652650
_cell_length_b 11.725882
_cell_length_c 14.287612
_cell_angle_alpha 90.000000
_cell_angle_beta 90.000000
_cell_angle_gamma 90.000000
_cell_volume 3627.573521
_symmetry_space_group_name_H-M "C C C M"
_symmetry_group_IT_number 66
_symmetry_cell_setting 'orthorhombic'
loop_
_space_group_symop_operation_xyz
x,y,z
-x,-y,z
x,-y,1/2-z
-x,y,1/2-z
-x,-y,-z
x,y,-z
-x,y,1/2+z
x,-y,1/2+z
1/2+x,1/2+y,z
1/2-x,1/2-y,z
1/2+x,1/2-y,1/2-z
1/2-x,1/2+y,1/2-z
1/2-x,1/2-y,-z
1/2+x,1/2+y,-z
1/2-x,1/2+y,1/2+z
1/2+x,1/2-y,1/2+z
loop_
_atom_site_type_symbol
_atom_site_label
_atom_site_fract_x
_atom_site_fract_y
_atom_site_fract_z
Si Si1 0.392227 0.803801 0.389676
Si Si2 0.465552 0.805658 0.110108
Si Si3 0.099408 0.128507 0.725958
Si Si4 0.764959 0.125796 0.798471
Si Si5 0.146731 0.458908 0.389467
O O1 0.380455 0.778204 0.500000
O O2 0.463822 0.843552 0.381480
O O3 0.386440 0.696365 0.322110
O O4 0.351533 0.910543 0.354835
O O5 0.453067 0.691539 0.167659
O O6 0.413789 0.893242 0.146367
O O7 0.454640 0.786197 0.000000
O O8 0.163997 0.134479 0.668779
O O9 0.083758 0.000000 0.750000
O O10 0.750000 0.250000 0.751438
O O11 0.708928 0.109454 0.870518
O O12 0.764968 0.000000 0.750000
O O13 0.137330 0.471304 0.500000
#
# Coordination Sequence:
#
# PCOD9498156 Si02
#       5
#    16  16  16  16  16
#     4  10  22  41  64  93 129 166 212 268 325 388
#     4  10  21  38  63  95 128 163 208 268 330 389
#     4  11  24  40  60  90 128 175 221 263 317 386
#     4  11  22  39  62  88 125 170 215 270 322 387
#     4  10  21  38  63  94 124 159 209 268 334 394
#
# _framework density 22.05331
#
# number of rings (size 3 to 8) (size 9 to 14) (size 15 to 20)
#    0.000    1.600    2.000    2.400    0.000    6.000 
#    0.000    7.000    0.000   10.800    0.000    0.000 
#    0.000    0.000    0.000    0.000    0.000    0.000 
#
# Total GULP energy -223253.097548 kJ/mol
# GULP energy per Si atom -5581.327439 kJ/mol
# Density = 2.200312 g / cm^3
# Si number density = 22.053310 Si / 1000 Ang^3
#
#
#
# Elastic Constant Matrix: (Units=GPa)
#
#
# Indices 1 2 3 4 5 6 
#
# 1 69.9596 13.8419 15.9434 0.0000 0.0000 0.0000
# 2 13.8419 138.9945 39.2484 0.0000 0.0000 0.0000
# 3 15.9434 39.2484 55.6536 0.0000 0.0000 0.0000
# 4 0.0000 0.0000 0.0000 13.8570 0.0000 0.0000
# 5 0.0000 0.0000 0.0000 0.0000 26.5009 0.0000
# 6 0.0000 0.0000 0.0000 0.0000 0.0000 34.7425
#
#
#
# Elastic Compliance Matrix: (Units=1/GPa)
#
#
# Indices 1 2 3 4 5 6 
#
# 1 0.015307 -0.000357 -0.004133 0.000000 0.000000 0.000000
# 2 -0.000357 0.008992 -0.006239 0.000000 0.000000 0.000000
# 3 -0.004133 -0.006239 0.023552 0.000000 0.000000 0.000000
# 4 0.000000 0.000000 0.000000 0.072166 0.000000 0.000000
# 5 0.000000 0.000000 0.000000 0.000000 0.037735 0.000000
# 6 0.000000 0.000000 0.000000 0.000000 0.000000 0.028783
#
#
# Mechanical properties :
#
#
# Convention : Reuss Voigt Hill
#
# Bulk Modulus (GPa) = 37.89009 44.74170 41.31590
# Shear Modulus (GPa) = 23.06382 28.05835 25.56108
#
# Velocity S-wave (km/s) = 3.23742 3.57080 3.40819
# Velocity P-wave (km/s) = 5.58507 6.11006 5.85345
#
# Compressibility (1/GPa) = 0.02639212
#
# Stress axis : x y z
#
# Youngs Moduli (GPa) = 65.33158 111.21215 42.45890
#
# Poissons Ratio (x) = 0.03973 0.17548
# Poissons Ratio (y) = 0.02334 0.26490
# Poissons Ratio (z) = 0.27002 0.69385
#
# Static dielectric constant tensor:
#      x y z
#    x 1.819260 0.000000 0.000000 
#    y 0.000000 1.829150 0.000000 
#    z 0.000000 0.000000 1.801690 
# 
# From -- ./inp_files/26362.got.cif
#   From: 2010.05.17/outbox.cif.g08.bks.cpg/sg66_14_cif.got.tgz:26362.got - 2010.06.03 17:51:23.
