data_PCOD9498276
_publ_section_title
;
Structure prediction by ZEFSAII (Michael W. Deem and Ramdas Pophale) SiO2 
 PCOD9498276
Probable space group: C C C M
;
_chemical_formula_sum "Si O2"
_cell_formula_units_Z 52
_cell_length_a 18.418181
_cell_length_b 13.225428
_cell_length_c 9.132166
_cell_angle_alpha 90.000000
_cell_angle_beta 90.000000
_cell_angle_gamma 90.000000
_cell_volume 2224.489035
_symmetry_space_group_name_H-M "C C C M"
_symmetry_group_IT_number 66
_symmetry_cell_setting 'orthorhombic'
loop_
_space_group_symop_operation_xyz
x,y,z
-x,-y,z
x,-y,1/2-z
-x,y,1/2-z
-x,-y,-z
x,y,-z
-x,y,1/2+z
x,-y,1/2+z
1/2+x,1/2+y,z
1/2-x,1/2-y,z
1/2+x,1/2-y,1/2-z
1/2-x,1/2+y,1/2-z
1/2-x,1/2-y,-z
1/2+x,1/2+y,-z
1/2-x,1/2+y,1/2+z
1/2+x,1/2-y,1/2+z
loop_
_atom_site_type_symbol
_atom_site_label
_atom_site_fract_x
_atom_site_fract_y
_atom_site_fract_z
Si Si1 0.000000 0.000000 0.750000
Si Si2 0.264366 0.601703 0.326434
Si Si3 0.890818 0.400093 0.171001
Si Si4 0.393197 0.678155 0.162930
O O1 0.947215 0.082151 0.828474
O O2 0.292189 0.500000 0.250000
O O3 0.254730 0.595843 0.500000
O O4 0.188095 0.616574 0.245169
O O5 0.330701 0.673749 0.285113
O O6 0.921164 0.500000 0.250000
O O7 0.928058 0.289931 0.177359
O O8 0.882019 0.425081 0.000000
O O9 0.358798 0.676020 0.000000
#
# Coordination Sequence:
#
# PCOD9498276 Si02
#       4
#     4  16  16  16
#     4  12  26  44  70  90 126 176 222 264 318 380
#     4  11  21  35  61  95 131 167 209 261 321 385
#     4  10  21  39  64  94 129 164 208 265 324 383
#     4  11  24  42  63  91 127 168 216 268 317 374
#
# _framework density 23.376155000000001
#
# number of rings (size 3 to 8) (size 9 to 14) (size 15 to 20)
#    0.000    1.231    1.538    6.923    0.000    7.385 
#    0.000    0.769    0.000    3.692    0.000    0.000 
#    0.000    0.000    0.000    0.000    0.000    0.000 
#
# Total GULP energy -144941.092444 kJ/mol
# GULP energy per Si atom -5574.657402 kJ/mol
# Density = 2.332295 g / cm^3
# Si number density = 23.376155 Si / 1000 Ang^3
#
#
#
# Elastic Constant Matrix: (Units=GPa)
#
#
# Indices 1 2 3 4 5 6 
#
# 1 88.7615 18.7642 58.3518 0.0000 0.0000 0.0000
# 2 18.7642 217.9657 56.0567 0.0000 0.0000 0.0000
# 3 58.3518 56.0567 208.5142 0.0000 0.0000 0.0000
# 4 0.0000 0.0000 0.0000 34.8087 0.0000 0.0000
# 5 0.0000 0.0000 0.0000 0.0000 85.7816 0.0000
# 6 0.0000 0.0000 0.0000 0.0000 0.0000 19.3633
#
#
#
# Elastic Compliance Matrix: (Units=1/GPa)
#
#
# Indices 1 2 3 4 5 6 
#
# 1 0.013815 -0.000210 -0.003810 0.000000 0.000000 0.000000
# 2 -0.000210 0.004932 -0.001267 0.000000 0.000000 0.000000
# 3 -0.003810 -0.001267 0.006203 0.000000 0.000000 0.000000
# 4 0.000000 0.000000 0.000000 0.028728 0.000000 0.000000
# 5 0.000000 0.000000 0.000000 0.000000 0.011658 0.000000
# 6 0.000000 0.000000 0.000000 0.000000 0.000000 0.051644
#
#
# Mechanical properties :
#
#
# Convention : Reuss Voigt Hill
#
# Bulk Modulus (GPa) = 69.55806 86.84298 78.20052
# Shear Modulus (GPa) = 37.78012 53.46196 45.62104
#
# Velocity S-wave (km/s) = 4.02454 4.78748 4.42249
# Velocity P-wave (km/s) = 7.17053 8.23352 7.72034
#
# Compressibility (1/GPa) = 0.01437648
#
# Stress axis : x y z
#
# Youngs Moduli (GPa) = 72.38529 202.76481 161.22120
#
# Poissons Ratio (x) = 0.04248 0.61421
# Poissons Ratio (y) = 0.01517 0.20430
# Poissons Ratio (z) = 0.27577 0.25695
#
# Static dielectric constant tensor:
#      x y z
#    x 1.859670 0.000000 0.000000 
#    y 0.000000 1.965450 0.000000 
#    z 0.000000 0.000000 1.819360 
# 
# From -- ./inp_files/4736.got.cif
#   From: 2010.05.17/outbox.cif.g08.bks.cpg/sg66_3_cif.got.tgz:4736.got - 2010.06.03 17:51:23.
