data_PCOD9498025
_publ_section_title
;
Structure prediction by ZEFSAII (Michael W. Deem and Ramdas Pophale) SiO2 
 PCOD9498025
Probable space group: C C C M
;
_chemical_formula_sum "Si O2"
_cell_formula_units_Z 112
_cell_length_a 13.182794
_cell_length_b 13.761400
_cell_length_c 28.019159
_cell_angle_alpha 90.000000
_cell_angle_beta 90.000000
_cell_angle_gamma 90.000000
_cell_volume 5083.059343
_symmetry_space_group_name_H-M "C C C M"
_symmetry_group_IT_number 66
_symmetry_cell_setting 'orthorhombic'
loop_
_space_group_symop_operation_xyz
x,y,z
-x,-y,z
x,-y,1/2-z
-x,y,1/2-z
-x,-y,-z
x,y,-z
-x,y,1/2+z
x,-y,1/2+z
1/2+x,1/2+y,z
1/2-x,1/2-y,z
1/2+x,1/2-y,1/2-z
1/2-x,1/2+y,1/2-z
1/2-x,1/2-y,-z
1/2+x,1/2+y,-z
1/2-x,1/2+y,1/2+z
1/2+x,1/2-y,1/2+z
loop_
_atom_site_type_symbol
_atom_site_label
_atom_site_fract_x
_atom_site_fract_y
_atom_site_fract_z
Si Si1 0.793424 0.644653 0.173080
Si Si2 0.429499 0.096019 0.554970
Si Si3 0.476351 0.392302 0.624629
Si Si4 0.341073 0.328123 0.947024
Si Si5 0.610129 0.112245 0.764236
Si Si6 0.022536 0.688012 0.851408
Si Si7 0.727088 0.512185 0.596209
O O1 0.750000 0.750000 0.159697
O O2 0.797178 0.643362 0.230803
O O3 0.743246 0.555231 0.144243
O O4 0.912361 0.643908 0.159897
O O5 0.421949 0.125837 0.500000
O O6 0.470540 0.175172 0.591776
O O7 0.500000 0.000000 0.557279
O O8 0.324077 0.069684 0.579351
O O9 0.500000 0.500000 0.644851
O O10 0.567011 0.355734 0.589382
O O11 0.468744 0.301992 0.660267
O O12 0.368474 0.415862 0.600365
O O13 0.250000 0.250000 0.937343
O O14 0.285812 0.431649 0.944901
O O15 0.380234 0.304837 0.000000
O O16 0.500000 0.158014 0.750000
O O17 0.607757 0.131768 0.820520
O O18 0.603028 0.000000 0.750000
#
# Coordination Sequence:
#
# PCOD9498025 Si02
#       7
#    16  16  16  16  16  16  16
#     4  11  21  39  66  96 125 170 230 281 342 415
#     4  11  24  40  64  96 130 174 225 284 344 408
#     4  10  23  40  63  96 136 185 222 277 349 414
#     4  10  21  37  62  96 133 184 243 285 331 409
#     4   9  20  38  65  92 122 162 216 278 336 394
#     4  11  22  43  68  92 134 177 224 287 341 417
#     4  11  21  39  62  92 137 180 217 283 351 411
#
# _framework density 22.033974000000001
#
# number of rings (size 3 to 8) (size 9 to 14) (size 15 to 20)
#    0.000    1.571    1.429    4.286    2.000    4.286 
#    5.143    0.714    0.000    3.429    0.000    0.000 
#    0.000    0.000    0.000    0.000    0.000    0.000 
#
# Total GULP energy -311802.233830 kJ/mol
# GULP energy per Si atom -5567.897033 kJ/mol
# Density = 2.198382 g / cm^3
# Si number density = 22.033974 Si / 1000 Ang^3
#
#
#
# Elastic Constant Matrix: (Units=GPa)
#
#
# Indices 1 2 3 4 5 6 
#
# 1 82.6677 24.8589 21.4284 0.0000 0.0000 0.0000
# 2 24.8589 104.7232 36.6982 0.0000 0.0000 0.0000
# 3 21.4284 36.6982 137.2536 0.0000 0.0000 0.0000
# 4 0.0000 0.0000 0.0000 -122.8511 0.0000 0.0000
# 5 0.0000 0.0000 0.0000 0.0000 25.3144 0.0000
# 6 0.0000 0.0000 0.0000 0.0000 0.0000 38.4164
#
#
#
# Elastic Compliance Matrix: (Units=1/GPa)
#
#
# Indices 1 2 3 4 5 6 
#
# 1 0.013251 -0.002671 -0.001355 0.000000 0.000000 0.000000
# 2 -0.002671 0.011074 -0.002544 0.000000 0.000000 0.000000
# 3 -0.001355 -0.002544 0.008178 0.000000 0.000000 0.000000
# 4 0.000000 0.000000 0.000000 -0.008140 0.000000 0.000000
# 5 0.000000 0.000000 0.000000 0.000000 0.039503 0.000000
# 6 0.000000 0.000000 0.000000 0.000000 0.000000 0.026031
#
#
# Mechanical properties :
#
#
# Convention : Reuss Voigt Hill
#
# Bulk Modulus (GPa) = 51.64252 54.51282 53.07767
# Shear Modulus (GPa) = 45.66614 4.28655 24.97634
#
# Velocity S-wave (km/s) = 4.55745 1.39630 3.37046
# Velocity P-wave (km/s) = 7.15418 5.23389 6.26801
#
# Compressibility (1/GPa) = 0.01936389
#
# Stress axis : x y z
#
# Youngs Moduli (GPa) = 75.46663 90.29779 122.28671
#
# Poissons Ratio (x) = 0.24116 0.16566
# Poissons Ratio (y) = 0.20155 0.31111
# Poissons Ratio (z) = 0.10223 0.22972
#
# Static dielectric constant tensor:
#      x y z
#    x 1.852120 0.000000 0.000000 
#    y 0.000000 1.861880 0.000000 
#    z 0.000000 0.000000 1.940520 
# 
# From -- ./inp_files/69097.got.cif
#   From: 2010.05.17/outbox.cif.g08.bks.cpg/sg66_35_cif.got.tgz:69097.got - 2010.06.03 17:51:23.
