data_PCOD9498712
_publ_section_title
;
Structure prediction by ZEFSAII (Michael W. Deem and Ramdas Pophale) SiO2 
 PCOD9498712
Probable space group: C C C M
;
_chemical_formula_sum "Si O2"
_cell_formula_units_Z 48
_cell_length_a 14.369481
_cell_length_b 4.966122
_cell_length_c 28.652756
_cell_angle_alpha 90.000000
_cell_angle_beta 90.000000
_cell_angle_gamma 90.000000
_cell_volume 2044.677737
_symmetry_space_group_name_H-M "C C C M"
_symmetry_group_IT_number 66
_symmetry_cell_setting 'orthorhombic'
loop_
_space_group_symop_operation_xyz
x,y,z
-x,-y,z
x,-y,1/2-z
-x,y,1/2-z
-x,-y,-z
x,y,-z
-x,y,1/2+z
x,-y,1/2+z
1/2+x,1/2+y,z
1/2-x,1/2-y,z
1/2+x,1/2-y,1/2-z
1/2-x,1/2+y,1/2-z
1/2-x,1/2-y,-z
1/2+x,1/2+y,-z
1/2-x,1/2+y,1/2+z
1/2+x,1/2-y,1/2+z
loop_
_atom_site_type_symbol
_atom_site_label
_atom_site_fract_x
_atom_site_fract_y
_atom_site_fract_z
Si Si1 0.310305 0.994993 0.630804
Si Si2 0.066039 0.243394 0.947788
Si Si3 0.363490 0.244202 0.280569
O O1 0.250000 0.750000 0.655338
O O2 0.357890 0.831004 0.589427
O O3 0.250000 0.250000 0.613139
O O4 0.381363 0.148361 0.666183
O O5 0.000000 0.500000 0.951878
O O6 0.102666 0.176739 0.000000
O O7 0.000000 0.000000 0.932098
O O8 0.392719 0.500000 0.250000
O O9 0.250000 0.250000 0.281933
O O10 0.395764 0.000000 0.250000
#
# Coordination Sequence:
#
# PCOD9498712 Si02
#       3
#    16  16  16
#     4  11  21  34  58  91 118 149 201 256 301 350
#     4  10  22  40  59  82 119 165 203 241 304 376
#     4   9  16  28  47  76 112 143 177 230 293 351
#
# _framework density 23.475581999999999
#
# number of rings (size 3 to 8) (size 9 to 14) (size 15 to 20)
#    0.000    2.000    0.000    7.000    0.000    1.333 
#    0.000    0.000    0.000    1.000    0.000   28.000 
#    0.000    0.000    0.000    0.000    0.000    0.000 
#
# Total GULP energy -133757.648731 kJ/mol
# GULP energy per Si atom -5573.235364 kJ/mol
# Density = 2.342215 g / cm^3
# Si number density = 23.475582 Si / 1000 Ang^3
#
#
#
# Elastic Constant Matrix: (Units=GPa)
#
#
# Indices 1 2 3 4 5 6 
#
# 1 51.7252 34.4820 45.3499 0.0000 0.0000 0.0000
# 2 34.4820 230.0843 59.6818 0.0000 0.0000 0.0000
# 3 45.3499 59.6818 148.1226 0.0000 0.0000 0.0000
# 4 0.0000 0.0000 0.0000 36.2503 0.0000 0.0000
# 5 0.0000 0.0000 0.0000 0.0000 125.6198 0.0000
# 6 0.0000 0.0000 0.0000 0.0000 0.0000 34.6956
#
#
#
# Elastic Compliance Matrix: (Units=1/GPa)
#
#
# Indices 1 2 3 4 5 6 
#
# 1 0.027348 -0.002152 -0.007506 0.000000 0.000000 0.000000
# 2 -0.002152 0.005023 -0.001365 0.000000 0.000000 0.000000
# 3 -0.007506 -0.001365 0.009599 0.000000 0.000000 0.000000
# 4 0.000000 0.000000 0.000000 0.027586 0.000000 0.000000
# 5 0.000000 0.000000 0.000000 0.000000 0.007961 0.000000
# 6 0.000000 0.000000 0.000000 0.000000 0.000000 0.028822
#
#
# Mechanical properties :
#
#
# Convention : Reuss Voigt Hill
#
# Bulk Modulus (GPa) = 50.18880 78.77326 64.48103
# Shear Modulus (GPa) = 37.02993 58.67438 47.85216
#
# Velocity S-wave (km/s) = 3.97593 5.00480 4.51974
# Velocity P-wave (km/s) = 6.51943 8.18692 7.40029
#
# Compressibility (1/GPa) = 0.01992476
#
# Stress axis : x y z
#
# Youngs Moduli (GPa) = 36.56545 199.09360 104.17440
#
# Poissons Ratio (x) = 0.42836 0.78195
# Poissons Ratio (y) = 0.07867 0.14220
# Poissons Ratio (z) = 0.27447 0.27177
#
# Static dielectric constant tensor:
#      x y z
#    x 1.973550 0.000000 0.000000 
#    y 0.000000 1.647970 0.000000 
#    z 0.000000 0.000000 1.882920 
# 
# From -- ./inp_files/64062.got.cif
#   From: 2010.05.17/outbox.cif.g08.bks.cpg/sg66_33_cif.got.tgz:64062.got - 2010.06.03 17:51:23.
