data_PCOD9498806
_publ_section_title
;
Structure prediction by ZEFSAII (Michael W. Deem and Ramdas Pophale) SiO2 
 PCOD9498806
Probable space group: C C C M
;
_chemical_formula_sum "Si O2"
_cell_formula_units_Z 48
_cell_length_a 13.592196
_cell_length_b 15.758095
_cell_length_c 9.337707
_cell_angle_alpha 90.000000
_cell_angle_beta 90.000000
_cell_angle_gamma 90.000000
_cell_volume 2000.016531
_symmetry_space_group_name_H-M "C C C M"
_symmetry_group_IT_number 66
_symmetry_cell_setting 'orthorhombic'
loop_
_space_group_symop_operation_xyz
x,y,z
-x,-y,z
x,-y,1/2-z
-x,y,1/2-z
-x,-y,-z
x,y,-z
-x,y,1/2+z
x,-y,1/2+z
1/2+x,1/2+y,z
1/2-x,1/2-y,z
1/2+x,1/2-y,1/2-z
1/2-x,1/2+y,1/2-z
1/2-x,1/2-y,-z
1/2+x,1/2+y,-z
1/2-x,1/2+y,1/2+z
1/2+x,1/2-y,1/2+z
loop_
_atom_site_type_symbol
_atom_site_label
_atom_site_fract_x
_atom_site_fract_y
_atom_site_fract_z
Si Si1 0.368639 0.254682 0.000000
Si Si2 0.749865 0.500000 0.250000
Si Si3 0.884980 0.295786 0.000000
Si Si4 0.000000 0.256096 0.750000
Si Si5 0.321203 0.389318 0.500000
Si Si6 0.602585 0.056254 0.500000
O O1 0.250000 0.250000 0.000000
O O2 0.421066 0.290444 0.144267
O O3 0.405815 0.157588 0.000000
O O4 0.680864 0.556995 0.353898
O O5 0.826367 0.461366 0.364696
O O6 0.932342 0.315256 0.848595
O O7 0.782478 0.340692 0.000000
O O8 0.890782 0.192486 0.000000
O O9 0.500000 0.000000 0.500000
#
# Coordination Sequence:
#
# PCOD9498806 Si02
#       6
#     8   8   8   8   8   8
#     4  11  26  42  68 102 144 189 237 304 370 438
#     4  10  23  38  58  93 130 180 220 275 366 431
#     4  10  22  41  69  91 130 169 240 295 346 427
#     4  10  24  40  65 101 130 180 240 306 358 430
#     4  10  22  41  65  93 128 181 220 280 353 439
#     4  11  24  36  61  93 140 179 225 274 362 441
#
# _framework density 23.999801999999999
#
# number of rings (size 3 to 8) (size 9 to 14) (size 15 to 20)
#    0.000    1.667    0.000    2.500   23.333    0.000 
#    0.000    0.000    0.000    3.000    0.000    0.000 
#    0.000    0.000    0.000    0.000    0.000    0.000 
#
# Total GULP energy -133619.890957 kJ/mol
# GULP energy per Si atom -5567.495457 kJ/mol
# Density = 2.394518 g / cm^3
# Si number density = 23.999802 Si / 1000 Ang^3
#
#
#
# Elastic Constant Matrix: (Units=GPa)
#
#
# Indices 1 2 3 4 5 6 
#
# 1 102.6078 -12.5006 36.5885 0.0000 0.0000 0.0000
# 2 -12.5006 96.1812 33.8449 0.0000 0.0000 0.0000
# 3 36.5885 33.8449 183.0390 0.0000 0.0000 0.0000
# 4 0.0000 0.0000 0.0000 35.7931 0.0000 0.0000
# 5 0.0000 0.0000 0.0000 0.0000 7.9403 0.0000
# 6 0.0000 0.0000 0.0000 0.0000 0.0000 15.2568
#
#
#
# Elastic Compliance Matrix: (Units=1/GPa)
#
#
# Indices 1 2 3 4 5 6 
#
# 1 0.010969 0.002350 -0.002627 0.000000 0.000000 0.000000
# 2 0.002350 0.011624 -0.002619 0.000000 0.000000 0.000000
# 3 -0.002627 -0.002619 0.006473 0.000000 0.000000 0.000000
# 4 0.000000 0.000000 0.000000 0.027938 0.000000 0.000000
# 5 0.000000 0.000000 0.000000 0.000000 0.125940 0.000000
# 6 0.000000 0.000000 0.000000 0.000000 0.000000 0.065545
#
#
# Mechanical properties :
#
#
# Convention : Reuss Voigt Hill
#
# Bulk Modulus (GPa) = 42.96748 55.29931 49.13340
# Shear Modulus (GPa) = 19.08115 33.39104 26.23610
#
# Velocity S-wave (km/s) = 2.82273 3.73407 3.30991
# Velocity P-wave (km/s) = 5.34471 6.45621 5.92657
#
# Compressibility (1/GPa) = 0.02327342
#
# Stress axis : x y z
#
# Youngs Moduli (GPa) = 91.16626 86.02799 154.49333
#
# Poissons Ratio (x) = -0.20217 0.40588
# Poissons Ratio (y) = -0.21425 0.40464
# Poissons Ratio (z) = 0.23951 0.22532
#
# Static dielectric constant tensor:
#      x y z
#    x 2.094440 0.000000 0.000000 
#    y 0.000000 2.088670 0.000000 
#    z 0.000000 0.000000 2.054750 
# 
# From -- ./inp_files/4621.got.cif
#   From: 2010.05.17/outbox.cif.g08.bks.cpg/sg66_3_cif.got.tgz:4621.got - 2010.06.03 17:51:23.
