data_PCOD9498747
_publ_section_title
;
Structure prediction by ZEFSAII (Michael W. Deem and Ramdas Pophale) SiO2 
 PCOD9498747
Probable space group: C C C M
;
_chemical_formula_sum "Si O2"
_cell_formula_units_Z 100
_cell_length_a 9.940492
_cell_length_b 25.852994
_cell_length_c 19.001633
_cell_angle_alpha 90.000000
_cell_angle_beta 90.000000
_cell_angle_gamma 90.000000
_cell_volume 4883.257788
_symmetry_space_group_name_H-M "C C C M"
_symmetry_group_IT_number 66
_symmetry_cell_setting 'orthorhombic'
loop_
_space_group_symop_operation_xyz
x,y,z
-x,-y,z
x,-y,1/2-z
-x,y,1/2-z
-x,-y,-z
x,y,-z
-x,y,1/2+z
x,-y,1/2+z
1/2+x,1/2+y,z
1/2-x,1/2-y,z
1/2+x,1/2-y,1/2-z
1/2-x,1/2+y,1/2-z
1/2-x,1/2-y,-z
1/2+x,1/2+y,-z
1/2-x,1/2+y,1/2+z
1/2+x,1/2-y,1/2+z
loop_
_atom_site_type_symbol
_atom_site_label
_atom_site_fract_x
_atom_site_fract_y
_atom_site_fract_z
Si Si1 0.593036 0.916534 0.000000
Si Si2 0.959330 0.865685 0.168086
Si Si3 0.760271 0.090809 0.868504
Si Si4 0.805257 0.475103 0.000000
Si Si5 0.516083 0.847505 0.871923
Si Si6 0.500000 0.000000 0.250000
Si Si7 0.804713 0.582696 0.208439
Si Si8 0.092975 0.763462 0.580511
O O1 0.593798 0.879087 0.066639
O O2 0.453588 0.948637 0.000000
O O3 0.698101 0.963027 0.000000
O O4 0.834644 0.906095 0.168528
O O5 0.919818 0.812853 0.130143
O O6 0.000000 0.857056 0.250000
O O7 0.092849 0.884894 0.129688
O O8 0.754306 0.047625 0.928191
O O9 0.636085 0.131103 0.876399
O O10 0.737720 0.072165 0.788848
O O11 0.603150 0.866372 0.804761
O O12 0.521432 0.786976 0.886883
O O13 0.590156 0.964172 0.198206
O O14 0.045641 0.772685 0.500000
O O15 0.250000 0.750000 0.576956
#
# Coordination Sequence:
#
# PCOD9498747 Si02
#       8
#     8  16  16   8  16   4  16  16
#     4   9  20  34  59  94 132 168 217 286 329 376
#     4  10  24  45  63  94 142 174 211 275 341 394
#     4  10  22  40  63  97 135 174 217 274 335 401
#     4   9  20  36  62  90 133 175 215 268 343 400
#     4  11  20  39  64  97 130 170 230 276 321 392
#     4  12  24  40  78 110 120 172 234 274 324 390
#     4  11  23  40  68  97 132 168 221 272 324 400
#     4  11  23  41  68  98 128 179 228 278 336 395
#
# _framework density 20.478131999999999
#
# number of rings (size 3 to 8) (size 9 to 14) (size 15 to 20)
#    0.000    1.600    4.000    0.000    3.360    1.920 
#    0.000    4.400    0.000    0.960    0.000    0.000 
#    0.000    0.000    0.000    0.000    0.000    0.000 
#
# Total GULP energy -278915.734540 kJ/mol
# GULP energy per Si atom -5578.314691 kJ/mol
# Density = 2.043152 g / cm^3
# Si number density = 20.478132 Si / 1000 Ang^3
#
#
#
# Elastic Constant Matrix: (Units=GPa)
#
#
# Indices 1 2 3 4 5 6 
#
# 1 121.6001 45.0277 24.0121 0.0000 0.0000 0.0000
# 2 45.0277 104.7543 28.3132 0.0000 0.0000 0.0000
# 3 24.0121 28.3132 64.1059 0.0000 0.0000 0.0000
# 4 0.0000 0.0000 0.0000 206.0425 0.0000 0.0000
# 5 0.0000 0.0000 0.0000 0.0000 36.4536 0.0000
# 6 0.0000 0.0000 0.0000 0.0000 0.0000 28.5289
#
#
#
# Elastic Compliance Matrix: (Units=1/GPa)
#
#
# Indices 1 2 3 4 5 6 
#
# 1 0.010024 -0.003740 -0.002103 0.000000 0.000000 0.000000
# 2 -0.003740 0.012236 -0.004003 0.000000 0.000000 0.000000
# 3 -0.002103 -0.004003 0.018155 0.000000 0.000000 0.000000
# 4 0.000000 0.000000 0.000000 0.004853 0.000000 0.000000
# 5 0.000000 0.000000 0.000000 0.000000 0.027432 0.000000
# 6 0.000000 0.000000 0.000000 0.000000 0.000000 0.035052
#
#
# Mechanical properties :
#
#
# Convention : Reuss Voigt Hill
#
# Bulk Modulus (GPa) = 48.25719 53.90737 51.08228
# Shear Modulus (GPa) = 37.21568 67.07883 52.14725
#
# Velocity S-wave (km/s) = 4.26765 5.72952 5.05175
# Velocity P-wave (km/s) = 6.92099 8.37564 7.68282
#
# Compressibility (1/GPa) = 0.02072230
#
# Stress axis : x y z
#
# Youngs Moduli (GPa) = 99.76130 81.72673 55.08187
#
# Poissons Ratio (x) = 0.30569 0.11582
# Poissons Ratio (y) = 0.37315 0.22050
# Poissons Ratio (z) = 0.20976 0.32716
#
# Static dielectric constant tensor:
#      x y z
#    x 1.754950 0.000000 0.000000 
#    y 0.000000 1.721260 0.000000 
#    z 0.000000 0.000000 1.815190 
# 
# From -- ./inp_files/47446.got.cif
#   From: 2010.05.17/outbox.cif.g08.bks.cpg/sg66_24_cif.got.tgz:47446.got - 2010.06.03 17:51:23.
