data_PCOD9498052
_publ_section_title
;
Structure prediction by ZEFSAII (Michael W. Deem and Ramdas Pophale) SiO2 
 PCOD9498052
Probable space group: C C C M
;
_chemical_formula_sum "Si O2"
_cell_formula_units_Z 80
_cell_length_a 27.963433
_cell_length_b 18.435053
_cell_length_c 8.731648
_cell_angle_alpha 90.000000
_cell_angle_beta 90.000000
_cell_angle_gamma 90.000000
_cell_volume 4501.228891
_symmetry_space_group_name_H-M "C C C M"
_symmetry_group_IT_number 66
_symmetry_cell_setting 'orthorhombic'
loop_
_space_group_symop_operation_xyz
x,y,z
-x,-y,z
x,-y,1/2-z
-x,y,1/2-z
-x,-y,-z
x,y,-z
-x,y,1/2+z
x,-y,1/2+z
1/2+x,1/2+y,z
1/2-x,1/2-y,z
1/2+x,1/2-y,1/2-z
1/2-x,1/2+y,1/2-z
1/2-x,1/2-y,-z
1/2+x,1/2+y,-z
1/2-x,1/2+y,1/2+z
1/2+x,1/2-y,1/2+z
loop_
_atom_site_type_symbol
_atom_site_label
_atom_site_fract_x
_atom_site_fract_y
_atom_site_fract_z
Si Si1 0.586973 0.576142 0.316845
Si Si2 0.291691 0.079625 0.316091
Si Si3 0.851291 0.289012 0.317216
Si Si4 0.187923 0.142057 0.315429
Si Si5 0.050402 0.232691 0.684124
O O1 0.570522 0.500000 0.250000
O O2 0.584984 0.571672 0.500000
O O3 0.642189 0.592855 0.272448
O O4 0.558328 0.648138 0.269522
O O5 0.294948 0.078799 0.500000
O O6 0.328046 0.138325 0.248537
O O7 0.237950 0.105654 0.274181
O O8 0.300204 0.000000 0.250000
O O9 0.852666 0.290524 0.500000
O O10 0.819982 0.220149 0.260869
O O11 0.904194 0.275255 0.250367
O O12 0.186416 0.152038 0.500000
O O13 0.051168 0.236366 0.500000
O O14 0.000000 0.258156 0.750000
#
# Coordination Sequence:
#
# PCOD9498052 Si02
#       5
#    16  16  16  16  16
#     4   9  18  31  48  73 107 143 178 216 259 308
#     4  11  22  36  55  80 112 146 180 221 268 317
#     4  11  22  36  56  81 108 141 181 222 265 317
#     4   9  19  35  53  76 109 148 184 220 263 309
#     4  10  21  38  57  78 103 135 177 224 274 323
#
# _framework density 17.772922999999999
#
# number of rings (size 3 to 8) (size 9 to 14) (size 15 to 20)
#    0.000    2.000    0.000    5.400    0.000    8.400 
#    0.000    2.000    0.000    0.600    0.000    4.200 
#    0.000    0.000    0.000    0.000    0.000    0.000 
#
# Total GULP energy -223448.960192 kJ/mol
# GULP energy per Si atom -5586.224005 kJ/mol
# Density = 1.773247 g / cm^3
# Si number density = 17.772923 Si / 1000 Ang^3
#
#
#
# Elastic Constant Matrix: (Units=GPa)
#
#
# Indices 1 2 3 4 5 6 
#
# 1 64.2117 21.8464 15.6946 0.0000 0.0000 0.0000
# 2 21.8464 79.1643 19.5813 0.0000 0.0000 0.0000
# 3 15.6946 19.5813 43.0795 0.0000 0.0000 0.0000
# 4 0.0000 0.0000 0.0000 32.6534 0.0000 0.0000
# 5 0.0000 0.0000 0.0000 0.0000 36.7418 0.0000
# 6 0.0000 0.0000 0.0000 0.0000 0.0000 3.9457
#
#
#
# Elastic Compliance Matrix: (Units=1/GPa)
#
#
# Indices 1 2 3 4 5 6 
#
# 1 0.018046 -0.003779 -0.004857 0.000000 0.000000 0.000000
# 2 -0.003779 0.015023 -0.005452 0.000000 0.000000 0.000000
# 3 -0.004857 -0.005452 0.027461 0.000000 0.000000 0.000000
# 4 0.000000 0.000000 0.000000 0.030625 0.000000 0.000000
# 5 0.000000 0.000000 0.000000 0.000000 0.027217 0.000000
# 6 0.000000 0.000000 0.000000 0.000000 0.000000 0.253443
#
#
# Mechanical properties :
#
#
# Convention : Reuss Voigt Hill
#
# Bulk Modulus (GPa) = 30.90748 33.41113 32.15931
# Shear Modulus (GPa) = 12.17212 23.29038 17.73125
#
# Velocity S-wave (km/s) = 2.61984 3.62393 3.16199
# Velocity P-wave (km/s) = 5.15552 6.02911 5.60935
#
# Compressibility (1/GPa) = 0.03235463
#
# Stress axis : x y z
#
# Youngs Moduli (GPa) = 55.41323 66.56330 36.41589
#
# Poissons Ratio (x) = 0.25152 0.17687
# Poissons Ratio (y) = 0.20939 0.19854
# Poissons Ratio (z) = 0.26914 0.36290
#
# Static dielectric constant tensor:
#      x y z
#    x 1.604970 0.000000 0.000000 
#    y 0.000000 1.581770 0.000000 
#    z 0.000000 0.000000 1.594680 
# 
# From -- ./inp_files/6653.got.cif
#   From: 2010.05.17/outbox.cif.g08.bks.cpg/sg66_4_cif.got.tgz:6653.got - 2010.06.03 17:51:23.
