data_PCOD9498704
_publ_section_title
;
Structure prediction by ZEFSAII (Michael W. Deem and Ramdas Pophale) SiO2 
 PCOD9498704
Probable space group: C C C M
;
_chemical_formula_sum "Si O2"
_cell_formula_units_Z 120
_cell_length_a 11.496026
_cell_length_b 25.041191
_cell_length_c 21.718029
_cell_angle_alpha 90.000000
_cell_angle_beta 90.000000
_cell_angle_gamma 90.000000
_cell_volume 6252.059851
_symmetry_space_group_name_H-M "C C C M"
_symmetry_group_IT_number 66
_symmetry_cell_setting 'orthorhombic'
loop_
_space_group_symop_operation_xyz
x,y,z
-x,-y,z
x,-y,1/2-z
-x,y,1/2-z
-x,-y,-z
x,y,-z
-x,y,1/2+z
x,-y,1/2+z
1/2+x,1/2+y,z
1/2-x,1/2-y,z
1/2+x,1/2-y,1/2-z
1/2-x,1/2+y,1/2-z
1/2-x,1/2-y,-z
1/2+x,1/2+y,-z
1/2-x,1/2+y,1/2+z
1/2+x,1/2-y,1/2+z
loop_
_atom_site_type_symbol
_atom_site_label
_atom_site_fract_x
_atom_site_fract_y
_atom_site_fract_z
Si Si1 0.148921 0.151458 0.158347
Si Si2 0.640687 0.562685 0.247150
Si Si3 0.570464 0.332778 0.070257
Si Si4 0.732580 0.116698 0.137176
Si Si5 0.135057 0.338762 0.072721
Si Si6 0.584486 0.222273 0.870522
Si Si7 0.475598 0.937776 0.070943
Si Si8 0.000000 0.218859 0.750000
O O1 0.175748 0.092700 0.184456
O O2 0.257862 0.171896 0.118706
O O3 0.038208 0.153742 0.113570
O O4 0.103203 0.184324 0.218208
O O5 0.669136 0.500000 0.250000
O O6 0.500000 0.567742 0.250000
O O7 0.703580 0.593481 0.303024
O O8 0.670378 0.375316 0.084928
O O9 0.616673 0.273896 0.088903
O O10 0.535099 0.333139 0.000000
O O11 0.675345 0.175362 0.142954
O O12 0.627414 0.079689 0.115651
O O13 0.026321 0.302986 0.094313
O O14 0.087211 0.399455 0.080308
O O15 0.161947 0.330078 0.000000
O O16 0.548923 0.245711 0.804768
O O17 0.500000 0.000000 0.077961
O O18 0.438972 0.927535 0.000000
#
# Coordination Sequence:
#
# PCOD9498704 Si02
#       8
#    16  16  16  16  16  16  16   8
#     4  11  22  42  60  90 127 166 210 265 311 380
#     4  11  23  42  65  88 122 168 210 261 319 371
#     4  11  22  38  62  93 125 163 208 259 316 378
#     4  11  22  40  64  93 124 163 210 258 309 379
#     4  10  22  40  65  93 124 166 209 262 320 376
#     4  10  23  40  61  90 129 166 206 255 310 386
#     4   9  20  40  64  92 127 162 204 256 317 376
#     4  10  22  40  55  90 119 170 206 248 308 368
#
# _framework density 19.193674000000001
#
# number of rings (size 3 to 8) (size 9 to 14) (size 15 to 20)
#    0.000    1.600    2.000    2.400    3.733    4.267 
#    2.400    3.333    0.000    0.800    0.000    0.000 
#    0.000    0.000    0.000    0.000    0.000    0.000 
#
# Total GULP energy -334885.585821 kJ/mol
# GULP energy per Si atom -5581.426430 kJ/mol
# Density = 1.914999 g / cm^3
# Si number density = 19.193674 Si / 1000 Ang^3
#
#
#
# Elastic Constant Matrix: (Units=GPa)
#
#
# Indices 1 2 3 4 5 6 
#
# 1 78.7277 30.0970 29.1540 0.0000 0.0000 0.0000
# 2 30.0970 77.1548 48.1187 0.0000 0.0000 0.0000
# 3 29.1540 48.1187 109.9426 0.0000 0.0000 0.0000
# 4 0.0000 0.0000 0.0000 17.0388 0.0000 0.0000
# 5 0.0000 0.0000 0.0000 0.0000 33.4784 0.0000
# 6 0.0000 0.0000 0.0000 0.0000 0.0000 7.0345
#
#
#
# Elastic Compliance Matrix: (Units=1/GPa)
#
#
# Indices 1 2 3 4 5 6 
#
# 1 0.015235 -0.004709 -0.001979 0.000000 0.000000 0.000000
# 2 -0.004709 0.019282 -0.007191 0.000000 0.000000 0.000000
# 3 -0.001979 -0.007191 0.012768 0.000000 0.000000 0.000000
# 4 0.000000 0.000000 0.000000 0.058690 0.000000 0.000000
# 5 0.000000 0.000000 0.000000 0.000000 0.029870 0.000000
# 6 0.000000 0.000000 0.000000 0.000000 0.000000 0.142156
#
#
# Mechanical properties :
#
#
# Convention : Reuss Voigt Hill
#
# Bulk Modulus (GPa) = 51.20846 53.39607 52.30226
# Shear Modulus (GPa) = 16.01196 22.07403 19.04299
#
# Velocity S-wave (km/s) = 2.89144 3.39494 3.15326
# Velocity P-wave (km/s) = 6.15508 6.57629 6.36917
#
# Compressibility (1/GPa) = 0.01952802
#
# Stress axis : x y z
#
# Youngs Moduli (GPa) = 65.63837 51.86092 78.32309
#
# Poissons Ratio (x) = 0.24420 0.15501
# Poissons Ratio (y) = 0.30907 0.56320
# Poissons Ratio (z) = 0.12990 0.37292
#
# Static dielectric constant tensor:
#      x y z
#    x 1.680690 0.000000 0.000000 
#    y 0.000000 1.683800 0.000000 
#    z 0.000000 0.000000 1.687210 
# 
# From -- ./inp_files/49185.got.cif
#   From: 2010.05.17/outbox.cif.g08.bks.cpg/sg66_25_cif.got.tgz:49185.got - 2010.06.03 17:51:23.
