data_PCOD9498797
_publ_section_title
;
Structure prediction by ZEFSAII (Michael W. Deem and Ramdas Pophale) SiO2 
 PCOD9498797
Probable space group: C C C M
;
_chemical_formula_sum "Si O2"
_cell_formula_units_Z 64
_cell_length_a 17.884529
_cell_length_b 9.142551
_cell_length_c 20.258234
_cell_angle_alpha 90.000000
_cell_angle_beta 90.000000
_cell_angle_gamma 90.000000
_cell_volume 3312.428268
_symmetry_space_group_name_H-M "C C C M"
_symmetry_group_IT_number 66
_symmetry_cell_setting 'orthorhombic'
loop_
_space_group_symop_operation_xyz
x,y,z
-x,-y,z
x,-y,1/2-z
-x,y,1/2-z
-x,-y,-z
x,y,-z
-x,y,1/2+z
x,-y,1/2+z
1/2+x,1/2+y,z
1/2-x,1/2-y,z
1/2+x,1/2-y,1/2-z
1/2-x,1/2+y,1/2-z
1/2-x,1/2-y,-z
1/2+x,1/2+y,-z
1/2-x,1/2+y,1/2+z
1/2+x,1/2-y,1/2+z
loop_
_atom_site_type_symbol
_atom_site_label
_atom_site_fract_x
_atom_site_fract_y
_atom_site_fract_z
Si Si1 0.057763 0.867196 0.425535
Si Si2 0.023651 0.669008 0.178821
Si Si3 0.727068 0.580381 0.077717
Si Si4 0.304354 0.113726 0.688697
O O1 0.066477 0.807225 0.500000
O O2 0.139152 0.924945 0.405330
O O3 0.022959 0.749625 0.377053
O O4 0.000000 0.000000 0.427096
O O5 0.112946 0.673816 0.172977
O O6 0.000000 0.500000 0.177644
O O7 0.000000 0.731176 0.250000
O O8 0.750000 0.750000 0.086244
O O9 0.772817 0.475502 0.125934
O O10 0.736983 0.542740 0.000000
O O11 0.250000 0.250000 0.704105
O O12 0.309159 0.000000 0.750000
#
# Coordination Sequence:
#
# PCOD9498797 Si02
#       4
#    16  16  16  16
#     4  10  22  41  64  92 124 159 203 252 304 365
#     4  11  23  41  60  88 125 160 204 255 300 365
#     4  10  22  41  66  94 125 162 204 251 307 372
#     4  12  25  40  62  90 124 164 207 257 308 363
#
# _framework density 19.321173999999999
#
# number of rings (size 3 to 8) (size 9 to 14) (size 15 to 20)
#    0.000    1.250    2.500    3.750    3.500    2.500 
#    0.000    0.000    0.000    0.000    0.000    0.000 
#    0.000    0.000    0.000    0.000    0.000    0.000 
#
# Total GULP energy -178865.193038 kJ/mol
# GULP energy per Si atom -5589.537282 kJ/mol
# Density = 1.927720 g / cm^3
# Si number density = 19.321174 Si / 1000 Ang^3
#
#
#
# Elastic Constant Matrix: (Units=GPa)
#
#
# Indices 1 2 3 4 5 6 
#
# 1 151.1890 3.8807 48.0450 0.0000 0.0000 0.0000
# 2 3.8807 31.5834 32.1553 0.0000 0.0000 0.0000
# 3 48.0450 32.1553 110.2139 0.0000 0.0000 0.0000
# 4 0.0000 0.0000 0.0000 47.6827 0.0000 0.0000
# 5 0.0000 0.0000 0.0000 0.0000 34.0498 0.0000
# 6 0.0000 0.0000 0.0000 0.0000 0.0000 25.2677
#
#
#
# Elastic Compliance Matrix: (Units=1/GPa)
#
#
# Indices 1 2 3 4 5 6 
#
# 1 0.007961 0.003635 -0.004531 0.000000 0.000000 0.000000
# 2 0.003635 0.046700 -0.015209 0.000000 0.000000 0.000000
# 3 -0.004531 -0.015209 0.015486 0.000000 0.000000 0.000000
# 4 0.000000 0.000000 0.000000 0.020972 0.000000 0.000000
# 5 0.000000 0.000000 0.000000 0.000000 0.029369 0.000000
# 6 0.000000 0.000000 0.000000 0.000000 0.000000 0.039576
#
#
# Mechanical properties :
#
#
# Convention : Reuss Voigt Hill
#
# Bulk Modulus (GPa) = 26.36032 51.23869 38.79951
# Shear Modulus (GPa) = 24.39974 35.32705 29.86340
#
# Velocity S-wave (km/s) = 3.55752 4.28063 3.93572
# Velocity P-wave (km/s) = 5.52697 7.14204 6.38577
#
# Compressibility (1/GPa) = 0.03793581
#
# Stress axis : x y z
#
# Youngs Moduli (GPa) = 125.61701 21.41306 64.57572
#
# Poissons Ratio (x) = -0.07783 0.29257
# Poissons Ratio (y) = -0.45656 0.98216
# Poissons Ratio (z) = 0.56913 0.32568
#
# Static dielectric constant tensor:
#      x y z
#    x 1.616170 0.000000 0.000000 
#    y 0.000000 1.625490 0.000000 
#    z 0.000000 0.000000 2.296270 
# 
# From -- ./inp_files/46579.got.cif
#   From: 2010.05.17/outbox.cif.g08.bks.cpg/sg66_24_cif.got.tgz:46579.got - 2010.06.03 17:51:23.
