data_PCOD9498417
_publ_section_title
;
Structure prediction by ZEFSAII (Michael W. Deem and Ramdas Pophale) SiO2 
 PCOD9498417
Probable space group: C C C M
;
_chemical_formula_sum "Si O2"
_cell_formula_units_Z 64
_cell_length_a 9.000101
_cell_length_b 11.323627
_cell_length_c 25.201553
_cell_angle_alpha 90.000000
_cell_angle_beta 90.000000
_cell_angle_gamma 90.000000
_cell_volume 2568.385697
_symmetry_space_group_name_H-M "C C C M"
_symmetry_group_IT_number 66
_symmetry_cell_setting 'orthorhombic'
loop_
_space_group_symop_operation_xyz
x,y,z
-x,-y,z
x,-y,1/2-z
-x,y,1/2-z
-x,-y,-z
x,y,-z
-x,y,1/2+z
x,-y,1/2+z
1/2+x,1/2+y,z
1/2-x,1/2-y,z
1/2+x,1/2-y,1/2-z
1/2-x,1/2+y,1/2-z
1/2-x,1/2-y,-z
1/2+x,1/2+y,-z
1/2-x,1/2+y,1/2+z
1/2+x,1/2-y,1/2+z
loop_
_atom_site_type_symbol
_atom_site_label
_atom_site_fract_x
_atom_site_fract_y
_atom_site_fract_z
Si Si1 0.857701 0.054360 0.641687
Si Si2 0.673333 0.134351 0.264627
Si Si3 0.812230 0.385096 0.060824
Si Si4 0.074317 0.761373 0.558552
O O1 0.738308 0.126991 0.675818
O O2 0.946874 0.141460 0.602679
O O3 0.763583 0.964722 0.605164
O O4 0.000000 0.000000 0.673229
O O5 0.500000 0.145556 0.250000
O O6 0.750000 0.250000 0.239323
O O7 0.714614 0.000000 0.250000
O O8 0.750000 0.250000 0.064019
O O9 0.987408 0.359536 0.069511
O O10 0.790929 0.429260 0.000000
O O11 0.023475 0.801266 0.500000
O O12 0.250000 0.750000 0.556083
#
# Coordination Sequence:
#
# PCOD9498417 Si02
#       4
#    16  16  16  16
#     4  12  25  42  77 114 149 201 262 325 385 472
#     4  11  30  56  84 115 150 198 261 342 419 490
#     4  10  21  40  69 110 162 210 251 300 368 449
#     4  10  22  40  64 105 159 206 253 310 368 448
#
# _framework density 24.918375999999999
#
# number of rings (size 3 to 8) (size 9 to 14) (size 15 to 20)
#    0.000    1.250    2.500    1.500    3.500   11.000 
#    0.000    3.750    0.000    0.000    0.000    0.000 
#    0.000    1.000    0.000    0.000    0.000    0.000 
#
# Total GULP energy -178671.189978 kJ/mol
# GULP energy per Si atom -5583.474687 kJ/mol
# Density = 2.486166 g / cm^3
# Si number density = 24.918376 Si / 1000 Ang^3
#
#
#
# Elastic Constant Matrix: (Units=GPa)
#
#
# Indices 1 2 3 4 5 6 
#
# 1 192.7253 60.2637 63.5490 0.0000 0.0000 0.0000
# 2 60.2637 148.3258 46.0602 0.0000 0.0000 0.0000
# 3 63.5490 46.0602 59.6685 0.0000 0.0000 0.0000
# 4 0.0000 0.0000 0.0000 8.7219 0.0000 0.0000
# 5 0.0000 0.0000 0.0000 0.0000 6.0586 0.0000
# 6 0.0000 0.0000 0.0000 0.0000 0.0000 40.1114
#
#
#
# Elastic Compliance Matrix: (Units=1/GPa)
#
#
# Indices 1 2 3 4 5 6 
#
# 1 0.008069 -0.000802 -0.007975 0.000000 0.000000 0.000000
# 2 -0.000802 0.008947 -0.006053 0.000000 0.000000 0.000000
# 3 -0.007975 -0.006053 0.029925 0.000000 0.000000 0.000000
# 4 0.000000 0.000000 0.000000 0.114654 0.000000 0.000000
# 5 0.000000 0.000000 0.000000 0.000000 0.165054 0.000000
# 6 0.000000 0.000000 0.000000 0.000000 0.000000 0.024931
#
#
# Mechanical properties :
#
#
# Convention : Reuss Voigt Hill
#
# Bulk Modulus (GPa) = 57.86184 82.27396 70.06790
# Shear Modulus (GPa) = 12.91989 26.36814 19.64402
#
# Velocity S-wave (km/s) = 2.27950 3.25650 2.81078
# Velocity P-wave (km/s) = 5.49538 6.87232 6.22205
#
# Compressibility (1/GPa) = 0.01728255
#
# Stress axis : x y z
#
# Youngs Moduli (GPa) = 123.92949 111.76566 33.41698
#
# Poissons Ratio (x) = 0.08963 0.26649
# Poissons Ratio (y) = 0.09939 0.20226
# Poissons Ratio (z) = 0.98831 0.67647
#
# Static dielectric constant tensor:
#      x y z
#    x 2.118920 0.000000 0.000000 
#    y 0.000000 0.861720 0.000000 
#    z 0.000000 0.000000 2.060600 
# 
# From -- ./inp_files/67923.got.cif
#   From: 2010.05.17/outbox.cif.g08.bks.cpg/sg66_34_cif.got.tgz:67923.got - 2010.06.03 17:51:23.
