data_PCOD9498575
_publ_section_title
;
Structure prediction by ZEFSAII (Michael W. Deem and Ramdas Pophale) SiO2 
 PCOD9498575
Probable space group: C C C M
;
_chemical_formula_sum "Si O2"
_cell_formula_units_Z 100
_cell_length_a 14.349543
_cell_length_b 21.780370
_cell_length_c 17.976659
_cell_angle_alpha 90.000000
_cell_angle_beta 90.000000
_cell_angle_gamma 90.000000
_cell_volume 5618.395448
_symmetry_space_group_name_H-M "C C C M"
_symmetry_group_IT_number 66
_symmetry_cell_setting 'orthorhombic'
loop_
_space_group_symop_operation_xyz
x,y,z
-x,-y,z
x,-y,1/2-z
-x,y,1/2-z
-x,-y,-z
x,y,-z
-x,y,1/2+z
x,-y,1/2+z
1/2+x,1/2+y,z
1/2-x,1/2-y,z
1/2+x,1/2-y,1/2-z
1/2-x,1/2+y,1/2-z
1/2-x,1/2-y,-z
1/2+x,1/2+y,-z
1/2-x,1/2+y,1/2+z
1/2+x,1/2-y,1/2+z
loop_
_atom_site_type_symbol
_atom_site_label
_atom_site_fract_x
_atom_site_fract_y
_atom_site_fract_z
Si Si1 0.850213 0.998935 0.085924
Si Si2 0.896282 0.399688 0.735908
Si Si3 0.861983 0.486052 0.868072
Si Si4 0.221351 0.818724 0.714442
Si Si5 0.000000 0.500000 0.000000
Si Si6 0.926262 0.890768 0.315234
Si Si7 0.913938 0.142605 0.587295
O O1 0.740385 0.996906 0.102805
O O2 0.892413 0.048009 0.143082
O O3 0.890195 0.930333 0.094532
O O4 0.867350 0.017876 0.000000
O O5 0.858779 0.428839 0.812518
O O6 0.901357 0.456563 0.679090
O O7 0.818630 0.354230 0.705738
O O8 0.000000 0.374577 0.750000
O O9 0.929279 0.474582 0.935784
O O10 0.250000 0.750000 0.735163
O O11 0.157270 0.853454 0.775801
O O12 0.161220 0.822277 0.638312
O O13 0.000000 0.905994 0.250000
O O14 0.984614 0.850872 0.375094
O O15 0.911158 0.158302 0.500000
#
# Coordination Sequence:
#
# PCOD9498575 Si02
#       7
#    16  16  16  16   4  16  16
#     4  11  20  33  59  93 122 154 181 227 302 365
#     4  11  21  37  56  82 115 156 191 234 293 346
#     4  11  20  33  57  86 120 153 183 235 292 355
#     4  11  24  40  61  84 112 156 211 247 278 333
#     4  12  20  34  56  96 126 142 196 232 288 368
#     4  10  22  37  59  87 122 154 191 240 292 352
#     4  10  22  39  61  90 122 150 186 239 301 354
#
# _framework density 17.798674999999999
#
# number of rings (size 3 to 8) (size 9 to 14) (size 15 to 20)
#    0.000    1.280    5.600    1.440    0.000    8.000 
#    0.000    0.000    0.000    1.920    0.000    0.000 
#    0.000    0.000    0.000    0.000    0.000    0.000 
#
# Total GULP energy -278564.260511 kJ/mol
# GULP energy per Si atom -5571.285210 kJ/mol
# Density = 1.775816 g / cm^3
# Si number density = 17.798675 Si / 1000 Ang^3
#
#
#
# Elastic Constant Matrix: (Units=GPa)
#
#
# Indices 1 2 3 4 5 6 
#
# 1 88.2179 9.8520 16.8561 0.0000 0.0000 0.0000
# 2 9.8520 37.9541 14.3172 0.0000 0.0000 0.0000
# 3 16.8561 14.3172 103.5069 0.0000 0.0000 0.0000
# 4 0.0000 0.0000 0.0000 8.0755 0.0000 0.0000
# 5 0.0000 0.0000 0.0000 0.0000 16.3246 0.0000
# 6 0.0000 0.0000 0.0000 0.0000 0.0000 4.8216
#
#
#
# Elastic Compliance Matrix: (Units=1/GPa)
#
#
# Indices 1 2 3 4 5 6 
#
# 1 0.011919 -0.002492 -0.001596 0.000000 0.000000 0.000000
# 2 -0.002492 0.028319 -0.003511 0.000000 0.000000 0.000000
# 3 -0.001596 -0.003511 0.010407 0.000000 0.000000 0.000000
# 4 0.000000 0.000000 0.000000 0.123831 0.000000 0.000000
# 5 0.000000 0.000000 0.000000 0.000000 0.061257 0.000000
# 6 0.000000 0.000000 0.000000 0.000000 0.000000 0.207401
#
#
# Mechanical properties :
#
#
# Convention : Reuss Voigt Hill
#
# Bulk Modulus (GPa) = 28.21195 34.63659 31.42427
# Shear Modulus (GPa) = 10.63496 18.42126 14.52811
#
# Velocity S-wave (km/s) = 2.44706 3.22060 2.86010
# Velocity P-wave (km/s) = 4.88561 5.77340 5.34796
#
# Compressibility (1/GPa) = 0.03544597
#
# Stress axis : x y z
#
# Youngs Moduli (GPa) = 83.90070 35.31204 96.09057
#
# Poissons Ratio (x) = 0.08799 0.15339
# Poissons Ratio (y) = 0.20905 0.33741
# Poissons Ratio (z) = 0.13393 0.12399
#
# Static dielectric constant tensor:
#      x y z
#    x 1.638560 0.000000 0.000000 
#    y 0.000000 1.592940 0.000000 
#    z 0.000000 0.000000 1.609510 
# 
# From -- ./inp_files/40574.got.cif
#   From: 2010.05.17/outbox.cif.g08.bks.cpg/sg66_21_cif.got.tgz:40574.got - 2010.06.03 17:51:23.
