data_PCOD9498109
_publ_section_title
;
Structure prediction by ZEFSAII (Michael W. Deem and Ramdas Pophale) SiO2 
 PCOD9498109
Probable space group: C C C M
;
_chemical_formula_sum "Si O2"
_cell_formula_units_Z 80
_cell_length_a 16.967175
_cell_length_b 27.038201
_cell_length_c 9.556689
_cell_angle_alpha 90.000000
_cell_angle_beta 90.000000
_cell_angle_gamma 90.000000
_cell_volume 4384.244689
_symmetry_space_group_name_H-M "C C C M"
_symmetry_group_IT_number 66
_symmetry_cell_setting 'orthorhombic'
loop_
_space_group_symop_operation_xyz
x,y,z
-x,-y,z
x,-y,1/2-z
-x,y,1/2-z
-x,-y,-z
x,y,-z
-x,y,1/2+z
x,-y,1/2+z
1/2+x,1/2+y,z
1/2-x,1/2-y,z
1/2+x,1/2-y,1/2-z
1/2-x,1/2+y,1/2-z
1/2-x,1/2-y,-z
1/2+x,1/2+y,-z
1/2-x,1/2+y,1/2+z
1/2+x,1/2-y,1/2+z
loop_
_atom_site_type_symbol
_atom_site_label
_atom_site_fract_x
_atom_site_fract_y
_atom_site_fract_z
Si Si1 0.432514 0.568999 0.000000
Si Si2 0.886352 0.953354 0.000000
Si Si3 0.425311 0.140411 0.165721
Si Si4 0.149202 0.550504 0.162643
Si Si5 0.315996 0.596029 0.769990
Si Si6 0.260102 0.194538 0.835383
O O1 0.403613 0.511735 0.000000
O O2 0.526425 0.570462 0.000000
O O3 0.392173 0.593472 0.133283
O O4 0.837579 0.935123 0.132684
O O5 0.500000 0.160782 0.250000
O O6 0.400219 0.090894 0.249586
O O7 0.350350 0.176610 0.174815
O O8 0.440626 0.131341 0.000000
O O9 0.145124 0.500000 0.250000
O O10 0.239396 0.570106 0.163251
O O11 0.124017 0.545424 0.000000
O O12 0.291702 0.652012 0.735739
O O13 0.250000 0.250000 0.780137
O O14 0.238709 0.194756 0.000000
#
# Coordination Sequence:
#
# PCOD9498109 Si02
#       6
#     8   8  16  16  16  16
#     4  11  22  36  53  84 123 157 198 247 298 340
#     4  11  22  36  55  80 119 169 200 235 292 362
#     4  10  21  38  61  87 119 151 189 235 290 346
#     4  11  22  35  57  85 117 154 197 238 284 344
#     4  11  21  36  58  84 114 155 199 245 289 351
#     4   9  19  39  66  86 109 152 199 241 293 352
#
# _framework density 18.247156
#
# number of rings (size 3 to 8) (size 9 to 14) (size 15 to 20)
#    0.000    1.600    2.000    3.600    2.800    2.000 
#    0.000    4.500    0.000    0.000    0.000    0.000 
#    0.000    0.000    0.000    0.000    0.000    0.000 
#
# Total GULP energy -223326.576291 kJ/mol
# GULP energy per Si atom -5583.164407 kJ/mol
# Density = 1.820562 g / cm^3
# Si number density = 18.247156 Si / 1000 Ang^3
#
#
#
# Elastic Constant Matrix: (Units=GPa)
#
#
# Indices 1 2 3 4 5 6 
#
# 1 66.3900 19.8928 34.0168 0.0000 0.0000 0.0000
# 2 19.8928 109.7877 38.7195 0.0000 0.0000 0.0000
# 3 34.0168 38.7195 131.0317 0.0000 0.0000 0.0000
# 4 0.0000 0.0000 0.0000 25.2860 0.0000 0.0000
# 5 0.0000 0.0000 0.0000 0.0000 17.6877 0.0000
# 6 0.0000 0.0000 0.0000 0.0000 0.0000 10.0347
#
#
#
# Elastic Compliance Matrix: (Units=1/GPa)
#
#
# Indices 1 2 3 4 5 6 
#
# 1 0.017676 -0.001769 -0.004066 0.000000 0.000000 0.000000
# 2 -0.001769 0.010345 -0.002598 0.000000 0.000000 0.000000
# 3 -0.004066 -0.002598 0.009455 0.000000 0.000000 0.000000
# 4 0.000000 0.000000 0.000000 0.039548 0.000000 0.000000
# 5 0.000000 0.000000 0.000000 0.000000 0.056536 0.000000
# 6 0.000000 0.000000 0.000000 0.000000 0.000000 0.099654
#
#
# Mechanical properties :
#
#
# Convention : Reuss Voigt Hill
#
# Bulk Modulus (GPa) = 48.51847 54.71862 51.61854
# Shear Modulus (GPa) = 19.45907 24.90704 22.18306
#
# Velocity S-wave (km/s) = 3.26915 3.69857 3.49047
# Velocity P-wave (km/s) = 6.39508 6.94923 6.67791
#
# Compressibility (1/GPa) = 0.02061071
#
# Stress axis : x y z
#
# Youngs Moduli (GPa) = 56.57426 96.66370 105.76433
#
# Poissons Ratio (x) = 0.17097 0.43005
# Poissons Ratio (y) = 0.10006 0.27475
# Poissons Ratio (z) = 0.23004 0.25111
#
# Static dielectric constant tensor:
#      x y z
#    x 1.621170 0.000000 0.000000 
#    y 0.000000 1.605750 0.000000 
#    z 0.000000 0.000000 1.596280 
# 
# From -- ./inp_files/6744.got.cif
#   From: 2010.05.17/outbox.cif.g08.bks.cpg/sg66_4_cif.got.tgz:6744.got - 2010.06.03 17:51:23.
