data_PCOD9498349
_publ_section_title
;
Structure prediction by ZEFSAII (Michael W. Deem and Ramdas Pophale) SiO2 
 PCOD9498349
Probable space group: C C C M
;
_chemical_formula_sum "Si O2"
_cell_formula_units_Z 96
_cell_length_a 21.288098
_cell_length_b 14.936635
_cell_length_c 15.285701
_cell_angle_alpha 90.000000
_cell_angle_beta 90.000000
_cell_angle_gamma 90.000000
_cell_volume 4860.433320
_symmetry_space_group_name_H-M "C C C M"
_symmetry_group_IT_number 66
_symmetry_cell_setting 'orthorhombic'
loop_
_space_group_symop_operation_xyz
x,y,z
-x,-y,z
x,-y,1/2-z
-x,y,1/2-z
-x,-y,-z
x,y,-z
-x,y,1/2+z
x,-y,1/2+z
1/2+x,1/2+y,z
1/2-x,1/2-y,z
1/2+x,1/2-y,1/2-z
1/2-x,1/2+y,1/2-z
1/2-x,1/2-y,-z
1/2+x,1/2+y,-z
1/2-x,1/2+y,1/2+z
1/2+x,1/2-y,1/2+z
loop_
_atom_site_type_symbol
_atom_site_label
_atom_site_fract_x
_atom_site_fract_y
_atom_site_fract_z
Si Si1 0.510980 0.607886 0.149482
Si Si2 0.144178 0.597310 0.644518
Si Si3 0.754694 0.643946 0.000000
Si Si4 0.003605 0.608612 0.597887
Si Si5 0.678724 0.223476 0.000000
Si Si6 0.873246 0.616773 0.663938
Si Si7 0.890715 0.911440 0.000000
Si Si8 0.082760 0.876286 0.000000
O O1 0.500000 0.500000 0.151689
O O2 0.500000 0.638579 0.250000
O O3 0.574108 0.622417 0.089772
O O4 0.457434 0.645417 0.086067
O O5 0.202401 0.615747 0.582179
O O6 0.075871 0.633616 0.613728
O O7 0.134796 0.489903 0.649321
O O8 0.154495 0.635521 0.741134
O O9 0.750000 0.750000 0.000000
O O10 0.683443 0.607593 0.000000
O O11 0.985363 0.637579 0.500000
O O12 0.000000 0.500000 0.599668
O O13 0.948047 0.637565 0.662195
O O14 0.750000 0.250000 0.000000
O O15 0.659413 0.167615 0.085302
O O16 0.642897 0.316620 0.000000
O O17 0.902580 0.018238 0.000000
#
# Coordination Sequence:
#
# PCOD9498349 Si02
#       8
#    16  16   8  16   8  16   8   8
#     4   8  15  37  68  95 116 148 204 259 305 360
#     4  10  21  40  66  89 121 165 201 245 306 370
#     4  12  26  43  59  86 128 164 206 250 300 362
#     4   9  15  31  63  92 115 149 197 247 296 350
#     4  12  26  40  56  87 131 162 201 258 304 352
#     4  10  21  40  63  92 120 159 207 252 299 366
#     4   9  20  40  66  91 123 160 205 248 303 381
#     4   9  20  39  63  91 120 160 200 249 310 360
#
# _framework density 19.751325000000001
#
# number of rings (size 3 to 8) (size 9 to 14) (size 15 to 20)
#    0.000    2.333    1.667    2.000    2.333    2.667 
#   12.000    1.667    0.000    0.000    0.000    0.000 
#    0.000    0.000    0.000    0.000    0.000    0.000 
#
# Total GULP energy -267722.975938 kJ/mol
# GULP energy per Si atom -5577.561999 kJ/mol
# Density = 1.970637 g / cm^3
# Si number density = 19.751325 Si / 1000 Ang^3
#
#
#
# Elastic Constant Matrix: (Units=GPa)
#
#
# Indices 1 2 3 4 5 6 
#
# 1 187.1635 25.2055 98.9876 0.0000 0.0000 0.0000
# 2 25.2055 34.5908 24.5763 0.0000 0.0000 0.0000
# 3 98.9876 24.5763 175.4229 0.0000 0.0000 0.0000
# 4 0.0000 0.0000 0.0000 -6.7195 0.0000 0.0000
# 5 0.0000 0.0000 0.0000 0.0000 10.4057 0.0000
# 6 0.0000 0.0000 0.0000 0.0000 0.0000 228.5940
#
#
#
# Elastic Compliance Matrix: (Units=1/GPa)
#
#
# Indices 1 2 3 4 5 6 
#
# 1 0.007863 -0.002862 -0.004036 0.000000 0.000000 0.000000
# 2 -0.002862 0.033147 -0.003029 0.000000 0.000000 0.000000
# 3 -0.004036 -0.003029 0.008402 0.000000 0.000000 0.000000
# 4 0.000000 0.000000 0.000000 -0.148820 0.000000 0.000000
# 5 0.000000 0.000000 0.000000 0.000000 0.096102 0.000000
# 6 0.000000 0.000000 0.000000 0.000000 0.000000 0.004375
#
#
# Mechanical properties :
#
#
# Convention : Reuss Voigt Hill
#
# Bulk Modulus (GPa) = 33.83124 77.19066 55.51095
# Shear Modulus (GPa) = 162.47217 63.01655 112.74436
#
# Velocity S-wave (km/s) = 9.07951 5.65458 7.56345
# Velocity P-wave (km/s) = 11.27308 9.04425 10.21961
#
# Compressibility (1/GPa) = 0.02955848
#
# Stress axis : x y z
#
# Youngs Moduli (GPa) = 127.18002 30.16876 119.01630
#
# Poissons Ratio (x) = 0.08634 0.48034
# Poissons Ratio (y) = 0.36399 0.36048
# Poissons Ratio (z) = 0.51328 0.09138
#
# Static dielectric constant tensor:
#      x y z
#    x 1.675700 0.000000 0.000000 
#    y 0.000000 1.706540 0.000000 
#    z 0.000000 0.000000 1.702710 
# 
# From -- ./inp_files/31271.got.cif
#   From: 2010.05.17/outbox.cif.g08.bks.cpg/sg66_16_cif.got.tgz:31271.got - 2010.06.03 17:51:23.
