data_PCOD9498071
_publ_section_title
;
Structure prediction by ZEFSAII (Michael W. Deem and Ramdas Pophale) SiO2 
 PCOD9498071
Probable space group: C C C M
;
_chemical_formula_sum "Si O2"
_cell_formula_units_Z 56
_cell_length_a 5.182074
_cell_length_b 35.003275
_cell_length_c 13.694447
_cell_angle_alpha 90.000000
_cell_angle_beta 90.000000
_cell_angle_gamma 90.000000
_cell_volume 2484.029733
_symmetry_space_group_name_H-M "C C C M"
_symmetry_group_IT_number 66
_symmetry_cell_setting 'orthorhombic'
loop_
_space_group_symop_operation_xyz
x,y,z
-x,-y,z
x,-y,1/2-z
-x,y,1/2-z
-x,-y,-z
x,y,-z
-x,y,1/2+z
x,-y,1/2+z
1/2+x,1/2+y,z
1/2-x,1/2-y,z
1/2+x,1/2-y,1/2-z
1/2-x,1/2+y,1/2-z
1/2-x,1/2-y,-z
1/2+x,1/2+y,-z
1/2-x,1/2+y,1/2+z
1/2+x,1/2-y,1/2+z
loop_
_atom_site_type_symbol
_atom_site_label
_atom_site_fract_x
_atom_site_fract_y
_atom_site_fract_z
Si Si1 0.149642 0.341800 0.615744
Si Si2 0.000000 0.273722 0.750000
Si Si3 0.138854 0.109188 0.117792
Si Si4 0.252883 0.975533 0.617909
O O1 0.185072 0.335930 0.500000
O O2 0.379021 0.369618 0.651004
O O3 0.125102 0.301583 0.669189
O O4 0.881138 0.363427 0.632367
O O5 0.750000 0.250000 0.712947
O O6 0.210356 0.067232 0.156963
O O7 0.103844 0.104536 0.000000
O O8 0.277874 0.971838 0.500000
O O9 0.500000 0.000000 0.648484
O O10 0.000000 0.000000 0.637948
#
# Coordination Sequence:
#
# PCOD9498071 Si02
#       4
#    16   8  16  16
#     4  10  21  38  59  83 113 149 188 230 280 342
#     4  12  26  42  62  88 113 140 183 236 296 360
#     4   9  17  31  52  79 113 153 193 229 272 332
#     4   9  15  23  40  72 112 148 185 230 270 307
#
# _framework density 22.544013
#
# number of rings (size 3 to 8) (size 9 to 14) (size 15 to 20)
#    0.000    2.286    0.000    3.429    0.000    8.000 
#    0.000    0.000    0.000    0.000    0.000   15.000 
#    0.000    0.000    0.000    0.000    0.000    0.286 
#
# Total GULP energy -156613.276819 kJ/mol
# GULP energy per Si atom -5593.331315 kJ/mol
# Density = 2.249270 g / cm^3
# Si number density = 22.544013 Si / 1000 Ang^3
#
#
#
# Elastic Constant Matrix: (Units=GPa)
#
#
# Indices 1 2 3 4 5 6 
#
# 1 166.8383 74.0628 21.9884 0.0000 0.0000 0.0000
# 2 74.0628 157.8627 24.3239 0.0000 0.0000 0.0000
# 3 21.9884 24.3239 78.5587 0.0000 0.0000 0.0000
# 4 0.0000 0.0000 0.0000 51.2486 0.0000 0.0000
# 5 0.0000 0.0000 0.0000 0.0000 56.1955 0.0000
# 6 0.0000 0.0000 0.0000 0.0000 0.0000 -4.8870
#
#
#
# Elastic Compliance Matrix: (Units=1/GPa)
#
#
# Indices 1 2 3 4 5 6 
#
# 1 0.007657 -0.003426 -0.001083 0.000000 0.000000 0.000000
# 2 -0.003426 0.008185 -0.001575 0.000000 0.000000 0.000000
# 3 -0.001083 -0.001575 0.013520 0.000000 0.000000 0.000000
# 4 0.000000 0.000000 0.000000 0.019513 0.000000 0.000000
# 5 0.000000 0.000000 0.000000 0.000000 0.017795 0.000000
# 6 0.000000 0.000000 0.000000 0.000000 0.000000 -0.204626
#
#
# Mechanical properties :
#
#
# Convention : Reuss Voigt Hill
#
# Bulk Modulus (GPa) = 58.15719 71.55666 64.85692
# Shear Modulus (GPa) = -41.64671 39.37038 -1.13817
#
# Velocity S-wave (km/s) = -4.30275 4.18350 -0.71131
# Velocity P-wave (km/s) = 1.08090 7.42599 5.30630
#
# Compressibility (1/GPa) = 0.01719478
#
# Stress axis : x y z
#
# Youngs Moduli (GPa) = 130.59565 122.18173 73.96388
#
# Poissons Ratio (x) = 0.41855 0.08007
# Poissons Ratio (y) = 0.44738 0.11652
# Poissons Ratio (z) = 0.14138 0.19248
#
# Static dielectric constant tensor:
#      x y z
#    x 1.874640 0.000000 0.000000 
#    y 0.000000 1.810340 0.000000 
#    z 0.000000 0.000000 1.912360 
# 
# From -- ./inp_files/22471.got.cif
#   From: 2010.05.17/outbox.cif.g08.bks.cpg/sg66_12_cif.got.tgz:22471.got - 2010.06.03 17:51:23.
