data_PCOD9498736
_publ_section_title
;
Structure prediction by ZEFSAII (Michael W. Deem and Ramdas Pophale) SiO2 
 PCOD9498736
Probable space group: C C C M
;
_chemical_formula_sum "Si O2"
_cell_formula_units_Z 72
_cell_length_a 14.158100
_cell_length_b 15.274417
_cell_length_c 14.860779
_cell_angle_alpha 90.000000
_cell_angle_beta 90.000000
_cell_angle_gamma 90.000000
_cell_volume 3213.743373
_symmetry_space_group_name_H-M "C C C M"
_symmetry_group_IT_number 66
_symmetry_cell_setting 'orthorhombic'
loop_
_space_group_symop_operation_xyz
x,y,z
-x,-y,z
x,-y,1/2-z
-x,y,1/2-z
-x,-y,-z
x,y,-z
-x,y,1/2+z
x,-y,1/2+z
1/2+x,1/2+y,z
1/2-x,1/2-y,z
1/2+x,1/2-y,1/2-z
1/2-x,1/2+y,1/2-z
1/2-x,1/2-y,-z
1/2+x,1/2+y,-z
1/2-x,1/2+y,1/2+z
1/2+x,1/2-y,1/2+z
loop_
_atom_site_type_symbol
_atom_site_label
_atom_site_fract_x
_atom_site_fract_y
_atom_site_fract_z
Si Si1 0.729041 0.059541 0.000000
Si Si2 0.784172 0.937466 0.834341
Si Si3 0.983387 0.102602 0.646308
Si Si4 0.519937 0.886286 0.500000
Si Si5 0.391558 0.306912 0.500000
Si Si6 0.919329 0.593238 0.192833
O O1 0.785112 0.152744 0.000000
O O2 0.758520 0.005424 0.087503
O O3 0.616192 0.058900 0.000000
O O4 0.872427 0.881211 0.868170
O O5 0.690607 0.881956 0.810634
O O6 0.812469 0.000000 0.750000
O O7 0.000000 0.120282 0.750000
O O8 0.056805 0.153104 0.586446
O O9 0.000000 0.000000 0.627259
O O10 0.571206 0.791869 0.500000
O O11 0.460643 0.903334 0.408597
O O12 0.911267 0.500000 0.250000
O O13 0.000000 0.643097 0.250000
#
# Coordination Sequence:
#
# PCOD9498736 Si02
#       6
#     8  16  16   8   8  16
#     4  12  21  36  61  86 122 164 207 250 300 363
#     4  11  20  35  65  96 115 149 215 263 296 349
#     4  11  20  39  64  93 122 156 208 255 303 357
#     4  12  26  42  57  90 131 165 201 249 313 372
#     4  12  25  39  59  89 132 167 196 247 315 374
#     4  10  22  40  63  90 119 156 204 256 303 352
#
# _framework density 22.403780000000001
#
# number of rings (size 3 to 8) (size 9 to 14) (size 15 to 20)
#    0.000    0.889    4.444    6.000    0.000    3.556 
#    0.000    2.222    0.000    0.000    0.000    0.000 
#    0.000    0.000    0.000    0.000    0.000    0.000 
#
# Total GULP energy -200840.833483 kJ/mol
# GULP energy per Si atom -5578.912041 kJ/mol
# Density = 2.235279 g / cm^3
# Si number density = 22.403780 Si / 1000 Ang^3
#
#
#
# Elastic Constant Matrix: (Units=GPa)
#
#
# Indices 1 2 3 4 5 6 
#
# 1 149.7773 -16.2328 -11.3051 0.0000 0.0000 0.0000
# 2 -16.2328 40.3361 9.1287 0.0000 0.0000 0.0000
# 3 -11.3051 9.1287 102.5643 0.0000 0.0000 0.0000
# 4 0.0000 0.0000 0.0000 10.0324 0.0000 0.0000
# 5 0.0000 0.0000 0.0000 0.0000 50.1473 0.0000
# 6 0.0000 0.0000 0.0000 0.0000 0.0000 8.1899
#
#
#
# Elastic Compliance Matrix: (Units=1/GPa)
#
#
# Indices 1 2 3 4 5 6 
#
# 1 0.007009 0.002700 0.000532 0.000000 0.000000 0.000000
# 2 0.002700 0.026342 -0.002047 0.000000 0.000000 0.000000
# 3 0.000532 -0.002047 0.009991 0.000000 0.000000 0.000000
# 4 0.000000 0.000000 0.000000 0.099677 0.000000 0.000000
# 5 0.000000 0.000000 0.000000 0.000000 0.019941 0.000000
# 6 0.000000 0.000000 0.000000 0.000000 0.000000 0.122101
#
#
# Mechanical properties :
#
#
# Convention : Reuss Voigt Hill
#
# Bulk Modulus (GPa) = 21.87534 28.42878 25.15206
# Shear Modulus (GPa) = 16.78258 34.41305 25.59782
#
# Velocity S-wave (km/s) = 2.73993 3.92348 3.38385
# Velocity P-wave (km/s) = 4.44915 5.76557 5.14960
#
# Compressibility (1/GPa) = 0.04571358
#
# Stress axis : x y z
#
# Youngs Moduli (GPa) = 142.66510 37.96261 100.09179
#
# Poissons Ratio (x) = -0.10251 -0.05328
# Poissons Ratio (y) = -0.38525 0.20487
# Poissons Ratio (z) = -0.07594 0.07770
#
# Static dielectric constant tensor:
#      x y z
#    x 1.895450 0.000000 0.000000 
#    y 0.000000 1.903990 0.000000 
#    z 0.000000 0.000000 1.817820 
# 
# From -- ./inp_files/28017.got.cif
#   From: 2010.05.17/outbox.cif.g08.bks.cpg/sg66_15_cif.got.tgz:28017.got - 2010.06.03 17:51:23.
