data_PCOD9498400
_publ_section_title
;
Structure prediction by ZEFSAII (Michael W. Deem and Ramdas Pophale) SiO2 
 PCOD9498400
Probable space group: C C C M
;
_chemical_formula_sum "Si O2"
_cell_formula_units_Z 116
_cell_length_a 17.069321
_cell_length_b 19.680054
_cell_length_c 15.518060
_cell_angle_alpha 90.000000
_cell_angle_beta 90.000000
_cell_angle_gamma 90.000000
_cell_volume 5212.906773
_symmetry_space_group_name_H-M "C C C M"
_symmetry_group_IT_number 66
_symmetry_cell_setting 'orthorhombic'
loop_
_space_group_symop_operation_xyz
x,y,z
-x,-y,z
x,-y,1/2-z
-x,y,1/2-z
-x,-y,-z
x,y,-z
-x,y,1/2+z
x,-y,1/2+z
1/2+x,1/2+y,z
1/2-x,1/2-y,z
1/2+x,1/2-y,1/2-z
1/2-x,1/2+y,1/2-z
1/2-x,1/2-y,-z
1/2+x,1/2+y,-z
1/2-x,1/2+y,1/2+z
1/2+x,1/2-y,1/2+z
loop_
_atom_site_type_symbol
_atom_site_label
_atom_site_fract_x
_atom_site_fract_y
_atom_site_fract_z
Si Si1 0.653821 0.674372 0.900196
Si Si2 0.000000 0.000000 0.000000
Si Si3 0.411111 0.186341 0.142211
Si Si4 0.298910 0.924557 0.640657
Si Si5 0.410834 0.192374 0.349740
Si Si6 0.517689 0.591341 0.846506
Si Si7 0.706477 0.921820 0.347169
Si Si8 0.356123 0.338569 0.600692
O O1 0.650800 0.755174 0.884336
O O2 0.727817 0.626263 0.882562
O O3 0.584224 0.647888 0.839288
O O4 0.632153 0.666517 0.000000
O O5 0.046550 0.040000 0.920946
O O6 0.376995 0.114522 0.111110
O O7 0.414383 0.186436 0.246122
O O8 0.500755 0.198605 0.114031
O O9 0.304017 0.928038 0.744375
O O10 0.289795 0.002734 0.612728
O O11 0.363016 0.126594 0.381425
O O12 0.364401 0.261466 0.368728
O O13 0.500000 0.567761 0.750000
O O14 0.438497 0.623516 0.884160
O O15 0.787353 0.881461 0.357275
O O16 0.340097 0.337974 0.500000
#
# Coordination Sequence:
#
# PCOD9498400 Si02
#       8
#    16   4  16  16  16  16  16  16
#     4  12  24  41  63  95 131 171 228 280 332 402
#     4  12  26  44  60 106 136 184 226 276 336 422
#     4  10  21  40  67  95 126 170 223 278 342 410
#     4  10  23  41  63  94 130 172 221 277 345 412
#     4  10  21  40  67  95 126 170 223 278 342 410
#     4  12  25  43  67  96 138 182 225 281 340 401
#     4  10  23  41  63  94 130 172 221 277 345 412
#     4  12  24  41  63  95 131 171 228 280 332 402
#
# _framework density 22.252459999999999
#
# number of rings (size 3 to 8) (size 9 to 14) (size 15 to 20)
#    0.000    1.103    2.759    3.517    1.931    5.517 
#    0.000    2.759    0.000    0.000    0.000    3.862 
#    0.000    0.000    0.000    0.000    0.000    0.000 
#
# Total GULP energy -323473.028134 kJ/mol
# GULP energy per Si atom -5577.121175 kJ/mol
# Density = 2.220181 g / cm^3
# Si number density = 22.252460 Si / 1000 Ang^3
#
#
#
# Elastic Constant Matrix: (Units=GPa)
#
#
# Indices 1 2 3 4 5 6 
#
# 1 59.6410 67.0784 -15.9586 0.0000 0.0000 0.0000
# 2 67.0784 178.0463 -0.6597 0.0000 0.0000 0.0000
# 3 -15.9586 -0.6597 71.1424 0.0000 0.0000 0.0000
# 4 0.0000 0.0000 0.0000 -24.5819 0.0000 0.0000
# 5 0.0000 0.0000 0.0000 0.0000 -9.3109 0.0000
# 6 0.0000 0.0000 0.0000 0.0000 0.0000 -15.7161
#
#
#
# Elastic Compliance Matrix: (Units=1/GPa)
#
#
# Indices 1 2 3 4 5 6 
#
# 1 0.032362 -0.012166 0.007147 0.000000 0.000000 0.000000
# 2 -0.012166 0.010190 -0.002635 0.000000 0.000000 0.000000
# 3 0.007147 -0.002635 0.015635 0.000000 0.000000 0.000000
# 4 0.000000 0.000000 0.000000 -0.040680 0.000000 0.000000
# 5 0.000000 0.000000 0.000000 0.000000 -0.107401 0.000000
# 6 0.000000 0.000000 0.000000 0.000000 0.000000 -0.063629
#
#
# Mechanical properties :
#
#
# Convention : Reuss Voigt Hill
#
# Bulk Modulus (GPa) = 23.32090 45.52777 34.42434
# Shear Modulus (GPa) = -40.34796 7.30287 -16.52255
#
# Velocity S-wave (km/s) = -4.26278 1.81355 -2.72785
# Velocity P-wave (km/s) = 3.70479 4.98892 2.36261
#
# Compressibility (1/GPa) = 0.04287998
#
# Stress axis : x y z
#
# Youngs Moduli (GPa) = 30.90012 98.13314 63.95896
#
# Poissons Ratio (x) = 1.19388 -0.45710
# Poissons Ratio (y) = 0.37593 0.16850
# Poissons Ratio (z) = -0.22083 0.25854
#
# Static dielectric constant tensor:
#      x y z
#    x 1.821820 0.000000 0.000000 
#    y 0.000000 1.847890 0.000000 
#    z 0.000000 0.000000 1.816050 
# 
# From -- ./inp_files/41875.got.cif
#   From: 2010.05.17/outbox.cif.g08.bks.cpg/sg66_21_cif.got.tgz:41875.got - 2010.06.03 17:51:23.
