data_PCOD9498869
_publ_section_title
;
Structure prediction by ZEFSAII (Michael W. Deem and Ramdas Pophale) SiO2 
 PCOD9498869
Probable space group: C C C M
;
_chemical_formula_sum "Si O2"
_cell_formula_units_Z 64
_cell_length_a 8.551989
_cell_length_b 22.952135
_cell_length_c 14.403078
_cell_angle_alpha 90.000000
_cell_angle_beta 90.000000
_cell_angle_gamma 90.000000
_cell_volume 2827.128417
_symmetry_space_group_name_H-M "C C C M"
_symmetry_group_IT_number 66
_symmetry_cell_setting 'orthorhombic'
loop_
_space_group_symop_operation_xyz
x,y,z
-x,-y,z
x,-y,1/2-z
-x,y,1/2-z
-x,-y,-z
x,y,-z
-x,y,1/2+z
x,-y,1/2+z
1/2+x,1/2+y,z
1/2-x,1/2-y,z
1/2+x,1/2-y,1/2-z
1/2-x,1/2+y,1/2-z
1/2-x,1/2-y,-z
1/2+x,1/2+y,-z
1/2-x,1/2+y,1/2+z
1/2+x,1/2-y,1/2+z
loop_
_atom_site_type_symbol
_atom_site_label
_atom_site_fract_x
_atom_site_fract_y
_atom_site_fract_z
Si Si1 0.843108 0.618203 0.778733
Si Si2 0.068439 0.733523 0.647388
Si Si3 0.337526 0.333495 0.399314
Si Si4 0.083297 0.939554 0.394392
O O1 0.909602 0.664004 0.855222
O O2 0.766243 0.656144 0.693500
O O3 0.714492 0.577370 0.821737
O O4 0.000000 0.585447 0.750000
O O5 0.250000 0.750000 0.631579
O O6 0.000000 0.744853 0.750000
O O7 0.942141 0.774432 0.597031
O O8 0.254330 0.337818 0.500000
O O9 0.460270 0.386598 0.393835
O O10 0.145409 0.944172 0.500000
O O11 0.000000 0.000000 0.372147
#
# Coordination Sequence:
#
# PCOD9498869 Si02
#       4
#    16  16  16  16
#     4  11  24  40  66  97 135 175 220 271 332 401
#     4  11  19  36  61  91 130 170 214 264 324 393
#     4  11  23  40  62  94 134 177 220 269 330 398
#     4  10  22  42  68  95 126 170 225 280 333 389
#
# _framework density 22.637813000000001
#
# number of rings (size 3 to 8) (size 9 to 14) (size 15 to 20)
#    0.000    1.250    5.000    0.750    0.000    4.500 
#    0.000   11.250    0.000    6.000    0.000    0.000 
#    0.000    0.000    0.000    0.000    0.000    0.000 
#
# Total GULP energy -178353.707797 kJ/mol
# GULP energy per Si atom -5573.553369 kJ/mol
# Density = 2.258629 g / cm^3
# Si number density = 22.637813 Si / 1000 Ang^3
#
#
#
# Elastic Constant Matrix: (Units=GPa)
#
#
# Indices 1 2 3 4 5 6 
#
# 1 136.5672 43.2668 66.1403 0.0000 0.0000 0.0000
# 2 43.2668 83.7533 68.3524 0.0000 0.0000 0.0000
# 3 66.1403 68.3524 110.1328 0.0000 0.0000 0.0000
# 4 0.0000 0.0000 0.0000 25.1855 0.0000 0.0000
# 5 0.0000 0.0000 0.0000 0.0000 6.0241 0.0000
# 6 0.0000 0.0000 0.0000 0.0000 0.0000 21.3609
#
#
#
# Elastic Compliance Matrix: (Units=1/GPa)
#
#
# Indices 1 2 3 4 5 6 
#
# 1 0.010338 -0.000555 -0.005864 0.000000 0.000000 0.000000
# 2 -0.000555 0.024225 -0.014701 0.000000 0.000000 0.000000
# 3 -0.005864 -0.014701 0.021726 0.000000 0.000000 0.000000
# 4 0.000000 0.000000 0.000000 0.039705 0.000000 0.000000
# 5 0.000000 0.000000 0.000000 0.000000 0.166000 0.000000
# 6 0.000000 0.000000 0.000000 0.000000 0.000000 0.046814
#
#
# Mechanical properties :
#
#
# Convention : Reuss Voigt Hill
#
# Bulk Modulus (GPa) = 71.18594 76.21916 73.70255
# Shear Modulus (GPa) = 14.05551 20.69369 17.37460
#
# Velocity S-wave (km/s) = 2.49446 3.02672 2.77339
# Velocity P-wave (km/s) = 6.30954 6.77914 6.54855
#
# Compressibility (1/GPa) = 0.01404772
#
# Stress axis : x y z
#
# Youngs Moduli (GPa) = 96.72763 41.28048 46.02764
#
# Poissons Ratio (x) = 0.02290 0.26992
# Poissons Ratio (y) = 0.05366 0.67667
# Poissons Ratio (z) = 0.56725 0.60688
#
# Static dielectric constant tensor:
#      x y z
#    x 1.866430 0.000000 0.000000 
#    y 0.000000 1.839790 0.000000 
#    z 0.000000 0.000000 1.933440 
# 
# From -- ./inp_files/24162.got.cif
#   From: 2010.05.17/outbox.cif.g08.bks.cpg/sg66_13_cif.got.tgz:24162.got - 2010.06.03 17:51:23.
