data_PCOD9498871
_publ_section_title
;
Structure prediction by ZEFSAII (Michael W. Deem and Ramdas Pophale) SiO2 
 PCOD9498871
Probable space group: C C C M
;
_chemical_formula_sum "Si O2"
_cell_formula_units_Z 112
_cell_length_a 22.097324
_cell_length_b 17.285771
_cell_length_c 15.297299
_cell_angle_alpha 90.000000
_cell_angle_beta 90.000000
_cell_angle_gamma 90.000000
_cell_volume 5843.098321
_symmetry_space_group_name_H-M "C C C M"
_symmetry_group_IT_number 66
_symmetry_cell_setting 'orthorhombic'
loop_
_space_group_symop_operation_xyz
x,y,z
-x,-y,z
x,-y,1/2-z
-x,y,1/2-z
-x,-y,-z
x,y,-z
-x,y,1/2+z
x,-y,1/2+z
1/2+x,1/2+y,z
1/2-x,1/2-y,z
1/2+x,1/2-y,1/2-z
1/2-x,1/2+y,1/2-z
1/2-x,1/2-y,-z
1/2+x,1/2+y,-z
1/2-x,1/2+y,1/2+z
1/2+x,1/2-y,1/2+z
loop_
_atom_site_type_symbol
_atom_site_label
_atom_site_fract_x
_atom_site_fract_y
_atom_site_fract_z
Si Si1 0.929421 0.299132 0.103294
Si Si2 0.350740 0.647369 0.100379
Si Si3 0.429917 0.500001 0.144463
Si Si4 0.649268 0.647360 0.899621
Si Si5 0.120714 0.408165 0.250003
Si Si6 0.929408 0.700872 0.103294
Si Si7 0.255816 0.342819 0.749998
O O1 0.887278 0.225391 0.124302
O O2 0.909926 0.369005 0.165286
O O3 0.000006 0.279770 0.118275
O O4 0.922184 0.316345 0.000000
O O5 0.396184 0.575790 0.110158
O O6 0.295077 0.635534 0.165239
O O7 0.330785 0.654122 0.000000
O O8 0.500000 0.500000 0.118714
O O9 0.426456 0.500000 0.250000
O O10 0.396181 0.424215 0.110157
O O11 0.612732 0.725385 0.875698
O O12 0.704930 0.635522 0.834760
O O13 0.669223 0.654112 0.000000
O O14 0.114389 0.500000 0.250000
O O15 0.090086 0.369002 0.165285
O O16 0.190993 0.383055 0.250011
O O17 0.922171 0.683660 0.000000
O O18 0.250000 0.250000 0.750005
#
# Coordination Sequence:
#
# PCOD9498871 Si02
#       7
#    16  16  16  16  16  16  16
#     4  10  22  42  68  96 124 159 208 261 319 386
#     4  11  23  41  66  95 129 171 214 258 316 379
#     4  11  23  39  65 100 139 173 206 261 324 382
#     4  11  23  41  66  95 129 171 214 258 316 379
#     4  12  27  43  64  91 128 166 209 263 317 367
#     4  10  22  42  68  96 124 159 208 261 319 386
#     4  12  24  44  65  89 126 166 216 266 304 374
#
# _framework density 19.167914
#
# number of rings (size 3 to 8) (size 9 to 14) (size 15 to 20)
#    0.000    1.000    4.286    1.714    2.000    5.714 
#    0.000    1.429    0.000    0.000    0.000    0.000 
#    0.000    0.000    0.000    0.000    0.000    0.000 
#
# Total GULP energy -313258.730543 kJ/mol
# GULP energy per Si atom -5593.905903 kJ/mol
# Density = 1.912429 g / cm^3
# Si number density = 19.167914 Si / 1000 Ang^3
#
#
#
# Elastic Constant Matrix: (Units=GPa)
#
#
# Indices 1 2 3 4 5 6 
#
# 1 65.4295 -15.4977 30.4828 0.0000 0.0000 0.0000
# 2 -15.4977 91.0019 13.2631 0.0000 0.0000 0.0000
# 3 30.4828 13.2631 77.7350 0.0000 0.0000 0.0000
# 4 0.0000 0.0000 0.0000 19.6323 0.0000 0.0000
# 5 0.0000 0.0000 0.0000 0.0000 -20.5421 0.0000
# 6 0.0000 0.0000 0.0000 0.0000 0.0000 27.7569
#
#
#
# Elastic Compliance Matrix: (Units=1/GPa)
#
#
# Indices 1 2 3 4 5 6 
#
# 1 0.020556 0.004795 -0.008879 0.000000 0.000000 0.000000
# 2 0.004795 0.012387 -0.003994 0.000000 0.000000 0.000000
# 3 -0.008879 -0.003994 0.017027 0.000000 0.000000 0.000000
# 4 0.000000 0.000000 0.000000 0.050937 0.000000 0.000000
# 5 0.000000 0.000000 0.000000 0.000000 -0.048680 0.000000
# 6 0.000000 0.000000 0.000000 0.000000 0.000000 0.036027
#
#
# Mechanical properties :
#
#
# Convention : Reuss Voigt Hill
#
# Bulk Modulus (GPa) = 29.57270 32.29586 30.93428
# Shear Modulus (GPa) = 43.22235 19.09728 31.15981
#
# Velocity S-wave (km/s) = 4.75376 3.15987 4.03628
# Velocity P-wave (km/s) = 6.75224 5.49532 6.15594
#
# Compressibility (1/GPa) = 0.03381497
#
# Stress axis : x y z
#
# Youngs Moduli (GPa) = 48.64807 80.72731 58.72917
#
# Poissons Ratio (x) = -0.38706 0.52144
# Poissons Ratio (y) = -0.23325 0.23455
# Poissons Ratio (z) = 0.43193 0.32240
#
# Static dielectric constant tensor:
#      x y z
#    x 1.643320 0.000000 0.000000 
#    y 0.000000 1.629090 0.000000 
#    z 0.000000 0.000000 1.679600 
# 
# From -- ./inp_files/32439.got.cif
#   From: 2010.05.17/outbox.cif.g08.bks.cpg/sg66_17_cif.got.tgz:32439.got - 2010.06.03 17:51:23.
