data_PCOD9498687
_publ_section_title
;
Structure prediction by ZEFSAII (Michael W. Deem and Ramdas Pophale) SiO2 
 PCOD9498687
Probable space group: C C C M
;
_chemical_formula_sum "Si O2"
_cell_formula_units_Z 60
_cell_length_a 19.160238
_cell_length_b 5.743032
_cell_length_c 23.713777
_cell_angle_alpha 90.000000
_cell_angle_beta 90.000000
_cell_angle_gamma 90.000000
_cell_volume 2609.413273
_symmetry_space_group_name_H-M "C C C M"
_symmetry_group_IT_number 66
_symmetry_cell_setting 'orthorhombic'
loop_
_space_group_symop_operation_xyz
x,y,z
-x,-y,z
x,-y,1/2-z
-x,y,1/2-z
-x,-y,-z
x,y,-z
-x,y,1/2+z
x,-y,1/2+z
1/2+x,1/2+y,z
1/2-x,1/2-y,z
1/2+x,1/2-y,1/2-z
1/2-x,1/2+y,1/2-z
1/2-x,1/2-y,-z
1/2+x,1/2+y,-z
1/2-x,1/2+y,1/2+z
1/2+x,1/2-y,1/2+z
loop_
_atom_site_type_symbol
_atom_site_label
_atom_site_fract_x
_atom_site_fract_y
_atom_site_fract_z
Si Si1 0.599263 0.461811 0.841445
Si Si2 0.830414 0.678400 0.562325
Si Si3 0.711782 0.500000 0.250000
Si Si4 0.000000 0.000000 0.750000
Si Si5 0.438159 0.808015 0.563104
O O1 0.628407 0.282741 0.885907
O O2 0.663956 0.555045 0.804659
O O3 0.549171 0.361013 0.792712
O O4 0.561954 0.649122 0.881792
O O5 0.851358 0.768765 0.500000
O O6 0.750000 0.750000 0.568609
O O7 0.859463 0.415903 0.562196
O O8 0.750000 0.750000 0.261493
O O9 0.448456 0.705807 0.500000
O O10 0.500000 0.000000 0.567927
#
# Coordination Sequence:
#
# PCOD9498687 Si02
#       5
#    16  16   8   4  16
#     4  11  23  42  68  90 139 180 236 293 357 416
#     4  10  22  39  65 102 137 174 227 291 368 445
#     4  11  28  47  70 103 138 189 246 288 355 422
#     4  10  24  44  56  96 116 184 246 288 346 422
#     4  10  22  40  66 100 134 178 229 289 364 437
#
# _framework density 22.993676000000001
#
# number of rings (size 3 to 8) (size 9 to 14) (size 15 to 20)
#    0.000    1.600    0.000    3.200    7.467    0.000 
#    0.000   10.667    0.000    0.000    0.000    0.000 
#    0.000    0.000    0.000    0.000    0.000    0.000 
#
# Total GULP energy -167108.158678 kJ/mol
# GULP energy per Si atom -5570.271956 kJ/mol
# Density = 2.294134 g / cm^3
# Si number density = 22.993676 Si / 1000 Ang^3
#
#
#
# Elastic Constant Matrix: (Units=GPa)
#
#
# Indices 1 2 3 4 5 6 
#
# 1 109.4080 44.5435 62.0146 0.0000 0.0000 0.0000
# 2 44.5435 65.0841 47.5880 0.0000 0.0000 0.0000
# 3 62.0146 47.5880 221.9700 0.0000 0.0000 0.0000
# 4 0.0000 0.0000 0.0000 31.6718 0.0000 0.0000
# 5 0.0000 0.0000 0.0000 0.0000 28.2026 0.0000
# 6 0.0000 0.0000 0.0000 0.0000 0.0000 36.9451
#
#
#
# Elastic Compliance Matrix: (Units=1/GPa)
#
#
# Indices 1 2 3 4 5 6 
#
# 1 0.013461 -0.007664 -0.002118 0.000000 0.000000 0.000000
# 2 -0.007664 0.022585 -0.002701 0.000000 0.000000 0.000000
# 3 -0.002118 -0.002701 0.005676 0.000000 0.000000 0.000000
# 4 0.000000 0.000000 0.000000 0.031574 0.000000 0.000000
# 5 0.000000 0.000000 0.000000 0.000000 0.035458 0.000000
# 6 0.000000 0.000000 0.000000 0.000000 0.000000 0.027067
#
#
# Mechanical properties :
#
#
# Convention : Reuss Voigt Hill
#
# Bulk Modulus (GPa) = 59.67896 78.30603 68.99250
# Shear Modulus (GPa) = 30.05343 35.51828 32.78586
#
# Velocity S-wave (km/s) = 3.61921 3.93453 3.78016
# Velocity P-wave (km/s) = 6.59362 7.40068 7.00877
#
# Compressibility (1/GPa) = 0.01675632
#
# Stress axis : x y z
#
# Youngs Moduli (GPa) = 74.29032 44.27764 176.18888
#
# Poissons Ratio (x) = 0.33935 0.37309
# Poissons Ratio (y) = 0.56937 0.47583
# Poissons Ratio (z) = 0.15732 0.11958
#
# Static dielectric constant tensor:
#      x y z
#    x 1.953260 0.000000 0.000000 
#    y 0.000000 1.968540 0.000000 
#    z 0.000000 0.000000 1.815720 
# 
# From -- ./inp_files/54013.got.cif
#   From: 2010.05.17/outbox.cif.g08.bks.cpg/sg66_28_cif.got.tgz:54013.got - 2010.06.03 17:51:23.
