data_PCOD9498924
_publ_section_title
;
Structure prediction by ZEFSAII (Michael W. Deem and Ramdas Pophale) SiO2 
 PCOD9498924
Probable space group: C C C M
;
_chemical_formula_sum "Si O2"
_cell_formula_units_Z 96
_cell_length_a 13.982495
_cell_length_b 22.528875
_cell_length_c 14.113381
_cell_angle_alpha 90.000000
_cell_angle_beta 90.000000
_cell_angle_gamma 90.000000
_cell_volume 4445.854484
_symmetry_space_group_name_H-M "C C C M"
_symmetry_group_IT_number 66
_symmetry_cell_setting 'orthorhombic'
loop_
_space_group_symop_operation_xyz
x,y,z
-x,-y,z
x,-y,1/2-z
-x,y,1/2-z
-x,-y,-z
x,y,-z
-x,y,1/2+z
x,-y,1/2+z
1/2+x,1/2+y,z
1/2-x,1/2-y,z
1/2+x,1/2-y,1/2-z
1/2-x,1/2+y,1/2-z
1/2-x,1/2-y,-z
1/2+x,1/2+y,-z
1/2-x,1/2+y,1/2+z
1/2+x,1/2-y,1/2+z
loop_
_atom_site_type_symbol
_atom_site_label
_atom_site_fract_x
_atom_site_fract_y
_atom_site_fract_z
Si Si1 0.357838 0.873328 0.600750
Si Si2 0.735793 0.064041 0.000000
Si Si3 0.111153 0.502015 0.861907
Si Si4 0.860144 0.227168 0.203961
Si Si5 0.360271 0.655424 0.605287
Si Si6 0.322166 0.306667 0.500000
Si Si7 0.598737 0.462521 0.500000
Si Si8 0.000000 0.672663 0.750000
O O1 0.396893 0.852712 0.500000
O O2 0.339828 0.943078 0.599120
O O3 0.255329 0.843782 0.614550
O O4 0.436588 0.864752 0.679498
O O5 0.772886 0.129974 0.000000
O O6 0.667819 0.055191 0.090991
O O7 0.819488 0.013786 0.000000
O O8 0.118347 0.500000 0.750000
O O9 0.000000 0.500000 0.888850
O O10 0.750000 0.250000 0.213399
O O11 0.889947 0.189246 0.298238
O O12 0.873694 0.195604 0.102363
O O13 0.925498 0.284947 0.198380
O O14 0.383629 0.682842 0.500000
O O15 0.391364 0.586001 0.587297
O O16 0.250000 0.250000 0.500000
O O17 0.500000 0.500000 0.500000
#
# Coordination Sequence:
#
# PCOD9498924 Si02
#       8
#    16   8  16  16  16   8   8   8
#     4  11  22  43  67 102 139 176 237 304 361 423
#     4  12  23  42  68  98 134 187 232 282 367 431
#     4  11  23  38  64 100 134 175 225 287 357 426
#     4  11  24  46  64  98 142 190 247 290 368 439
#     4   9  20  43  74  99 137 179 242 313 365 420
#     4  10  28  43  64  94 147 198 228 288 358 449
#     4  10  22  43  75 110 136 180 242 312 368 436
#     4  12  26  38  73 102 133 194 238 292 360 442
#
# _framework density 21.593149
#
# number of rings (size 3 to 8) (size 9 to 14) (size 15 to 20)
#    0.500    0.833    4.167    1.250    3.500    5.000 
#    0.000    0.000    0.000    1.500    0.000    0.000 
#    0.000    0.000    0.000    0.000    0.000    0.000 
#
# Total GULP energy -267697.593968 kJ/mol
# GULP energy per Si atom -5577.033208 kJ/mol
# Density = 2.154400 g / cm^3
# Si number density = 21.593149 Si / 1000 Ang^3
#
#
#
# Elastic Constant Matrix: (Units=GPa)
#
#
# Indices 1 2 3 4 5 6 
#
# 1 76.1394 14.7248 30.7879 0.0000 0.0000 0.0000
# 2 14.7248 88.5001 43.6204 0.0000 0.0000 0.0000
# 3 30.7879 43.6204 164.4511 0.0000 0.0000 0.0000
# 4 0.0000 0.0000 0.0000 27.2256 0.0000 0.0000
# 5 0.0000 0.0000 0.0000 0.0000 -2.2870 0.0000
# 6 0.0000 0.0000 0.0000 0.0000 0.0000 38.7629
#
#
#
# Elastic Compliance Matrix: (Units=1/GPa)
#
#
# Indices 1 2 3 4 5 6 
#
# 1 0.014323 -0.001221 -0.002358 0.000000 0.000000 0.000000
# 2 -0.001221 0.013103 -0.003247 0.000000 0.000000 0.000000
# 3 -0.002358 -0.003247 0.007383 0.000000 0.000000 0.000000
# 4 0.000000 0.000000 0.000000 0.036730 0.000000 0.000000
# 5 0.000000 0.000000 0.000000 0.000000 -0.437250 0.000000
# 6 0.000000 0.000000 0.000000 0.000000 0.000000 0.025798
#
#
# Mechanical properties :
#
#
# Convention : Reuss Voigt Hill
#
# Bulk Modulus (GPa) = 47.26259 56.37298 51.81779
# Shear Modulus (GPa) = -15.66378 28.73747 6.53684
#
# Velocity S-wave (km/s) = -2.69626 3.65205 1.74179
# Velocity P-wave (km/s) = 3.49889 6.62924 5.30043
#
# Compressibility (1/GPa) = 0.02115838
#
# Stress axis : x y z
#
# Youngs Moduli (GPa) = 69.81631 76.31863 135.43765
#
# Poissons Ratio (x) = 0.09319 0.31932
# Poissons Ratio (y) = 0.08525 0.43976
# Poissons Ratio (z) = 0.16460 0.24780
#
# Static dielectric constant tensor:
#      x y z
#    x 1.801020 0.000000 0.000000 
#    y 0.000000 1.800980 0.000000 
#    z 0.000000 0.000000 1.909070 
# 
# From -- ./inp_files/28477.got.cif
#   From: 2010.05.17/outbox.cif.g08.bks.cpg/sg66_15_cif.got.tgz:28477.got - 2010.06.03 17:51:23.
