data_PCOD9498674
_publ_section_title
;
Structure prediction by ZEFSAII (Michael W. Deem and Ramdas Pophale) SiO2 
 PCOD9498674
Probable space group: C C C M
;
_chemical_formula_sum "Si O2"
_cell_formula_units_Z 64
_cell_length_a 14.835821
_cell_length_b 8.260828
_cell_length_c 23.894707
_cell_angle_alpha 90.000000
_cell_angle_beta 90.000000
_cell_angle_gamma 90.000000
_cell_volume 2928.443666
_symmetry_space_group_name_H-M "C C C M"
_symmetry_group_IT_number 66
_symmetry_cell_setting 'orthorhombic'
loop_
_space_group_symop_operation_xyz
x,y,z
-x,-y,z
x,-y,1/2-z
-x,y,1/2-z
-x,-y,-z
x,y,-z
-x,y,1/2+z
x,-y,1/2+z
1/2+x,1/2+y,z
1/2-x,1/2-y,z
1/2+x,1/2-y,1/2-z
1/2-x,1/2+y,1/2-z
1/2-x,1/2-y,-z
1/2+x,1/2+y,-z
1/2-x,1/2+y,1/2+z
1/2+x,1/2-y,1/2+z
loop_
_atom_site_type_symbol
_atom_site_label
_atom_site_fract_x
_atom_site_fract_y
_atom_site_fract_z
Si Si1 0.274791 0.942083 0.500000
Si Si2 0.022953 0.691313 0.610298
Si Si3 0.829104 0.632479 0.603642
Si Si4 0.170745 0.382004 0.801324
Si Si5 0.917834 0.881818 0.000000
O O1 0.250000 0.750000 0.500000
O O2 0.170693 0.994441 0.500000
O O3 0.329936 0.008514 0.551974
O O4 0.086637 0.701088 0.665222
O O5 0.068404 0.777609 0.557076
O O6 0.000000 0.500000 0.602456
O O7 0.917940 0.739919 0.616584
O O8 0.750000 0.750000 0.588838
O O9 0.798590 0.517650 0.654286
O O10 0.143231 0.500000 0.750000
O O11 0.250000 0.250000 0.789517
O O12 0.000000 0.000000 0.000000
#
# Coordination Sequence:
#
# PCOD9498674 Si02
#       5
#     8  16  16  16   8
#     4  12  22  36  60  92 131 173 212 257 316 375
#     4  10  22  39  63  90 128 171 212 253 314 391
#     4  11  22  39  63  93 127 167 211 259 313 380
#     4  11  24  44  67  91 119 159 211 267 324 385
#     4  12  22  36  60  98 138 171 210 267 322 375
#
# _framework density 21.854611999999999
#
# number of rings (size 3 to 8) (size 9 to 14) (size 15 to 20)
#    0.000    1.000    0.000    9.000    0.000    4.500 
#    0.000    0.000    0.000    1.500    0.000    0.000 
#    0.000    0.000    0.000    0.000    0.000    0.000 
#
# Total GULP energy -178155.132749 kJ/mol
# GULP energy per Si atom -5567.347898 kJ/mol
# Density = 2.180487 g / cm^3
# Si number density = 21.854612 Si / 1000 Ang^3
#
#
#
# Elastic Constant Matrix: (Units=GPa)
#
#
# Indices 1 2 3 4 5 6 
#
# 1 170.8565 30.4073 29.3103 0.0000 0.0000 0.0000
# 2 30.4073 37.1018 39.7473 0.0000 0.0000 0.0000
# 3 29.3103 39.7473 139.6492 0.0000 0.0000 0.0000
# 4 0.0000 0.0000 0.0000 45.7034 0.0000 0.0000
# 5 0.0000 0.0000 0.0000 0.0000 25.2841 0.0000
# 6 0.0000 0.0000 0.0000 0.0000 0.0000 43.7217
#
#
#
# Elastic Compliance Matrix: (Units=1/GPa)
#
#
# Indices 1 2 3 4 5 6 
#
# 1 0.006857 -0.005867 0.000231 0.000000 0.000000 0.000000
# 2 -0.005867 0.043796 -0.011234 0.000000 0.000000 0.000000
# 3 0.000231 -0.011234 0.010310 0.000000 0.000000 0.000000
# 4 0.000000 0.000000 0.000000 0.021880 0.000000 0.000000
# 5 0.000000 0.000000 0.000000 0.000000 0.039551 0.000000
# 6 0.000000 0.000000 0.000000 0.000000 0.000000 0.022872
#
#
# Mechanical properties :
#
#
# Convention : Reuss Voigt Hill
#
# Bulk Modulus (GPa) = 36.73418 60.72637 48.73028
# Shear Modulus (GPa) = 26.58416 39.48467 33.03442
#
# Velocity S-wave (km/s) = 3.49149 4.25514 3.89209
# Velocity P-wave (km/s) = 5.75317 7.21030 6.52255
#
# Compressibility (1/GPa) = 0.02722260
#
# Stress axis : x y z
#
# Youngs Moduli (GPa) = 145.82589 22.83289 96.99481
#
# Poissons Ratio (x) = 0.13397 -0.02237
# Poissons Ratio (y) = 0.85560 1.08964
# Poissons Ratio (z) = -0.03364 0.25650
#
# Static dielectric constant tensor:
#      x y z
#    x 2.438640 0.000000 0.000000 
#    y 0.000000 1.904080 0.000000 
#    z 0.000000 0.000000 1.706020 
# 
# From -- ./inp_files/57709.got.cif
#   From: 2010.05.17/outbox.cif.g08.bks.cpg/sg66_29_cif.got.tgz:57709.got - 2010.06.03 17:51:23.
