data_PCOD9498320
_publ_section_title
;
Structure prediction by ZEFSAII (Michael W. Deem and Ramdas Pophale) SiO2 
 PCOD9498320
Probable space group: C C C M
;
_chemical_formula_sum "Si O2"
_cell_formula_units_Z 96
_cell_length_a 12.031602
_cell_length_b 17.717710
_cell_length_c 20.244910
_cell_angle_alpha 90.000000
_cell_angle_beta 90.000000
_cell_angle_gamma 90.000000
_cell_volume 4315.656763
_symmetry_space_group_name_H-M "C C C M"
_symmetry_group_IT_number 66
_symmetry_cell_setting 'orthorhombic'
loop_
_space_group_symop_operation_xyz
x,y,z
-x,-y,z
x,-y,1/2-z
-x,y,1/2-z
-x,-y,-z
x,y,-z
-x,y,1/2+z
x,-y,1/2+z
1/2+x,1/2+y,z
1/2-x,1/2-y,z
1/2+x,1/2-y,1/2-z
1/2-x,1/2+y,1/2-z
1/2-x,1/2-y,-z
1/2+x,1/2+y,-z
1/2-x,1/2+y,1/2+z
1/2+x,1/2-y,1/2+z
loop_
_atom_site_type_symbol
_atom_site_label
_atom_site_fract_x
_atom_site_fract_y
_atom_site_fract_z
Si Si1 0.131570 0.982996 0.369155
Si Si2 0.500000 0.259176 0.250000
Si Si3 0.204780 0.170982 0.810157
Si Si4 0.519814 0.913510 0.500000
Si Si5 0.714952 0.438360 0.000000
Si Si6 0.875228 0.776547 0.500000
Si Si7 0.958173 0.672278 0.382378
Si Si8 0.816158 0.568651 0.289663
O O1 0.156848 0.894255 0.357156
O O2 0.185497 0.011469 0.436986
O O3 0.201268 0.031474 0.315401
O O4 0.000000 0.000000 0.366174
O O5 0.390179 0.308816 0.243172
O O6 0.500135 0.211865 0.317039
O O7 0.250000 0.250000 0.839342
O O8 0.298466 0.131816 0.765768
O O9 0.656590 0.907551 0.500000
O O10 0.470479 0.876960 0.433674
O O11 0.500000 0.000000 0.500000
O O12 0.631437 0.366518 0.000000
O O13 0.750000 0.750000 0.500000
O O14 0.922256 0.739330 0.432787
O O15 0.872489 0.610606 0.351599
O O16 0.874632 0.500000 0.250000
#
# Coordination Sequence:
#
# PCOD9498320 Si02
#       8
#    16   8  16   8   8   8  16  16
#     4  11  24  42  67  98 133 177 235 287 361 429
#     4  12  26  38  70  98 140 178 232 280 358 422
#     4  11  24  41  64  98 138 181 221 292 358 429
#     4  11  25  43  68  94 135 182 236 280 344 415
#     4  12  24  43  70  95 132 182 232 294 346 421
#     4  11  22  39  75  98 131 173 233 290 348 390
#     4  11  24  43  66 104 131 182 227 294 339 412
#     4  10  21  39  67  91 136 173 219 277 353 414
#
# _framework density 22.244586000000002
#
# number of rings (size 3 to 8) (size 9 to 14) (size 15 to 20)
#    0.000    1.000    5.000    1.250    7.000    5.000 
#    0.000    0.417    0.000    0.000    0.000    0.000 
#    0.000    0.000    0.000    0.000    0.000    0.000 
#
# Total GULP energy -267776.089552 kJ/mol
# GULP energy per Si atom -5578.668532 kJ/mol
# Density = 2.219396 g / cm^3
# Si number density = 22.244586 Si / 1000 Ang^3
#
#
#
# Elastic Constant Matrix: (Units=GPa)
#
#
# Indices 1 2 3 4 5 6 
#
# 1 52.8564 20.0572 13.3286 0.0000 0.0000 0.0000
# 2 20.0572 172.6996 66.2243 0.0000 0.0000 0.0000
# 3 13.3286 66.2243 171.0278 0.0000 0.0000 0.0000
# 4 0.0000 0.0000 0.0000 -7.9642 0.0000 0.0000
# 5 0.0000 0.0000 0.0000 0.0000 1.1555 0.0000
# 6 0.0000 0.0000 0.0000 0.0000 0.0000 1.8485
#
#
#
# Elastic Compliance Matrix: (Units=1/GPa)
#
#
# Indices 1 2 3 4 5 6 
#
# 1 0.019877 -0.002013 -0.000769 0.000000 0.000000 0.000000
# 2 -0.002013 0.007004 -0.002555 0.000000 0.000000 0.000000
# 3 -0.000769 -0.002555 0.006896 0.000000 0.000000 0.000000
# 4 0.000000 0.000000 0.000000 -0.125562 0.000000 0.000000
# 5 0.000000 0.000000 0.000000 0.000000 0.865434 0.000000
# 6 0.000000 0.000000 0.000000 0.000000 0.000000 0.540971
#
#
# Mechanical properties :
#
#
# Convention : Reuss Voigt Hill
#
# Bulk Modulus (GPa) = 43.28718 66.20046 54.74382
# Shear Modulus (GPa) = 3.75095 18.80621 11.27858
#
# Velocity S-wave (km/s) = 1.29996 2.91078 2.25417
# Velocity P-wave (km/s) = 4.66423 6.41262 5.60700
#
# Compressibility (1/GPa) = 0.02310153
#
# Stress axis : x y z
#
# Youngs Moduli (GPa) = 50.30878 142.77441 145.00411
#
# Poissons Ratio (x) = 0.28747 0.11157
# Poissons Ratio (y) = 0.10130 0.37051
# Poissons Ratio (z) = 0.03871 0.36481
#
# Static dielectric constant tensor:
#      x y z
#    x 1.889950 0.000000 0.000000 
#    y 0.000000 1.915760 0.000000 
#    z 0.000000 0.000000 1.839850 
# 
# From -- ./inp_files/49938.got.cif
#   From: 2010.05.17/outbox.cif.g08.bks.cpg/sg66_25_cif.got.tgz:49938.got - 2010.06.03 17:51:23.
