data_PCOD9498372
_publ_section_title
;
Structure prediction by ZEFSAII (Michael W. Deem and Ramdas Pophale) SiO2 
 PCOD9498372
Probable space group: C C C M
;
_chemical_formula_sum "Si O2"
_cell_formula_units_Z 96
_cell_length_a 15.882702
_cell_length_b 19.995942
_cell_length_c 15.038900
_cell_angle_alpha 90.000000
_cell_angle_beta 90.000000
_cell_angle_gamma 90.000000
_cell_volume 4776.198055
_symmetry_space_group_name_H-M "C C C M"
_symmetry_group_IT_number 66
_symmetry_cell_setting 'orthorhombic'
loop_
_space_group_symop_operation_xyz
x,y,z
-x,-y,z
x,-y,1/2-z
-x,y,1/2-z
-x,-y,-z
x,y,-z
-x,y,1/2+z
x,-y,1/2+z
1/2+x,1/2+y,z
1/2-x,1/2-y,z
1/2+x,1/2-y,1/2-z
1/2-x,1/2+y,1/2-z
1/2-x,1/2-y,-z
1/2+x,1/2+y,-z
1/2-x,1/2+y,1/2+z
1/2+x,1/2-y,1/2+z
loop_
_atom_site_type_symbol
_atom_site_label
_atom_site_fract_x
_atom_site_fract_y
_atom_site_fract_z
Si Si1 0.943019 0.401803 0.000000
Si Si2 0.070005 0.911222 0.098607
Si Si3 0.373436 0.051948 0.000000
Si Si4 0.602549 0.452156 0.665510
Si Si5 0.914387 0.341674 0.805152
Si Si6 0.712284 0.069598 0.307409
Si Si7 0.343707 0.278801 0.393990
O O1 0.914868 0.371492 0.905505
O O2 0.908341 0.476780 0.000000
O O3 0.044285 0.401220 0.000000
O O4 0.139905 0.857059 0.125463
O O5 0.981814 0.910780 0.150729
O O6 0.105259 0.986826 0.095315
O O7 0.043883 0.892195 0.000000
O O8 0.325262 0.061524 0.093264
O O9 0.593358 0.500000 0.750000
O O10 0.689456 0.414210 0.676914
O O11 0.840118 0.375978 0.748224
O O12 0.900593 0.263852 0.826887
O O13 0.000000 0.354410 0.750000
O O14 0.707508 0.000000 0.250000
O O15 0.362458 0.268128 0.500000
O O16 0.250000 0.250000 0.381782
#
# Coordination Sequence:
#
# PCOD9498372 Si02
#       7
#     8  16   8  16  16  16  16
#     4  11  22  38  63  85 127 174 214 276 332 380
#     4  10  21  40  65  95 127 169 213 263 336 393
#     4  11  22  36  62  90 129 171 214 281 325 395
#     4  10  22  38  62  96 136 165 210 273 327 400
#     4  12  24  43  63  91 129 170 220 266 328 397
#     4  11  24  37  61  98 128 173 218 265 331 396
#     4  10  24  43  67  93 125 170 222 272 326 397
#
# _framework density 20.099668999999999
#
# number of rings (size 3 to 8) (size 9 to 14) (size 15 to 20)
#    0.000    1.333    4.167    2.000    7.000    1.667 
#    0.000    0.000    0.000    0.000    0.000    4.667 
#    0.000    0.000    0.000    0.000    0.000    0.000 
#
# Total GULP energy -267507.643916 kJ/mol
# GULP energy per Si atom -5573.075915 kJ/mol
# Density = 2.005392 g / cm^3
# Si number density = 20.099669 Si / 1000 Ang^3
#
#
#
# Elastic Constant Matrix: (Units=GPa)
#
#
# Indices 1 2 3 4 5 6 
#
# 1 132.0180 26.7138 48.1380 0.0000 0.0000 0.0000
# 2 26.7138 56.2755 15.4031 0.0000 0.0000 0.0000
# 3 48.1380 15.4031 141.2182 0.0000 0.0000 0.0000
# 4 0.0000 0.0000 0.0000 8.4056 0.0000 0.0000
# 5 0.0000 0.0000 0.0000 0.0000 29.7065 0.0000
# 6 0.0000 0.0000 0.0000 0.0000 0.0000 29.9228
#
#
#
# Elastic Compliance Matrix: (Units=1/GPa)
#
#
# Indices 1 2 3 4 5 6 
#
# 1 0.009331 -0.003668 -0.002781 0.000000 0.000000 0.000000
# 2 -0.003668 0.019759 -0.000905 0.000000 0.000000 0.000000
# 3 -0.002781 -0.000905 0.008128 0.000000 0.000000 0.000000
# 4 0.000000 0.000000 0.000000 0.118968 0.000000 0.000000
# 5 0.000000 0.000000 0.000000 0.000000 0.033663 0.000000
# 6 0.000000 0.000000 0.000000 0.000000 0.000000 0.033419
#
#
# Mechanical properties :
#
#
# Convention : Reuss Voigt Hill
#
# Bulk Modulus (GPa) = 44.42431 56.66904 50.54668
# Shear Modulus (GPa) = 20.36841 29.55745 24.96293
#
# Velocity S-wave (km/s) = 3.18680 3.83893 3.52796
# Velocity P-wave (km/s) = 5.97419 6.92135 6.46514
#
# Compressibility (1/GPa) = 0.02251020
#
# Stress axis : x y z
#
# Youngs Moduli (GPa) = 107.17103 50.61074 123.03525
#
# Poissons Ratio (x) = 0.18565 0.34211
# Poissons Ratio (y) = 0.39313 0.11131
# Poissons Ratio (z) = 0.29800 0.04579
#
# Static dielectric constant tensor:
#      x y z
#    x 1.734450 0.000000 0.000000 
#    y 0.000000 1.784930 0.000000 
#    z 0.000000 0.000000 2.357040 
# 
# From -- ./inp_files/28447.got.cif
#   From: 2010.05.17/outbox.cif.g08.bks.cpg/sg66_15_cif.got.tgz:28447.got - 2010.06.03 17:51:23.
