data_PCOD9498530
_publ_section_title
;
Structure prediction by ZEFSAII (Michael W. Deem and Ramdas Pophale) SiO2 
 PCOD9498530
Probable space group: C C C M
;
_chemical_formula_sum "Si O2"
_cell_formula_units_Z 88
_cell_length_a 33.106480
_cell_length_b 16.620133
_cell_length_c 9.609614
_cell_angle_alpha 90.000000
_cell_angle_beta 90.000000
_cell_angle_gamma 90.000000
_cell_volume 5287.537318
_symmetry_space_group_name_H-M "C C C M"
_symmetry_group_IT_number 66
_symmetry_cell_setting 'orthorhombic'
loop_
_space_group_symop_operation_xyz
x,y,z
-x,-y,z
x,-y,1/2-z
-x,y,1/2-z
-x,-y,-z
x,y,-z
-x,y,1/2+z
x,-y,1/2+z
1/2+x,1/2+y,z
1/2-x,1/2-y,z
1/2+x,1/2-y,1/2-z
1/2-x,1/2+y,1/2-z
1/2-x,1/2-y,-z
1/2+x,1/2+y,-z
1/2-x,1/2+y,1/2+z
1/2+x,1/2-y,1/2+z
loop_
_atom_site_type_symbol
_atom_site_label
_atom_site_fract_x
_atom_site_fract_y
_atom_site_fract_z
Si Si1 0.701077 0.075206 0.835574
Si Si2 0.557638 0.581921 0.000000
Si Si3 0.779345 0.873089 0.839726
Si Si4 0.330242 0.251146 0.337179
Si Si5 0.534677 0.392182 0.000000
Si Si6 0.156479 0.000000 0.750000
Si Si7 0.401491 0.635693 0.218581
O O1 0.742783 0.096399 0.756129
O O2 0.674453 0.155727 0.826269
O O3 0.683708 0.000000 0.750000
O O4 0.707846 0.057129 0.000000
O O5 0.546072 0.487414 0.000000
O O6 0.512928 0.620695 0.000000
O O7 0.583870 0.608507 0.130871
O O8 0.798398 0.795574 0.763408
O O9 0.814180 0.941598 0.836347
O O10 0.767668 0.858243 0.000000
O O11 0.322554 0.272834 0.500000
O O12 0.373651 0.286226 0.293859
O O13 0.558007 0.356852 0.131074
O O14 0.127539 0.937816 0.831244
#
# Coordination Sequence:
#
# PCOD9498530 Si02
#       7
#    16   8  16  16   8   8  16
#     4  11  23  41  57  77 105 139 183 234 290 338
#     4  11  22  34  52  86 112 148 184 224 259 314
#     4  11  23  35  55  79 106 144 190 234 276 323
#     4  10  23  38  56  77 108 145 182 231 280 328
#     4  11  20  36  56  76 116 152 182 214 269 320
#     4  10  22  30  49  74 112 150 190 228 261 302
#     4  11  21  35  53  77 111 148 186 222 262 321
#
# _framework density 16.642909
#
# number of rings (size 3 to 8) (size 9 to 14) (size 15 to 20)
#    0.000    1.273    3.636    2.182    6.364    5.818 
#    0.000    0.000    0.000    0.000    0.000    0.000 
#    0.000    4.364    0.000    0.000    0.000    0.000 
#
# Total GULP energy -245532.658501 kJ/mol
# GULP energy per Si atom -5580.287693 kJ/mol
# Density = 1.660503 g / cm^3
# Si number density = 16.642909 Si / 1000 Ang^3
#
#
#
# Elastic Constant Matrix: (Units=GPa)
#
#
# Indices 1 2 3 4 5 6 
#
# 1 77.5812 37.5764 31.5513 0.0000 0.0000 0.0000
# 2 37.5764 92.6269 48.7162 0.0000 0.0000 0.0000
# 3 31.5513 48.7162 134.5215 0.0000 0.0000 0.0000
# 4 0.0000 0.0000 0.0000 20.1848 0.0000 0.0000
# 5 0.0000 0.0000 0.0000 0.0000 -3.6210 0.0000
# 6 0.0000 0.0000 0.0000 0.0000 0.0000 17.0536
#
#
#
# Elastic Compliance Matrix: (Units=1/GPa)
#
#
# Indices 1 2 3 4 5 6 
#
# 1 0.016377 -0.005711 -0.001773 0.000000 0.000000 0.000000
# 2 -0.005711 0.015328 -0.004211 0.000000 0.000000 0.000000
# 3 -0.001773 -0.004211 0.009375 0.000000 0.000000 0.000000
# 4 0.000000 0.000000 0.000000 0.049542 0.000000 0.000000
# 5 0.000000 0.000000 0.000000 0.000000 -0.276165 0.000000
# 6 0.000000 0.000000 0.000000 0.000000 0.000000 0.058639
#
#
# Mechanical properties :
#
#
# Convention : Reuss Voigt Hill
#
# Bulk Modulus (GPa) = 56.53374 60.04638 58.29006
# Shear Modulus (GPa) = -51.22063 19.18251 -16.01906
#
# Velocity S-wave (km/s) = -5.55365 3.39867 -3.10581
# Velocity P-wave (km/s) = 2.66114 7.18045 4.71578
#
# Compressibility (1/GPa) = 0.01768855
#
# Stress axis : x y z
#
# Youngs Moduli (GPa) = 61.06131 65.24066 106.67039
#
# Poissons Ratio (x) = 0.37261 0.18911
# Poissons Ratio (y) = 0.34874 0.44923
# Poissons Ratio (z) = 0.10825 0.27475
#
# Static dielectric constant tensor:
#      x y z
#    x 1.560740 0.000000 0.000000 
#    y 0.000000 1.576610 0.000000 
#    z 0.000000 0.000000 1.565930 
# 
# From -- ./inp_files/11448.got.cif
#   From: 2010.05.17/outbox.cif.g08.bks.cpg/sg66_6_cif.got.tgz:11448.got - 2010.06.03 17:51:23.
