data_PCOD9498873
_publ_section_title
;
Structure prediction by ZEFSAII (Michael W. Deem and Ramdas Pophale) SiO2 
 PCOD9498873
Probable space group: C C C M
;
_chemical_formula_sum "Si O2"
_cell_formula_units_Z 68
_cell_length_a 16.467990
_cell_length_b 21.353783
_cell_length_c 9.553851
_cell_angle_alpha 90.000000
_cell_angle_beta 90.000000
_cell_angle_gamma 90.000000
_cell_volume 3359.648820
_symmetry_space_group_name_H-M "C C C M"
_symmetry_group_IT_number 66
_symmetry_cell_setting 'orthorhombic'
loop_
_space_group_symop_operation_xyz
x,y,z
-x,-y,z
x,-y,1/2-z
-x,y,1/2-z
-x,-y,-z
x,y,-z
-x,y,1/2+z
x,-y,1/2+z
1/2+x,1/2+y,z
1/2-x,1/2-y,z
1/2+x,1/2-y,1/2-z
1/2-x,1/2+y,1/2-z
1/2-x,1/2-y,-z
1/2+x,1/2+y,-z
1/2-x,1/2+y,1/2+z
1/2+x,1/2-y,1/2+z
loop_
_atom_site_type_symbol
_atom_site_label
_atom_site_fract_x
_atom_site_fract_y
_atom_site_fract_z
Si Si1 0.332840 0.282773 0.338119
Si Si2 0.684187 0.060549 0.336991
Si Si3 0.500000 0.500000 0.750000
Si Si4 0.131435 0.098479 0.846221
Si Si5 0.918954 0.345637 0.163806
O O1 0.315042 0.299052 0.500000
O O2 0.250000 0.250000 0.281078
O O3 0.363964 0.344711 0.262363
O O4 0.399384 0.228067 0.333418
O O5 0.657433 0.060661 0.500000
O O6 0.781766 0.064019 0.337934
O O7 0.651453 0.118932 0.248436
O O8 0.656913 0.000000 0.250000
O O9 0.560573 0.547713 0.828310
O O10 0.124102 0.127416 0.000000
O O11 0.000000 0.359554 0.250000
O O12 0.922515 0.364662 0.000000
#
# Coordination Sequence:
#
# PCOD9498873 Si02
#       5
#    16  16   4  16  16
#     4  10  22  42  68  96 130 174 221 274 338 399
#     4  11  23  42  67  96 128 172 220 271 330 397
#     4  12  26  48  64 102 144 188 226 274 350 408
#     4  11  25  42  66  97 133 177 226 276 328 399
#     4  11  24  43  66  97 134 173 218 277 335 397
#
# _framework density 20.240210000000001
#
# number of rings (size 3 to 8) (size 9 to 14) (size 15 to 20)
#    0.000    1.176    3.529    1.765    1.647    5.647 
#    0.000    2.353    0.000    0.000    0.000    0.000 
#    0.000    0.000    0.000    0.000    0.000    0.000 
#
# Total GULP energy -189792.926655 kJ/mol
# GULP energy per Si atom -5582.144902 kJ/mol
# Density = 2.019414 g / cm^3
# Si number density = 20.240210 Si / 1000 Ang^3
#
#
#
# Elastic Constant Matrix: (Units=GPa)
#
#
# Indices 1 2 3 4 5 6 
#
# 1 88.2283 4.8040 34.8667 0.0000 0.0000 0.0000
# 2 4.8040 105.4336 64.2010 0.0000 0.0000 0.0000
# 3 34.8667 64.2010 159.4157 0.0000 0.0000 0.0000
# 4 0.0000 0.0000 0.0000 25.2466 0.0000 0.0000
# 5 0.0000 0.0000 0.0000 0.0000 -46.5165 0.0000
# 6 0.0000 0.0000 0.0000 0.0000 0.0000 33.8242
#
#
#
# Elastic Compliance Matrix: (Units=1/GPa)
#
#
# Indices 1 2 3 4 5 6 
#
# 1 0.012574 0.001460 -0.003338 0.000000 0.000000 0.000000
# 2 0.001460 0.012736 -0.005448 0.000000 0.000000 0.000000
# 3 -0.003338 -0.005448 0.009197 0.000000 0.000000 0.000000
# 4 0.000000 0.000000 0.000000 0.039609 0.000000 0.000000
# 5 0.000000 0.000000 0.000000 0.000000 -0.021498 0.000000
# 6 0.000000 0.000000 0.000000 0.000000 0.000000 0.029565
#
#
# Mechanical properties :
#
#
# Convention : Reuss Voigt Hill
#
# Bulk Modulus (GPa) = 50.36878 62.31345 56.34111
# Shear Modulus (GPa) = 48.33073 19.12458 33.72765
#
# Velocity S-wave (km/s) = 4.89187 3.07723 4.08655
# Velocity P-wave (km/s) = 7.53968 6.59390 7.08259
#
# Compressibility (1/GPa) = 0.01985357
#
# Stress axis : x y z
#
# Youngs Moduli (GPa) = 79.53001 78.51945 108.72962
#
# Poissons Ratio (x) = -0.11461 0.36293
# Poissons Ratio (y) = -0.11608 0.59239
# Poissons Ratio (z) = 0.26547 0.42779
#
# Static dielectric constant tensor:
#      x y z
#    x 1.747620 0.000000 0.000000 
#    y 0.000000 1.697920 0.000000 
#    z 0.000000 0.000000 1.707220 
# 
# From -- ./inp_files/6274.got.cif
#   From: 2010.05.17/outbox.cif.g08.bks.cpg/sg66_4_cif.got.tgz:6274.got - 2010.06.03 17:51:23.
