data_PCOD9498534
_publ_section_title
;
Structure prediction by ZEFSAII (Michael W. Deem and Ramdas Pophale) SiO2 
 PCOD9498534
Probable space group: C C C M
;
_chemical_formula_sum "Si O2"
_cell_formula_units_Z 120
_cell_length_a 9.511644
_cell_length_b 27.935675
_cell_length_c 27.586287
_cell_angle_alpha 90.000000
_cell_angle_beta 90.000000
_cell_angle_gamma 90.000000
_cell_volume 7330.068057
_symmetry_space_group_name_H-M "C C C M"
_symmetry_group_IT_number 66
_symmetry_cell_setting 'orthorhombic'
loop_
_space_group_symop_operation_xyz
x,y,z
-x,-y,z
x,-y,1/2-z
-x,y,1/2-z
-x,-y,-z
x,y,-z
-x,y,1/2+z
x,-y,1/2+z
1/2+x,1/2+y,z
1/2-x,1/2-y,z
1/2+x,1/2-y,1/2-z
1/2-x,1/2+y,1/2-z
1/2-x,1/2-y,-z
1/2+x,1/2+y,-z
1/2-x,1/2+y,1/2+z
1/2+x,1/2-y,1/2+z
loop_
_atom_site_type_symbol
_atom_site_label
_atom_site_fract_x
_atom_site_fract_y
_atom_site_fract_z
Si Si1 0.500000 0.378494 0.250000
Si Si2 0.878886 0.183625 0.055645
Si Si3 0.002049 0.445482 0.169000
Si Si4 0.733694 0.946183 0.745373
Si Si5 0.119929 0.349029 0.864484
Si Si6 0.553785 0.796528 0.554958
Si Si7 0.552228 0.670184 0.147493
Si Si8 0.909794 0.263951 0.702288
O O1 0.358675 0.409491 0.248916
O O2 0.499249 0.350314 0.199105
O O3 0.711357 0.183794 0.064449
O O4 0.929472 0.239078 0.056779
O O5 0.957891 0.159202 0.100602
O O6 0.904532 0.166475 0.000000
O O7 0.118547 0.443826 0.211858
O O8 0.049333 0.401291 0.135933
O O9 0.000000 0.500000 0.148929
O O10 0.852584 0.438283 0.195685
O O11 0.791138 0.000000 0.750000
O O12 0.289335 0.347856 0.863193
O O13 0.078152 0.318077 0.816807
O O14 0.058019 0.318828 0.908860
O O15 0.515239 0.809131 0.500000
O O16 0.552367 0.727149 0.159153
O O17 0.750000 0.250000 0.714385
O O18 0.000000 0.256873 0.750000
#
# Coordination Sequence:
#
# PCOD9498534 Si02
#       8
#     8  16  16  16  16  16  16  16
#     4  12  21  32  50  80 116 140 179 208 262 322
#     4   9  19  37  54  75 105 139 180 223 262 301
#     4   9  19  35  52  73 100 136 178 224 264 307
#     4   9  19  35  52  71 101 140 182 222 260 303
#     4  11  21  34  52  74 104 137 181 213 263 322
#     4   9  19  35  57  78  98 132 182 228 261 308
#     4  11  22  34  47  77 114 146 170 215 258 316
#     4  10  22  33  43  67 106 145 175 202 241 313
#
# _framework density 16.370926000000001
#
# number of rings (size 3 to 8) (size 9 to 14) (size 15 to 20)
#    0.000    2.133    3.333    1.800    3.733    1.600 
#    0.000    1.333    0.000    0.400    0.000    0.000 
#    0.000    4.267    0.000    0.000    0.000    0.000 
#
# Total GULP energy -334239.138246 kJ/mol
# GULP energy per Si atom -5570.652304 kJ/mol
# Density = 1.633367 g / cm^3
# Si number density = 16.370926 Si / 1000 Ang^3
#
#
#
# Elastic Constant Matrix: (Units=GPa)
#
#
# Indices 1 2 3 4 5 6 
#
# 1 48.1617 20.9074 46.6662 0.0000 0.0000 0.0000
# 2 20.9074 65.0944 17.0064 0.0000 0.0000 0.0000
# 3 46.6662 17.0064 97.0331 0.0000 0.0000 0.0000
# 4 0.0000 0.0000 0.0000 -9.0889 0.0000 0.0000
# 5 0.0000 0.0000 0.0000 0.0000 16.7382 0.0000
# 6 0.0000 0.0000 0.0000 0.0000 0.0000 17.8515
#
#
#
# Elastic Compliance Matrix: (Units=1/GPa)
#
#
# Indices 1 2 3 4 5 6 
#
# 1 0.043271 -0.008867 -0.019256 0.000000 0.000000 0.000000
# 2 -0.008867 0.017917 0.001124 0.000000 0.000000 0.000000
# 3 -0.019256 0.001124 0.019370 0.000000 0.000000 0.000000
# 4 0.000000 0.000000 0.000000 -0.110025 0.000000 0.000000
# 5 0.000000 0.000000 0.000000 0.000000 0.059744 0.000000
# 6 0.000000 0.000000 0.000000 0.000000 0.000000 0.056018
#
#
# Mechanical properties :
#
#
# Convention : Reuss Voigt Hill
#
# Bulk Modulus (GPa) = 37.65196 42.16104 39.90650
# Shear Modulus (GPa) = 33.52436 13.48078 23.50257
#
# Velocity S-wave (km/s) = 4.53017 2.87271 3.79308
# Velocity P-wave (km/s) = 7.10017 6.06735 6.60399
#
# Compressibility (1/GPa) = 0.02655904
#
# Stress axis : x y z
#
# Youngs Moduli (GPa) = 23.11009 55.81419 51.62708
#
# Poissons Ratio (x) = 0.49492 0.99415
# Poissons Ratio (y) = 0.20492 -0.05805
# Poissons Ratio (z) = 0.44502 -0.06276
#
# Static dielectric constant tensor:
#      x y z
#    x 1.549230 0.000000 0.000000 
#    y 0.000000 1.578360 0.000000 
#    z 0.000000 0.000000 1.561680 
# 
# From -- ./inp_files/62987.got.cif
#   From: 2010.05.17/outbox.cif.g08.bks.cpg/sg66_32_cif.got.tgz:62987.got - 2010.06.03 17:51:23.
