data_PCOD9498457
_publ_section_title
;
Structure prediction by ZEFSAII (Michael W. Deem and Ramdas Pophale) SiO2 
 PCOD9498457
Probable space group: C C C M
;
_chemical_formula_sum "Si O2"
_cell_formula_units_Z 52
_cell_length_a 20.574774
_cell_length_b 7.043928
_cell_length_c 13.732125
_cell_angle_alpha 90.000000
_cell_angle_beta 90.000000
_cell_angle_gamma 90.000000
_cell_volume 1990.158793
_symmetry_space_group_name_H-M "C C C M"
_symmetry_group_IT_number 66
_symmetry_cell_setting 'orthorhombic'
loop_
_space_group_symop_operation_xyz
x,y,z
-x,-y,z
x,-y,1/2-z
-x,y,1/2-z
-x,-y,-z
x,y,-z
-x,y,1/2+z
x,-y,1/2+z
1/2+x,1/2+y,z
1/2-x,1/2-y,z
1/2+x,1/2-y,1/2-z
1/2-x,1/2+y,1/2-z
1/2-x,1/2-y,-z
1/2+x,1/2+y,-z
1/2-x,1/2+y,1/2+z
1/2+x,1/2-y,1/2+z
loop_
_atom_site_type_symbol
_atom_site_label
_atom_site_fract_x
_atom_site_fract_y
_atom_site_fract_z
Si Si1 0.953561 0.173551 0.110132
Si Si2 0.000000 0.500000 0.250000
Si Si3 0.826501 0.696825 0.106663
Si Si4 0.327633 0.765676 0.171074
O O1 0.963006 0.354412 0.179416
O O2 0.876704 0.127547 0.115436
O O3 0.971014 0.224160 0.000000
O O4 0.000000 0.000000 0.138722
O O5 0.750000 0.750000 0.101834
O O6 0.836208 0.471485 0.122025
O O7 0.846167 0.762133 0.215173
O O8 0.855258 0.745745 0.000000
O O9 0.250000 0.750000 0.165859
#
# Coordination Sequence:
#
# PCOD9498457 Si02
#       4
#    16   4  16  16
#     4  11  26  49  76 110 152 206 267 327 400 484
#     4  12  24  52  80 100 148 208 266 324 388 484
#     4   9  18  35  60 102 145 187 241 309 390 462
#     4  10  21  41  68 102 145 191 242 318 392 462
#
# _framework density 26.12857
#
# number of rings (size 3 to 8) (size 9 to 14) (size 15 to 20)
#    0.000    1.846    0.000    3.692    0.000    2.462 
#   27.692    1.538    0.000    2.769    0.000    0.000 
#    0.000    0.000    0.000    0.000    0.000    0.000 
#
# Total GULP energy -145255.944783 kJ/mol
# GULP energy per Si atom -5586.767107 kJ/mol
# Density = 2.606910 g / cm^3
# Si number density = 26.128570 Si / 1000 Ang^3
#
#
#
# Elastic Constant Matrix: (Units=GPa)
#
#
# Indices 1 2 3 4 5 6 
#
# 1 149.8033 66.0553 54.6767 0.0000 0.0000 0.0000
# 2 66.0553 124.4056 64.9875 0.0000 0.0000 0.0000
# 3 54.6767 64.9875 220.4282 0.0000 0.0000 0.0000
# 4 0.0000 0.0000 0.0000 23.2441 0.0000 0.0000
# 5 0.0000 0.0000 0.0000 0.0000 31.6194 0.0000
# 6 0.0000 0.0000 0.0000 0.0000 0.0000 40.0436
#
#
#
# Elastic Compliance Matrix: (Units=1/GPa)
#
#
# Indices 1 2 3 4 5 6 
#
# 1 0.008885 -0.004216 -0.000961 0.000000 0.000000 0.000000
# 2 -0.004216 0.011502 -0.002345 0.000000 0.000000 0.000000
# 3 -0.000961 -0.002345 0.005466 0.000000 0.000000 0.000000
# 4 0.000000 0.000000 0.000000 0.043022 0.000000 0.000000
# 5 0.000000 0.000000 0.000000 0.000000 0.031626 0.000000
# 6 0.000000 0.000000 0.000000 0.000000 0.000000 0.024973
#
#
# Mechanical properties :
#
#
# Convention : Reuss Voigt Hill
#
# Bulk Modulus (GPa) = 92.51315 96.23069 94.37192
# Shear Modulus (GPa) = 34.69307 39.57593 37.13450
#
# Velocity S-wave (km/s) = 3.64783 3.89609 3.77400
# Velocity P-wave (km/s) = 7.29561 7.55969 7.42883
#
# Compressibility (1/GPa) = 0.01080927
#
# Stress axis : x y z
#
# Youngs Moduli (GPa) = 112.54835 86.94325 182.93365
#
# Poissons Ratio (x) = 0.36652 0.17581
# Poissons Ratio (y) = 0.47446 0.42904
# Poissons Ratio (z) = 0.10816 0.20391
#
# Static dielectric constant tensor:
#      x y z
#    x 2.180250 0.000000 0.000000 
#    y 0.000000 2.045820 0.000000 
#    z 0.000000 0.000000 2.027510 
# 
# From -- ./inp_files/31765.got.cif
#   From: 2010.05.17/outbox.cif.g08.bks.cpg/sg66_16_cif.got.tgz:31765.got - 2010.06.03 17:51:23.
