data_PCOD9498878
_publ_section_title
;
Structure prediction by ZEFSAII (Michael W. Deem and Ramdas Pophale) SiO2 
 PCOD9498878
Probable space group: C C C M
;
_chemical_formula_sum "Si O2"
_cell_formula_units_Z 40
_cell_length_a 8.202817
_cell_length_b 9.900811
_cell_length_c 19.562182
_cell_angle_alpha 90.000000
_cell_angle_beta 90.000000
_cell_angle_gamma 90.000000
_cell_volume 1588.733628
_symmetry_space_group_name_H-M "C C C M"
_symmetry_group_IT_number 66
_symmetry_cell_setting 'orthorhombic'
loop_
_space_group_symop_operation_xyz
x,y,z
-x,-y,z
x,-y,1/2-z
-x,y,1/2-z
-x,-y,-z
x,y,-z
-x,y,1/2+z
x,-y,1/2+z
1/2+x,1/2+y,z
1/2-x,1/2-y,z
1/2+x,1/2-y,1/2-z
1/2-x,1/2+y,1/2-z
1/2-x,1/2-y,-z
1/2+x,1/2+y,-z
1/2-x,1/2+y,1/2+z
1/2+x,1/2-y,1/2+z
loop_
_atom_site_type_symbol
_atom_site_label
_atom_site_fract_x
_atom_site_fract_y
_atom_site_fract_z
Si Si1 0.000000 0.000000 0.109727
Si Si2 0.688100 0.899868 0.688199
Si Si3 0.433937 0.788900 0.576347
O O1 0.994890 0.138938 0.069663
O O2 0.837798 0.020203 0.153921
O O3 0.750000 0.750000 0.711277
O O4 0.546356 0.864026 0.632317
O O5 0.650134 0.000000 0.750000
O O6 0.428557 0.851947 0.500000
O O7 0.250000 0.750000 0.598189
#
# Coordination Sequence:
#
# PCOD9498878 Si02
#       3
#     8  16  16
#     4  10  22  42  70 104 141 188 243 310 376 446
#     4  10  23  46  75 108 149 197 249 309 379 455
#     4  10  23  45  73 107 146 192 249 310 373 445
#
# _framework density 25.177285000000001
#
# number of rings (size 3 to 8) (size 9 to 14) (size 15 to 20)
#    0.000    2.000    0.000    1.200    0.000   12.000 
#    0.000   44.000    0.000    1.200    0.000    0.000 
#    0.000    1.600    0.000    0.800    0.000    0.000 
#
# Total GULP energy -111588.633216 kJ/mol
# GULP energy per Si atom -5579.431661 kJ/mol
# Density = 2.511998 g / cm^3
# Si number density = 25.177285 Si / 1000 Ang^3
#
#
#
# Elastic Constant Matrix: (Units=GPa)
#
#
# Indices 1 2 3 4 5 6 
#
# 1 216.0841 46.9109 138.7806 0.0000 0.0000 0.0000
# 2 46.9109 211.0644 102.0090 0.0000 0.0000 0.0000
# 3 138.7806 102.0090 199.4167 0.0000 0.0000 0.0000
# 4 0.0000 0.0000 0.0000 34.1557 0.0000 0.0000
# 5 0.0000 0.0000 0.0000 0.0000 31.4107 0.0000
# 6 0.0000 0.0000 0.0000 0.0000 0.0000 43.7551
#
#
#
# Elastic Compliance Matrix: (Units=1/GPa)
#
#
# Indices 1 2 3 4 5 6 
#
# 1 0.008632 0.001308 -0.006676 0.000000 0.000000 0.000000
# 2 0.001308 0.006492 -0.004231 0.000000 0.000000 0.000000
# 3 -0.006676 -0.004231 0.011825 0.000000 0.000000 0.000000
# 4 0.000000 0.000000 0.000000 0.029278 0.000000 0.000000
# 5 0.000000 0.000000 0.000000 0.000000 0.031836 0.000000
# 6 0.000000 0.000000 0.000000 0.000000 0.000000 0.022854
#
#
# Mechanical properties :
#
#
# Convention : Reuss Voigt Hill
#
# Bulk Modulus (GPa) = 129.02708 133.55180 131.28944
# Shear Modulus (GPa) = 37.67893 44.45527 41.06710
#
# Velocity S-wave (km/s) = 3.87272 4.20657 4.04309
# Velocity P-wave (km/s) = 8.44724 8.76090 8.60550
#
# Compressibility (1/GPa) = 0.00775031
#
# Stress axis : x y z
#
# Youngs Moduli (GPa) = 115.85246 154.03066 84.56378
#
# Poissons Ratio (x) = -0.20151 0.56457
# Poissons Ratio (y) = -0.15156 0.35783
# Poissons Ratio (z) = 0.77346 0.65177
#
# Static dielectric constant tensor:
#      x y z
#    x 2.227900 0.000000 0.000000 
#    y 0.000000 2.050790 0.000000 
#    z 0.000000 0.000000 2.129900 
# 
# From -- ./inp_files/37415.got.cif
#   From: 2010.05.17/outbox.cif.g08.bks.cpg/sg66_19_cif.got.tgz:37415.got - 2010.06.03 17:51:23.
