data_PCOD9498887
_publ_section_title
;
Structure prediction by ZEFSAII (Michael W. Deem and Ramdas Pophale) SiO2 
 PCOD9498887
Probable space group: C C C M
;
_chemical_formula_sum "Si O2"
_cell_formula_units_Z 56
_cell_length_a 5.284952
_cell_length_b 14.105405
_cell_length_c 28.412613
_cell_angle_alpha 90.000000
_cell_angle_beta 90.000000
_cell_angle_gamma 90.000000
_cell_volume 2118.057683
_symmetry_space_group_name_H-M "C C C M"
_symmetry_group_IT_number 66
_symmetry_cell_setting 'orthorhombic'
loop_
_space_group_symop_operation_xyz
x,y,z
-x,-y,z
x,-y,1/2-z
-x,y,1/2-z
-x,-y,-z
x,y,-z
-x,y,1/2+z
x,-y,1/2+z
1/2+x,1/2+y,z
1/2-x,1/2-y,z
1/2+x,1/2-y,1/2-z
1/2-x,1/2+y,1/2-z
1/2-x,1/2-y,-z
1/2+x,1/2+y,-z
1/2-x,1/2+y,1/2+z
1/2+x,1/2-y,1/2+z
loop_
_atom_site_type_symbol
_atom_site_label
_atom_site_fract_x
_atom_site_fract_y
_atom_site_fract_z
Si Si1 0.000000 0.500000 0.615129
Si Si2 0.129048 0.148625 0.643177
Si Si3 0.843517 0.141361 0.446177
Si Si4 0.245810 0.863203 0.276974
O O1 0.173718 0.435617 0.649200
O O2 0.157336 0.568829 0.580207
O O3 0.250000 0.250000 0.656985
O O4 0.086562 0.144897 0.587233
O O5 0.861701 0.131563 0.669236
O O6 0.888470 0.113738 0.500000
O O7 0.750000 0.250000 0.445453
O O8 0.500000 0.895734 0.250000
O O9 0.250000 0.750000 0.270123
O O10 0.000000 0.900398 0.250000
#
# Coordination Sequence:
#
# PCOD9498887 Si02
#       4
#     8  16  16  16
#     4  12  27  46  76 119 162 224 271 350 423 512
#     4  12  25  46  80 118 164 217 282 347 425 511
#     4  11  25  47  77 116 164 221 285 347 418 502
#     4  10  22  42  78 120 154 208 276 339 419 499
#
# _framework density 26.439315000000001
#
# number of rings (size 3 to 8) (size 9 to 14) (size 15 to 20)
#    0.000    0.857    2.857    4.714    4.000    4.000 
#    0.000    0.000    0.000    6.857    0.000    0.000 
#    0.000    0.000    0.000    0.000    0.000    0.000 
#
# Total GULP energy -156676.576592 kJ/mol
# GULP energy per Si atom -5595.592021 kJ/mol
# Density = 2.637914 g / cm^3
# Si number density = 26.439315 Si / 1000 Ang^3
#
#
#
# Elastic Constant Matrix: (Units=GPa)
#
#
# Indices 1 2 3 4 5 6 
#
# 1 196.0434 68.3898 76.7332 0.0000 0.0000 0.0000
# 2 68.3898 204.8796 42.4100 0.0000 0.0000 0.0000
# 3 76.7332 42.4100 208.1727 0.0000 0.0000 0.0000
# 4 0.0000 0.0000 0.0000 -95.9735 0.0000 0.0000
# 5 0.0000 0.0000 0.0000 0.0000 37.3905 0.0000
# 6 0.0000 0.0000 0.0000 0.0000 0.0000 39.8771
#
#
#
# Elastic Compliance Matrix: (Units=1/GPa)
#
#
# Indices 1 2 3 4 5 6 
#
# 1 0.006511 -0.001751 -0.002044 0.000000 0.000000 0.000000
# 2 -0.001751 0.005566 -0.000489 0.000000 0.000000 0.000000
# 3 -0.002044 -0.000489 0.005657 0.000000 0.000000 0.000000
# 4 0.000000 0.000000 0.000000 -0.010420 0.000000 0.000000
# 5 0.000000 0.000000 0.000000 0.000000 0.026745 0.000000
# 6 0.000000 0.000000 0.000000 0.000000 0.000000 0.025077
#
#
# Mechanical properties :
#
#
# Convention : Reuss Voigt Hill
#
# Bulk Modulus (GPa) = 109.06608 109.35131 109.20869
# Shear Modulus (GPa) = 70.66283 24.36300 47.51291
#
# Velocity S-wave (km/s) = 5.17537 3.03886 4.24377
# Velocity P-wave (km/s) = 8.77802 7.33226 8.08751
#
# Compressibility (1/GPa) = 0.00916875
#
# Stress axis : x y z
#
# Youngs Moduli (GPa) = 153.57593 179.64834 176.78706
#
# Poissons Ratio (x) = 0.31448 0.36127
# Poissons Ratio (y) = 0.26884 0.08641
# Poissons Ratio (z) = 0.31383 0.08781
#
# Static dielectric constant tensor:
#      x y z
#    x 2.162840 0.000000 0.000000 
#    y 0.000000 2.102520 0.000000 
#    z 0.000000 0.000000 2.152760 
# 
# From -- ./inp_files/66741.got.cif
#   From: 2010.05.17/outbox.cif.g08.bks.cpg/sg66_34_cif.got.tgz:66741.got - 2010.06.03 17:51:23.
