data_PCOD9498001
_publ_section_title
;
Structure prediction by ZEFSAII (Michael W. Deem and Ramdas Pophale) SiO2 
 PCOD9498001
Probable space group: C C C M
;
_chemical_formula_sum "Si O2"
_cell_formula_units_Z 68
_cell_length_a 17.045434
_cell_length_b 23.185516
_cell_length_c 8.911539
_cell_angle_alpha 90.000000
_cell_angle_beta 90.000000
_cell_angle_gamma 90.000000
_cell_volume 3521.904222
_symmetry_space_group_name_H-M "C C C M"
_symmetry_group_IT_number 66
_symmetry_cell_setting 'orthorhombic'
loop_
_space_group_symop_operation_xyz
x,y,z
-x,-y,z
x,-y,1/2-z
-x,y,1/2-z
-x,-y,-z
x,y,-z
-x,y,1/2+z
x,-y,1/2+z
1/2+x,1/2+y,z
1/2-x,1/2-y,z
1/2+x,1/2-y,1/2-z
1/2-x,1/2+y,1/2-z
1/2-x,1/2-y,-z
1/2+x,1/2+y,-z
1/2-x,1/2+y,1/2+z
1/2+x,1/2-y,1/2+z
loop_
_atom_site_type_symbol
_atom_site_label
_atom_site_fract_x
_atom_site_fract_y
_atom_site_fract_z
Si Si1 0.413280 0.836420 0.679534
Si Si2 0.086697 0.206656 0.179282
Si Si3 0.500000 0.500000 0.250000
Si Si4 0.817055 0.559771 0.678121
Si Si5 0.137637 0.909201 0.178829
O O1 0.500000 0.840793 0.750000
O O2 0.418249 0.842609 0.500000
O O3 0.383197 0.771321 0.711795
O O4 0.359560 0.885725 0.748639
O O5 0.134134 0.154069 0.249248
O O6 0.000000 0.203056 0.250000
O O7 0.081819 0.199899 0.000000
O O8 0.569004 0.449780 0.242287
O O9 0.845297 0.500000 0.750000
O O10 0.830426 0.559495 0.500000
O O11 0.723822 0.565421 0.705244
O O12 0.124444 0.905538 0.000000
#
# Coordination Sequence:
#
# PCOD9498001 Si02
#       5
#    16  16   4  16  16
#     4  10  22  42  66  93 122 160 204 255 311 369
#     4  10  21  37  61  90 123 160 206 255 305 363
#     4  12  22  40  64  94 128 168 208 240 302 356
#     4  11  24  42  62  91 126 162 204 257 309 366
#     4  11  24  39  61  92 127 166 208 251 303 362
#
# _framework density 19.307736999999999
#
# number of rings (size 3 to 8) (size 9 to 14) (size 15 to 20)
#    0.000    1.412    2.353    2.471    0.000    7.059 
#    0.000    7.059    0.000    0.000    0.000    0.000 
#    0.000    0.000    0.000    0.000    0.000    0.000 
#
# Total GULP energy -189461.114383 kJ/mol
# GULP energy per Si atom -5572.385717 kJ/mol
# Density = 1.926379 g / cm^3
# Si number density = 19.307737 Si / 1000 Ang^3
#
#
#
# Elastic Constant Matrix: (Units=GPa)
#
#
# Indices 1 2 3 4 5 6 
#
# 1 57.4944 64.1888 66.2355 0.0000 0.0000 0.0000
# 2 64.1888 201.6294 104.2260 0.0000 0.0000 0.0000
# 3 66.2355 104.2260 98.8756 0.0000 0.0000 0.0000
# 4 0.0000 0.0000 0.0000 78.8667 0.0000 0.0000
# 5 0.0000 0.0000 0.0000 0.0000 25.3060 0.0000
# 6 0.0000 0.0000 0.0000 0.0000 0.0000 -103.8544
#
#
#
# Elastic Compliance Matrix: (Units=1/GPa)
#
#
# Indices 1 2 3 4 5 6 
#
# 1 0.078256 0.004802 -0.057485 0.000000 0.000000 0.000000
# 2 0.004802 0.011192 -0.015015 0.000000 0.000000 0.000000
# 3 -0.057485 -0.015015 0.064449 0.000000 0.000000 0.000000
# 4 0.000000 0.000000 0.000000 0.012680 0.000000 0.000000
# 5 0.000000 0.000000 0.000000 0.000000 0.039516 0.000000
# 6 0.000000 0.000000 0.000000 0.000000 0.000000 -0.009629
#
#
# Mechanical properties :
#
#
# Convention : Reuss Voigt Hill
#
# Bulk Modulus (GPa) = 54.04575 91.92223 72.98399
# Shear Modulus (GPa) = 14.79173 8.28694 11.53933
#
# Velocity S-wave (km/s) = 2.77086 2.07397 2.44735
# Velocity P-wave (km/s) = 6.18784 7.31078 6.77263
#
# Compressibility (1/GPa) = 0.01850284
#
# Stress axis : x y z
#
# Youngs Moduli (GPa) = 12.77856 89.34754 15.51611
#
# Poissons Ratio (x) = -0.42905 0.89194
# Poissons Ratio (y) = -0.06136 0.23297
# Poissons Ratio (z) = 0.73457 1.34153
#
# Static dielectric constant tensor:
#      x y z
#    x 1.613720 0.000000 0.000000 
#    y 0.000000 1.665240 0.000000 
#    z 0.000000 0.000000 1.663640 
# 
# From -- ./inp_files/6256.got.cif
#   From: 2010.05.17/outbox.cif.g08.bks.cpg/sg66_4_cif.got.tgz:6256.got - 2010.06.03 17:51:23.
