data_PCOD9498919
_publ_section_title
;
Structure prediction by ZEFSAII (Michael W. Deem and Ramdas Pophale) SiO2 
 PCOD9498919
Probable space group: C C C M
;
_chemical_formula_sum "Si O2"
_cell_formula_units_Z 72
_cell_length_a 9.182489
_cell_length_b 24.488029
_cell_length_c 14.237456
_cell_angle_alpha 90.000000
_cell_angle_beta 90.000000
_cell_angle_gamma 90.000000
_cell_volume 3201.449404
_symmetry_space_group_name_H-M "C C C M"
_symmetry_group_IT_number 66
_symmetry_cell_setting 'orthorhombic'
loop_
_space_group_symop_operation_xyz
x,y,z
-x,-y,z
x,-y,1/2-z
-x,y,1/2-z
-x,-y,-z
x,y,-z
-x,y,1/2+z
x,-y,1/2+z
1/2+x,1/2+y,z
1/2-x,1/2-y,z
1/2+x,1/2-y,1/2-z
1/2-x,1/2+y,1/2-z
1/2-x,1/2-y,-z
1/2+x,1/2+y,-z
1/2-x,1/2+y,1/2+z
1/2+x,1/2-y,1/2+z
loop_
_atom_site_type_symbol
_atom_site_label
_atom_site_fract_x
_atom_site_fract_y
_atom_site_fract_z
Si Si1 0.496083 0.677430 0.390991
Si Si2 0.447361 0.912715 0.000000
Si Si3 0.755328 0.480588 0.500000
Si Si4 0.500000 0.225279 0.250000
Si Si5 0.858792 0.929789 0.186913
Si Si6 0.306921 0.133719 0.676587
O O1 0.474871 0.685120 0.500000
O O2 0.481673 0.733940 0.336835
O O3 0.389096 0.630966 0.352669
O O4 0.655686 0.652091 0.370645
O O5 0.421270 0.879011 0.094603
O O6 0.603613 0.941174 0.000000
O O7 0.319755 0.958658 0.000000
O O8 0.669637 0.467536 0.403356
O O9 0.365368 0.184976 0.265492
O O10 0.725061 0.919278 0.258534
O O11 0.000000 0.943486 0.250000
#
# Coordination Sequence:
#
# PCOD9498919 Si02
#       6
#    16   8   8   8  16  16
#     4  11  22  40  65  97 135 179 229 288 345 424
#     4  11  26  45  73  98 138 186 239 298 350 426
#     4  11  24  47  72 104 135 188 242 292 360 421
#     4  12  24  38  66  99 135 186 228 286 358 422
#     4  10  22  43  71 101 144 175 232 302 349 416
#     4  11  23  43  63  98 139 183 230 289 356 424
#
# _framework density 22.489812000000001
#
# number of rings (size 3 to 8) (size 9 to 14) (size 15 to 20)
#    0.000    1.111    5.556    2.000    1.556    1.778 
#    2.000   15.556    0.000    0.000    0.000    0.000 
#    0.000    0.000    0.000    0.000    0.000    0.000 
#
# Total GULP energy -201514.310273 kJ/mol
# GULP energy per Si atom -5597.619730 kJ/mol
# Density = 2.243862 g / cm^3
# Si number density = 22.489812 Si / 1000 Ang^3
#
#
#
# Elastic Constant Matrix: (Units=GPa)
#
#
# Indices 1 2 3 4 5 6 
#
# 1 44.4949 13.4748 30.2002 0.0000 0.0000 0.0000
# 2 13.4748 82.3919 37.9237 0.0000 0.0000 0.0000
# 3 30.2002 37.9237 165.8045 0.0000 0.0000 0.0000
# 4 0.0000 0.0000 0.0000 21.9290 0.0000 0.0000
# 5 0.0000 0.0000 0.0000 0.0000 30.5078 0.0000
# 6 0.0000 0.0000 0.0000 0.0000 0.0000 -45.1197
#
#
#
# Elastic Compliance Matrix: (Units=1/GPa)
#
#
# Indices 1 2 3 4 5 6 
#
# 1 0.026035 -0.002319 -0.004212 0.000000 0.000000 0.000000
# 2 -0.002319 0.013772 -0.002728 0.000000 0.000000 0.000000
# 3 -0.004212 -0.002728 0.007422 0.000000 0.000000 0.000000
# 4 0.000000 0.000000 0.000000 0.045602 0.000000 0.000000
# 5 0.000000 0.000000 0.000000 0.000000 0.032778 0.000000
# 6 0.000000 0.000000 0.000000 0.000000 0.000000 -0.022163
#
#
# Mechanical properties :
#
#
# Convention : Reuss Voigt Hill
#
# Bulk Modulus (GPa) = 34.82823 50.65429 42.74126
# Shear Modulus (GPa) = 38.01283 15.53626 26.77454
#
# Velocity S-wave (km/s) = 4.11569 2.63118 3.45413
# Velocity P-wave (km/s) = 6.17293 5.63941 5.91219
#
# Compressibility (1/GPa) = 0.02871234
#
# Stress axis : x y z
#
# Youngs Moduli (GPa) = 38.40912 72.61175 134.73125
#
# Poissons Ratio (x) = 0.16842 0.56745
# Poissons Ratio (y) = 0.08909 0.36748
# Poissons Ratio (z) = 0.16177 0.19805
#
# Static dielectric constant tensor:
#      x y z
#    x 2.047810 0.000000 0.000000 
#    y 0.000000 1.791210 0.000000 
#    z 0.000000 0.000000 1.877410 
# 
# From -- ./inp_files/24523.got.cif
#   From: 2010.05.17/outbox.cif.g08.bks.cpg/sg66_13_cif.got.tgz:24523.got - 2010.06.03 17:51:23.
