data_PCOD9498285
_publ_section_title
;
Structure prediction by ZEFSAII (Michael W. Deem and Ramdas Pophale) SiO2 
 PCOD9498285
Probable space group: C C C M
;
_chemical_formula_sum "Si O2"
_cell_formula_units_Z 112
_cell_length_a 27.386229
_cell_length_b 11.819228
_cell_length_c 17.356161
_cell_angle_alpha 90.000000
_cell_angle_beta 90.000000
_cell_angle_gamma 90.000000
_cell_volume 5617.913086
_symmetry_space_group_name_H-M "C C C M"
_symmetry_group_IT_number 66
_symmetry_cell_setting 'orthorhombic'
loop_
_space_group_symop_operation_xyz
x,y,z
-x,-y,z
x,-y,1/2-z
-x,y,1/2-z
-x,-y,-z
x,y,-z
-x,y,1/2+z
x,-y,1/2+z
1/2+x,1/2+y,z
1/2-x,1/2-y,z
1/2+x,1/2-y,1/2-z
1/2-x,1/2+y,1/2-z
1/2-x,1/2-y,-z
1/2+x,1/2+y,-z
1/2-x,1/2+y,1/2+z
1/2+x,1/2-y,1/2+z
loop_
_atom_site_type_symbol
_atom_site_label
_atom_site_fract_x
_atom_site_fract_y
_atom_site_fract_z
Si Si1 0.568976 0.990556 0.658367
Si Si2 0.309119 0.262121 0.409589
Si Si3 0.045279 0.914982 0.409789
Si Si4 0.679372 0.023215 0.839230
Si Si5 0.353517 0.504130 0.841803
Si Si6 0.499026 0.179443 0.408366
Si Si7 0.735803 0.625307 0.908432
O O1 0.537398 0.081374 0.612008
O O2 0.559996 0.000000 0.750000
O O3 0.625124 0.020226 0.644055
O O4 0.550647 0.866594 0.630959
O O5 0.323174 0.253228 0.500000
O O6 0.250000 0.250000 0.407233
O O7 0.324733 0.154856 0.359494
O O8 0.332685 0.376571 0.375222
O O9 0.058077 0.898362 0.500000
O O10 0.023641 0.795656 0.380007
O O11 0.092662 0.968658 0.370037
O O12 0.000000 0.000000 0.405115
O O13 0.690692 0.000000 0.750000
O O14 0.721498 0.962729 0.887507
O O15 0.352750 0.500000 0.750000
O O16 0.314579 0.413234 0.871836
O O17 0.490892 0.188698 0.500000
O O18 0.750000 0.750000 0.880620
O O19 0.730109 0.627378 0.000000
#
# Coordination Sequence:
#
# PCOD9498285 Si02
#       7
#    16  16  16  16  16  16  16
#     4  10  22  40  61  95 131 168 206 269 331 387
#     4  11  24  43  68  96 131 179 229 274 326 402
#     4  10  24  46  67  93 129 170 219 273 328 398
#     4  11  25  40  66  99 134 170 220 276 334 397
#     4  12  27  44  69  98 137 177 222 282 340 400
#     4  10  21  39  65  91 122 167 217 263 316 386
#     4  11  25  43  67  97 134 178 221 268 331 406
#
# _framework density 19.936229999999998
#
# number of rings (size 3 to 8) (size 9 to 14) (size 15 to 20)
#    0.000    1.286    1.429    3.857    6.000    3.714 
#    2.571    0.000    0.000    0.000    0.000    0.000 
#    0.000    0.000    0.000    0.000    0.000    0.000 
#
# Total GULP energy -312755.634987 kJ/mol
# GULP energy per Si atom -5584.922053 kJ/mol
# Density = 1.989085 g / cm^3
# Si number density = 19.936230 Si / 1000 Ang^3
#
#
#
# Elastic Constant Matrix: (Units=GPa)
#
#
# Indices 1 2 3 4 5 6 
#
# 1 91.3441 17.4883 32.3748 0.0000 0.0000 0.0000
# 2 17.4883 122.0212 36.4277 0.0000 0.0000 0.0000
# 3 32.3748 36.4277 92.0600 0.0000 0.0000 0.0000
# 4 0.0000 0.0000 0.0000 7.8844 0.0000 0.0000
# 5 0.0000 0.0000 0.0000 0.0000 16.5558 0.0000
# 6 0.0000 0.0000 0.0000 0.0000 0.0000 18.5700
#
#
#
# Elastic Compliance Matrix: (Units=1/GPa)
#
#
# Indices 1 2 3 4 5 6 
#
# 1 0.012538 -0.000545 -0.004194 0.000000 0.000000 0.000000
# 2 -0.000545 0.009317 -0.003495 0.000000 0.000000 0.000000
# 3 -0.004194 -0.003495 0.013720 0.000000 0.000000 0.000000
# 4 0.000000 0.000000 0.000000 0.126833 0.000000 0.000000
# 5 0.000000 0.000000 0.000000 0.000000 0.060402 0.000000
# 6 0.000000 0.000000 0.000000 0.000000 0.000000 0.053850
#
#
# Mechanical properties :
#
#
# Convention : Reuss Voigt Hill
#
# Bulk Modulus (GPa) = 52.33416 53.11188 52.72302
# Shear Modulus (GPa) = 16.69466 23.21101 19.95283
#
# Velocity S-wave (km/s) = 2.89693 3.41583 3.16703
# Velocity P-wave (km/s) = 6.12351 6.50046 6.31480
#
# Compressibility (1/GPa) = 0.01910798
#
# Stress axis : x y z
#
# Youngs Moduli (GPa) = 79.75545 107.33332 72.88523
#
# Poissons Ratio (x) = 0.05850 0.30566
# Poissons Ratio (y) = 0.04347 0.25473
# Poissons Ratio (z) = 0.33447 0.37512
#
# Static dielectric constant tensor:
#      x y z
#    x 1.747560 0.000000 0.000000 
#    y 0.000000 1.727310 0.000000 
#    z 0.000000 0.000000 1.667900 
# 
# From -- ./inp_files/33835.got.cif
#   From: 2010.05.17/outbox.cif.g08.bks.cpg/sg66_17_cif.got.tgz:33835.got - 2010.06.03 17:51:23.
