data_PCOD9498189
_publ_section_title
;
Structure prediction by ZEFSAII (Michael W. Deem and Ramdas Pophale) SiO2 
 PCOD9498189
Probable space group: C C C M
;
_chemical_formula_sum "Si O2"
_cell_formula_units_Z 88
_cell_length_a 12.991438
_cell_length_b 15.838642
_cell_length_c 20.568839
_cell_angle_alpha 90.000000
_cell_angle_beta 90.000000
_cell_angle_gamma 90.000000
_cell_volume 4232.382855
_symmetry_space_group_name_H-M "C C C M"
_symmetry_group_IT_number 66
_symmetry_cell_setting 'orthorhombic'
loop_
_space_group_symop_operation_xyz
x,y,z
-x,-y,z
x,-y,1/2-z
-x,y,1/2-z
-x,-y,-z
x,y,-z
-x,y,1/2+z
x,-y,1/2+z
1/2+x,1/2+y,z
1/2-x,1/2-y,z
1/2+x,1/2-y,1/2-z
1/2-x,1/2+y,1/2-z
1/2-x,1/2-y,-z
1/2+x,1/2+y,-z
1/2-x,1/2+y,1/2+z
1/2+x,1/2-y,1/2+z
loop_
_atom_site_type_symbol
_atom_site_label
_atom_site_fract_x
_atom_site_fract_y
_atom_site_fract_z
Si Si1 0.909727 0.228605 0.131734
Si Si2 0.178888 0.000000 0.750000
Si Si3 0.765929 0.924938 0.385646
Si Si4 0.458902 0.915027 0.885053
Si Si5 0.000000 0.128756 0.750000
Si Si6 0.532938 0.698419 0.000000
Si Si7 0.617258 0.872010 0.000000
Si Si8 0.663546 0.533300 0.000000
O O1 0.806109 0.171019 0.124318
O O2 0.926227 0.327515 0.149936
O O3 0.970479 0.181206 0.187723
O O4 0.964060 0.216844 0.062676
O O5 0.237195 0.030634 0.685361
O O6 0.099578 0.073975 0.768396
O O7 0.652847 0.932048 0.416470
O O8 0.839109 0.974956 0.435572
O O9 0.500000 0.000000 0.849700
O O10 0.547335 0.897051 0.937808
O O11 0.621416 0.770079 0.000000
O O12 0.576555 0.604462 0.000000
O O13 0.728098 0.915250 0.000000
#
# Coordination Sequence:
#
# PCOD9498189 Si02
#       8
#    16   8  16  16   8   8   8   8
#     4  10  22  39  60  91 120 152 197 247 300 351
#     4   9  20  38  61  88 120 154 189 234 299 356
#     4  11  22  37  62  91 120 154 197 247 295 355
#     4  11  21  40  61  82 118 160 201 241 291 354
#     4   9  18  40  63  82 120 162 185 228 302 365
#     4  10  22  36  59  93 120 146 196 257 297 346
#     4  10  21  39  58  83 123 163 195 238 306 364
#     4  12  21  36  63  90 117 153 199 247 298 356
#
# _framework density 20.792069000000001
#
# number of rings (size 3 to 8) (size 9 to 14) (size 15 to 20)
#    0.000    1.636    1.818    3.273    0.000    2.909 
#    3.273    3.636    0.000    0.000    0.000    0.000 
#    0.000    0.000    0.000    0.000    0.000    0.000 
#
# Total GULP energy -245133.982628 kJ/mol
# GULP energy per Si atom -5571.226878 kJ/mol
# Density = 2.074475 g / cm^3
# Si number density = 20.792069 Si / 1000 Ang^3
#
#
#
# Elastic Constant Matrix: (Units=GPa)
#
#
# Indices 1 2 3 4 5 6 
#
# 1 56.0564 19.2302 3.6938 0.0000 0.0000 0.0000
# 2 19.2302 156.3937 30.2913 0.0000 0.0000 0.0000
# 3 3.6938 30.2913 71.9702 0.0000 0.0000 0.0000
# 4 0.0000 0.0000 0.0000 565.6295 0.0000 0.0000
# 5 0.0000 0.0000 0.0000 0.0000 0.2909 0.0000
# 6 0.0000 0.0000 0.0000 0.0000 0.0000 34.5946
#
#
#
# Elastic Compliance Matrix: (Units=1/GPa)
#
#
# Indices 1 2 3 4 5 6 
#
# 1 0.018625 -0.002292 0.000009 0.000000 0.000000 0.000000
# 2 -0.002292 0.007244 -0.002931 0.000000 0.000000 0.000000
# 3 0.000009 -0.002931 0.015128 0.000000 0.000000 0.000000
# 4 0.000000 0.000000 0.000000 0.001768 0.000000 0.000000
# 5 0.000000 0.000000 0.000000 0.000000 3.437711 0.000000
# 6 0.000000 0.000000 0.000000 0.000000 0.000000 0.028906
#
#
# Mechanical properties :
#
#
# Convention : Reuss Voigt Hill
#
# Bulk Modulus (GPa) = 32.71412 43.42789 38.07101
# Shear Modulus (GPa) = 1.41643 135.51667 68.46655
#
# Velocity S-wave (km/s) = 0.82627 8.08199 5.74462
# Velocity P-wave (km/s) = 4.08392 10.39344 7.89626
#
# Compressibility (1/GPa) = 0.03056784
#
# Stress axis : x y z
#
# Youngs Moduli (GPa) = 53.69184 138.05217 66.10321
#
# Poissons Ratio (x) = 0.31639 -0.00057
# Poissons Ratio (y) = 0.12305 0.19376
# Poissons Ratio (z) = -0.00047 0.40465
#
# Static dielectric constant tensor:
#      x y z
#    x 1.838060 0.000000 0.000000 
#    y 0.000000 1.846010 0.000000 
#    z 0.000000 0.000000 1.671830 
# 
# From -- ./inp_files/56826.got.cif
#   From: 2010.05.17/outbox.cif.g08.bks.cpg/sg66_29_cif.got.tgz:56826.got - 2010.06.03 17:51:23.
