data_PCOD9498796
_publ_section_title
;
Structure prediction by ZEFSAII (Michael W. Deem and Ramdas Pophale) SiO2 
 PCOD9498796
Probable space group: C C C M
;
_chemical_formula_sum "Si O2"
_cell_formula_units_Z 64
_cell_length_a 12.724696
_cell_length_b 13.479992
_cell_length_c 14.974280
_cell_angle_alpha 90.000000
_cell_angle_beta 90.000000
_cell_angle_gamma 90.000000
_cell_volume 2568.520283
_symmetry_space_group_name_H-M "C C C M"
_symmetry_group_IT_number 66
_symmetry_cell_setting 'orthorhombic'
loop_
_space_group_symop_operation_xyz
x,y,z
-x,-y,z
x,-y,1/2-z
-x,y,1/2-z
-x,-y,-z
x,y,-z
-x,y,1/2+z
x,-y,1/2+z
1/2+x,1/2+y,z
1/2-x,1/2-y,z
1/2+x,1/2-y,1/2-z
1/2-x,1/2+y,1/2-z
1/2-x,1/2-y,-z
1/2+x,1/2+y,-z
1/2-x,1/2+y,1/2+z
1/2+x,1/2-y,1/2+z
loop_
_atom_site_type_symbol
_atom_site_label
_atom_site_fract_x
_atom_site_fract_y
_atom_site_fract_z
Si Si1 0.285572 0.855306 0.102350
Si Si2 0.486409 0.178718 0.856763
Si Si3 0.266129 0.070224 0.892508
Si Si4 0.539072 0.394502 0.648534
O O1 0.250000 0.750000 0.143806
O O2 0.410824 0.872170 0.103650
O O3 0.249393 0.958206 0.144570
O O4 0.247738 0.852798 0.000000
O O5 0.500000 0.180204 0.750000
O O6 0.376576 0.123766 0.874203
O O7 0.499683 0.291304 0.892360
O O8 0.163793 0.123057 0.855065
O O9 0.256601 0.066477 0.000000
O O10 0.500000 0.500000 0.608733
O O11 0.500000 0.396152 0.750000
#
# Coordination Sequence:
#
# PCOD9498796 Si02
#       4
#    16  16  16  16
#     4  10  22  41  64  91 126 168 214 262 315 380
#     4  11  24  39  62  95 128 166 212 261 320 384
#     4  11  24  42  65  93 127 168 213 265 323 384
#     4  10  23  42  63  90 125 164 210 265 326 391
#
# _framework density 24.917069000000001
#
# number of rings (size 3 to 8) (size 9 to 14) (size 15 to 20)
#    0.000    1.500    0.000    3.750    0.000   15.500 
#    0.000    0.000    0.000    0.000    0.000    0.000 
#    0.000    0.000    0.000    0.000    0.000    0.000 
#
# Total GULP energy -178785.678812 kJ/mol
# GULP energy per Si atom -5587.052463 kJ/mol
# Density = 2.486036 g / cm^3
# Si number density = 24.917069 Si / 1000 Ang^3
#
#
#
# Elastic Constant Matrix: (Units=GPa)
#
#
# Indices 1 2 3 4 5 6 
#
# 1 121.0709 -2.0176 15.6110 0.0000 0.0000 0.0000
# 2 -2.0176 92.4019 23.3625 0.0000 0.0000 0.0000
# 3 15.6110 23.3625 87.1724 0.0000 0.0000 0.0000
# 4 0.0000 0.0000 0.0000 -36.0090 0.0000 0.0000
# 5 0.0000 0.0000 0.0000 0.0000 37.6453 0.0000
# 6 0.0000 0.0000 0.0000 0.0000 0.0000 46.9433
#
#
#
# Elastic Compliance Matrix: (Units=1/GPa)
#
#
# Indices 1 2 3 4 5 6 
#
# 1 0.008487 0.000611 -0.001684 0.000000 0.000000 0.000000
# 2 0.000611 0.011653 -0.003232 0.000000 0.000000 0.000000
# 3 -0.001684 -0.003232 0.012639 0.000000 0.000000 0.000000
# 4 0.000000 0.000000 0.000000 -0.027771 0.000000 0.000000
# 5 0.000000 0.000000 0.000000 0.000000 0.026564 0.000000
# 6 0.000000 0.000000 0.000000 0.000000 0.000000 0.021302
#
#
# Mechanical properties :
#
#
# Convention : Reuss Voigt Hill
#
# Bulk Modulus (GPa) = 41.37527 41.61745 41.49636
# Shear Modulus (GPa) = 71.90025 27.29520 49.59772
#
# Velocity S-wave (km/s) = 5.37759 3.31334 4.46636
# Velocity P-wave (km/s) = 7.42962 5.60145 6.57934
#
# Compressibility (1/GPa) = 0.02416903
#
# Stress axis : x y z
#
# Youngs Moduli (GPa) = 117.82878 85.81551 79.11813
#
# Poissons Ratio (x) = -0.05243 0.13320
# Poissons Ratio (y) = -0.07199 0.25574
# Poissons Ratio (z) = 0.19838 0.27739
#
# Static dielectric constant tensor:
#      x y z
#    x 1.912460 0.000000 0.000000 
#    y 0.000000 2.005730 0.000000 
#    z 0.000000 0.000000 1.962400 
# 
# From -- ./inp_files/37963.got.cif
#   From: 2010.05.17/outbox.cif.g08.bks.cpg/sg66_19_cif.got.tgz:37963.got - 2010.06.03 17:51:23.
