data_PCOD9498301
_publ_section_title
;
Structure prediction by ZEFSAII (Michael W. Deem and Ramdas Pophale) SiO2 
 PCOD9498301
Probable space group: C C C M
;
_chemical_formula_sum "Si O2"
_cell_formula_units_Z 64
_cell_length_a 11.483582
_cell_length_b 9.435259
_cell_length_c 21.903434
_cell_angle_alpha 90.000000
_cell_angle_beta 90.000000
_cell_angle_gamma 90.000000
_cell_volume 2373.249568
_symmetry_space_group_name_H-M "C C C M"
_symmetry_group_IT_number 66
_symmetry_cell_setting 'orthorhombic'
loop_
_space_group_symop_operation_xyz
x,y,z
-x,-y,z
x,-y,1/2-z
-x,y,1/2-z
-x,-y,-z
x,y,-z
-x,y,1/2+z
x,-y,1/2+z
1/2+x,1/2+y,z
1/2-x,1/2-y,z
1/2+x,1/2-y,1/2-z
1/2-x,1/2+y,1/2-z
1/2-x,1/2-y,-z
1/2+x,1/2+y,-z
1/2-x,1/2+y,1/2+z
1/2+x,1/2-y,1/2+z
loop_
_atom_site_type_symbol
_atom_site_label
_atom_site_fract_x
_atom_site_fract_y
_atom_site_fract_z
Si Si1 0.856465 0.493023 0.000000
Si Si2 0.858156 0.919772 0.313181
Si Si3 0.594431 0.628914 0.000000
Si Si4 0.921451 0.206793 0.631771
Si Si5 0.637063 0.009168 0.140261
O O1 0.732067 0.586716 0.000000
O O2 0.842377 0.439032 0.070484
O O3 0.000000 0.500000 0.000000
O O4 0.873853 0.047061 0.362306
O O5 0.720467 0.898303 0.317191
O O6 0.881059 0.000000 0.250000
O O7 0.956092 0.807554 0.332047
O O8 0.500000 0.500000 0.000000
O O9 0.566917 0.723116 0.059238
O O10 0.844434 0.339663 0.651243
O O11 0.500000 0.000000 0.151733
#
# Coordination Sequence:
#
# PCOD9498301 Si02
#       5
#     8  16   8  16  16
#     4  10  21  39  65  98 141 168 204 282 347 399
#     4  11  24  45  64  92 133 176 227 282 329 388
#     4  12  19  37  74 105 130 174 227 279 341 423
#     4  11  22  41  70  98 127 170 224 275 336 401
#     4  11  24  43  65 100 135 172 220 272 346 413
#
# _framework density 26.967244999999998
#
# number of rings (size 3 to 8) (size 9 to 14) (size 15 to 20)
#    0.000    1.000    5.000    3.000    0.000    2.500 
#   13.500    0.000    0.000    9.000    0.000    0.000 
#    0.000    0.000    0.000    0.000    0.000    0.000 
#
# Total GULP energy -178226.307089 kJ/mol
# GULP energy per Si atom -5569.572097 kJ/mol
# Density = 2.690587 g / cm^3
# Si number density = 26.967245 Si / 1000 Ang^3
#
#
#
# Elastic Constant Matrix: (Units=GPa)
#
#
# Indices 1 2 3 4 5 6 
#
# 1 204.9633 35.2040 54.3642 0.0000 0.0000 0.0000
# 2 35.2040 81.9037 -9.8816 0.0000 0.0000 0.0000
# 3 54.3642 -9.8816 137.2909 0.0000 0.0000 0.0000
# 4 0.0000 0.0000 0.0000 -6.4548 0.0000 0.0000
# 5 0.0000 0.0000 0.0000 0.0000 38.1737 0.0000
# 6 0.0000 0.0000 0.0000 0.0000 0.0000 73.7775
#
#
#
# Elastic Compliance Matrix: (Units=1/GPa)
#
#
# Indices 1 2 3 4 5 6 
#
# 1 0.006076 -0.002927 -0.002617 0.000000 0.000000 0.000000
# 2 -0.002927 0.013727 0.002147 0.000000 0.000000 0.000000
# 3 -0.002617 0.002147 0.008474 0.000000 0.000000 0.000000
# 4 0.000000 0.000000 0.000000 -0.154925 0.000000 0.000000
# 5 0.000000 0.000000 0.000000 0.000000 0.026196 0.000000
# 6 0.000000 0.000000 0.000000 0.000000 0.000000 0.013554
#
#
# Mechanical properties :
#
#
# Convention : Reuss Voigt Hill
#
# Bulk Modulus (GPa) = 46.54720 64.83679 55.69199
# Shear Modulus (GPa) = -68.54653 44.06402 -12.24126
#
# Velocity S-wave (km/s) = -5.04714 4.04664 -2.13288
# Velocity P-wave (km/s) = 4.08249 6.77707 3.82505
#
# Compressibility (1/GPa) = 0.02148357
#
# Stress axis : x y z
#
# Youngs Moduli (GPa) = 164.59050 72.85095 118.00210
#
# Poissons Ratio (x) = 0.21325 0.30876
# Poissons Ratio (y) = 0.48178 -0.25336
# Poissons Ratio (z) = 0.43065 -0.15642
#
# Static dielectric constant tensor:
#      x y z
#    x 2.314780 0.000000 0.000000 
#    y 0.000000 0.600400 0.000000 
#    z 0.000000 0.000000 2.173340 
# 
# From -- ./inp_files/56359.got.cif
#   From: 2010.05.17/outbox.cif.g08.bks.cpg/sg66_29_cif.got.tgz:56359.got - 2010.06.03 17:51:23.
