data_PCOD9498355
_publ_section_title
;
Structure prediction by ZEFSAII (Michael W. Deem and Ramdas Pophale) SiO2 
 PCOD9498355
Probable space group: C C C M
;
_chemical_formula_sum "Si O2"
_cell_formula_units_Z 68
_cell_length_a 16.007081
_cell_length_b 22.670599
_cell_length_c 9.125225
_cell_angle_alpha 90.000000
_cell_angle_beta 90.000000
_cell_angle_gamma 90.000000
_cell_volume 3311.453945
_symmetry_space_group_name_H-M "C C C M"
_symmetry_group_IT_number 66
_symmetry_cell_setting 'orthorhombic'
loop_
_space_group_symop_operation_xyz
x,y,z
-x,-y,z
x,-y,1/2-z
-x,y,1/2-z
-x,-y,-z
x,y,-z
-x,y,1/2+z
x,-y,1/2+z
1/2+x,1/2+y,z
1/2-x,1/2-y,z
1/2+x,1/2-y,1/2-z
1/2-x,1/2+y,1/2-z
1/2-x,1/2-y,-z
1/2+x,1/2+y,-z
1/2-x,1/2+y,1/2+z
1/2+x,1/2-y,1/2+z
loop_
_atom_site_type_symbol
_atom_site_label
_atom_site_fract_x
_atom_site_fract_y
_atom_site_fract_z
Si Si1 0.360584 0.090915 0.660882
Si Si2 0.908170 0.818593 0.322247
Si Si3 0.171028 0.057715 0.331870
Si Si4 0.408955 0.202148 0.174155
Si Si5 0.500000 0.000000 0.250000
O O1 0.364264 0.120301 0.500000
O O2 0.271627 0.059438 0.673059
O O3 0.366230 0.140713 0.784075
O O4 0.436269 0.044393 0.669322
O O5 0.911908 0.813310 0.500000
O O6 0.860751 0.878538 0.280676
O O7 0.869216 0.759621 0.251015
O O8 0.000000 0.822707 0.250000
O O9 0.144762 0.052789 0.500000
O O10 0.139743 0.000000 0.250000
O O11 0.500000 0.196798 0.250000
O O12 0.415666 0.209975 0.000000
#
# Coordination Sequence:
#
# PCOD9498355 Si02
#       5
#    16  16  16  16   4
#     4  11  23  39  60  90 125 160 200 243 294 354
#     4  10  21  40  64  88 118 156 200 248 303 358
#     4  10  23  41  61  88 122 159 197 247 303 358
#     4  11  22  37  60  89 120 157 202 249 298 352
#     4  12  22  36  68  90 124 160 204 228 294 340
#
# _framework density 20.534787000000001
#
# number of rings (size 3 to 8) (size 9 to 14) (size 15 to 20)
#    0.000    1.412    2.353    4.588    0.000    5.176 
#    0.000    7.059    0.000    0.000    0.000    0.000 
#    0.000    0.000    0.000    0.000    0.000    0.000 
#
# Total GULP energy -189757.531431 kJ/mol
# GULP energy per Si atom -5581.103866 kJ/mol
# Density = 2.048805 g / cm^3
# Si number density = 20.534787 Si / 1000 Ang^3
#
#
#
# Elastic Constant Matrix: (Units=GPa)
#
#
# Indices 1 2 3 4 5 6 
#
# 1 26.4096 4.9215 8.1309 0.0000 0.0000 0.0000
# 2 4.9215 132.3467 59.3630 0.0000 0.0000 0.0000
# 3 8.1309 59.3630 118.6517 0.0000 0.0000 0.0000
# 4 0.0000 0.0000 0.0000 38.4596 0.0000 0.0000
# 5 0.0000 0.0000 0.0000 0.0000 -5.4318 0.0000
# 6 0.0000 0.0000 0.0000 0.0000 0.0000 15.1977
#
#
#
# Elastic Compliance Matrix: (Units=1/GPa)
#
#
# Indices 1 2 3 4 5 6 
#
# 1 0.038692 -0.000322 -0.002491 0.000000 0.000000 0.000000
# 2 -0.000322 0.009745 -0.004853 0.000000 0.000000 0.000000
# 3 -0.002491 -0.004853 0.011027 0.000000 0.000000 0.000000
# 4 0.000000 0.000000 0.000000 0.026001 0.000000 0.000000
# 5 0.000000 0.000000 0.000000 0.000000 -0.184101 0.000000
# 6 0.000000 0.000000 0.000000 0.000000 0.000000 0.065799
#
#
# Mechanical properties :
#
#
# Convention : Reuss Voigt Hill
#
# Bulk Modulus (GPa) = 22.65916 46.91540 34.78728
# Shear Modulus (GPa) = -1788.81612 23.31129 -882.75242
#
# Velocity S-wave (km/s) = -29.54668 3.37294 -20.75608
# Velocity P-wave (km/s) = 33.95511 6.16971 23.61021
#
# Compressibility (1/GPa) = 0.04413226
#
# Stress axis : x y z
#
# Youngs Moduli (GPa) = 25.84530 102.61846 90.68711
#
# Poissons Ratio (x) = 0.03301 0.22586
# Poissons Ratio (y) = 0.00831 0.44014
# Poissons Ratio (z) = 0.06437 0.49805
#
# Static dielectric constant tensor:
#      x y z
#    x 1.735920 0.000000 0.000000 
#    y 0.000000 1.779020 0.000000 
#    z 0.000000 0.000000 1.725700 
# 
# From -- ./inp_files/6260.got.cif
#   From: 2010.05.17/outbox.cif.g08.bks.cpg/sg66_4_cif.got.tgz:6260.got - 2010.06.03 17:51:23.
