data_PCOD9498572
_publ_section_title
;
Structure prediction by ZEFSAII (Michael W. Deem and Ramdas Pophale) SiO2 
 PCOD9498572
Probable space group: C C C M
;
_chemical_formula_sum "Si O2"
_cell_formula_units_Z 72
_cell_length_a 12.800345
_cell_length_b 24.344814
_cell_length_c 12.870669
_cell_angle_alpha 90.000000
_cell_angle_beta 90.000000
_cell_angle_gamma 90.000000
_cell_volume 4010.783849
_symmetry_space_group_name_H-M "C C C M"
_symmetry_group_IT_number 66
_symmetry_cell_setting 'orthorhombic'
loop_
_space_group_symop_operation_xyz
x,y,z
-x,-y,z
x,-y,1/2-z
-x,y,1/2-z
-x,-y,-z
x,y,-z
-x,y,1/2+z
x,-y,1/2+z
1/2+x,1/2+y,z
1/2-x,1/2-y,z
1/2+x,1/2-y,1/2-z
1/2-x,1/2+y,1/2-z
1/2-x,1/2-y,-z
1/2+x,1/2+y,-z
1/2-x,1/2+y,1/2+z
1/2+x,1/2-y,1/2+z
loop_
_atom_site_type_symbol
_atom_site_label
_atom_site_fract_x
_atom_site_fract_y
_atom_site_fract_z
Si Si1 0.306212 0.310028 0.618571
Si Si2 0.000000 0.790739 0.250000
Si Si3 0.055512 0.559037 0.617470
Si Si4 0.359327 0.783468 0.380999
Si Si5 0.138174 0.618956 0.787625
O O1 0.343392 0.308672 0.500000
O O2 0.250000 0.250000 0.636567
O O3 0.399653 0.319223 0.699858
O O4 0.226209 0.360224 0.634676
O O5 0.953977 0.754945 0.155316
O O6 0.093279 0.565796 0.500000
O O7 0.964731 0.603565 0.645664
O O8 0.000000 0.500000 0.624944
O O9 0.142146 0.568163 0.706397
O O10 0.371884 0.802142 0.500000
O O11 0.250000 0.750000 0.376017
O O12 0.361398 0.830801 0.294817
#
# Coordination Sequence:
#
# PCOD9498572 Si02
#       5
#    16   8  16  16  16
#     4  11  23  35  50  76 108 146 188 226 266 319
#     4  12  18  38  48  70 102 148 182 224 258 306
#     4  10  22  37  57  85 111 138 179 230 284 337
#     4  11  22  34  49  74 108 147 188 222 257 312
#     4  11  18  35  52  77 106 146 175 220 270 325
#
# _framework density 17.951602999999999
#
# number of rings (size 3 to 8) (size 9 to 14) (size 15 to 20)
#    0.000    1.111    4.444    4.667    0.000    0.000 
#    0.000    0.000    0.000    0.000    0.000    3.111 
#    0.000   10.667    0.000    0.000    0.000    0.000 
#
# Total GULP energy -200407.739382 kJ/mol
# GULP energy per Si atom -5566.881650 kJ/mol
# Density = 1.791074 g / cm^3
# Si number density = 17.951603 Si / 1000 Ang^3
#
#
#
# Elastic Constant Matrix: (Units=GPa)
#
#
# Indices 1 2 3 4 5 6 
#
# 1 59.1029 20.8886 4.3123 0.0000 0.0000 0.0000
# 2 20.8886 56.8657 7.3186 0.0000 0.0000 0.0000
# 3 4.3123 7.3186 100.6928 0.0000 0.0000 0.0000
# 4 0.0000 0.0000 0.0000 20.8653 0.0000 0.0000
# 5 0.0000 0.0000 0.0000 0.0000 23.9563 0.0000
# 6 0.0000 0.0000 0.0000 0.0000 0.0000 19.8901
#
#
#
# Elastic Compliance Matrix: (Units=1/GPa)
#
#
# Indices 1 2 3 4 5 6 
#
# 1 0.019454 -0.007105 -0.000317 0.000000 0.000000 0.000000
# 2 -0.007105 0.020346 -0.001175 0.000000 0.000000 0.000000
# 3 -0.000317 -0.001175 0.010030 0.000000 0.000000 0.000000
# 4 0.000000 0.000000 0.000000 0.047927 0.000000 0.000000
# 5 0.000000 0.000000 0.000000 0.000000 0.041743 0.000000
# 6 0.000000 0.000000 0.000000 0.000000 0.000000 0.050276
#
#
# Mechanical properties :
#
#
# Convention : Reuss Voigt Hill
#
# Bulk Modulus (GPa) = 30.63966 31.30006 30.96986
# Shear Modulus (GPa) = 22.95175 25.21846 24.08510
#
# Velocity S-wave (km/s) = 3.57954 3.75214 3.66685
# Velocity P-wave (km/s) = 5.84715 6.02038 5.93440
#
# Compressibility (1/GPa) = 0.03263744
#
# Stress axis : x y z
#
# Youngs Moduli (GPa) = 51.40341 49.14853 99.69966
#
# Poissons Ratio (x) = 0.34922 0.03158
# Poissons Ratio (y) = 0.36524 0.11710
# Poissons Ratio (z) = 0.01628 0.05773
#
# Static dielectric constant tensor:
#      x y z
#    x 1.563440 0.000000 0.000000 
#    y 0.000000 1.663100 0.000000 
#    z 0.000000 0.000000 1.663000 
# 
# From -- ./inp_files/26288.got.cif
#   From: 2010.05.17/outbox.cif.g08.bks.cpg/sg66_14_cif.got.tgz:26288.got - 2010.06.03 17:51:23.
