data_PCOD9498703
_publ_section_title
;
Structure prediction by ZEFSAII (Michael W. Deem and Ramdas Pophale) SiO2 
 PCOD9498703
Probable space group: C C C M
;
_chemical_formula_sum "Si O2"
_cell_formula_units_Z 68
_cell_length_a 5.330338
_cell_length_b 28.692243
_cell_length_c 19.792776
_cell_angle_alpha 90.000000
_cell_angle_beta 90.000000
_cell_angle_gamma 90.000000
_cell_volume 3027.094359
_symmetry_space_group_name_H-M "C C C M"
_symmetry_group_IT_number 66
_symmetry_cell_setting 'orthorhombic'
loop_
_space_group_symop_operation_xyz
x,y,z
-x,-y,z
x,-y,1/2-z
-x,y,1/2-z
-x,-y,-z
x,y,-z
-x,y,1/2+z
x,-y,1/2+z
1/2+x,1/2+y,z
1/2-x,1/2-y,z
1/2+x,1/2-y,1/2-z
1/2-x,1/2+y,1/2-z
1/2-x,1/2-y,-z
1/2+x,1/2+y,-z
1/2-x,1/2+y,1/2+z
1/2+x,1/2-y,1/2+z
loop_
_atom_site_type_symbol
_atom_site_label
_atom_site_fract_x
_atom_site_fract_y
_atom_site_fract_z
Si Si1 0.305275 0.347291 0.857868
Si Si2 0.500000 0.907112 0.250000
Si Si3 0.250000 0.750000 0.292814
Si Si4 0.384980 0.434321 0.500000
Si Si5 0.388179 0.875549 0.500000
Si Si6 0.000000 0.000000 0.250000
Si Si7 0.113129 0.936900 0.854319
O O1 0.163524 0.372269 0.796112
O O2 0.340473 0.294277 0.836495
O O3 0.162874 0.349425 0.929566
O O4 0.540984 0.382614 0.865225
O O5 0.348344 0.937298 0.195240
O O6 0.500000 0.763090 0.250000
O O7 0.672076 0.415882 0.500000
O O8 0.343937 0.458110 0.572264
O O9 0.167970 0.395152 0.500000
O O10 0.907056 0.036609 0.308320
#
# Coordination Sequence:
#
# PCOD9498703 Si02
#       7
#    16   8   8   8   8   4  16
#     4  11  23  42  64  96 132 174 219 276 330 395
#     4  12  18  39  69  84 126 171 218 275 320 390
#     4  12  26  39  66 101 132 172 224 272 332 389
#     4  10  22  43  66  93 131 181 216 268 337 396
#     4  10  22  39  70  93 129 177 218 261 340 393
#     4  12  24  40  62 104 126 176 224 282 332 394
#     4  11  24  41  65  94 133 169 226 271 334 395
#
# _framework density 22.463785000000001
#
# number of rings (size 3 to 8) (size 9 to 14) (size 15 to 20)
#    0.000    0.941    5.882    1.412    0.000    1.412 
#    0.000    0.000    0.000    8.471    0.000    0.000 
#    0.000    0.000    0.000    0.000    0.000    0.000 
#
# Total GULP energy -189358.335654 kJ/mol
# GULP energy per Si atom -5569.362813 kJ/mol
# Density = 2.241266 g / cm^3
# Si number density = 22.463785 Si / 1000 Ang^3
#
#
#
# Elastic Constant Matrix: (Units=GPa)
#
#
# Indices 1 2 3 4 5 6 
#
# 1 79.5782 14.0406 27.0236 0.0000 0.0000 0.0000
# 2 14.0406 113.8555 42.3178 0.0000 0.0000 0.0000
# 3 27.0236 42.3178 225.2640 0.0000 0.0000 0.0000
# 4 0.0000 0.0000 0.0000 85.9204 0.0000 0.0000
# 5 0.0000 0.0000 0.0000 0.0000 36.0542 0.0000
# 6 0.0000 0.0000 0.0000 0.0000 0.0000 12.7930
#
#
#
# Elastic Compliance Matrix: (Units=1/GPa)
#
#
# Indices 1 2 3 4 5 6 
#
# 1 0.013231 -0.001120 -0.001377 0.000000 0.000000 0.000000
# 2 -0.001120 0.009537 -0.001657 0.000000 0.000000 0.000000
# 3 -0.001377 -0.001657 0.004916 0.000000 0.000000 0.000000
# 4 0.000000 0.000000 0.000000 0.011639 0.000000 0.000000
# 5 0.000000 0.000000 0.000000 0.000000 0.027736 0.000000
# 6 0.000000 0.000000 0.000000 0.000000 0.000000 0.078168
#
#
# Mechanical properties :
#
#
# Convention : Reuss Voigt Hill
#
# Bulk Modulus (GPa) = 51.61000 65.05131 58.33066
# Shear Modulus (GPa) = 31.25120 49.30790 40.27955
#
# Velocity S-wave (km/s) = 3.73390 4.69016 4.23908
# Velocity P-wave (km/s) = 6.45089 7.63880 7.06984
#
# Compressibility (1/GPa) = 0.01937609
#
# Stress axis : x y z
#
# Youngs Moduli (GPa) = 75.57757 104.85310 203.42775
#
# Poissons Ratio (x) = 0.11743 0.28010
# Poissons Ratio (y) = 0.08464 0.33714
# Poissons Ratio (z) = 0.10406 0.17377
#
# Static dielectric constant tensor:
#      x y z
#    x 2.010770 0.000000 0.000000 
#    y 0.000000 1.875980 0.000000 
#    z 0.000000 0.000000 1.862270 
# 
# From -- ./inp_files/45816.got.cif
#   From: 2010.05.17/outbox.cif.g08.bks.cpg/sg66_23_cif.got.tgz:45816.got - 2010.06.03 17:51:23.
