data_PCOD9498876
_publ_section_title
;
Structure prediction by ZEFSAII (Michael W. Deem and Ramdas Pophale) SiO2 
 PCOD9498876
Probable space group: C C C M
;
_chemical_formula_sum "Si O2"
_cell_formula_units_Z 56
_cell_length_a 21.594749
_cell_length_b 7.819042
_cell_length_c 14.711087
_cell_angle_alpha 90.000000
_cell_angle_beta 90.000000
_cell_angle_gamma 90.000000
_cell_volume 2483.970709
_symmetry_space_group_name_H-M "C C C M"
_symmetry_group_IT_number 66
_symmetry_cell_setting 'orthorhombic'
loop_
_space_group_symop_operation_xyz
x,y,z
-x,-y,z
x,-y,1/2-z
-x,y,1/2-z
-x,-y,-z
x,y,-z
-x,y,1/2+z
x,-y,1/2+z
1/2+x,1/2+y,z
1/2-x,1/2-y,z
1/2+x,1/2-y,1/2-z
1/2-x,1/2+y,1/2-z
1/2-x,1/2-y,-z
1/2+x,1/2+y,-z
1/2-x,1/2+y,1/2+z
1/2+x,1/2-y,1/2+z
loop_
_atom_site_type_symbol
_atom_site_label
_atom_site_fract_x
_atom_site_fract_y
_atom_site_fract_z
Si Si1 0.626778 0.274007 0.262659
Si Si2 0.250000 0.250000 0.346128
Si Si3 0.302858 0.103190 0.097994
Si Si4 0.070775 0.938778 0.894445
O O1 0.692360 0.309421 0.214221
O O2 0.644986 0.114328 0.325322
O O3 0.579757 0.282434 0.177355
O O4 0.607102 0.413099 0.338974
O O5 0.228216 0.417757 0.398473
O O6 0.250000 0.250000 0.108552
O O7 0.331971 0.132347 0.000000
O O8 0.091224 0.910770 0.000000
O O9 0.000000 0.000000 0.897155
#
# Coordination Sequence:
#
# PCOD9498876 Si02
#       4
#    16   8  16  16
#     4  11  21  37  62  97 139 177 230 287 350 423
#     4  12  25  40  61 100 150 192 227 278 353 444
#     4  11  23  39  62  93 137 188 232 277 339 419
#     4  10  22  42  70 101 135 186 249 303 355 418
#
# _framework density 22.544549
#
# number of rings (size 3 to 8) (size 9 to 14) (size 15 to 20)
#    0.000    1.143    1.429    7.286    0.000    4.571 
#    0.000    0.000    0.000   13.714    0.000   24.000 
#    0.000    0.000    0.000    0.000    0.000    0.000 
#
# Total GULP energy -156086.200254 kJ/mol
# GULP energy per Si atom -5574.507152 kJ/mol
# Density = 2.249324 g / cm^3
# Si number density = 22.544549 Si / 1000 Ang^3
#
#
#
# Elastic Constant Matrix: (Units=GPa)
#
#
# Indices 1 2 3 4 5 6 
#
# 1 72.7124 17.0327 47.6558 0.0000 0.0000 0.0000
# 2 17.0327 111.0587 49.1225 0.0000 0.0000 0.0000
# 3 47.6558 49.1225 248.0207 0.0000 0.0000 0.0000
# 4 0.0000 0.0000 0.0000 68.1769 0.0000 0.0000
# 5 0.0000 0.0000 0.0000 0.0000 37.7258 0.0000
# 6 0.0000 0.0000 0.0000 0.0000 0.0000 28.5400
#
#
#
# Elastic Compliance Matrix: (Units=1/GPa)
#
#
# Indices 1 2 3 4 5 6 
#
# 1 0.015876 -0.001190 -0.002815 0.000000 0.000000 0.000000
# 2 -0.001190 0.009958 -0.001744 0.000000 0.000000 0.000000
# 3 -0.002815 -0.001744 0.004918 0.000000 0.000000 0.000000
# 4 0.000000 0.000000 0.000000 0.014668 0.000000 0.000000
# 5 0.000000 0.000000 0.000000 0.000000 0.026507 0.000000
# 6 0.000000 0.000000 0.000000 0.000000 0.000000 0.035039
#
#
# Mechanical properties :
#
#
# Convention : Reuss Voigt Hill
#
# Bulk Modulus (GPa) = 51.93257 73.26821 62.60039
# Shear Modulus (GPa) = 40.03805 48.08725 44.06265
#
# Velocity S-wave (km/s) = 4.21878 4.62344 4.42574
# Velocity P-wave (km/s) = 6.84224 7.81482 7.34465
#
# Compressibility (1/GPa) = 0.01925574
#
# Stress axis : x y z
#
# Youngs Moduli (GPa) = 62.98650 100.42214 203.32928
#
# Poissons Ratio (x) = 0.11949 0.57235
# Poissons Ratio (y) = 0.07494 0.35453
# Poissons Ratio (z) = 0.17730 0.17510
#
# Static dielectric constant tensor:
#      x y z
#    x 1.814570 0.000000 0.000000 
#    y 0.000000 1.971570 0.000000 
#    z 0.000000 0.000000 1.909780 
# 
# From -- ./inp_files/23865.got.cif
#   From: 2010.05.17/outbox.cif.g08.bks.cpg/sg66_12_cif.got.tgz:23865.got - 2010.06.03 17:51:23.
