data_PCOD9498201
_publ_section_title
;
Structure prediction by ZEFSAII (Michael W. Deem and Ramdas Pophale) SiO2 
 PCOD9498201
Probable space group: C C C M
;
_chemical_formula_sum "Si O2"
_cell_formula_units_Z 88
_cell_length_a 19.755616
_cell_length_b 24.529070
_cell_length_c 8.624817
_cell_angle_alpha 90.000000
_cell_angle_beta 90.000000
_cell_angle_gamma 90.000000
_cell_volume 4179.473228
_symmetry_space_group_name_H-M "C C C M"
_symmetry_group_IT_number 66
_symmetry_cell_setting 'orthorhombic'
loop_
_space_group_symop_operation_xyz
x,y,z
-x,-y,z
x,-y,1/2-z
-x,y,1/2-z
-x,-y,-z
x,y,-z
-x,y,1/2+z
x,-y,1/2+z
1/2+x,1/2+y,z
1/2-x,1/2-y,z
1/2+x,1/2-y,1/2-z
1/2-x,1/2+y,1/2-z
1/2-x,1/2-y,-z
1/2+x,1/2+y,-z
1/2-x,1/2+y,1/2+z
1/2+x,1/2-y,1/2+z
loop_
_atom_site_type_symbol
_atom_site_label
_atom_site_fract_x
_atom_site_fract_y
_atom_site_fract_z
Si Si1 0.714769 0.350463 0.319253
Si Si2 0.075810 0.555047 0.315197
Si Si3 0.377279 0.561012 0.813723
Si Si4 0.106069 0.779333 0.169151
Si Si5 0.500000 0.633811 0.750000
Si Si6 0.632925 0.827942 0.814406
O O1 0.718076 0.366324 0.500000
O O2 0.688720 0.402204 0.221078
O O3 0.657713 0.304975 0.292189
O O4 0.787322 0.325857 0.276613
O O5 0.108895 0.500000 0.250000
O O6 0.073682 0.551142 0.500000
O O7 0.110947 0.611233 0.271639
O O8 0.000000 0.557271 0.250000
O O9 0.370242 0.500000 0.750000
O O10 0.438499 0.591279 0.719832
O O11 0.391928 0.561655 0.000000
O O12 0.043584 0.821022 0.157120
O O13 0.091686 0.718504 0.225331
O O14 0.139009 0.777810 0.000000
O O15 0.624274 0.820935 0.000000
#
# Coordination Sequence:
#
# PCOD9498201 Si02
#       6
#    16  16  16  16   8  16
#     4  10  21  40  62  86 121 162 200 247 303 356
#     4  10  21  39  60  85 115 149 189 237 291 350
#     4  11  24  41  64  93 124 163 208 256 308 365
#     4  11  24  39  60  89 121 159 203 250 301 356
#     4  10  23  40  58  86 123 160 202 250 304 356
#     4  10  23  40  61  89 121 157 199 245 300 361
#
# _framework density 21.055285999999999
#
# number of rings (size 3 to 8) (size 9 to 14) (size 15 to 20)
#    0.000    1.636    0.000    5.182    1.273   15.273 
#    0.000    1.818    0.000    0.000    0.000    0.000 
#    0.000    0.000    0.000    0.000    0.000    0.000 
#
# Total GULP energy -245218.586397 kJ/mol
# GULP energy per Si atom -5573.149691 kJ/mol
# Density = 2.100736 g / cm^3
# Si number density = 21.055286 Si / 1000 Ang^3
#
#
#
# Elastic Constant Matrix: (Units=GPa)
#
#
# Indices 1 2 3 4 5 6 
#
# 1 26.5940 7.1021 20.7403 0.0000 0.0000 0.0000
# 2 7.1021 155.6385 38.4282 0.0000 0.0000 0.0000
# 3 20.7403 38.4282 45.4119 0.0000 0.0000 0.0000
# 4 0.0000 0.0000 0.0000 20.6356 0.0000 0.0000
# 5 0.0000 0.0000 0.0000 0.0000 -29.9430 0.0000
# 6 0.0000 0.0000 0.0000 0.0000 0.0000 20.3305
#
#
#
# Elastic Compliance Matrix: (Units=1/GPa)
#
#
# Indices 1 2 3 4 5 6 
#
# 1 0.061596 0.005227 -0.032555 0.000000 0.000000 0.000000
# 2 0.005227 0.008566 -0.009636 0.000000 0.000000 0.000000
# 3 -0.032555 -0.009636 0.045043 0.000000 0.000000 0.000000
# 4 0.000000 0.000000 0.000000 0.048460 0.000000 0.000000
# 5 0.000000 0.000000 0.000000 0.000000 -0.033397 0.000000
# 6 0.000000 0.000000 0.000000 0.000000 0.000000 0.049187
#
#
# Mechanical properties :
#
#
# Convention : Reuss Voigt Hill
#
# Bulk Modulus (GPa) = 24.22639 40.02061 32.12350
# Shear Modulus (GPa) = 18.71669 12.96289 15.83979
#
# Velocity S-wave (km/s) = 2.98473 2.48394 2.74578
# Velocity P-wave (km/s) = 4.83831 5.22257 5.03411
#
# Compressibility (1/GPa) = 0.04127731
#
# Stress axis : x y z
#
# Youngs Moduli (GPa) = 16.23488 116.74356 22.20098
#
# Poissons Ratio (x) = -0.61026 0.72276
# Poissons Ratio (y) = -0.08487 0.21393
# Poissons Ratio (z) = 0.52853 1.12493
#
# Static dielectric constant tensor:
#      x y z
#    x 1.755460 0.000000 0.000000 
#    y 0.000000 1.764190 0.000000 
#    z 0.000000 0.000000 0.889590 
# 
# From -- ./inp_files/8986.got.cif
#   From: 2010.05.17/outbox.cif.g08.bks.cpg/sg66_5_cif.got.tgz:8986.got - 2010.06.03 17:51:23.
