data_PCOD9498337
_publ_section_title
;
Structure prediction by ZEFSAII (Michael W. Deem and Ramdas Pophale) SiO2 
 PCOD9498337
Probable space group: C C C M
;
_chemical_formula_sum "Si O2"
_cell_formula_units_Z 52
_cell_length_a 18.199128
_cell_length_b 5.397806
_cell_length_c 24.207486
_cell_angle_alpha 90.000000
_cell_angle_beta 90.000000
_cell_angle_gamma 90.000000
_cell_volume 2378.031158
_symmetry_space_group_name_H-M "C C C M"
_symmetry_group_IT_number 66
_symmetry_cell_setting 'orthorhombic'
loop_
_space_group_symop_operation_xyz
x,y,z
-x,-y,z
x,-y,1/2-z
-x,y,1/2-z
-x,-y,-z
x,y,-z
-x,y,1/2+z
x,-y,1/2+z
1/2+x,1/2+y,z
1/2-x,1/2-y,z
1/2+x,1/2-y,1/2-z
1/2-x,1/2+y,1/2-z
1/2-x,1/2-y,-z
1/2+x,1/2+y,-z
1/2-x,1/2+y,1/2+z
1/2+x,1/2-y,1/2+z
loop_
_atom_site_type_symbol
_atom_site_label
_atom_site_fract_x
_atom_site_fract_y
_atom_site_fract_z
Si Si1 0.418077 0.748110 0.226288
Si Si2 0.000000 0.500000 0.000000
Si Si3 0.589566 0.249871 0.096851
Si Si4 0.837590 0.262402 0.438391
O O1 0.380635 0.500000 0.250000
O O2 0.500000 0.749541 0.250000
O O3 0.430804 0.734750 0.160825
O O4 0.382423 0.000000 0.250000
O O5 0.971344 0.306770 0.050381
O O6 0.631429 0.502762 0.081982
O O7 0.640823 0.005955 0.094398
O O8 0.870950 0.310871 0.500000
O O9 0.750000 0.250000 0.441995
#
# Coordination Sequence:
#
# PCOD9498337 Si02
#       4
#    16   4  16  16
#     4  10  21  40  61  90 125 179 214 251 320 401
#     4  12  24  38  60 110 140 162 204 278 356 390
#     4  12  24  40  67 100 136 168 220 278 332 410
#     4  11  23  44  66  94 133 178 223 267 334 403
#
# _framework density 21.866826
#
# number of rings (size 3 to 8) (size 9 to 14) (size 15 to 20)
#    0.000    0.923    3.077    4.615    0.000    7.385 
#    0.000    0.000    0.000   18.462    0.000    0.000 
#    0.000    0.000    0.000    0.000    0.000    0.000 
#
# Total GULP energy -144835.973560 kJ/mol
# GULP energy per Si atom -5570.614368 kJ/mol
# Density = 2.181706 g / cm^3
# Si number density = 21.866826 Si / 1000 Ang^3
#
#
#
# Elastic Constant Matrix: (Units=GPa)
#
#
# Indices 1 2 3 4 5 6 
#
# 1 27.1321 30.5840 33.9892 0.0000 0.0000 0.0000
# 2 30.5840 221.6397 67.3975 0.0000 0.0000 0.0000
# 3 33.9892 67.3975 239.9967 0.0000 0.0000 0.0000
# 4 0.0000 0.0000 0.0000 793.8941 0.0000 0.0000
# 5 0.0000 0.0000 0.0000 0.0000 25.3924 0.0000
# 6 0.0000 0.0000 0.0000 0.0000 0.0000 -29.3467
#
#
#
# Elastic Compliance Matrix: (Units=1/GPa)
#
#
# Indices 1 2 3 4 5 6 
#
# 1 0.049665 -0.005155 -0.005586 0.000000 0.000000 0.000000
# 2 -0.005155 0.005468 -0.000806 0.000000 0.000000 0.000000
# 3 -0.005586 -0.000806 0.005184 0.000000 0.000000 0.000000
# 4 0.000000 0.000000 0.000000 0.001260 0.000000 0.000000
# 5 0.000000 0.000000 0.000000 0.000000 0.039382 0.000000
# 6 0.000000 0.000000 0.000000 0.000000 0.000000 -0.034075
#
#
# Mechanical properties :
#
#
# Convention : Reuss Voigt Hill
#
# Bulk Modulus (GPa) = 26.86397 83.63441 55.24919
# Shear Modulus (GPa) = 48.83557 181.77447 115.30502
#
# Velocity S-wave (km/s) = 4.73093 9.12734 7.26946
# Velocity P-wave (km/s) = 6.49262 12.22326 9.78678
#
# Compressibility (1/GPa) = 0.03722458
#
# Stress axis : x y z
#
# Youngs Moduli (GPa) = 20.13484 182.87987 192.89792
#
# Poissons Ratio (x) = 0.94267 1.07757
# Poissons Ratio (y) = 0.10379 0.15539
# Poissons Ratio (z) = 0.11248 0.14732
#
# Static dielectric constant tensor:
#      x y z
#    x 2.547940 0.000000 0.000000 
#    y 0.000000 1.920430 0.000000 
#    z 0.000000 0.000000 1.810580 
# 
# From -- ./inp_files/45331.got.cif
#   From: 2010.05.17/outbox.cif.g08.bks.cpg/sg66_23_cif.got.tgz:45331.got - 2010.06.03 17:51:23.
