data_PCOD9498078
_publ_section_title
;
Structure prediction by ZEFSAII (Michael W. Deem and Ramdas Pophale) SiO2 
 PCOD9498078
Probable space group: C C C M
;
_chemical_formula_sum "Si O2"
_cell_formula_units_Z 56
_cell_length_a 5.055362
_cell_length_b 22.408669
_cell_length_c 26.687488
_cell_angle_alpha 90.000000
_cell_angle_beta 90.000000
_cell_angle_gamma 90.000000
_cell_volume 3023.263622
_symmetry_space_group_name_H-M "C C C M"
_symmetry_group_IT_number 66
_symmetry_cell_setting 'orthorhombic'
loop_
_space_group_symop_operation_xyz
x,y,z
-x,-y,z
x,-y,1/2-z
-x,y,1/2-z
-x,-y,-z
x,y,-z
-x,y,1/2+z
x,-y,1/2+z
1/2+x,1/2+y,z
1/2-x,1/2-y,z
1/2+x,1/2-y,1/2-z
1/2-x,1/2+y,1/2-z
1/2-x,1/2-y,-z
1/2+x,1/2+y,-z
1/2-x,1/2+y,1/2+z
1/2+x,1/2-y,1/2+z
loop_
_atom_site_type_symbol
_atom_site_label
_atom_site_fract_x
_atom_site_fract_y
_atom_site_fract_z
Si Si1 0.577101 0.863845 0.845785
Si Si2 0.250000 0.250000 0.217770
Si Si3 0.064522 0.930181 0.808160
Si Si4 0.498787 0.207036 0.442407
O O1 0.619315 0.802666 0.814712
O O2 0.357535 0.906845 0.820987
O O3 0.499547 0.844800 0.901611
O O4 0.859837 0.895179 0.842949
O O5 0.500000 0.273468 0.250000
O O6 0.000000 0.916872 0.750000
O O7 0.000000 0.000000 0.814926
O O8 0.499292 0.185680 0.500000
O O9 0.750000 0.250000 0.434959
O O10 0.250000 0.250000 0.434794
#
# Coordination Sequence:
#
# PCOD9498078 Si02
#       4
#    16   8  16  16
#     4  12  22  38  61  85 119 153 191 244 290 346
#     4  12  24  34  53  90 129 152 180 234 310 360
#     4  11  24  41  59  82 115 162 207 235 274 340
#     4  10  21  38  59  86 118 151 189 231 289 360
#
# _framework density 18.523028
#
# number of rings (size 3 to 8) (size 9 to 14) (size 15 to 20)
#    0.000    0.857    1.429    7.714    2.000    2.286 
#    0.000    0.000    0.000    5.143    0.000    0.000 
#    0.000    0.000    0.000    0.000    0.000    0.000 
#
# Total GULP energy -156511.661778 kJ/mol
# GULP energy per Si atom -5589.702206 kJ/mol
# Density = 1.848087 g / cm^3
# Si number density = 18.523028 Si / 1000 Ang^3
#
#
#
# Elastic Constant Matrix: (Units=GPa)
#
#
# Indices 1 2 3 4 5 6 
#
# 1 102.7017 7.0337 4.6911 0.0000 0.0000 0.0000
# 2 7.0337 84.0263 24.3941 0.0000 0.0000 0.0000
# 3 4.6911 24.3941 86.8647 0.0000 0.0000 0.0000
# 4 0.0000 0.0000 0.0000 29.9887 0.0000 0.0000
# 5 0.0000 0.0000 0.0000 0.0000 28.2642 0.0000
# 6 0.0000 0.0000 0.0000 0.0000 0.0000 -7.5533
#
#
#
# Elastic Compliance Matrix: (Units=1/GPa)
#
#
# Indices 1 2 3 4 5 6 
#
# 1 0.009802 -0.000726 -0.000325 0.000000 0.000000 0.000000
# 2 -0.000726 0.013011 -0.003615 0.000000 0.000000 0.000000
# 3 -0.000325 -0.003615 0.012545 0.000000 0.000000 0.000000
# 4 0.000000 0.000000 0.000000 0.033346 0.000000 0.000000
# 5 0.000000 0.000000 0.000000 0.000000 0.035380 0.000000
# 6 0.000000 0.000000 0.000000 0.000000 0.000000 -0.132392
#
#
# Mechanical properties :
#
#
# Convention : Reuss Voigt Hill
#
# Bulk Modulus (GPa) = 38.42419 38.42563 38.42491
# Shear Modulus (GPa) = -485.42039 25.97150 -229.72445
#
# Velocity S-wave (km/s) = -16.20593 3.74855 -11.14855
# Velocity P-wave (km/s) = 18.14902 6.28692 12.03872
#
# Compressibility (1/GPa) = 0.02602527
#
# Stress axis : x y z
#
# Youngs Moduli (GPa) = 102.02499 76.85677 79.71400
#
# Poissons Ratio (x) = 0.05580 0.02594
# Poissons Ratio (y) = 0.07407 0.28814
# Poissons Ratio (z) = 0.03320 0.27782
#
# Static dielectric constant tensor:
#      x y z
#    x 1.619160 0.000000 0.000000 
#    y 0.000000 1.659220 0.000000 
#    z 0.000000 0.000000 1.657460 
# 
# From -- ./inp_files/53899.got.cif
#   From: 2010.05.17/outbox.cif.g08.bks.cpg/sg66_27_cif.got.tgz:53899.got - 2010.06.03 17:51:23.
