data_PCOD9498380
_publ_section_title
;
Structure prediction by ZEFSAII (Michael W. Deem and Ramdas Pophale) SiO2 
 PCOD9498380
Probable space group: C C C M
;
_chemical_formula_sum "Si O2"
_cell_formula_units_Z 112
_cell_length_a 32.112518
_cell_length_b 11.676031
_cell_length_c 16.059585
_cell_angle_alpha 90.000000
_cell_angle_beta 90.000000
_cell_angle_gamma 90.000000
_cell_volume 6021.489293
_symmetry_space_group_name_H-M "C C C M"
_symmetry_group_IT_number 66
_symmetry_cell_setting 'orthorhombic'
loop_
_space_group_symop_operation_xyz
x,y,z
-x,-y,z
x,-y,1/2-z
-x,y,1/2-z
-x,-y,-z
x,y,-z
-x,y,1/2+z
x,-y,1/2+z
1/2+x,1/2+y,z
1/2-x,1/2-y,z
1/2+x,1/2-y,1/2-z
1/2-x,1/2+y,1/2-z
1/2-x,1/2-y,-z
1/2+x,1/2+y,-z
1/2-x,1/2+y,1/2+z
1/2+x,1/2-y,1/2+z
loop_
_atom_site_type_symbol
_atom_site_label
_atom_site_fract_x
_atom_site_fract_y
_atom_site_fract_z
Si Si1 0.082592 0.262059 0.130924
Si Si2 0.155730 0.130113 0.595629
Si Si3 0.721230 0.364539 0.246352
Si Si4 0.836130 0.132569 0.408844
Si Si5 0.078342 0.261632 0.672641
Si Si6 0.998344 0.869464 0.596667
Si Si7 0.548057 0.988875 0.597141
O O1 0.126072 0.220800 0.094547
O O2 0.086275 0.250875 0.230027
O O3 0.070319 0.390069 0.106183
O O4 0.043930 0.184562 0.102457
O O5 0.168062 0.156990 0.500000
O O6 0.191974 0.143457 0.664284
O O7 0.115976 0.203882 0.622452
O O8 0.144749 0.995173 0.598210
O O9 0.737526 0.500000 0.250000
O O10 0.750000 0.250000 0.243782
O O11 0.694095 0.352654 0.330675
O O12 0.815167 0.139392 0.500000
O O13 0.035013 0.200848 0.649080
O O14 0.072083 0.393116 0.648092
O O15 0.984726 0.867022 0.500000
O O16 0.000000 0.000000 0.625177
O O17 0.546606 0.953759 0.500000
O O18 0.500000 0.000000 0.625704
#
# Coordination Sequence:
#
# PCOD9498380 Si02
#       7
#    16  16  16  16  16  16  16
#     4  12  23  37  58  85 118 158 207 255 305 359
#     4  10  21  40  66  93 125 164 204 250 306 364
#     4  10  22  44  70  99 130 161 199 250 311 382
#     4  10  21  40  66  93 125 164 204 250 306 364
#     4  12  23  37  58  85 118 158 207 255 305 359
#     4  11  23  36  53  80 115 157 205 254 300 353
#     4  11  23  39  57  77 114 166 212 255 307 363
#
# _framework density 18.60005
#
# number of rings (size 3 to 8) (size 9 to 14) (size 15 to 20)
#    0.000    1.143    2.857    4.286    0.000    5.714 
#    2.571    0.000    0.000    0.000    0.000    0.000 
#    0.000    0.000    0.000    0.000    0.000    0.000 
#
# Total GULP energy -312748.902403 kJ/mol
# GULP energy per Si atom -5584.801829 kJ/mol
# Density = 1.855772 g / cm^3
# Si number density = 18.600050 Si / 1000 Ang^3
#
#
#
# Elastic Constant Matrix: (Units=GPa)
#
#
# Indices 1 2 3 4 5 6 
#
# 1 57.3881 45.4459 22.3888 0.0000 0.0000 0.0000
# 2 45.4459 120.6500 15.7248 0.0000 0.0000 0.0000
# 3 22.3888 15.7248 108.9386 0.0000 0.0000 0.0000
# 4 0.0000 0.0000 0.0000 42.7866 0.0000 0.0000
# 5 0.0000 0.0000 0.0000 0.0000 16.8782 0.0000
# 6 0.0000 0.0000 0.0000 0.0000 0.0000 37.8846
#
#
#
# Elastic Compliance Matrix: (Units=1/GPa)
#
#
# Indices 1 2 3 4 5 6 
#
# 1 0.026502 -0.009451 -0.004082 0.000000 0.000000 0.000000
# 2 -0.009451 0.011817 0.000236 0.000000 0.000000 0.000000
# 3 -0.004082 0.000236 0.009984 0.000000 0.000000 0.000000
# 4 0.000000 0.000000 0.000000 0.023372 0.000000 0.000000
# 5 0.000000 0.000000 0.000000 0.000000 0.059248 0.000000
# 6 0.000000 0.000000 0.000000 0.000000 0.000000 0.026396
#
#
# Mechanical properties :
#
#
# Convention : Reuss Voigt Hill
#
# Bulk Modulus (GPa) = 46.06050 50.45509 48.25780
# Shear Modulus (GPa) = 26.15758 33.07102 29.61430
#
# Velocity S-wave (km/s) = 3.75416 4.22122 3.99452
# Velocity P-wave (km/s) = 6.60371 7.13747 6.87577
#
# Compressibility (1/GPa) = 0.02171058
#
# Stress axis : x y z
#
# Youngs Moduli (GPa) = 37.73325 84.62099 100.15660
#
# Poissons Ratio (x) = 0.79971 0.40888
# Poissons Ratio (y) = 0.35660 -0.02368
# Poissons Ratio (z) = 0.15404 -0.02001
#
# Static dielectric constant tensor:
#      x y z
#    x 1.604550 0.000000 0.000000 
#    y 0.000000 1.660120 0.000000 
#    z 0.000000 0.000000 1.661210 
# 
# From -- ./inp_files/26971.got.cif
#   From: 2010.05.17/outbox.cif.g08.bks.cpg/sg66_14_cif.got.tgz:26971.got - 2010.06.03 17:51:23.
