data_PCOD9498510
_publ_section_title
;
Structure prediction by ZEFSAII (Michael W. Deem and Ramdas Pophale) SiO2 
 PCOD9498510
Probable space group: C C C M
;
_chemical_formula_sum "Si O2"
_cell_formula_units_Z 92
_cell_length_a 27.619550
_cell_length_b 19.344732
_cell_length_c 9.133330
_cell_angle_alpha 90.000000
_cell_angle_beta 90.000000
_cell_angle_gamma 90.000000
_cell_volume 4879.872392
_symmetry_space_group_name_H-M "C C C M"
_symmetry_group_IT_number 66
_symmetry_cell_setting 'orthorhombic'
loop_
_space_group_symop_operation_xyz
x,y,z
-x,-y,z
x,-y,1/2-z
-x,y,1/2-z
-x,-y,-z
x,y,-z
-x,y,1/2+z
x,-y,1/2+z
1/2+x,1/2+y,z
1/2-x,1/2-y,z
1/2+x,1/2-y,1/2-z
1/2-x,1/2+y,1/2-z
1/2-x,1/2-y,-z
1/2+x,1/2+y,-z
1/2-x,1/2+y,1/2+z
1/2+x,1/2-y,1/2+z
loop_
_atom_site_type_symbol
_atom_site_label
_atom_site_fract_x
_atom_site_fract_y
_atom_site_fract_z
Si Si1 0.684637 0.926210 0.173199
Si Si2 0.000000 0.500000 0.000000
Si Si3 0.000000 0.390156 0.250000
Si Si4 0.124380 0.823902 0.172628
Si Si5 0.949748 0.925027 0.176589
Si Si6 0.738404 0.328832 0.173200
Si Si7 0.900647 0.682588 0.171330
O O1 0.729042 0.882415 0.238737
O O2 0.636321 0.880713 0.196178
O O3 0.680710 0.000000 0.250000
O O4 0.691060 0.935739 0.000000
O O5 0.985434 0.442396 0.876817
O O6 0.954696 0.343671 0.298451
O O7 0.092318 0.874260 0.271495
O O8 0.181212 0.839780 0.191426
O O9 0.113970 0.746136 0.226125
O O10 0.112586 0.831483 0.000000
O O11 0.000000 0.899965 0.250000
O O12 0.941139 0.000000 0.250000
O O13 0.953573 0.929795 0.000000
O O14 0.750000 0.250000 0.218758
O O15 0.750095 0.334519 0.000000
O O16 0.896312 0.702979 0.000000
#
# Coordination Sequence:
#
# PCOD9498510 Si02
#       7
#    16   4   8  16  16  16  16
#     4  11  25  41  65  95 128 168 214 266 318 379
#     4  10  24  42  64  86 120 178 210 270 316 370
#     4  11  24  42  62  90 125 168 218 260 321 372
#     4  11  24  41  68  96 129 170 212 262 321 379
#     4  11  23  43  69  98 133 168 211 259 317 380
#     4  10  21  43  66  92 124 164 210 262 321 377
#     4  11  25  42  61  94 130 170 215 265 320 378
#
# _framework density 18.852951999999998
#
# number of rings (size 3 to 8) (size 9 to 14) (size 15 to 20)
#    0.000    1.217    2.609    3.130    4.870    3.130 
#    0.000    0.000    0.000    0.000    0.000    0.000 
#    0.000    0.000    0.000    0.000    0.000    0.000 
#
# Total GULP energy -256502.112386 kJ/mol
# GULP energy per Si atom -5576.132878 kJ/mol
# Density = 1.881004 g / cm^3
# Si number density = 18.852952 Si / 1000 Ang^3
#
#
#
# Elastic Constant Matrix: (Units=GPa)
#
#
# Indices 1 2 3 4 5 6 
#
# 1 93.0575 50.2585 54.2967 0.0000 0.0000 0.0000
# 2 50.2585 69.7002 52.5718 0.0000 0.0000 0.0000
# 3 54.2967 52.5718 142.0487 0.0000 0.0000 0.0000
# 4 0.0000 0.0000 0.0000 37.0746 0.0000 0.0000
# 5 0.0000 0.0000 0.0000 0.0000 27.7920 0.0000
# 6 0.0000 0.0000 0.0000 0.0000 0.0000 14.3704
#
#
#
# Elastic Compliance Matrix: (Units=1/GPa)
#
#
# Indices 1 2 3 4 5 6 
#
# 1 0.018452 -0.011078 -0.002953 0.000000 0.000000 0.000000
# 2 -0.011078 0.026553 -0.005593 0.000000 0.000000 0.000000
# 3 -0.002953 -0.005593 0.010239 0.000000 0.000000 0.000000
# 4 0.000000 0.000000 0.000000 0.026973 0.000000 0.000000
# 5 0.000000 0.000000 0.000000 0.000000 0.035982 0.000000
# 6 0.000000 0.000000 0.000000 0.000000 0.000000 0.069587
#
#
# Mechanical properties :
#
#
# Convention : Reuss Voigt Hill
#
# Bulk Modulus (GPa) = 62.51471 68.78448 65.64959
# Shear Modulus (GPa) = 21.51780 25.69271 23.60525
#
# Velocity S-wave (km/s) = 3.38205 3.69561 3.54230
# Velocity P-wave (km/s) = 6.96291 7.40094 7.18527
#
# Compressibility (1/GPa) = 0.01599623
#
# Stress axis : x y z
#
# Youngs Moduli (GPa) = 54.19465 37.65991 97.66875
#
# Poissons Ratio (x) = 0.41718 0.28845
# Poissons Ratio (y) = 0.60035 0.54627
# Poissons Ratio (z) = 0.16005 0.21063
#
# Static dielectric constant tensor:
#      x y z
#    x 1.644280 0.000000 0.000000 
#    y 0.000000 1.629710 0.000000 
#    z 0.000000 0.000000 1.636690 
# 
# From -- ./inp_files/10320.got.cif
#   From: 2010.05.17/outbox.cif.g08.bks.cpg/sg66_6_cif.got.tgz:10320.got - 2010.06.03 17:51:23.
