data_PCOD9498701
_publ_section_title
;
Structure prediction by ZEFSAII (Michael W. Deem and Ramdas Pophale) SiO2 
 PCOD9498701
Probable space group: C C C M
;
_chemical_formula_sum "Si O2"
_cell_formula_units_Z 64
_cell_length_a 11.485273
_cell_length_b 15.081855
_cell_length_c 16.198250
_cell_angle_alpha 90.000000
_cell_angle_beta 90.000000
_cell_angle_gamma 90.000000
_cell_volume 2805.848263
_symmetry_space_group_name_H-M "C C C M"
_symmetry_group_IT_number 66
_symmetry_cell_setting 'orthorhombic'
loop_
_space_group_symop_operation_xyz
x,y,z
-x,-y,z
x,-y,1/2-z
-x,y,1/2-z
-x,-y,-z
x,y,-z
-x,y,1/2+z
x,-y,1/2+z
1/2+x,1/2+y,z
1/2-x,1/2-y,z
1/2+x,1/2-y,1/2-z
1/2-x,1/2+y,1/2-z
1/2-x,1/2-y,-z
1/2+x,1/2+y,-z
1/2-x,1/2+y,1/2+z
1/2+x,1/2-y,1/2+z
loop_
_atom_site_type_symbol
_atom_site_label
_atom_site_fract_x
_atom_site_fract_y
_atom_site_fract_z
Si Si1 0.427298 0.306815 0.596484
Si Si2 0.248584 0.089500 0.712089
Si Si3 0.143419 0.704967 0.358864
Si Si4 0.428665 0.106560 0.411319
O O1 0.446951 0.334097 0.500000
O O2 0.344941 0.369029 0.649437
O O3 0.547345 0.284153 0.646067
O O4 0.376347 0.206783 0.590783
O O5 0.297882 0.160668 0.778348
O O6 0.197916 0.000000 0.750000
O O7 0.364028 0.059407 0.662012
O O8 0.250000 0.750000 0.405914
O O9 0.064529 0.628698 0.399926
O O10 0.404123 0.067051 0.500000
#
# Coordination Sequence:
#
# PCOD9498701 Si02
#       4
#    16  16  16  16
#     4   9  21  43  70  95 129 184 236 272 332 415
#     4  12  24  38  64 105 141 172 226 289 354 403
#     4  10  22  39  68  99 135 175 237 287 326 396
#     4   9  20  39  68  94 128 180 233 274 331 409
#
# _framework density 22.809501999999998
#
# number of rings (size 3 to 8) (size 9 to 14) (size 15 to 20)
#    1.500    0.500    0.000    3.750    3.500    6.000 
#    0.000    8.750    0.000    1.500    0.000    0.000 
#    0.000    0.000    0.000    0.000    0.000    0.000 
#
# Total GULP energy -178148.286456 kJ/mol
# GULP energy per Si atom -5567.133952 kJ/mol
# Density = 2.275759 g / cm^3
# Si number density = 22.809502 Si / 1000 Ang^3
#
#
#
# Elastic Constant Matrix: (Units=GPa)
#
#
# Indices 1 2 3 4 5 6 
#
# 1 122.4585 46.4491 46.8667 0.0000 0.0000 0.0000
# 2 46.4491 102.6873 57.7341 0.0000 0.0000 0.0000
# 3 46.8667 57.7341 141.6783 0.0000 0.0000 0.0000
# 4 0.0000 0.0000 0.0000 23.1643 0.0000 0.0000
# 5 0.0000 0.0000 0.0000 0.0000 -5.2300 0.0000
# 6 0.0000 0.0000 0.0000 0.0000 0.0000 30.3134
#
#
#
# Elastic Compliance Matrix: (Units=1/GPa)
#
#
# Indices 1 2 3 4 5 6 
#
# 1 0.010256 -0.003544 -0.001949 0.000000 0.000000 0.000000
# 2 -0.003544 0.013857 -0.004475 0.000000 0.000000 0.000000
# 3 -0.001949 -0.004475 0.009526 0.000000 0.000000 0.000000
# 4 0.000000 0.000000 0.000000 0.043170 0.000000 0.000000
# 5 0.000000 0.000000 0.000000 0.000000 -0.191203 0.000000
# 6 0.000000 0.000000 0.000000 0.000000 0.000000 0.032989
#
#
# Mechanical properties :
#
#
# Convention : Reuss Voigt Hill
#
# Bulk Modulus (GPa) = 72.96255 74.32487 73.64371
# Shear Modulus (GPa) = -87.86811 24.03447 -31.91682
#
# Velocity S-wave (km/s) = -6.21339 3.24960 -3.74475
# Velocity P-wave (km/s) = 4.40656 6.83635 3.69580
#
# Compressibility (1/GPa) = 0.01370566
#
# Stress axis : x y z
#
# Youngs Moduli (GPa) = 97.50511 72.16630 104.97356
#
# Poissons Ratio (x) = 0.25572 0.20455
# Poissons Ratio (y) = 0.34551 0.46971
# Poissons Ratio (z) = 0.19000 0.32291
#
# Static dielectric constant tensor:
#      x y z
#    x 1.905030 0.000000 0.000000 
#    y 0.000000 1.924440 0.000000 
#    z 0.000000 0.000000 1.864970 
# 
# From -- ./inp_files/37996.got.cif
#   From: 2010.05.17/outbox.cif.g08.bks.cpg/sg66_19_cif.got.tgz:37996.got - 2010.06.03 17:51:23.
