data_PCOD9498802
_publ_section_title
;
Structure prediction by ZEFSAII (Michael W. Deem and Ramdas Pophale) SiO2 
 PCOD9498802
Probable space group: C C C M
;
_chemical_formula_sum "Si O2"
_cell_formula_units_Z 116
_cell_length_a 19.224895
_cell_length_b 12.657226
_cell_length_c 25.438063
_cell_angle_alpha 90.000000
_cell_angle_beta 90.000000
_cell_angle_gamma 90.000000
_cell_volume 6189.941573
_symmetry_space_group_name_H-M "C C C M"
_symmetry_group_IT_number 66
_symmetry_cell_setting 'orthorhombic'
loop_
_space_group_symop_operation_xyz
x,y,z
-x,-y,z
x,-y,1/2-z
-x,y,1/2-z
-x,-y,-z
x,y,-z
-x,y,1/2+z
x,-y,1/2+z
1/2+x,1/2+y,z
1/2-x,1/2-y,z
1/2+x,1/2-y,1/2-z
1/2-x,1/2+y,1/2-z
1/2-x,1/2-y,-z
1/2+x,1/2+y,-z
1/2-x,1/2+y,1/2+z
1/2+x,1/2-y,1/2+z
loop_
_atom_site_type_symbol
_atom_site_label
_atom_site_fract_x
_atom_site_fract_y
_atom_site_fract_z
Si Si1 0.567329 0.383298 0.349708
Si Si2 0.328620 0.794491 0.325101
Si Si3 0.318198 0.966431 0.135036
Si Si4 0.059341 0.576008 0.937935
Si Si5 0.667230 0.231779 0.203362
Si Si6 0.458197 0.324359 0.561098
Si Si7 0.343578 0.414190 0.624332
Si Si8 0.000000 0.000000 0.750000
O O1 0.611787 0.275190 0.352462
O O2 0.507658 0.375422 0.394310
O O3 0.621141 0.474953 0.364210
O O4 0.539284 0.421496 0.291984
O O5 0.250000 0.750000 0.332960
O O6 0.348720 0.778714 0.264152
O O7 0.324565 0.916664 0.341311
O O8 0.366633 0.955659 0.084863
O O9 0.347588 0.878227 0.174936
O O10 0.238818 0.933434 0.122840
O O11 0.042256 0.698727 0.929250
O O12 0.000000 0.500000 0.914786
O O13 0.061321 0.560342 0.000000
O O14 0.750000 0.250000 0.200846
O O15 0.637916 0.331249 0.171204
O O16 0.477684 0.345084 0.500000
O O17 0.380313 0.365937 0.573076
#
# Coordination Sequence:
#
# PCOD9498802 Si02
#       8
#    16  16  16  16  16  16  16   4
#     4  12  24  40  63  93 131 171 212 260 316 386
#     4  11  22  38  60  90 127 167 206 253 319 384
#     4  11  21  39  65  91 125 163 208 264 317 382
#     4  10  22  41  65  90 122 166 212 260 318 380
#     4   9  20  35  59  90 123 160 203 254 309 374
#     4  11  24  43  66  92 127 171 217 269 324 376
#     4  11  21  40  62  93 128 160 211 264 316 378
#     4  12  24  40  66  92 130 176 214 262 312 382
#
# _framework density 18.740079000000001
#
# number of rings (size 3 to 8) (size 9 to 14) (size 15 to 20)
#    0.000    1.241    4.138    2.069    0.000    1.655 
#    0.000    1.379    0.000    1.655    0.000    0.000 
#    0.000    0.000    0.000    0.000    0.000    0.000 
#
# Total GULP energy -323457.634143 kJ/mol
# GULP energy per Si atom -5576.855761 kJ/mol
# Density = 1.869743 g / cm^3
# Si number density = 18.740079 Si / 1000 Ang^3
#
#
#
# Elastic Constant Matrix: (Units=GPa)
#
#
# Indices 1 2 3 4 5 6 
#
# 1 96.1190 40.9829 46.3099 0.0000 0.0000 0.0000
# 2 40.9829 125.1440 40.8962 0.0000 0.0000 0.0000
# 3 46.3099 40.8962 75.4986 0.0000 0.0000 0.0000
# 4 0.0000 0.0000 0.0000 24.7533 0.0000 0.0000
# 5 0.0000 0.0000 0.0000 0.0000 25.6650 0.0000
# 6 0.0000 0.0000 0.0000 0.0000 0.0000 28.4338
#
#
#
# Elastic Compliance Matrix: (Units=1/GPa)
#
#
# Indices 1 2 3 4 5 6 
#
# 1 0.015324 -0.002365 -0.008118 0.000000 0.000000 0.000000
# 2 -0.002365 0.010075 -0.004006 0.000000 0.000000 0.000000
# 3 -0.008118 -0.004006 0.020395 0.000000 0.000000 0.000000
# 4 0.000000 0.000000 0.000000 0.040399 0.000000 0.000000
# 5 0.000000 0.000000 0.000000 0.000000 0.038964 0.000000
# 6 0.000000 0.000000 0.000000 0.000000 0.000000 0.035169
#
#
# Mechanical properties :
#
#
# Convention : Reuss Voigt Hill
#
# Bulk Modulus (GPa) = 59.47536 61.45995 60.46765
# Shear Modulus (GPa) = 25.65303 27.00859 26.33081
#
# Velocity S-wave (km/s) = 3.70386 3.80046 3.75247
# Velocity P-wave (km/s) = 7.07795 7.21978 7.14921
#
# Compressibility (1/GPa) = 0.01681369
#
# Stress axis : x y z
#
# Youngs Moduli (GPa) = 65.25912 99.25876 49.03178
#
# Poissons Ratio (x) = 0.23478 0.39804
# Poissons Ratio (y) = 0.15436 0.19644
# Poissons Ratio (z) = 0.52977 0.39767
#
# Static dielectric constant tensor:
#      x y z
#    x 1.648540 0.000000 0.000000 
#    y 0.000000 1.663030 0.000000 
#    z 0.000000 0.000000 1.658780 
# 
# From -- ./inp_files/65342.got.cif
#   From: 2010.05.17/outbox.cif.g08.bks.cpg/sg66_33_cif.got.tgz:65342.got - 2010.06.03 17:51:23.
