data_PCOD9498959
_publ_section_title
;
Structure prediction by ZEFSAII (Michael W. Deem and Ramdas Pophale) SiO2 
 PCOD9498959
Probable space group: C C C M
;
_chemical_formula_sum "Si O2"
_cell_formula_units_Z 80
_cell_length_a 15.126653
_cell_length_b 11.031723
_cell_length_c 21.920864
_cell_angle_alpha 90.000000
_cell_angle_beta 90.000000
_cell_angle_gamma 90.000000
_cell_volume 3658.001343
_symmetry_space_group_name_H-M "C C C M"
_symmetry_group_IT_number 66
_symmetry_cell_setting 'orthorhombic'
loop_
_space_group_symop_operation_xyz
x,y,z
-x,-y,z
x,-y,1/2-z
-x,y,1/2-z
-x,-y,-z
x,y,-z
-x,y,1/2+z
x,-y,1/2+z
1/2+x,1/2+y,z
1/2-x,1/2-y,z
1/2+x,1/2-y,1/2-z
1/2-x,1/2+y,1/2-z
1/2-x,1/2-y,-z
1/2+x,1/2+y,-z
1/2-x,1/2+y,1/2+z
1/2+x,1/2-y,1/2+z
loop_
_atom_site_type_symbol
_atom_site_label
_atom_site_fract_x
_atom_site_fract_y
_atom_site_fract_z
Si Si1 0.362381 0.026263 0.374572
Si Si2 0.960059 0.868851 0.633252
Si Si3 0.516948 0.650430 0.500000
Si Si4 0.531091 0.843243 0.818490
Si Si5 0.284497 0.621294 0.208443
Si Si6 0.585493 0.088439 0.500000
O O1 0.450807 0.107361 0.362022
O O2 0.277537 0.095768 0.350906
O O3 0.381913 0.919540 0.326645
O O4 0.363296 0.958605 0.439500
O O5 0.934313 0.831718 0.564341
O O6 0.882358 0.858539 0.681890
O O7 0.041697 0.790208 0.657859
O O8 0.000000 0.000000 0.630281
O O9 0.500000 0.500000 0.500000
O O10 0.444628 0.767011 0.500000
O O11 0.500000 0.852243 0.750000
O O12 0.283699 0.500000 0.250000
O O13 0.250000 0.750000 0.235331
O O14 0.500000 0.000000 0.500000
#
# Coordination Sequence:
#
# PCOD9498959 Si02
#       6
#    16  16   8  16  16   8
#     4  11  22  40  66 100 135 180 224 291 347 402
#     4  11  25  43  72 100 137 187 233 285 355 418
#     4  10  22  47  69  99 143 178 232 289 348 415
#     4  11  21  37  65  97 134 178 229 275 343 415
#     4  12  28  48  67 103 146 184 232 294 355 416
#     4  12  20  39  73 107 134 175 242 293 336 423
#
# _framework density 21.869865999999998
#
# number of rings (size 3 to 8) (size 9 to 14) (size 15 to 20)
#    0.000    0.800    6.000    2.400    2.800    0.800 
#    0.000    1.000    0.000    2.400    0.000    0.000 
#    0.000    0.000    0.000    0.000    0.000    0.000 
#
# Total GULP energy -222778.194869 kJ/mol
# GULP energy per Si atom -5569.454872 kJ/mol
# Density = 2.182009 g / cm^3
# Si number density = 21.869866 Si / 1000 Ang^3
#
#
#
# Elastic Constant Matrix: (Units=GPa)
#
#
# Indices 1 2 3 4 5 6 
#
# 1 24.9845 8.2108 -10.2964 0.0000 0.0000 0.0000
# 2 8.2108 141.2275 47.7211 0.0000 0.0000 0.0000
# 3 -10.2964 47.7211 117.0374 0.0000 0.0000 0.0000
# 4 0.0000 0.0000 0.0000 37.2512 0.0000 0.0000
# 5 0.0000 0.0000 0.0000 0.0000 26.9005 0.0000
# 6 0.0000 0.0000 0.0000 0.0000 0.0000 26.1924
#
#
#
# Elastic Compliance Matrix: (Units=1/GPa)
#
#
# Indices 1 2 3 4 5 6 
#
# 1 0.043832 -0.004467 0.005677 0.000000 0.000000 0.000000
# 2 -0.004467 0.008667 -0.003927 0.000000 0.000000 0.000000
# 3 0.005677 -0.003927 0.010645 0.000000 0.000000 0.000000
# 4 0.000000 0.000000 0.000000 0.026845 0.000000 0.000000
# 5 0.000000 0.000000 0.000000 0.000000 0.037174 0.000000
# 6 0.000000 0.000000 0.000000 0.000000 0.000000 0.038179
#
#
# Mechanical properties :
#
#
# Convention : Reuss Voigt Hill
#
# Bulk Modulus (GPa) = 17.32737 41.61337 29.47037
# Shear Modulus (GPa) = 26.31401 33.90975 30.11188
#
# Velocity S-wave (km/s) = 3.47249 3.94194 3.71464
# Velocity P-wave (km/s) = 4.90079 6.30774 5.64824
#
# Compressibility (1/GPa) = 0.05771215
#
# Stress axis : x y z
#
# Youngs Moduli (GPa) = 22.81414 115.37447 93.94097
#
# Poissons Ratio (x) = 0.51536 -0.53335
# Poissons Ratio (y) = 0.10191 0.36891
# Poissons Ratio (z) = -0.12953 0.45308
#
# Static dielectric constant tensor:
#      x y z
#    x 1.767110 0.000000 0.000000 
#    y 0.000000 1.799210 0.000000 
#    z 0.000000 0.000000 1.844360 
# 
# From -- ./inp_files/50827.got.cif
#   From: 2010.05.17/outbox.cif.g08.bks.cpg/sg66_26_cif.got.tgz:50827.got - 2010.06.03 17:51:23.
