data_PCOD9498976
_publ_section_title
;
Structure prediction by ZEFSAII (Michael W. Deem and Ramdas Pophale) SiO2 
 PCOD9498976
Probable space group: C C C M
;
_chemical_formula_sum "Si O2"
_cell_formula_units_Z 80
_cell_length_a 9.503424
_cell_length_b 19.514453
_cell_length_c 21.137843
_cell_angle_alpha 90.000000
_cell_angle_beta 90.000000
_cell_angle_gamma 90.000000
_cell_volume 3920.100093
_symmetry_space_group_name_H-M "C C C M"
_symmetry_group_IT_number 66
_symmetry_cell_setting 'orthorhombic'
loop_
_space_group_symop_operation_xyz
x,y,z
-x,-y,z
x,-y,1/2-z
-x,y,1/2-z
-x,-y,-z
x,y,-z
-x,y,1/2+z
x,-y,1/2+z
1/2+x,1/2+y,z
1/2-x,1/2-y,z
1/2+x,1/2-y,1/2-z
1/2-x,1/2+y,1/2-z
1/2-x,1/2-y,-z
1/2+x,1/2+y,-z
1/2-x,1/2+y,1/2+z
1/2+x,1/2-y,1/2+z
loop_
_atom_site_type_symbol
_atom_site_label
_atom_site_fract_x
_atom_site_fract_y
_atom_site_fract_z
Si Si1 0.353484 0.029464 0.128785
Si Si2 0.637556 0.363284 0.425198
Si Si3 0.908313 0.936793 0.342465
Si Si4 0.250000 0.750000 0.346019
Si Si5 0.000000 0.587332 0.250000
Si Si6 0.265556 0.825476 0.780148
O O1 0.277706 0.093184 0.094301
O O2 0.394996 0.048758 0.201611
O O3 0.500000 0.000000 0.101215
O O4 0.234241 0.971063 0.131678
O O5 0.630221 0.357336 0.500000
O O6 0.505295 0.403943 0.396581
O O7 0.642901 0.289114 0.391442
O O8 0.862325 0.875969 0.295278
O O9 0.000000 0.000000 0.316414
O O10 0.286224 0.808265 0.294217
O O11 0.906104 0.634101 0.296191
O O12 0.250000 0.750000 0.809982
#
# Coordination Sequence:
#
# PCOD9498976 Si02
#       6
#    16  16  16   8   8  16
#     4  11  22  40  66 100 138 174 221 278 350 408
#     4  11  25  47  69  93 133 186 239 282 327 403
#     4  10  24  42  66 102 137 182 228 282 341 420
#     4  10  23  42  64  98 125 176 226 284 346 424
#     4  12  21  40  62  98 143 176 204 286 353 434
#     4  10  23  38  64  99 141 170 216 281 358 418
#
# _framework density 20.407641999999999
#
# number of rings (size 3 to 8) (size 9 to 14) (size 15 to 20)
#    0.600    0.800    4.000    0.600    2.800    4.800 
#    3.600    0.000    0.000    0.600    0.000    0.000 
#    0.000    0.000    0.000    0.000    0.000    0.000 
#
# Total GULP energy -222779.419036 kJ/mol
# GULP energy per Si atom -5569.485476 kJ/mol
# Density = 2.036119 g / cm^3
# Si number density = 20.407642 Si / 1000 Ang^3
#
#
#
# Elastic Constant Matrix: (Units=GPa)
#
#
# Indices 1 2 3 4 5 6 
#
# 1 129.8033 41.9081 32.0800 0.0000 0.0000 0.0000
# 2 41.9081 105.9713 39.7078 0.0000 0.0000 0.0000
# 3 32.0800 39.7078 99.0402 0.0000 0.0000 0.0000
# 4 0.0000 0.0000 0.0000 6.7421 0.0000 0.0000
# 5 0.0000 0.0000 0.0000 0.0000 10.7748 0.0000
# 6 0.0000 0.0000 0.0000 0.0000 0.0000 16.2675
#
#
#
# Elastic Compliance Matrix: (Units=1/GPa)
#
#
# Indices 1 2 3 4 5 6 
#
# 1 0.009087 -0.002931 -0.001768 0.000000 0.000000 0.000000
# 2 -0.002931 0.012050 -0.003882 0.000000 0.000000 0.000000
# 3 -0.001768 -0.003882 0.012226 0.000000 0.000000 0.000000
# 4 0.000000 0.000000 0.000000 0.148321 0.000000 0.000000
# 5 0.000000 0.000000 0.000000 0.000000 0.092809 0.000000
# 6 0.000000 0.000000 0.000000 0.000000 0.000000 0.061472
#
#
# Mechanical properties :
#
#
# Convention : Reuss Voigt Hill
#
# Bulk Modulus (GPa) = 61.72449 62.46739 62.09594
# Shear Modulus (GPa) = 13.94587 21.49814 17.72201
#
# Velocity S-wave (km/s) = 2.61696 3.24919 2.95006
# Velocity P-wave (km/s) = 6.28035 6.68974 6.48827
#
# Compressibility (1/GPa) = 0.01620103
#
# Stress axis : x y z
#
# Youngs Moduli (GPa) = 110.04332 82.98609 81.79291
#
# Poissons Ratio (x) = 0.24324 0.14463
# Poissons Ratio (y) = 0.32255 0.31750
# Poissons Ratio (z) = 0.19459 0.32214
#
# Static dielectric constant tensor:
#      x y z
#    x 1.759770 0.000000 0.000000 
#    y 0.000000 1.861000 0.000000 
#    z 0.000000 0.000000 1.708030 
# 
# From -- ./inp_files/55419.got.cif
#   From: 2010.05.17/outbox.cif.g08.bks.cpg/sg66_28_cif.got.tgz:55419.got - 2010.06.03 17:51:23.
