data_PCOD9498070
_publ_section_title
;
Structure prediction by ZEFSAII (Michael W. Deem and Ramdas Pophale) SiO2 
 PCOD9498070
Probable space group: C C C M
;
_chemical_formula_sum "Si O2"
_cell_formula_units_Z 116
_cell_length_a 24.331004
_cell_length_b 26.213134
_cell_length_c 9.841459
_cell_angle_alpha 90.000000
_cell_angle_beta 90.000000
_cell_angle_gamma 90.000000
_cell_volume 6276.802521
_symmetry_space_group_name_H-M "C C C M"
_symmetry_group_IT_number 66
_symmetry_cell_setting 'orthorhombic'
loop_
_space_group_symop_operation_xyz
x,y,z
-x,-y,z
x,-y,1/2-z
-x,y,1/2-z
-x,-y,-z
x,y,-z
-x,y,1/2+z
x,-y,1/2+z
1/2+x,1/2+y,z
1/2-x,1/2-y,z
1/2+x,1/2-y,1/2-z
1/2-x,1/2+y,1/2-z
1/2-x,1/2-y,-z
1/2+x,1/2+y,-z
1/2-x,1/2+y,1/2+z
1/2+x,1/2-y,1/2+z
loop_
_atom_site_type_symbol
_atom_site_label
_atom_site_fract_x
_atom_site_fract_y
_atom_site_fract_z
Si Si1 0.000000 0.000000 0.750000
Si Si2 0.550213 0.321564 0.849210
Si Si3 0.054468 0.290121 0.659996
Si Si4 0.186649 0.105924 0.844293
Si Si5 0.851037 0.630005 0.344083
Si Si6 0.264048 0.691317 0.842920
Si Si7 0.696368 0.951122 0.155519
Si Si8 0.899912 0.067934 0.149794
O O1 0.956394 0.963541 0.671962
O O2 0.500000 0.328735 0.750000
O O3 0.578086 0.267285 0.819044
O O4 0.585443 0.372191 0.848099
O O5 0.526569 0.316604 0.000000
O O6 0.041101 0.295262 0.500000
O O7 0.099825 0.331930 0.691272
O O8 0.000000 0.294544 0.750000
O O9 0.197420 0.157887 0.757143
O O10 0.245358 0.078028 0.848135
O O11 0.144522 0.066926 0.769905
O O12 0.169085 0.116548 0.000000
O O13 0.858297 0.611271 0.500000
O O14 0.794177 0.661763 0.343707
O O15 0.845493 0.586017 0.233458
O O16 0.250000 0.750000 0.805130
O O17 0.285448 0.691280 0.000000
O O18 0.702569 0.000000 0.250000
O O19 0.680875 0.962891 0.000000
O O20 0.877466 0.054653 0.000000
#
# Coordination Sequence:
#
# PCOD9498070 Si02
#       8
#     4  16  16  16  16  16  16  16
#     4  12  26  44  60  86 110 148 204 266 322 360
#     4   9  18  34  54  76 104 140 183 230 277 333
#     4   9  18  32  54  82 114 148 186 226 271 328
#     4  10  23  39  56  82 114 147 189 238 290 349
#     4   9  18  33  54  82 113 146 184 228 275 333
#     4   9  18  33  57  85 115 151 190 231 285 349
#     4  10  21  38  59  83 111 144 183 228 277 335
#     4  11  24  40  60  80 107 146 193 247 303 358
#
# _framework density 18.480746
#
# number of rings (size 3 to 8) (size 9 to 14) (size 15 to 20)
#    0.000    2.345    0.690    1.034    2.897    4.138 
#    0.000    0.000    0.000    0.414    0.000    2.897 
#    0.000    0.000    0.000    0.000    0.000    0.000 
#
# Total GULP energy -323203.832778 kJ/mol
# GULP energy per Si atom -5572.479875 kJ/mol
# Density = 1.843868 g / cm^3
# Si number density = 18.480746 Si / 1000 Ang^3
#
#
#
# Elastic Constant Matrix: (Units=GPa)
#
#
# Indices 1 2 3 4 5 6 
#
# 1 51.2154 20.5706 35.6480 0.0000 0.0000 0.0000
# 2 20.5706 79.1057 57.8285 0.0000 0.0000 0.0000
# 3 35.6480 57.8285 110.4190 0.0000 0.0000 0.0000
# 4 0.0000 0.0000 0.0000 21.6003 0.0000 0.0000
# 5 0.0000 0.0000 0.0000 0.0000 22.5751 0.0000
# 6 0.0000 0.0000 0.0000 0.0000 0.0000 19.3303
#
#
#
# Elastic Compliance Matrix: (Units=1/GPa)
#
#
# Indices 1 2 3 4 5 6 
#
# 1 0.025232 -0.000983 -0.007631 0.000000 0.000000 0.000000
# 2 -0.000983 0.020522 -0.010430 0.000000 0.000000 0.000000
# 3 -0.007631 -0.010430 0.016983 0.000000 0.000000 0.000000
# 4 0.000000 0.000000 0.000000 0.046296 0.000000 0.000000
# 5 0.000000 0.000000 0.000000 0.000000 0.044297 0.000000
# 6 0.000000 0.000000 0.000000 0.000000 0.000000 0.051732
#
#
# Mechanical properties :
#
#
# Convention : Reuss Voigt Hill
#
# Bulk Modulus (GPa) = 40.57178 52.09271 46.33224
# Shear Modulus (GPa) = 19.89138 21.14735 20.51937
#
# Velocity S-wave (km/s) = 3.28431 3.38641 3.33575
# Velocity P-wave (km/s) = 6.03187 6.59842 6.32149
#
# Compressibility (1/GPa) = 0.02464767
#
# Stress axis : x y z
#
# Youngs Moduli (GPa) = 39.63265 48.72877 58.88327
#
# Poissons Ratio (x) = 0.04788 0.44936
# Poissons Ratio (y) = 0.03894 0.61418
# Poissons Ratio (z) = 0.30245 0.50826
#
# Static dielectric constant tensor:
#      x y z
#    x 1.614940 0.000000 0.000000 
#    y 0.000000 1.656810 0.000000 
#    z 0.000000 0.000000 1.656630 
# 
# From -- ./inp_files/9460.got.cif
#   From: 2010.05.17/outbox.cif.g08.bks.cpg/sg66_5_cif.got.tgz:9460.got - 2010.06.03 17:51:23.
