data_PCOD9498686
_publ_section_title
;
Structure prediction by ZEFSAII (Michael W. Deem and Ramdas Pophale) SiO2 
 PCOD9498686
Probable space group: C C C M
;
_chemical_formula_sum "Si O2"
_cell_formula_units_Z 88
_cell_length_a 14.391396
_cell_length_b 12.903857
_cell_length_c 21.787678
_cell_angle_alpha 90.000000
_cell_angle_beta 90.000000
_cell_angle_gamma 90.000000
_cell_volume 4046.070198
_symmetry_space_group_name_H-M "C C C M"
_symmetry_group_IT_number 66
_symmetry_cell_setting 'orthorhombic'
loop_
_space_group_symop_operation_xyz
x,y,z
-x,-y,z
x,-y,1/2-z
-x,y,1/2-z
-x,-y,-z
x,y,-z
-x,y,1/2+z
x,-y,1/2+z
1/2+x,1/2+y,z
1/2-x,1/2-y,z
1/2+x,1/2-y,1/2-z
1/2-x,1/2+y,1/2-z
1/2-x,1/2-y,-z
1/2+x,1/2+y,-z
1/2-x,1/2+y,1/2+z
1/2+x,1/2-y,1/2+z
loop_
_atom_site_type_symbol
_atom_site_label
_atom_site_fract_x
_atom_site_fract_y
_atom_site_fract_z
Si Si1 0.106960 0.703374 0.110330
Si Si2 0.612839 0.124571 0.754278
Si Si3 0.285948 0.990529 0.929674
Si Si4 0.605755 0.807255 0.926350
Si Si5 0.406511 0.441520 0.425162
Si Si6 0.750000 0.250000 0.337327
O O1 0.133398 0.672185 0.179096
O O2 0.169478 0.623013 0.072496
O O3 0.111600 0.824051 0.095470
O O4 0.999600 0.684238 0.094617
O O5 0.500000 0.144663 0.750000
O O6 0.687207 0.177736 0.707969
O O7 0.623939 0.000000 0.750000
O O8 0.185761 0.995394 0.899503
O O9 0.354013 0.079916 0.908778
O O10 0.269269 0.017563 0.000000
O O11 0.667445 0.726071 0.887661
O O12 0.610335 0.787513 0.000000
O O13 0.500000 0.500000 0.404994
O O14 0.409762 0.439728 0.500000
#
# Coordination Sequence:
#
# PCOD9498686 Si02
#       6
#    16  16  16  16  16   8
#     4  12  23  42  69 100 134 182 234 287 344 420
#     4  11  26  48  71  97 133 184 234 292 349 413
#     4  10  22  39  65 101 136 175 227 286 348 419
#     4  11  24  41  71 107 138 172 222 291 360 422
#     4  10  23  41  62  96 145 187 226 284 356 422
#     4  12  25  46  68 100 137 178 234 276 352 414
#
# _framework density 21.749499
#
# number of rings (size 3 to 8) (size 9 to 14) (size 15 to 20)
#    0.000    1.091    1.818    4.091    7.636    2.909 
#    0.000    0.000    0.000    0.000    0.000    0.000 
#    0.000    0.000    0.000    0.000    0.000    0.000 
#
# Total GULP energy -245148.126586 kJ/mol
# GULP energy per Si atom -5571.548332 kJ/mol
# Density = 2.170000 g / cm^3
# Si number density = 21.749499 Si / 1000 Ang^3
#
#
#
# Elastic Constant Matrix: (Units=GPa)
#
#
# Indices 1 2 3 4 5 6 
#
# 1 164.9579 62.0116 30.0360 0.0000 0.0000 0.0000
# 2 62.0116 136.6643 18.1703 0.0000 0.0000 0.0000
# 3 30.0360 18.1703 117.5580 0.0000 0.0000 0.0000
# 4 0.0000 0.0000 0.0000 21.0136 0.0000 0.0000
# 5 0.0000 0.0000 0.0000 0.0000 6.8783 0.0000
# 6 0.0000 0.0000 0.0000 0.0000 0.0000 24.4826
#
#
#
# Elastic Compliance Matrix: (Units=1/GPa)
#
#
# Indices 1 2 3 4 5 6 
#
# 1 0.007536 -0.003230 -0.001426 0.000000 0.000000 0.000000
# 2 -0.003230 0.008855 -0.000543 0.000000 0.000000 0.000000
# 3 -0.001426 -0.000543 0.008955 0.000000 0.000000 0.000000
# 4 0.000000 0.000000 0.000000 0.047588 0.000000 0.000000
# 5 0.000000 0.000000 0.000000 0.000000 0.145384 0.000000
# 6 0.000000 0.000000 0.000000 0.000000 0.000000 0.040845
#
#
# Mechanical properties :
#
#
# Convention : Reuss Voigt Hill
#
# Bulk Modulus (GPa) = 66.90390 71.06844 68.98617
# Shear Modulus (GPa) = 18.21195 31.07240 24.64218
#
# Velocity S-wave (km/s) = 2.89684 3.78385 3.36966
# Velocity P-wave (km/s) = 6.48204 7.19978 6.85032
#
# Compressibility (1/GPa) = 0.01494681
#
# Stress axis : x y z
#
# Youngs Moduli (GPa) = 132.69592 112.93044 111.67155
#
# Poissons Ratio (x) = 0.36475 0.15927
# Poissons Ratio (y) = 0.42859 0.06069
# Poissons Ratio (z) = 0.18925 0.06137
#
# Static dielectric constant tensor:
#      x y z
#    x 1.783580 0.000000 0.000000 
#    y 0.000000 1.791300 0.000000 
#    z 0.000000 0.000000 1.336920 
# 
# From -- ./inp_files/58010.got.cif
#   From: 2010.05.17/outbox.cif.g08.bks.cpg/sg66_30_cif.got.tgz:58010.got - 2010.06.03 17:51:23.
