data_PCOD9498870
_publ_section_title
;
Structure prediction by ZEFSAII (Michael W. Deem and Ramdas Pophale) SiO2 
 PCOD9498870
Probable space group: C C C M
;
_chemical_formula_sum "Si O2"
_cell_formula_units_Z 104
_cell_length_a 9.324872
_cell_length_b 27.273724
_cell_length_c 19.266500
_cell_angle_alpha 90.000000
_cell_angle_beta 90.000000
_cell_angle_gamma 90.000000
_cell_volume 4899.933062
_symmetry_space_group_name_H-M "C C C M"
_symmetry_group_IT_number 66
_symmetry_cell_setting 'orthorhombic'
loop_
_space_group_symop_operation_xyz
x,y,z
-x,-y,z
x,-y,1/2-z
-x,y,1/2-z
-x,-y,-z
x,y,-z
-x,y,1/2+z
x,-y,1/2+z
1/2+x,1/2+y,z
1/2-x,1/2-y,z
1/2+x,1/2-y,1/2-z
1/2-x,1/2+y,1/2-z
1/2-x,1/2-y,-z
1/2+x,1/2+y,-z
1/2-x,1/2+y,1/2+z
1/2+x,1/2-y,1/2+z
loop_
_atom_site_type_symbol
_atom_site_label
_atom_site_fract_x
_atom_site_fract_y
_atom_site_fract_z
Si Si1 0.240711 0.500000 0.250000
Si Si2 0.907791 0.731171 0.080285
Si Si3 0.576016 0.862594 0.825598
Si Si4 0.391247 0.404257 0.191963
Si Si5 0.089865 0.544341 0.882444
Si Si6 0.171512 0.203605 0.581250
Si Si7 0.371145 0.402368 0.420274
O O1 0.335624 0.456602 0.219042
O O2 0.143187 0.523767 0.191288
O O3 0.750000 0.750000 0.095179
O O4 0.949148 0.687337 0.131579
O O5 0.008373 0.778910 0.084299
O O6 0.916244 0.713559 0.000000
O O7 0.500000 0.861086 0.750000
O O8 0.747302 0.872530 0.818700
O O9 0.508853 0.908441 0.867967
O O10 0.500000 0.383275 0.250000
O O11 0.489232 0.413608 0.124659
O O12 0.239075 0.560296 0.917397
O O13 0.000000 0.500000 0.915808
O O14 0.218830 0.201199 0.500000
O O15 0.250000 0.250000 0.614535
O O16 0.189548 0.149431 0.609292
O O17 0.413519 0.394642 0.500000
#
# Coordination Sequence:
#
# PCOD9498870 Si02
#       7
#     8  16  16  16  16  16  16
#     4  12  22  42  70  90 118 182 228 264 310 420
#     4  10  22  42  68  95 130 179 225 269 337 422
#     4  12  23  41  68 102 133 169 226 292 345 394
#     4  12  24  40  69  94 128 178 230 269 331 410
#     4  12  23  42  70  97 133 180 227 270 334 410
#     4   9  18  37  63  88 122 171 217 259 319 403
#     4  11  25  43  65 100 137 171 222 283 340 395
#
# _framework density 21.224779000000002
#
# number of rings (size 3 to 8) (size 9 to 14) (size 15 to 20)
#    0.000    0.923    4.615    2.308    0.000    4.000 
#    0.000    6.923    0.000    0.000    0.000    0.000 
#    0.000    0.000    0.000    0.000    0.000    0.000 
#
# Total GULP energy -290543.676702 kJ/mol
# GULP energy per Si atom -5587.378398 kJ/mol
# Density = 2.117647 g / cm^3
# Si number density = 21.224779 Si / 1000 Ang^3
#
#
#
# Elastic Constant Matrix: (Units=GPa)
#
#
# Indices 1 2 3 4 5 6 
#
# 1 106.7390 18.4344 18.9710 0.0000 0.0000 0.0000
# 2 18.4344 87.9314 16.1200 0.0000 0.0000 0.0000
# 3 18.9710 16.1200 69.8343 0.0000 0.0000 0.0000
# 4 0.0000 0.0000 0.0000 27.2904 0.0000 0.0000
# 5 0.0000 0.0000 0.0000 0.0000 -45.1375 0.0000
# 6 0.0000 0.0000 0.0000 0.0000 0.0000 -3.4657
#
#
#
# Elastic Compliance Matrix: (Units=1/GPa)
#
#
# Indices 1 2 3 4 5 6 
#
# 1 0.010077 -0.001682 -0.002349 0.000000 0.000000 0.000000
# 2 -0.001682 0.012156 -0.002349 0.000000 0.000000 0.000000
# 3 -0.002349 -0.002349 0.015500 0.000000 0.000000 0.000000
# 4 0.000000 0.000000 0.000000 0.036643 0.000000 0.000000
# 5 0.000000 0.000000 0.000000 0.000000 -0.022155 0.000000
# 6 0.000000 0.000000 0.000000 0.000000 0.000000 -0.288545
#
#
# Mechanical properties :
#
#
# Convention : Reuss Voigt Hill
#
# Bulk Modulus (GPa) = 40.04445 41.28394 40.66420
# Shear Modulus (GPa) = -23.22992 9.80273 -6.71360
#
# Velocity S-wave (km/s) = -3.31187 2.15141 -1.78044
# Velocity P-wave (km/s) = 2.06958 5.06601 3.86960
#
# Compressibility (1/GPa) = 0.02497225
#
# Stress axis : x y z
#
# Youngs Moduli (GPa) = 99.23943 82.26569 64.51603
#
# Poissons Ratio (x) = 0.13836 0.15156
# Poissons Ratio (y) = 0.16691 0.15155
# Poissons Ratio (z) = 0.23313 0.19325
#
# Static dielectric constant tensor:
#      x y z
#    x 1.822110 0.000000 0.000000 
#    y 0.000000 1.772780 0.000000 
#    z 0.000000 0.000000 1.775010 
# 
# From -- ./inp_files/47393.got.cif
#   From: 2010.05.17/outbox.cif.g08.bks.cpg/sg66_24_cif.got.tgz:47393.got - 2010.06.03 17:51:23.
