data_PCOD9498927
_publ_section_title
;
Structure prediction by ZEFSAII (Michael W. Deem and Ramdas Pophale) SiO2 
 PCOD9498927
Probable space group: C C C M
;
_chemical_formula_sum "Si O2"
_cell_formula_units_Z 88
_cell_length_a 21.958246
_cell_length_b 8.185195
_cell_length_c 23.435658
_cell_angle_alpha 90.000000
_cell_angle_beta 90.000000
_cell_angle_gamma 90.000000
_cell_volume 4212.149996
_symmetry_space_group_name_H-M "C C C M"
_symmetry_group_IT_number 66
_symmetry_cell_setting 'orthorhombic'
loop_
_space_group_symop_operation_xyz
x,y,z
-x,-y,z
x,-y,1/2-z
-x,y,1/2-z
-x,-y,-z
x,y,-z
-x,y,1/2+z
x,-y,1/2+z
1/2+x,1/2+y,z
1/2-x,1/2-y,z
1/2+x,1/2-y,1/2-z
1/2-x,1/2+y,1/2-z
1/2-x,1/2-y,-z
1/2+x,1/2+y,-z
1/2-x,1/2+y,1/2+z
1/2+x,1/2-y,1/2+z
loop_
_atom_site_type_symbol
_atom_site_label
_atom_site_fract_x
_atom_site_fract_y
_atom_site_fract_z
Si Si1 0.942947 0.822956 0.719448
Si Si2 0.643237 0.888334 0.582311
Si Si3 0.667665 0.400320 0.000000
Si Si4 0.449029 0.357866 0.000000
Si Si5 0.511940 0.820595 0.395872
Si Si6 0.814545 0.344467 0.210066
Si Si7 0.789091 0.590609 0.000000
O O1 0.963680 0.806214 0.652772
O O2 0.875632 0.752266 0.728984
O O3 0.000000 0.734893 0.750000
O O4 0.940408 0.000000 0.750000
O O5 0.663938 0.718352 0.554326
O O6 0.572039 0.872331 0.570091
O O7 0.665804 0.893944 0.646485
O O8 0.669004 0.050264 0.553220
O O9 0.616250 0.544979 0.000000
O O10 0.735817 0.460391 0.000000
O O11 0.500000 0.500000 0.000000
O O12 0.464024 0.255430 0.941351
O O13 0.500000 0.000000 0.367815
O O14 0.807031 0.500000 0.250000
O O15 0.750000 0.250000 0.209503
O O16 0.750000 0.750000 0.000000
#
# Coordination Sequence:
#
# PCOD9498927 Si02
#       7
#    16  16   8   8  16  16   8
#     4  10  25  44  69  96 131 175 227 276 334 402
#     4  10  22  44  63  89 130 174 215 265 334 395
#     4  11  22  39  67  90 130 176 211 269 323 398
#     4  12  23  40  65 103 132 166 224 263 335 400
#     4  11  25  41  69  97 137 175 213 281 341 400
#     4  11  24  42  68  95 129 173 220 281 338 397
#     4  11  24  39  63  96 125 172 222 270 326 397
#
# _framework density 20.891943000000001
#
# number of rings (size 3 to 8) (size 9 to 14) (size 15 to 20)
#    0.000    1.273    1.818    3.545   10.182    0.727 
#    0.000    5.455    0.000    0.000    0.000    0.000 
#    0.000    0.000    0.000    0.000    0.000    0.000 
#
# Total GULP energy -244944.997982 kJ/mol
# GULP energy per Si atom -5566.931772 kJ/mol
# Density = 2.084439 g / cm^3
# Si number density = 20.891943 Si / 1000 Ang^3
#
#
#
# Elastic Constant Matrix: (Units=GPa)
#
#
# Indices 1 2 3 4 5 6 
#
# 1 122.4853 22.0962 26.0555 0.0000 0.0000 0.0000
# 2 22.0962 99.8828 52.2528 0.0000 0.0000 0.0000
# 3 26.0555 52.2528 109.7659 0.0000 0.0000 0.0000
# 4 0.0000 0.0000 0.0000 2.1099 0.0000 0.0000
# 5 0.0000 0.0000 0.0000 0.0000 -107.4107 0.0000
# 6 0.0000 0.0000 0.0000 0.0000 0.0000 30.9017
#
#
#
# Elastic Compliance Matrix: (Units=1/GPa)
#
#
# Indices 1 2 3 4 5 6 
#
# 1 0.008692 -0.001123 -0.001529 0.000000 0.000000 0.000000
# 2 -0.001123 0.013477 -0.006149 0.000000 0.000000 0.000000
# 3 -0.001529 -0.006149 0.012400 0.000000 0.000000 0.000000
# 4 0.000000 0.000000 0.000000 0.473948 0.000000 0.000000
# 5 0.000000 0.000000 0.000000 0.000000 -0.009310 0.000000
# 6 0.000000 0.000000 0.000000 0.000000 0.000000 0.032361
#
#
# Mechanical properties :
#
#
# Convention : Reuss Voigt Hill
#
# Bulk Modulus (GPa) = 58.93497 59.21587 59.07542
# Shear Modulus (GPa) = 9.01185 0.56882 4.79033
#
# Velocity S-wave (km/s) = 2.07916 0.52236 1.51588
# Velocity P-wave (km/s) = 5.83391 5.36369 5.60374
#
# Compressibility (1/GPa) = 0.01696786
#
# Stress axis : x y z
#
# Youngs Moduli (GPa) = 115.04785 74.20067 80.64339
#
# Poissons Ratio (x) = 0.08334 0.12327
# Poissons Ratio (y) = 0.12922 0.49587
# Poissons Ratio (z) = 0.17586 0.45626
#
# Static dielectric constant tensor:
#      x y z
#    x 1.801880 0.000000 0.000000 
#    y 0.000000 1.938810 0.000000 
#    z 0.000000 0.000000 1.779780 
# 
# From -- ./inp_files/59405.got.cif
#   From: 2010.05.17/outbox.cif.g08.bks.cpg/sg66_30_cif.got.tgz:59405.got - 2010.06.03 17:51:23.
