data_PCOD9498191
_publ_section_title
;
Structure prediction by ZEFSAII (Michael W. Deem and Ramdas Pophale) SiO2 
 PCOD9498191
Probable space group: C C C M
;
_chemical_formula_sum "Si O2"
_cell_formula_units_Z 112
_cell_length_a 32.482344
_cell_length_b 11.714027
_cell_length_c 14.327519
_cell_angle_alpha 90.000000
_cell_angle_beta 90.000000
_cell_angle_gamma 90.000000
_cell_volume 5451.607435
_symmetry_space_group_name_H-M "C C C M"
_symmetry_group_IT_number 66
_symmetry_cell_setting 'orthorhombic'
loop_
_space_group_symop_operation_xyz
x,y,z
-x,-y,z
x,-y,1/2-z
-x,y,1/2-z
-x,-y,-z
x,y,-z
-x,y,1/2+z
x,-y,1/2+z
1/2+x,1/2+y,z
1/2-x,1/2-y,z
1/2+x,1/2-y,1/2-z
1/2-x,1/2+y,1/2-z
1/2-x,1/2-y,-z
1/2+x,1/2+y,-z
1/2-x,1/2+y,1/2+z
1/2+x,1/2-y,1/2+z
loop_
_atom_site_type_symbol
_atom_site_label
_atom_site_fract_x
_atom_site_fract_y
_atom_site_fract_z
Si Si1 0.492312 0.632737 0.613927
Si Si2 0.400276 0.655111 0.611940
Si Si3 0.797428 0.756547 0.703582
Si Si4 0.359724 0.060948 0.651482
Si Si5 0.356371 0.576316 0.886056
Si Si6 0.830494 0.321860 0.396663
Si Si7 0.426635 0.758628 0.888677
O O1 0.500000 0.500000 0.637992
O O2 0.492186 0.637100 0.500000
O O3 0.446436 0.659901 0.648389
O O4 0.528248 0.719264 0.645694
O O5 0.404074 0.641195 0.500000
O O6 0.372111 0.548843 0.641196
O O7 0.374839 0.768487 0.629778
O O8 0.750000 0.750000 0.676841
O O9 0.826121 0.661703 0.654103
O O10 0.817326 0.875655 0.669868
O O11 0.801833 0.723116 0.813294
O O12 0.403317 0.121535 0.629466
O O13 0.364728 0.000000 0.750000
O O14 0.338842 0.956361 0.597027
O O15 0.394269 0.660189 0.861127
O O16 0.349956 0.580966 0.000000
O O17 0.818585 0.278894 0.500000
O O18 0.429630 0.752457 0.000000
#
# Coordination Sequence:
#
# PCOD9498191 Si02
#       7
#    16  16  16  16  16  16  16
#     4   9  14  24  48  84 120 146 183 240 284 331
#     4   9  17  31  52  84 119 156 194 227 285 352
#     4  10  22  40  62  87 109 140 195 251 296 349
#     4   9  19  37  57  77 107 154 196 233 290 346
#     4   9  17  32  55  86 120 152 187 232 293 353
#     4  10  21  39  59  80 114 159 195 230 286 355
#     4   9  15  26  52  84 112 147 189 233 285 337
#
# _framework density 20.544398999999999
#
# number of rings (size 3 to 8) (size 9 to 14) (size 15 to 20)
#    0.000    2.714    1.429    0.429    0.000    1.714 
#    7.714    0.714    0.000   13.714    0.000    0.000 
#    0.000    0.000    0.000    0.000    0.000    0.000 
#
# Total GULP energy -312059.996713 kJ/mol
# GULP energy per Si atom -5572.499941 kJ/mol
# Density = 2.049764 g / cm^3
# Si number density = 20.544399 Si / 1000 Ang^3
#
#
#
# Elastic Constant Matrix: (Units=GPa)
#
#
# Indices 1 2 3 4 5 6 
#
# 1 152.9285 50.5118 16.5471 0.0000 0.0000 0.0000
# 2 50.5118 62.6017 14.2595 0.0000 0.0000 0.0000
# 3 16.5471 14.2595 57.7356 0.0000 0.0000 0.0000
# 4 0.0000 0.0000 0.0000 21.8952 0.0000 0.0000
# 5 0.0000 0.0000 0.0000 0.0000 20.5484 0.0000
# 6 0.0000 0.0000 0.0000 0.0000 0.0000 20.4512
#
#
#
# Elastic Compliance Matrix: (Units=1/GPa)
#
#
# Indices 1 2 3 4 5 6 
#
# 1 0.008952 -0.007035 -0.000828 0.000000 0.000000 0.000000
# 2 -0.007035 0.022454 -0.003530 0.000000 0.000000 0.000000
# 3 -0.000828 -0.003530 0.018429 0.000000 0.000000 0.000000
# 4 0.000000 0.000000 0.000000 0.045672 0.000000 0.000000
# 5 0.000000 0.000000 0.000000 0.000000 0.048666 0.000000
# 6 0.000000 0.000000 0.000000 0.000000 0.000000 0.048897
#
#
# Mechanical properties :
#
#
# Convention : Reuss Voigt Hill
#
# Bulk Modulus (GPa) = 36.96761 48.43363 42.70062
# Shear Modulus (GPa) = 22.23490 25.37547 23.80519
#
# Velocity S-wave (km/s) = 3.29338 3.51829 3.40769
# Velocity P-wave (km/s) = 5.70043 6.33488 6.02601
#
# Compressibility (1/GPa) = 0.02705070
#
# Stress axis : x y z
#
# Youngs Moduli (GPa) = 111.70522 44.53544 54.26100
#
# Poissons Ratio (x) = 0.31329 0.04494
# Poissons Ratio (y) = 0.78580 0.19152
# Poissons Ratio (z) = 0.09252 0.15719
#
# Static dielectric constant tensor:
#      x y z
#    x 1.711150 0.000000 0.000000 
#    y 0.000000 1.778310 0.000000 
#    z 0.000000 0.000000 1.846400 
# 
# From -- ./inp_files/33829.got.cif
#   From: 2010.05.17/outbox.cif.g08.bks.cpg/sg66_17_cif.got.tgz:33829.got - 2010.06.03 17:51:23.
