data_PCOD9498232
_publ_section_title
;
Structure prediction by ZEFSAII (Michael W. Deem and Ramdas Pophale) SiO2 
 PCOD9498232
Probable space group: C C C M
;
_chemical_formula_sum "Si O2"
_cell_formula_units_Z 88
_cell_length_a 11.337499
_cell_length_b 30.550238
_cell_length_c 11.520690
_cell_angle_alpha 90.000000
_cell_angle_beta 90.000000
_cell_angle_gamma 90.000000
_cell_volume 3990.344123
_symmetry_space_group_name_H-M "C C C M"
_symmetry_group_IT_number 66
_symmetry_cell_setting 'orthorhombic'
loop_
_space_group_symop_operation_xyz
x,y,z
-x,-y,z
x,-y,1/2-z
-x,y,1/2-z
-x,-y,-z
x,y,-z
-x,y,1/2+z
x,-y,1/2+z
1/2+x,1/2+y,z
1/2-x,1/2-y,z
1/2+x,1/2-y,1/2-z
1/2-x,1/2+y,1/2-z
1/2-x,1/2-y,-z
1/2+x,1/2+y,-z
1/2-x,1/2+y,1/2+z
1/2+x,1/2-y,1/2+z
loop_
_atom_site_type_symbol
_atom_site_label
_atom_site_fract_x
_atom_site_fract_y
_atom_site_fract_z
Si Si1 0.554034 0.197701 0.878070
Si Si2 0.634655 0.982654 0.629090
Si Si3 0.476923 0.601152 0.872641
Si Si4 0.704180 0.885269 0.672887
Si Si5 0.250000 0.250000 0.285072
Si Si6 0.195811 0.835876 0.367173
O O1 0.500000 0.196491 0.750000
O O2 0.631625 0.154029 0.880911
O O3 0.641058 0.238422 0.866151
O O4 0.485545 0.201053 0.000000
O O5 0.684953 0.993507 0.500000
O O6 0.641818 0.930555 0.644812
O O7 0.500000 0.000000 0.627733
O O8 0.690855 0.000000 0.750000
O O9 0.500000 0.576319 0.750000
O O10 0.339108 0.613178 0.870643
O O11 0.564611 0.643055 0.863413
O O12 0.502543 0.580872 0.000000
O O13 0.719826 0.872626 0.808694
O O14 0.215054 0.208224 0.206335
O O15 0.223736 0.827973 0.500000
#
# Coordination Sequence:
#
# PCOD9498232 Si02
#       6
#    16  16  16  16   8  16
#     4  11  25  41  60  87 121 166 213 261 316 379
#     4  10  22  39  61  89 120 157 204 262 325 389
#     4   9  17  32  57  87 115 152 202 248 298 364
#     4  10  21  39  62  88 123 167 208 256 319 391
#     4  10  22  40  60  86 127 168 213 264 319 374
#     4   9  19  35  61  96 128 164 210 264 313 369
#
# _framework density 22.053235999999998
#
# number of rings (size 3 to 8) (size 9 to 14) (size 15 to 20)
#    0.000    2.182    0.000    2.182    2.545    8.000 
#    0.000    6.364    0.000    4.909    0.000   17.818 
#    0.000    0.000    0.000    0.000    0.000    0.000 
#
# Total GULP energy -245110.487218 kJ/mol
# GULP energy per Si atom -5570.692891 kJ/mol
# Density = 2.200304 g / cm^3
# Si number density = 22.053236 Si / 1000 Ang^3
#
#
#
# Elastic Constant Matrix: (Units=GPa)
#
#
# Indices 1 2 3 4 5 6 
#
# 1 75.7296 26.3724 20.6321 0.0000 0.0000 0.0000
# 2 26.3724 63.3298 39.0080 0.0000 0.0000 0.0000
# 3 20.6321 39.0080 245.8840 0.0000 0.0000 0.0000
# 4 0.0000 0.0000 0.0000 44.9587 0.0000 0.0000
# 5 0.0000 0.0000 0.0000 0.0000 9.5304 0.0000
# 6 0.0000 0.0000 0.0000 0.0000 0.0000 20.7495
#
#
#
# Elastic Compliance Matrix: (Units=1/GPa)
#
#
# Indices 1 2 3 4 5 6 
#
# 1 0.015465 -0.006252 -0.000306 0.000000 0.000000 0.000000
# 2 -0.006252 0.020028 -0.002653 0.000000 0.000000 0.000000
# 3 -0.000306 -0.002653 0.004513 0.000000 0.000000 0.000000
# 4 0.000000 0.000000 0.000000 0.022243 0.000000 0.000000
# 5 0.000000 0.000000 0.000000 0.000000 0.104927 0.000000
# 6 0.000000 0.000000 0.000000 0.000000 0.000000 0.048194
#
#
# Mechanical properties :
#
#
# Convention : Reuss Voigt Hill
#
# Bulk Modulus (GPa) = 46.32683 61.88539 54.10611
# Shear Modulus (GPa) = 20.74806 34.97646 27.86226
#
# Velocity S-wave (km/s) = 3.07060 3.98678 3.55830
# Velocity P-wave (km/s) = 5.79861 7.02249 6.43969
#
# Compressibility (1/GPa) = 0.02158576
#
# Stress axis : x y z
#
# Youngs Moduli (GPa) = 64.66056 49.93083 221.55964
#
# Poissons Ratio (x) = 0.31216 0.06777
# Poissons Ratio (y) = 0.40425 0.58773
# Poissons Ratio (z) = 0.01978 0.13245
#
# Static dielectric constant tensor:
#      x y z
#    x 1.849680 0.000000 0.000000 
#    y 0.000000 1.754130 0.000000 
#    z 0.000000 0.000000 1.945720 
# 
# From -- ./inp_files/15064.got.cif
#   From: 2010.05.17/outbox.cif.g08.bks.cpg/sg66_8_cif.got.tgz:15064.got - 2010.06.03 17:51:23.
