data_PCOD9498909
_publ_section_title
;
Structure prediction by ZEFSAII (Michael W. Deem and Ramdas Pophale) SiO2 
 PCOD9498909
Probable space group: C C C M
;
_chemical_formula_sum "Si O2"
_cell_formula_units_Z 80
_cell_length_a 17.255650
_cell_length_b 26.894948
_cell_length_c 9.264225
_cell_angle_alpha 90.000000
_cell_angle_beta 90.000000
_cell_angle_gamma 90.000000
_cell_volume 4299.432415
_symmetry_space_group_name_H-M "C C C M"
_symmetry_group_IT_number 66
_symmetry_cell_setting 'orthorhombic'
loop_
_space_group_symop_operation_xyz
x,y,z
-x,-y,z
x,-y,1/2-z
-x,y,1/2-z
-x,-y,-z
x,y,-z
-x,y,1/2+z
x,-y,1/2+z
1/2+x,1/2+y,z
1/2-x,1/2-y,z
1/2+x,1/2-y,1/2-z
1/2-x,1/2+y,1/2-z
1/2-x,1/2-y,-z
1/2+x,1/2+y,-z
1/2-x,1/2+y,1/2+z
1/2+x,1/2-y,1/2+z
loop_
_atom_site_type_symbol
_atom_site_label
_atom_site_fract_x
_atom_site_fract_y
_atom_site_fract_z
Si Si1 0.814839 0.097141 0.726645
Si Si2 0.223881 0.306745 0.827881
Si Si3 0.349781 0.948333 0.333781
Si Si4 0.066418 0.068950 0.000000
Si Si5 0.887404 0.952717 0.500000
Si Si6 0.080814 0.353155 0.325380
O O1 0.786049 0.153878 0.735095
O O2 0.740264 0.068694 0.662175
O O3 0.892592 0.094630 0.634037
O O4 0.838000 0.066843 0.867169
O O5 0.250000 0.250000 0.817324
O O6 0.146508 0.316518 0.736802
O O7 0.212880 0.318535 0.000000
O O8 0.377672 0.950729 0.500000
O O9 0.393889 0.906651 0.240180
O O10 0.356464 0.000000 0.250000
O O11 0.974197 0.069900 0.000000
O O12 0.096114 0.011588 0.000000
O O13 0.077525 0.353741 0.500000
O O14 0.000000 0.340054 0.250000
#
# Coordination Sequence:
#
# PCOD9498909 Si02
#       6
#    16  16  16   8   8  16
#     4  11  21  37  58  86 117 159 203 257 298 371
#     4  10  22  43  69  89 117 161 207 256 314 368
#     4  11  22  36  59  88 121 162 206 248 299 360
#     4  11  20  40  53  82 121 171 204 245 300 370
#     4  11  24  32  57  84 125 163 206 245 312 362
#     4  11  23  41  64  92 126 158 199 248 304 366
#
# _framework density 18.607108
#
# number of rings (size 3 to 8) (size 9 to 14) (size 15 to 20)
#    0.000    1.200    2.000    6.000    7.000    2.400 
#    0.000    4.000    0.000    0.000    0.000    0.000 
#    0.000    0.000    0.000    0.000    0.000    0.000 
#
# Total GULP energy -223268.268518 kJ/mol
# GULP energy per Si atom -5581.706713 kJ/mol
# Density = 1.856476 g / cm^3
# Si number density = 18.607108 Si / 1000 Ang^3
#
#
#
# Elastic Constant Matrix: (Units=GPa)
#
#
# Indices 1 2 3 4 5 6 
#
# 1 111.2523 44.9334 47.4014 0.0000 0.0000 0.0000
# 2 44.9334 99.2174 44.8031 0.0000 0.0000 0.0000
# 3 47.4014 44.8031 126.1842 0.0000 0.0000 0.0000
# 4 0.0000 0.0000 0.0000 31.3999 0.0000 0.0000
# 5 0.0000 0.0000 0.0000 0.0000 51.8891 0.0000
# 6 0.0000 0.0000 0.0000 0.0000 0.0000 12.9188
#
#
#
# Elastic Compliance Matrix: (Units=1/GPa)
#
#
# Indices 1 2 3 4 5 6 
#
# 1 0.011910 -0.004017 -0.003047 0.000000 0.000000 0.000000
# 2 -0.004017 0.013359 -0.003234 0.000000 0.000000 0.000000
# 3 -0.003047 -0.003234 0.010218 0.000000 0.000000 0.000000
# 4 0.000000 0.000000 0.000000 0.031847 0.000000 0.000000
# 5 0.000000 0.000000 0.000000 0.000000 0.019272 0.000000
# 6 0.000000 0.000000 0.000000 0.000000 0.000000 0.077407
#
#
# Mechanical properties :
#
#
# Convention : Reuss Voigt Hill
#
# Bulk Modulus (GPa) = 67.16607 67.88108 67.52358
# Shear Modulus (GPa) = 26.37515 32.54263 29.45889
#
# Velocity S-wave (km/s) = 3.76902 4.18656 3.98327
# Velocity P-wave (km/s) = 7.42402 7.74146 7.58440
#
# Compressibility (1/GPa) = 0.01488847
#
# Stress axis : x y z
#
# Youngs Moduli (GPa) = 83.96579 74.85786 97.86709
#
# Poissons Ratio (x) = 0.30074 0.29824
# Poissons Ratio (y) = 0.33733 0.31650
# Poissons Ratio (z) = 0.25588 0.24209
#
# Static dielectric constant tensor:
#      x y z
#    x 1.635820 0.000000 0.000000 
#    y 0.000000 1.628030 0.000000 
#    z 0.000000 0.000000 1.611180 
# 
# From -- ./inp_files/6767.got.cif
#   From: 2010.05.17/outbox.cif.g08.bks.cpg/sg66_4_cif.got.tgz:6767.got - 2010.06.03 17:51:23.
