data_PCOD9498519
_publ_section_title
;
Structure prediction by ZEFSAII (Michael W. Deem and Ramdas Pophale) SiO2 
 PCOD9498519
Probable space group: C C C M
;
_chemical_formula_sum "Si O2"
_cell_formula_units_Z 60
_cell_length_a 11.317904
_cell_length_b 11.867690
_cell_length_c 19.211829
_cell_angle_alpha 90.000000
_cell_angle_beta 90.000000
_cell_angle_gamma 90.000000
_cell_volume 2580.482462
_symmetry_space_group_name_H-M "C C C M"
_symmetry_group_IT_number 66
_symmetry_cell_setting 'orthorhombic'
loop_
_space_group_symop_operation_xyz
x,y,z
-x,-y,z
x,-y,1/2-z
-x,y,1/2-z
-x,-y,-z
x,y,-z
-x,y,1/2+z
x,-y,1/2+z
1/2+x,1/2+y,z
1/2-x,1/2-y,z
1/2+x,1/2-y,1/2-z
1/2-x,1/2+y,1/2-z
1/2-x,1/2-y,-z
1/2+x,1/2+y,-z
1/2-x,1/2+y,1/2+z
1/2+x,1/2-y,1/2+z
loop_
_atom_site_type_symbol
_atom_site_label
_atom_site_fract_x
_atom_site_fract_y
_atom_site_fract_z
Si Si1 0.432510 0.882576 0.500000
Si Si2 0.500000 0.000000 0.250000
Si Si3 0.250000 0.250000 0.261092
Si Si4 0.409628 0.835152 0.349317
Si Si5 0.057942 0.117011 0.647388
Si Si6 0.372748 0.317410 0.500000
O O1 0.369542 0.874583 0.425341
O O2 0.527087 0.780345 0.500000
O O3 0.500000 0.000000 0.500000
O O4 0.515582 0.905063 0.312814
O O5 0.309978 0.159924 0.208915
O O6 0.157882 0.177079 0.305917
O O7 0.452645 0.707784 0.354725
O O8 0.111159 0.110276 0.569606
O O9 0.000000 0.000000 0.669673
O O10 0.250000 0.250000 0.500000
#
# Coordination Sequence:
#
# PCOD9498519 Si02
#       6
#     8   4   8  16  16   8
#     4  10  22  44  69  94 143 182 238 310 352 455
#     4  12  20  42  66  92 138 174 236 294 356 446
#     4  12  24  44  70 104 142 196 238 300 392 444
#     4  11  25  43  69 103 138 190 242 303 375 452
#     4  11  24  46  70 109 153 189 254 319 375 457
#     4  10  21  43  73 107 142 201 251 294 397 461
#
# _framework density 23.251465
#
# number of rings (size 3 to 8) (size 9 to 14) (size 15 to 20)
#    0.000    1.067    5.333    0.400    0.000    4.800 
#    4.800    0.000    0.000    0.000    0.000    0.933 
#    0.000    0.000    0.000    0.000    0.000    0.000 
#
# Total GULP energy -167086.873940 kJ/mol
# GULP energy per Si atom -5569.562465 kJ/mol
# Density = 2.319854 g / cm^3
# Si number density = 23.251465 Si / 1000 Ang^3
#
#
#
# Elastic Constant Matrix: (Units=GPa)
#
#
# Indices 1 2 3 4 5 6 
#
# 1 63.1969 8.6341 53.5366 0.0000 0.0000 0.0000
# 2 8.6341 134.8419 46.7707 0.0000 0.0000 0.0000
# 3 53.5366 46.7707 234.6741 0.0000 0.0000 0.0000
# 4 0.0000 0.0000 0.0000 25.5850 0.0000 0.0000
# 5 0.0000 0.0000 0.0000 0.0000 18.6537 0.0000
# 6 0.0000 0.0000 0.0000 0.0000 0.0000 14.4054
#
#
#
# Elastic Compliance Matrix: (Units=1/GPa)
#
#
# Indices 1 2 3 4 5 6 
#
# 1 0.019627 0.000318 -0.004541 0.000000 0.000000 0.000000
# 2 0.000318 0.007972 -0.001661 0.000000 0.000000 0.000000
# 3 -0.004541 -0.001661 0.005628 0.000000 0.000000 0.000000
# 4 0.000000 0.000000 0.000000 0.039085 0.000000 0.000000
# 5 0.000000 0.000000 0.000000 0.000000 0.053609 0.000000
# 6 0.000000 0.000000 0.000000 0.000000 0.000000 0.069418
#
#
# Mechanical properties :
#
#
# Convention : Reuss Voigt Hill
#
# Bulk Modulus (GPa) = 46.60044 72.28839 59.44441
# Shear Modulus (GPa) = 23.33605 33.31360 28.32483
#
# Velocity S-wave (km/s) = 3.17146 3.78928 3.49405
# Velocity P-wave (km/s) = 5.78760 7.09240 6.47296
#
# Compressibility (1/GPa) = 0.02145903
#
# Stress axis : x y z
#
# Youngs Moduli (GPa) = 50.95051 125.43918 177.67390
#
# Poissons Ratio (x) = -0.03993 0.80681
# Poissons Ratio (y) = -0.01622 0.29519
# Poissons Ratio (z) = 0.23136 0.20841
#
# Static dielectric constant tensor:
#      x y z
#    x 1.768050 0.000000 0.000000 
#    y 0.000000 1.864220 0.000000 
#    z 0.000000 0.000000 1.933170 
# 
# From -- ./inp_files/48051.got.cif
#   From: 2010.05.17/outbox.cif.g08.bks.cpg/sg66_25_cif.got.tgz:48051.got - 2010.06.03 17:51:23.
