data_PCOD9498851
_publ_section_title
;
Structure prediction by ZEFSAII (Michael W. Deem and Ramdas Pophale) SiO2 
 PCOD9498851
Probable space group: C C C M
;
_chemical_formula_sum "Si O2"
_cell_formula_units_Z 64
_cell_length_a 7.285452
_cell_length_b 29.000299
_cell_length_c 14.327077
_cell_angle_alpha 90.000000
_cell_angle_beta 90.000000
_cell_angle_gamma 90.000000
_cell_volume 3027.028931
_symmetry_space_group_name_H-M "C C C M"
_symmetry_group_IT_number 66
_symmetry_cell_setting 'orthorhombic'
loop_
_space_group_symop_operation_xyz
x,y,z
-x,-y,z
x,-y,1/2-z
-x,y,1/2-z
-x,-y,-z
x,y,-z
-x,y,1/2+z
x,-y,1/2+z
1/2+x,1/2+y,z
1/2-x,1/2-y,z
1/2+x,1/2-y,1/2-z
1/2-x,1/2+y,1/2-z
1/2-x,1/2-y,-z
1/2+x,1/2+y,-z
1/2-x,1/2+y,1/2+z
1/2+x,1/2-y,1/2+z
loop_
_atom_site_type_symbol
_atom_site_label
_atom_site_fract_x
_atom_site_fract_y
_atom_site_fract_z
Si Si1 0.500000 0.417680 0.750000
Si Si2 0.452742 0.231077 0.500000
Si Si3 0.064117 0.371934 0.000000
Si Si4 0.171078 0.465457 0.500000
Si Si5 0.198273 0.648101 0.294282
Si Si6 0.750000 0.250000 0.655666
Si Si7 0.500000 0.500000 0.625923
O O1 0.666817 0.383283 0.766400
O O2 0.574522 0.454625 0.676272
O O3 0.250000 0.250000 0.500000
O O4 0.451536 0.175739 0.500000
O O5 0.571638 0.246940 0.589096
O O6 0.184150 0.368305 0.903749
O O7 0.925368 0.415340 0.000000
O O8 0.316038 0.477889 0.581452
O O9 0.000000 0.500000 0.500000
O O10 0.255443 0.701747 0.290751
O O11 0.000000 0.643831 0.250000
#
# Coordination Sequence:
#
# PCOD9498851 Si02
#       7
#     8   8   8   8  16   8   8
#     4  11  24  42  62  88 130 172 212 281 324 386
#     4   9  19  39  64  90 128 171 209 276 339 385
#     4  10  22  42  64  98 132 166 225 272 332 404
#     4  11  21  39  66  90 124 164 207 274 335 401
#     4  11  24  42  65  95 133 174 223 275 338 403
#     4   9  22  38  58  95 128 160 228 273 312 415
#     4  10  24  40  60  96 122 160 228 262 330 403
#
# _framework density 21.142842000000002
#
# number of rings (size 3 to 8) (size 9 to 14) (size 15 to 20)
#    0.000    1.750    0.000    3.750    1.750    7.000 
#    2.250    6.250    0.000    0.000    0.000    0.000 
#    0.000    0.000    0.000    0.000    0.000    0.000 
#
# Total GULP energy -178234.227806 kJ/mol
# GULP energy per Si atom -5569.819619 kJ/mol
# Density = 2.109472 g / cm^3
# Si number density = 21.142842 Si / 1000 Ang^3
#
#
#
# Elastic Constant Matrix: (Units=GPa)
#
#
# Indices 1 2 3 4 5 6 
#
# 1 97.0793 66.8457 -20.1839 0.0000 0.0000 0.0000
# 2 66.8457 160.8392 8.7031 0.0000 0.0000 0.0000
# 3 -20.1839 8.7031 19.6093 0.0000 0.0000 0.0000
# 4 0.0000 0.0000 0.0000 -12.5245 0.0000 0.0000
# 5 0.0000 0.0000 0.0000 0.0000 9.9967 0.0000
# 6 0.0000 0.0000 0.0000 0.0000 0.0000 47.8262
#
#
#
# Elastic Compliance Matrix: (Units=1/GPa)
#
#
# Indices 1 2 3 4 5 6 
#
# 1 0.025190 -0.012164 0.031327 0.000000 0.000000 0.000000
# 2 -0.012164 0.012244 -0.017955 0.000000 0.000000 0.000000
# 3 0.031327 -0.017955 0.091210 0.000000 0.000000 0.000000
# 4 0.000000 0.000000 0.000000 -0.079843 0.000000 0.000000
# 5 0.000000 0.000000 0.000000 0.000000 0.100033 0.000000
# 6 0.000000 0.000000 0.000000 0.000000 0.000000 0.020909
#
#
# Mechanical properties :
#
#
# Convention : Reuss Voigt Hill
#
# Bulk Modulus (GPa) = 7.63011 43.13974 25.38493
# Shear Modulus (GPa) = 23.69510 23.87053 23.78282
#
# Velocity S-wave (km/s) = 3.35134 3.36372 3.35754
# Velocity P-wave (km/s) = 4.31184 5.96108 5.20223
#
# Compressibility (1/GPa) = 0.13105967
#
# Stress axis : x y z
#
# Youngs Moduli (GPa) = 39.69838 81.66951 10.96370
#
# Poissons Ratio (x) = 0.99345 -0.34346
# Poissons Ratio (y) = 0.48290 0.19685
# Poissons Ratio (z) = -1.24363 1.46638
#
# Static dielectric constant tensor:
#      x y z
#    x 1.710180 0.000000 0.000000 
#    y 0.000000 1.875930 0.000000 
#    z 0.000000 0.000000 1.957630 
# 
# From -- ./inp_files/35121.got.cif
#   From: 2010.05.17/outbox.cif.g08.bks.cpg/sg66_18_cif.got.tgz:35121.got - 2010.06.03 17:51:23.
