data_PCOD9498239
_publ_section_title
;
Structure prediction by ZEFSAII (Michael W. Deem and Ramdas Pophale) SiO2 
 PCOD9498239
Probable space group: C C C M
;
_chemical_formula_sum "Si O2"
_cell_formula_units_Z 48
_cell_length_a 4.958349
_cell_length_b 17.286990
_cell_length_c 27.214817
_cell_angle_alpha 90.000000
_cell_angle_beta 90.000000
_cell_angle_gamma 90.000000
_cell_volume 2332.716123
_symmetry_space_group_name_H-M "C C C M"
_symmetry_group_IT_number 66
_symmetry_cell_setting 'orthorhombic'
loop_
_space_group_symop_operation_xyz
x,y,z
-x,-y,z
x,-y,1/2-z
-x,y,1/2-z
-x,-y,-z
x,y,-z
-x,y,1/2+z
x,-y,1/2+z
1/2+x,1/2+y,z
1/2-x,1/2-y,z
1/2+x,1/2-y,1/2-z
1/2-x,1/2+y,1/2-z
1/2-x,1/2-y,-z
1/2+x,1/2+y,-z
1/2-x,1/2+y,1/2+z
1/2+x,1/2-y,1/2+z
loop_
_atom_site_type_symbol
_atom_site_label
_atom_site_fract_x
_atom_site_fract_y
_atom_site_fract_z
Si Si1 0.499454 0.192532 0.304978
Si Si2 0.392288 0.669913 0.055911
Si Si3 0.073459 0.410229 0.100454
O O1 0.500000 0.157479 0.250000
O O2 0.250000 0.250000 0.308130
O O3 0.500666 0.130998 0.348215
O O4 0.750000 0.250000 0.310337
O O5 0.250000 0.750000 0.074722
O O6 0.635453 0.626875 0.084937
O O7 0.136700 0.614304 0.058525
O O8 0.483322 0.684448 0.000000
O O9 0.000000 0.500000 0.107196
#
# Coordination Sequence:
#
# PCOD9498239 Si02
#       3
#    16  16  16
#     4  10  21  39  63  87 115 157 203 244 291 357
#     4  11  24  42  63  86 117 162 210 250 296 365
#     4  12  24  38  61  92 125 157 194 253 316 364
#
# _framework density 20.576872999999999
#
# number of rings (size 3 to 8) (size 9 to 14) (size 15 to 20)
#    0.000    1.000    0.000    8.000    0.000    7.333 
#    0.000    0.000    0.000   10.000    0.000    0.000 
#    0.000    0.000    0.000    0.000    0.000    0.000 
#
# Total GULP energy -133773.566219 kJ/mol
# GULP energy per Si atom -5573.898592 kJ/mol
# Density = 2.053004 g / cm^3
# Si number density = 20.576873 Si / 1000 Ang^3
#
#
#
# Elastic Constant Matrix: (Units=GPa)
#
#
# Indices 1 2 3 4 5 6 
#
# 1 164.1209 54.3023 30.8142 0.0000 0.0000 0.0000
# 2 54.3023 152.3515 65.0360 0.0000 0.0000 0.0000
# 3 30.8142 65.0360 129.9051 0.0000 0.0000 0.0000
# 4 0.0000 0.0000 0.0000 11.1700 0.0000 0.0000
# 5 0.0000 0.0000 0.0000 0.0000 20.8118 0.0000
# 6 0.0000 0.0000 0.0000 0.0000 0.0000 25.9975
#
#
#
# Elastic Compliance Matrix: (Units=1/GPa)
#
#
# Indices 1 2 3 4 5 6 
#
# 1 0.006935 -0.002251 -0.000518 0.000000 0.000000 0.000000
# 2 -0.002251 0.009078 -0.004011 0.000000 0.000000 0.000000
# 3 -0.000518 -0.004011 0.009829 0.000000 0.000000 0.000000
# 4 0.000000 0.000000 0.000000 0.089526 0.000000 0.000000
# 5 0.000000 0.000000 0.000000 0.000000 0.048050 0.000000
# 6 0.000000 0.000000 0.000000 0.000000 0.000000 0.038465
#
#
# Mechanical properties :
#
#
# Convention : Reuss Voigt Hill
#
# Bulk Modulus (GPa) = 81.41800 82.96474 82.19137
# Shear Modulus (GPa) = 22.77522 31.34420 27.05971
#
# Velocity S-wave (km/s) = 3.33052 3.90715 3.63030
# Velocity P-wave (km/s) = 7.37858 7.79496 7.58962
#
# Compressibility (1/GPa) = 0.01228230
#
# Stress axis : x y z
#
# Youngs Moduli (GPa) = 144.19563 110.15410 101.73996
#
# Poissons Ratio (x) = 0.24791 0.05273
# Poissons Ratio (y) = 0.32452 0.40809
# Poissons Ratio (z) = 0.07474 0.44184
#
# Static dielectric constant tensor:
#      x y z
#    x 1.731750 0.000000 0.000000 
#    y 0.000000 1.871170 0.000000 
#    z 0.000000 0.000000 1.762790 
# 
# From -- ./inp_files/60792.got.cif
#   From: 2010.05.17/outbox.cif.g08.bks.cpg/sg66_31_cif.got.tgz:60792.got - 2010.06.03 17:51:23.
