data_PCOD9498172
_publ_section_title
;
Structure prediction by ZEFSAII (Michael W. Deem and Ramdas Pophale) SiO2 
 PCOD9498172
Probable space group: C C C M
;
_chemical_formula_sum "Si O2"
_cell_formula_units_Z 128
_cell_length_a 22.426393
_cell_length_b 11.461324
_cell_length_c 23.612616
_cell_angle_alpha 90.000000
_cell_angle_beta 90.000000
_cell_angle_gamma 90.000000
_cell_volume 6069.296057
_symmetry_space_group_name_H-M "C C C M"
_symmetry_group_IT_number 66
_symmetry_cell_setting 'orthorhombic'
loop_
_space_group_symop_operation_xyz
x,y,z
-x,-y,z
x,-y,1/2-z
-x,y,1/2-z
-x,-y,-z
x,y,-z
-x,y,1/2+z
x,-y,1/2+z
1/2+x,1/2+y,z
1/2-x,1/2-y,z
1/2+x,1/2-y,1/2-z
1/2-x,1/2+y,1/2-z
1/2-x,1/2-y,-z
1/2+x,1/2+y,-z
1/2-x,1/2+y,1/2+z
1/2+x,1/2-y,1/2+z
loop_
_atom_site_type_symbol
_atom_site_label
_atom_site_fract_x
_atom_site_fract_y
_atom_site_fract_z
Si Si1 0.412577 0.195231 0.717568
Si Si2 0.538010 0.817150 0.844078
Si Si3 0.800865 0.836340 0.275419
Si Si4 0.165261 0.018246 0.436774
Si Si5 0.135538 0.506765 0.146503
Si Si6 0.237155 0.927120 0.336026
Si Si7 0.959929 0.110117 0.435172
Si Si8 0.320319 0.779506 0.933288
O O1 0.432557 0.205586 0.782398
O O2 0.468646 0.177910 0.675482
O O3 0.367254 0.301031 0.707810
O O4 0.374754 0.080650 0.703499
O O5 0.575919 0.930171 0.865608
O O6 0.540397 0.716075 0.891011
O O7 0.750000 0.750000 0.296426
O O8 0.794123 0.838351 0.207110
O O9 0.780868 0.954457 0.304079
O O10 0.191002 0.028719 0.500000
O O11 0.151410 0.152394 0.419205
O O12 0.209217 0.946350 0.397095
O O13 0.105519 0.944204 0.438080
O O14 0.191952 0.422424 0.156475
O O15 0.155305 0.609281 0.101942
O O16 0.978210 0.143719 0.500000
O O17 0.000000 0.000000 0.416650
O O18 0.250000 0.750000 0.925022
O O19 0.330076 0.802986 0.000000
#
# Coordination Sequence:
#
# PCOD9498172 Si02
#       8
#    16  16  16  16  16  16  16  16
#     4  11  24  44  64  95 138 186 224 274 346 416
#     4  11  26  45  68  96 134 187 233 281 342 425
#     4  11  22  38  61  93 132 172 218 278 337 407
#     4  10  21  40  65  96 131 173 225 278 343 412
#     4  12  23  39  67 100 142 180 225 287 349 418
#     4  11  23  35  64 100 130 172 217 281 339 414
#     4  10  24  47  73  95 128 177 234 296 351 409
#     4  10  21  38  65 101 138 181 229 281 348 421
#
# _framework density 21.089759999999998
#
# number of rings (size 3 to 8) (size 9 to 14) (size 15 to 20)
#    0.000    1.250    2.500    3.000    5.250    1.500 
#    0.000    0.625    0.000    3.375    0.000    0.000 
#    0.000    0.000    0.000    0.000    0.000    0.000 
#
# Total GULP energy -356927.792947 kJ/mol
# GULP energy per Si atom -5576.996765 kJ/mol
# Density = 2.104176 g / cm^3
# Si number density = 21.089760 Si / 1000 Ang^3
#
#
#
# Elastic Constant Matrix: (Units=GPa)
#
#
# Indices 1 2 3 4 5 6 
#
# 1 106.6496 29.0150 33.2337 0.0000 0.0000 0.0000
# 2 29.0150 86.1345 50.6320 0.0000 0.0000 0.0000
# 3 33.2337 50.6320 131.8317 0.0000 0.0000 0.0000
# 4 0.0000 0.0000 0.0000 43.2991 0.0000 0.0000
# 5 0.0000 0.0000 0.0000 0.0000 17.3710 0.0000
# 6 0.0000 0.0000 0.0000 0.0000 0.0000 35.6571
#
#
#
# Elastic Compliance Matrix: (Units=1/GPa)
#
#
# Indices 1 2 3 4 5 6 
#
# 1 0.010603 -0.002584 -0.001681 0.000000 0.000000 0.000000
# 2 -0.002584 0.015625 -0.005350 0.000000 0.000000 0.000000
# 3 -0.001681 -0.005350 0.010064 0.000000 0.000000 0.000000
# 4 0.000000 0.000000 0.000000 0.023095 0.000000 0.000000
# 5 0.000000 0.000000 0.000000 0.000000 0.057567 0.000000
# 6 0.000000 0.000000 0.000000 0.000000 0.000000 0.028045
#
#
# Mechanical properties :
#
#
# Convention : Reuss Voigt Hill
#
# Bulk Modulus (GPa) = 58.60442 61.15303 59.87873
# Shear Modulus (GPa) = 29.42651 33.38111 31.40381
#
# Velocity S-wave (km/s) = 3.73942 3.98277 3.86301
# Velocity P-wave (km/s) = 6.81856 7.08586 6.95350
#
# Compressibility (1/GPa) = 0.01706356
#
# Stress axis : x y z
#
# Youngs Moduli (GPa) = 94.31152 64.00110 99.36723
#
# Poissons Ratio (x) = 0.16537 0.16700
# Poissons Ratio (y) = 0.24369 0.53157
# Poissons Ratio (z) = 0.15850 0.34238
#
# Static dielectric constant tensor:
#      x y z
#    x 1.060490 0.000000 0.000000 
#    y 0.000000 1.788520 0.000000 
#    z 0.000000 0.000000 1.823370 
# 
# From -- ./inp_files/59954.got.cif
#   From: 2010.05.17/outbox.cif.g08.bks.cpg/sg66_30_cif.got.tgz:59954.got - 2010.06.03 17:51:23.
