data_PCOD9498574
_publ_section_title
;
Structure prediction by ZEFSAII (Michael W. Deem and Ramdas Pophale) SiO2 
 PCOD9498574
Probable space group: C C C M
;
_chemical_formula_sum "Si O2"
_cell_formula_units_Z 72
_cell_length_a 23.153617
_cell_length_b 10.567033
_cell_length_c 13.753207
_cell_angle_alpha 90.000000
_cell_angle_beta 90.000000
_cell_angle_gamma 90.000000
_cell_volume 3364.928871
_symmetry_space_group_name_H-M "C C C M"
_symmetry_group_IT_number 66
_symmetry_cell_setting 'orthorhombic'
loop_
_space_group_symop_operation_xyz
x,y,z
-x,-y,z
x,-y,1/2-z
-x,y,1/2-z
-x,-y,-z
x,y,-z
-x,y,1/2+z
x,-y,1/2+z
1/2+x,1/2+y,z
1/2-x,1/2-y,z
1/2+x,1/2-y,1/2-z
1/2-x,1/2+y,1/2-z
1/2-x,1/2-y,-z
1/2+x,1/2+y,-z
1/2-x,1/2+y,1/2+z
1/2+x,1/2-y,1/2+z
loop_
_atom_site_type_symbol
_atom_site_label
_atom_site_fract_x
_atom_site_fract_y
_atom_site_fract_z
Si Si1 0.018190 0.363444 0.111295
Si Si2 0.604319 0.728407 0.613154
Si Si3 0.633448 0.277267 0.613736
Si Si4 0.626764 0.500000 0.750000
Si Si5 0.797958 0.354709 0.244655
O O1 0.070930 0.277457 0.149115
O O2 0.000000 0.500000 0.151579
O O3 0.959258 0.286686 0.112206
O O4 0.037114 0.389504 0.000000
O O5 0.622202 0.710158 0.500000
O O6 0.598794 0.597325 0.672721
O O7 0.649457 0.820908 0.669751
O O8 0.631357 0.303593 0.500000
O O9 0.653459 0.398944 0.675248
O O10 0.678249 0.171731 0.646864
O O11 0.779181 0.500000 0.250000
O O12 0.750000 0.250000 0.220257
#
# Coordination Sequence:
#
# PCOD9498574 Si02
#       5
#    16  16  16   8  16
#     4   9  18  35  62  94 126 162 211 261 322 402
#     4  10  22  41  66  93 129 171 210 265 331 386
#     4  10  22  41  66  93 129 171 210 265 331 386
#     4  10  22  37  58  94 130 166 216 261 310 388
#     4  11  26  43  66  96 132 167 220 274 311 385
#
# _framework density 21.397182999999998
#
# number of rings (size 3 to 8) (size 9 to 14) (size 15 to 20)
#    0.000    2.000    0.000    2.000    6.222    8.889 
#    0.000    8.889    0.000    0.000    0.000    0.000 
#    0.000    0.000    0.000    0.000    0.000    0.000 
#
# Total GULP energy -200422.114827 kJ/mol
# GULP energy per Si atom -5567.280967 kJ/mol
# Density = 2.134848 g / cm^3
# Si number density = 21.397183 Si / 1000 Ang^3
#
#
#
# Elastic Constant Matrix: (Units=GPa)
#
#
# Indices 1 2 3 4 5 6 
#
# 1 82.0579 37.1631 16.7634 0.0000 0.0000 0.0000
# 2 37.1631 161.5849 41.9840 0.0000 0.0000 0.0000
# 3 16.7634 41.9840 135.8018 0.0000 0.0000 0.0000
# 4 0.0000 0.0000 0.0000 24.3127 0.0000 0.0000
# 5 0.0000 0.0000 0.0000 0.0000 21.2596 0.0000
# 6 0.0000 0.0000 0.0000 0.0000 0.0000 18.1478
#
#
#
# Elastic Compliance Matrix: (Units=1/GPa)
#
#
# Indices 1 2 3 4 5 6 
#
# 1 0.013679 -0.002944 -0.000778 0.000000 0.000000 0.000000
# 2 -0.002944 0.007363 -0.001913 0.000000 0.000000 0.000000
# 3 -0.000778 -0.001913 0.008051 0.000000 0.000000 0.000000
# 4 0.000000 0.000000 0.000000 0.041131 0.000000 0.000000
# 5 0.000000 0.000000 0.000000 0.000000 0.047038 0.000000
# 6 0.000000 0.000000 0.000000 0.000000 0.000000 0.055103
#
#
# Mechanical properties :
#
#
# Convention : Reuss Voigt Hill
#
# Bulk Modulus (GPa) = 56.10867 63.47393 59.79130
# Shear Modulus (GPa) = 26.37476 31.64628 29.01052
#
# Velocity S-wave (km/s) = 3.51469 3.84994 3.68613
# Velocity P-wave (km/s) = 6.53836 7.03504 6.79124
#
# Compressibility (1/GPa) = 0.01782256
#
# Stress axis : x y z
#
# Youngs Moduli (GPa) = 73.10627 135.81899 124.20613
#
# Poissons Ratio (x) = 0.39981 0.09669
# Poissons Ratio (y) = 0.21520 0.23759
# Poissons Ratio (z) = 0.05691 0.25980
#
# Static dielectric constant tensor:
#      x y z
#    x 1.808030 0.000000 0.000000 
#    y 0.000000 1.807630 0.000000 
#    z 0.000000 0.000000 1.835730 
# 
# From -- ./inp_files/33029.got.cif
#   From: 2010.05.17/outbox.cif.g08.bks.cpg/sg66_17_cif.got.tgz:33029.got - 2010.06.03 17:51:23.
