data_PCOD9498935
_publ_section_title
;
Structure prediction by ZEFSAII (Michael W. Deem and Ramdas Pophale) SiO2 
 PCOD9498935
Probable space group: C C C M
;
_chemical_formula_sum "Si O2"
_cell_formula_units_Z 56
_cell_length_a 16.396111
_cell_length_b 7.433287
_cell_length_c 20.202873
_cell_angle_alpha 90.000000
_cell_angle_beta 90.000000
_cell_angle_gamma 90.000000
_cell_volume 2462.265527
_symmetry_space_group_name_H-M "C C C M"
_symmetry_group_IT_number 66
_symmetry_cell_setting 'orthorhombic'
loop_
_space_group_symop_operation_xyz
x,y,z
-x,-y,z
x,-y,1/2-z
-x,y,1/2-z
-x,-y,-z
x,y,-z
-x,y,1/2+z
x,-y,1/2+z
1/2+x,1/2+y,z
1/2-x,1/2-y,z
1/2+x,1/2-y,1/2-z
1/2-x,1/2+y,1/2-z
1/2-x,1/2-y,-z
1/2+x,1/2+y,-z
1/2-x,1/2+y,1/2+z
1/2+x,1/2-y,1/2+z
loop_
_atom_site_type_symbol
_atom_site_label
_atom_site_fract_x
_atom_site_fract_y
_atom_site_fract_z
Si Si1 0.078255 0.582921 0.880563
Si Si2 0.839418 0.226586 0.330541
Si Si3 0.816283 0.110836 0.924041
Si Si4 0.500000 0.251022 0.250000
O O1 0.139147 0.417246 0.865689
O O2 0.106426 0.758697 0.918861
O O3 0.000000 0.500000 0.915525
O O4 0.047841 0.648816 0.808423
O O5 0.750000 0.250000 0.295920
O O6 0.920422 0.171167 0.288838
O O7 0.827300 0.069405 0.383601
O O8 0.750000 0.250000 0.894616
O O9 0.794431 0.071478 0.000000
#
# Coordination Sequence:
#
# PCOD9498935 Si02
#       4
#    16  16  16   8
#     4  10  22  44  67  98 140 178 226 287 347 408
#     4  11  22  43  74 104 134 188 228 281 359 407
#     4  11  25  43  67 103 141 181 238 287 332 411
#     4  10  25  47  70 103 143 172 235 291 336 435
#
# _framework density 22.743283999999999
#
# number of rings (size 3 to 8) (size 9 to 14) (size 15 to 20)
#    0.000    1.429    2.857    3.857    0.000   10.286 
#    5.143   10.000    0.000    0.000    0.000    0.000 
#    0.000    0.000    0.000    0.000    0.000    0.000 
#
# Total GULP energy -156021.185631 kJ/mol
# GULP energy per Si atom -5572.185201 kJ/mol
# Density = 2.269152 g / cm^3
# Si number density = 22.743284 Si / 1000 Ang^3
#
#
#
# Elastic Constant Matrix: (Units=GPa)
#
#
# Indices 1 2 3 4 5 6 
#
# 1 146.8411 43.3688 25.1907 0.0000 0.0000 0.0000
# 2 43.3688 131.4190 54.0429 0.0000 0.0000 0.0000
# 3 25.1907 54.0429 67.8211 0.0000 0.0000 0.0000
# 4 0.0000 0.0000 0.0000 39.4228 0.0000 0.0000
# 5 0.0000 0.0000 0.0000 0.0000 11.3821 0.0000
# 6 0.0000 0.0000 0.0000 0.0000 0.0000 35.6459
#
#
#
# Elastic Compliance Matrix: (Units=1/GPa)
#
#
# Indices 1 2 3 4 5 6 
#
# 1 0.007614 -0.002007 -0.001228 0.000000 0.000000 0.000000
# 2 -0.002007 0.011847 -0.008695 0.000000 0.000000 0.000000
# 3 -0.001228 -0.008695 0.022129 0.000000 0.000000 0.000000
# 4 0.000000 0.000000 0.000000 0.025366 0.000000 0.000000
# 5 0.000000 0.000000 0.000000 0.000000 0.087857 0.000000
# 6 0.000000 0.000000 0.000000 0.000000 0.000000 0.028054
#
#
# Mechanical properties :
#
#
# Convention : Reuss Voigt Hill
#
# Bulk Modulus (GPa) = 56.40433 65.69845 61.05139
# Shear Modulus (GPa) = 23.51413 32.18874 27.85143
#
# Velocity S-wave (km/s) = 3.21891 3.76614 3.50323
# Velocity P-wave (km/s) = 6.21848 6.91819 6.57765
#
# Compressibility (1/GPa) = 0.01772914
#
# Stress axis : x y z
#
# Youngs Moduli (GPa) = 131.34246 84.40783 45.18886
#
# Poissons Ratio (x) = 0.16944 0.05551
# Poissons Ratio (y) = 0.26366 0.39291
# Poissons Ratio (z) = 0.16133 0.73391
#
# Static dielectric constant tensor:
#      x y z
#    x 2.087460 0.000000 0.000000 
#    y 0.000000 1.910080 0.000000 
#    z 0.000000 0.000000 1.833800 
# 
# From -- ./inp_files/49435.got.cif
#   From: 2010.05.17/outbox.cif.g08.bks.cpg/sg66_25_cif.got.tgz:49435.got - 2010.06.03 17:51:23.
