data_PCOD9498989
_publ_section_title
;
Structure prediction by ZEFSAII (Michael W. Deem and Ramdas Pophale) SiO2 
 PCOD9498989
Probable space group: C C C M
;
_chemical_formula_sum "Si O2"
_cell_formula_units_Z 64
_cell_length_a 27.782829
_cell_length_b 5.248960
_cell_length_c 20.304543
_cell_angle_alpha 90.000000
_cell_angle_beta 90.000000
_cell_angle_gamma 90.000000
_cell_volume 2961.030960
_symmetry_space_group_name_H-M "C C C M"
_symmetry_group_IT_number 66
_symmetry_cell_setting 'orthorhombic'
loop_
_space_group_symop_operation_xyz
x,y,z
-x,-y,z
x,-y,1/2-z
-x,y,1/2-z
-x,-y,-z
x,y,-z
-x,y,1/2+z
x,-y,1/2+z
1/2+x,1/2+y,z
1/2-x,1/2-y,z
1/2+x,1/2-y,1/2-z
1/2-x,1/2+y,1/2-z
1/2-x,1/2-y,-z
1/2+x,1/2+y,-z
1/2-x,1/2+y,1/2+z
1/2+x,1/2-y,1/2+z
loop_
_atom_site_type_symbol
_atom_site_label
_atom_site_fract_x
_atom_site_fract_y
_atom_site_fract_z
Si Si1 0.945114 0.451233 0.633869
Si Si2 0.354489 0.216777 0.073956
Si Si3 0.101765 0.036986 0.679565
Si Si4 0.717073 0.000651 0.823747
O O1 0.907998 0.404701 0.574233
O O2 0.937917 0.189804 0.674569
O O3 0.000000 0.500000 0.616417
O O4 0.923325 0.693159 0.671653
O O5 0.362696 0.467850 0.119275
O O6 0.320924 0.036377 0.117963
O O7 0.337485 0.261811 0.000000
O O8 0.126470 0.000000 0.750000
O O9 0.750000 0.750000 0.826437
O O10 0.694631 0.000000 0.750000
O O11 0.750000 0.250000 0.830913
#
# Coordination Sequence:
#
# PCOD9498989 Si02
#       4
#    16  16  16  16
#     4  10  23  41  64  98 134 176 220 272 326 391
#     4  10  26  43  68  99 134 176 219 270 330 395
#     4  10  23  39  64  95 130 174 219 273 325 385
#     4  10  24  44  69  98 129 170 219 273 335 397
#
# _framework density 21.614094000000001
#
# number of rings (size 3 to 8) (size 9 to 14) (size 15 to 20)
#    1.500    0.500    0.000    1.500    7.000    6.500 
#    0.000    1.250    0.000    0.000    0.000    0.000 
#    0.000    0.000    0.000    0.000    0.000    0.000 
#
# Total GULP energy -178423.951745 kJ/mol
# GULP energy per Si atom -5575.748492 kJ/mol
# Density = 2.156490 g / cm^3
# Si number density = 21.614094 Si / 1000 Ang^3
#
#
#
# Elastic Constant Matrix: (Units=GPa)
#
#
# Indices 1 2 3 4 5 6 
#
# 1 67.1997 5.0086 33.2326 0.0000 0.0000 0.0000
# 2 5.0086 109.0243 -9.8542 0.0000 0.0000 0.0000
# 3 33.2326 -9.8542 153.6654 0.0000 0.0000 0.0000
# 4 0.0000 0.0000 0.0000 12.1525 0.0000 0.0000
# 5 0.0000 0.0000 0.0000 0.0000 10.3932 0.0000
# 6 0.0000 0.0000 0.0000 0.0000 0.0000 30.1468
#
#
#
# Elastic Compliance Matrix: (Units=1/GPa)
#
#
# Indices 1 2 3 4 5 6 
#
# 1 0.016795 -0.001106 -0.003703 0.000000 0.000000 0.000000
# 2 -0.001106 0.009299 0.000836 0.000000 0.000000 0.000000
# 3 -0.003703 0.000836 0.007362 0.000000 0.000000 0.000000
# 4 0.000000 0.000000 0.000000 0.082288 0.000000 0.000000
# 5 0.000000 0.000000 0.000000 0.000000 0.096217 0.000000
# 6 0.000000 0.000000 0.000000 0.000000 0.000000 0.033171
#
#
# Mechanical properties :
#
#
# Convention : Reuss Voigt Hill
#
# Bulk Modulus (GPa) = 39.20359 42.96261 41.08310
# Shear Modulus (GPa) = 19.11452 30.63864 24.87658
#
# Velocity S-wave (km/s) = 2.97704 3.76910 3.39624
# Velocity P-wave (km/s) = 5.47671 6.23392 5.86754
#
# Compressibility (1/GPa) = 0.02550787
#
# Stress axis : x y z
#
# Youngs Moduli (GPa) = 59.54236 107.54295 135.83118
#
# Poissons Ratio (x) = 0.11897 0.50299
# Poissons Ratio (y) = 0.06587 -0.11349
# Poissons Ratio (z) = 0.22049 -0.08986
#
# Static dielectric constant tensor:
#      x y z
#    x 1.830100 0.000000 0.000000 
#    y 0.000000 1.802600 0.000000 
#    z 0.000000 0.000000 1.788100 
# 
# From -- ./inp_files/52764.got.cif
#   From: 2010.05.17/outbox.cif.g08.bks.cpg/sg66_27_cif.got.tgz:52764.got - 2010.06.03 17:51:23.
