data_PCOD9498899
_publ_section_title
;
Structure prediction by ZEFSAII (Michael W. Deem and Ramdas Pophale) SiO2 
 PCOD9498899
Probable space group: C C C M
;
_chemical_formula_sum "Si O2"
_cell_formula_units_Z 60
_cell_length_a 4.976405
_cell_length_b 16.296039
_cell_length_c 33.334583
_cell_angle_alpha 90.000000
_cell_angle_beta 90.000000
_cell_angle_gamma 90.000000
_cell_volume 2703.291008
_symmetry_space_group_name_H-M "C C C M"
_symmetry_group_IT_number 66
_symmetry_cell_setting 'orthorhombic'
loop_
_space_group_symop_operation_xyz
x,y,z
-x,-y,z
x,-y,1/2-z
-x,y,1/2-z
-x,-y,-z
x,y,-z
-x,y,1/2+z
x,-y,1/2+z
1/2+x,1/2+y,z
1/2-x,1/2-y,z
1/2+x,1/2-y,1/2-z
1/2-x,1/2+y,1/2-z
1/2-x,1/2-y,-z
1/2+x,1/2+y,-z
1/2-x,1/2+y,1/2+z
1/2+x,1/2-y,1/2+z
loop_
_atom_site_type_symbol
_atom_site_label
_atom_site_fract_x
_atom_site_fract_y
_atom_site_fract_z
Si Si1 0.500000 0.000000 0.750000
Si Si2 0.126473 0.086928 0.185543
Si Si3 0.000000 0.803769 0.250000
Si Si4 0.760111 0.442085 0.396592
Si Si5 0.508355 0.807901 0.545539
O O1 0.662824 0.940459 0.780089
O O2 0.929103 0.144092 0.210562
O O3 0.201207 0.117460 0.141528
O O4 0.000000 0.000000 0.175041
O O5 0.750000 0.750000 0.237399
O O6 0.500000 0.500000 0.408272
O O7 0.000000 0.500000 0.381097
O O8 0.902270 0.387679 0.430851
O O9 0.591523 0.831366 0.500000
O O10 0.750000 0.750000 0.562363
O O11 0.250000 0.750000 0.543534
#
# Coordination Sequence:
#
# PCOD9498899 Si02
#       5
#     4  16   8  16  16
#     4  12  16  40  68  80 114 174 222 250 294 406
#     4  11  23  40  64  86 121 174 216 258 321 388
#     4  12  26  40  61  93 126 162 220 276 318 370
#     4  11  24  40  64 100 126 159 217 275 319 370
#     4  10  22  43  68  93 130 177 209 248 328 409
#
# _framework density 22.195170999999998
#
# number of rings (size 3 to 8) (size 9 to 14) (size 15 to 20)
#    0.000    1.067    4.000    2.400    0.000    2.133 
#    0.000    5.333    0.000    0.000    0.000    0.000 
#    0.000    0.000    0.000    0.000    0.000    0.000 
#
# Total GULP energy -167112.227450 kJ/mol
# GULP energy per Si atom -5570.407582 kJ/mol
# Density = 2.214465 g / cm^3
# Si number density = 22.195171 Si / 1000 Ang^3
#
#
#
# Elastic Constant Matrix: (Units=GPa)
#
#
# Indices 1 2 3 4 5 6 
#
# 1 104.0258 11.7046 12.3679 0.0000 0.0000 0.0000
# 2 11.7046 52.9669 33.1847 0.0000 0.0000 0.0000
# 3 12.3679 33.1847 113.1571 0.0000 0.0000 0.0000
# 4 0.0000 0.0000 0.0000 -6.9560 0.0000 0.0000
# 5 0.0000 0.0000 0.0000 0.0000 42.2783 0.0000
# 6 0.0000 0.0000 0.0000 0.0000 0.0000 28.4113
#
#
#
# Elastic Compliance Matrix: (Units=1/GPa)
#
#
# Indices 1 2 3 4 5 6 
#
# 1 0.009885 -0.001847 -0.000539 0.000000 0.000000 0.000000
# 2 -0.001847 0.023474 -0.006682 0.000000 0.000000 0.000000
# 3 -0.000539 -0.006682 0.010856 0.000000 0.000000 0.000000
# 4 0.000000 0.000000 0.000000 -0.143761 0.000000 0.000000
# 5 0.000000 0.000000 0.000000 0.000000 0.023653 0.000000
# 6 0.000000 0.000000 0.000000 0.000000 0.000000 0.035197
#
#
# Mechanical properties :
#
#
# Convention : Reuss Voigt Hill
#
# Bulk Modulus (GPa) = 38.34459 42.74047 40.54253
# Shear Modulus (GPa) = -360.56460 26.93957 -166.81252
#
# Velocity S-wave (km/s) = -12.75949 3.48768 -8.67873
# Velocity P-wave (km/s) = 14.13361 5.95962 9.06206
#
# Compressibility (1/GPa) = 0.02607930
#
# Stress axis : x y z
#
# Youngs Moduli (GPa) = 101.16495 42.59965 92.11645
#
# Poissons Ratio (x) = 0.07867 0.04963
# Poissons Ratio (y) = 0.18683 0.61555
# Poissons Ratio (z) = 0.05451 0.28466
#
# Static dielectric constant tensor:
#      x y z
#    x 2.655530 0.000000 0.000000 
#    y 0.000000 1.953960 0.000000 
#    z 0.000000 0.000000 1.882150 
# 
# From -- ./inp_files/66911.got.cif
#   From: 2010.05.17/outbox.cif.g08.bks.cpg/sg66_34_cif.got.tgz:66911.got - 2010.06.03 17:51:23.
