data_PCOD9498594
_publ_section_title
;
Structure prediction by ZEFSAII (Michael W. Deem and Ramdas Pophale) SiO2 
 PCOD9498594
Probable space group: C C C M
;
_chemical_formula_sum "Si O2"
_cell_formula_units_Z 68
_cell_length_a 12.510637
_cell_length_b 13.730088
_cell_length_c 15.041705
_cell_angle_alpha 90.000000
_cell_angle_beta 90.000000
_cell_angle_gamma 90.000000
_cell_volume 2583.745962
_symmetry_space_group_name_H-M "C C C M"
_symmetry_group_IT_number 66
_symmetry_cell_setting 'orthorhombic'
loop_
_space_group_symop_operation_xyz
x,y,z
-x,-y,z
x,-y,1/2-z
-x,y,1/2-z
-x,-y,-z
x,y,-z
-x,y,1/2+z
x,-y,1/2+z
1/2+x,1/2+y,z
1/2-x,1/2-y,z
1/2+x,1/2-y,1/2-z
1/2-x,1/2+y,1/2-z
1/2-x,1/2-y,-z
1/2+x,1/2+y,-z
1/2-x,1/2+y,1/2+z
1/2+x,1/2-y,1/2+z
loop_
_atom_site_type_symbol
_atom_site_label
_atom_site_fract_x
_atom_site_fract_y
_atom_site_fract_z
Si Si1 0.781635 0.865892 0.902422
Si Si2 0.035092 0.858975 0.901907
Si Si3 0.000000 0.500000 0.250000
Si Si4 0.949537 0.626194 0.398204
Si Si5 0.261938 0.631442 0.205975
O O1 0.750000 0.750000 0.903157
O O2 0.747662 0.904299 0.806188
O O3 0.910076 0.881200 0.897941
O O4 0.744494 0.902655 0.000000
O O5 0.038559 0.741968 0.895778
O O6 0.120536 0.894011 0.830244
O O7 0.074866 0.888147 0.000000
O O8 0.029098 0.579760 0.326800
O O9 0.963344 0.597747 0.500000
O O10 0.832328 0.600716 0.360302
O O11 0.250000 0.750000 0.208073
#
# Coordination Sequence:
#
# PCOD9498594 Si02
#       5
#    16  16   4  16  16
#     4   9  17  26  41  76 115 141 166 204 270 332
#     4   9  17  30  52  78 110 143 173 221 277 326
#     4  12  26  36  56  74 106 152 186 222 276 318
#     4  10  22  38  53  75 106 142 189 226 263 326
#     4   9  17  29  52  74 103 138 178 218 272 322
#
# _framework density 26.318379
#
# number of rings (size 3 to 8) (size 9 to 14) (size 15 to 20)
#    0.000    2.588    0.000    1.765    9.882    2.824 
#    0.000    1.176    0.000    0.000    0.000    3.294 
#    0.000   11.294    0.000    0.000    0.000    0.000 
#
# Total GULP energy -189877.121821 kJ/mol
# GULP energy per Si atom -5584.621230 kJ/mol
# Density = 2.625848 g / cm^3
# Si number density = 26.318379 Si / 1000 Ang^3
#
#
#
# Elastic Constant Matrix: (Units=GPa)
#
#
# Indices 1 2 3 4 5 6 
#
# 1 142.1609 14.2585 69.1219 0.0000 0.0000 0.0000
# 2 14.2585 94.0494 39.4663 0.0000 0.0000 0.0000
# 3 69.1219 39.4663 278.0803 0.0000 0.0000 0.0000
# 4 0.0000 0.0000 0.0000 27.7779 0.0000 0.0000
# 5 0.0000 0.0000 0.0000 0.0000 -43.7512 0.0000
# 6 0.0000 0.0000 0.0000 0.0000 0.0000 13.4962
#
#
#
# Elastic Compliance Matrix: (Units=1/GPa)
#
#
# Indices 1 2 3 4 5 6 
#
# 1 0.008016 -0.000403 -0.001935 0.000000 0.000000 0.000000
# 2 -0.000403 0.011326 -0.001507 0.000000 0.000000 0.000000
# 3 -0.001935 -0.001507 0.004291 0.000000 0.000000 0.000000
# 4 0.000000 0.000000 0.000000 0.036000 0.000000 0.000000
# 5 0.000000 0.000000 0.000000 0.000000 -0.022857 0.000000
# 6 0.000000 0.000000 0.000000 0.000000 0.000000 0.074095
#
#
# Mechanical properties :
#
#
# Convention : Reuss Voigt Hill
#
# Bulk Modulus (GPa) = 62.72834 84.44269 73.58552
# Shear Modulus (GPa) = 40.36280 25.60083 32.98182
#
# Velocity S-wave (km/s) = 3.92041 3.12226 3.54388
# Velocity P-wave (km/s) = 6.66176 6.71957 6.69073
#
# Compressibility (1/GPa) = 0.01594176
#
# Stress axis : x y z
#
# Youngs Moduli (GPa) = 124.75565 88.28985 233.04392
#
# Poissons Ratio (x) = 0.03559 0.45099
# Poissons Ratio (y) = 0.05029 0.35126
# Poissons Ratio (z) = 0.24143 0.13308
#
# Static dielectric constant tensor:
#      x y z
#    x 2.102310 0.000000 0.000000 
#    y 0.000000 3.166150 0.000000 
#    z 0.000000 0.000000 1.981720 
# 
# From -- ./inp_files/26117.got.cif
#   From: 2010.05.17/outbox.cif.g08.bks.cpg/sg66_14_cif.got.tgz:26117.got - 2010.06.03 17:51:23.
