data_PCOD9498932
_publ_section_title
;
Structure prediction by ZEFSAII (Michael W. Deem and Ramdas Pophale) SiO2 
 PCOD9498932
Probable space group: C C C M
;
_chemical_formula_sum "Si O2"
_cell_formula_units_Z 60
_cell_length_a 20.398319
_cell_length_b 5.208634
_cell_length_c 21.900298
_cell_angle_alpha 90.000000
_cell_angle_beta 90.000000
_cell_angle_gamma 90.000000
_cell_volume 2326.849237
_symmetry_space_group_name_H-M "C C C M"
_symmetry_group_IT_number 66
_symmetry_cell_setting 'orthorhombic'
loop_
_space_group_symop_operation_xyz
x,y,z
-x,-y,z
x,-y,1/2-z
-x,y,1/2-z
-x,-y,-z
x,y,-z
-x,y,1/2+z
x,-y,1/2+z
1/2+x,1/2+y,z
1/2-x,1/2-y,z
1/2+x,1/2-y,1/2-z
1/2-x,1/2+y,1/2-z
1/2-x,1/2-y,-z
1/2+x,1/2+y,-z
1/2-x,1/2+y,1/2+z
1/2+x,1/2-y,1/2+z
loop_
_atom_site_type_symbol
_atom_site_label
_atom_site_fract_x
_atom_site_fract_y
_atom_site_fract_z
Si Si1 0.790328 0.000000 0.750000
Si Si2 0.287942 0.503784 0.572712
Si Si3 0.000000 0.000000 0.750000
Si Si4 0.066734 0.168585 0.429951
Si Si5 0.892706 0.676006 0.310227
O O1 0.750000 0.750000 0.768674
O O2 0.835946 0.889972 0.696299
O O3 0.275280 0.502534 0.500000
O O4 0.250000 0.250000 0.596020
O O5 0.367070 0.502960 0.575806
O O6 0.250000 0.750000 0.598091
O O7 0.957590 0.177665 0.791719
O O8 0.063391 0.265964 0.500000
O O9 0.087779 0.389574 0.379945
O O10 0.000000 0.000000 0.419905
O O11 0.880569 0.500000 0.250000
#
# Coordination Sequence:
#
# PCOD9498932 Si02
#       5
#     8  16   4  16  16
#     4  11  24  47  76 119 152 201 270 346 398 467
#     4   9  19  40  68 103 150 207 257 304 380 472
#     4  10  22  44  66 102 136 196 264 306 376 468
#     4  10  22  45  76 117 161 204 262 334 405 476
#     4  11  23  44  76 108 151 206 262 324 395 485
#
# _framework density 25.785941999999999
#
# number of rings (size 3 to 8) (size 9 to 14) (size 15 to 20)
#    0.000    1.867    2.667    0.400    0.000    2.133 
#    9.600    1.333    0.000   11.200    0.000    0.000 
#    0.000    0.000    0.000    0.000    0.000    0.000 
#
# Total GULP energy -167185.749659 kJ/mol
# GULP energy per Si atom -5572.858322 kJ/mol
# Density = 2.572725 g / cm^3
# Si number density = 25.785942 Si / 1000 Ang^3
#
#
#
# Elastic Constant Matrix: (Units=GPa)
#
#
# Indices 1 2 3 4 5 6 
#
# 1 188.5067 74.5895 34.8303 0.0000 0.0000 0.0000
# 2 74.5895 141.6213 38.6178 0.0000 0.0000 0.0000
# 3 34.8303 38.6178 221.1378 0.0000 0.0000 0.0000
# 4 0.0000 0.0000 0.0000 11.1103 0.0000 0.0000
# 5 0.0000 0.0000 0.0000 0.0000 -4.3408 0.0000
# 6 0.0000 0.0000 0.0000 0.0000 0.0000 37.7625
#
#
#
# Elastic Compliance Matrix: (Units=1/GPa)
#
#
# Indices 1 2 3 4 5 6 
#
# 1 0.006747 -0.003427 -0.000464 0.000000 0.000000 0.000000
# 2 -0.003427 0.009155 -0.001059 0.000000 0.000000 0.000000
# 3 -0.000464 -0.001059 0.004780 0.000000 0.000000 0.000000
# 4 0.000000 0.000000 0.000000 0.090007 0.000000 0.000000
# 5 0.000000 0.000000 0.000000 0.000000 -0.230372 0.000000
# 6 0.000000 0.000000 0.000000 0.000000 0.000000 0.026481
#
#
# Mechanical properties :
#
#
# Convention : Reuss Voigt Hill
#
# Bulk Modulus (GPa) = 92.75123 94.14900 93.45011
# Shear Modulus (GPa) = -62.72807 35.78829 -13.46989
#
# Velocity S-wave (km/s) = -4.93754 3.72949 -2.28803
# Velocity P-wave (km/s) = 1.88204 7.42540 5.41658
#
# Compressibility (1/GPa) = 0.01078153
#
# Stress axis : x y z
#
# Youngs Moduli (GPa) = 148.22462 109.23437 209.20020
#
# Poissons Ratio (x) = 0.37431 0.09711
# Poissons Ratio (y) = 0.50792 0.22154
# Poissons Ratio (z) = 0.06881 0.11568
#
# Static dielectric constant tensor:
#      x y z
#    x 1.994050 0.000000 0.000000 
#    y 0.000000 2.280370 0.000000 
#    z 0.000000 0.000000 2.226460 
# 
# From -- ./inp_files/52230.got.cif
#   From: 2010.05.17/outbox.cif.g08.bks.cpg/sg66_27_cif.got.tgz:52230.got - 2010.06.03 17:51:23.
