data_PCOD9498404
_publ_section_title
;
Structure prediction by ZEFSAII (Michael W. Deem and Ramdas Pophale) SiO2 
 PCOD9498404
Probable space group: C C C M
;
_chemical_formula_sum "Si O2"
_cell_formula_units_Z 80
_cell_length_a 11.060957
_cell_length_b 23.069995
_cell_length_c 14.258118
_cell_angle_alpha 90.000000
_cell_angle_beta 90.000000
_cell_angle_gamma 90.000000
_cell_volume 3638.332694
_symmetry_space_group_name_H-M "C C C M"
_symmetry_group_IT_number 66
_symmetry_cell_setting 'orthorhombic'
loop_
_space_group_symop_operation_xyz
x,y,z
-x,-y,z
x,-y,1/2-z
-x,y,1/2-z
-x,-y,-z
x,y,-z
-x,y,1/2+z
x,-y,1/2+z
1/2+x,1/2+y,z
1/2-x,1/2-y,z
1/2+x,1/2-y,1/2-z
1/2-x,1/2+y,1/2-z
1/2-x,1/2-y,-z
1/2+x,1/2+y,-z
1/2-x,1/2+y,1/2+z
1/2+x,1/2-y,1/2+z
loop_
_atom_site_type_symbol
_atom_site_label
_atom_site_fract_x
_atom_site_fract_y
_atom_site_fract_z
Si Si1 0.247214 0.131912 0.112071
Si Si2 0.999210 0.068293 0.386630
Si Si3 0.632563 0.015042 0.386580
Si Si4 0.143666 0.706432 0.765527
Si Si5 0.741326 0.895175 0.613041
O O1 0.117113 0.105907 0.140484
O O2 0.299011 0.186135 0.166742
O O3 0.332762 0.078778 0.140991
O O4 0.247872 0.140389 0.000000
O O5 0.995840 0.063960 0.500000
O O6 0.116744 0.106582 0.363780
O O7 0.000000 0.000000 0.355542
O O8 0.638947 0.015642 0.500000
O O9 0.713332 0.961290 0.357816
O O10 0.500000 0.000000 0.356745
O O11 0.250000 0.750000 0.802452
O O12 0.157625 0.651042 0.834909
O O13 0.000000 0.722358 0.750000
O O14 0.725101 0.890019 0.500000
#
# Coordination Sequence:
#
# PCOD9498404 Si02
#       5
#    16  16  16  16  16
#     4  10  21  40  67  97 133 168 206 261 322 387
#     4   9  16  33  65 105 138 169 207 248 311 392
#     4   9  16  30  58  93 127 163 196 242 316 388
#     4  12  30  49  66  91 123 168 228 280 323 378
#     4  10  21  40  67  97 133 168 206 261 322 387
#
# _framework density 21.988094
#
# number of rings (size 3 to 8) (size 9 to 14) (size 15 to 20)
#    0.000    2.000    2.000    1.200    2.800    4.000 
#    0.000    3.000    0.000    0.000    0.000    0.000 
#    0.000    0.000    0.000    0.000    0.000    0.000 
#
# Total GULP energy -223061.206026 kJ/mol
# GULP energy per Si atom -5576.530151 kJ/mol
# Density = 2.193805 g / cm^3
# Si number density = 21.988094 Si / 1000 Ang^3
#
#
#
# Elastic Constant Matrix: (Units=GPa)
#
#
# Indices 1 2 3 4 5 6 
#
# 1 120.5895 19.6791 -12.4015 0.0000 0.0000 0.0000
# 2 19.6791 59.4595 11.1311 0.0000 0.0000 0.0000
# 3 -12.4015 11.1311 93.6619 0.0000 0.0000 0.0000
# 4 0.0000 0.0000 0.0000 39.1258 0.0000 0.0000
# 5 0.0000 0.0000 0.0000 0.0000 9.5108 0.0000
# 6 0.0000 0.0000 0.0000 0.0000 0.0000 30.9807
#
#
#
# Elastic Compliance Matrix: (Units=1/GPa)
#
#
# Indices 1 2 3 4 5 6 
#
# 1 0.008989 -0.003271 0.001579 0.000000 0.000000 0.000000
# 2 -0.003271 0.018391 -0.002619 0.000000 0.000000 0.000000
# 3 0.001579 -0.002619 0.011197 0.000000 0.000000 0.000000
# 4 0.000000 0.000000 0.000000 0.025559 0.000000 0.000000
# 5 0.000000 0.000000 0.000000 0.000000 0.105143 0.000000
# 6 0.000000 0.000000 0.000000 0.000000 0.000000 0.032278
#
#
# Mechanical properties :
#
#
# Convention : Reuss Voigt Hill
#
# Bulk Modulus (GPa) = 33.38253 34.50315 33.94284
# Shear Modulus (GPa) = 22.71049 32.94360 27.82704
#
# Velocity S-wave (km/s) = 3.21729 3.87492 3.56132
# Velocity P-wave (km/s) = 5.38668 5.97878 5.69044
#
# Compressibility (1/GPa) = 0.02995578
#
# Stress axis : x y z
#
# Youngs Moduli (GPa) = 111.25095 54.37488 89.30989
#
# Poissons Ratio (x) = 0.17783 -0.14101
# Poissons Ratio (y) = 0.36385 0.23387
# Poissons Ratio (z) = -0.17565 0.14239
#
# Static dielectric constant tensor:
#      x y z
#    x 1.918450 0.000000 0.000000 
#    y 0.000000 1.842520 0.000000 
#    z 0.000000 0.000000 1.858950 
# 
# From -- ./inp_files/26344.got.cif
#   From: 2010.05.17/outbox.cif.g08.bks.cpg/sg66_14_cif.got.tgz:26344.got - 2010.06.03 17:51:23.
