data_PCOD9498867
_publ_section_title
;
Structure prediction by ZEFSAII (Michael W. Deem and Ramdas Pophale) SiO2 
 PCOD9498867
Probable space group: C C C M
;
_chemical_formula_sum "Si O2"
_cell_formula_units_Z 32
_cell_length_a 9.303263
_cell_length_b 9.666017
_cell_length_c 14.507345
_cell_angle_alpha 90.000000
_cell_angle_beta 90.000000
_cell_angle_gamma 90.000000
_cell_volume 1304.580228
_symmetry_space_group_name_H-M "C C C M"
_symmetry_group_IT_number 66
_symmetry_cell_setting 'orthorhombic'
loop_
_space_group_symop_operation_xyz
x,y,z
-x,-y,z
x,-y,1/2-z
-x,y,1/2-z
-x,-y,-z
x,y,-z
-x,y,1/2+z
x,-y,1/2+z
1/2+x,1/2+y,z
1/2-x,1/2-y,z
1/2+x,1/2-y,1/2-z
1/2-x,1/2+y,1/2-z
1/2-x,1/2-y,-z
1/2+x,1/2+y,-z
1/2-x,1/2+y,1/2+z
1/2+x,1/2-y,1/2+z
loop_
_atom_site_type_symbol
_atom_site_label
_atom_site_fract_x
_atom_site_fract_y
_atom_site_fract_z
Si Si1 0.406153 0.674308 0.000000
Si Si2 0.224575 0.581975 0.500000
Si Si3 0.592541 0.186119 0.339444
O O1 0.250000 0.750000 0.000000
O O2 0.494202 0.719839 0.091650
O O3 0.359243 0.515189 0.000000
O O4 0.250000 0.750000 0.500000
O O5 0.139654 0.559818 0.405745
O O6 0.500000 0.158420 0.250000
O O7 0.750000 0.250000 0.312529
#
# Coordination Sequence:
#
# PCOD9498867 Si02
#       3
#     8   8  16
#     4  11  23  44  70  99 139 182 226 288 353 407
#     4   9  22  44  69  94 132 178 226 277 336 406
#     4  10  22  42  68 102 138 182 234 284 343 417
#
# _framework density 24.528963000000001
#
# number of rings (size 3 to 8) (size 9 to 14) (size 15 to 20)
#    0.000    2.000    0.000    3.750    0.000   20.000 
#    0.000   40.000    0.000    0.000    0.000    0.000 
#    0.000    0.000    0.000    0.000    0.000    0.000 
#
# Total GULP energy -89294.776677 kJ/mol
# GULP energy per Si atom -5580.923542 kJ/mol
# Density = 2.447313 g / cm^3
# Si number density = 24.528963 Si / 1000 Ang^3
#
#
#
# Elastic Constant Matrix: (Units=GPa)
#
#
# Indices 1 2 3 4 5 6 
#
# 1 271.8321 69.3577 122.5392 0.0000 0.0000 0.0000
# 2 69.3577 107.0554 46.3665 0.0000 0.0000 0.0000
# 3 122.5392 46.3665 246.3190 0.0000 0.0000 0.0000
# 4 0.0000 0.0000 0.0000 -10.4265 0.0000 0.0000
# 5 0.0000 0.0000 0.0000 0.0000 71.4088 0.0000
# 6 0.0000 0.0000 0.0000 0.0000 0.0000 57.4991
#
#
#
# Elastic Compliance Matrix: (Units=1/GPa)
#
#
# Indices 1 2 3 4 5 6 
#
# 1 0.005289 -0.002490 -0.002162 0.000000 0.000000 0.000000
# 2 -0.002490 0.011342 -0.000896 0.000000 0.000000 0.000000
# 3 -0.002162 -0.000896 0.005304 0.000000 0.000000 0.000000
# 4 0.000000 0.000000 0.000000 -0.095909 0.000000 0.000000
# 5 0.000000 0.000000 0.000000 0.000000 0.014004 0.000000
# 6 0.000000 0.000000 0.000000 0.000000 0.000000 0.017392
#
#
# Mechanical properties :
#
#
# Convention : Reuss Voigt Hill
#
# Bulk Modulus (GPa) = 92.26750 122.41480 107.34115
# Shear Modulus (GPa) = -179.41639 49.49249 -64.96195
#
# Velocity S-wave (km/s) = -8.56175 4.49677 -5.15182
# Velocity P-wave (km/s) = 7.74859 8.77359 2.90992
#
# Compressibility (1/GPa) = 0.01083805
#
# Stress axis : x y z
#
# Youngs Moduli (GPa) = 189.07785 88.16544 188.52775
#
# Poissons Ratio (x) = 0.21952 0.40767
# Poissons Ratio (y) = 0.47079 0.16899
# Poissons Ratio (z) = 0.40886 0.07903
#
# Static dielectric constant tensor:
#      x y z
#    x 2.094080 0.000000 0.000000 
#    y 0.000000 2.152080 0.000000 
#    z 0.000000 0.000000 1.994110 
# 
# From -- ./inp_files/35266.got.cif
#   From: 2010.05.17/outbox.cif.g08.bks.cpg/sg66_18_cif.got.tgz:35266.got - 2010.06.03 17:51:23.
