data_PCOD9498174
_publ_section_title
;
Structure prediction by ZEFSAII (Michael W. Deem and Ramdas Pophale) SiO2 
 PCOD9498174
Probable space group: C C C M
;
_chemical_formula_sum "Si O2"
_cell_formula_units_Z 44
_cell_length_a 9.937871
_cell_length_b 21.678586
_cell_length_c 9.832335
_cell_angle_alpha 90.000000
_cell_angle_beta 90.000000
_cell_angle_gamma 90.000000
_cell_volume 2118.268333
_symmetry_space_group_name_H-M "C C C M"
_symmetry_group_IT_number 66
_symmetry_cell_setting 'orthorhombic'
loop_
_space_group_symop_operation_xyz
x,y,z
-x,-y,z
x,-y,1/2-z
-x,y,1/2-z
-x,-y,-z
x,y,-z
-x,y,1/2+z
x,-y,1/2+z
1/2+x,1/2+y,z
1/2-x,1/2-y,z
1/2+x,1/2-y,1/2-z
1/2-x,1/2+y,1/2-z
1/2-x,1/2-y,-z
1/2+x,1/2+y,-z
1/2-x,1/2+y,1/2+z
1/2+x,1/2-y,1/2+z
loop_
_atom_site_type_symbol
_atom_site_label
_atom_site_fract_x
_atom_site_fract_y
_atom_site_fract_z
Si Si1 0.714516 0.875451 0.500000
Si Si2 0.596308 0.099031 0.500000
Si Si3 0.176047 0.991339 0.500000
Si Si4 0.000000 0.000000 0.250000
Si Si5 0.654883 0.195625 0.731154
O O1 0.563836 0.903665 0.500000
O O2 0.719062 0.831656 0.631173
O O3 0.814366 0.933876 0.500000
O O4 0.675542 0.035802 0.500000
O O5 0.641392 0.138832 0.629086
O O6 0.100167 0.969536 0.362004
O O7 0.500000 0.217742 0.750000
O O8 0.750000 0.250000 0.679829
#
# Coordination Sequence:
#
# PCOD9498174 Si02
#       5
#     8   8   8   4  16
#     4  10  21  38  65  87 116 152 200 252 290 355
#     4  10  21  38  65  87 116 152 200 252 290 355
#     4  11  21  42  60  88 123 155 198 236 318 341
#     4  10  24  38  54  82 136 154 184 248 272 384
#     4  10  21  39  58  89 121 155 203 247 294 352
#
# _framework density 20.771684
#
# number of rings (size 3 to 8) (size 9 to 14) (size 15 to 20)
#    0.000    1.818    0.000    3.818    0.000    0.000 
#   19.636    7.273    0.000    0.000    0.000    0.000 
#    0.000    0.000    0.000    0.000    0.000    0.000 
#
# Total GULP energy -122678.107320 kJ/mol
# GULP energy per Si atom -5576.277605 kJ/mol
# Density = 2.072441 g / cm^3
# Si number density = 20.771684 Si / 1000 Ang^3
#
#
#
# Elastic Constant Matrix: (Units=GPa)
#
#
# Indices 1 2 3 4 5 6 
#
# 1 47.3238 29.0102 -3.7965 0.0000 0.0000 0.0000
# 2 29.0102 65.0464 -3.4604 0.0000 0.0000 0.0000
# 3 -3.7965 -3.4604 117.3583 0.0000 0.0000 0.0000
# 4 0.0000 0.0000 0.0000 -11.1153 0.0000 0.0000
# 5 0.0000 0.0000 0.0000 0.0000 59.9101 0.0000
# 6 0.0000 0.0000 0.0000 0.0000 0.0000 32.2669
#
#
#
# Elastic Compliance Matrix: (Units=1/GPa)
#
#
# Indices 1 2 3 4 5 6 
#
# 1 0.029119 -0.012957 0.000560 0.000000 0.000000 0.000000
# 2 -0.012957 0.021163 0.000205 0.000000 0.000000 0.000000
# 3 0.000560 0.000205 0.008545 0.000000 0.000000 0.000000
# 4 0.000000 0.000000 0.000000 -0.089966 0.000000 0.000000
# 5 0.000000 0.000000 0.000000 0.000000 0.016692 0.000000
# 6 0.000000 0.000000 0.000000 0.000000 0.000000 0.030992
#
#
# Mechanical properties :
#
#
# Convention : Reuss Voigt Hill
#
# Bulk Modulus (GPa) = 29.03368 30.35945 29.69657
# Shear Modulus (GPa) = 95.40322 30.07735 62.74029
#
# Velocity S-wave (km/s) = 6.78448 3.80938 5.50184
# Velocity P-wave (km/s) = 8.68217 5.83061 7.39514
#
# Compressibility (1/GPa) = 0.03444275
#
# Stress axis : x y z
#
# Youngs Moduli (GPa) = 34.34211 47.25172 117.02654
#
# Poissons Ratio (x) = 0.61224 -0.06553
# Poissons Ratio (y) = 0.44497 -0.02397
# Poissons Ratio (z) = -0.01923 -0.00968
#
# Static dielectric constant tensor:
#      x y z
#    x 1.756960 0.000000 0.000000 
#    y 0.000000 1.678440 0.000000 
#    z 0.000000 0.000000 1.796200 
# 
# From -- ./inp_files/3449.got.cif
#   From: 2010.05.17/outbox.cif.g08.bks.cpg/sg66_2_cif.got.tgz:3449.got - 2010.06.03 17:51:23.
