data_PCOD9498894
_publ_section_title
;
Structure prediction by ZEFSAII (Michael W. Deem and Ramdas Pophale) SiO2 
 PCOD9498894
Probable space group: C C C M
;
_chemical_formula_sum "Si O2"
_cell_formula_units_Z 56
_cell_length_a 7.651246
_cell_length_b 11.195380
_cell_length_c 28.514665
_cell_angle_alpha 90.000000
_cell_angle_beta 90.000000
_cell_angle_gamma 90.000000
_cell_volume 2442.526467
_symmetry_space_group_name_H-M "C C C M"
_symmetry_group_IT_number 66
_symmetry_cell_setting 'orthorhombic'
loop_
_space_group_symop_operation_xyz
x,y,z
-x,-y,z
x,-y,1/2-z
-x,y,1/2-z
-x,-y,-z
x,y,-z
-x,y,1/2+z
x,-y,1/2+z
1/2+x,1/2+y,z
1/2-x,1/2-y,z
1/2+x,1/2-y,1/2-z
1/2-x,1/2+y,1/2-z
1/2-x,1/2-y,-z
1/2+x,1/2+y,-z
1/2-x,1/2+y,1/2+z
1/2+x,1/2-y,1/2+z
loop_
_atom_site_type_symbol
_atom_site_label
_atom_site_fract_x
_atom_site_fract_y
_atom_site_fract_z
Si Si1 0.290932 0.003270 0.053726
Si Si2 0.910966 0.129010 0.632759
Si Si3 0.250000 0.750000 0.103042
Si Si4 0.800102 0.876472 0.234636
O O1 0.204544 0.105780 0.086198
O O2 0.500000 0.000000 0.055929
O O3 0.245175 0.870811 0.072427
O O4 0.234680 0.019221 0.000000
O O5 0.791917 0.134619 0.678701
O O6 0.064620 0.229187 0.630329
O O7 0.000000 0.000000 0.639288
O O8 0.750000 0.750000 0.256541
O O9 0.000000 0.886058 0.250000
O O10 0.711238 0.000000 0.250000
#
# Coordination Sequence:
#
# PCOD9498894 Si02
#       4
#    16  16   8  16
#     4  10  23  41  63  96 134 174 224 273 332 406
#     4  10  22  43  65  95 134 173 225 281 338 406
#     4  10  23  38  68  92 130 178 218 274 331 402
#     4  11  25  45  68  98 133 173 224 283 343 411
#
# _framework density 22.92708
#
# number of rings (size 3 to 8) (size 9 to 14) (size 15 to 20)
#    0.000    1.714    2.857    0.429    6.000    6.857 
#    0.000    2.857    0.000    0.000    0.000    0.000 
#    0.000    0.000    0.000    0.000    0.000    0.000 
#
# Total GULP energy -156069.367403 kJ/mol
# GULP energy per Si atom -5573.905979 kJ/mol
# Density = 2.287490 g / cm^3
# Si number density = 22.927080 Si / 1000 Ang^3
#
#
#
# Elastic Constant Matrix: (Units=GPa)
#
#
# Indices 1 2 3 4 5 6 
#
# 1 69.9885 44.3004 25.6703 0.0000 0.0000 0.0000
# 2 44.3004 154.9968 47.6256 0.0000 0.0000 0.0000
# 3 25.6703 47.6256 145.5200 0.0000 0.0000 0.0000
# 4 0.0000 0.0000 0.0000 19.6314 0.0000 0.0000
# 5 0.0000 0.0000 0.0000 0.0000 44.0907 0.0000
# 6 0.0000 0.0000 0.0000 0.0000 0.0000 49.7866
#
#
#
# Elastic Compliance Matrix: (Units=1/GPa)
#
#
# Indices 1 2 3 4 5 6 
#
# 1 0.017789 -0.004581 -0.001639 0.000000 0.000000 0.000000
# 2 -0.004581 0.008353 -0.001926 0.000000 0.000000 0.000000
# 3 -0.001639 -0.001926 0.007791 0.000000 0.000000 0.000000
# 4 0.000000 0.000000 0.000000 0.050939 0.000000 0.000000
# 5 0.000000 0.000000 0.000000 0.000000 0.022681 0.000000
# 6 0.000000 0.000000 0.000000 0.000000 0.000000 0.020086
#
#
# Mechanical properties :
#
#
# Convention : Reuss Voigt Hill
#
# Bulk Modulus (GPa) = 56.68213 67.29976 61.99095
# Shear Modulus (GPa) = 33.37596 39.56233 36.46915
#
# Velocity S-wave (km/s) = 3.81956 4.15851 3.99263
# Velocity P-wave (km/s) = 6.65045 7.24397 6.95355
#
# Compressibility (1/GPa) = 0.01764224
#
# Stress axis : x y z
#
# Youngs Moduli (GPa) = 56.21591 119.72253 128.34986
#
# Poissons Ratio (x) = 0.54841 0.21034
# Poissons Ratio (y) = 0.25751 0.24715
# Poissons Ratio (z) = 0.09213 0.23054
#
# Static dielectric constant tensor:
#      x y z
#    x 1.938550 0.000000 0.000000 
#    y 0.000000 1.908620 0.000000 
#    z 0.000000 0.000000 1.913530 
# 
# From -- ./inp_files/61954.got.cif
#   From: 2010.05.17/outbox.cif.g08.bks.cpg/sg66_31_cif.got.tgz:61954.got - 2010.06.03 17:51:23.
