data_PCOD9498765
_publ_section_title
;
Structure prediction by ZEFSAII (Michael W. Deem and Ramdas Pophale) SiO2 
 PCOD9498765
Probable space group: C C C M
;
_chemical_formula_sum "Si O2"
_cell_formula_units_Z 108
_cell_length_a 12.291226
_cell_length_b 28.208014
_cell_length_c 15.514341
_cell_angle_alpha 90.000000
_cell_angle_beta 90.000000
_cell_angle_gamma 90.000000
_cell_volume 5378.993847
_symmetry_space_group_name_H-M "C C C M"
_symmetry_group_IT_number 66
_symmetry_cell_setting 'orthorhombic'
loop_
_space_group_symop_operation_xyz
x,y,z
-x,-y,z
x,-y,1/2-z
-x,y,1/2-z
-x,-y,-z
x,y,-z
-x,y,1/2+z
x,-y,1/2+z
1/2+x,1/2+y,z
1/2-x,1/2-y,z
1/2+x,1/2-y,1/2-z
1/2-x,1/2+y,1/2-z
1/2-x,1/2-y,-z
1/2+x,1/2+y,-z
1/2-x,1/2+y,1/2+z
1/2+x,1/2-y,1/2+z
loop_
_atom_site_type_symbol
_atom_site_label
_atom_site_fract_x
_atom_site_fract_y
_atom_site_fract_z
Si Si1 0.299877 0.305657 0.846030
Si Si2 0.501403 0.056037 0.853389
Si Si3 0.250000 0.250000 0.000000
Si Si4 0.776062 0.606482 0.599731
Si Si5 0.767396 0.593609 0.094929
Si Si6 0.171202 0.289639 0.672653
Si Si7 0.000000 0.772256 0.750000
Si Si8 0.872152 0.942898 0.254568
O O1 0.253758 0.350539 0.896940
O O2 0.209067 0.295584 0.772837
O O3 0.408595 0.306455 0.789585
O O4 0.327440 0.269365 0.922196
O O5 0.500000 0.063016 0.750000
O O6 0.611994 0.077275 0.890439
O O7 0.392912 0.080355 0.889601
O O8 0.500000 0.000000 0.870741
O O9 0.740329 0.606299 0.500000
O O10 0.808971 0.659758 0.629495
O O11 0.688252 0.582088 0.664128
O O12 0.693841 0.573220 0.170611
O O13 0.735362 0.576635 0.000000
O O14 0.250000 0.250000 0.632641
O O15 0.055677 0.263604 0.681262
O O16 0.000000 0.930528 0.250000
O O17 0.863731 0.000000 0.250000
#
# Coordination Sequence:
#
# PCOD9498765 Si02
#       8
#    16  16   4  16  16  16   8  16
#     4  11  22  40  66  96 137 176 227 284 342 409
#     4  11  23  43  71 103 139 182 227 284 357 426
#     4  12  20  40  64 104 134 166 236 296 334 394
#     4  12  26  44  71 103 139 183 231 287 352 421
#     4  12  25  41  69 104 138 178 231 286 347 423
#     4  10  22  42  64  93 131 179 225 272 339 401
#     4  10  22  40  66  92 132 190 220 274 338 412
#     4  11  26  47  71  98 135 183 230 285 351 422
#
# _framework density 20.078105000000001
#
# number of rings (size 3 to 8) (size 9 to 14) (size 15 to 20)
#    0.000    0.889    5.926    1.333    4.148    3.852 
#    4.000    1.481    1.630    0.000    0.000    0.000 
#    0.000    0.000    0.000    0.000    0.000    0.000 
#
# Total GULP energy -300637.239011 kJ/mol
# GULP energy per Si atom -5567.356278 kJ/mol
# Density = 2.003241 g / cm^3
# Si number density = 20.078105 Si / 1000 Ang^3
#
#
#
# Elastic Constant Matrix: (Units=GPa)
#
#
# Indices 1 2 3 4 5 6 
#
# 1 129.6412 37.5785 45.3932 0.0000 0.0000 0.0000
# 2 37.5785 72.9262 37.7777 0.0000 0.0000 0.0000
# 3 45.3932 37.7777 143.8224 0.0000 0.0000 0.0000
# 4 0.0000 0.0000 0.0000 -15.3989 0.0000 0.0000
# 5 0.0000 0.0000 0.0000 0.0000 -1.0567 0.0000
# 6 0.0000 0.0000 0.0000 0.0000 0.0000 31.4902
#
#
#
# Elastic Compliance Matrix: (Units=1/GPa)
#
#
# Indices 1 2 3 4 5 6 
#
# 1 0.009536 -0.003883 -0.001990 0.000000 0.000000 0.000000
# 2 -0.003883 0.017453 -0.003359 0.000000 0.000000 0.000000
# 3 -0.001990 -0.003359 0.008463 0.000000 0.000000 0.000000
# 4 0.000000 0.000000 0.000000 -0.064940 0.000000 0.000000
# 5 0.000000 0.000000 0.000000 0.000000 -0.946385 0.000000
# 6 0.000000 0.000000 0.000000 0.000000 0.000000 0.031756
#
#
# Mechanical properties :
#
#
# Convention : Reuss Voigt Hill
#
# Bulk Modulus (GPa) = 58.86098 65.32096 62.09097
# Shear Modulus (GPa) = -5.43484 18.04963 6.30740
#
# Velocity S-wave (km/s) = -1.64704 3.00154 1.77433
# Velocity P-wave (km/s) = 5.07569 6.67955 5.93208
#
# Compressibility (1/GPa) = 0.01698918
#
# Stress axis : x y z
#
# Youngs Moduli (GPa) = 104.86739 57.29540 118.15716
#
# Poissons Ratio (x) = 0.22248 0.23510
# Poissons Ratio (y) = 0.40720 0.39688
# Poissons Ratio (z) = 0.20866 0.19245
#
# Static dielectric constant tensor:
#      x y z
#    x 1.551150 0.000000 0.000000 
#    y 0.000000 1.913090 0.000000 
#    z 0.000000 0.000000 1.713830 
# 
# From -- ./inp_files/27061.got.cif
#   From: 2010.05.17/outbox.cif.g08.bks.cpg/sg66_14_cif.got.tgz:27061.got - 2010.06.03 17:51:23.
