data_PCOD9498732
_publ_section_title
;
Structure prediction by ZEFSAII (Michael W. Deem and Ramdas Pophale) SiO2 
 PCOD9498732
Probable space group: C C C M
;
_chemical_formula_sum "Si O2"
_cell_formula_units_Z 96
_cell_length_a 21.370313
_cell_length_b 15.310738
_cell_length_c 14.940220
_cell_angle_alpha 90.000000
_cell_angle_beta 90.000000
_cell_angle_gamma 90.000000
_cell_volume 4888.369217
_symmetry_space_group_name_H-M "C C C M"
_symmetry_group_IT_number 66
_symmetry_cell_setting 'orthorhombic'
loop_
_space_group_symop_operation_xyz
x,y,z
-x,-y,z
x,-y,1/2-z
-x,y,1/2-z
-x,-y,-z
x,y,-z
-x,y,1/2+z
x,-y,1/2+z
1/2+x,1/2+y,z
1/2-x,1/2-y,z
1/2+x,1/2-y,1/2-z
1/2-x,1/2+y,1/2-z
1/2-x,1/2-y,-z
1/2+x,1/2+y,-z
1/2-x,1/2+y,1/2+z
1/2+x,1/2-y,1/2+z
loop_
_atom_site_type_symbol
_atom_site_label
_atom_site_fract_x
_atom_site_fract_y
_atom_site_fract_z
Si Si1 0.178941 0.259837 0.729259
Si Si2 0.448313 0.257336 0.826326
Si Si3 0.400423 0.018107 0.500000
Si Si4 0.831596 0.910674 0.394836
Si Si5 0.934713 0.950016 0.104250
Si Si6 0.306288 0.949859 0.155872
Si Si7 0.489377 0.850075 0.500000
O O1 0.250000 0.250000 0.767610
O O2 0.121563 0.271019 0.797429
O O3 0.166124 0.175565 0.666647
O O4 0.180755 0.347497 0.671159
O O5 0.500000 0.241753 0.750000
O O6 0.441252 0.360359 0.843691
O O7 0.473670 0.207960 0.913618
O O8 0.356870 0.015074 0.413072
O O9 0.441481 0.107242 0.500000
O O10 0.445030 0.934721 0.500000
O O11 0.842647 0.889186 0.500000
O O12 0.763405 0.953332 0.383814
O O13 0.881964 0.982370 0.365069
O O14 0.920938 0.928804 0.000000
O O15 0.000000 0.000000 0.108202
O O16 0.308624 0.000000 0.250000
#
# Coordination Sequence:
#
# PCOD9498732 Si02
#       7
#    16  16   8  16  16  16   8
#     4  10  24  39  63  99 134 173 221 276 330 393
#     4  12  24  44  67  96 132 178 217 272 342 400
#     4  11  24  44  70  92 122 174 223 288 349 386
#     4  10  22  40  66  97 134 173 224 271 326 395
#     4  10  22  40  62  94 128 169 213 265 324 399
#     4  11  23  41  65  96 133 170 224 277 336 399
#     4  11  26  46  67  95 128 165 232 284 336 418
#
# _framework density 19.638452000000001
#
# number of rings (size 3 to 8) (size 9 to 14) (size 15 to 20)
#    0.000    1.333    1.667    3.000    5.833    2.667 
#    1.500    2.083    0.000    0.000    0.000    0.000 
#    0.000    0.000    0.000    0.000    0.000    0.000 
#
# Total GULP energy -268310.211379 kJ/mol
# GULP energy per Si atom -5589.796070 kJ/mol
# Density = 1.959375 g / cm^3
# Si number density = 19.638452 Si / 1000 Ang^3
#
#
#
# Elastic Constant Matrix: (Units=GPa)
#
#
# Indices 1 2 3 4 5 6 
#
# 1 97.7754 41.3878 51.3936 0.0000 0.0000 0.0000
# 2 41.3878 85.1932 40.2771 0.0000 0.0000 0.0000
# 3 51.3936 40.2771 104.8350 0.0000 0.0000 0.0000
# 4 0.0000 0.0000 0.0000 21.5324 0.0000 0.0000
# 5 0.0000 0.0000 0.0000 0.0000 30.9018 0.0000
# 6 0.0000 0.0000 0.0000 0.0000 0.0000 34.2930
#
#
#
# Elastic Compliance Matrix: (Units=1/GPa)
#
#
# Indices 1 2 3 4 5 6 
#
# 1 0.015183 -0.004713 -0.005633 0.000000 0.000000 0.000000
# 2 -0.004713 0.015806 -0.003762 0.000000 0.000000 0.000000
# 3 -0.005633 -0.003762 0.013745 0.000000 0.000000 0.000000
# 4 0.000000 0.000000 0.000000 0.046442 0.000000 0.000000
# 5 0.000000 0.000000 0.000000 0.000000 0.032361 0.000000
# 6 0.000000 0.000000 0.000000 0.000000 0.000000 0.029161
#
#
# Mechanical properties :
#
#
# Convention : Reuss Voigt Hill
#
# Bulk Modulus (GPa) = 60.53548 61.54674 61.04111
# Shear Modulus (GPa) = 26.82114 27.66178 27.24146
#
# Velocity S-wave (km/s) = 3.69961 3.75714 3.72849
# Velocity P-wave (km/s) = 7.01009 7.08727 7.04879
#
# Compressibility (1/GPa) = 0.01651924
#
# Stress axis : x y z
#
# Youngs Moduli (GPa) = 65.86209 63.26536 72.75142
#
# Poissons Ratio (x) = 0.29819 0.40977
# Poissons Ratio (y) = 0.31043 0.27370
# Poissons Ratio (z) = 0.37097 0.23801
#
# Static dielectric constant tensor:
#      x y z
#    x 1.700660 0.000000 0.000000 
#    y 0.000000 1.660950 0.000000 
#    z 0.000000 0.000000 1.680070 
# 
# From -- ./inp_files/28460.got.cif
#   From: 2010.05.17/outbox.cif.g08.bks.cpg/sg66_15_cif.got.tgz:28460.got - 2010.06.03 17:51:23.
