data_PCOD9498281
_publ_section_title
;
Structure prediction by ZEFSAII (Michael W. Deem and Ramdas Pophale) SiO2 
 PCOD9498281
Probable space group: C C C M
;
_chemical_formula_sum "Si O2"
_cell_formula_units_Z 116
_cell_length_a 19.333100
_cell_length_b 17.179905
_cell_length_c 17.171817
_cell_angle_alpha 90.000000
_cell_angle_beta 90.000000
_cell_angle_gamma 90.000000
_cell_volume 5703.461403
_symmetry_space_group_name_H-M "C C C M"
_symmetry_group_IT_number 66
_symmetry_cell_setting 'orthorhombic'
loop_
_space_group_symop_operation_xyz
x,y,z
-x,-y,z
x,-y,1/2-z
-x,y,1/2-z
-x,-y,-z
x,y,-z
-x,y,1/2+z
x,-y,1/2+z
1/2+x,1/2+y,z
1/2-x,1/2-y,z
1/2+x,1/2-y,1/2-z
1/2-x,1/2+y,1/2-z
1/2-x,1/2-y,-z
1/2+x,1/2+y,-z
1/2-x,1/2+y,1/2+z
1/2+x,1/2-y,1/2+z
loop_
_atom_site_type_symbol
_atom_site_label
_atom_site_fract_x
_atom_site_fract_y
_atom_site_fract_z
Si Si1 0.735318 0.432266 0.802463
Si Si2 0.851370 0.683286 0.366126
Si Si3 0.384883 0.509802 0.905941
Si Si4 0.493210 0.619136 0.406626
Si Si5 0.825924 0.213053 0.273699
Si Si6 0.250000 0.750000 0.000000
Si Si7 0.921079 0.270066 0.406746
Si Si8 0.990755 0.588457 0.593834
O O1 0.766428 0.500000 0.750000
O O2 0.794159 0.379691 0.839559
O O3 0.687783 0.473199 0.867129
O O4 0.686507 0.376132 0.750222
O O5 0.866092 0.742124 0.295144
O O6 0.810059 0.731454 0.432504
O O7 0.919502 0.633952 0.387777
O O8 0.437093 0.578506 0.879639
O O9 0.426444 0.431767 0.882391
O O10 0.377920 0.510269 0.000000
O O11 0.494914 0.610493 0.500000
O O12 0.483303 0.709202 0.390653
O O13 0.750000 0.250000 0.273814
O O14 0.859990 0.234991 0.355469
O O15 0.907215 0.268574 0.500000
O O16 0.945951 0.355299 0.382038
O O17 0.993751 0.584929 0.500000
O O18 0.000000 0.500000 0.623500
#
# Coordination Sequence:
#
# PCOD9498281 Si02
#       8
#    16  16  16  16  16   4  16  16
#     4  11  23  38  57  90 130 165 199 268 332 386
#     4  11  24  42  68  95 131 168 223 285 335 396
#     4   9  18  32  56  84 120 159 204 244 302 379
#     4   8  16  33  53  85 119 155 199 252 297 365
#     4  10  23  42  58  90 127 159 215 272 317 384
#     4  12  20  44  74 100 118 174 228 278 356 390
#     4  10  21  39  65  87 118 167 212 255 322 395
#     4  10  23  42  65  97 129 162 216 280 326 396
#
# _framework density 20.338526000000002
#
# number of rings (size 3 to 8) (size 9 to 14) (size 15 to 20)
#    0.000    2.069    2.759    1.655    2.897    3.034 
#    2.483    4.828    0.000    0.828    0.000    0.000 
#    0.000    0.000    0.000    0.000    0.000    0.000 
#
# Total GULP energy -322944.986344 kJ/mol
# GULP energy per Si atom -5568.017006 kJ/mol
# Density = 2.029223 g / cm^3
# Si number density = 20.338526 Si / 1000 Ang^3
#
#
#
# Elastic Constant Matrix: (Units=GPa)
#
#
# Indices 1 2 3 4 5 6 
#
# 1 35.1648 -5.3592 11.5630 0.0000 0.0000 0.0000
# 2 -5.3592 86.0003 17.7227 0.0000 0.0000 0.0000
# 3 11.5630 17.7227 48.2401 0.0000 0.0000 0.0000
# 4 0.0000 0.0000 0.0000 15.9236 0.0000 0.0000
# 5 0.0000 0.0000 0.0000 0.0000 -24.0289 0.0000
# 6 0.0000 0.0000 0.0000 0.0000 0.0000 25.1828
#
#
#
# Elastic Compliance Matrix: (Units=1/GPa)
#
#
# Indices 1 2 3 4 5 6 
#
# 1 0.032018 0.003870 -0.009096 0.000000 0.000000 0.000000
# 2 0.003870 0.013048 -0.005721 0.000000 0.000000 0.000000
# 3 -0.009096 -0.005721 0.025012 0.000000 0.000000 0.000000
# 4 0.000000 0.000000 0.000000 0.062800 0.000000 0.000000
# 5 0.000000 0.000000 0.000000 0.000000 -0.041617 0.000000
# 6 0.000000 0.000000 0.000000 0.000000 0.000000 0.039710
#
#
# Mechanical properties :
#
#
# Convention : Reuss Voigt Hill
#
# Bulk Modulus (GPa) = 20.75432 24.13979 22.44706
# Shear Modulus (GPa) = 29.59841 13.11408 21.35625
#
# Velocity S-wave (km/s) = 3.81896 2.54203 3.24395
# Velocity P-wave (km/s) = 5.44725 4.52887 5.00915
#
# Compressibility (1/GPa) = 0.04818273
#
# Stress axis : x y z
#
# Youngs Moduli (GPa) = 31.23200 76.63994 39.98093
#
# Poissons Ratio (x) = -0.29658 0.36368
# Poissons Ratio (y) = -0.12086 0.22874
# Poissons Ratio (z) = 0.28410 0.43848
#
# Static dielectric constant tensor:
#      x y z
#    x 1.722010 0.000000 0.000000 
#    y 0.000000 1.770690 0.000000 
#    z 0.000000 0.000000 1.718260 
# 
# From -- ./inp_files/41845.got.cif
#   From: 2010.05.17/outbox.cif.g08.bks.cpg/sg66_21_cif.got.tgz:41845.got - 2010.06.03 17:51:23.
