data_PCOD9498780
_publ_section_title
;
Structure prediction by ZEFSAII (Michael W. Deem and Ramdas Pophale) SiO2 
 PCOD9498780
Probable space group: C C C M
;
_chemical_formula_sum "Si O2"
_cell_formula_units_Z 56
_cell_length_a 14.156474
_cell_length_b 5.877779
_cell_length_c 29.215507
_cell_angle_alpha 90.000000
_cell_angle_beta 90.000000
_cell_angle_gamma 90.000000
_cell_volume 2430.982183
_symmetry_space_group_name_H-M "C C C M"
_symmetry_group_IT_number 66
_symmetry_cell_setting 'orthorhombic'
loop_
_space_group_symop_operation_xyz
x,y,z
-x,-y,z
x,-y,1/2-z
-x,y,1/2-z
-x,-y,-z
x,y,-z
-x,y,1/2+z
x,-y,1/2+z
1/2+x,1/2+y,z
1/2-x,1/2-y,z
1/2+x,1/2-y,1/2-z
1/2-x,1/2+y,1/2-z
1/2-x,1/2-y,-z
1/2+x,1/2+y,-z
1/2-x,1/2+y,1/2+z
1/2+x,1/2-y,1/2+z
loop_
_atom_site_type_symbol
_atom_site_label
_atom_site_fract_x
_atom_site_fract_y
_atom_site_fract_z
Si Si1 0.750000 0.750000 0.605391
Si Si2 0.390764 0.079104 0.052696
Si Si3 0.105573 0.094820 0.864021
Si Si4 0.609649 0.755026 0.766082
O O1 0.820743 0.609061 0.572983
O O2 0.683872 0.598081 0.637215
O O3 0.381183 0.288813 0.086950
O O4 0.500000 0.000000 0.055287
O O5 0.369171 0.131997 0.000000
O O6 0.117305 0.258642 0.821034
O O7 0.000000 0.000000 0.861053
O O8 0.642477 0.500000 0.750000
O O9 0.500000 0.756426 0.750000
O O10 0.649121 0.000000 0.750000
#
# Coordination Sequence:
#
# PCOD9498780 Si02
#       4
#     8  16  16  16
#     4  12  27  46  78 112 150 200 266 320 395 468
#     4  11  26  47  76 111 154 205 258 321 399 473
#     4  12  25  46  78 112 152 204 260 326 392 475
#     4  10  22  40  76 114 146 206 257 312 398 461
#
# _framework density 23.035957
#
# number of rings (size 3 to 8) (size 9 to 14) (size 15 to 20)
#    0.000    0.857    5.714    1.286    8.000    4.000 
#    0.000    0.000    6.286    0.000    0.000    0.000 
#    0.000    0.000    0.000    0.000    0.000    0.000 
#
# Total GULP energy -156658.708644 kJ/mol
# GULP energy per Si atom -5594.953880 kJ/mol
# Density = 2.298353 g / cm^3
# Si number density = 23.035957 Si / 1000 Ang^3
#
#
#
# Elastic Constant Matrix: (Units=GPa)
#
#
# Indices 1 2 3 4 5 6 
#
# 1 158.8275 55.4278 37.7902 0.0000 0.0000 0.0000
# 2 55.4278 149.4588 53.0537 0.0000 0.0000 0.0000
# 3 37.7902 53.0537 135.4026 0.0000 0.0000 0.0000
# 4 0.0000 0.0000 0.0000 2257.0721 0.0000 0.0000
# 5 0.0000 0.0000 0.0000 0.0000********** 0.0000
# 6 0.0000 0.0000 0.0000 0.0000 0.0000 6.5526
#
#
#
# Elastic Compliance Matrix: (Units=1/GPa)
#
#
# Indices 1 2 3 4 5 6 
#
# 1 0.007382 -0.002331 -0.001147 0.000000 0.000000 0.000000
# 2 -0.002331 0.008508 -0.002683 0.000000 0.000000 0.000000
# 3 -0.001147 -0.002683 0.008757 0.000000 0.000000 0.000000
# 4 0.000000 0.000000 0.000000 0.000443 0.000000 0.000000
# 5 0.000000 0.000000 0.000000 0.000000 -0.000025 0.000000
# 6 0.000000 0.000000 0.000000 0.000000 0.000000 0.152611
#
#
# Mechanical properties :
#
#
# Convention : Reuss Voigt Hill
#
# Bulk Modulus (GPa) = 81.13471 81.80357 81.46914
# Shear Modulus (GPa) = 25.75908 -7556.61110 -3765.42601
#
# Velocity S-wave (km/s) = 3.34760 -57.33652 -40.47388
# Velocity P-wave (km/s) = 7.08796 65.93719 46.35447
#
# Compressibility (1/GPa) = 0.01232518
#
# Stress axis : x y z
#
# Youngs Moduli (GPa) = 135.45669 117.54329 114.19680
#
# Poissons Ratio (x) = 0.27395 0.13101
# Poissons Ratio (y) = 0.31569 0.30639
# Poissons Ratio (z) = 0.15540 0.31536
#
# Static dielectric constant tensor:
#      x y z
#    x 2.033560 0.000000 0.000000 
#    y 0.000000 4.012920 0.000000 
#    z 0.000000 0.000000 1.801260 
# 
# From -- ./inp_files/69312.got.cif
#   From: 2010.05.17/outbox.cif.g08.bks.cpg/sg66_35_cif.got.tgz:69312.got - 2010.06.03 17:51:23.
