data_PCOD9498478
_publ_section_title
;
Structure prediction by ZEFSAII (Michael W. Deem and Ramdas Pophale) SiO2 
 PCOD9498478
Probable space group: C C C M
;
_chemical_formula_sum "Si O2"
_cell_formula_units_Z 80
_cell_length_a 17.453832
_cell_length_b 8.971816
_cell_length_c 25.893212
_cell_angle_alpha 90.000000
_cell_angle_beta 90.000000
_cell_angle_gamma 90.000000
_cell_volume 4054.684592
_symmetry_space_group_name_H-M "C C C M"
_symmetry_group_IT_number 66
_symmetry_cell_setting 'orthorhombic'
loop_
_space_group_symop_operation_xyz
x,y,z
-x,-y,z
x,-y,1/2-z
-x,y,1/2-z
-x,-y,-z
x,y,-z
-x,y,1/2+z
x,-y,1/2+z
1/2+x,1/2+y,z
1/2-x,1/2-y,z
1/2+x,1/2-y,1/2-z
1/2-x,1/2+y,1/2-z
1/2-x,1/2-y,-z
1/2+x,1/2+y,-z
1/2-x,1/2+y,1/2+z
1/2+x,1/2-y,1/2+z
loop_
_atom_site_type_symbol
_atom_site_label
_atom_site_fract_x
_atom_site_fract_y
_atom_site_fract_z
Si Si1 0.867190 0.814909 0.000000
Si Si2 0.718181 0.005064 0.000000
Si Si3 0.804288 0.500000 0.750000
Si Si4 0.365849 0.847357 0.094262
Si Si5 0.250000 0.750000 0.176182
Si Si6 0.517229 0.329342 0.404817
Si Si7 0.426450 0.093574 0.828501
O O1 0.806036 0.950728 0.000000
O O2 0.826404 0.653472 0.000000
O O3 0.919530 0.822686 0.050570
O O4 0.691082 0.100099 0.049391
O O5 0.756448 0.394339 0.787627
O O6 0.861036 0.599353 0.785485
O O7 0.322551 0.752123 0.138041
O O8 0.440856 0.758117 0.076530
O O9 0.394199 0.995819 0.123721
O O10 0.500000 0.500000 0.394292
O O11 0.546117 0.246851 0.353260
O O12 0.500000 0.000000 0.809503
#
# Coordination Sequence:
#
# PCOD9498478 Si02
#       7
#     8   8   8  16   8  16  16
#     4  11  24  40  61 101 128 170 217 262 316 375
#     4  11  23  41  67  91 129 179 212 259 314 388
#     4  10  21  42  64  92 125 162 206 276 314 389
#     4  10  22  41  65  89 129 176 215 252 317 389
#     4  10  24  41  62  98 120 165 218 260 332 376
#     4  11  23  39  62  98 132 167 212 268 314 379
#     4   9  19  39  66  89 119 168 213 255 317 384
#
# _framework density 19.730266
#
# number of rings (size 3 to 8) (size 9 to 14) (size 15 to 20)
#    0.000    1.800    2.000    1.200    2.800    2.800 
#    3.600    0.000    0.000   10.800    0.000    0.000 
#    0.000    0.000    0.000    0.000    0.000    0.000 
#
# Total GULP energy -223447.884701 kJ/mol
# GULP energy per Si atom -5586.197118 kJ/mol
# Density = 1.968536 g / cm^3
# Si number density = 19.730266 Si / 1000 Ang^3
#
#
#
# Elastic Constant Matrix: (Units=GPa)
#
#
# Indices 1 2 3 4 5 6 
#
# 1 114.3193 54.7152 57.8246 0.0000 0.0000 0.0000
# 2 54.7152 98.2724 55.6465 0.0000 0.0000 0.0000
# 3 57.8246 55.6465 109.9881 0.0000 0.0000 0.0000
# 4 0.0000 0.0000 0.0000 15.8623 0.0000 0.0000
# 5 0.0000 0.0000 0.0000 0.0000 6.7260 0.0000
# 6 0.0000 0.0000 0.0000 0.0000 0.0000 33.7467
#
#
#
# Elastic Compliance Matrix: (Units=1/GPa)
#
#
# Indices 1 2 3 4 5 6 
#
# 1 0.013391 -0.004862 -0.004580 0.000000 0.000000 0.000000
# 2 -0.004862 0.016027 -0.005552 0.000000 0.000000 0.000000
# 3 -0.004580 -0.005552 0.014309 0.000000 0.000000 0.000000
# 4 0.000000 0.000000 0.000000 0.063042 0.000000 0.000000
# 5 0.000000 0.000000 0.000000 0.000000 0.148678 0.000000
# 6 0.000000 0.000000 0.000000 0.000000 0.000000 0.029633
#
#
# Mechanical properties :
#
#
# Convention : Reuss Voigt Hill
#
# Bulk Modulus (GPa) = 72.79327 73.21693 73.00510
# Shear Modulus (GPa) = 15.64216 21.55990 18.60103
#
# Velocity S-wave (km/s) = 2.81873 3.30924 3.07378
# Velocity P-wave (km/s) = 6.89695 7.19659 7.04836
#
# Compressibility (1/GPa) = 0.01373753
#
# Stress axis : x y z
#
# Youngs Moduli (GPa) = 74.67447 62.39486 69.88621
#
# Poissons Ratio (x) = 0.30339 0.32010
# Poissons Ratio (y) = 0.36310 0.38802
# Poissons Ratio (z) = 0.34203 0.34643
#
# Static dielectric constant tensor:
#      x y z
#    x 1.715520 0.000000 0.000000 
#    y 0.000000 1.681980 0.000000 
#    z 0.000000 0.000000 1.679280 
# 
# From -- ./inp_files/65151.got.cif
#   From: 2010.05.17/outbox.cif.g08.bks.cpg/sg66_33_cif.got.tgz:65151.got - 2010.06.03 17:51:23.
