data_PCOD9498629
_publ_section_title
;
Structure prediction by ZEFSAII (Michael W. Deem and Ramdas Pophale) SiO2 
 PCOD9498629
Probable space group: C C C M
;
_chemical_formula_sum "Si O2"
_cell_formula_units_Z 96
_cell_length_a 20.751021
_cell_length_b 16.540055
_cell_length_c 14.360361
_cell_angle_alpha 90.000000
_cell_angle_beta 90.000000
_cell_angle_gamma 90.000000
_cell_volume 4928.806595
_symmetry_space_group_name_H-M "C C C M"
_symmetry_group_IT_number 66
_symmetry_cell_setting 'orthorhombic'
loop_
_space_group_symop_operation_xyz
x,y,z
-x,-y,z
x,-y,1/2-z
-x,y,1/2-z
-x,-y,-z
x,y,-z
-x,y,1/2+z
x,-y,1/2+z
1/2+x,1/2+y,z
1/2-x,1/2-y,z
1/2+x,1/2-y,1/2-z
1/2-x,1/2+y,1/2-z
1/2-x,1/2-y,-z
1/2+x,1/2+y,-z
1/2-x,1/2+y,1/2+z
1/2+x,1/2-y,1/2+z
loop_
_atom_site_type_symbol
_atom_site_label
_atom_site_fract_x
_atom_site_fract_y
_atom_site_fract_z
Si Si1 0.112066 0.761600 0.331102
Si Si2 0.093164 0.500000 0.250000
Si Si3 0.073146 0.659469 0.157057
Si Si4 0.695802 0.412700 0.725642
Si Si5 0.317472 0.102334 0.890776
Si Si6 0.019570 0.264311 0.000000
Si Si7 0.276249 0.158153 0.603949
O O1 0.076164 0.718564 0.245472
O O2 0.145345 0.842471 0.294501
O O3 0.165081 0.694933 0.364423
O O4 0.065573 0.774031 0.417823
O O5 0.057394 0.569455 0.192382
O O6 0.137269 0.452787 0.174461
O O7 0.147144 0.657127 0.120152
O O8 0.024997 0.691630 0.080501
O O9 0.667259 0.500000 0.750000
O O10 0.744680 0.416380 0.638500
O O11 0.740622 0.388496 0.813659
O O12 0.330404 0.090006 0.000000
O O13 0.262385 0.126219 0.500000
O O14 0.250000 0.250000 0.607973
#
# Coordination Sequence:
#
# PCOD9498629 Si02
#       7
#    16   8  16  16  16   8  16
#     4  11  24  44  64  96 133 175 231 272 332 405
#     4  10  22  38  63  98 144 172 223 280 338 400
#     4  11  22  42  65  95 136 180 226 284 322 398
#     4  12  23  40  67 103 140 167 214 292 356 406
#     4  11  21  38  65 100 142 182 213 274 344 416
#     4  12  26  44  69  93 124 194 242 267 320 402
#     4  11  20  37  66 102 131 168 222 277 343 404
#
# _framework density 19.477332000000001
#
# number of rings (size 3 to 8) (size 9 to 14) (size 15 to 20)
#    0.000    0.833    7.500    1.000    2.333    2.667 
#    0.000   10.000    0.000    3.000    0.000    0.000 
#    0.000    0.000    0.000    0.000    0.000    0.000 
#
# Total GULP energy -267322.369587 kJ/mol
# GULP energy per Si atom -5569.216033 kJ/mol
# Density = 1.943300 g / cm^3
# Si number density = 19.477332 Si / 1000 Ang^3
#
#
#
# Elastic Constant Matrix: (Units=GPa)
#
#
# Indices 1 2 3 4 5 6 
#
# 1 65.3920 39.8392 26.3086 0.0000 0.0000 0.0000
# 2 39.8392 106.0637 42.9738 0.0000 0.0000 0.0000
# 3 26.3086 42.9738 159.3062 0.0000 0.0000 0.0000
# 4 0.0000 0.0000 0.0000 6.1488 0.0000 0.0000
# 5 0.0000 0.0000 0.0000 0.0000 25.8468 0.0000
# 6 0.0000 0.0000 0.0000 0.0000 0.0000 -2.0243
#
#
#
# Elastic Compliance Matrix: (Units=1/GPa)
#
#
# Indices 1 2 3 4 5 6 
#
# 1 0.020121 -0.006974 -0.001442 0.000000 0.000000 0.000000
# 2 -0.006974 0.013002 -0.002356 0.000000 0.000000 0.000000
# 3 -0.001442 -0.002356 0.007151 0.000000 0.000000 0.000000
# 4 0.000000 0.000000 0.000000 0.162634 0.000000 0.000000
# 5 0.000000 0.000000 0.000000 0.000000 0.038689 0.000000
# 6 0.000000 0.000000 0.000000 0.000000 0.000000 -0.493999
#
#
# Mechanical properties :
#
#
# Convention : Reuss Voigt Hill
#
# Bulk Modulus (GPa) = 53.38517 61.00057 57.19287
# Shear Modulus (GPa) = -22.26026 20.77028 -0.74499
#
# Velocity S-wave (km/s) = -3.38432 3.26909 -0.61913
# Velocity P-wave (km/s) = 3.49240 6.75544 5.37740
#
# Compressibility (1/GPa) = 0.01873179
#
# Stress axis : x y z
#
# Youngs Moduli (GPa) = 49.69932 76.91020 139.84468
#
# Poissons Ratio (x) = 0.53634 0.20161
# Poissons Ratio (y) = 0.34658 0.32944
# Poissons Ratio (z) = 0.07165 0.18118
#
# Static dielectric constant tensor:
#      x y z
#    x 1.695670 0.000000 0.000000 
#    y 0.000000 1.687280 0.000000 
#    z 0.000000 0.000000 1.679950 
# 
# From -- ./inp_files/32397.got.cif
#   From: 2010.05.17/outbox.cif.g08.bks.cpg/sg66_17_cif.got.tgz:32397.got - 2010.06.03 17:51:23.
