data_PCOD9498977
_publ_section_title
;
Structure prediction by ZEFSAII (Michael W. Deem and Ramdas Pophale) SiO2 
 PCOD9498977
Probable space group: C C C M
;
_chemical_formula_sum "Si O2"
_cell_formula_units_Z 112
_cell_length_a 14.969706
_cell_length_b 13.857769
_cell_length_c 24.254884
_cell_angle_alpha 90.000000
_cell_angle_beta 90.000000
_cell_angle_gamma 90.000000
_cell_volume 5031.596318
_symmetry_space_group_name_H-M "C C C M"
_symmetry_group_IT_number 66
_symmetry_cell_setting 'orthorhombic'
loop_
_space_group_symop_operation_xyz
x,y,z
-x,-y,z
x,-y,1/2-z
-x,y,1/2-z
-x,-y,-z
x,y,-z
-x,y,1/2+z
x,-y,1/2+z
1/2+x,1/2+y,z
1/2-x,1/2-y,z
1/2+x,1/2-y,1/2-z
1/2-x,1/2+y,1/2-z
1/2-x,1/2-y,-z
1/2+x,1/2+y,-z
1/2-x,1/2+y,1/2+z
1/2+x,1/2-y,1/2+z
loop_
_atom_site_type_symbol
_atom_site_label
_atom_site_fract_x
_atom_site_fract_y
_atom_site_fract_z
Si Si1 0.620259 0.601964 0.221251
Si Si2 0.909099 0.060314 0.940075
Si Si3 0.499114 0.710683 0.864154
Si Si4 0.761058 0.040887 0.617475
Si Si5 0.755887 0.644738 0.684544
Si Si6 0.049963 0.602479 0.803672
Si Si7 0.846672 0.698393 0.936242
O O1 0.595975 0.500000 0.250000
O O2 0.540437 0.657342 0.189999
O O3 0.690837 0.585772 0.171168
O O4 0.676396 0.650074 0.270403
O O5 0.928196 0.139589 0.892917
O O6 0.834339 0.978979 0.929250
O O7 0.894635 0.105924 0.000000
O O8 0.000000 0.000000 0.940450
O O9 0.459995 0.815179 0.849247
O O10 0.580551 0.736214 0.905575
O O11 0.676011 0.100432 0.597272
O O12 0.744408 0.932396 0.636221
O O13 0.750000 0.750000 0.659718
O O14 0.846279 0.606247 0.713721
O O15 0.000000 0.500000 0.816479
O O16 0.000000 0.639327 0.750000
O O17 0.750000 0.750000 0.935053
O O18 0.871100 0.681209 0.000000
#
# Coordination Sequence:
#
# PCOD9498977 Si02
#       7
#    16  16  16  16  16  16  16
#     4  10  23  38  65  93 128 168 207 261 322 388
#     4  11  22  40  64  96 133 164 206 267 342 398
#     4  12  23  42  66  95 134 171 207 277 329 392
#     4  11  22  40  65  90 128 168 210 270 314 387
#     4  11  24  42  63  89 128 172 221 257 313 392
#     4  11  26  41  64  93 128 174 222 263 319 386
#     4  11  22  37  65 100 127 163 220 271 328 387
#
# _framework density 22.259338
#
# number of rings (size 3 to 8) (size 9 to 14) (size 15 to 20)
#    0.000    1.000    2.857    3.429   10.000    3.429 
#    0.000    2.143    0.000   17.143    0.000    0.000 
#    0.000    0.000    0.000    0.000    0.000    0.000 
#
# Total GULP energy -312592.738290 kJ/mol
# GULP energy per Si atom -5582.013184 kJ/mol
# Density = 2.220868 g / cm^3
# Si number density = 22.259338 Si / 1000 Ang^3
#
#
#
# Elastic Constant Matrix: (Units=GPa)
#
#
# Indices 1 2 3 4 5 6 
#
# 1 65.5836 -0.9882 8.0184 0.0000 0.0000 0.0000
# 2 -0.9882 114.5190 33.1770 0.0000 0.0000 0.0000
# 3 8.0184 33.1770 100.9593 0.0000 0.0000 0.0000
# 4 0.0000 0.0000 0.0000 31.8519 0.0000 0.0000
# 5 0.0000 0.0000 0.0000 0.0000 2.8868 0.0000
# 6 0.0000 0.0000 0.0000 0.0000 0.0000 28.7598
#
#
#
# Elastic Compliance Matrix: (Units=1/GPa)
#
#
# Indices 1 2 3 4 5 6 
#
# 1 0.015427 0.000539 -0.001403 0.000000 0.000000 0.000000
# 2 0.000539 0.009670 -0.003221 0.000000 0.000000 0.000000
# 3 -0.001403 -0.003221 0.011075 0.000000 0.000000 0.000000
# 4 0.000000 0.000000 0.000000 0.031395 0.000000 0.000000
# 5 0.000000 0.000000 0.000000 0.000000 0.346407 0.000000
# 6 0.000000 0.000000 0.000000 0.000000 0.000000 0.034771
#
#
# Mechanical properties :
#
#
# Convention : Reuss Voigt Hill
#
# Bulk Modulus (GPa) = 35.70837 40.16402 37.93620
# Shear Modulus (GPa) = 10.72392 28.75667 19.74029
#
# Velocity S-wave (km/s) = 2.19731 3.59819 2.98120
# Velocity P-wave (km/s) = 4.74493 5.94521 5.37865
#
# Compressibility (1/GPa) = 0.02800464
#
# Stress axis : x y z
#
# Youngs Moduli (GPa) = 64.82005 103.41435 90.29596
#
# Poissons Ratio (x) = -0.05579 0.12664
# Poissons Ratio (y) = -0.03497 0.29080
# Poissons Ratio (z) = 0.09091 0.33305
#
# Static dielectric constant tensor:
#      x y z
#    x 1.253480 0.000000 0.000000 
#    y 0.000000 1.864050 0.000000 
#    z 0.000000 0.000000 2.289180 
# 
# From -- ./inp_files/58241.got.cif
#   From: 2010.05.17/outbox.cif.g08.bks.cpg/sg66_30_cif.got.tgz:58241.got - 2010.06.03 17:51:23.
