data_PCOD9498849
_publ_section_title
;
Structure prediction by ZEFSAII (Michael W. Deem and Ramdas Pophale) SiO2 
 PCOD9498849
Probable space group: C C C M
;
_chemical_formula_sum "Si O2"
_cell_formula_units_Z 68
_cell_length_a 22.501948
_cell_length_b 8.975205
_cell_length_c 17.054193
_cell_angle_alpha 90.000000
_cell_angle_beta 90.000000
_cell_angle_gamma 90.000000
_cell_volume 3444.257932
_symmetry_space_group_name_H-M "C C C M"
_symmetry_group_IT_number 66
_symmetry_cell_setting 'orthorhombic'
loop_
_space_group_symop_operation_xyz
x,y,z
-x,-y,z
x,-y,1/2-z
-x,y,1/2-z
-x,-y,-z
x,y,-z
-x,y,1/2+z
x,-y,1/2+z
1/2+x,1/2+y,z
1/2-x,1/2-y,z
1/2+x,1/2-y,1/2-z
1/2-x,1/2+y,1/2-z
1/2-x,1/2-y,-z
1/2+x,1/2+y,-z
1/2-x,1/2+y,1/2+z
1/2+x,1/2-y,1/2+z
loop_
_atom_site_type_symbol
_atom_site_label
_atom_site_fract_x
_atom_site_fract_y
_atom_site_fract_z
Si Si1 0.207523 0.036274 0.658546
Si Si2 0.604508 0.662511 0.086129
Si Si3 0.067657 0.532794 0.658000
Si Si4 0.825201 0.646552 0.591789
Si Si5 0.000000 0.000000 0.500000
O O1 0.183413 0.203154 0.641991
O O2 0.271872 0.036550 0.617120
O O3 0.214121 0.000000 0.750000
O O4 0.160170 0.924806 0.620831
O O5 0.583961 0.797238 0.140223
O O6 0.620864 0.726508 0.000000
O O7 0.549030 0.553944 0.067052
O O8 0.074218 0.500000 0.750000
O O9 0.112417 0.428237 0.610574
O O10 0.000000 0.500000 0.634444
O O11 0.820107 0.684262 0.500000
#
# Coordination Sequence:
#
# PCOD9498849 Si02
#       5
#    16  16  16  16   4
#     4  11  23  41  66  94 130 171 214 270 328 384
#     4  10  22  42  64  96 124 175 214 264 322 387
#     4  11  25  42  63  95 134 171 215 267 329 385
#     4  11  24  42  67  97 127 169 219 270 320 391
#     4   8  24  40  68  96 136 166 224 272 308 408
#
# _framework density 19.743005
#
# number of rings (size 3 to 8) (size 9 to 14) (size 15 to 20)
#    0.706    0.706    0.000    5.647    3.294    4.706 
#    0.000    2.353    0.000    0.000    0.000    0.000 
#    0.000    0.000    0.000    0.000    0.000    0.000 
#
# Total GULP energy -189398.765889 kJ/mol
# GULP energy per Si atom -5570.551938 kJ/mol
# Density = 1.969807 g / cm^3
# Si number density = 19.743005 Si / 1000 Ang^3
#
#
#
# Elastic Constant Matrix: (Units=GPa)
#
#
# Indices 1 2 3 4 5 6 
#
# 1 132.6453 68.9886 58.3283 0.0000 0.0000 0.0000
# 2 68.9886 77.3375 44.1502 0.0000 0.0000 0.0000
# 3 58.3283 44.1502 107.2942 0.0000 0.0000 0.0000
# 4 0.0000 0.0000 0.0000 16.7098 0.0000 0.0000
# 5 0.0000 0.0000 0.0000 0.0000 22.8285 0.0000
# 6 0.0000 0.0000 0.0000 0.0000 0.0000 30.8653
#
#
#
# Elastic Compliance Matrix: (Units=1/GPa)
#
#
# Indices 1 2 3 4 5 6 
#
# 1 0.014985 -0.011393 -0.003458 0.000000 0.000000 0.000000
# 2 -0.011393 0.025563 -0.004325 0.000000 0.000000 0.000000
# 3 -0.003458 -0.004325 0.012980 0.000000 0.000000 0.000000
# 4 0.000000 0.000000 0.000000 0.059845 0.000000 0.000000
# 5 0.000000 0.000000 0.000000 0.000000 0.043805 0.000000
# 6 0.000000 0.000000 0.000000 0.000000 0.000000 0.032399
#
#
# Mechanical properties :
#
#
# Convention : Reuss Voigt Hill
#
# Bulk Modulus (GPa) = 65.89887 73.35679 69.62783
# Shear Modulus (GPa) = 21.46036 23.80140 22.63088
#
# Velocity S-wave (km/s) = 3.30052 3.47589 3.38934
# Velocity P-wave (km/s) = 6.92643 7.30380 7.11762
#
# Compressibility (1/GPa) = 0.01517477
#
# Stress axis : x y z
#
# Youngs Moduli (GPa) = 66.73244 39.11947 77.04261
#
# Poissons Ratio (x) = 0.44570 0.26643
# Poissons Ratio (y) = 0.76030 0.33321
# Poissons Ratio (z) = 0.23077 0.16919
#
# Static dielectric constant tensor:
#      x y z
#    x 1.679910 0.000000 0.000000 
#    y 0.000000 1.694050 0.000000 
#    z 0.000000 0.000000 1.676830 
# 
# From -- ./inp_files/42523.got.cif
#   From: 2010.05.17/outbox.cif.g08.bks.cpg/sg66_22_cif.got.tgz:42523.got - 2010.06.03 17:51:23.
