data_PCOD9498437
_publ_section_title
;
Structure prediction by ZEFSAII (Michael W. Deem and Ramdas Pophale) SiO2 
 PCOD9498437
Probable space group: C C C M
;
_chemical_formula_sum "Si O2"
_cell_formula_units_Z 44
_cell_length_a 7.139663
_cell_length_b 20.013627
_cell_length_c 15.322520
_cell_angle_alpha 90.000000
_cell_angle_beta 90.000000
_cell_angle_gamma 90.000000
_cell_volume 2189.443344
_symmetry_space_group_name_H-M "C C C M"
_symmetry_group_IT_number 66
_symmetry_cell_setting 'orthorhombic'
loop_
_space_group_symop_operation_xyz
x,y,z
-x,-y,z
x,-y,1/2-z
-x,y,1/2-z
-x,-y,-z
x,y,-z
-x,y,1/2+z
x,-y,1/2+z
1/2+x,1/2+y,z
1/2-x,1/2-y,z
1/2+x,1/2-y,1/2-z
1/2-x,1/2+y,1/2-z
1/2-x,1/2-y,-z
1/2+x,1/2+y,-z
1/2-x,1/2+y,1/2+z
1/2+x,1/2-y,1/2+z
loop_
_atom_site_type_symbol
_atom_site_label
_atom_site_fract_x
_atom_site_fract_y
_atom_site_fract_z
Si Si1 0.550153 0.577540 0.000000
Si Si2 0.309810 0.395164 0.807737
Si Si3 0.750000 0.750000 0.148312
Si Si4 0.500000 0.000000 0.250000
Si Si5 0.448451 0.282299 0.500000
O O1 0.500000 0.500000 0.000000
O O2 0.653087 0.593596 0.089796
O O3 0.402594 0.638132 0.000000
O O4 0.500000 0.406443 0.750000
O O5 0.245208 0.318225 0.796502
O O6 0.147239 0.447963 0.790780
O O7 0.571929 0.740078 0.083713
O O8 0.250000 0.250000 0.500000
#
# Coordination Sequence:
#
# PCOD9498437 Si02
#       5
#     8  16   8   4   8
#     4  10  21  41  65  92 135 174 213 278 343 384
#     4  11  25  44  66  99 137 174 229 288 330 418
#     4   9  22  40  62  95 132 172 226 275 340 403
#     4  12  26  42  68  98 132 180 234 274 356 410
#     4   9  19  38  64  96 129 168 225 281 329 407
#
# _framework density 20.096430999999999
#
# number of rings (size 3 to 8) (size 9 to 14) (size 15 to 20)
#    0.000    1.818    0.000    3.818    2.545    9.455 
#    3.273    1.818    0.000    0.000    0.000    0.000 
#    0.000    0.000    0.000    0.000    0.000    0.000 
#
# Total GULP energy -122480.052726 kJ/mol
# GULP energy per Si atom -5567.275124 kJ/mol
# Density = 2.005069 g / cm^3
# Si number density = 20.096431 Si / 1000 Ang^3
#
#
#
# Elastic Constant Matrix: (Units=GPa)
#
#
# Indices 1 2 3 4 5 6 
#
# 1 118.6970 78.3513 40.3725 0.0000 0.0000 0.0000
# 2 78.3513 215.6601 42.4727 0.0000 0.0000 0.0000
# 3 40.3725 42.4727 87.0079 0.0000 0.0000 0.0000
# 4 0.0000 0.0000 0.0000 30.2562 0.0000 0.0000
# 5 0.0000 0.0000 0.0000 0.0000 -4.8418 0.0000
# 6 0.0000 0.0000 0.0000 0.0000 0.0000 33.3631
#
#
#
# Elastic Compliance Matrix: (Units=1/GPa)
#
#
# Indices 1 2 3 4 5 6 
#
# 1 0.012148 -0.003655 -0.003853 0.000000 0.000000 0.000000
# 2 -0.003655 0.006230 -0.001345 0.000000 0.000000 0.000000
# 3 -0.003853 -0.001345 0.013938 0.000000 0.000000 0.000000
# 4 0.000000 0.000000 0.000000 0.033051 0.000000 0.000000
# 5 0.000000 0.000000 0.000000 0.000000 -0.206533 0.000000
# 6 0.000000 0.000000 0.000000 0.000000 0.000000 0.029973
#
#
# Mechanical properties :
#
#
# Convention : Reuss Voigt Hill
#
# Bulk Modulus (GPa) = 68.44680 82.63979 75.54329
# Shear Modulus (GPa) = -56.42083 29.10007 -13.66038
#
# Velocity S-wave (km/s) = -5.30434 3.80942 -2.61001
# Velocity P-wave (km/s) = 1.83890 7.78202 5.34688
#
# Compressibility (1/GPa) = 0.01460989
#
# Stress axis : x y z
#
# Youngs Moduli (GPa) = 82.32099 160.52407 71.74879
#
# Poissons Ratio (x) = 0.58665 0.27642
# Poissons Ratio (y) = 0.30085 0.09652
# Poissons Ratio (z) = 0.31715 0.21594
#
# Static dielectric constant tensor:
#      x y z
#    x 1.666700 0.000000 0.000000 
#    y 0.000000 1.804740 0.000000 
#    z 0.000000 0.000000 1.699550 
# 
# From -- ./inp_files/34648.got.cif
#   From: 2010.05.17/outbox.cif.g08.bks.cpg/sg66_18_cif.got.tgz:34648.got - 2010.06.03 17:51:23.
