data_PCOD9498289
_publ_section_title
;
Structure prediction by ZEFSAII (Michael W. Deem and Ramdas Pophale) SiO2 
 PCOD9498289
Probable space group: C C C M
;
_chemical_formula_sum "Si O2"
_cell_formula_units_Z 112
_cell_length_a 14.046606
_cell_length_b 24.535686
_cell_length_c 14.447376
_cell_angle_alpha 90.000000
_cell_angle_beta 90.000000
_cell_angle_gamma 90.000000
_cell_volume 4979.188656
_symmetry_space_group_name_H-M "C C C M"
_symmetry_group_IT_number 66
_symmetry_cell_setting 'orthorhombic'
loop_
_space_group_symop_operation_xyz
x,y,z
-x,-y,z
x,-y,1/2-z
-x,y,1/2-z
-x,-y,-z
x,y,-z
-x,y,1/2+z
x,-y,1/2+z
1/2+x,1/2+y,z
1/2-x,1/2-y,z
1/2+x,1/2-y,1/2-z
1/2-x,1/2+y,1/2-z
1/2-x,1/2-y,-z
1/2+x,1/2+y,-z
1/2-x,1/2+y,1/2+z
1/2+x,1/2-y,1/2+z
loop_
_atom_site_type_symbol
_atom_site_label
_atom_site_fract_x
_atom_site_fract_y
_atom_site_fract_z
Si Si1 0.164750 0.029933 0.888610
Si Si2 0.642365 0.145895 0.602207
Si Si3 0.849727 0.442505 0.736090
Si Si4 0.026273 0.251817 0.849066
Si Si5 0.795114 0.912748 0.388702
Si Si6 0.870134 0.853890 0.890904
Si Si7 0.674737 0.291243 0.105846
O O1 0.261756 0.040629 0.832481
O O2 0.103406 0.083745 0.865472
O O3 0.140708 0.966780 0.868172
O O4 0.178900 0.033782 0.000000
O O5 0.630199 0.121370 0.500000
O O6 0.601295 0.105902 0.680214
O O7 0.593155 0.204402 0.603408
O O8 0.755891 0.152045 0.618247
O O9 0.900063 0.500000 0.750000
O O10 0.801828 0.421144 0.830638
O O11 0.080252 0.194560 0.837216
O O12 0.000000 0.275190 0.750000
O O13 0.926715 0.237577 0.895853
O O14 0.781039 0.913830 0.500000
O O15 0.832922 0.853379 0.358814
O O16 0.894212 0.845926 0.000000
O O17 0.750000 0.250000 0.153098
O O18 0.708511 0.298867 0.000000
#
# Coordination Sequence:
#
# PCOD9498289 Si02
#       7
#    16  16  16  16  16  16  16
#     4   8  15  30  55  88 118 154 199 247 307 365
#     4  10  21  39  65  93 126 164 204 254 315 370
#     4   9  17  30  58  93 122 153 193 249 301 369
#     4  12  26  36  56  89 124 163 204 261 308 365
#     4   9  18  33  55  83 119 162 205 247 299 367
#     4   9  18  36  62  89 120 156 199 255 314 369
#     4  10  23  41  59  79 114 165 209 251 304 371
#
# _framework density 22.493624000000001
#
# number of rings (size 3 to 8) (size 9 to 14) (size 15 to 20)
#    0.000    2.429    0.000    3.000    6.000    1.714 
#    0.000    0.714    0.000    4.714    0.000    1.000 
#    0.000    0.000    0.000    0.000    0.000    0.000 
#
# Total GULP energy -312218.133949 kJ/mol
# GULP energy per Si atom -5575.323821 kJ/mol
# Density = 2.244243 g / cm^3
# Si number density = 22.493624 Si / 1000 Ang^3
#
#
#
# Elastic Constant Matrix: (Units=GPa)
#
#
# Indices 1 2 3 4 5 6 
#
# 1 41.7985 36.1106 5.8205 0.0000 0.0000 0.0000
# 2 36.1106 174.8425 20.2777 0.0000 0.0000 0.0000
# 3 5.8205 20.2777 56.7373 0.0000 0.0000 0.0000
# 4 0.0000 0.0000 0.0000 29.9095 0.0000 0.0000
# 5 0.0000 0.0000 0.0000 0.0000 9.8694 0.0000
# 6 0.0000 0.0000 0.0000 0.0000 0.0000 -24.4929
#
#
#
# Elastic Compliance Matrix: (Units=1/GPa)
#
#
# Indices 1 2 3 4 5 6 
#
# 1 0.029162 -0.005921 -0.000875 0.000000 0.000000 0.000000
# 2 -0.005921 0.007169 -0.001955 0.000000 0.000000 0.000000
# 3 -0.000875 -0.001955 0.018414 0.000000 0.000000 0.000000
# 4 0.000000 0.000000 0.000000 0.033434 0.000000 0.000000
# 5 0.000000 0.000000 0.000000 0.000000 0.101323 0.000000
# 6 0.000000 0.000000 0.000000 0.000000 0.000000 -0.040828
#
#
# Mechanical properties :
#
#
# Convention : Reuss Voigt Hill
#
# Bulk Modulus (GPa) = 26.85178 44.19954 35.52566
# Shear Modulus (GPa) = 27.99702 17.13517 22.56609
#
# Velocity S-wave (km/s) = 3.53181 2.76303 3.17080
# Velocity P-wave (km/s) = 5.34743 5.46549 5.40678
#
# Compressibility (1/GPa) = 0.03724148
#
# Stress axis : x y z
#
# Youngs Moduli (GPa) = 34.29152 139.48792 54.30791
#
# Poissons Ratio (x) = 0.82595 0.04754
# Poissons Ratio (y) = 0.20305 0.10616
# Poissons Ratio (z) = 0.03002 0.27266
#
# Static dielectric constant tensor:
#      x y z
#    x 1.813250 0.000000 0.000000 
#    y 0.000000 1.923170 0.000000 
#    z 0.000000 0.000000 1.859690 
# 
# From -- ./inp_files/28705.got.cif
#   From: 2010.05.17/outbox.cif.g08.bks.cpg/sg66_15_cif.got.tgz:28705.got - 2010.06.03 17:51:23.
