data_PCOD9498973
_publ_section_title
;
Structure prediction by ZEFSAII (Michael W. Deem and Ramdas Pophale) SiO2 
 PCOD9498973
Probable space group: C C C M
;
_chemical_formula_sum "Si O2"
_cell_formula_units_Z 64
_cell_length_a 22.316611
_cell_length_b 8.846341
_cell_length_c 15.941520
_cell_angle_alpha 90.000000
_cell_angle_beta 90.000000
_cell_angle_gamma 90.000000
_cell_volume 3147.180472
_symmetry_space_group_name_H-M "C C C M"
_symmetry_group_IT_number 66
_symmetry_cell_setting 'orthorhombic'
loop_
_space_group_symop_operation_xyz
x,y,z
-x,-y,z
x,-y,1/2-z
-x,y,1/2-z
-x,-y,-z
x,y,-z
-x,y,1/2+z
x,-y,1/2+z
1/2+x,1/2+y,z
1/2-x,1/2-y,z
1/2+x,1/2-y,1/2-z
1/2-x,1/2+y,1/2-z
1/2-x,1/2-y,-z
1/2+x,1/2+y,-z
1/2-x,1/2+y,1/2+z
1/2+x,1/2-y,1/2+z
loop_
_atom_site_type_symbol
_atom_site_label
_atom_site_fract_x
_atom_site_fract_y
_atom_site_fract_z
Si Si1 0.886188 0.890510 0.000000
Si Si2 0.379029 0.880541 0.824455
Si Si3 0.125414 0.446813 0.000000
Si Si4 0.237121 0.993539 0.000000
Si Si5 0.750000 0.250000 0.142383
Si Si6 0.068008 0.941076 0.164480
O O1 0.906279 0.716429 0.000000
O O2 0.814803 0.886965 0.000000
O O3 0.905213 0.984625 0.918618
O O4 0.310772 0.812129 0.814033
O O5 0.423560 0.738172 0.829583
O O6 0.389958 0.000000 0.750000
O O7 0.386406 0.963065 0.914132
O O8 0.197446 0.438284 0.000000
O O9 0.230139 0.885392 0.919262
O O10 0.098187 0.000000 0.250000
O O11 0.000000 0.000000 0.164593
#
# Coordination Sequence:
#
# PCOD9498973 Si02
#       6
#     8  16   8   8   8  16
#     4  12  20  41  66  92 126 171 218 260 316 387
#     4  11  22  42  65  94 133 170 213 267 326 381
#     4  10  23  38  60  99 132 168 209 259 323 385
#     4   9  17  35  61  89 131 169 199 256 320 378
#     4   9  18  36  60  95 128 168 204 259 318 385
#     4  11  25  44  65  91 122 169 221 268 320 380
#
# _framework density 20.335661999999999
#
# number of rings (size 3 to 8) (size 9 to 14) (size 15 to 20)
#    0.000    1.500    2.500    3.750    0.000    1.000 
#    9.000   10.000    0.000    0.000    0.000    0.000 
#    0.000    0.000    0.000    0.000    0.000    0.000 
#
# Total GULP energy -178494.545953 kJ/mol
# GULP energy per Si atom -5577.954561 kJ/mol
# Density = 2.028938 g / cm^3
# Si number density = 20.335662 Si / 1000 Ang^3
#
#
#
# Elastic Constant Matrix: (Units=GPa)
#
#
# Indices 1 2 3 4 5 6 
#
# 1 57.4918 54.3120 34.2851 0.0000 0.0000 0.0000
# 2 54.3120 188.3675 89.4494 0.0000 0.0000 0.0000
# 3 34.2851 89.4494 170.8237 0.0000 0.0000 0.0000
# 4 0.0000 0.0000 0.0000 134.5553 0.0000 0.0000
# 5 0.0000 0.0000 0.0000 0.0000 -18.9010 0.0000
# 6 0.0000 0.0000 0.0000 0.0000 0.0000 30.0324
#
#
#
# Elastic Compliance Matrix: (Units=1/GPa)
#
#
# Indices 1 2 3 4 5 6 
#
# 1 0.024231 -0.006225 -0.001604 0.000000 0.000000 0.000000
# 2 -0.006225 0.008665 -0.003288 0.000000 0.000000 0.000000
# 3 -0.001604 -0.003288 0.007898 0.000000 0.000000 0.000000
# 4 0.000000 0.000000 0.000000 0.007432 0.000000 0.000000
# 5 0.000000 0.000000 0.000000 0.000000 -0.052907 0.000000
# 6 0.000000 0.000000 0.000000 0.000000 0.000000 0.033297
#
#
# Mechanical properties :
#
#
# Convention : Reuss Voigt Hill
#
# Bulk Modulus (GPa) = 53.87853 85.86400 69.87126
# Shear Modulus (GPa) = 87.66567 45.04644 66.35606
#
# Velocity S-wave (km/s) = 6.57289 4.71164 5.71850
# Velocity P-wave (km/s) = 9.17366 8.48024 8.83375
#
# Compressibility (1/GPa) = 0.01856027
#
# Stress axis : x y z
#
# Youngs Moduli (GPa) = 41.26987 115.40796 126.62234
#
# Poissons Ratio (x) = 0.71841 0.20305
# Poissons Ratio (y) = 0.25690 0.41632
# Poissons Ratio (z) = 0.06618 0.37945
#
# Static dielectric constant tensor:
#      x y z
#    x 1.770390 0.000000 0.000000 
#    y 0.000000 1.714280 0.000000 
#    z 0.000000 0.000000 1.732610 
# 
# From -- ./inp_files/31949.got.cif
#   From: 2010.05.17/outbox.cif.g08.bks.cpg/sg66_16_cif.got.tgz:31949.got - 2010.06.03 17:51:23.
