data_PCOD9498798
_publ_section_title
;
Structure prediction by ZEFSAII (Michael W. Deem and Ramdas Pophale) SiO2 
 PCOD9498798
Probable space group: C C C M
;
_chemical_formula_sum "Si O2"
_cell_formula_units_Z 96
_cell_length_a 16.685668
_cell_length_b 19.866881
_cell_length_c 14.349369
_cell_angle_alpha 90.000000
_cell_angle_beta 90.000000
_cell_angle_gamma 90.000000
_cell_volume 4756.703619
_symmetry_space_group_name_H-M "C C C M"
_symmetry_group_IT_number 66
_symmetry_cell_setting 'orthorhombic'
loop_
_space_group_symop_operation_xyz
x,y,z
-x,-y,z
x,-y,1/2-z
-x,y,1/2-z
-x,-y,-z
x,y,-z
-x,y,1/2+z
x,-y,1/2+z
1/2+x,1/2+y,z
1/2-x,1/2-y,z
1/2+x,1/2-y,1/2-z
1/2-x,1/2+y,1/2-z
1/2-x,1/2-y,-z
1/2+x,1/2+y,-z
1/2-x,1/2+y,1/2+z
1/2+x,1/2-y,1/2+z
loop_
_atom_site_type_symbol
_atom_site_label
_atom_site_fract_x
_atom_site_fract_y
_atom_site_fract_z
Si Si1 0.973546 0.924767 0.107795
Si Si2 0.848910 0.818377 0.808194
Si Si3 0.401777 0.056956 0.500000
Si Si4 0.703140 0.064693 0.182615
Si Si5 0.834006 0.668009 0.837336
Si Si6 0.649459 0.363112 0.892866
Si Si7 0.431251 0.100021 0.000000
O O1 0.909097 0.879209 0.164158
O O2 0.056994 0.884391 0.106507
O O3 0.944716 0.931851 0.000000
O O4 0.000000 0.000000 0.140104
O O5 0.870670 0.742791 0.836904
O O6 0.762102 0.829998 0.856143
O O7 0.839805 0.813855 0.695496
O O8 0.350682 0.062018 0.407478
O O9 0.473557 0.110982 0.500000
O O10 0.426403 0.979512 0.500000
O O11 0.668691 0.127571 0.240932
O O12 0.792692 0.076816 0.142870
O O13 0.701331 0.000000 0.250000
O O14 0.884778 0.627331 0.911257
O O15 0.671019 0.343782 0.000000
#
# Coordination Sequence:
#
# PCOD9498798 Si02
#       7
#    16  16   8  16  16  16   8
#     4  10  23  39  61 100 136 175 219 280 339 399
#     4  10  23  43  66  97 135 179 230 276 341 407
#     4  11  24  44  66 101 130 167 220 287 349 416
#     4  11  22  43  69  99 130 174 224 280 341 421
#     4  10  24  43  68  99 130 180 227 280 343 408
#     4  10  22  41  64  93 132 174 225 273 334 409
#     4  11  24  43  66  98 132 167 219 287 353 406
#
# _framework density 20.182044000000001
#
# number of rings (size 3 to 8) (size 9 to 14) (size 15 to 20)
#    0.000    1.667    2.500    0.500    7.000    2.000 
#    7.500    1.667    0.000    0.000    0.000    0.000 
#    0.000    0.000    0.000    0.000    0.000    0.000 
#
# Total GULP energy -267375.851118 kJ/mol
# GULP energy per Si atom -5570.330232 kJ/mol
# Density = 2.013611 g / cm^3
# Si number density = 20.182044 Si / 1000 Ang^3
#
#
#
# Elastic Constant Matrix: (Units=GPa)
#
#
# Indices 1 2 3 4 5 6 
#
# 1 90.8830 42.3533 57.6787 0.0000 0.0000 0.0000
# 2 42.3533 104.6834 42.3641 0.0000 0.0000 0.0000
# 3 57.6787 42.3641 128.2241 0.0000 0.0000 0.0000
# 4 0.0000 0.0000 0.0000 119.3295 0.0000 0.0000
# 5 0.0000 0.0000 0.0000 0.0000 53.3248 0.0000
# 6 0.0000 0.0000 0.0000 0.0000 0.0000 25.0130
#
#
#
# Elastic Compliance Matrix: (Units=1/GPa)
#
#
# Indices 1 2 3 4 5 6 
#
# 1 0.016963 -0.004358 -0.006191 0.000000 0.000000 0.000000
# 2 -0.004358 0.012146 -0.002053 0.000000 0.000000 0.000000
# 3 -0.006191 -0.002053 0.011262 0.000000 0.000000 0.000000
# 4 0.000000 0.000000 0.000000 0.008380 0.000000 0.000000
# 5 0.000000 0.000000 0.000000 0.000000 0.018753 0.000000
# 6 0.000000 0.000000 0.000000 0.000000 0.000000 0.039979
#
#
# Mechanical properties :
#
#
# Convention : Reuss Voigt Hill
#
# Bulk Modulus (GPa) = 65.92492 67.62029 66.77260
# Shear Modulus (GPa) = 36.29984 51.62644 43.96314
#
# Velocity S-wave (km/s) = 4.24562 5.06319 4.67232
# Velocity P-wave (km/s) = 7.53457 8.23159 7.89078
#
# Compressibility (1/GPa) = 0.01516877
#
# Stress axis : x y z
#
# Youngs Moduli (GPa) = 58.95282 82.32886 88.79572
#
# Poissons Ratio (x) = 0.35876 0.54970
# Poissons Ratio (y) = 0.25689 0.18229
# Poissons Ratio (z) = 0.36495 0.16901
#
# Static dielectric constant tensor:
#      x y z
#    x 1.842850 0.000000 0.000000 
#    y 0.000000 1.719420 0.000000 
#    z 0.000000 0.000000 1.900420 
# 
# From -- ./inp_files/28437.got.cif
#   From: 2010.05.17/outbox.cif.g08.bks.cpg/sg66_15_cif.got.tgz:28437.got - 2010.06.03 17:51:23.
