data_PCOD9498426
_publ_section_title
;
Structure prediction by ZEFSAII (Michael W. Deem and Ramdas Pophale) SiO2 
 PCOD9498426
Probable space group: C C C M
;
_chemical_formula_sum "Si O2"
_cell_formula_units_Z 72
_cell_length_a 16.566381
_cell_length_b 8.593509
_cell_length_c 24.891952
_cell_angle_alpha 90.000000
_cell_angle_beta 90.000000
_cell_angle_gamma 90.000000
_cell_volume 3543.701531
_symmetry_space_group_name_H-M "C C C M"
_symmetry_group_IT_number 66
_symmetry_cell_setting 'orthorhombic'
loop_
_space_group_symop_operation_xyz
x,y,z
-x,-y,z
x,-y,1/2-z
-x,y,1/2-z
-x,-y,-z
x,y,-z
-x,y,1/2+z
x,-y,1/2+z
1/2+x,1/2+y,z
1/2-x,1/2-y,z
1/2+x,1/2-y,1/2-z
1/2-x,1/2+y,1/2-z
1/2-x,1/2-y,-z
1/2+x,1/2+y,-z
1/2-x,1/2+y,1/2+z
1/2+x,1/2-y,1/2+z
loop_
_atom_site_type_symbol
_atom_site_label
_atom_site_fract_x
_atom_site_fract_y
_atom_site_fract_z
Si Si1 0.737229 0.929156 0.365073
Si Si2 0.907407 0.176898 0.732055
Si Si3 0.658891 0.323215 0.386802
Si Si4 0.182606 0.500000 0.750000
Si Si5 0.091709 0.459530 0.061936
O O1 0.750000 0.750000 0.356458
O O2 0.729257 0.007879 0.306374
O O3 0.815203 0.999522 0.395448
O O4 0.656029 0.960620 0.398561
O O5 0.890753 0.187350 0.668383
O O6 0.864272 0.334016 0.754222
O O7 0.000000 0.190977 0.750000
O O8 0.883611 0.000000 0.750000
O O9 0.750000 0.250000 0.383309
O O10 0.610820 0.223693 0.430120
O O11 0.000000 0.500000 0.076694
O O12 0.104776 0.503711 0.000000
#
# Coordination Sequence:
#
# PCOD9498426 Si02
#       5
#    16  16  16   8  16
#     4  11  25  39  66 100 130 176 220 281 333 404
#     4  11  24  37  58  96 134 178 218 268 319 402
#     4  10  21  41  61  90 126 170 219 266 332 389
#     4  12  23  38  66  88 143 174 216 260 339 400
#     4  10  23  45  69  93 126 172 230 283 336 405
#
# _framework density 20.317737000000001
#
# number of rings (size 3 to 8) (size 9 to 14) (size 15 to 20)
#    0.000    1.333    4.444    1.667    7.778    4.444 
#    0.000    0.000    0.000    2.667    0.000    0.000 
#    0.000    0.000    0.000    0.000    0.000    0.000 
#
# Total GULP energy -200644.189406 kJ/mol
# GULP energy per Si atom -5573.449706 kJ/mol
# Density = 2.027149 g / cm^3
# Si number density = 20.317737 Si / 1000 Ang^3
#
#
#
# Elastic Constant Matrix: (Units=GPa)
#
#
# Indices 1 2 3 4 5 6 
#
# 1 125.7170 32.6032 54.2322 0.0000 0.0000 0.0000
# 2 32.6032 127.3215 5.3506 0.0000 0.0000 0.0000
# 3 54.2322 5.3506 77.2599 0.0000 0.0000 0.0000
# 4 0.0000 0.0000 0.0000 24.1058 0.0000 0.0000
# 5 0.0000 0.0000 0.0000 0.0000 24.3402 0.0000
# 6 0.0000 0.0000 0.0000 0.0000 0.0000 19.3487
#
#
#
# Elastic Compliance Matrix: (Units=1/GPa)
#
#
# Indices 1 2 3 4 5 6 
#
# 1 0.012331 -0.002802 -0.008462 0.000000 0.000000 0.000000
# 2 -0.002802 0.008514 0.001377 0.000000 0.000000 0.000000
# 3 -0.008462 0.001377 0.018788 0.000000 0.000000 0.000000
# 4 0.000000 0.000000 0.000000 0.041484 0.000000 0.000000
# 5 0.000000 0.000000 0.000000 0.000000 0.041084 0.000000
# 6 0.000000 0.000000 0.000000 0.000000 0.000000 0.051683
#
#
# Mechanical properties :
#
#
# Convention : Reuss Voigt Hill
#
# Bulk Modulus (GPa) = 50.35368 57.18559 53.76964
# Shear Modulus (GPa) = 24.96537 29.43309 27.19923
#
# Velocity S-wave (km/s) = 3.50915 3.81023 3.66279
# Velocity P-wave (km/s) = 6.42307 6.89666 6.66407
#
# Compressibility (1/GPa) = 0.01985952
#
# Stress axis : x y z
#
# Youngs Moduli (GPa) = 81.09381 117.45657 53.22618
#
# Poissons Ratio (x) = 0.32912 0.45040
# Poissons Ratio (y) = 0.22723 -0.07331
# Poissons Ratio (z) = 0.68621 -0.16177
#
# Static dielectric constant tensor:
#      x y z
#    x 1.731910 0.000000 0.000000 
#    y 0.000000 1.847400 0.000000 
#    z 0.000000 0.000000 1.680510 
# 
# From -- ./inp_files/62196.got.cif
#   From: 2010.05.17/outbox.cif.g08.bks.cpg/sg66_32_cif.got.tgz:62196.got - 2010.06.03 17:51:23.
