data_PCOD9498075
_publ_section_title
;
Structure prediction by ZEFSAII (Michael W. Deem and Ramdas Pophale) SiO2 
 PCOD9498075
Probable space group: C C C M
;
_chemical_formula_sum "Si O2"
_cell_formula_units_Z 64
_cell_length_a 14.122361
_cell_length_b 9.108272
_cell_length_c 23.804033
_cell_angle_alpha 90.000000
_cell_angle_beta 90.000000
_cell_angle_gamma 90.000000
_cell_volume 3061.920031
_symmetry_space_group_name_H-M "C C C M"
_symmetry_group_IT_number 66
_symmetry_cell_setting 'orthorhombic'
loop_
_space_group_symop_operation_xyz
x,y,z
-x,-y,z
x,-y,1/2-z
-x,y,1/2-z
-x,-y,-z
x,y,-z
-x,y,1/2+z
x,-y,1/2+z
1/2+x,1/2+y,z
1/2-x,1/2-y,z
1/2+x,1/2-y,1/2-z
1/2-x,1/2+y,1/2-z
1/2-x,1/2-y,-z
1/2+x,1/2+y,-z
1/2-x,1/2+y,1/2+z
1/2+x,1/2-y,1/2+z
loop_
_atom_site_type_symbol
_atom_site_label
_atom_site_fract_x
_atom_site_fract_y
_atom_site_fract_z
Si Si1 0.258204 0.577079 0.103405
Si Si2 0.856515 0.690926 0.893490
Si Si3 0.099715 0.054089 0.185640
Si Si4 0.486694 0.826115 0.500000
Si Si5 0.893078 0.934659 0.500000
O O1 0.250000 0.750000 0.099081
O O2 0.161172 0.484671 0.106571
O O3 0.313896 0.532995 0.159013
O O4 0.328179 0.528218 0.053123
O O5 0.750000 0.750000 0.905188
O O6 0.887430 0.777550 0.836590
O O7 0.928023 0.719089 0.944396
O O8 0.098355 0.000000 0.250000
O O9 0.000000 0.000000 0.160640
O O10 0.585465 0.739888 0.500000
O O11 0.500000 0.000000 0.500000
O O12 0.000000 0.000000 0.500000
#
# Coordination Sequence:
#
# PCOD9498075 Si02
#       5
#    16  16  16   8   8
#     4  11  22  37  59  88 123 156 197 249 301 362
#     4  10  21  38  59  85 120 161 200 242 301 367
#     4  10  22  41  62  83 111 153 205 254 305 366
#     4  12  22  34  58  92 130 161 198 247 300 367
#     4  12  22  36  58  86 123 163 202 237 296 369
#
# _framework density 20.901918999999999
#
# number of rings (size 3 to 8) (size 9 to 14) (size 15 to 20)
#    0.000    1.250    0.000    8.250    0.000    3.000 
#    0.000    0.000    0.000    3.000    0.000    0.000 
#    0.000    0.000    0.000    0.000    0.000    0.000 
#
# Total GULP energy -178470.689746 kJ/mol
# GULP energy per Si atom -5577.209055 kJ/mol
# Density = 2.085435 g / cm^3
# Si number density = 20.901919 Si / 1000 Ang^3
#
#
#
# Elastic Constant Matrix: (Units=GPa)
#
#
# Indices 1 2 3 4 5 6 
#
# 1 51.6096 27.3792 29.6850 0.0000 0.0000 0.0000
# 2 27.3792 160.1298 40.1786 0.0000 0.0000 0.0000
# 3 29.6850 40.1786 120.4200 0.0000 0.0000 0.0000
# 4 0.0000 0.0000 0.0000 15.1223 0.0000 0.0000
# 5 0.0000 0.0000 0.0000 0.0000 28.0529 0.0000
# 6 0.0000 0.0000 0.0000 0.0000 0.0000 41.1202
#
#
#
# Elastic Compliance Matrix: (Units=1/GPa)
#
#
# Indices 1 2 3 4 5 6 
#
# 1 0.023691 -0.002822 -0.004899 0.000000 0.000000 0.000000
# 2 -0.002822 0.007152 -0.001691 0.000000 0.000000 0.000000
# 3 -0.004899 -0.001691 0.010076 0.000000 0.000000 0.000000
# 4 0.000000 0.000000 0.000000 0.066128 0.000000 0.000000
# 5 0.000000 0.000000 0.000000 0.000000 0.035647 0.000000
# 6 0.000000 0.000000 0.000000 0.000000 0.000000 0.024319
#
#
# Mechanical properties :
#
#
# Convention : Reuss Voigt Hill
#
# Bulk Modulus (GPa) = 45.25576 58.51611 51.88593
# Shear Modulus (GPa) = 25.88010 32.52019 29.20015
#
# Velocity S-wave (km/s) = 3.52258 3.94870 3.74171
# Velocity P-wave (km/s) = 6.18411 6.98899 6.59884
#
# Compressibility (1/GPa) = 0.02209664
#
# Stress axis : x y z
#
# Youngs Moduli (GPa) = 42.21068 139.82971 99.24658
#
# Poissons Ratio (x) = 0.39453 0.48617
# Poissons Ratio (y) = 0.11910 0.16779
# Poissons Ratio (z) = 0.20677 0.23640
#
# Static dielectric constant tensor:
#      x y z
#    x 1.757130 0.000000 0.000000 
#    y 0.000000 1.893590 0.000000 
#    z 0.000000 0.000000 1.901110 
# 
# From -- ./inp_files/55041.got.cif
#   From: 2010.05.17/outbox.cif.g08.bks.cpg/sg66_28_cif.got.tgz:55041.got - 2010.06.03 17:51:23.
