data_PCOD9498987
_publ_section_title
;
Structure prediction by ZEFSAII (Michael W. Deem and Ramdas Pophale) SiO2 
 PCOD9498987
Probable space group: C C C M
;
_chemical_formula_sum "Si O2"
_cell_formula_units_Z 92
_cell_length_a 21.985216
_cell_length_b 13.469808
_cell_length_c 15.145477
_cell_angle_alpha 90.000000
_cell_angle_beta 90.000000
_cell_angle_gamma 90.000000
_cell_volume 4485.130645
_symmetry_space_group_name_H-M "C C C M"
_symmetry_group_IT_number 66
_symmetry_cell_setting 'orthorhombic'
loop_
_space_group_symop_operation_xyz
x,y,z
-x,-y,z
x,-y,1/2-z
-x,y,1/2-z
-x,-y,-z
x,y,-z
-x,y,1/2+z
x,-y,1/2+z
1/2+x,1/2+y,z
1/2-x,1/2-y,z
1/2+x,1/2-y,1/2-z
1/2-x,1/2+y,1/2-z
1/2-x,1/2-y,-z
1/2+x,1/2+y,-z
1/2-x,1/2+y,1/2+z
1/2+x,1/2-y,1/2+z
loop_
_atom_site_type_symbol
_atom_site_label
_atom_site_fract_x
_atom_site_fract_y
_atom_site_fract_z
Si Si1 0.584602 0.000000 0.250000
Si Si2 0.500000 0.500000 0.750000
Si Si3 0.825946 0.572928 0.399799
Si Si4 0.692709 0.525879 0.397206
Si Si5 0.939348 0.712687 0.800613
Si Si6 0.579647 0.607290 0.100054
Si Si7 0.315995 0.731311 0.197968
O O1 0.625227 0.955678 0.327926
O O2 0.554225 0.906132 0.201081
O O3 0.457693 0.440771 0.819381
O O4 0.845408 0.557466 0.500000
O O5 0.764383 0.510416 0.382531
O O6 0.811927 0.689106 0.382352
O O7 0.686743 0.556848 0.500000
O O8 0.648648 0.432131 0.385647
O O9 0.676237 0.619234 0.335998
O O10 0.932165 0.775307 0.889835
O O11 0.876216 0.740549 0.751747
O O12 0.000000 0.747829 0.750000
O O13 0.562612 0.576032 0.000000
O O14 0.250000 0.750000 0.243966
#
# Coordination Sequence:
#
# PCOD9498987 Si02
#       7
#     8   4  16  16  16  16  16
#     4  10  23  39  64  84 115 159 212 264 323 384
#     4  12  22  42  60  84 126 172 206 248 290 380
#     4   9  18  35  59  89 121 157 204 259 315 372
#     4   9  18  33  56  90 126 157 200 253 306 377
#     4  11  23  42  60  86 120 163 206 267 319 383
#     4  11  24  39  61  91 126 168 210 256 319 383
#     4   9  18  34  60  89 118 163 212 255 307 371
#
# _framework density 20.512222999999999
#
# number of rings (size 3 to 8) (size 9 to 14) (size 15 to 20)
#    0.000    2.087    0.870    2.087    0.000    7.652 
#    0.000    3.478    0.000    8.870    0.000    0.000 
#    0.000    0.000    0.000    0.000    0.000    0.000 
#
# Total GULP energy -256178.653409 kJ/mol
# GULP energy per Si atom -5569.101161 kJ/mol
# Density = 2.046554 g / cm^3
# Si number density = 20.512223 Si / 1000 Ang^3
#
#
#
# Elastic Constant Matrix: (Units=GPa)
#
#
# Indices 1 2 3 4 5 6 
#
# 1 69.6482 12.6371 19.3199 0.0000 0.0000 0.0000
# 2 12.6371 82.2020 13.9266 0.0000 0.0000 0.0000
# 3 19.3199 13.9266 80.1849 0.0000 0.0000 0.0000
# 4 0.0000 0.0000 0.0000 23.6430 0.0000 0.0000
# 5 0.0000 0.0000 0.0000 0.0000 4.0246 0.0000
# 6 0.0000 0.0000 0.0000 0.0000 0.0000 16.8131
#
#
#
# Elastic Compliance Matrix: (Units=1/GPa)
#
#
# Indices 1 2 3 4 5 6 
#
# 1 0.015646 -0.001820 -0.003454 0.000000 0.000000 0.000000
# 2 -0.001820 0.012746 -0.001775 0.000000 0.000000 0.000000
# 3 -0.003454 -0.001775 0.013612 0.000000 0.000000 0.000000
# 4 0.000000 0.000000 0.000000 0.042296 0.000000 0.000000
# 5 0.000000 0.000000 0.000000 0.000000 0.248471 0.000000
# 6 0.000000 0.000000 0.000000 0.000000 0.000000 0.059478
#
#
# Mechanical properties :
#
#
# Convention : Reuss Voigt Hill
#
# Bulk Modulus (GPa) = 35.83527 35.97805 35.90666
# Shear Modulus (GPa) = 12.02942 21.30623 16.66783
#
# Velocity S-wave (km/s) = 2.42430 3.22640 2.85367
# Velocity P-wave (km/s) = 5.03433 5.60869 5.32925
#
# Compressibility (1/GPa) = 0.02790547
#
# Stress axis : x y z
#
# Youngs Moduli (GPa) = 63.91346 78.45768 73.46665
#
# Poissons Ratio (x) = 0.14281 0.25373
# Poissons Ratio (y) = 0.11634 0.13041
# Poissons Ratio (z) = 0.22074 0.13927
#
# Static dielectric constant tensor:
#      x y z
#    x 1.819730 0.000000 0.000000 
#    y 0.000000 1.808500 0.000000 
#    z 0.000000 0.000000 1.701060 
# 
# From -- ./inp_files/31231.got.cif
#   From: 2010.05.17/outbox.cif.g08.bks.cpg/sg66_16_cif.got.tgz:31231.got - 2010.06.03 17:51:23.
