data_PCOD9498694
_publ_section_title
;
Structure prediction by ZEFSAII (Michael W. Deem and Ramdas Pophale) SiO2 
 PCOD9498694
Probable space group: C C C M
;
_chemical_formula_sum "Si O2"
_cell_formula_units_Z 96
_cell_length_a 14.884958
_cell_length_b 22.971127
_cell_length_c 14.027684
_cell_angle_alpha 90.000000
_cell_angle_beta 90.000000
_cell_angle_gamma 90.000000
_cell_volume 4796.405480
_symmetry_space_group_name_H-M "C C C M"
_symmetry_group_IT_number 66
_symmetry_cell_setting 'orthorhombic'
loop_
_space_group_symop_operation_xyz
x,y,z
-x,-y,z
x,-y,1/2-z
-x,y,1/2-z
-x,-y,-z
x,y,-z
-x,y,1/2+z
x,-y,1/2+z
1/2+x,1/2+y,z
1/2-x,1/2-y,z
1/2+x,1/2-y,1/2-z
1/2-x,1/2+y,1/2-z
1/2-x,1/2-y,-z
1/2+x,1/2+y,-z
1/2-x,1/2+y,1/2+z
1/2+x,1/2-y,1/2+z
loop_
_atom_site_type_symbol
_atom_site_label
_atom_site_fract_x
_atom_site_fract_y
_atom_site_fract_z
Si Si1 0.113208 0.446185 0.000000
Si Si2 0.778148 0.553762 0.190248
Si Si3 0.409467 0.913736 0.000000
Si Si4 0.197281 0.344587 0.337734
Si Si5 0.873074 0.217360 0.189730
Si Si6 0.582041 0.540062 0.110917
Si Si7 0.937547 0.177561 0.610038
O O1 0.168425 0.432594 0.905481
O O2 0.106330 0.516779 0.000000
O O3 0.017929 0.412808 0.000000
O O4 0.819149 0.500000 0.250000
O O5 0.781477 0.610843 0.253744
O O6 0.677024 0.535202 0.162952
O O7 0.361162 0.881580 0.087877
O O8 0.144283 0.286135 0.310855
O O9 0.294621 0.317906 0.365059
O O10 0.875924 0.197701 0.301069
O O11 0.966027 0.203748 0.137522
O O12 0.500000 0.500000 0.144599
O O13 0.555211 0.607676 0.115954
O O14 0.597810 0.524528 0.000000
O O15 0.911630 0.191987 0.500000
#
# Coordination Sequence:
#
# PCOD9498694 Si02
#       7
#     8  16   8  16  16  16  16
#     4  11  26  46  67 100 133 174 228 286 348 406
#     4  12  24  43  71  99 136 177 219 275 343 409
#     4  11  26  47  70  95 130 174 233 293 343 387
#     4  11  25  46  70  97 131 179 228 286 336 403
#     4  10  24  43  66  99 135 178 234 275 333 408
#     4  10  22  39  66 103 139 178 218 265 340 416
#     4  10  22  41  65  98 141 178 222 280 335 407
#
# _framework density 20.014989
#
# number of rings (size 3 to 8) (size 9 to 14) (size 15 to 20)
#    0.000    1.333    4.167    0.000    4.667    4.333 
#    1.500    0.833    0.000    0.000    0.000    0.000 
#    0.000    0.000    0.000    0.000    0.000    0.000 
#
# Total GULP energy -267918.587808 kJ/mol
# GULP energy per Si atom -5581.637246 kJ/mol
# Density = 1.996943 g / cm^3
# Si number density = 20.014989 Si / 1000 Ang^3
#
#
#
# Elastic Constant Matrix: (Units=GPa)
#
#
# Indices 1 2 3 4 5 6 
#
# 1 114.0772 28.9641 57.6994 0.0000 0.0000 0.0000
# 2 28.9641 73.6669 41.9697 0.0000 0.0000 0.0000
# 3 57.6994 41.9697 120.7792 0.0000 0.0000 0.0000
# 4 0.0000 0.0000 0.0000 71.9174 0.0000 0.0000
# 5 0.0000 0.0000 0.0000 0.0000 19.2970 0.0000
# 6 0.0000 0.0000 0.0000 0.0000 0.0000 30.3967
#
#
#
# Elastic Compliance Matrix: (Units=1/GPa)
#
#
# Indices 1 2 3 4 5 6 
#
# 1 0.011742 -0.001771 -0.004994 0.000000 0.000000 0.000000
# 2 -0.001771 0.017193 -0.005128 0.000000 0.000000 0.000000
# 3 -0.004994 -0.005128 0.012447 0.000000 0.000000 0.000000
# 4 0.000000 0.000000 0.000000 0.013905 0.000000 0.000000
# 5 0.000000 0.000000 0.000000 0.000000 0.051822 0.000000
# 6 0.000000 0.000000 0.000000 0.000000 0.000000 0.032898
#
#
# Mechanical properties :
#
#
# Convention : Reuss Voigt Hill
#
# Bulk Modulus (GPa) = 56.83439 62.86552 59.84996
# Shear Modulus (GPa) = 29.47117 36.31490 32.89303
#
# Velocity S-wave (km/s) = 3.84142 4.26418 4.05831
# Velocity P-wave (km/s) = 6.93779 7.46470 7.20606
#
# Compressibility (1/GPa) = 0.01759498
#
# Stress axis : x y z
#
# Youngs Moduli (GPa) = 85.16778 58.16437 80.33995
#
# Poissons Ratio (x) = 0.10304 0.40119
# Poissons Ratio (y) = 0.15087 0.41198
# Poissons Ratio (z) = 0.42530 0.29827
#
# Static dielectric constant tensor:
#      x y z
#    x 1.711300 0.000000 0.000000 
#    y 0.000000 1.675330 0.000000 
#    z 0.000000 0.000000 1.723760 
# 
# From -- ./inp_files/28448.got.cif
#   From: 2010.05.17/outbox.cif.g08.bks.cpg/sg66_15_cif.got.tgz:28448.got - 2010.06.03 17:51:23.
