data_PCOD9498041
_publ_section_title
;
Structure prediction by ZEFSAII (Michael W. Deem and Ramdas Pophale) SiO2 
 PCOD9498041
Probable space group: C C C M
;
_chemical_formula_sum "Si O2"
_cell_formula_units_Z 64
_cell_length_a 8.930973
_cell_length_b 17.303395
_cell_length_c 19.132730
_cell_angle_alpha 90.000000
_cell_angle_beta 90.000000
_cell_angle_gamma 90.000000
_cell_volume 2956.698501
_symmetry_space_group_name_H-M "C C C M"
_symmetry_group_IT_number 66
_symmetry_cell_setting 'orthorhombic'
loop_
_space_group_symop_operation_xyz
x,y,z
-x,-y,z
x,-y,1/2-z
-x,y,1/2-z
-x,-y,-z
x,y,-z
-x,y,1/2+z
x,-y,1/2+z
1/2+x,1/2+y,z
1/2-x,1/2-y,z
1/2+x,1/2-y,1/2-z
1/2-x,1/2+y,1/2-z
1/2-x,1/2-y,-z
1/2+x,1/2+y,-z
1/2-x,1/2+y,1/2+z
1/2+x,1/2-y,1/2+z
loop_
_atom_site_type_symbol
_atom_site_label
_atom_site_fract_x
_atom_site_fract_y
_atom_site_fract_z
Si Si1 0.177669 0.493623 0.000000
Si Si2 0.668659 0.181843 0.731895
Si Si3 0.715247 0.554594 0.148247
Si Si4 0.319749 0.664065 0.000000
Si Si5 0.890435 0.880598 0.345590
O O1 0.243771 0.449090 0.066800
O O2 0.000000 0.500000 0.000000
O O3 0.223854 0.584170 0.000000
O O4 0.500000 0.204187 0.750000
O O5 0.750000 0.250000 0.688594
O O6 0.660466 0.101349 0.690092
O O7 0.783098 0.170185 0.796867
O O8 0.563302 0.599657 0.169777
O O9 0.687471 0.464733 0.162530
O O10 0.250000 0.750000 0.000000
O O11 0.396887 0.653284 0.924293
#
# Coordination Sequence:
#
# PCOD9498041 Si02
#       5
#     8  16  16   8  16
#     4  10  23  41  66  97 136 169 229 278 329 399
#     4  12  26  41  63  92 131 171 219 274 332 399
#     4  10  22  41  66  91 127 172 214 271 328 390
#     4  10  21  37  67  94 127 169 214 265 331 385
#     4  10  21  41  66  95 127 168 221 264 329 400
#
# _framework density 21.645765000000001
#
# number of rings (size 3 to 8) (size 9 to 14) (size 15 to 20)
#    0.000    1.500    0.000    4.500    7.000    6.000 
#    0.000    0.625    0.000    0.000    0.000    0.000 
#    0.000    0.000    0.000    0.000    0.000    0.000 
#
# Total GULP energy -178349.929732 kJ/mol
# GULP energy per Si atom -5573.435304 kJ/mol
# Density = 2.159650 g / cm^3
# Si number density = 21.645765 Si / 1000 Ang^3
#
#
#
# Elastic Constant Matrix: (Units=GPa)
#
#
# Indices 1 2 3 4 5 6 
#
# 1 91.4875 38.2652 28.9108 0.0000 0.0000 0.0000
# 2 38.2652 98.1894 34.3371 0.0000 0.0000 0.0000
# 3 28.9108 34.3371 77.7493 0.0000 0.0000 0.0000
# 4 0.0000 0.0000 0.0000 11.2268 0.0000 0.0000
# 5 0.0000 0.0000 0.0000 0.0000 18.7923 0.0000
# 6 0.0000 0.0000 0.0000 0.0000 0.0000 38.3210
#
#
#
# Elastic Compliance Matrix: (Units=1/GPa)
#
#
# Indices 1 2 3 4 5 6 
#
# 1 0.013716 -0.004212 -0.003240 0.000000 0.000000 0.000000
# 2 -0.004212 0.013338 -0.004324 0.000000 0.000000 0.000000
# 3 -0.003240 -0.004324 0.015976 0.000000 0.000000 0.000000
# 4 0.000000 0.000000 0.000000 0.089072 0.000000 0.000000
# 5 0.000000 0.000000 0.000000 0.000000 0.053213 0.000000
# 6 0.000000 0.000000 0.000000 0.000000 0.000000 0.026095
#
#
# Mechanical properties :
#
#
# Convention : Reuss Voigt Hill
#
# Bulk Modulus (GPa) = 51.34117 52.27249 51.80683
# Shear Modulus (GPa) = 20.70760 24.72891 22.71825
#
# Velocity S-wave (km/s) = 3.09634 3.38366 3.24319
# Velocity P-wave (km/s) = 6.04594 6.28228 6.16524
#
# Compressibility (1/GPa) = 0.01947755
#
# Stress axis : x y z
#
# Youngs Moduli (GPa) = 72.90687 74.97275 62.59227
#
# Poissons Ratio (x) = 0.31580 0.20280
# Poissons Ratio (y) = 0.30710 0.27067
# Poissons Ratio (z) = 0.23622 0.32421
#
# Static dielectric constant tensor:
#      x y z
#    x 1.789890 0.000000 0.000000 
#    y 0.000000 1.783890 0.000000 
#    z 0.000000 0.000000 1.840580 
# 
# From -- ./inp_files/46625.got.cif
#   From: 2010.05.17/outbox.cif.g08.bks.cpg/sg66_24_cif.got.tgz:46625.got - 2010.06.03 17:51:23.
