data_PCOD9498582
_publ_section_title
;
Structure prediction by ZEFSAII (Michael W. Deem and Ramdas Pophale) SiO2 
 PCOD9498582
Probable space group: C C C M
;
_chemical_formula_sum "Si O2"
_cell_formula_units_Z 116
_cell_length_a 9.049171
_cell_length_b 25.355347
_cell_length_c 23.567353
_cell_angle_alpha 90.000000
_cell_angle_beta 90.000000
_cell_angle_gamma 90.000000
_cell_volume 5407.408263
_symmetry_space_group_name_H-M "C C C M"
_symmetry_group_IT_number 66
_symmetry_cell_setting 'orthorhombic'
loop_
_space_group_symop_operation_xyz
x,y,z
-x,-y,z
x,-y,1/2-z
-x,y,1/2-z
-x,-y,-z
x,y,-z
-x,y,1/2+z
x,-y,1/2+z
1/2+x,1/2+y,z
1/2-x,1/2-y,z
1/2+x,1/2-y,1/2-z
1/2-x,1/2+y,1/2-z
1/2-x,1/2-y,-z
1/2+x,1/2+y,-z
1/2-x,1/2+y,1/2+z
1/2+x,1/2-y,1/2+z
loop_
_atom_site_type_symbol
_atom_site_label
_atom_site_fract_x
_atom_site_fract_y
_atom_site_fract_z
Si Si1 0.196494 0.088669 0.063383
Si Si2 0.030635 0.056788 0.831123
Si Si3 0.576612 0.760224 0.436782
Si Si4 0.156224 0.201894 0.116019
Si Si5 0.036940 0.614366 0.936195
Si Si6 0.333612 0.347495 0.767461
Si Si7 0.000000 0.500000 0.250000
Si Si8 0.693983 0.912528 0.319652
O O1 0.157278 0.148767 0.080104
O O2 0.373739 0.089246 0.066325
O O3 0.115558 0.053135 0.109437
O O4 0.149447 0.076136 0.000000
O O5 0.867277 0.080284 0.834492
O O6 0.132053 0.094189 0.793061
O O7 0.000000 0.000000 0.807717
O O8 0.523789 0.743044 0.500000
O O9 0.750000 0.750000 0.435896
O O10 0.506866 0.725380 0.387211
O O11 0.535258 0.821790 0.431622
O O12 0.250000 0.250000 0.091177
O O13 0.212407 0.187246 0.178671
O O14 0.119048 0.595143 0.880372
O O15 0.097573 0.602791 0.000000
O O16 0.500000 0.329099 0.750000
O O17 0.209374 0.360137 0.720605
O O18 0.893217 0.539701 0.287066
#
# Coordination Sequence:
#
# PCOD9498582 Si02
#       8
#    16  16  16  16  16  16   4  16
#     4  10  22  39  64  94 130 172 219 275 335 393
#     4  10  22  41  68  90 124 165 221 280 332 401
#     4  10  22  37  61  94 130 174 226 269 321 396
#     4  11  21  38  62  89 125 173 218 268 322 388
#     4  10  23  43  65  96 137 177 219 281 342 394
#     4   9  22  42  60  90 126 165 214 274 329 389
#     4  12  28  40  76 100 128 176 222 266 348 412
#     4  11  25  43  67  97 131 169 222 273 333 412
#
# _framework density 21.452051999999998
#
# number of rings (size 3 to 8) (size 9 to 14) (size 15 to 20)
#    0.000    1.793    1.379    1.241   11.586    3.310 
#    2.483    0.345    0.000    0.000    0.000    0.000 
#    0.000    0.000    0.000    0.000    0.000    0.000 
#
# Total GULP energy -323410.365434 kJ/mol
# GULP energy per Si atom -5576.040783 kJ/mol
# Density = 2.140323 g / cm^3
# Si number density = 21.452052 Si / 1000 Ang^3
#
#
#
# Elastic Constant Matrix: (Units=GPa)
#
#
# Indices 1 2 3 4 5 6 
#
# 1 59.2778 6.9048 47.3713 0.0000 0.0000 0.0000
# 2 6.9048 43.6518 21.9816 0.0000 0.0000 0.0000
# 3 47.3713 21.9816 155.9643 0.0000 0.0000 0.0000
# 4 0.0000 0.0000 0.0000 7.0816 0.0000 0.0000
# 5 0.0000 0.0000 0.0000 0.0000 586.9769 0.0000
# 6 0.0000 0.0000 0.0000 0.0000 0.0000 12.4710
#
#
#
# Elastic Compliance Matrix: (Units=1/GPa)
#
#
# Indices 1 2 3 4 5 6 
#
# 1 0.022277 -0.000125 -0.006749 0.000000 0.000000 0.000000
# 2 -0.000125 0.024659 -0.003437 0.000000 0.000000 0.000000
# 3 -0.006749 -0.003437 0.008946 0.000000 0.000000 0.000000
# 4 0.000000 0.000000 0.000000 0.141211 0.000000 0.000000
# 5 0.000000 0.000000 0.000000 0.000000 0.001704 0.000000
# 6 0.000000 0.000000 0.000000 0.000000 0.000000 0.080186
#
#
# Mechanical properties :
#
#
# Convention : Reuss Voigt Hill
#
# Bulk Modulus (GPa) = 28.36092 45.71216 37.03654
# Shear Modulus (GPa) = 16.05861 133.48164 74.77012
#
# Velocity S-wave (km/s) = 2.73899 7.89673 5.91018
# Velocity P-wave (km/s) = 4.82204 10.22251 7.99224
#
# Compressibility (1/GPa) = 0.03525979
#
# Stress axis : x y z
#
# Youngs Moduli (GPa) = 44.88838 40.55259 111.78192
#
# Poissons Ratio (x) = 0.00509 0.75438
# Poissons Ratio (y) = 0.00563 0.38424
# Poissons Ratio (z) = 0.30294 0.13940
#
# Static dielectric constant tensor:
#      x y z
#    x 1.585320 0.000000 0.000000 
#    y 0.000000 1.733620 0.000000 
#    z 0.000000 0.000000 1.841740 
# 
# From -- ./inp_files/55921.got.cif
#   From: 2010.05.17/outbox.cif.g08.bks.cpg/sg66_28_cif.got.tgz:55921.got - 2010.06.03 17:51:23.
