data_PCOD9498107
_publ_section_title
;
Structure prediction by ZEFSAII (Michael W. Deem and Ramdas Pophale) SiO2 
 PCOD9498107
Probable space group: C C C M
;
_chemical_formula_sum "Si O2"
_cell_formula_units_Z 116
_cell_length_a 24.688528
_cell_length_b 8.218101
_cell_length_c 29.754332
_cell_angle_alpha 90.000000
_cell_angle_beta 90.000000
_cell_angle_gamma 90.000000
_cell_volume 6036.940227
_symmetry_space_group_name_H-M "C C C M"
_symmetry_group_IT_number 66
_symmetry_cell_setting 'orthorhombic'
loop_
_space_group_symop_operation_xyz
x,y,z
-x,-y,z
x,-y,1/2-z
-x,y,1/2-z
-x,-y,-z
x,y,-z
-x,y,1/2+z
x,-y,1/2+z
1/2+x,1/2+y,z
1/2-x,1/2-y,z
1/2+x,1/2-y,1/2-z
1/2-x,1/2+y,1/2-z
1/2-x,1/2-y,-z
1/2+x,1/2+y,-z
1/2-x,1/2+y,1/2+z
1/2+x,1/2-y,1/2+z
loop_
_atom_site_type_symbol
_atom_site_label
_atom_site_fract_x
_atom_site_fract_y
_atom_site_fract_z
Si Si1 0.855297 0.278479 0.350937
Si Si2 0.000000 0.000000 0.250000
Si Si3 0.860907 0.358448 0.948445
Si Si4 0.347000 0.458856 0.392618
Si Si5 0.230543 0.564473 0.592175
Si Si6 0.561102 0.983336 0.370214
Si Si7 0.909725 0.812119 0.308445
Si Si8 0.311961 0.197137 0.754353
O O1 0.811209 0.409561 0.367264
O O2 0.913639 0.357733 0.346945
O O3 0.830330 0.230963 0.303116
O O4 0.859473 0.151031 0.392055
O O5 0.041954 0.898956 0.218600
O O6 0.857597 0.170589 0.931811
O O7 0.803770 0.455408 0.942485
O O8 0.902538 0.440416 0.913549
O O9 0.877689 0.367381 0.000000
O O10 0.281972 0.466217 0.389481
O O11 0.382034 0.409329 0.349475
O O12 0.250000 0.750000 0.578352
O O13 0.566293 0.845340 0.332822
O O14 0.500000 0.000000 0.384568
O O15 0.858422 0.765287 0.278030
O O16 0.250000 0.250000 0.745080
O O17 0.314434 0.000000 0.750000
#
# Coordination Sequence:
#
# PCOD9498107 Si02
#       8
#    16   4  16  16  16  16  16  16
#     4  10  21  40  58  88 121 165 215 251 313 375
#     4  12  28  40  66 100 130 172 234 282 336 376
#     4  10  22  40  62  96 127 156 207 262 326 393
#     4  10  21  38  61  86 125 166 201 252 322 391
#     4   9  19  36  62  90 124 169 207 252 312 393
#     4  10  23  43  66  86 115 168 212 261 322 386
#     4  11  26  41  60  92 126 171 213 278 319 386
#     4  12  26  39  60  92 131 172 217 274 321 385
#
# _framework density 19.215032000000001
#
# number of rings (size 3 to 8) (size 9 to 14) (size 15 to 20)
#    0.000    1.655    1.379    2.483    8.690    1.655 
#    0.000    5.517    0.000    0.828    0.000    0.000 
#    0.000    0.000    0.000    0.000    0.000    0.000 
#
# Total GULP energy -322927.242302 kJ/mol
# GULP energy per Si atom -5567.711074 kJ/mol
# Density = 1.917130 g / cm^3
# Si number density = 19.215032 Si / 1000 Ang^3
#
#
#
# Elastic Constant Matrix: (Units=GPa)
#
#
# Indices 1 2 3 4 5 6 
#
# 1 143.3412 44.0887 37.3096 0.0000 0.0000 0.0000
# 2 44.0887 45.4584 17.7660 0.0000 0.0000 0.0000
# 3 37.3096 17.7660 87.4567 0.0000 0.0000 0.0000
# 4 0.0000 0.0000 0.0000 7.5560 0.0000 0.0000
# 5 0.0000 0.0000 0.0000 0.0000 7.7781 0.0000
# 6 0.0000 0.0000 0.0000 0.0000 0.0000 9.5938
#
#
#
# Elastic Compliance Matrix: (Units=1/GPa)
#
#
# Indices 1 2 3 4 5 6 
#
# 1 0.010463 -0.009128 -0.002609 0.000000 0.000000 0.000000
# 2 -0.009128 0.031859 -0.002578 0.000000 0.000000 0.000000
# 3 -0.002609 -0.002578 0.013071 0.000000 0.000000 0.000000
# 4 0.000000 0.000000 0.000000 0.132346 0.000000 0.000000
# 5 0.000000 0.000000 0.000000 0.000000 0.128566 0.000000
# 6 0.000000 0.000000 0.000000 0.000000 0.000000 0.104234
#
#
# Mechanical properties :
#
#
# Convention : Reuss Voigt Hill
#
# Bulk Modulus (GPa) = 37.36570 52.73167 45.04868
# Shear Modulus (GPa) = 10.91489 16.79170 13.85329
#
# Velocity S-wave (km/s) = 2.38594 2.95936 2.68798
# Velocity P-wave (km/s) = 5.20371 6.25936 5.75579
#
# Compressibility (1/GPa) = 0.02676251
#
# Stress axis : x y z
#
# Youngs Moduli (GPa) = 95.57355 31.38871 76.50503
#
# Poissons Ratio (x) = 0.28652 0.19963
# Poissons Ratio (y) = 0.87240 0.19721
# Poissons Ratio (z) = 0.24939 0.08091
#
# Static dielectric constant tensor:
#      x y z
#    x 1.662230 0.000000 0.000000 
#    y 0.000000 1.778140 0.000000 
#    z 0.000000 0.000000 1.651860 
# 
# From -- ./inp_files/66121.got.cif
#   From: 2010.05.17/outbox.cif.g08.bks.cpg/sg66_34_cif.got.tgz:66121.got - 2010.06.03 17:51:23.
