data_PCOD9498548
_publ_section_title
;
Structure prediction by ZEFSAII (Michael W. Deem and Ramdas Pophale) SiO2 
 PCOD9498548
Probable space group: C C C M
;
_chemical_formula_sum "Si O2"
_cell_formula_units_Z 44
_cell_length_a 17.226935
_cell_length_b 9.001410
_cell_length_c 10.424844
_cell_angle_alpha 90.000000
_cell_angle_beta 90.000000
_cell_angle_gamma 90.000000
_cell_volume 1616.546209
_symmetry_space_group_name_H-M "C C C M"
_symmetry_group_IT_number 66
_symmetry_cell_setting 'orthorhombic'
loop_
_space_group_symop_operation_xyz
x,y,z
-x,-y,z
x,-y,1/2-z
-x,y,1/2-z
-x,-y,-z
x,y,-z
-x,y,1/2+z
x,-y,1/2+z
1/2+x,1/2+y,z
1/2-x,1/2-y,z
1/2+x,1/2-y,1/2-z
1/2-x,1/2+y,1/2-z
1/2-x,1/2-y,-z
1/2+x,1/2+y,-z
1/2-x,1/2+y,1/2+z
1/2+x,1/2-y,1/2+z
loop_
_atom_site_type_symbol
_atom_site_label
_atom_site_fract_x
_atom_site_fract_y
_atom_site_fract_z
Si Si1 0.366653 0.000000 0.250000
Si Si2 0.750000 0.750000 0.721502
Si Si3 0.000000 0.000000 0.250000
Si Si4 0.078394 0.840933 0.500000
Si Si5 0.901147 0.504874 0.500000
Si Si6 0.784420 0.951801 0.500000
O O1 0.308672 0.135946 0.211757
O O2 0.419385 0.065719 0.361850
O O3 0.800814 0.854223 0.626283
O O4 0.045153 0.098730 0.138848
O O5 0.073773 0.664828 0.500000
O O6 0.166570 0.900837 0.500000
O O7 0.807962 0.532038 0.500000
#
# Coordination Sequence:
#
# PCOD9498548 Si02
#       6
#     8   8   4   8   8   8
#     4  10  22  35  56  99 144 178 216 248 346 428
#     4   9  20  33  54 102 146 174 204 258 354 424
#     4  10  28  48  64 104 124 196 244 270 328 386
#     4  11  24  45  72  95 136 176 239 288 322 412
#     4  10  23  38  65 103 144 167 215 283 358 410
#     4   9  20  37  63 103 139 178 206 281 363 406
#
# _framework density 27.218523999999999
#
# number of rings (size 3 to 8) (size 9 to 14) (size 15 to 20)
#    0.000    2.182    0.000    1.636   15.273    1.455 
#    0.000    0.000    0.000    3.273    0.000    0.000 
#    0.000    0.000    0.000    0.000    0.000    0.000 
#
# Total GULP energy -122582.649987 kJ/mol
# GULP energy per Si atom -5571.938636 kJ/mol
# Density = 2.715657 g / cm^3
# Si number density = 27.218524 Si / 1000 Ang^3
#
#
#
# Elastic Constant Matrix: (Units=GPa)
#
#
# Indices 1 2 3 4 5 6 
#
# 1 96.0201 12.0206 9.0102 0.0000 0.0000 0.0000
# 2 12.0206 74.4727 -9.4848 0.0000 0.0000 0.0000
# 3 9.0102 -9.4848 184.3238 0.0000 0.0000 0.0000
# 4 0.0000 0.0000 0.0000 35.3168 0.0000 0.0000
# 5 0.0000 0.0000 0.0000 0.0000 16.6243 0.0000
# 6 0.0000 0.0000 0.0000 0.0000 0.0000 29.3104
#
#
#
# Elastic Compliance Matrix: (Units=1/GPa)
#
#
# Indices 1 2 3 4 5 6 
#
# 1 0.010698 -0.001805 -0.000616 0.000000 0.000000 0.000000
# 2 -0.001805 0.013821 0.000799 0.000000 0.000000 0.000000
# 3 -0.000616 0.000799 0.005496 0.000000 0.000000 0.000000
# 4 0.000000 0.000000 0.000000 0.028315 0.000000 0.000000
# 5 0.000000 0.000000 0.000000 0.000000 0.060153 0.000000
# 6 0.000000 0.000000 0.000000 0.000000 0.000000 0.034118
#
#
# Mechanical properties :
#
#
# Convention : Reuss Voigt Hill
#
# Bulk Modulus (GPa) = 37.35195 41.98985 39.67090
# Shear Modulus (GPa) = 30.34553 39.13501 34.74027
#
# Velocity S-wave (km/s) = 3.34261 3.79596 3.57648
# Velocity P-wave (km/s) = 5.35259 5.88836 5.62686
#
# Compressibility (1/GPa) = 0.02677237
#
# Stress axis : x y z
#
# Youngs Moduli (GPa) = 93.47309 72.35405 181.93478
#
# Poissons Ratio (x) = 0.13062 0.11204
# Poissons Ratio (y) = 0.16874 -0.14544
# Poissons Ratio (z) = 0.05757 -0.05784
#
# Static dielectric constant tensor:
#      x y z
#    x 2.238420 0.000000 0.000000 
#    y 0.000000 2.083520 0.000000 
#    z 0.000000 0.000000 2.384170 
# 
# From -- ./inp_files/13131.got.cif
#   From: 2010.05.17/outbox.cif.g08.bks.cpg/sg66_7_cif.got.tgz:13131.got - 2010.06.03 17:51:23.
