data_PCOD9498598
_publ_section_title
;
Structure prediction by ZEFSAII (Michael W. Deem and Ramdas Pophale) SiO2 
 PCOD9498598
Probable space group: C C C M
;
_chemical_formula_sum "Si O2"
_cell_formula_units_Z 96
_cell_length_a 23.825421
_cell_length_b 24.705840
_cell_length_c 8.859829
_cell_angle_alpha 90.000000
_cell_angle_beta 90.000000
_cell_angle_gamma 90.000000
_cell_volume 5215.134912
_symmetry_space_group_name_H-M "C C C M"
_symmetry_group_IT_number 66
_symmetry_cell_setting 'orthorhombic'
loop_
_space_group_symop_operation_xyz
x,y,z
-x,-y,z
x,-y,1/2-z
-x,y,1/2-z
-x,-y,-z
x,y,-z
-x,y,1/2+z
x,-y,1/2+z
1/2+x,1/2+y,z
1/2-x,1/2-y,z
1/2+x,1/2-y,1/2-z
1/2-x,1/2+y,1/2-z
1/2-x,1/2-y,-z
1/2+x,1/2+y,-z
1/2-x,1/2+y,1/2+z
1/2+x,1/2-y,1/2+z
loop_
_atom_site_type_symbol
_atom_site_label
_atom_site_fract_x
_atom_site_fract_y
_atom_site_fract_z
Si Si1 0.942271 0.939655 0.180525
Si Si2 0.060482 0.269447 0.176561
Si Si3 0.833640 0.227959 0.821177
Si Si4 0.169084 0.892763 0.181453
Si Si5 0.835163 0.662265 0.825329
Si Si6 0.714843 0.943552 0.320315
O O1 0.887435 0.907614 0.232626
O O2 0.000000 0.916518 0.250000
O O3 0.936809 0.000000 0.250000
O O4 0.946273 0.942531 0.000000
O O5 0.100882 0.228779 0.268665
O O6 0.098054 0.324266 0.184878
O O7 0.000000 0.274092 0.250000
O O8 0.057150 0.254225 0.000000
O O9 0.811952 0.168561 0.782304
O O10 0.809932 0.281617 0.741145
O O11 0.828959 0.235738 0.000000
O O12 0.220008 0.932437 0.221073
O O13 0.159503 0.895285 0.000000
O O14 0.818412 0.608850 0.737453
O O15 0.819745 0.656816 0.000000
O O16 0.711262 0.946127 0.500000
O O17 0.695747 0.000000 0.250000
#
# Coordination Sequence:
#
# PCOD9498598 Si02
#       6
#    16  16  16  16  16  16
#     4  11  22  37  57  77 105 145 189 239 289 337
#     4   9  18  32  54  82 113 148 186 226 275 333
#     4   9  18  34  55  80 112 147 182 224 275 330
#     4  10  22  38  56  83 114 148 191 234 281 338
#     4   9  20  37  56  83 115 148 189 231 281 339
#     4  11  23  39  60  83 111 148 190 236 287 338
#
# _framework density 18.407962000000001
#
# number of rings (size 3 to 8) (size 9 to 14) (size 15 to 20)
#    1.000    1.167    0.000    4.000    0.000    5.333 
#    0.000    3.333    0.000    0.500    0.000    3.500 
#    0.000    0.000    0.000    0.000    0.000    0.000 
#
# Total GULP energy -267599.678071 kJ/mol
# GULP energy per Si atom -5574.993293 kJ/mol
# Density = 1.836606 g / cm^3
# Si number density = 18.407962 Si / 1000 Ang^3
#
#
#
# Elastic Constant Matrix: (Units=GPa)
#
#
# Indices 1 2 3 4 5 6 
#
# 1 36.0024 5.2432 7.4531 0.0000 0.0000 0.0000
# 2 5.2432 86.4090 24.3153 0.0000 0.0000 0.0000
# 3 7.4531 24.3153 58.3792 0.0000 0.0000 0.0000
# 4 0.0000 0.0000 0.0000 26.2479 0.0000 0.0000
# 5 0.0000 0.0000 0.0000 0.0000 -131.1109 0.0000
# 6 0.0000 0.0000 0.0000 0.0000 0.0000 23.2541
#
#
#
# Elastic Compliance Matrix: (Units=1/GPa)
#
#
# Indices 1 2 3 4 5 6 
#
# 1 0.028579 -0.000801 -0.003315 0.000000 0.000000 0.000000
# 2 -0.000801 0.013132 -0.005367 0.000000 0.000000 0.000000
# 3 -0.003315 -0.005367 0.019788 0.000000 0.000000 0.000000
# 4 0.000000 0.000000 0.000000 0.038098 0.000000 0.000000
# 5 0.000000 0.000000 0.000000 0.000000 -0.007627 0.000000
# 6 0.000000 0.000000 0.000000 0.000000 0.000000 0.043003
#
#
# Mechanical properties :
#
#
# Convention : Reuss Voigt Hill
#
# Bulk Modulus (GPa) = 23.51169 28.31264 25.91217
# Shear Modulus (GPa) = 29.74119 -6.73652 11.50234
#
# Velocity S-wave (km/s) = 4.02390 -1.91508 2.50243
# Velocity P-wave (km/s) = 5.86424 3.24408 4.73885
#
# Compressibility (1/GPa) = 0.04253203
#
# Stress axis : x y z
#
# Youngs Moduli (GPa) = 34.99093 76.15107 50.53565
#
# Poissons Ratio (x) = 0.06103 0.16751
# Poissons Ratio (y) = 0.02804 0.27123
# Poissons Ratio (z) = 0.11599 0.40871
#
# Static dielectric constant tensor:
#      x y z
#    x 1.653940 0.000000 0.000000 
#    y 0.000000 1.632630 0.000000 
#    z 0.000000 0.000000 1.615750 
# 
# From -- ./inp_files/9105.got.cif
#   From: 2010.05.17/outbox.cif.g08.bks.cpg/sg66_5_cif.got.tgz:9105.got - 2010.06.03 17:51:23.
