data_PCOD9498671
_publ_section_title
;
Structure prediction by ZEFSAII (Michael W. Deem and Ramdas Pophale) SiO2 
 PCOD9498671
Probable space group: C C C M
;
_chemical_formula_sum "Si O2"
_cell_formula_units_Z 64
_cell_length_a 5.100089
_cell_length_b 21.199310
_cell_length_c 27.827492
_cell_angle_alpha 90.000000
_cell_angle_beta 90.000000
_cell_angle_gamma 90.000000
_cell_volume 3008.663013
_symmetry_space_group_name_H-M "C C C M"
_symmetry_group_IT_number 66
_symmetry_cell_setting 'orthorhombic'
loop_
_space_group_symop_operation_xyz
x,y,z
-x,-y,z
x,-y,1/2-z
-x,y,1/2-z
-x,-y,-z
x,y,-z
-x,y,1/2+z
x,-y,1/2+z
1/2+x,1/2+y,z
1/2-x,1/2-y,z
1/2+x,1/2-y,1/2-z
1/2-x,1/2+y,1/2-z
1/2-x,1/2-y,-z
1/2+x,1/2+y,-z
1/2-x,1/2+y,1/2+z
1/2+x,1/2-y,1/2+z
loop_
_atom_site_type_symbol
_atom_site_label
_atom_site_fract_x
_atom_site_fract_y
_atom_site_fract_z
Si Si1 0.043410 0.886756 0.364715
Si Si2 0.464663 0.075378 0.306285
Si Si3 0.642109 0.063770 0.444317
Si Si4 0.291708 0.675713 0.053603
O O1 0.310924 0.887516 0.335067
O O2 0.107827 0.931208 0.410245
O O3 0.814394 0.907461 0.329092
O O4 0.956739 0.828136 0.397017
O O5 0.500000 0.089425 0.250000
O O6 0.500000 0.000000 0.311843
O O7 0.706576 0.056195 0.500000
O O8 0.454323 0.126480 0.439926
O O9 0.500000 0.000000 0.428777
O O10 0.250000 0.750000 0.049234
O O11 0.403549 0.657943 0.000000
#
# Coordination Sequence:
#
# PCOD9498671 Si02
#       4
#    16  16  16  16
#     4  12  22  41  67  96 132 174 225 268 339 394
#     4  11  25  42  66 100 135 171 222 288 348 404
#     4  10  22  39  63 101 142 177 219 272 334 403
#     4  10  23  42  65  99 141 184 228 270 324 405
#
# _framework density 21.271909000000001
#
# number of rings (size 3 to 8) (size 9 to 14) (size 15 to 20)
#    0.000    1.250    2.500    3.000    3.500    3.000 
#    0.000    7.500    0.000    5.250    0.000    0.000 
#    0.000    0.000    0.000    0.000    0.000    0.000 
#
# Total GULP energy -178413.328795 kJ/mol
# GULP energy per Si atom -5575.416525 kJ/mol
# Density = 2.122349 g / cm^3
# Si number density = 21.271909 Si / 1000 Ang^3
#
#
#
# Elastic Constant Matrix: (Units=GPa)
#
#
# Indices 1 2 3 4 5 6 
#
# 1 95.7133 14.9682 36.6052 0.0000 0.0000 0.0000
# 2 14.9682 90.2293 10.1973 0.0000 0.0000 0.0000
# 3 36.6052 10.1973 167.0883 0.0000 0.0000 0.0000
# 4 0.0000 0.0000 0.0000 43.6536 0.0000 0.0000
# 5 0.0000 0.0000 0.0000 0.0000 23.4463 0.0000
# 6 0.0000 0.0000 0.0000 0.0000 0.0000 14.2258
#
#
#
# Elastic Compliance Matrix: (Units=1/GPa)
#
#
# Indices 1 2 3 4 5 6 
#
# 1 0.011644 -0.001655 -0.002450 0.000000 0.000000 0.000000
# 2 -0.001655 0.011395 -0.000333 0.000000 0.000000 0.000000
# 3 -0.002450 -0.000333 0.006542 0.000000 0.000000 0.000000
# 4 0.000000 0.000000 0.000000 0.022908 0.000000 0.000000
# 5 0.000000 0.000000 0.000000 0.000000 0.042651 0.000000
# 6 0.000000 0.000000 0.000000 0.000000 0.000000 0.070295
#
#
# Mechanical properties :
#
#
# Convention : Reuss Voigt Hill
#
# Bulk Modulus (GPa) = 48.29631 52.95248 50.62440
# Shear Modulus (GPa) = 27.59227 35.68249 31.63738
#
# Velocity S-wave (km/s) = 3.60547 4.10011 3.86072
# Velocity P-wave (km/s) = 6.33136 6.88198 6.61240
#
# Compressibility (1/GPa) = 0.02070552
#
# Stress axis : x y z
#
# Youngs Moduli (GPa) = 85.88429 87.75778 152.86115
#
# Poissons Ratio (x) = 0.14521 0.37449
# Poissons Ratio (y) = 0.14211 0.05089
# Poissons Ratio (z) = 0.21040 0.02922
#
# Static dielectric constant tensor:
#      x y z
#    x 1.901920 0.000000 0.000000 
#    y 0.000000 1.819580 0.000000 
#    z 0.000000 0.000000 1.781590 
# 
# From -- ./inp_files/61217.got.cif
#   From: 2010.05.17/outbox.cif.g08.bks.cpg/sg66_31_cif.got.tgz:61217.got - 2010.06.03 17:51:23.
