data_PCOD9498596
_publ_section_title
;
Structure prediction by ZEFSAII (Michael W. Deem and Ramdas Pophale) SiO2 
 PCOD9498596
Probable space group: C C C M
;
_chemical_formula_sum "Si O2"
_cell_formula_units_Z 56
_cell_length_a 5.293788
_cell_length_b 27.826703
_cell_length_c 16.175019
_cell_angle_alpha 90.000000
_cell_angle_beta 90.000000
_cell_angle_gamma 90.000000
_cell_volume 2382.720478
_symmetry_space_group_name_H-M "C C C M"
_symmetry_group_IT_number 66
_symmetry_cell_setting 'orthorhombic'
loop_
_space_group_symop_operation_xyz
x,y,z
-x,-y,z
x,-y,1/2-z
-x,y,1/2-z
-x,-y,-z
x,y,-z
-x,y,1/2+z
x,-y,1/2+z
1/2+x,1/2+y,z
1/2-x,1/2-y,z
1/2+x,1/2-y,1/2-z
1/2-x,1/2+y,1/2-z
1/2-x,1/2-y,-z
1/2+x,1/2+y,-z
1/2-x,1/2+y,1/2+z
1/2+x,1/2-y,1/2+z
loop_
_atom_site_type_symbol
_atom_site_label
_atom_site_fract_x
_atom_site_fract_y
_atom_site_fract_z
Si Si1 0.715332 0.692610 0.909125
Si Si2 0.560240 0.108191 0.900627
Si Si3 0.555677 0.554558 0.101290
Si Si4 0.000000 0.782804 0.250000
O O1 0.750000 0.750000 0.914910
O O2 0.968489 0.663105 0.888565
O O3 0.531949 0.686615 0.832544
O O4 0.624976 0.675827 0.000000
O O5 0.824172 0.087842 0.869824
O O6 0.324134 0.075773 0.871115
O O7 0.572593 0.102672 0.000000
O O8 0.500000 0.500000 0.126498
O O9 0.562616 0.554763 0.000000
O O10 0.250000 0.750000 0.241932
#
# Coordination Sequence:
#
# PCOD9498596 Si02
#       4
#    16  16  16   8
#     4   9  19  36  57  82 116 156 198 246 295 350
#     4   9  17  28  45  71 102 141 185 224 274 336
#     4   9  16  27  44  69 103 140 181 229 274 324
#     4  10  22  38  56  80 111 152 201 246 298 360
#
# _framework density 23.502547
#
# number of rings (size 3 to 8) (size 9 to 14) (size 15 to 20)
#    0.000    2.857    0.000    0.857    0.000    8.571 
#    0.000    8.571    0.000    0.000    0.000    1.000 
#    0.000    4.571    0.000    1.714    0.000    4.571 
#
# Total GULP energy -156332.206374 kJ/mol
# GULP energy per Si atom -5583.293085 kJ/mol
# Density = 2.344905 g / cm^3
# Si number density = 23.502547 Si / 1000 Ang^3
#
#
#
# Elastic Constant Matrix: (Units=GPa)
#
#
# Indices 1 2 3 4 5 6 
#
# 1 137.7894 45.9832 25.7949 0.0000 0.0000 0.0000
# 2 45.9832 154.0801 1.3988 0.0000 0.0000 0.0000
# 3 25.7949 1.3988 99.6765 0.0000 0.0000 0.0000
# 4 0.0000 0.0000 0.0000 -1.9531 0.0000 0.0000
# 5 0.0000 0.0000 0.0000 0.0000 -66.1437 0.0000
# 6 0.0000 0.0000 0.0000 0.0000 0.0000 34.8571
#
#
#
# Elastic Compliance Matrix: (Units=1/GPa)
#
#
# Indices 1 2 3 4 5 6 
#
# 1 0.008503 -0.002518 -0.002165 0.000000 0.000000 0.000000
# 2 -0.002518 0.007237 0.000550 0.000000 0.000000 0.000000
# 3 -0.002165 0.000550 0.010585 0.000000 0.000000 0.000000
# 4 0.000000 0.000000 0.000000 -0.512001 0.000000 0.000000
# 5 0.000000 0.000000 0.000000 0.000000 -0.015119 0.000000
# 6 0.000000 0.000000 0.000000 0.000000 0.000000 0.028689
#
#
# Mechanical properties :
#
#
# Convention : Reuss Voigt Hill
#
# Bulk Modulus (GPa) = 55.37526 59.76665 57.57096
# Shear Modulus (GPa) = -10.92130 14.57665 1.82768
#
# Velocity S-wave (km/s) = -2.15800 2.49312 0.88280
# Velocity P-wave (km/s) = 4.17172 5.81142 5.05845
#
# Compressibility (1/GPa) = 0.01805860
#
# Stress axis : x y z
#
# Youngs Moduli (GPa) = 117.60450 138.18661 94.47288
#
# Poissons Ratio (x) = 0.34795 0.20455
# Poissons Ratio (y) = 0.29613 -0.05197
# Poissons Ratio (z) = 0.25463 -0.07601
#
# Static dielectric constant tensor:
#      x y z
#    x 1.904140 0.000000 0.000000 
#    y 0.000000 1.930960 0.000000 
#    z 0.000000 0.000000 1.913890 
# 
# From -- ./inp_files/34856.got.cif
#   From: 2010.05.17/outbox.cif.g08.bks.cpg/sg66_18_cif.got.tgz:34856.got - 2010.06.03 17:51:23.
