data_PCOD9498224
_publ_section_title
;
Structure prediction by ZEFSAII (Michael W. Deem and Ramdas Pophale) SiO2 
 PCOD9498224
Probable space group: C C C M
;
_chemical_formula_sum "Si O2"
_cell_formula_units_Z 48
_cell_length_a 5.018019
_cell_length_b 32.666169
_cell_length_c 14.552772
_cell_angle_alpha 90.000000
_cell_angle_beta 90.000000
_cell_angle_gamma 90.000000
_cell_volume 2385.482480
_symmetry_space_group_name_H-M "C C C M"
_symmetry_group_IT_number 66
_symmetry_cell_setting 'orthorhombic'
loop_
_space_group_symop_operation_xyz
x,y,z
-x,-y,z
x,-y,1/2-z
-x,y,1/2-z
-x,-y,-z
x,y,-z
-x,y,1/2+z
x,-y,1/2+z
1/2+x,1/2+y,z
1/2-x,1/2-y,z
1/2+x,1/2-y,1/2-z
1/2-x,1/2+y,1/2-z
1/2-x,1/2-y,-z
1/2+x,1/2+y,-z
1/2-x,1/2+y,1/2+z
1/2+x,1/2-y,1/2+z
loop_
_atom_site_type_symbol
_atom_site_label
_atom_site_fract_x
_atom_site_fract_y
_atom_site_fract_z
Si Si1 0.239385 0.469500 0.500000
Si Si2 0.505587 0.279779 0.500000
Si Si3 0.006033 0.404834 0.640794
Si Si4 0.494508 0.352036 0.359470
O O1 0.500000 0.500000 0.500000
O O2 0.163124 0.440832 0.587526
O O3 0.000000 0.500000 0.500000
O O4 0.250000 0.250000 0.500000
O O5 0.532153 0.310420 0.413699
O O6 0.750000 0.250000 0.500000
O O7 0.197275 0.366875 0.620046
O O8 0.000000 0.413852 0.750000
O O9 0.709958 0.388093 0.615801
O O10 0.500000 0.346560 0.250000
#
# Coordination Sequence:
#
# PCOD9498224 Si02
#       4
#     8   8  16  16
#     4  12  24  38  60  92 126 156 190 248 314 364
#     4  12  24  36  56  88 122 152 186 244 310 358
#     4  10  21  40  63  85 113 157 206 245 288 355
#     4  10  21  39  62  83 111 156 204 244 286 352
#
# _framework density 20.121713
#
# number of rings (size 3 to 8) (size 9 to 14) (size 15 to 20)
#    0.000    1.333    0.000    6.000    0.000    2.000 
#    0.000    1.667    0.000    0.000    0.000    0.000 
#    0.000    0.000    0.000    0.000    0.000    0.000 
#
# Total GULP energy -133647.863353 kJ/mol
# GULP energy per Si atom -5568.660973 kJ/mol
# Density = 2.007592 g / cm^3
# Si number density = 20.121713 Si / 1000 Ang^3
#
#
#
# Elastic Constant Matrix: (Units=GPa)
#
#
# Indices 1 2 3 4 5 6 
#
# 1 150.9047 46.1425 37.8057 0.0000 0.0000 0.0000
# 2 46.1425 126.3662 61.9566 0.0000 0.0000 0.0000
# 3 37.8057 61.9566 105.4126 0.0000 0.0000 0.0000
# 4 0.0000 0.0000 0.0000 48.3740 0.0000 0.0000
# 5 0.0000 0.0000 0.0000 0.0000 15.4273 0.0000
# 6 0.0000 0.0000 0.0000 0.0000 0.0000 60.6202
#
#
#
# Elastic Compliance Matrix: (Units=1/GPa)
#
#
# Indices 1 2 3 4 5 6 
#
# 1 0.007635 -0.002030 -0.001545 0.000000 0.000000 0.000000
# 2 -0.002030 0.011657 -0.006123 0.000000 0.000000 0.000000
# 3 -0.001545 -0.006123 0.013640 0.000000 0.000000 0.000000
# 4 0.000000 0.000000 0.000000 0.020672 0.000000 0.000000
# 5 0.000000 0.000000 0.000000 0.000000 0.064820 0.000000
# 6 0.000000 0.000000 0.000000 0.000000 0.000000 0.016496
#
#
# Mechanical properties :
#
#
# Convention : Reuss Voigt Hill
#
# Bulk Modulus (GPa) = 73.88612 74.94369 74.41490
# Shear Modulus (GPa) = 31.48060 40.66955 36.07507
#
# Velocity S-wave (km/s) = 3.95968 4.50063 4.23879
# Velocity P-wave (km/s) = 7.59636 8.02082 7.81148
#
# Compressibility (1/GPa) = 0.01353434
#
# Stress axis : x y z
#
# Youngs Moduli (GPa) = 130.98383 85.78437 73.31613
#
# Poissons Ratio (x) = 0.17417 0.11325
# Poissons Ratio (y) = 0.26595 0.44894
# Poissons Ratio (z) = 0.20233 0.52529
#
# Static dielectric constant tensor:
#      x y z
#    x 1.689550 0.000000 0.000000 
#    y 0.000000 1.615910 0.000000 
#    z 0.000000 0.000000 1.427140 
# 
# From -- ./inp_files/22328.got.cif
#   From: 2010.05.17/outbox.cif.g08.bks.cpg/sg66_12_cif.got.tgz:22328.got - 2010.06.03 17:51:23.
