data_PCOD9498152
_publ_section_title
;
Structure prediction by ZEFSAII (Michael W. Deem and Ramdas Pophale) SiO2 
 PCOD9498152
Probable space group: C C C M
;
_chemical_formula_sum "Si O2"
_cell_formula_units_Z 88
_cell_length_a 12.287694
_cell_length_b 21.354125
_cell_length_c 15.094436
_cell_angle_alpha 90.000000
_cell_angle_beta 90.000000
_cell_angle_gamma 90.000000
_cell_volume 3960.673646
_symmetry_space_group_name_H-M "C C C M"
_symmetry_group_IT_number 66
_symmetry_cell_setting 'orthorhombic'
loop_
_space_group_symop_operation_xyz
x,y,z
-x,-y,z
x,-y,1/2-z
-x,y,1/2-z
-x,-y,-z
x,y,-z
-x,y,1/2+z
x,-y,1/2+z
1/2+x,1/2+y,z
1/2-x,1/2-y,z
1/2+x,1/2-y,1/2-z
1/2-x,1/2+y,1/2-z
1/2-x,1/2-y,-z
1/2+x,1/2+y,-z
1/2-x,1/2+y,1/2+z
1/2+x,1/2-y,1/2+z
loop_
_atom_site_type_symbol
_atom_site_label
_atom_site_fract_x
_atom_site_fract_y
_atom_site_fract_z
Si Si1 0.536290 0.268687 0.896602
Si Si2 0.843298 0.981101 0.603435
Si Si3 0.904273 0.656558 0.821575
Si Si4 0.750000 0.250000 0.220760
Si Si5 0.462082 0.602063 0.608037
Si Si6 0.616347 0.982920 0.146352
O O1 0.467463 0.205609 0.883596
O O2 0.647279 0.268643 0.840721
O O3 0.460591 0.326231 0.863829
O O4 0.562529 0.277394 0.000000
O O5 0.870293 0.983754 0.500000
O O6 0.715549 0.976290 0.611256
O O7 0.880338 0.048487 0.641770
O O8 0.919742 0.925481 0.635836
O O9 0.802822 0.693529 0.778171
O O10 0.867499 0.591422 0.864258
O O11 0.000000 0.640169 0.750000
O O12 0.451188 0.604245 0.500000
O O13 0.500000 0.000000 0.107446
O O14 0.614669 0.000000 0.250000
#
# Coordination Sequence:
#
# PCOD9498152 Si02
#       6
#    16  16  16   8  16  16
#     4  10  21  38  63  90 119 157 206 258 305 366
#     4   9  19  36  60  86 117 153 194 247 300 357
#     4  10  22  41  57  84 120 161 197 249 307 361
#     4  10  23  38  61  86 122 160 200 248 313 370
#     4   8  17  36  58  88 120 146 185 247 311 352
#     4  11  23  39  59  79 118 161 204 245 295 360
#
# _framework density 22.218442
#
# number of rings (size 3 to 8) (size 9 to 14) (size 15 to 20)
#    0.000    2.364    1.818    1.364    5.091    1.091 
#    0.000    4.091    0.000    0.000    0.000    0.000 
#    0.000    0.000    0.000    0.000    0.000    0.000 
#
# Total GULP energy -245488.165631 kJ/mol
# GULP energy per Si atom -5579.276492 kJ/mol
# Density = 2.216787 g / cm^3
# Si number density = 22.218442 Si / 1000 Ang^3
#
#
#
# Elastic Constant Matrix: (Units=GPa)
#
#
# Indices 1 2 3 4 5 6 
#
# 1 93.6616 -0.9368 -3.0204 0.0000 0.0000 0.0000
# 2 -0.9368 84.7589 -5.0175 0.0000 0.0000 0.0000
# 3 -3.0204 -5.0175 33.6693 0.0000 0.0000 0.0000
# 4 0.0000 0.0000 0.0000 9.2354 0.0000 0.0000
# 5 0.0000 0.0000 0.0000 0.0000 16.8394 0.0000
# 6 0.0000 0.0000 0.0000 0.0000 0.0000 25.4643
#
#
#
# Elastic Compliance Matrix: (Units=1/GPa)
#
#
# Indices 1 2 3 4 5 6 
#
# 1 0.010710 0.000177 0.000987 0.000000 0.000000 0.000000
# 2 0.000177 0.011906 0.001790 0.000000 0.000000 0.000000
# 3 0.000987 0.001790 0.030056 0.000000 0.000000 0.000000
# 4 0.000000 0.000000 0.000000 0.108279 0.000000 0.000000
# 5 0.000000 0.000000 0.000000 0.000000 0.059385 0.000000
# 6 0.000000 0.000000 0.000000 0.000000 0.000000 0.039271
#
#
# Mechanical properties :
#
#
# Convention : Reuss Voigt Hill
#
# Bulk Modulus (GPa) = 17.07050 21.57115 19.32083
# Shear Modulus (GPa) = 18.29994 25.04546 21.67270
#
# Velocity S-wave (km/s) = 2.87302 3.36108 3.12659
# Velocity P-wave (km/s) = 4.32497 4.97918 4.66356
#
# Compressibility (1/GPa) = 0.05858058
#
# Stress axis : x y z
#
# Youngs Moduli (GPa) = 93.36770 83.99060 33.27129
#
# Poissons Ratio (x) = -0.01485 -0.03284
# Poissons Ratio (y) = -0.01651 -0.05956
# Poissons Ratio (z) = -0.09217 -0.15035
#
# Static dielectric constant tensor:
#      x y z
#    x 1.814860 0.000000 0.000000 
#    y 0.000000 1.827400 0.000000 
#    z 0.000000 0.000000 1.842450 
# 
# From -- ./inp_files/38673.got.cif
#   From: 2010.05.17/outbox.cif.g08.bks.cpg/sg66_20_cif.got.tgz:38673.got - 2010.06.03 17:51:23.
