data_PCOD9498438
_publ_section_title
;
Structure prediction by ZEFSAII (Michael W. Deem and Ramdas Pophale) SiO2 
 PCOD9498438
Probable space group: C C C M
;
_chemical_formula_sum "Si O2"
_cell_formula_units_Z 116
_cell_length_a 22.522523
_cell_length_b 30.950888
_cell_length_c 8.114884
_cell_angle_alpha 90.000000
_cell_angle_beta 90.000000
_cell_angle_gamma 90.000000
_cell_volume 5656.821422
_symmetry_space_group_name_H-M "C C C M"
_symmetry_group_IT_number 66
_symmetry_cell_setting 'orthorhombic'
loop_
_space_group_symop_operation_xyz
x,y,z
-x,-y,z
x,-y,1/2-z
-x,y,1/2-z
-x,-y,-z
x,y,-z
-x,y,1/2+z
x,-y,1/2+z
1/2+x,1/2+y,z
1/2-x,1/2-y,z
1/2+x,1/2-y,1/2-z
1/2-x,1/2+y,1/2-z
1/2-x,1/2-y,-z
1/2+x,1/2+y,-z
1/2-x,1/2+y,1/2+z
1/2+x,1/2-y,1/2+z
loop_
_atom_site_type_symbol
_atom_site_label
_atom_site_fract_x
_atom_site_fract_y
_atom_site_fract_z
Si Si1 0.102322 0.236478 0.809478
Si Si2 0.066595 0.668830 0.807146
Si Si3 0.189707 0.630148 0.301740
Si Si4 0.060232 0.151280 0.694644
Si Si5 0.738341 0.454108 0.697579
Si Si6 0.778415 0.202935 0.311814
Si Si7 0.500000 0.500000 0.250000
Si Si8 0.395335 0.562586 0.803229
O O1 0.079349 0.280669 0.734267
O O2 0.060493 0.195270 0.797966
O O3 0.159918 0.214382 0.725434
O O4 0.115864 0.247314 0.000000
O O5 0.121633 0.640769 0.740344
O O6 0.000000 0.657915 0.750000
O O7 0.067620 0.664028 0.000000
O O8 0.192126 0.631087 0.500000
O O9 0.219869 0.585523 0.246349
O O10 0.232130 0.669169 0.239118
O O11 0.061887 0.160400 0.500000
O O12 0.107177 0.113968 0.735208
O O13 0.000000 0.128476 0.750000
O O14 0.764784 0.500000 0.750000
O O15 0.733038 0.451788 0.500000
O O16 0.671670 0.452371 0.769993
O O17 0.792058 0.187715 0.500000
O O18 0.750000 0.250000 0.323909
O O19 0.552832 0.464023 0.292393
O O20 0.409757 0.557790 0.000000
#
# Coordination Sequence:
#
# PCOD9498438 Si02
#       8
#    16  16  16  16  16  16   4  16
#     4  11  21  37  60  85 119 163 207 252 299 363
#     4  12  25  41  63  92 125 164 204 254 311 375
#     4  10  21  41  65  93 125 164 209 257 311 376
#     4  11  23  38  53  78 113 153 202 255 308 362
#     4  11  24  41  66  94 126 162 205 256 314 374
#     4   9  16  31  58  86 114 151 197 242 289 348
#     4  12  22  40  64  90 118 168 220 272 326 372
#     4  11  24  40  61  87 120 160 212 269 319 373
#
# _framework density 20.506215999999998
#
# number of rings (size 3 to 8) (size 9 to 14) (size 15 to 20)
#    0.000    1.241    2.759    3.931    0.000    3.862 
#    0.000    2.069    0.000    0.414    0.000    2.897 
#    0.000    0.000    0.000    0.000    0.000    0.000 
#
# Total GULP energy -323085.722050 kJ/mol
# GULP energy per Si atom -5570.443484 kJ/mol
# Density = 2.045954 g / cm^3
# Si number density = 20.506216 Si / 1000 Ang^3
#
#
#
# Elastic Constant Matrix: (Units=GPa)
#
#
# Indices 1 2 3 4 5 6 
#
# 1 137.8676 58.9991 6.2192 0.0000 0.0000 0.0000
# 2 58.9991 132.4038 11.3411 0.0000 0.0000 0.0000
# 3 6.2192 11.3411 39.4105 0.0000 0.0000 0.0000
# 4 0.0000 0.0000 0.0000 -14.8888 0.0000 0.0000
# 5 0.0000 0.0000 0.0000 0.0000 12.5085 0.0000
# 6 0.0000 0.0000 0.0000 0.0000 0.0000 23.8968
#
#
#
# Elastic Compliance Matrix: (Units=1/GPa)
#
#
# Indices 1 2 3 4 5 6 
#
# 1 0.008965 -0.003972 -0.000272 0.000000 0.000000 0.000000
# 2 -0.003972 0.009503 -0.002108 0.000000 0.000000 0.000000
# 3 -0.000272 -0.002108 0.026023 0.000000 0.000000 0.000000
# 4 0.000000 0.000000 0.000000 -0.067165 0.000000 0.000000
# 5 0.000000 0.000000 0.000000 0.000000 0.079946 0.000000
# 6 0.000000 0.000000 0.000000 0.000000 0.000000 0.041847
#
#
# Mechanical properties :
#
#
# Convention : Reuss Voigt Hill
#
# Bulk Modulus (GPa) = 31.45755 51.42229 41.43992
# Shear Modulus (GPa) = 40.84359 19.84480 30.34420
#
# Velocity S-wave (km/s) = 4.46776 3.11424 3.85093
# Velocity P-wave (km/s) = 6.47984 6.16945 6.32655
#
# Compressibility (1/GPa) = 0.03178887
#
# Stress axis : x y z
#
# Youngs Moduli (GPa) = 111.54227 105.23051 38.42686
#
# Poissons Ratio (x) = 0.41793 0.01045
# Poissons Ratio (y) = 0.44300 0.08100
# Poissons Ratio (z) = 0.03032 0.22182
#
# Static dielectric constant tensor:
#      x y z
#    x 0.259040 0.000000 0.000000 
#    y 0.000000 1.787320 0.000000 
#    z 0.000000 0.000000 1.779700 
# 
# From -- ./inp_files/9649.got.cif
#   From: 2010.05.17/outbox.cif.g08.bks.cpg/sg66_5_cif.got.tgz:9649.got - 2010.06.03 17:51:23.
