data_PCOD9498864
_publ_section_title
;
Structure prediction by ZEFSAII (Michael W. Deem and Ramdas Pophale) SiO2 
 PCOD9498864
Probable space group: C C C M
;
_chemical_formula_sum "Si O2"
_cell_formula_units_Z 88
_cell_length_a 14.458114
_cell_length_b 11.060209
_cell_length_c 24.600064
_cell_angle_alpha 90.000000
_cell_angle_beta 90.000000
_cell_angle_gamma 90.000000
_cell_volume 3933.790394
_symmetry_space_group_name_H-M "C C C M"
_symmetry_group_IT_number 66
_symmetry_cell_setting 'orthorhombic'
loop_
_space_group_symop_operation_xyz
x,y,z
-x,-y,z
x,-y,1/2-z
-x,y,1/2-z
-x,-y,-z
x,y,-z
-x,y,1/2+z
x,-y,1/2+z
1/2+x,1/2+y,z
1/2-x,1/2-y,z
1/2+x,1/2-y,1/2-z
1/2-x,1/2+y,1/2-z
1/2-x,1/2-y,-z
1/2+x,1/2+y,-z
1/2-x,1/2+y,1/2+z
1/2+x,1/2-y,1/2+z
loop_
_atom_site_type_symbol
_atom_site_label
_atom_site_fract_x
_atom_site_fract_y
_atom_site_fract_z
Si Si1 0.159960 0.180125 0.193886
Si Si2 0.391686 0.493719 0.603167
Si Si3 0.250000 0.250000 0.703923
Si Si4 0.300868 0.979020 0.559193
Si Si5 0.945907 0.613989 0.147601
Si Si6 0.628595 0.791662 0.392686
O O1 0.250000 0.250000 0.169076
O O2 0.193772 0.162006 0.255512
O O3 0.083824 0.285381 0.190346
O O4 0.124561 0.066735 0.159649
O O5 0.500000 0.500000 0.587403
O O6 0.308274 0.546137 0.566521
O O7 0.368315 0.352112 0.604986
O O8 0.320886 0.180925 0.664924
O O9 0.331744 0.935748 0.500000
O O10 0.320890 0.123500 0.564082
O O11 0.361789 0.927646 0.608931
O O12 0.000000 0.500000 0.172051
O O13 0.021976 0.673037 0.108341
#
# Coordination Sequence:
#
# PCOD9498864 Si02
#       6
#    16  16   8  16  16  16
#     4  10  22  43  67  93 137 177 221 264 329 398
#     4  12  23  42  71  98 142 173 216 281 340 402
#     4  10  22  42  67  96 137 174 224 266 328 398
#     4  11  24  46  72  95 129 180 230 283 338 396
#     4  10  22  43  68  96 130 175 228 277 324 392
#     4  11  23  42  67  98 136 174 223 271 333 398
#
# _framework density 22.370282
#
# number of rings (size 3 to 8) (size 9 to 14) (size 15 to 20)
#    0.545    0.727    5.455    0.000    0.000    6.545 
#    6.545    5.455    0.000    0.000    0.000    0.000 
#    0.000    0.000    0.000    0.000    0.000    0.000 
#
# Total GULP energy -245136.498035 kJ/mol
# GULP energy per Si atom -5571.284046 kJ/mol
# Density = 2.231937 g / cm^3
# Si number density = 22.370282 Si / 1000 Ang^3
#
#
#
# Elastic Constant Matrix: (Units=GPa)
#
#
# Indices 1 2 3 4 5 6 
#
# 1 142.5210 13.2110 16.1473 0.0000 0.0000 0.0000
# 2 13.2110 45.1573 13.6908 0.0000 0.0000 0.0000
# 3 16.1473 13.6908 68.4436 0.0000 0.0000 0.0000
# 4 0.0000 0.0000 0.0000 11.9411 0.0000 0.0000
# 5 0.0000 0.0000 0.0000 0.0000 3.1080 0.0000
# 6 0.0000 0.0000 0.0000 0.0000 0.0000 26.5483
#
#
#
# Elastic Compliance Matrix: (Units=1/GPa)
#
#
# Indices 1 2 3 4 5 6 
#
# 1 0.007333 -0.001726 -0.001385 0.000000 0.000000 0.000000
# 2 -0.001726 0.023981 -0.004390 0.000000 0.000000 0.000000
# 3 -0.001385 -0.004390 0.015815 0.000000 0.000000 0.000000
# 4 0.000000 0.000000 0.000000 0.083744 0.000000 0.000000
# 5 0.000000 0.000000 0.000000 0.000000 0.321752 0.000000
# 6 0.000000 0.000000 0.000000 0.000000 0.000000 0.037667
#
#
# Mechanical properties :
#
#
# Convention : Reuss Voigt Hill
#
# Bulk Modulus (GPa) = 31.12467 38.02446 34.57456
# Shear Modulus (GPa) = 9.68986 22.52434 16.10710
#
# Velocity S-wave (km/s) = 2.08350 3.17659 2.68623
# Velocity P-wave (km/s) = 4.44202 5.52168 5.01101
#
# Compressibility (1/GPa) = 0.03212886
#
# Stress axis : x y z
#
# Youngs Moduli (GPa) = 136.36301 41.70049 63.22955
#
# Poissons Ratio (x) = 0.07196 0.08757
# Poissons Ratio (y) = 0.23530 0.27756
# Poissons Ratio (z) = 0.18885 0.18305
#
# Static dielectric constant tensor:
#      x y z
#    x 1.889040 0.000000 0.000000 
#    y 0.000000 1.900450 0.000000 
#    z 0.000000 0.000000 1.810410 
# 
# From -- ./inp_files/64544.got.cif
#   From: 2010.05.17/outbox.cif.g08.bks.cpg/sg66_33_cif.got.tgz:64544.got - 2010.06.03 17:51:23.
