data_PCOD9498381
_publ_section_title
;
Structure prediction by ZEFSAII (Michael W. Deem and Ramdas Pophale) SiO2 
 PCOD9498381
Probable space group: C C C M
;
_chemical_formula_sum "Si O2"
_cell_formula_units_Z 112
_cell_length_a 27.373556
_cell_length_b 13.836875
_cell_length_c 13.594688
_cell_angle_alpha 90.000000
_cell_angle_beta 90.000000
_cell_angle_gamma 90.000000
_cell_volume 5149.184832
_symmetry_space_group_name_H-M "C C C M"
_symmetry_group_IT_number 66
_symmetry_cell_setting 'orthorhombic'
loop_
_space_group_symop_operation_xyz
x,y,z
-x,-y,z
x,-y,1/2-z
-x,y,1/2-z
-x,-y,-z
x,y,-z
-x,y,1/2+z
x,-y,1/2+z
1/2+x,1/2+y,z
1/2-x,1/2-y,z
1/2+x,1/2-y,1/2-z
1/2-x,1/2+y,1/2-z
1/2-x,1/2-y,-z
1/2+x,1/2+y,-z
1/2-x,1/2+y,1/2+z
1/2+x,1/2-y,1/2+z
loop_
_atom_site_type_symbol
_atom_site_label
_atom_site_fract_x
_atom_site_fract_y
_atom_site_fract_z
Si Si1 0.878252 0.433344 0.881585
Si Si2 0.266422 0.058051 0.383965
Si Si3 0.919599 0.227406 0.116302
Si Si4 0.878421 0.889305 0.218794
Si Si5 0.228353 0.144152 0.188516
Si Si6 0.542692 0.075348 0.619271
Si Si7 0.030045 0.204614 0.118150
O O1 0.822441 0.422659 0.850869
O O2 0.912459 0.340927 0.862212
O O3 0.905788 0.530115 0.849981
O O4 0.875555 0.439382 0.000000
O O5 0.260062 0.082251 0.500000
O O6 0.234266 0.116795 0.304858
O O7 0.254869 0.944383 0.367512
O O8 0.880854 0.172467 0.181548
O O9 0.973238 0.186071 0.141845
O O10 0.912435 0.214913 0.000000
O O11 0.828959 0.861197 0.163122
O O12 0.927654 0.862569 0.160374
O O13 0.876981 0.000000 0.250000
O O14 0.250000 0.250000 0.169775
O O15 0.540724 0.079307 0.500000
O O16 0.537958 0.184908 0.652605
O O17 0.500000 0.000000 0.646321
O O18 0.033383 0.202208 0.000000
#
# Coordination Sequence:
#
# PCOD9498381 Si02
#       7
#    16  16  16  16  16  16  16
#     4   9  17  33  62  97 126 160 201 251 321 393
#     4  10  22  42  67  96 128 168 219 271 331 398
#     4  10  21  40  66  94 124 163 213 261 315 385
#     4  12  26  45  62  89 125 173 222 271 319 376
#     4  11  25  46  66  94 131 170 218 282 338 386
#     4   9  15  30  59  94 134 165 194 249 317 392
#     4  10  22  39  63  95 130 170 211 258 321 388
#
# _framework density 21.751016
#
# number of rings (size 3 to 8) (size 9 to 14) (size 15 to 20)
#    0.000    1.857    2.857    1.286    2.000    3.429 
#    0.000    1.429    0.000    0.000    0.000    0.000 
#    0.000    0.000    0.000    0.000    0.000    0.000 
#
# Total GULP energy -312940.403080 kJ/mol
# GULP energy per Si atom -5588.221484 kJ/mol
# Density = 2.170151 g / cm^3
# Si number density = 21.751016 Si / 1000 Ang^3
#
#
#
# Elastic Constant Matrix: (Units=GPa)
#
#
# Indices 1 2 3 4 5 6 
#
# 1 110.1249 7.6202 -0.9795 0.0000 0.0000 0.0000
# 2 7.6202 59.3642 -26.5871 0.0000 0.0000 0.0000
# 3 -0.9795 -26.5871 62.4667 0.0000 0.0000 0.0000
# 4 0.0000 0.0000 0.0000 20.9514 0.0000 0.0000
# 5 0.0000 0.0000 0.0000 0.0000 19.6250 0.0000
# 6 0.0000 0.0000 0.0000 0.0000 0.0000 -98.2153
#
#
#
# Elastic Compliance Matrix: (Units=1/GPa)
#
#
# Indices 1 2 3 4 5 6 
#
# 1 0.009172 -0.001375 -0.000441 0.000000 0.000000 0.000000
# 2 -0.001375 0.021019 0.008924 0.000000 0.000000 0.000000
# 3 -0.000441 0.008924 0.019800 0.000000 0.000000 0.000000
# 4 0.000000 0.000000 0.000000 0.047730 0.000000 0.000000
# 5 0.000000 0.000000 0.000000 0.000000 0.050955 0.000000
# 6 0.000000 0.000000 0.000000 0.000000 0.000000 -0.010182
#
#
# Mechanical properties :
#
#
# Convention : Reuss Voigt Hill
#
# Bulk Modulus (GPa) = 15.57482 21.34034 18.45758
# Shear Modulus (GPa) = 34.32184 5.26570 19.79377
#
# Velocity S-wave (km/s) = 3.97664 1.55761 3.01992
# Velocity P-wave (km/s) = 5.31610 3.61488 4.54578
#
# Compressibility (1/GPa) = 0.06420621
#
# Stress axis : x y z
#
# Youngs Moduli (GPa) = 109.02962 47.57698 50.50507
#
# Poissons Ratio (x) = 0.06542 0.02229
# Poissons Ratio (y) = 0.14992 -0.45073
# Poissons Ratio (z) = 0.04813 -0.42459
#
# Static dielectric constant tensor:
#      x y z
#    x 1.806950 0.000000 0.000000 
#    y 0.000000 1.869880 0.000000 
#    z 0.000000 0.000000 1.831050 
# 
# From -- ./inp_files/32429.got.cif
#   From: 2010.05.17/outbox.cif.g08.bks.cpg/sg66_17_cif.got.tgz:32429.got - 2010.06.03 17:51:23.
