data_PCOD9498485
_publ_section_title
;
Structure prediction by ZEFSAII (Michael W. Deem and Ramdas Pophale) SiO2 
 PCOD9498485
Probable space group: C C C M
;
_chemical_formula_sum "Si O2"
_cell_formula_units_Z 116
_cell_length_a 12.368276
_cell_length_b 28.387807
_cell_length_c 14.934221
_cell_angle_alpha 90.000000
_cell_angle_beta 90.000000
_cell_angle_gamma 90.000000
_cell_volume 5243.527932
_symmetry_space_group_name_H-M "C C C M"
_symmetry_group_IT_number 66
_symmetry_cell_setting 'orthorhombic'
loop_
_space_group_symop_operation_xyz
x,y,z
-x,-y,z
x,-y,1/2-z
-x,y,1/2-z
-x,-y,-z
x,y,-z
-x,y,1/2+z
x,-y,1/2+z
1/2+x,1/2+y,z
1/2-x,1/2-y,z
1/2+x,1/2-y,1/2-z
1/2-x,1/2+y,1/2-z
1/2-x,1/2-y,-z
1/2+x,1/2+y,-z
1/2-x,1/2+y,1/2+z
1/2+x,1/2-y,1/2+z
loop_
_atom_site_type_symbol
_atom_site_label
_atom_site_fract_x
_atom_site_fract_y
_atom_site_fract_z
Si Si1 0.514676 0.664623 0.101895
Si Si2 0.198808 0.201548 0.655158
Si Si3 0.806898 0.609366 0.405195
Si Si4 0.255839 0.804166 0.362148
Si Si5 0.460007 0.134330 0.843637
Si Si6 0.604546 0.566369 0.892680
Si Si7 0.690343 0.055234 0.722381
Si Si8 0.500000 0.500000 0.250000
O O1 0.431433 0.696182 0.158210
O O2 0.641956 0.675314 0.106499
O O3 0.519734 0.609141 0.123365
O O4 0.480310 0.671826 0.000000
O O5 0.250000 0.250000 0.620075
O O6 0.237619 0.156610 0.600427
O O7 0.247203 0.195339 0.754322
O O8 0.786813 0.584485 0.500000
O O9 0.779931 0.579675 0.316962
O O10 0.932057 0.625331 0.399223
O O11 0.250000 0.750000 0.391646
O O12 0.364305 0.833391 0.384396
O O13 0.500000 0.157704 0.750000
O O14 0.414210 0.083110 0.814364
O O15 0.726064 0.571506 0.855569
O O16 0.570527 0.528190 0.820253
O O17 0.603216 0.556638 0.000000
O O18 0.679031 0.000000 0.750000
#
# Coordination Sequence:
#
# PCOD9498485 Si02
#       8
#    16  16  16  16  16  16  16   4
#     4  11  25  42  64  99 142 180 227 289 352 419
#     4  11  24  43  68  99 140 188 238 288 349 429
#     4  11  25  43  68 102 140 187 237 293 361 432
#     4  11  23  39  70  98 129 181 238 290 351 420
#     4  10  21  42  65  94 138 177 230 294 358 423
#     4  11  25  44  70 105 142 184 233 293 361 417
#     4  11  23  45  71  99 135 183 232 295 357 428
#     4  12  26  44  72 102 142 184 230 292 356 436
#
# _framework density 22.122510999999999
#
# number of rings (size 3 to 8) (size 9 to 14) (size 15 to 20)
#    0.000    1.103    4.828    1.034    5.793    5.517 
#    0.000    0.690    0.000    0.000    0.000    0.000 
#    0.000    0.000    0.000    0.000    0.000    0.000 
#
# Total GULP energy -323379.062265 kJ/mol
# GULP energy per Si atom -5575.501074 kJ/mol
# Density = 2.207216 g / cm^3
# Si number density = 22.122511 Si / 1000 Ang^3
#
#
#
# Elastic Constant Matrix: (Units=GPa)
#
#
# Indices 1 2 3 4 5 6 
#
# 1 112.2425 34.4470 16.0867 0.0000 0.0000 0.0000
# 2 34.4470 103.3323 25.9531 0.0000 0.0000 0.0000
# 3 16.0867 25.9531 114.7732 0.0000 0.0000 0.0000
# 4 0.0000 0.0000 0.0000 2.8728 0.0000 0.0000
# 5 0.0000 0.0000 0.0000 0.0000 -433.2474 0.0000
# 6 0.0000 0.0000 0.0000 0.0000 0.0000 24.9391
#
#
#
# Elastic Compliance Matrix: (Units=1/GPa)
#
#
# Indices 1 2 3 4 5 6 
#
# 1 0.009975 -0.003153 -0.000685 0.000000 0.000000 0.000000
# 2 -0.003153 0.011257 -0.002104 0.000000 0.000000 0.000000
# 3 -0.000685 -0.002104 0.009285 0.000000 0.000000 0.000000
# 4 0.000000 0.000000 0.000000 0.348088 0.000000 0.000000
# 5 0.000000 0.000000 0.000000 0.000000 -0.002308 0.000000
# 6 0.000000 0.000000 0.000000 0.000000 0.000000 0.040098
#
#
# Mechanical properties :
#
#
# Convention : Reuss Voigt Hill
#
# Bulk Modulus (GPa) = 53.66838 53.70238 53.68538
# Shear Modulus (GPa) = 11.50777 -64.16301 -26.32762
#
# Velocity S-wave (km/s) = 2.28323 -5.39133 -3.45350
# Velocity P-wave (km/s) = 5.59134 3.79837 2.90134
#
# Compressibility (1/GPa) = 0.01863294
#
# Stress axis : x y z
#
# Youngs Moduli (GPa) = 100.24854 88.83345 107.70614
#
# Poissons Ratio (x) = 0.28012 0.07379
# Poissons Ratio (y) = 0.31611 0.22656
# Poissons Ratio (z) = 0.06868 0.18686
#
# Static dielectric constant tensor:
#      x y z
#    x 1.103790 0.000000 0.000000 
#    y 0.000000 1.483590 0.000000 
#    z 0.000000 0.000000 1.783180 
# 
# From -- ./inp_files/39153.got.cif
#   From: 2010.05.17/outbox.cif.g08.bks.cpg/sg66_20_cif.got.tgz:39153.got - 2010.06.03 17:51:23.
