data_PCOD9498196
_publ_section_title
;
Structure prediction by ZEFSAII (Michael W. Deem and Ramdas Pophale) SiO2 
 PCOD9498196
Probable space group: C C C M
;
_chemical_formula_sum "Si O2"
_cell_formula_units_Z 116
_cell_length_a 12.193479
_cell_length_b 25.449822
_cell_length_c 18.149484
_cell_angle_alpha 90.000000
_cell_angle_beta 90.000000
_cell_angle_gamma 90.000000
_cell_volume 5632.181816
_symmetry_space_group_name_H-M "C C C M"
_symmetry_group_IT_number 66
_symmetry_cell_setting 'orthorhombic'
loop_
_space_group_symop_operation_xyz
x,y,z
-x,-y,z
x,-y,1/2-z
-x,y,1/2-z
-x,-y,-z
x,y,-z
-x,y,1/2+z
x,-y,1/2+z
1/2+x,1/2+y,z
1/2-x,1/2-y,z
1/2+x,1/2-y,1/2-z
1/2-x,1/2+y,1/2-z
1/2-x,1/2-y,-z
1/2+x,1/2+y,-z
1/2-x,1/2+y,1/2+z
1/2+x,1/2-y,1/2+z
loop_
_atom_site_type_symbol
_atom_site_label
_atom_site_fract_x
_atom_site_fract_y
_atom_site_fract_z
Si Si1 0.066486 0.304584 0.827940
Si Si2 0.768202 0.122996 0.676096
Si Si3 0.189140 0.452286 0.301452
Si Si4 0.794482 0.805361 0.415183
Si Si5 0.000000 0.500000 0.000000
Si Si6 0.083435 0.380693 0.415405
Si Si7 0.278636 0.973889 0.578936
Si Si8 0.019557 0.186054 0.163454
O O1 0.187029 0.327643 0.815193
O O2 0.061079 0.244776 0.855117
O O3 0.000000 0.308947 0.750000
O O4 0.009775 0.340637 0.890304
O O5 0.755414 0.088619 0.750726
O O6 0.729201 0.083250 0.613177
O O7 0.886860 0.143268 0.653206
O O8 0.147223 0.500000 0.250000
O O9 0.098837 0.420868 0.348189
O O10 0.260494 0.482390 0.363231
O O11 0.824561 0.794301 0.500000
O O12 0.750000 0.750000 0.382593
O O13 0.696712 0.847509 0.415658
O O14 0.903499 0.823594 0.374842
O O15 0.094000 0.485274 0.937503
O O16 0.067134 0.403480 0.500000
O O17 0.221498 0.978216 0.500000
O O18 0.000000 0.187336 0.250000
#
# Coordination Sequence:
#
# PCOD9498196 Si02
#       8
#    16  16  16  16   4  16  16  16
#     4  11  23  37  59  92 134 175 212 269 334 409
#     4  11  23  39  59  96 132 174 220 269 343 414
#     4  10  21  39  59  88 129 168 222 274 335 396
#     4  10  21  41  66  94 126 165 226 281 331 397
#     4   8  20  36  58  92 126 174 214 272 350 392
#     4  11  22  38  66  96 124 164 221 280 330 398
#     4   9  21  38  61  89 128 171 219 277 337 411
#     4  11  24  39  64  90 133 180 219 272 330 410
#
# _framework density 20.595925999999999
#
# number of rings (size 3 to 8) (size 9 to 14) (size 15 to 20)
#    0.414    1.241    2.759    1.655    1.931    1.103 
#    0.000    0.000    0.000   21.931    0.000   11.586 
#    0.000    0.000    0.000    0.000    0.000    0.000 
#
# Total GULP energy -323338.243497 kJ/mol
# GULP energy per Si atom -5574.797302 kJ/mol
# Density = 2.054905 g / cm^3
# Si number density = 20.595926 Si / 1000 Ang^3
#
#
#
# Elastic Constant Matrix: (Units=GPa)
#
#
# Indices 1 2 3 4 5 6 
#
# 1 93.1726 23.1390 23.2019 0.0000 0.0000 0.0000
# 2 23.1390 71.4312 26.9890 0.0000 0.0000 0.0000
# 3 23.2019 26.9890 105.7070 0.0000 0.0000 0.0000
# 4 0.0000 0.0000 0.0000 20.0071 0.0000 0.0000
# 5 0.0000 0.0000 0.0000 0.0000 11.3760 0.0000
# 6 0.0000 0.0000 0.0000 0.0000 0.0000 18.1656
#
#
#
# Elastic Compliance Matrix: (Units=1/GPa)
#
#
# Indices 1 2 3 4 5 6 
#
# 1 0.011978 -0.003195 -0.001813 0.000000 0.000000 0.000000
# 2 -0.003195 0.016346 -0.003472 0.000000 0.000000 0.000000
# 3 -0.001813 -0.003472 0.010745 0.000000 0.000000 0.000000
# 4 0.000000 0.000000 0.000000 0.049982 0.000000 0.000000
# 5 0.000000 0.000000 0.000000 0.000000 0.087905 0.000000
# 6 0.000000 0.000000 0.000000 0.000000 0.000000 0.055049
#
#
# Mechanical properties :
#
#
# Convention : Reuss Voigt Hill
#
# Bulk Modulus (GPa) = 45.23283 46.33004 45.78144
# Shear Modulus (GPa) = 19.50572 23.04179 21.27375
#
# Velocity S-wave (km/s) = 3.08078 3.34841 3.21738
# Velocity P-wave (km/s) = 5.88767 6.12313 6.00655
#
# Compressibility (1/GPa) = 0.02210783
#
# Stress axis : x y z
#
# Youngs Moduli (GPa) = 83.48811 61.17571 93.06947
#
# Poissons Ratio (x) = 0.19545 0.16876
# Poissons Ratio (y) = 0.26673 0.32316
# Poissons Ratio (z) = 0.15139 0.21242
#
# Static dielectric constant tensor:
#      x y z
#    x 1.698590 0.000000 0.000000 
#    y 0.000000 1.718160 0.000000 
#    z 0.000000 0.000000 1.770350 
# 
# From -- ./inp_files/39148.got.cif
#   From: 2010.05.17/outbox.cif.g08.bks.cpg/sg66_20_cif.got.tgz:39148.got - 2010.06.03 17:51:23.
