data_PCOD9498539
_publ_section_title
;
Structure prediction by ZEFSAII (Michael W. Deem and Ramdas Pophale) SiO2 
 PCOD9498539
Probable space group: C C C M
;
_chemical_formula_sum "Si O2"
_cell_formula_units_Z 56
_cell_length_a 28.567253
_cell_length_b 10.088650
_cell_length_c 9.955840
_cell_angle_alpha 90.000000
_cell_angle_beta 90.000000
_cell_angle_gamma 90.000000
_cell_volume 2869.323036
_symmetry_space_group_name_H-M "C C C M"
_symmetry_group_IT_number 66
_symmetry_cell_setting 'orthorhombic'
loop_
_space_group_symop_operation_xyz
x,y,z
-x,-y,z
x,-y,1/2-z
-x,y,1/2-z
-x,-y,-z
x,y,-z
-x,y,1/2+z
x,-y,1/2+z
1/2+x,1/2+y,z
1/2-x,1/2-y,z
1/2+x,1/2-y,1/2-z
1/2-x,1/2+y,1/2-z
1/2-x,1/2-y,-z
1/2+x,1/2+y,-z
1/2-x,1/2+y,1/2+z
1/2+x,1/2-y,1/2+z
loop_
_atom_site_type_symbol
_atom_site_label
_atom_site_fract_x
_atom_site_fract_y
_atom_site_fract_z
Si Si1 0.000000 0.000000 0.750000
Si Si2 0.000000 0.500000 0.750000
Si Si3 0.953756 0.148877 0.000000
Si Si4 0.461065 0.150439 0.000000
Si Si5 0.294251 0.845348 0.252450
Si Si6 0.860707 0.673393 0.500000
Si Si7 0.862251 0.638625 0.000000
O O1 0.965469 0.927296 0.640882
O O2 0.033127 0.424616 0.856955
O O3 0.994279 0.257635 0.000000
O O4 0.904091 0.225117 0.000000
O O5 0.410647 0.217465 0.000000
O O6 0.250000 0.750000 0.262625
O O7 0.326219 0.812007 0.125338
O O8 0.329841 0.833225 0.374828
O O9 0.279107 0.000000 0.250000
O O10 0.876841 0.518150 0.500000
#
# Coordination Sequence:
#
# PCOD9498539 Si02
#       7
#     4   4   8   8  16   8   8
#     4  10  26  46  60  84 130 178 218 270 298 382
#     4  10  22  34  56 100 134 150 198 242 320 396
#     4  11  24  44  64  87 130 168 221 260 320 377
#     4  11  23  35  63  93 131 162 197 255 322 386
#     4  10  22  42  64  93 129 166 215 272 325 384
#     4  10  22  40  67  91 125 166 205 266 327 382
#     4  10  23  36  64  99 128 158 205 263 329 385
#
# _framework density 19.516798000000001
#
# number of rings (size 3 to 8) (size 9 to 14) (size 15 to 20)
#    0.000    1.714    0.000    3.429   14.000    0.000 
#    2.571    0.000    0.000    0.000    0.000    0.000 
#    0.000    0.000    0.000    0.000    0.000    0.000 
#
# Total GULP energy -156055.805701 kJ/mol
# GULP energy per Si atom -5573.421632 kJ/mol
# Density = 1.947238 g / cm^3
# Si number density = 19.516798 Si / 1000 Ang^3
#
#
#
# Elastic Constant Matrix: (Units=GPa)
#
#
# Indices 1 2 3 4 5 6 
#
# 1 170.5754 83.1945 73.1121 0.0000 0.0000 0.0000
# 2 83.1945 73.9045 67.1099 0.0000 0.0000 0.0000
# 3 73.1121 67.1099 210.4085 0.0000 0.0000 0.0000
# 4 0.0000 0.0000 0.0000-1696.5659 0.0000 0.0000
# 5 0.0000 0.0000 0.0000 0.0000 5.3251 0.0000
# 6 0.0000 0.0000 0.0000 0.0000 0.0000 48.5340
#
#
#
# Elastic Compliance Matrix: (Units=1/GPa)
#
#
# Indices 1 2 3 4 5 6 
#
# 1 0.013007 -0.014834 0.000212 0.000000 0.000000 0.000000
# 2 -0.014834 0.035966 -0.006317 0.000000 0.000000 0.000000
# 3 0.000212 -0.006317 0.006694 0.000000 0.000000 0.000000
# 4 0.000000 0.000000 0.000000 -0.000589 0.000000 0.000000
# 5 0.000000 0.000000 0.000000 0.000000 0.187789 0.000000
# 6 0.000000 0.000000 0.000000 0.000000 0.000000 0.020604
#
#
# Mechanical properties :
#
#
# Convention : Reuss Voigt Hill
#
# Bulk Modulus (GPa) = 72.52584 100.19128 86.35856
# Shear Modulus (GPa) = 16.13193 -313.10989 -148.48898
#
# Velocity S-wave (km/s) = 2.87813 -12.67988 -8.73200
# Velocity P-wave (km/s) = 6.94883 12.76421 7.57096
#
# Compressibility (1/GPa) = 0.01378819
#
# Stress axis : x y z
#
# Youngs Moduli (GPa) = 76.88336 27.80422 149.39152
#
# Poissons Ratio (x) = 0.41245 -0.03164
# Poissons Ratio (y) = 1.14049 0.94368
# Poissons Ratio (z) = -0.01628 0.17563
#
# Static dielectric constant tensor:
#      x y z
#    x 1.633640 0.000000 0.000000 
#    y 0.000000 1.480050 0.000000 
#    z 0.000000 0.000000 1.708410 
# 
# From -- ./inp_files/11176.got.cif
#   From: 2010.05.17/outbox.cif.g08.bks.cpg/sg66_6_cif.got.tgz:11176.got - 2010.06.03 17:51:23.
