data_PCOD9498446
_publ_section_title
;
Structure prediction by ZEFSAII (Michael W. Deem and Ramdas Pophale) SiO2 
 PCOD9498446
Probable space group: C C C M
;
_chemical_formula_sum "Si O2"
_cell_formula_units_Z 60
_cell_length_a 12.328205
_cell_length_b 14.988054
_cell_length_c 15.614893
_cell_angle_alpha 90.000000
_cell_angle_beta 90.000000
_cell_angle_gamma 90.000000
_cell_volume 2885.254381
_symmetry_space_group_name_H-M "C C C M"
_symmetry_group_IT_number 66
_symmetry_cell_setting 'orthorhombic'
loop_
_space_group_symop_operation_xyz
x,y,z
-x,-y,z
x,-y,1/2-z
-x,y,1/2-z
-x,-y,-z
x,y,-z
-x,y,1/2+z
x,-y,1/2+z
1/2+x,1/2+y,z
1/2-x,1/2-y,z
1/2+x,1/2-y,1/2-z
1/2-x,1/2+y,1/2-z
1/2-x,1/2-y,-z
1/2+x,1/2+y,-z
1/2-x,1/2+y,1/2+z
1/2+x,1/2-y,1/2+z
loop_
_atom_site_type_symbol
_atom_site_label
_atom_site_fract_x
_atom_site_fract_y
_atom_site_fract_z
Si Si1 0.628367 0.902080 0.234331
Si Si2 0.051308 0.863714 0.101538
Si Si3 0.625531 0.222207 0.407006
Si Si4 0.500000 0.500000 0.250000
Si Si5 0.250000 0.750000 0.156333
O O1 0.500000 0.901673 0.250000
O O2 0.631642 0.872516 0.137005
O O3 0.688050 0.823884 0.286133
O O4 0.673560 0.000000 0.250000
O O5 0.158393 0.802817 0.104584
O O6 0.949118 0.801071 0.130548
O O7 0.060571 0.936773 0.178698
O O8 0.035263 0.892929 0.000000
O O9 0.576619 0.210890 0.500000
O O10 0.750000 0.250000 0.410570
#
# Coordination Sequence:
#
# PCOD9498446 Si02
#       5
#    16  16  16   4   8
#     4  11  23  40  64  98 132 175 224 275 334 407
#     4  11  25  44  68 102 138 179 231 286 345 409
#     4  10  21  41  66  92 129 177 225 273 331 404
#     4  12  26  44  68 102 136 188 226 284 344 416
#     4  12  23  42  71  96 140 180 221 280 348 402
#
# _framework density 20.795393000000001
#
# number of rings (size 3 to 8) (size 9 to 14) (size 15 to 20)
#    0.000    1.067    4.000    2.400    1.867    0.000 
#    0.000    8.000    0.000    0.000    0.000    0.000 
#    0.000    0.000    0.000    0.000    0.000    0.000 
#
# Total GULP energy -167018.498107 kJ/mol
# GULP energy per Si atom -5567.283270 kJ/mol
# Density = 2.074806 g / cm^3
# Si number density = 20.795393 Si / 1000 Ang^3
#
#
#
# Elastic Constant Matrix: (Units=GPa)
#
#
# Indices 1 2 3 4 5 6 
#
# 1 98.8765 37.1510 11.0495 0.0000 0.0000 0.0000
# 2 37.1510 142.5552 62.9723 0.0000 0.0000 0.0000
# 3 11.0495 62.9723 90.7595 0.0000 0.0000 0.0000
# 4 0.0000 0.0000 0.0000 30.8555 0.0000 0.0000
# 5 0.0000 0.0000 0.0000 0.0000 -3.3907 0.0000
# 6 0.0000 0.0000 0.0000 0.0000 0.0000 29.7622
#
#
#
# Elastic Compliance Matrix: (Units=1/GPa)
#
#
# Indices 1 2 3 4 5 6 
#
# 1 0.011269 -0.003361 0.000960 0.000000 0.000000 0.000000
# 2 -0.003361 0.011117 -0.007304 0.000000 0.000000 0.000000
# 3 0.000960 -0.007304 0.015969 0.000000 0.000000 0.000000
# 4 0.000000 0.000000 0.000000 0.032409 0.000000 0.000000
# 5 0.000000 0.000000 0.000000 0.000000 -0.294921 0.000000
# 6 0.000000 0.000000 0.000000 0.000000 0.000000 0.033600
#
#
# Mechanical properties :
#
#
# Convention : Reuss Voigt Hill
#
# Bulk Modulus (GPa) = 52.78416 61.61520 57.19968
# Shear Modulus (GPa) = -30.33423 26.17994 -2.07715
#
# Velocity S-wave (km/s) = -3.82344 3.55199 -1.00051
# Velocity P-wave (km/s) = 2.43848 6.82025 5.12162
#
# Compressibility (1/GPa) = 0.01894508
#
# Stress axis : x y z
#
# Youngs Moduli (GPa) = 88.73790 89.94926 62.61978
#
# Poissons Ratio (x) = 0.30231 -0.06011
# Poissons Ratio (y) = 0.29824 0.45741
# Poissons Ratio (z) = -0.08518 0.65703
#
# Static dielectric constant tensor:
#      x y z
#    x 1.722530 0.000000 0.000000 
#    y 0.000000 1.767680 0.000000 
#    z 0.000000 0.000000 1.875900 
# 
# From -- ./inp_files/37899.got.cif
#   From: 2010.05.17/outbox.cif.g08.bks.cpg/sg66_19_cif.got.tgz:37899.got - 2010.06.03 17:51:23.
