data_PCOD9498688
_publ_section_title
;
Structure prediction by ZEFSAII (Michael W. Deem and Ramdas Pophale) SiO2 
 PCOD9498688
Probable space group: C C C M
;
_chemical_formula_sum "Si O2"
_cell_formula_units_Z 80
_cell_length_a 12.895161
_cell_length_b 11.248433
_cell_length_c 27.413359
_cell_angle_alpha 90.000000
_cell_angle_beta 90.000000
_cell_angle_gamma 90.000000
_cell_volume 3976.317442
_symmetry_space_group_name_H-M "C C C M"
_symmetry_group_IT_number 66
_symmetry_cell_setting 'orthorhombic'
loop_
_space_group_symop_operation_xyz
x,y,z
-x,-y,z
x,-y,1/2-z
-x,y,1/2-z
-x,-y,-z
x,y,-z
-x,y,1/2+z
x,-y,1/2+z
1/2+x,1/2+y,z
1/2-x,1/2-y,z
1/2+x,1/2-y,1/2-z
1/2-x,1/2+y,1/2-z
1/2-x,1/2-y,-z
1/2+x,1/2+y,-z
1/2-x,1/2+y,1/2+z
1/2+x,1/2-y,1/2+z
loop_
_atom_site_type_symbol
_atom_site_label
_atom_site_fract_x
_atom_site_fract_y
_atom_site_fract_z
Si Si1 0.188820 0.574958 0.794665
Si Si2 0.582422 0.322728 0.205818
Si Si3 0.258114 0.875814 0.629767
Si Si4 0.520452 0.624444 0.102295
Si Si5 0.552344 0.872341 0.058168
O O1 0.146311 0.500000 0.750000
O O2 0.306496 0.617523 0.782570
O O3 0.114018 0.685753 0.803299
O O4 0.201839 0.484957 0.839033
O O5 0.500000 0.335974 0.250000
O O6 0.536398 0.371523 0.155031
O O7 0.250000 0.750000 0.658820
O O8 0.142097 0.888735 0.612158
O O9 0.337140 0.864969 0.585040
O O10 0.500000 0.500000 0.075218
O O11 0.496936 0.750162 0.076142
O O12 0.500000 0.000000 0.071022
O O13 0.562027 0.868805 0.000000
#
# Coordination Sequence:
#
# PCOD9498688 Si02
#       5
#    16  16  16  16  16
#     4  11  24  39  60  88 123 168 217 261 313 384
#     4  11  25  40  60  87 126 170 213 263 320 378
#     4  10  22  39  65  89 125 162 211 259 314 385
#     4  11  22  40  66  94 126 165 210 269 321 378
#     4  10  23  44  69  94 128 169 210 265 326 389
#
# _framework density 20.119119000000001
#
# number of rings (size 3 to 8) (size 9 to 14) (size 15 to 20)
#    0.000    1.400    2.000    2.400    8.400    4.400 
#    0.000    0.000    0.000    2.400    0.000    0.000 
#    0.000    0.000    0.000    0.000    0.000    0.000 
#
# Total GULP energy -223174.503965 kJ/mol
# GULP energy per Si atom -5579.362599 kJ/mol
# Density = 2.007333 g / cm^3
# Si number density = 20.119119 Si / 1000 Ang^3
#
#
#
# Elastic Constant Matrix: (Units=GPa)
#
#
# Indices 1 2 3 4 5 6 
#
# 1 55.3758 19.5940 10.1230 0.0000 0.0000 0.0000
# 2 19.5940 169.4780 42.1887 0.0000 0.0000 0.0000
# 3 10.1230 42.1887 60.8560 0.0000 0.0000 0.0000
# 4 0.0000 0.0000 0.0000 52.4343 0.0000 0.0000
# 5 0.0000 0.0000 0.0000 0.0000 24.5084 0.0000
# 6 0.0000 0.0000 0.0000 0.0000 0.0000 26.5495
#
#
#
# Elastic Compliance Matrix: (Units=1/GPa)
#
#
# Indices 1 2 3 4 5 6 
#
# 1 0.019024 -0.001706 -0.001982 0.000000 0.000000 0.000000
# 2 -0.001706 0.007284 -0.004766 0.000000 0.000000 0.000000
# 3 -0.001982 -0.004766 0.020066 0.000000 0.000000 0.000000
# 4 0.000000 0.000000 0.000000 0.019071 0.000000 0.000000
# 5 0.000000 0.000000 0.000000 0.000000 0.040802 0.000000
# 6 0.000000 0.000000 0.000000 0.000000 0.000000 0.037666
#
#
# Mechanical properties :
#
#
# Convention : Reuss Voigt Hill
#
# Bulk Modulus (GPa) = 33.93665 47.72458 40.83061
# Shear Modulus (GPa) = 29.30079 34.95204 32.12642
#
# Velocity S-wave (km/s) = 3.82038 4.17256 4.00035
# Velocity P-wave (km/s) = 6.03033 6.85465 6.45566
#
# Compressibility (1/GPa) = 0.02946667
#
# Stress axis : x y z
#
# Youngs Moduli (GPa) = 52.56405 137.28481 49.83575
#
# Poissons Ratio (x) = 0.23423 0.09876
# Poissons Ratio (y) = 0.08968 0.23751
# Poissons Ratio (z) = 0.10417 0.65429
#
# Static dielectric constant tensor:
#      x y z
#    x 1.737190 0.000000 0.000000 
#    y 0.000000 1.833440 0.000000 
#    z 0.000000 0.000000 1.680750 
# 
# From -- ./inp_files/57887.got.cif
#   From: 2010.05.17/outbox.cif.g08.bks.cpg/sg66_29_cif.got.tgz:57887.got - 2010.06.03 17:51:23.
