data_PCOD9498334
_publ_section_title
;
Structure prediction by ZEFSAII (Michael W. Deem and Ramdas Pophale) SiO2 
 PCOD9498334
Probable space group: C C C M
;
_chemical_formula_sum "Si O2"
_cell_formula_units_Z 88
_cell_length_a 24.342372
_cell_length_b 5.990599
_cell_length_c 27.911038
_cell_angle_alpha 90.000000
_cell_angle_beta 90.000000
_cell_angle_gamma 90.000000
_cell_volume 4070.137984
_symmetry_space_group_name_H-M "C C C M"
_symmetry_group_IT_number 66
_symmetry_cell_setting 'orthorhombic'
loop_
_space_group_symop_operation_xyz
x,y,z
-x,-y,z
x,-y,1/2-z
-x,y,1/2-z
-x,-y,-z
x,y,-z
-x,y,1/2+z
x,-y,1/2+z
1/2+x,1/2+y,z
1/2-x,1/2-y,z
1/2+x,1/2-y,1/2-z
1/2-x,1/2+y,1/2-z
1/2-x,1/2-y,-z
1/2+x,1/2+y,-z
1/2-x,1/2+y,1/2+z
1/2+x,1/2-y,1/2+z
loop_
_atom_site_type_symbol
_atom_site_label
_atom_site_fract_x
_atom_site_fract_y
_atom_site_fract_z
Si Si1 0.641394 0.748614 0.613767
Si Si2 0.911335 0.865976 0.054166
Si Si3 0.797638 0.417278 0.555095
Si Si4 0.750000 0.250000 0.724880
Si Si5 0.639597 0.404830 0.303001
Si Si6 0.445159 0.121099 0.142871
O O1 0.609165 0.602471 0.574168
O O2 0.655453 0.590988 0.658098
O O3 0.691790 0.872249 0.588583
O O4 0.599541 0.931442 0.633258
O O5 0.855511 0.716597 0.054703
O O6 0.952118 0.754641 0.092656
O O7 0.932045 0.875571 0.000000
O O8 0.785181 0.481681 0.500000
O O9 0.750000 0.250000 0.571587
O O10 0.747152 0.500000 0.750000
O O11 0.691932 0.240700 0.697747
O O12 0.631431 0.500000 0.250000
O O13 0.583891 0.290103 0.320835
O O14 0.500000 0.000000 0.159079
#
# Coordination Sequence:
#
# PCOD9498334 Si02
#       6
#    16  16  16   8  16  16
#     4  10  21  40  60  91 127 170 223 279 335 412
#     4   9  19  37  58  89 127 172 220 265 332 409
#     4   9  18  35  58  90 132 175 219 273 340 415
#     4  10  24  46  76 102 137 178 229 294 348 426
#     4  10  24  45  68  95 129 173 226 278 349 419
#     4  10  23  43  65  93 132 168 221 288 336 406
#
# _framework density 21.620888000000001
#
# number of rings (size 3 to 8) (size 9 to 14) (size 15 to 20)
#    0.000    2.364    0.000    0.545    5.091    4.727 
#   18.000    6.364    0.000    0.000    0.000    0.000 
#    0.000    0.000    0.000    0.000    0.000    0.000 
#
# Total GULP energy -245746.669302 kJ/mol
# GULP energy per Si atom -5585.151575 kJ/mol
# Density = 2.157168 g / cm^3
# Si number density = 21.620888 Si / 1000 Ang^3
#
#
#
# Elastic Constant Matrix: (Units=GPa)
#
#
# Indices 1 2 3 4 5 6 
#
# 1 80.1190 37.7943 51.2213 0.0000 0.0000 0.0000
# 2 37.7943 109.6272 58.1585 0.0000 0.0000 0.0000
# 3 51.2213 58.1585 123.9997 0.0000 0.0000 0.0000
# 4 0.0000 0.0000 0.0000 13.5753 0.0000 0.0000
# 5 0.0000 0.0000 0.0000 0.0000 11.0521 0.0000
# 6 0.0000 0.0000 0.0000 0.0000 0.0000 3.7447
#
#
#
# Elastic Compliance Matrix: (Units=1/GPa)
#
#
# Indices 1 2 3 4 5 6 
#
# 1 0.017650 -0.002951 -0.005906 0.000000 0.000000 0.000000
# 2 -0.002951 0.012637 -0.004708 0.000000 0.000000 0.000000
# 3 -0.005906 -0.004708 0.012712 0.000000 0.000000 0.000000
# 4 0.000000 0.000000 0.000000 0.073663 0.000000 0.000000
# 5 0.000000 0.000000 0.000000 0.000000 0.090480 0.000000
# 6 0.000000 0.000000 0.000000 0.000000 0.000000 0.267043
#
#
# Mechanical properties :
#
#
# Convention : Reuss Voigt Hill
#
# Bulk Modulus (GPa) = 63.02078 67.56601 65.29340
# Shear Modulus (GPa) = 9.86960 16.77921 13.32440
#
# Velocity S-wave (km/s) = 2.13887 2.78882 2.48518
# Velocity P-wave (km/s) = 5.94231 6.45664 6.20481
#
# Compressibility (1/GPa) = 0.01586778
#
# Stress axis : x y z
#
# Youngs Moduli (GPa) = 56.65800 79.13345 78.66326
#
# Poissons Ratio (x) = 0.23355 0.46462
# Poissons Ratio (y) = 0.16722 0.37033
# Poissons Ratio (z) = 0.33465 0.37255
#
# Static dielectric constant tensor:
#      x y z
#    x 1.783510 0.000000 0.000000 
#    y 0.000000 1.815530 0.000000 
#    z 0.000000 0.000000 1.800240 
# 
# From -- ./inp_files/70370.got.cif
#   From: 2010.05.17/outbox.cif.g08.bks.cpg/sg66_36_cif.got.tgz:70370.got - 2010.06.03 17:51:23.
