data_PCOD9498819
_publ_section_title
;
Structure prediction by ZEFSAII (Michael W. Deem and Ramdas Pophale) SiO2 
 PCOD9498819
Probable space group: C C C M
;
_chemical_formula_sum "Si O2"
_cell_formula_units_Z 108
_cell_length_a 5.358116
_cell_length_b 26.739721
_cell_length_c 35.361716
_cell_angle_alpha 90.000000
_cell_angle_beta 90.000000
_cell_angle_gamma 90.000000
_cell_volume 5066.433131
_symmetry_space_group_name_H-M "C C C M"
_symmetry_group_IT_number 66
_symmetry_cell_setting 'orthorhombic'
loop_
_space_group_symop_operation_xyz
x,y,z
-x,-y,z
x,-y,1/2-z
-x,y,1/2-z
-x,-y,-z
x,y,-z
-x,y,1/2+z
x,-y,1/2+z
1/2+x,1/2+y,z
1/2-x,1/2-y,z
1/2+x,1/2-y,1/2-z
1/2-x,1/2+y,1/2-z
1/2-x,1/2-y,-z
1/2+x,1/2+y,-z
1/2-x,1/2+y,1/2+z
1/2+x,1/2-y,1/2+z
loop_
_atom_site_type_symbol
_atom_site_label
_atom_site_fract_x
_atom_site_fract_y
_atom_site_fract_z
Si Si1 0.500000 0.500000 0.396984
Si Si2 0.069572 0.370376 0.072539
Si Si3 0.000000 0.000000 0.750000
Si Si4 0.588027 0.416418 0.043051
Si Si5 0.820754 0.585281 0.285820
Si Si6 0.147793 0.693045 0.789705
Si Si7 0.003552 0.717514 0.371256
Si Si8 0.108831 0.445417 0.140248
O O1 0.625861 0.537192 0.428081
O O2 0.396305 0.541870 0.367587
O O3 0.337613 0.385666 0.054977
O O4 0.042975 0.316648 0.091968
O O5 0.037931 0.406426 0.108589
O O6 0.835224 0.382508 0.046095
O O7 0.149061 0.962070 0.777027
O O8 0.556479 0.433833 0.000000
O O9 0.695715 0.640570 0.289791
O O10 0.000000 0.588635 0.250000
O O11 0.001163 0.572388 0.320530
O O12 0.250000 0.750000 0.790297
O O13 0.000000 0.691938 0.750000
O O14 0.011777 0.689519 0.830466
O O15 0.250000 0.750000 0.367918
O O16 0.750000 0.750000 0.374901
O O17 0.000000 0.500000 0.131317
#
# Coordination Sequence:
#
# PCOD9498819 Si02
#       8
#     8  16   4  16  16  16  16  16
#     4  10  23  39  66 100 134 182 228 288 352 420
#     4  11  23  43  66 104 138 182 228 278 354 423
#     4  12  26  46  64  92 136 196 244 290 366 430
#     4  11  23  42  69 101 143 183 228 284 349 430
#     4  11  25  45  63  94 136 188 241 296 355 422
#     4  10  22  41  67 100 135 177 241 303 367 419
#     4  11  23  44  71 101 138 180 231 295 355 416
#     4  11  21  40  61  94 137 176 227 278 339 418
#
# _framework density 21.316772
#
# number of rings (size 3 to 8) (size 9 to 14) (size 15 to 20)
#    0.000    1.185    2.963    3.111    1.037    2.370 
#    2.667    2.222    0.000    8.889    0.000    0.000 
#    0.000    0.000    0.000    0.000    0.000    0.000 
#
# Total GULP energy -300752.818387 kJ/mol
# GULP energy per Si atom -5569.496637 kJ/mol
# Density = 2.126825 g / cm^3
# Si number density = 21.316772 Si / 1000 Ang^3
#
#
#
# Elastic Constant Matrix: (Units=GPa)
#
#
# Indices 1 2 3 4 5 6 
#
# 1 81.0436 38.9866 43.7124 0.0000 0.0000 0.0000
# 2 38.9866 143.3316 34.8740 0.0000 0.0000 0.0000
# 3 43.7124 34.8740 127.0812 0.0000 0.0000 0.0000
# 4 0.0000 0.0000 0.0000 -20.4563 0.0000 0.0000
# 5 0.0000 0.0000 0.0000 0.0000 24.3447 0.0000
# 6 0.0000 0.0000 0.0000 0.0000 0.0000 21.9621
#
#
#
# Elastic Compliance Matrix: (Units=1/GPa)
#
#
# Indices 1 2 3 4 5 6 
#
# 1 0.016512 -0.003332 -0.004765 0.000000 0.000000 0.000000
# 2 -0.003332 0.008148 -0.001090 0.000000 0.000000 0.000000
# 3 -0.004765 -0.001090 0.009807 0.000000 0.000000 0.000000
# 4 0.000000 0.000000 0.000000 -0.048885 0.000000 0.000000
# 5 0.000000 0.000000 0.000000 0.000000 0.041077 0.000000
# 6 0.000000 0.000000 0.000000 0.000000 0.000000 0.045533
#
#
# Mechanical properties :
#
#
# Convention : Reuss Voigt Hill
#
# Bulk Modulus (GPa) = 62.13804 65.17803 63.65804
# Shear Modulus (GPa) = 52.12048 20.76234 36.44141
#
# Velocity S-wave (km/s) = 4.95010 3.12427 4.13912
# Velocity P-wave (km/s) = 7.86667 6.60735 7.26435
#
# Compressibility (1/GPa) = 0.01609320
#
# Stress axis : x y z
#
# Youngs Moduli (GPa) = 60.56143 122.72469 101.96530
#
# Poissons Ratio (x) = 0.40891 0.48590
# Poissons Ratio (y) = 0.20178 0.11114
# Poissons Ratio (z) = 0.28860 0.13377
#
# Static dielectric constant tensor:
#      x y z
#    x 2.624400 0.000000 0.000000 
#    y 0.000000 1.849000 0.000000 
#    z 0.000000 0.000000 1.733360 
# 
# From -- ./inp_files/67553.got.cif
#   From: 2010.05.17/outbox.cif.g08.bks.cpg/sg66_34_cif.got.tgz:67553.got - 2010.06.03 17:51:23.
