data_PCOD9498419
_publ_section_title
;
Structure prediction by ZEFSAII (Michael W. Deem and Ramdas Pophale) SiO2 
 PCOD9498419
Probable space group: C C C M
;
_chemical_formula_sum "Si O2"
_cell_formula_units_Z 64
_cell_length_a 21.942521
_cell_length_b 7.334383
_cell_length_c 15.034710
_cell_angle_alpha 90.000000
_cell_angle_beta 90.000000
_cell_angle_gamma 90.000000
_cell_volume 2419.608844
_symmetry_space_group_name_H-M "C C C M"
_symmetry_group_IT_number 66
_symmetry_cell_setting 'orthorhombic'
loop_
_space_group_symop_operation_xyz
x,y,z
-x,-y,z
x,-y,1/2-z
-x,y,1/2-z
-x,-y,-z
x,y,-z
-x,y,1/2+z
x,-y,1/2+z
1/2+x,1/2+y,z
1/2-x,1/2-y,z
1/2+x,1/2-y,1/2-z
1/2-x,1/2+y,1/2-z
1/2-x,1/2-y,-z
1/2+x,1/2+y,-z
1/2-x,1/2+y,1/2+z
1/2+x,1/2-y,1/2+z
loop_
_atom_site_type_symbol
_atom_site_label
_atom_site_fract_x
_atom_site_fract_y
_atom_site_fract_z
Si Si1 0.214796 0.068447 0.655370
Si Si2 0.647278 0.217124 0.604557
Si Si3 0.382114 0.173073 0.608267
Si Si4 0.487192 0.709229 0.391970
O O1 0.250000 0.250000 0.618742
O O2 0.147808 0.160400 0.660124
O O3 0.237782 0.000000 0.750000
O O4 0.197398 0.875279 0.611422
O O5 0.637913 0.199673 0.500000
O O6 0.580269 0.254707 0.643763
O O7 0.656707 0.007535 0.631884
O O8 0.377570 0.206572 0.500000
O O9 0.453878 0.168118 0.630766
O O10 0.500000 0.500000 0.369897
O O11 0.484516 0.721759 0.500000
#
# Coordination Sequence:
#
# PCOD9498419 Si02
#       4
#    16  16  16  16
#     4  12  29  46  65  85 125 181 231 279 333 392
#     4  10  21  40  70 104 133 166 212 271 336 404
#     4  10  21  40  70 103 133 166 213 273 334 402
#     4   9  15  31  63 103 141 167 195 255 339 410
#
# _framework density 26.450555000000001
#
# number of rings (size 3 to 8) (size 9 to 14) (size 15 to 20)
#    0.000    1.750    2.500    1.500    3.500    5.000 
#    0.000    5.000    0.000    3.000    0.000    0.000 
#    0.000    0.000    0.000    0.000    0.000    0.000 
#
# Total GULP energy -178432.433978 kJ/mol
# GULP energy per Si atom -5576.013562 kJ/mol
# Density = 2.639035 g / cm^3
# Si number density = 26.450555 Si / 1000 Ang^3
#
#
#
# Elastic Constant Matrix: (Units=GPa)
#
#
# Indices 1 2 3 4 5 6 
#
# 1 98.8322 78.6938 32.7759 0.0000 0.0000 0.0000
# 2 78.6938 200.7376 14.4783 0.0000 0.0000 0.0000
# 3 32.7759 14.4783 52.9490 0.0000 0.0000 0.0000
# 4 0.0000 0.0000 0.0000 19.1878 0.0000 0.0000
# 5 0.0000 0.0000 0.0000 0.0000 -44.1673 0.0000
# 6 0.0000 0.0000 0.0000 0.0000 0.0000 64.0385
#
#
#
# Elastic Compliance Matrix: (Units=1/GPa)
#
#
# Indices 1 2 3 4 5 6 
#
# 1 0.018576 -0.006583 -0.009699 0.000000 0.000000 0.000000
# 2 -0.006583 0.007415 0.002047 0.000000 0.000000 0.000000
# 3 -0.009699 0.002047 0.024330 0.000000 0.000000 0.000000
# 4 0.000000 0.000000 0.000000 0.052117 0.000000 0.000000
# 5 0.000000 0.000000 0.000000 0.000000 -0.022641 0.000000
# 6 0.000000 0.000000 0.000000 0.000000 0.000000 0.015616
#
#
# Mechanical properties :
#
#
# Convention : Reuss Voigt Hill
#
# Bulk Modulus (GPa) = 45.76197 67.15720 56.45958
# Shear Modulus (GPa) = 38.12032 22.91651 30.51841
#
# Velocity S-wave (km/s) = 3.80042 2.94664 3.40043
# Velocity P-wave (km/s) = 6.04947 6.08455 6.06704
#
# Compressibility (1/GPa) = 0.02185221
#
# Stress axis : x y z
#
# Youngs Moduli (GPa) = 53.83301 134.87038 41.10165
#
# Poissons Ratio (x) = 0.88781 0.39863
# Poissons Ratio (y) = 0.35437 -0.08415
# Poissons Ratio (z) = 0.52211 -0.27612
#
# Static dielectric constant tensor:
#      x y z
#    x 2.196010 0.000000 0.000000 
#    y 0.000000 2.171480 0.000000 
#    z 0.000000 0.000000 2.084810 
# 
# From -- ./inp_files/43362.got.cif
#   From: 2010.05.17/outbox.cif.g08.bks.cpg/sg66_22_cif.got.tgz:43362.got - 2010.06.03 17:51:23.
