data_PCOD9498022
_publ_section_title
;
Structure prediction by ZEFSAII (Michael W. Deem and Ramdas Pophale) SiO2 
 PCOD9498022
Probable space group: C C C M
;
_chemical_formula_sum "Si O2"
_cell_formula_units_Z 72
_cell_length_a 20.037759
_cell_length_b 8.012834
_cell_length_c 21.944891
_cell_angle_alpha 90.000000
_cell_angle_beta 90.000000
_cell_angle_gamma 90.000000
_cell_volume 3523.454946
_symmetry_space_group_name_H-M "C C C M"
_symmetry_group_IT_number 66
_symmetry_cell_setting 'orthorhombic'
loop_
_space_group_symop_operation_xyz
x,y,z
-x,-y,z
x,-y,1/2-z
-x,y,1/2-z
-x,-y,-z
x,y,-z
-x,y,1/2+z
x,-y,1/2+z
1/2+x,1/2+y,z
1/2-x,1/2-y,z
1/2+x,1/2-y,1/2-z
1/2-x,1/2+y,1/2-z
1/2-x,1/2-y,-z
1/2+x,1/2+y,-z
1/2-x,1/2+y,1/2+z
1/2+x,1/2-y,1/2+z
loop_
_atom_site_type_symbol
_atom_site_label
_atom_site_fract_x
_atom_site_fract_y
_atom_site_fract_z
Si Si1 0.359874 0.081765 0.834996
Si Si2 0.000000 0.000000 0.849330
Si Si3 0.778754 0.927153 0.356643
Si Si4 0.619801 0.348561 0.572051
Si Si5 0.602885 0.265264 0.214133
O O1 0.368783 0.164813 0.900310
O O2 0.385426 0.211394 0.783831
O O3 0.282047 0.032732 0.828589
O O4 0.397686 0.908972 0.822945
O O5 0.039483 0.869506 0.807070
O O6 0.945292 0.917750 0.893515
O O7 0.750000 0.750000 0.381088
O O8 0.832823 0.870269 0.306901
O O9 0.818231 0.036948 0.405781
O O10 0.612973 0.350650 0.500000
#
# Coordination Sequence:
#
# PCOD9498022 Si02
#       5
#    16   8  16  16  16
#     4  10  21  37  62  95 123 153 199 258 313 363
#     4  10  23  45  64  86 119 165 210 250 304 365
#     4   9  20  37  60  91 125 161 200 249 311 369
#     4  11  24  40  60  87 123 167 210 252 298 360
#     4   9  21  40  65  92 123 157 199 253 312 370
#
# _framework density 20.434488000000002
#
# number of rings (size 3 to 8) (size 9 to 14) (size 15 to 20)
#    0.000    2.222    0.000    1.000    0.000   19.111 
#    0.000   13.333    0.000    0.000    0.000    0.000 
#    0.000    0.000    0.000    0.000    0.000    0.000 
#
# Total GULP energy -201266.675498 kJ/mol
# GULP energy per Si atom -5590.740986 kJ/mol
# Density = 2.038798 g / cm^3
# Si number density = 20.434488 Si / 1000 Ang^3
#
#
#
# Elastic Constant Matrix: (Units=GPa)
#
#
# Indices 1 2 3 4 5 6 
#
# 1 130.0512 67.3049 74.1792 0.0000 0.0000 0.0000
# 2 67.3049 110.3762 84.5349 0.0000 0.0000 0.0000
# 3 74.1792 84.5349 151.9168 0.0000 0.0000 0.0000
# 4 0.0000 0.0000 0.0000 21.4969 0.0000 0.0000
# 5 0.0000 0.0000 0.0000 0.0000 16.8549 0.0000
# 6 0.0000 0.0000 0.0000 0.0000 0.0000 35.3242
#
#
#
# Elastic Compliance Matrix: (Units=1/GPa)
#
#
# Indices 1 2 3 4 5 6 
#
# 1 0.012029 -0.004943 -0.003123 0.000000 0.000000 0.000000
# 2 -0.004943 0.017820 -0.007502 0.000000 0.000000 0.000000
# 3 -0.003123 -0.007502 0.012282 0.000000 0.000000 0.000000
# 4 0.000000 0.000000 0.000000 0.046518 0.000000 0.000000
# 5 0.000000 0.000000 0.000000 0.000000 0.059330 0.000000
# 6 0.000000 0.000000 0.000000 0.000000 0.000000 0.028309
#
#
# Mechanical properties :
#
#
# Convention : Reuss Voigt Hill
#
# Bulk Modulus (GPa) = 90.95715 93.82025 92.38870
# Shear Modulus (GPa) = 23.68659 25.82353 24.75506
#
# Velocity S-wave (km/s) = 3.40832 3.55874 3.48434
# Velocity P-wave (km/s) = 7.75223 7.93086 7.84206
#
# Compressibility (1/GPa) = 0.01099419
#
# Stress axis : x y z
#
# Youngs Moduli (GPa) = 83.13454 56.11652 81.41883
#
# Poissons Ratio (x) = 0.27739 0.25426
# Poissons Ratio (y) = 0.41094 0.61084
# Poissons Ratio (z) = 0.25962 0.42101
#
# Static dielectric constant tensor:
#      x y z
#    x 1.748950 0.000000 0.000000 
#    y 0.000000 1.754530 0.000000 
#    z 0.000000 0.000000 1.678710 
# 
# From -- ./inp_files/51621.got.cif
#   From: 2010.05.17/outbox.cif.g08.bks.cpg/sg66_26_cif.got.tgz:51621.got - 2010.06.03 17:51:23.
