data_PCOD9498100
_publ_section_title
;
Structure prediction by ZEFSAII (Michael W. Deem and Ramdas Pophale) SiO2 
 PCOD9498100
Probable space group: C C C M
;
_chemical_formula_sum "Si O2"
_cell_formula_units_Z 56
_cell_length_a 11.186783
_cell_length_b 25.745142
_cell_length_c 9.978396
_cell_angle_alpha 90.000000
_cell_angle_beta 90.000000
_cell_angle_gamma 90.000000
_cell_volume 2873.831102
_symmetry_space_group_name_H-M "C C C M"
_symmetry_group_IT_number 66
_symmetry_cell_setting 'orthorhombic'
loop_
_space_group_symop_operation_xyz
x,y,z
-x,-y,z
x,-y,1/2-z
-x,y,1/2-z
-x,-y,-z
x,y,-z
-x,y,1/2+z
x,-y,1/2+z
1/2+x,1/2+y,z
1/2-x,1/2-y,z
1/2+x,1/2-y,1/2-z
1/2-x,1/2+y,1/2-z
1/2-x,1/2-y,-z
1/2+x,1/2+y,-z
1/2-x,1/2+y,1/2+z
1/2+x,1/2-y,1/2+z
loop_
_atom_site_type_symbol
_atom_site_label
_atom_site_fract_x
_atom_site_fract_y
_atom_site_fract_z
Si Si1 0.885411 0.886205 0.841293
Si Si2 0.500000 0.865253 0.250000
Si Si3 0.236656 0.311806 0.347258
Si Si4 0.657724 0.044336 0.645428
O O1 0.818531 0.838821 0.765319
O O2 0.790965 0.933337 0.835701
O O3 0.000000 0.897610 0.750000
O O4 0.909948 0.876013 0.000000
O O5 0.600585 0.830584 0.321508
O O6 0.426898 0.905364 0.342885
O O7 0.270457 0.327561 0.500000
O O8 0.250000 0.250000 0.337846
O O9 0.646203 0.020436 0.500000
O O10 0.631144 0.000000 0.750000
#
# Coordination Sequence:
#
# PCOD9498100 Si02
#       4
#    16   8  16  16
#     4  10  22  40  60  86 121 159 200 248 300 356
#     4  10  21  38  60  88 124 156 195 250 296 358
#     4  10  22  39  61  89 119 158 203 247 299 355
#     4  10  22  38  59  87 118 156 198 245 302 356
#
# _framework density 19.486183
#
# number of rings (size 3 to 8) (size 9 to 14) (size 15 to 20)
#    0.000    2.000    0.000    2.143    2.000   10.286 
#    0.000    2.857    0.000    0.000    0.000    0.000 
#    0.000    0.000    0.000    0.000    0.000    0.000 
#
# Total GULP energy -156229.093082 kJ/mol
# GULP energy per Si atom -5579.610467 kJ/mol
# Density = 1.944183 g / cm^3
# Si number density = 19.486183 Si / 1000 Ang^3
#
#
#
# Elastic Constant Matrix: (Units=GPa)
#
#
# Indices 1 2 3 4 5 6 
#
# 1 132.7215 37.6872 69.1406 0.0000 0.0000 0.0000
# 2 37.6872 95.2369 67.9541 0.0000 0.0000 0.0000
# 3 69.1406 67.9541 187.5210 0.0000 0.0000 0.0000
# 4 0.0000 0.0000 0.0000 10.8427 0.0000 0.0000
# 5 0.0000 0.0000 0.0000 0.0000 24.6682 0.0000
# 6 0.0000 0.0000 0.0000 0.0000 0.0000 14.7512
#
#
#
# Elastic Compliance Matrix: (Units=1/GPa)
#
#
# Indices 1 2 3 4 5 6 
#
# 1 0.009527 -0.001704 -0.002895 0.000000 0.000000 0.000000
# 2 -0.001704 0.014467 -0.004614 0.000000 0.000000 0.000000
# 3 -0.002895 -0.004614 0.008072 0.000000 0.000000 0.000000
# 4 0.000000 0.000000 0.000000 0.092228 0.000000 0.000000
# 5 0.000000 0.000000 0.000000 0.000000 0.040538 0.000000
# 6 0.000000 0.000000 0.000000 0.000000 0.000000 0.067791
#
#
# Mechanical properties :
#
#
# Convention : Reuss Voigt Hill
#
# Bulk Modulus (GPa) = 73.31926 85.00480 79.16203
# Shear Modulus (GPa) = 19.56211 26.09891 22.83051
#
# Velocity S-wave (km/s) = 3.17187 3.66369 3.42662
# Velocity P-wave (km/s) = 7.14999 7.84950 7.50789
#
# Compressibility (1/GPa) = 0.01363898
#
# Stress axis : x y z
#
# Youngs Moduli (GPa) = 104.96894 69.12359 123.88181
#
# Poissons Ratio (x) = 0.11780 0.35863
# Poissons Ratio (y) = 0.17889 0.57161
# Poissons Ratio (z) = 0.30388 0.31895
#
# Static dielectric constant tensor:
#      x y z
#    x 1.712940 0.000000 0.000000 
#    y 0.000000 1.635060 0.000000 
#    z 0.000000 0.000000 1.680180 
# 
# From -- ./inp_files/3703.got.cif
#   From: 2010.05.17/outbox.cif.g08.bks.cpg/sg66_2_cif.got.tgz:3703.got - 2010.06.03 17:51:23.
