data_PCOD9498938
_publ_section_title
;
Structure prediction by ZEFSAII (Michael W. Deem and Ramdas Pophale) SiO2 
 PCOD9498938
Probable space group: C C C M
;
_chemical_formula_sum "Si O2"
_cell_formula_units_Z 96
_cell_length_a 9.826570
_cell_length_b 20.565880
_cell_length_c 26.480494
_cell_angle_alpha 90.000000
_cell_angle_beta 90.000000
_cell_angle_gamma 90.000000
_cell_volume 5351.497567
_symmetry_space_group_name_H-M "C C C M"
_symmetry_group_IT_number 66
_symmetry_cell_setting 'orthorhombic'
loop_
_space_group_symop_operation_xyz
x,y,z
-x,-y,z
x,-y,1/2-z
-x,y,1/2-z
-x,-y,-z
x,y,-z
-x,y,1/2+z
x,-y,1/2+z
1/2+x,1/2+y,z
1/2-x,1/2-y,z
1/2+x,1/2-y,1/2-z
1/2-x,1/2+y,1/2-z
1/2-x,1/2-y,-z
1/2+x,1/2+y,-z
1/2-x,1/2+y,1/2+z
1/2+x,1/2-y,1/2+z
loop_
_atom_site_type_symbol
_atom_site_label
_atom_site_fract_x
_atom_site_fract_y
_atom_site_fract_z
Si Si1 0.985911 0.345257 0.691644
Si Si2 0.898915 0.767631 0.379410
Si Si3 0.769479 0.908269 0.853652
Si Si4 0.156179 0.813769 0.559159
Si Si5 0.813829 0.466175 0.803110
Si Si6 0.552565 0.379791 0.803057
O O1 0.038045 0.292537 0.651725
O O2 0.076257 0.410614 0.685664
O O3 0.000000 0.324216 0.750000
O O4 0.829829 0.362383 0.679338
O O5 0.750000 0.750000 0.399893
O O6 0.884235 0.824539 0.338146
O O7 0.007942 0.793573 0.419742
O O8 0.785314 0.873551 0.907758
O O9 0.920087 0.908823 0.830305
O O10 0.705593 0.979773 0.846621
O O11 0.152186 0.829190 0.500000
O O12 0.250000 0.750000 0.566631
O O13 0.849083 0.500000 0.750000
O O14 0.668198 0.432644 0.794393
O O15 0.500000 0.352531 0.750000
#
# Coordination Sequence:
#
# PCOD9498938 Si02
#       6
#    16  16  16  16  16  16
#     4  12  22  37  55  87 130 165 194 235 291 360
#     4  11  23  39  58  90 118 153 198 255 306 352
#     4  11  23  35  60  88 118 154 205 242 287 353
#     4  10  22  44  69  86 109 152 206 264 311 346
#     4  12  22  36  56  83 127 171 197 226 284 365
#     4  11  21  36  55  82 122 166 199 235 282 352
#
# _framework density 17.938904000000001
#
# number of rings (size 3 to 8) (size 9 to 14) (size 15 to 20)
#    0.000    0.833    6.667    1.500    0.000    0.333 
#    0.000    0.000    0.000   11.000    0.000    0.000 
#    0.000    0.000    0.000    0.000    0.000    0.000 
#
# Total GULP energy -268109.296882 kJ/mol
# GULP energy per Si atom -5585.610352 kJ/mol
# Density = 1.789807 g / cm^3
# Si number density = 17.938904 Si / 1000 Ang^3
#
#
#
# Elastic Constant Matrix: (Units=GPa)
#
#
# Indices 1 2 3 4 5 6 
#
# 1 94.7121 12.7655 24.3710 0.0000 0.0000 0.0000
# 2 12.7655 76.6121 33.5206 0.0000 0.0000 0.0000
# 3 24.3710 33.5206 105.6145 0.0000 0.0000 0.0000
# 4 0.0000 0.0000 0.0000 23.9615 0.0000 0.0000
# 5 0.0000 0.0000 0.0000 0.0000 19.4355 0.0000
# 6 0.0000 0.0000 0.0000 0.0000 0.0000 24.7875
#
#
#
# Elastic Compliance Matrix: (Units=1/GPa)
#
#
# Indices 1 2 3 4 5 6 
#
# 1 0.011273 -0.000860 -0.002329 0.000000 0.000000 0.000000
# 2 -0.000860 0.015223 -0.004633 0.000000 0.000000 0.000000
# 3 -0.002329 -0.004633 0.011476 0.000000 0.000000 0.000000
# 4 0.000000 0.000000 0.000000 0.041734 0.000000 0.000000
# 5 0.000000 0.000000 0.000000 0.000000 0.051452 0.000000
# 6 0.000000 0.000000 0.000000 0.000000 0.000000 0.040343
#
#
# Mechanical properties :
#
#
# Convention : Reuss Voigt Hill
#
# Bulk Modulus (GPa) = 44.78288 46.47256 45.62772
# Shear Modulus (GPa) = 25.69535 27.38901 26.54218
#
# Velocity S-wave (km/s) = 3.78879 3.91166 3.85071
# Velocity P-wave (km/s) = 6.64516 6.80909 6.72763
#
# Compressibility (1/GPa) = 0.02232996
#
# Stress axis : x y z
#
# Youngs Moduli (GPa) = 88.70482 65.68902 87.13634
#
# Poissons Ratio (x) = 0.05647 0.20290
# Poissons Ratio (y) = 0.07625 0.40373
# Poissons Ratio (z) = 0.20655 0.30436
#
# Static dielectric constant tensor:
#      x y z
#    x 1.636090 0.000000 0.000000 
#    y 0.000000 1.634410 0.000000 
#    z 0.000000 0.000000 1.579370 
# 
# From -- ./inp_files/55606.got.cif
#   From: 2010.05.17/outbox.cif.g08.bks.cpg/sg66_28_cif.got.tgz:55606.got - 2010.06.03 17:51:23.
