data_PCOD9498439
_publ_section_title
;
Structure prediction by ZEFSAII (Michael W. Deem and Ramdas Pophale) SiO2 
 PCOD9498439
Probable space group: C C C M
;
_chemical_formula_sum "Si O2"
_cell_formula_units_Z 64
_cell_length_a 7.271310
_cell_length_b 17.756889
_cell_length_c 24.932795
_cell_angle_alpha 90.000000
_cell_angle_beta 90.000000
_cell_angle_gamma 90.000000
_cell_volume 3219.218884
_symmetry_space_group_name_H-M "C C C M"
_symmetry_group_IT_number 66
_symmetry_cell_setting 'orthorhombic'
loop_
_space_group_symop_operation_xyz
x,y,z
-x,-y,z
x,-y,1/2-z
-x,y,1/2-z
-x,-y,-z
x,y,-z
-x,y,1/2+z
x,-y,1/2+z
1/2+x,1/2+y,z
1/2-x,1/2-y,z
1/2+x,1/2-y,1/2-z
1/2-x,1/2+y,1/2-z
1/2-x,1/2-y,-z
1/2+x,1/2+y,-z
1/2-x,1/2+y,1/2+z
1/2+x,1/2-y,1/2+z
loop_
_atom_site_type_symbol
_atom_site_label
_atom_site_fract_x
_atom_site_fract_y
_atom_site_fract_z
Si Si1 0.633530 0.572445 0.114124
Si Si2 0.517021 0.910918 0.810170
Si Si3 0.339977 0.934996 0.500000
Si Si4 0.284005 0.338681 0.613740
Si Si5 0.660838 0.834080 0.500000
O O1 0.500000 0.500000 0.126324
O O2 0.794916 0.593120 0.155867
O O3 0.495923 0.642343 0.118390
O O4 0.721678 0.560804 0.054849
O O5 0.500000 0.878283 0.750000
O O6 0.348525 0.878708 0.844334
O O7 0.500000 0.000000 0.805162
O O8 0.444610 0.853347 0.500000
O O9 0.500000 0.000000 0.500000
O O10 0.250000 0.250000 0.616342
O O11 0.231002 0.369030 0.554909
O O12 0.750000 0.750000 0.500000
#
# Coordination Sequence:
#
# PCOD9498439 Si02
#       5
#    16  16   8  16   8
#     4  12  23  41  71 100 131 175 220 273 344 390
#     4  11  24  46  69  95 131 176 228 280 325 390
#     4  12  22  39  72 100 136 168 223 281 328 396
#     4  11  24  45  66 101 137 171 223 274 329 404
#     4  10  21  41  65  93 138 170 205 268 329 395
#
# _framework density 19.880597999999999
#
# number of rings (size 3 to 8) (size 9 to 14) (size 15 to 20)
#    0.000    0.750    5.000    3.375    0.000    2.000 
#    4.500    2.500    0.000    0.000    0.000    0.000 
#    0.000    0.000    0.000    0.000    0.000    0.000 
#
# Total GULP energy -178423.907105 kJ/mol
# GULP energy per Si atom -5575.747097 kJ/mol
# Density = 1.983535 g / cm^3
# Si number density = 19.880598 Si / 1000 Ang^3
#
#
#
# Elastic Constant Matrix: (Units=GPa)
#
#
# Indices 1 2 3 4 5 6 
#
# 1 160.0130 42.4044 96.0161 0.0000 0.0000 0.0000
# 2 42.4044 79.4978 23.1859 0.0000 0.0000 0.0000
# 3 96.0161 23.1859 198.2846 0.0000 0.0000 0.0000
# 4 0.0000 0.0000 0.0000 125.4508 0.0000 0.0000
# 5 0.0000 0.0000 0.0000 0.0000 -24.4766 0.0000
# 6 0.0000 0.0000 0.0000 0.0000 0.0000 42.9280
#
#
#
# Elastic Compliance Matrix: (Units=1/GPa)
#
#
# Indices 1 2 3 4 5 6 
#
# 1 0.009915 -0.004026 -0.004330 0.000000 0.000000 0.000000
# 2 -0.004026 0.014658 0.000235 0.000000 0.000000 0.000000
# 3 -0.004330 0.000235 0.007113 0.000000 0.000000 0.000000
# 4 0.000000 0.000000 0.000000 0.007971 0.000000 0.000000
# 5 0.000000 0.000000 0.000000 0.000000 -0.040855 0.000000
# 6 0.000000 0.000000 0.000000 0.000000 0.000000 0.023295
#
#
# Mechanical properties :
#
#
# Convention : Reuss Voigt Hill
#
# Bulk Modulus (GPa) = 64.75067 84.55647 74.65357
# Shear Modulus (GPa) = 114.98332 47.19305 81.08818
#
# Velocity S-wave (km/s) = 7.61331 4.87748 6.39345
# Velocity P-wave (km/s) = 10.48446 8.62231 9.59865
#
# Compressibility (1/GPa) = 0.01544386
#
# Stress axis : x y z
#
# Youngs Moduli (GPa) = 100.86020 68.22415 140.59515
#
# Poissons Ratio (x) = 0.27464 0.60882
# Poissons Ratio (y) = 0.40602 -0.03309
# Poissons Ratio (z) = 0.43676 -0.01606
#
# Static dielectric constant tensor:
#      x y z
#    x 1.692620 0.000000 0.000000 
#    y 0.000000 1.746330 0.000000 
#    z 0.000000 0.000000 1.628770 
# 
# From -- ./inp_files/61268.got.cif
#   From: 2010.05.17/outbox.cif.g08.bks.cpg/sg66_31_cif.got.tgz:61268.got - 2010.06.03 17:51:23.
