data_PCOD9498074
_publ_section_title
;
Structure prediction by ZEFSAII (Michael W. Deem and Ramdas Pophale) SiO2 
 PCOD9498074
Probable space group: C C C M
;
_chemical_formula_sum "Si O2"
_cell_formula_units_Z 96
_cell_length_a 21.156365
_cell_length_b 24.080288
_cell_length_c 8.844353
_cell_angle_alpha 90.000000
_cell_angle_beta 90.000000
_cell_angle_gamma 90.000000
_cell_volume 4505.767684
_symmetry_space_group_name_H-M "C C C M"
_symmetry_group_IT_number 66
_symmetry_cell_setting 'orthorhombic'
loop_
_space_group_symop_operation_xyz
x,y,z
-x,-y,z
x,-y,1/2-z
-x,y,1/2-z
-x,-y,-z
x,y,-z
-x,y,1/2+z
x,-y,1/2+z
1/2+x,1/2+y,z
1/2-x,1/2-y,z
1/2+x,1/2-y,1/2-z
1/2-x,1/2+y,1/2-z
1/2-x,1/2-y,-z
1/2+x,1/2+y,-z
1/2-x,1/2+y,1/2+z
1/2+x,1/2-y,1/2+z
loop_
_atom_site_type_symbol
_atom_site_label
_atom_site_fract_x
_atom_site_fract_y
_atom_site_fract_z
Si Si1 0.688416 0.447445 0.326616
Si Si2 0.107444 0.216329 0.177920
Si Si3 0.929155 0.557889 0.182001
Si Si4 0.376654 0.829913 0.176554
Si Si5 0.064776 0.101465 0.320649
Si Si6 0.249068 0.172060 0.829382
O O1 0.720465 0.500000 0.250000
O O2 0.672651 0.459522 0.500000
O O3 0.624586 0.433146 0.237285
O O4 0.730315 0.392505 0.324120
O O5 0.091251 0.275407 0.250861
O O6 0.075456 0.164276 0.260194
O O7 0.183262 0.204572 0.190664
O O8 0.092158 0.215043 0.000000
O O9 0.902561 0.500000 0.250000
O O10 0.894076 0.613370 0.237401
O O11 0.000000 0.562139 0.250000
O O12 0.930570 0.555064 0.000000
O O13 0.302267 0.819413 0.205538
O O14 0.391381 0.834845 0.000000
O O15 0.061791 0.101367 0.500000
O O16 0.000000 0.079872 0.250000
O O17 0.273703 0.184272 0.000000
#
# Coordination Sequence:
#
# PCOD9498074 Si02
#       6
#    16  16  16  16  16  16
#     4  10  21  38  59  84 115 152 194 240 291 342
#     4  10  21  39  60  84 117 154 192 237 290 341
#     4  11  23  43  66  88 117 150 187 233 287 340
#     4  12  24  37  59  91 120 152 195 234 277 338
#     4  11  22  38  59  84 115 151 193 239 290 344
#     4   9  20  38  58  82 117 156 192 236 289 340
#
# _framework density 21.306024000000001
#
# number of rings (size 3 to 8) (size 9 to 14) (size 15 to 20)
#    0.000    1.500    0.000    7.500    0.000    7.667 
#    0.000    6.667    0.000    0.000    0.000    0.000 
#    0.000    0.000    0.000    0.000    0.000    0.000 
#
# Total GULP energy -268480.057248 kJ/mol
# GULP energy per Si atom -5593.334526 kJ/mol
# Density = 2.125753 g / cm^3
# Si number density = 21.306024 Si / 1000 Ang^3
#
#
#
# Elastic Constant Matrix: (Units=GPa)
#
#
# Indices 1 2 3 4 5 6 
#
# 1 20.0775 -12.3457 9.3833 0.0000 0.0000 0.0000
# 2 -12.3457 138.3034 49.1269 0.0000 0.0000 0.0000
# 3 9.3833 49.1269 180.4055 0.0000 0.0000 0.0000
# 4 0.0000 0.0000 0.0000 69.8810 0.0000 0.0000
# 5 0.0000 0.0000 0.0000 0.0000 29.5689 0.0000
# 6 0.0000 0.0000 0.0000 0.0000 0.0000 -6.1414
#
#
#
# Elastic Compliance Matrix: (Units=1/GPa)
#
#
# Indices 1 2 3 4 5 6 
#
# 1 0.056142 0.006696 -0.004744 0.000000 0.000000 0.000000
# 2 0.006696 0.008804 -0.002746 0.000000 0.000000 0.000000
# 3 -0.004744 -0.002746 0.006537 0.000000 0.000000 0.000000
# 4 0.000000 0.000000 0.000000 0.014310 0.000000 0.000000
# 5 0.000000 0.000000 0.000000 0.000000 0.033819 0.000000
# 6 0.000000 0.000000 0.000000 0.000000 0.000000 -0.162829
#
#
# Mechanical properties :
#
#
# Convention : Reuss Voigt Hill
#
# Bulk Modulus (GPa) = 14.30676 47.90173 31.10424
# Shear Modulus (GPa) = -272.74596 38.16981 -117.28807
#
# Velocity S-wave (km/s) = -11.32658 4.23721 -7.42757
# Velocity P-wave (km/s) = 12.81896 6.81690 7.67645
#
# Compressibility (1/GPa) = 0.06989703
#
# Stress axis : x y z
#
# Youngs Moduli (GPa) = 17.81211 113.59105 152.96453
#
# Poissons Ratio (x) = -0.76066 0.72560
# Poissons Ratio (y) = -0.11928 0.41998
# Poissons Ratio (z) = 0.08449 0.31188
#
# Static dielectric constant tensor:
#      x y z
#    x 1.784760 0.000000 0.000000 
#    y 0.000000 1.786200 0.000000 
#    z 0.000000 0.000000 1.711710 
# 
# From -- ./inp_files/9130.got.cif
#   From: 2010.05.17/outbox.cif.g08.bks.cpg/sg66_5_cif.got.tgz:9130.got - 2010.06.03 17:51:23.
