data_PCOD9498813
_publ_section_title
;
Structure prediction by ZEFSAII (Michael W. Deem and Ramdas Pophale) SiO2 
 PCOD9498813
Probable space group: C C C M
;
_chemical_formula_sum "Si O2"
_cell_formula_units_Z 68
_cell_length_a 16.465274
_cell_length_b 21.362613
_cell_length_c 9.622686
_cell_angle_alpha 90.000000
_cell_angle_beta 90.000000
_cell_angle_gamma 90.000000
_cell_volume 3384.695856
_symmetry_space_group_name_H-M "C C C M"
_symmetry_group_IT_number 66
_symmetry_cell_setting 'orthorhombic'
loop_
_space_group_symop_operation_xyz
x,y,z
-x,-y,z
x,-y,1/2-z
-x,y,1/2-z
-x,-y,-z
x,y,-z
-x,y,1/2+z
x,-y,1/2+z
1/2+x,1/2+y,z
1/2-x,1/2-y,z
1/2+x,1/2-y,1/2-z
1/2-x,1/2+y,1/2-z
1/2-x,1/2-y,-z
1/2+x,1/2+y,-z
1/2-x,1/2+y,1/2+z
1/2+x,1/2-y,1/2+z
loop_
_atom_site_type_symbol
_atom_site_label
_atom_site_fract_x
_atom_site_fract_y
_atom_site_fract_z
Si Si1 0.159379 0.219627 0.834742
Si Si2 0.316673 0.055185 0.344761
Si Si3 0.500000 0.500000 0.250000
Si Si4 0.364940 0.403237 0.345058
Si Si5 0.076930 0.327078 0.665988
O O1 0.250000 0.250000 0.817975
O O2 0.145207 0.150524 0.771102
O O3 0.101413 0.263728 0.743673
O O4 0.141588 0.220267 0.000000
O O5 0.343125 0.040795 0.500000
O O6 0.219506 0.059146 0.340187
O O7 0.350894 0.123431 0.311970
O O8 0.347348 0.000000 0.250000
O O9 0.438957 0.451747 0.327011
O O10 0.370526 0.374094 0.500000
O O11 0.063730 0.319383 0.500000
O O12 0.000000 0.352573 0.750000
#
# Coordination Sequence:
#
# PCOD9498813 Si02
#       5
#    16  16   4  16  16
#     4  11  24  42  68  99 130 173 225 278 336 399
#     4  10  22  41  66  93 125 172 218 266 330 399
#     4  12  26  44  68 102 140 180 230 282 342 412
#     4  11  24  43  66  95 133 177 223 273 333 401
#     4  11  24  43  66  95 131 171 220 276 337 399
#
# _framework density 20.090430999999999
#
# number of rings (size 3 to 8) (size 9 to 14) (size 15 to 20)
#    0.000    1.176    3.529    1.765    1.647    6.118 
#    0.000    2.353    0.000    0.000    0.000    0.000 
#    0.000    0.000    0.000    0.000    0.000    0.000 
#
# Total GULP energy -189677.382469 kJ/mol
# GULP energy per Si atom -5578.746543 kJ/mol
# Density = 2.004470 g / cm^3
# Si number density = 20.090431 Si / 1000 Ang^3
#
#
#
# Elastic Constant Matrix: (Units=GPa)
#
#
# Indices 1 2 3 4 5 6 
#
# 1 79.1541 3.6995 32.2469 0.0000 0.0000 0.0000
# 2 3.6995 91.4438 67.9769 0.0000 0.0000 0.0000
# 3 32.2469 67.9769 122.1482 0.0000 0.0000 0.0000
# 4 0.0000 0.0000 0.0000 39.8023 0.0000 0.0000
# 5 0.0000 0.0000 0.0000 0.0000 20.5119 0.0000
# 6 0.0000 0.0000 0.0000 0.0000 0.0000 23.4425
#
#
#
# Elastic Compliance Matrix: (Units=1/GPa)
#
#
# Indices 1 2 3 4 5 6 
#
# 1 0.014958 0.003975 -0.006161 0.000000 0.000000 0.000000
# 2 0.003975 0.019708 -0.012017 0.000000 0.000000 0.000000
# 3 -0.006161 -0.012017 0.016501 0.000000 0.000000 0.000000
# 4 0.000000 0.000000 0.000000 0.025124 0.000000 0.000000
# 5 0.000000 0.000000 0.000000 0.000000 0.048752 0.000000
# 6 0.000000 0.000000 0.000000 0.000000 0.000000 0.042658
#
#
# Mechanical properties :
#
#
# Convention : Reuss Voigt Hill
#
# Bulk Modulus (GPa) = 43.93642 55.62142 49.77892
# Shear Modulus (GPa) = 24.54669 29.33952 26.94311
#
# Velocity S-wave (km/s) = 3.49923 3.82563 3.66606
# Velocity P-wave (km/s) = 6.18409 6.87456 6.53844
#
# Compressibility (1/GPa) = 0.02276016
#
# Stress axis : x y z
#
# Youngs Moduli (GPa) = 66.85552 50.74078 60.60315
#
# Poissons Ratio (x) = -0.20167 0.37336
# Poissons Ratio (y) = -0.26572 0.72827
# Poissons Ratio (z) = 0.41187 0.60975
#
# Static dielectric constant tensor:
#      x y z
#    x 1.742720 0.000000 0.000000 
#    y 0.000000 1.791400 0.000000 
#    z 0.000000 0.000000 1.706370 
# 
# From -- ./inp_files/6267.got.cif
#   From: 2010.05.17/outbox.cif.g08.bks.cpg/sg66_4_cif.got.tgz:6267.got - 2010.06.03 17:51:23.
