data_PCOD9498017
_publ_section_title
;
Structure prediction by ZEFSAII (Michael W. Deem and Ramdas Pophale) SiO2 
 PCOD9498017
Probable space group: C C C M
;
_chemical_formula_sum "Si O2"
_cell_formula_units_Z 96
_cell_length_a 19.475345
_cell_length_b 15.578364
_cell_length_c 16.485770
_cell_angle_alpha 90.000000
_cell_angle_beta 90.000000
_cell_angle_gamma 90.000000
_cell_volume 5001.683925
_symmetry_space_group_name_H-M "C C C M"
_symmetry_group_IT_number 66
_symmetry_cell_setting 'orthorhombic'
loop_
_space_group_symop_operation_xyz
x,y,z
-x,-y,z
x,-y,1/2-z
-x,y,1/2-z
-x,-y,-z
x,y,-z
-x,y,1/2+z
x,-y,1/2+z
1/2+x,1/2+y,z
1/2-x,1/2-y,z
1/2+x,1/2-y,1/2-z
1/2-x,1/2+y,1/2-z
1/2-x,1/2-y,-z
1/2+x,1/2+y,-z
1/2-x,1/2+y,1/2+z
1/2+x,1/2-y,1/2+z
loop_
_atom_site_type_symbol
_atom_site_label
_atom_site_fract_x
_atom_site_fract_y
_atom_site_fract_z
Si Si1 0.554821 0.924837 0.402522
Si Si2 0.179571 0.939409 0.408759
Si Si3 0.804081 0.183137 0.741977
Si Si4 0.708006 0.049097 0.165573
Si Si5 0.052786 0.934744 0.093493
Si Si6 0.443250 0.744485 0.818545
O O1 0.554504 0.923840 0.500000
O O2 0.632950 0.935672 0.370850
O O3 0.538672 0.830499 0.367606
O O4 0.500000 0.000000 0.377027
O O5 0.173973 0.901799 0.500000
O O6 0.169749 0.876882 0.331640
O O7 0.251963 0.985853 0.394880
O O8 0.124415 0.015811 0.402963
O O9 0.750000 0.250000 0.705827
O O10 0.760079 0.127240 0.808386
O O11 0.866593 0.236957 0.780752
O O12 0.697934 0.000000 0.250000
O O13 0.053196 0.841417 0.129404
O O14 0.032177 0.924332 0.000000
O O15 0.000000 0.000000 0.135038
O O16 0.500000 0.737599 0.750000
#
# Coordination Sequence:
#
# PCOD9498017 Si02
#       6
#    16  16  16  16  16  16
#     4  11  26  45  66  96 131 173 226 280 336 399
#     4  10  21  37  62  92 128 171 214 273 344 396
#     4  11  22  40  61  96 130 168 229 280 325 408
#     4  10  21  39  67  91 127 167 223 278 330 396
#     4  10  21  39  61  89 125 164 209 265 329 398
#     4  12  25  39  64  96 129 175 219 269 337 396
#
# _framework density 19.193536000000002
#
# number of rings (size 3 to 8) (size 9 to 14) (size 15 to 20)
#    0.000    1.333    3.333    2.000    2.333    2.000 
#    0.000    1.667    0.000    0.000    0.000    0.000 
#    0.000    0.000    0.000    0.000    0.000    0.000 
#
# Total GULP energy -267575.177107 kJ/mol
# GULP energy per Si atom -5574.482856 kJ/mol
# Density = 1.914985 g / cm^3
# Si number density = 19.193536 Si / 1000 Ang^3
#
#
#
# Elastic Constant Matrix: (Units=GPa)
#
#
# Indices 1 2 3 4 5 6 
#
# 1 86.8300 34.2875 45.9412 0.0000 0.0000 0.0000
# 2 34.2875 100.6767 45.1994 0.0000 0.0000 0.0000
# 3 45.9412 45.1994 77.7766 0.0000 0.0000 0.0000
# 4 0.0000 0.0000 0.0000 5.4781 0.0000 0.0000
# 5 0.0000 0.0000 0.0000 0.0000 24.4735 0.0000
# 6 0.0000 0.0000 0.0000 0.0000 0.0000 34.0477
#
#
#
# Elastic Compliance Matrix: (Units=1/GPa)
#
#
# Indices 1 2 3 4 5 6 
#
# 1 0.016972 -0.001731 -0.009019 0.000000 0.000000 0.000000
# 2 -0.001731 0.013616 -0.006890 0.000000 0.000000 0.000000
# 3 -0.009019 -0.006890 0.022189 0.000000 0.000000 0.000000
# 4 0.000000 0.000000 0.000000 0.182546 0.000000 0.000000
# 5 0.000000 0.000000 0.000000 0.000000 0.040861 0.000000
# 6 0.000000 0.000000 0.000000 0.000000 0.000000 0.029371
#
#
# Mechanical properties :
#
#
# Convention : Reuss Voigt Hill
#
# Bulk Modulus (GPa) = 57.15556 57.34882 57.25219
# Shear Modulus (GPa) = 14.42305 22.12354 18.27330
#
# Velocity S-wave (km/s) = 2.74424 3.39876 3.08889
# Velocity P-wave (km/s) = 6.31540 6.73396 6.52804
#
# Compressibility (1/GPa) = 0.01749611
#
# Stress axis : x y z
#
# Youngs Moduli (GPa) = 58.91943 73.44457 45.06730
#
# Poissons Ratio (x) = 0.12713 0.40647
# Poissons Ratio (y) = 0.10199 0.31052
# Poissons Ratio (z) = 0.53141 0.50605
#
# Static dielectric constant tensor:
#      x y z
#    x 1.694200 0.000000 0.000000 
#    y 0.000000 1.696600 0.000000 
#    z 0.000000 0.000000 1.665810 
# 
# From -- ./inp_files/28328.got.cif
#   From: 2010.05.17/outbox.cif.g08.bks.cpg/sg66_15_cif.got.tgz:28328.got - 2010.06.03 17:51:23.
