data_PCOD9498014
_publ_section_title
;
Structure prediction by ZEFSAII (Michael W. Deem and Ramdas Pophale) SiO2 
 PCOD9498014
Probable space group: C C C M
;
_chemical_formula_sum "Si O2"
_cell_formula_units_Z 68
_cell_length_a 11.114015
_cell_length_b 10.551360
_cell_length_c 26.312131
_cell_angle_alpha 90.000000
_cell_angle_beta 90.000000
_cell_angle_gamma 90.000000
_cell_volume 3085.570276
_symmetry_space_group_name_H-M "C C C M"
_symmetry_group_IT_number 66
_symmetry_cell_setting 'orthorhombic'
loop_
_space_group_symop_operation_xyz
x,y,z
-x,-y,z
x,-y,1/2-z
-x,y,1/2-z
-x,-y,-z
x,y,-z
-x,y,1/2+z
x,-y,1/2+z
1/2+x,1/2+y,z
1/2-x,1/2-y,z
1/2+x,1/2-y,1/2-z
1/2-x,1/2+y,1/2-z
1/2-x,1/2-y,-z
1/2+x,1/2+y,-z
1/2-x,1/2+y,1/2+z
1/2+x,1/2-y,1/2+z
loop_
_atom_site_type_symbol
_atom_site_label
_atom_site_fract_x
_atom_site_fract_y
_atom_site_fract_z
Si Si1 0.948194 0.192297 0.390720
Si Si2 0.652296 0.431191 0.157317
Si Si3 0.043825 0.790732 0.000000
Si Si4 0.782581 0.544308 0.500000
Si Si5 0.500000 0.500000 0.750000
Si Si6 0.362914 0.040368 0.891421
O O1 0.960558 0.196020 0.450992
O O2 0.890815 0.065426 0.367772
O O3 0.875688 0.314960 0.373401
O O4 0.087812 0.181018 0.373186
O O5 0.591730 0.426172 0.212756
O O6 0.792865 0.448687 0.147697
O O7 0.117697 0.658118 0.000000
O O8 0.149419 0.895647 0.000000
O O9 0.803146 0.470788 0.552715
O O10 0.500000 0.000000 0.898040
#
# Coordination Sequence:
#
# PCOD9498014 Si02
#       6
#    16  16   8   8   4  16
#     4  10  21  37  62  87 126 162 214 258 301 371
#     4  10  23  42  68  90 115 166 207 269 334 385
#     4  11  19  36  57  86 133 180 220 243 299 375
#     4  11  22  34  55  90 138 182 210 246 304 370
#     4   8  20  48  74  78 118 152 200 266 336 384
#     4  12  22  37  62  93 131 168 210 255 309 373
#
# _framework density 22.038067000000002
#
# number of rings (size 3 to 8) (size 9 to 14) (size 15 to 20)
#    0.000    1.647    4.706    1.765    0.000    3.765 
#    0.000    2.941   41.412    0.000    0.000    0.000 
#    0.000    0.000    0.000    0.000    0.000    0.000 
#
# Total GULP energy -189812.084131 kJ/mol
# GULP energy per Si atom -5582.708357 kJ/mol
# Density = 2.198791 g / cm^3
# Si number density = 22.038067 Si / 1000 Ang^3
#
#
#
# Elastic Constant Matrix: (Units=GPa)
#
#
# Indices 1 2 3 4 5 6 
#
# 1 104.2696 23.4352 19.1207 0.0000 0.0000 0.0000
# 2 23.4352 98.4108 3.5314 0.0000 0.0000 0.0000
# 3 19.1207 3.5314 105.2174 0.0000 0.0000 0.0000
# 4 0.0000 0.0000 0.0000 -0.6110 0.0000 0.0000
# 5 0.0000 0.0000 0.0000 0.0000 20.1492 0.0000
# 6 0.0000 0.0000 0.0000 0.0000 0.0000 34.7767
#
#
#
# Elastic Compliance Matrix: (Units=1/GPa)
#
#
# Indices 1 2 3 4 5 6 
#
# 1 0.010470 -0.002428 -0.001821 0.000000 0.000000 0.000000
# 2 -0.002428 0.010737 0.000081 0.000000 0.000000 0.000000
# 3 -0.001821 0.000081 0.009832 0.000000 0.000000 0.000000
# 4 0.000000 0.000000 0.000000 -1.636583 0.000000 0.000000
# 5 0.000000 0.000000 0.000000 0.000000 0.049630 0.000000
# 6 0.000000 0.000000 0.000000 0.000000 0.000000 0.028755
#
#
# Mechanical properties :
#
#
# Convention : Reuss Voigt Hill
#
# Bulk Modulus (GPa) = 44.04764 44.45250 44.25007
# Shear Modulus (GPa) = -3.30851 28.31702 12.50425
#
# Velocity S-wave (km/s) = -1.22659 3.58846 2.38459
# Velocity P-wave (km/s) = 4.24552 6.11424 5.26348
#
# Compressibility (1/GPa) = 0.02270269
#
# Stress axis : x y z
#
# Youngs Moduli (GPa) = 95.50917 93.13788 101.70473
#
# Poissons Ratio (x) = 0.22614 0.18523
# Poissons Ratio (y) = 0.23189 -0.00822
# Poissons Ratio (z) = 0.17394 -0.00753
#
# Static dielectric constant tensor:
#      x y z
#    x 1.980760 0.000000 0.000000 
#    y 0.000000 1.877850 0.000000 
#    z 0.000000 0.000000 1.787200 
# 
# From -- ./inp_files/63415.got.cif
#   From: 2010.05.17/outbox.cif.g08.bks.cpg/sg66_32_cif.got.tgz:63415.got - 2010.06.03 17:51:23.
