data_PCOD9498907
_publ_section_title
;
Structure prediction by ZEFSAII (Michael W. Deem and Ramdas Pophale) SiO2 
 PCOD9498907
Probable space group: C C C M
;
_chemical_formula_sum "Si O2"
_cell_formula_units_Z 52
_cell_length_a 5.116659
_cell_length_b 14.923899
_cell_length_c 30.713942
_cell_angle_alpha 90.000000
_cell_angle_beta 90.000000
_cell_angle_gamma 90.000000
_cell_volume 2345.332034
_symmetry_space_group_name_H-M "C C C M"
_symmetry_group_IT_number 66
_symmetry_cell_setting 'orthorhombic'
loop_
_space_group_symop_operation_xyz
x,y,z
-x,-y,z
x,-y,1/2-z
-x,y,1/2-z
-x,-y,-z
x,y,-z
-x,y,1/2+z
x,-y,1/2+z
1/2+x,1/2+y,z
1/2-x,1/2-y,z
1/2+x,1/2-y,1/2-z
1/2-x,1/2+y,1/2-z
1/2-x,1/2-y,-z
1/2+x,1/2+y,-z
1/2-x,1/2+y,1/2+z
1/2+x,1/2-y,1/2+z
loop_
_atom_site_type_symbol
_atom_site_label
_atom_site_fract_x
_atom_site_fract_y
_atom_site_fract_z
Si Si1 0.243827 0.561335 0.049360
Si Si2 0.485774 0.692104 0.881191
Si Si3 0.667350 0.645743 0.205983
Si Si4 0.000000 0.500000 0.750000
O O1 0.500000 0.500000 0.047043
O O2 0.340902 0.642885 0.079089
O O3 0.000000 0.500000 0.065424
O O4 0.173454 0.590688 0.000000
O O5 0.750000 0.750000 0.892591
O O6 0.556141 0.625885 0.841796
O O7 0.250000 0.750000 0.861147
O O8 0.500000 0.641819 0.250000
O O9 0.750000 0.750000 0.202755
O O10 0.871470 0.569706 0.216723
#
# Coordination Sequence:
#
# PCOD9498907 Si02
#       4
#    16  16  16   4
#     4  10  22  43  69 102 143 183 230 293 356 427
#     4  11  25  44  70 102 139 186 234 296 360 421
#     4  11  24  46  69  99 145 184 244 307 352 437
#     4  12  26  44  76 100 130 212 238 284 394 414
#
# _framework density 22.171697999999999
#
# number of rings (size 3 to 8) (size 9 to 14) (size 15 to 20)
#    0.000    1.231    1.538    3.231    4.308    3.692 
#    5.538    0.000    0.000    0.000    0.000    0.000 
#    0.000    0.000    0.000    0.000    0.000    0.000 
#
# Total GULP energy -144875.649855 kJ/mol
# GULP energy per Si atom -5572.140379 kJ/mol
# Density = 2.212123 g / cm^3
# Si number density = 22.171698 Si / 1000 Ang^3
#
#
#
# Elastic Constant Matrix: (Units=GPa)
#
#
# Indices 1 2 3 4 5 6 
#
# 1 135.8671 53.8299 36.5682 0.0000 0.0000 0.0000
# 2 53.8299 110.3665 45.0126 0.0000 0.0000 0.0000
# 3 36.5682 45.0126 114.6634 0.0000 0.0000 0.0000
# 4 0.0000 0.0000 0.0000 -128.7110 0.0000 0.0000
# 5 0.0000 0.0000 0.0000 0.0000 45.6776 0.0000
# 6 0.0000 0.0000 0.0000 0.0000 0.0000 23.1227
#
#
#
# Elastic Compliance Matrix: (Units=1/GPa)
#
#
# Indices 1 2 3 4 5 6 
#
# 1 0.009311 -0.003965 -0.001413 0.000000 0.000000 0.000000
# 2 -0.003965 0.012477 -0.003633 0.000000 0.000000 0.000000
# 3 -0.001413 -0.003633 0.010598 0.000000 0.000000 0.000000
# 4 0.000000 0.000000 0.000000 -0.007769 0.000000 0.000000
# 5 0.000000 0.000000 0.000000 0.000000 0.021893 0.000000
# 6 0.000000 0.000000 0.000000 0.000000 0.000000 0.043247
#
#
# Mechanical properties :
#
#
# Convention : Reuss Voigt Hill
#
# Bulk Modulus (GPa) = 69.62277 70.19093 69.90685
# Shear Modulus (GPa) = 44.41784 3.05029 23.73406
#
# Velocity S-wave (km/s) = 4.48074 1.17420 3.27535
# Velocity P-wave (km/s) = 7.63146 5.79353 6.77511
#
# Compressibility (1/GPa) = 0.01436312
#
# Stress axis : x y z
#
# Youngs Moduli (GPa) = 107.39463 80.15046 94.35676
#
# Poissons Ratio (x) = 0.31782 0.13332
# Poissons Ratio (y) = 0.42585 0.34282
# Poissons Ratio (z) = 0.15175 0.29121
#
# Static dielectric constant tensor:
#      x y z
#    x 1.862400 0.000000 0.000000 
#    y 0.000000 1.796620 0.000000 
#    z 0.000000 0.000000 1.985170 
# 
# From -- ./inp_files/66758.got.cif
#   From: 2010.05.17/outbox.cif.g08.bks.cpg/sg66_34_cif.got.tgz:66758.got - 2010.06.03 17:51:23.
