data_PCOD9498939
_publ_section_title
;
Structure prediction by ZEFSAII (Michael W. Deem and Ramdas Pophale) SiO2 
 PCOD9498939
Probable space group: C C C M
;
_chemical_formula_sum "Si O2"
_cell_formula_units_Z 104
_cell_length_a 9.079698
_cell_length_b 27.211747
_cell_length_c 20.336802
_cell_angle_alpha 90.000000
_cell_angle_beta 90.000000
_cell_angle_gamma 90.000000
_cell_volume 5024.704063
_symmetry_space_group_name_H-M "C C C M"
_symmetry_group_IT_number 66
_symmetry_cell_setting 'orthorhombic'
loop_
_space_group_symop_operation_xyz
x,y,z
-x,-y,z
x,-y,1/2-z
-x,y,1/2-z
-x,-y,-z
x,y,-z
-x,y,1/2+z
x,-y,1/2+z
1/2+x,1/2+y,z
1/2-x,1/2-y,z
1/2+x,1/2-y,1/2-z
1/2-x,1/2+y,1/2-z
1/2-x,1/2-y,-z
1/2+x,1/2+y,-z
1/2-x,1/2+y,1/2+z
1/2+x,1/2-y,1/2+z
loop_
_atom_site_type_symbol
_atom_site_label
_atom_site_fract_x
_atom_site_fract_y
_atom_site_fract_z
Si Si1 0.244496 0.500000 0.250000
Si Si2 0.924430 0.745868 0.179472
Si Si3 0.573363 0.865656 0.821959
Si Si4 0.396795 0.404438 0.192353
Si Si5 0.094752 0.544228 0.878511
Si Si6 0.127059 0.209467 0.576812
Si Si7 0.378190 0.402758 0.425665
O O1 0.341142 0.457422 0.217424
O O2 0.148130 0.524742 0.192923
O O3 0.750000 0.750000 0.186482
O O4 0.959258 0.689940 0.157338
O O5 0.000000 0.753978 0.250000
O O6 0.991093 0.781970 0.125298
O O7 0.500000 0.871946 0.750000
O O8 0.748622 0.873446 0.817186
O O9 0.505694 0.907922 0.867428
O O10 0.500000 0.383095 0.250000
O O11 0.494626 0.410526 0.127614
O O12 0.242792 0.560514 0.914855
O O13 0.000000 0.500000 0.908769
O O14 0.087666 0.216582 0.500000
O O15 0.250000 0.250000 0.593748
O O16 0.178803 0.153275 0.584225
O O17 0.434417 0.406690 0.500000
#
# Coordination Sequence:
#
# PCOD9498939 Si02
#       7
#     8  16  16  16  16  16  16
#     4  12  22  38  66  98 118 164 220 264 302 380
#     4  11  24  39  61  96 133 165 211 268 333 392
#     4  11  21  38  63  97 129 166 212 273 328 384
#     4  12  23  38  68  94 128 168 218 264 324 384
#     4  12  22  40  67  94 130 168 217 268 318 383
#     4  10  22  44  69  90 122 172 222 270 323 392
#     4  11  26  44  63  95 133 171 218 268 330 394
#
# _framework density 20.697735999999999
#
# number of rings (size 3 to 8) (size 9 to 14) (size 15 to 20)
#    0.000    0.769    4.615    2.769    0.000    5.538 
#    0.000    3.077    0.000    0.000    0.000    0.000 
#    0.000    0.000    0.000    0.000    0.000    0.000 
#
# Total GULP energy -290950.110665 kJ/mol
# GULP energy per Si atom -5595.194436 kJ/mol
# Density = 2.065063 g / cm^3
# Si number density = 20.697736 Si / 1000 Ang^3
#
#
#
# Elastic Constant Matrix: (Units=GPa)
#
#
# Indices 1 2 3 4 5 6 
#
# 1 128.4230 14.7633 55.1543 0.0000 0.0000 0.0000
# 2 14.7633 87.5296 19.1980 0.0000 0.0000 0.0000
# 3 55.1543 19.1980 76.6213 0.0000 0.0000 0.0000
# 4 0.0000 0.0000 0.0000 37.5826 0.0000 0.0000
# 5 0.0000 0.0000 0.0000 0.0000 10.0987 0.0000
# 6 0.0000 0.0000 0.0000 0.0000 0.0000 28.8467
#
#
#
# Elastic Compliance Matrix: (Units=1/GPa)
#
#
# Indices 1 2 3 4 5 6 
#
# 1 0.011273 -0.000129 -0.008082 0.000000 0.000000 0.000000
# 2 -0.000129 0.012091 -0.002937 0.000000 0.000000 0.000000
# 3 -0.008082 -0.002937 0.019605 0.000000 0.000000 0.000000
# 4 0.000000 0.000000 0.000000 0.026608 0.000000 0.000000
# 5 0.000000 0.000000 0.000000 0.000000 0.099022 0.000000
# 6 0.000000 0.000000 0.000000 0.000000 0.000000 0.034666
#
#
# Mechanical properties :
#
#
# Convention : Reuss Voigt Hill
#
# Bulk Modulus (GPa) = 48.37261 52.31168 50.34214
# Shear Modulus (GPa) = 21.50996 28.86949 25.18973
#
# Velocity S-wave (km/s) = 3.22723 3.73877 3.49238
# Velocity P-wave (km/s) = 6.10806 6.63075 6.37476
#
# Compressibility (1/GPa) = 0.02067286
#
# Stress axis : x y z
#
# Youngs Moduli (GPa) = 88.71041 82.70936 51.00788
#
# Poissons Ratio (x) = 0.01064 0.41225
# Poissons Ratio (y) = 0.01141 0.14980
# Poissons Ratio (z) = 0.71697 0.24290
#
# Static dielectric constant tensor:
#      x y z
#    x 1.728300 0.000000 0.000000 
#    y 0.000000 1.768190 0.000000 
#    z 0.000000 0.000000 1.697510 
# 
# From -- ./inp_files/47394.got.cif
#   From: 2010.05.17/outbox.cif.g08.bks.cpg/sg66_24_cif.got.tgz:47394.got - 2010.06.03 17:51:23.
