data_PCOD9498120
_publ_section_title
;
Structure prediction by ZEFSAII (Michael W. Deem and Ramdas Pophale) SiO2 
 PCOD9498120
Probable space group: C C C M
;
_chemical_formula_sum "Si O2"
_cell_formula_units_Z 52
_cell_length_a 24.987302
_cell_length_b 4.895890
_cell_length_c 21.303168
_cell_angle_alpha 90.000000
_cell_angle_beta 90.000000
_cell_angle_gamma 90.000000
_cell_volume 2606.124804
_symmetry_space_group_name_H-M "C C C M"
_symmetry_group_IT_number 66
_symmetry_cell_setting 'orthorhombic'
loop_
_space_group_symop_operation_xyz
x,y,z
-x,-y,z
x,-y,1/2-z
-x,y,1/2-z
-x,-y,-z
x,y,-z
-x,y,1/2+z
x,-y,1/2+z
1/2+x,1/2+y,z
1/2-x,1/2-y,z
1/2+x,1/2-y,1/2-z
1/2-x,1/2+y,1/2-z
1/2-x,1/2-y,-z
1/2+x,1/2+y,-z
1/2-x,1/2+y,1/2+z
1/2+x,1/2-y,1/2+z
loop_
_atom_site_type_symbol
_atom_site_label
_atom_site_fract_x
_atom_site_fract_y
_atom_site_fract_z
Si Si1 0.419126 0.788994 0.848481
Si Si2 0.304893 0.757980 0.794677
Si Si3 0.000000 0.000000 0.750000
Si Si4 0.445484 0.681423 0.572392
O O1 0.360753 0.856966 0.823048
O O2 0.460584 0.679884 0.794836
O O3 0.407111 0.537758 0.895598
O O4 0.442839 0.047289 0.885847
O O5 0.318791 0.500000 0.750000
O O6 0.250000 0.750000 0.836449
O O7 0.287046 0.000000 0.750000
O O8 0.500000 0.500000 0.574404
O O9 0.435598 0.751263 0.500000
#
# Coordination Sequence:
#
# PCOD9498120 Si02
#       4
#    16  16   4  16
#     4  12  24  40  63  91 134 161 199 267 315 378
#     4  10  21  38  61  90 126 167 207 249 311 389
#     4  12  28  38  60 104 134 152 190 256 342 376
#     4  11  25  43  62  88 123 172 218 249 302 377
#
# _framework density 19.952995000000001
#
# number of rings (size 3 to 8) (size 9 to 14) (size 15 to 20)
#    0.000    0.923    3.077    3.692    0.000    3.692 
#    0.000    0.000    0.000    5.538    0.000    0.000 
#    0.000    0.000    0.000    0.000    0.000    0.000 
#
# Total GULP energy -144801.238347 kJ/mol
# GULP energy per Si atom -5569.278398 kJ/mol
# Density = 1.990758 g / cm^3
# Si number density = 19.952995 Si / 1000 Ang^3
#
#
#
# Elastic Constant Matrix: (Units=GPa)
#
#
# Indices 1 2 3 4 5 6 
#
# 1 127.7403 5.6325 45.2321 0.0000 0.0000 0.0000
# 2 5.6325 133.6293 44.9563 0.0000 0.0000 0.0000
# 3 45.2321 44.9563 108.9730 0.0000 0.0000 0.0000
# 4 0.0000 0.0000 0.0000 -17.4631 0.0000 0.0000
# 5 0.0000 0.0000 0.0000 0.0000 -4.9459 0.0000
# 6 0.0000 0.0000 0.0000 0.0000 0.0000 26.4161
#
#
#
# Elastic Compliance Matrix: (Units=1/GPa)
#
#
# Indices 1 2 3 4 5 6 
#
# 1 0.009303 0.001053 -0.004296 0.000000 0.000000 0.000000
# 2 0.001053 0.008809 -0.004071 0.000000 0.000000 0.000000
# 3 -0.004296 -0.004071 0.012639 0.000000 0.000000 0.000000
# 4 0.000000 0.000000 0.000000 -0.057263 0.000000 0.000000
# 5 0.000000 0.000000 0.000000 0.000000 -0.202188 0.000000
# 6 0.000000 0.000000 0.000000 0.000000 0.000000 0.037856
#
#
# Mechanical properties :
#
#
# Convention : Reuss Voigt Hill
#
# Bulk Modulus (GPa) = 62.02259 62.44270 62.23264
# Shear Modulus (GPa) = -29.26664 19.10287 -5.08189
#
# Velocity S-wave (km/s) = -3.83401 3.09753 -1.59764
# Velocity P-wave (km/s) = 3.39887 6.64498 5.27769
#
# Compressibility (1/GPa) = 0.01612316
#
# Stress axis : x y z
#
# Youngs Moduli (GPa) = 107.49075 113.52524 79.11864
#
# Poissons Ratio (x) = -0.11956 0.33989
# Poissons Ratio (y) = -0.11320 0.32210
# Poissons Ratio (z) = 0.46178 0.46217
#
# Static dielectric constant tensor:
#      x y z
#    x 1.924180 0.000000 0.000000 
#    y 0.000000 1.768340 0.000000 
#    z 0.000000 0.000000 1.730750 
# 
# From -- ./inp_files/52165.got.cif
#   From: 2010.05.17/outbox.cif.g08.bks.cpg/sg66_27_cif.got.tgz:52165.got - 2010.06.03 17:51:23.
