data_PCOD9498303
_publ_section_title
;
Structure prediction by ZEFSAII (Michael W. Deem and Ramdas Pophale) SiO2 
 PCOD9498303
Probable space group: C C C M
;
_chemical_formula_sum "Si O2"
_cell_formula_units_Z 64
_cell_length_a 12.171414
_cell_length_b 8.149972
_cell_length_c 26.680586
_cell_angle_alpha 90.000000
_cell_angle_beta 90.000000
_cell_angle_gamma 90.000000
_cell_volume 2646.625640
_symmetry_space_group_name_H-M "C C C M"
_symmetry_group_IT_number 66
_symmetry_cell_setting 'orthorhombic'
loop_
_space_group_symop_operation_xyz
x,y,z
-x,-y,z
x,-y,1/2-z
-x,y,1/2-z
-x,-y,-z
x,y,-z
-x,y,1/2+z
x,-y,1/2+z
1/2+x,1/2+y,z
1/2-x,1/2-y,z
1/2+x,1/2-y,1/2-z
1/2-x,1/2+y,1/2-z
1/2-x,1/2-y,-z
1/2+x,1/2+y,-z
1/2-x,1/2+y,1/2+z
1/2+x,1/2-y,1/2+z
loop_
_atom_site_type_symbol
_atom_site_label
_atom_site_fract_x
_atom_site_fract_y
_atom_site_fract_z
Si Si1 0.833232 0.104276 0.846276
Si Si2 0.123032 0.788648 0.719627
Si Si3 0.663948 0.397628 0.554913
Si Si4 0.966724 0.318233 0.621547
O O1 0.750000 0.250000 0.837469
O O2 0.942116 0.206704 0.854014
O O3 0.860702 0.970936 0.803734
O O4 0.805981 0.014633 0.898929
O O5 0.250000 0.750000 0.739300
O O6 0.116664 0.673611 0.669033
O O7 0.000000 0.768145 0.750000
O O8 0.653234 0.474229 0.500000
O O9 0.750000 0.250000 0.552462
O O10 0.560879 0.292791 0.573634
O O11 0.000000 0.500000 0.607241
#
# Coordination Sequence:
#
# PCOD9498303 Si02
#       4
#    16  16  16  16
#     4  11  23  43  72 101 142 191 239 301 370 438
#     4  11  25  48  75 106 144 187 244 309 375 447
#     4  10  21  39  65  99 139 183 236 298 363 440
#     4  11  23  42  67  97 137 186 237 297 367 436
#
# _framework density 24.181735
#
# number of rings (size 3 to 8) (size 9 to 14) (size 15 to 20)
#    0.000    1.250    0.000    9.000    0.000    6.500 
#    0.000   13.750    0.000    1.500    0.000    0.000 
#    0.000    0.000    0.000    0.000    0.000    0.000 
#
# Total GULP energy -178153.554712 kJ/mol
# GULP energy per Si atom -5567.298585 kJ/mol
# Density = 2.412670 g / cm^3
# Si number density = 24.181735 Si / 1000 Ang^3
#
#
#
# Elastic Constant Matrix: (Units=GPa)
#
#
# Indices 1 2 3 4 5 6 
#
# 1 109.1723 30.3697 45.2179 0.0000 0.0000 0.0000
# 2 30.3697 80.9651 8.8081 0.0000 0.0000 0.0000
# 3 45.2179 8.8081 172.9470 0.0000 0.0000 0.0000
# 4 0.0000 0.0000 0.0000 15.5778 0.0000 0.0000
# 5 0.0000 0.0000 0.0000 0.0000 43.8801 0.0000
# 6 0.0000 0.0000 0.0000 0.0000 0.0000 45.8621
#
#
#
# Elastic Compliance Matrix: (Units=1/GPa)
#
#
# Indices 1 2 3 4 5 6 
#
# 1 0.011420 -0.003981 -0.002783 0.000000 0.000000 0.000000
# 2 -0.003981 0.013807 0.000338 0.000000 0.000000 0.000000
# 3 -0.002783 0.000338 0.006493 0.000000 0.000000 0.000000
# 4 0.000000 0.000000 0.000000 0.064194 0.000000 0.000000
# 5 0.000000 0.000000 0.000000 0.000000 0.022789 0.000000
# 6 0.000000 0.000000 0.000000 0.000000 0.000000 0.021804
#
#
# Mechanical properties :
#
#
# Convention : Reuss Voigt Hill
#
# Bulk Modulus (GPa) = 53.00145 59.09734 56.04939
# Shear Modulus (GPa) = 31.31862 39.64325 35.48093
#
# Velocity S-wave (km/s) = 3.60270 4.05333 3.83464
# Velocity P-wave (km/s) = 6.26670 6.81160 6.54482
#
# Compressibility (1/GPa) = 0.01886741
#
# Stress axis : x y z
#
# Youngs Moduli (GPa) = 87.56618 72.42465 154.02216
#
# Poissons Ratio (x) = 0.28831 0.42865
# Poissons Ratio (y) = 0.34858 -0.05200
# Poissons Ratio (z) = 0.24370 -0.02445
#
# Static dielectric constant tensor:
#      x y z
#    x 2.119360 0.000000 0.000000 
#    y 0.000000 1.935490 0.000000 
#    z 0.000000 0.000000 2.111450 
# 
# From -- ./inp_files/68585.got.cif
#   From: 2010.05.17/outbox.cif.g08.bks.cpg/sg66_35_cif.got.tgz:68585.got - 2010.06.03 17:51:23.
