data_PCOD9498435
_publ_section_title
;
Structure prediction by ZEFSAII (Michael W. Deem and Ramdas Pophale) SiO2 
 PCOD9498435
Probable space group: C C C M
;
_chemical_formula_sum "Si O2"
_cell_formula_units_Z 56
_cell_length_a 12.024274
_cell_length_b 13.464334
_cell_length_c 16.658951
_cell_angle_alpha 90.000000
_cell_angle_beta 90.000000
_cell_angle_gamma 90.000000
_cell_volume 2697.064863
_symmetry_space_group_name_H-M "C C C M"
_symmetry_group_IT_number 66
_symmetry_cell_setting 'orthorhombic'
loop_
_space_group_symop_operation_xyz
x,y,z
-x,-y,z
x,-y,1/2-z
-x,y,1/2-z
-x,-y,-z
x,y,-z
-x,y,1/2+z
x,-y,1/2+z
1/2+x,1/2+y,z
1/2-x,1/2-y,z
1/2+x,1/2-y,1/2-z
1/2-x,1/2+y,1/2-z
1/2-x,1/2-y,-z
1/2+x,1/2+y,-z
1/2-x,1/2+y,1/2+z
1/2+x,1/2-y,1/2+z
loop_
_atom_site_type_symbol
_atom_site_label
_atom_site_fract_x
_atom_site_fract_y
_atom_site_fract_z
Si Si1 0.634521 0.403010 0.701760
Si Si2 0.516977 0.742009 0.403070
Si Si3 0.250000 0.250000 0.324379
Si Si4 0.311553 0.140964 0.909945
O O1 0.605653 0.500000 0.750000
O O2 0.535798 0.347525 0.651758
O O3 0.698751 0.330699 0.763322
O O4 0.731517 0.429325 0.638797
O O5 0.505535 0.722459 0.500000
O O6 0.642231 0.769248 0.379692
O O7 0.434719 0.833249 0.381411
O O8 0.250000 0.250000 0.909904
O O9 0.318501 0.105092 0.000000
#
# Coordination Sequence:
#
# PCOD9498435 Si02
#       4
#    16  16   8  16
#     4  11  22  38  66  98 126 162 219 269 320 377
#     4  10  21  41  65  89 127 178 213 255 323 390
#     4  12  23  38  61  96 134 162 216 278 313 364
#     4   8  15  34  62  87 116 164 211 250 308 381
#
# _framework density 20.763313
#
# number of rings (size 3 to 8) (size 9 to 14) (size 15 to 20)
#    0.000    2.000    4.286    3.857    0.000    2.286 
#    0.000   10.000    0.000    3.429    0.000    0.000 
#    0.000    0.000    0.000    0.000    0.000    0.000 
#
# Total GULP energy -155932.070840 kJ/mol
# GULP energy per Si atom -5569.002530 kJ/mol
# Density = 2.071605 g / cm^3
# Si number density = 20.763313 Si / 1000 Ang^3
#
#
#
# Elastic Constant Matrix: (Units=GPa)
#
#
# Indices 1 2 3 4 5 6 
#
# 1 217.9988 35.9414 63.8804 0.0000 0.0000 0.0000
# 2 35.9414 50.7415 40.6653 0.0000 0.0000 0.0000
# 3 63.8804 40.6653 90.7158 0.0000 0.0000 0.0000
# 4 0.0000 0.0000 0.0000 23.0734 0.0000 0.0000
# 5 0.0000 0.0000 0.0000 0.0000 21.2723 0.0000
# 6 0.0000 0.0000 0.0000 0.0000 0.0000 5.4533
#
#
#
# Elastic Compliance Matrix: (Units=1/GPa)
#
#
# Indices 1 2 3 4 5 6 
#
# 1 0.005835 -0.001311 -0.003521 0.000000 0.000000 0.000000
# 2 -0.001311 0.031052 -0.012996 0.000000 0.000000 0.000000
# 3 -0.003521 -0.012996 0.019329 0.000000 0.000000 0.000000
# 4 0.000000 0.000000 0.000000 0.043340 0.000000 0.000000
# 5 0.000000 0.000000 0.000000 0.000000 0.047010 0.000000
# 6 0.000000 0.000000 0.000000 0.000000 0.000000 0.183375
#
#
# Mechanical properties :
#
#
# Convention : Reuss Voigt Hill
#
# Bulk Modulus (GPa) = 48.64173 71.15890 59.90032
# Shear Modulus (GPa) = 13.42457 24.55773 18.99115
#
# Velocity S-wave (km/s) = 2.54550 3.44284 3.02760
# Velocity P-wave (km/s) = 5.66719 7.08167 6.41354
#
# Compressibility (1/GPa) = 0.02055848
#
# Stress axis : x y z
#
# Youngs Moduli (GPa) = 171.37372 32.20390 51.73570
#
# Poissons Ratio (x) = 0.04223 0.18218
# Poissons Ratio (y) = 0.22470 0.67238
# Poissons Ratio (z) = 0.60345 0.41854
#
# Static dielectric constant tensor:
#      x y z
#    x 1.845340 0.000000 0.000000 
#    y 0.000000 1.815560 0.000000 
#    z 0.000000 0.000000 1.828970 
# 
# From -- ./inp_files/37829.got.cif
#   From: 2010.05.17/outbox.cif.g08.bks.cpg/sg66_19_cif.got.tgz:37829.got - 2010.06.03 17:51:23.
