data_PCOD9498842
_publ_section_title
;
Structure prediction by ZEFSAII (Michael W. Deem and Ramdas Pophale) SiO2 
 PCOD9498842
Probable space group: C C C M
;
_chemical_formula_sum "Si O2"
_cell_formula_units_Z 96
_cell_length_a 13.582431
_cell_length_b 14.506465
_cell_length_c 22.595882
_cell_angle_alpha 90.000000
_cell_angle_beta 90.000000
_cell_angle_gamma 90.000000
_cell_volume 4452.135772
_symmetry_space_group_name_H-M "C C C M"
_symmetry_group_IT_number 66
_symmetry_cell_setting 'orthorhombic'
loop_
_space_group_symop_operation_xyz
x,y,z
-x,-y,z
x,-y,1/2-z
-x,y,1/2-z
-x,-y,-z
x,y,-z
-x,y,1/2+z
x,-y,1/2+z
1/2+x,1/2+y,z
1/2-x,1/2-y,z
1/2+x,1/2-y,1/2-z
1/2-x,1/2+y,1/2-z
1/2-x,1/2-y,-z
1/2+x,1/2+y,-z
1/2-x,1/2+y,1/2+z
1/2+x,1/2-y,1/2+z
loop_
_atom_site_type_symbol
_atom_site_label
_atom_site_fract_x
_atom_site_fract_y
_atom_site_fract_z
Si Si1 0.353959 0.699557 0.873006
Si Si2 0.913104 0.205149 0.500000
Si Si3 0.727934 0.408616 0.215749
Si Si4 0.255865 0.942539 0.500000
Si Si5 0.885171 0.358216 0.599577
Si Si6 0.950733 0.365090 0.185599
Si Si7 0.250000 0.250000 0.193261
Si Si8 0.616029 0.375758 0.000000
O O1 0.250000 0.750000 0.862552
O O2 0.341718 0.602732 0.840574
O O3 0.432495 0.762063 0.839614
O O4 0.363202 0.683524 0.941742
O O5 0.811477 0.149326 0.500000
O O6 0.917807 0.275122 0.555543
O O7 0.996560 0.125351 0.500000
O O8 0.708550 0.500000 0.250000
O O9 0.842323 0.407700 0.194718
O O10 0.706276 0.324669 0.261031
O O11 0.324356 0.930020 0.558509
O O12 0.185181 0.032864 0.500000
O O13 0.819945 0.308975 0.650339
O O14 0.975439 0.402399 0.635612
O O15 0.000000 0.366964 0.250000
#
# Coordination Sequence:
#
# PCOD9498842 Si02
#       8
#    16   8  16   8  16  16   8   8
#     4  10  22  42  62  90 124 174 223 258 325 399
#     4  11  21  40  64  92 121 172 223 265 329 396
#     4  11  24  40  65  98 131 168 218 271 328 393
#     4  11  25  40  59 103 129 163 219 279 333 395
#     4  11  21  39  67  91 128 171 219 265 334 404
#     4  11  20  38  65  93 125 170 219 269 323 398
#     4  12  20  41  68  91 126 180 206 268 340 390
#     4  12  24  38  65  89 131 170 214 282 327 381
#
# _framework density 21.562684999999998
#
# number of rings (size 3 to 8) (size 9 to 14) (size 15 to 20)
#    0.000    1.000    7.500    1.000    2.333    0.333 
#    0.000    0.000    0.000    5.000    0.000    0.000 
#    0.000    0.000    0.000    0.000    0.000    0.000 
#
# Total GULP energy -267866.701440 kJ/mol
# GULP energy per Si atom -5580.556280 kJ/mol
# Density = 2.151361 g / cm^3
# Si number density = 21.562685 Si / 1000 Ang^3
#
#
#
# Elastic Constant Matrix: (Units=GPa)
#
#
# Indices 1 2 3 4 5 6 
#
# 1 64.0146 7.2218 25.7170 0.0000 0.0000 0.0000
# 2 7.2218 67.7478 12.5501 0.0000 0.0000 0.0000
# 3 25.7170 12.5501 132.1248 0.0000 0.0000 0.0000
# 4 0.0000 0.0000 0.0000 1.2567 0.0000 0.0000
# 5 0.0000 0.0000 0.0000 0.0000 39.7049 0.0000
# 6 0.0000 0.0000 0.0000 0.0000 0.0000 25.1979
#
#
#
# Elastic Compliance Matrix: (Units=1/GPa)
#
#
# Indices 1 2 3 4 5 6 
#
# 1 0.017046 -0.001224 -0.003202 0.000000 0.000000 0.000000
# 2 -0.001224 0.015113 -0.001197 0.000000 0.000000 0.000000
# 3 -0.003202 -0.001197 0.008305 0.000000 0.000000 0.000000
# 4 0.000000 0.000000 0.000000 0.795739 0.000000 0.000000
# 5 0.000000 0.000000 0.000000 0.000000 0.025186 0.000000
# 6 0.000000 0.000000 0.000000 0.000000 0.000000 0.039686
#
#
# Mechanical properties :
#
#
# Convention : Reuss Voigt Hill
#
# Bulk Modulus (GPa) = 34.22492 39.42944 36.82718
# Shear Modulus (GPa) = 5.42264 27.79178 16.60721
#
# Velocity S-wave (km/s) = 1.58754 3.59400 2.77823
# Velocity P-wave (km/s) = 4.38943 5.96222 5.23523
#
# Compressibility (1/GPa) = 0.02921848
#
# Stress axis : x y z
#
# Youngs Moduli (GPa) = 58.66579 66.16868 120.40239
#
# Poissons Ratio (x) = 0.08099 0.38547
# Poissons Ratio (y) = 0.07181 0.14416
# Poissons Ratio (z) = 0.18782 0.07922
#
# Static dielectric constant tensor:
#      x y z
#    x 1.833180 0.000000 0.000000 
#    y 0.000000 1.817530 0.000000 
#    z 0.000000 0.000000 1.796000 
# 
# From -- ./inp_files/49936.got.cif
#   From: 2010.05.17/outbox.cif.g08.bks.cpg/sg66_25_cif.got.tgz:49936.got - 2010.06.03 17:51:23.
