data_PCOD9498190
_publ_section_title
;
Structure prediction by ZEFSAII (Michael W. Deem and Ramdas Pophale) SiO2 
 PCOD9498190
Probable space group: C C C M
;
_chemical_formula_sum "Si O2"
_cell_formula_units_Z 96
_cell_length_a 11.721737
_cell_length_b 21.276787
_cell_length_c 20.941180
_cell_angle_alpha 90.000000
_cell_angle_beta 90.000000
_cell_angle_gamma 90.000000
_cell_volume 5222.749169
_symmetry_space_group_name_H-M "C C C M"
_symmetry_group_IT_number 66
_symmetry_cell_setting 'orthorhombic'
loop_
_space_group_symop_operation_xyz
x,y,z
-x,-y,z
x,-y,1/2-z
-x,y,1/2-z
-x,-y,-z
x,y,-z
-x,y,1/2+z
x,-y,1/2+z
1/2+x,1/2+y,z
1/2-x,1/2-y,z
1/2+x,1/2-y,1/2-z
1/2-x,1/2+y,1/2-z
1/2-x,1/2-y,-z
1/2+x,1/2+y,-z
1/2-x,1/2+y,1/2+z
1/2+x,1/2-y,1/2+z
loop_
_atom_site_type_symbol
_atom_site_label
_atom_site_fract_x
_atom_site_fract_y
_atom_site_fract_z
Si Si1 0.977399 0.842908 0.819978
Si Si2 0.619356 0.270410 0.431466
Si Si3 0.230325 0.178436 0.332706
Si Si4 0.543175 0.071316 0.319243
Si Si5 0.711264 0.571272 0.225064
Si Si6 0.563170 0.842813 0.426280
O O1 0.892970 0.808939 0.867180
O O2 0.910626 0.907204 0.803316
O O3 0.000000 0.812959 0.750000
O O4 0.100189 0.836384 0.853248
O O5 0.595111 0.303174 0.500000
O O6 0.750000 0.250000 0.434009
O O7 0.527906 0.214120 0.426552
O O8 0.250000 0.250000 0.307075
O O9 0.243162 0.123336 0.279546
O O10 0.318530 0.174212 0.391111
O O11 0.500000 0.097504 0.250000
O O12 0.680003 0.073669 0.321222
O O13 0.490698 0.105810 0.379514
O O14 0.500000 0.000000 0.319877
O O15 0.704892 0.500000 0.250000
O O16 0.580316 0.861735 0.500000
#
# Coordination Sequence:
#
# PCOD9498190 Si02
#       6
#    16  16  16  16  16  16
#     4  10  23  36  58  91 119 162 211 265 319 376
#     4  10  21  39  58  84 123 166 208 257 328 387
#     4  11  22  39  58  88 127 167 216 268 327 385
#     4  11  20  38  64  91 123 166 207 262 333 384
#     4  11  22  41  64  93 132 170 215 274 332 395
#     4  11  23  37  61  91 125 170 214 268 323 393
#
# _framework density 18.381124
#
# number of rings (size 3 to 8) (size 9 to 14) (size 15 to 20)
#    0.000    1.333    5.000    1.000    0.000   10.333 
#    0.000    0.000    0.000    1.000    0.000    9.333 
#    0.000    0.000    0.000    0.000    0.000    0.000 
#
# Total GULP energy -267211.285574 kJ/mol
# GULP energy per Si atom -5566.901783 kJ/mol
# Density = 1.833929 g / cm^3
# Si number density = 18.381124 Si / 1000 Ang^3
#
#
#
# Elastic Constant Matrix: (Units=GPa)
#
#
# Indices 1 2 3 4 5 6 
#
# 1 146.4961 33.2542 31.1329 0.0000 0.0000 0.0000
# 2 33.2542 91.3039 57.9078 0.0000 0.0000 0.0000
# 3 31.1329 57.9078 107.0550 0.0000 0.0000 0.0000
# 4 0.0000 0.0000 0.0000 18.4443 0.0000 0.0000
# 5 0.0000 0.0000 0.0000 0.0000 90.8342 0.0000
# 6 0.0000 0.0000 0.0000 0.0000 0.0000 30.6348
#
#
#
# Elastic Compliance Matrix: (Units=1/GPa)
#
#
# Indices 1 2 3 4 5 6 
#
# 1 0.007522 -0.002058 -0.001074 0.000000 0.000000 0.000000
# 2 -0.002058 0.017235 -0.008724 0.000000 0.000000 0.000000
# 3 -0.001074 -0.008724 0.014372 0.000000 0.000000 0.000000
# 4 0.000000 0.000000 0.000000 0.054217 0.000000 0.000000
# 5 0.000000 0.000000 0.000000 0.000000 0.011009 0.000000
# 6 0.000000 0.000000 0.000000 0.000000 0.000000 0.032643
#
#
# Mechanical properties :
#
#
# Convention : Reuss Voigt Hill
#
# Bulk Modulus (GPa) = 64.86698 65.49385 65.18042
# Shear Modulus (GPa) = 30.14771 42.82001 36.48386
#
# Velocity S-wave (km/s) = 4.05426 4.83179 4.46000
# Velocity P-wave (km/s) = 7.56853 8.17537 7.87780
#
# Compressibility (1/GPa) = 0.01541616
#
# Stress axis : x y z
#
# Youngs Moduli (GPa) = 132.95052 58.02045 69.57764
#
# Poissons Ratio (x) = 0.11942 0.07473
# Poissons Ratio (y) = 0.27365 0.60701
# Poissons Ratio (z) = 0.14279 0.50619
#
# Static dielectric constant tensor:
#      x y z
#    x 1.692290 0.000000 0.000000 
#    y 0.000000 1.653390 0.000000 
#    z 0.000000 0.000000 1.651540 
# 
# From -- ./inp_files/48807.got.cif
#   From: 2010.05.17/outbox.cif.g08.bks.cpg/sg66_25_cif.got.tgz:48807.got - 2010.06.03 17:51:23.
