data_PCOD9498799
_publ_section_title
;
Structure prediction by ZEFSAII (Michael W. Deem and Ramdas Pophale) SiO2 
 PCOD9498799
Probable space group: C C C M
;
_chemical_formula_sum "Si O2"
_cell_formula_units_Z 96
_cell_length_a 15.417328
_cell_length_b 20.039031
_cell_length_c 15.204604
_cell_angle_alpha 90.000000
_cell_angle_beta 90.000000
_cell_angle_gamma 90.000000
_cell_volume 4697.436767
_symmetry_space_group_name_H-M "C C C M"
_symmetry_group_IT_number 66
_symmetry_cell_setting 'orthorhombic'
loop_
_space_group_symop_operation_xyz
x,y,z
-x,-y,z
x,-y,1/2-z
-x,y,1/2-z
-x,-y,-z
x,y,-z
-x,y,1/2+z
x,-y,1/2+z
1/2+x,1/2+y,z
1/2-x,1/2-y,z
1/2+x,1/2-y,1/2-z
1/2-x,1/2+y,1/2-z
1/2-x,1/2-y,-z
1/2+x,1/2+y,-z
1/2-x,1/2+y,1/2+z
1/2+x,1/2-y,1/2+z
loop_
_atom_site_type_symbol
_atom_site_label
_atom_site_fract_x
_atom_site_fract_y
_atom_site_fract_z
Si Si1 0.449107 0.563198 0.844255
Si Si2 0.921442 0.785017 0.400546
Si Si3 0.183994 0.301758 0.254523
Si Si4 0.946616 0.674335 0.898362
Si Si5 0.935896 0.555013 0.397086
Si Si6 0.746423 0.943551 0.320646
O O1 0.500000 0.500000 0.886730
O O2 0.500000 0.570644 0.750000
O O3 0.442209 0.637469 0.883736
O O4 0.347105 0.544383 0.841722
O O5 0.884816 0.776801 0.500000
O O6 0.862838 0.744937 0.329060
O O7 0.013459 0.747707 0.398193
O O8 0.250000 0.250000 0.210823
O O9 0.123232 0.329958 0.177764
O O10 0.233969 0.366201 0.292776
O O11 0.026269 0.626363 0.870093
O O12 0.919478 0.658747 0.000000
O O13 0.950820 0.553930 0.500000
O O14 0.833927 0.546607 0.386076
O O15 0.000000 0.500000 0.356234
O O16 0.725255 0.000000 0.250000
#
# Coordination Sequence:
#
# PCOD9498799 Si02
#       6
#    16  16  16  16  16  16
#     4  11  23  45  70  92 137 186 237 298 349 415
#     4  11  24  42  68  99 133 181 237 289 353 420
#     4  12  24  40  67 100 137 181 233 293 348 415
#     4  10  22  41  65  96 136 179 223 280 354 420
#     4  10  22  41  64  96 136 175 215 278 351 426
#     4  12  24  39  66 104 129 181 235 283 352 433
#
# _framework density 20.436677
#
# number of rings (size 3 to 8) (size 9 to 14) (size 15 to 20)
#    0.000    1.000    5.000    2.500    0.000    3.333 
#    0.000    0.000    0.000    0.000    0.000    0.000 
#    0.000    0.000    0.000    0.000    0.000    0.000 
#
# Total GULP energy -267235.340902 kJ/mol
# GULP energy per Si atom -5567.402935 kJ/mol
# Density = 2.039016 g / cm^3
# Si number density = 20.436677 Si / 1000 Ang^3
#
#
#
# Elastic Constant Matrix: (Units=GPa)
#
#
# Indices 1 2 3 4 5 6 
#
# 1 127.6019 31.3631 34.8362 0.0000 0.0000 0.0000
# 2 31.3631 127.9178 19.9605 0.0000 0.0000 0.0000
# 3 34.8362 19.9605 64.4754 0.0000 0.0000 0.0000
# 4 0.0000 0.0000 0.0000 1.0005 0.0000 0.0000
# 5 0.0000 0.0000 0.0000 0.0000 10.0853 0.0000
# 6 0.0000 0.0000 0.0000 0.0000 0.0000 44.1231
#
#
#
# Elastic Compliance Matrix: (Units=1/GPa)
#
#
# Indices 1 2 3 4 5 6 
#
# 1 0.009497 -0.001605 -0.004634 0.000000 0.000000 0.000000
# 2 -0.001605 0.008486 -0.001760 0.000000 0.000000 0.000000
# 3 -0.004634 -0.001760 0.018558 0.000000 0.000000 0.000000
# 4 0.000000 0.000000 0.000000 0.999543 0.000000 0.000000
# 5 0.000000 0.000000 0.000000 0.000000 0.099155 0.000000
# 6 0.000000 0.000000 0.000000 0.000000 0.000000 0.022664
#
#
# Mechanical properties :
#
#
# Convention : Reuss Voigt Hill
#
# Bulk Modulus (GPa) = 48.67942 54.70163 51.69053
# Shear Modulus (GPa) = 4.23460 26.63078 15.43269
#
# Velocity S-wave (km/s) = 1.44103 3.61375 2.75097
# Velocity P-wave (km/s) = 5.16140 6.65107 5.95302
#
# Compressibility (1/GPa) = 0.02054256
#
# Stress axis : x y z
#
# Youngs Moduli (GPa) = 105.30125 117.84542 53.88412
#
# Poissons Ratio (x) = 0.18917 0.24970
# Poissons Ratio (y) = 0.16904 0.09482
# Poissons Ratio (z) = 0.48797 0.20737
#
# Static dielectric constant tensor:
#      x y z
#    x 1.786360 0.000000 0.000000 
#    y 0.000000 1.748280 0.000000 
#    z 0.000000 0.000000 1.760230 
# 
# From -- ./inp_files/28365.got.cif
#   From: 2010.05.17/outbox.cif.g08.bks.cpg/sg66_15_cif.got.tgz:28365.got - 2010.06.03 17:51:23.
