data_PCOD9498353
_publ_section_title
;
Structure prediction by ZEFSAII (Michael W. Deem and Ramdas Pophale) SiO2 
 PCOD9498353
Probable space group: C C C M
;
_chemical_formula_sum "Si O2"
_cell_formula_units_Z 120
_cell_length_a 11.601666
_cell_length_b 26.315537
_cell_length_c 18.860292
_cell_angle_alpha 90.000000
_cell_angle_beta 90.000000
_cell_angle_gamma 90.000000
_cell_volume 5758.123926
_symmetry_space_group_name_H-M "C C C M"
_symmetry_group_IT_number 66
_symmetry_cell_setting 'orthorhombic'
loop_
_space_group_symop_operation_xyz
x,y,z
-x,-y,z
x,-y,1/2-z
-x,y,1/2-z
-x,-y,-z
x,y,-z
-x,y,1/2+z
x,-y,1/2+z
1/2+x,1/2+y,z
1/2-x,1/2-y,z
1/2+x,1/2-y,1/2-z
1/2-x,1/2+y,1/2-z
1/2-x,1/2-y,-z
1/2+x,1/2+y,-z
1/2-x,1/2+y,1/2+z
1/2+x,1/2-y,1/2+z
loop_
_atom_site_type_symbol
_atom_site_label
_atom_site_fract_x
_atom_site_fract_y
_atom_site_fract_z
Si Si1 0.559977 0.110252 0.582613
Si Si2 0.267867 0.534738 0.584763
Si Si3 0.702481 0.920462 0.582717
Si Si4 0.657144 0.357165 0.805137
Si Si5 0.897126 0.115112 0.346662
Si Si6 0.361815 0.285211 0.078848
Si Si7 0.750000 0.250000 0.173831
Si Si8 0.009274 0.710586 0.835052
O O1 0.580059 0.124983 0.500000
O O2 0.659680 0.071075 0.604525
O O3 0.435830 0.082716 0.586077
O O4 0.545271 0.160706 0.629379
O O5 0.277203 0.536526 0.500000
O O6 0.244445 0.476617 0.603766
O O7 0.379630 0.560343 0.619100
O O8 0.734806 0.910695 0.500000
O O9 0.758215 0.880571 0.636558
O O10 0.663505 0.384260 0.729544
O O11 0.528396 0.367256 0.834236
O O12 0.687101 0.298050 0.789591
O O13 0.840017 0.157230 0.397811
O O14 0.250000 0.250000 0.076506
O O15 0.440586 0.259020 0.137212
O O16 0.414687 0.284796 0.000000
O O17 0.859619 0.278376 0.139280
O O18 0.000000 0.706132 0.750000
#
# Coordination Sequence:
#
# PCOD9498353 Si02
#       8
#    16  16  16  16  16  16   8  16
#     4  10  21  40  63  96 131 162 210 268 322 379
#     4  10  22  41  68  95 124 168 214 265 325 378
#     4  10  22  42  66  94 129 168 212 263 322 388
#     4  11  25  44  64  93 126 168 215 261 322 384
#     4  11  24  42  64  91 128 164 211 269 316 379
#     4  11  24  41  63  92 127 168 216 268 317 376
#     4  12  24  44  61  90 129 170 212 252 324 390
#     4  12  25  39  65  94 129 172 214 263 324 395
#
# _framework density 20.840122000000001
#
# number of rings (size 3 to 8) (size 9 to 14) (size 15 to 20)
#    0.000    1.200    2.667    2.800    5.600    5.867 
#    0.000    4.333    0.000    2.400    0.000    0.000 
#    0.000    0.000    0.000    0.000    0.000    0.000 
#
# Total GULP energy -335062.389880 kJ/mol
# GULP energy per Si atom -5584.373165 kJ/mol
# Density = 2.079269 g / cm^3
# Si number density = 20.840122 Si / 1000 Ang^3
#
#
#
# Elastic Constant Matrix: (Units=GPa)
#
#
# Indices 1 2 3 4 5 6 
#
# 1 59.7196 13.7016 22.6017 0.0000 0.0000 0.0000
# 2 13.7016 117.8605 41.7292 0.0000 0.0000 0.0000
# 3 22.6017 41.7292 72.6054 0.0000 0.0000 0.0000
# 4 0.0000 0.0000 0.0000 -28.4026 0.0000 0.0000
# 5 0.0000 0.0000 0.0000 0.0000 -1.2390 0.0000
# 6 0.0000 0.0000 0.0000 0.0000 0.0000 30.5412
#
#
#
# Elastic Compliance Matrix: (Units=1/GPa)
#
#
# Indices 1 2 3 4 5 6 
#
# 1 0.018983 -0.000144 -0.005827 0.000000 0.000000 0.000000
# 2 -0.000144 0.010653 -0.006078 0.000000 0.000000 0.000000
# 3 -0.005827 -0.006078 0.019080 0.000000 0.000000 0.000000
# 4 0.000000 0.000000 0.000000 -0.035208 0.000000 0.000000
# 5 0.000000 0.000000 0.000000 0.000000 -0.807115 0.000000
# 6 0.000000 0.000000 0.000000 0.000000 0.000000 0.032743
#
#
# Mechanical properties :
#
#
# Convention : Reuss Voigt Hill
#
# Bulk Modulus (GPa) = 40.61839 45.13894 42.87867
# Shear Modulus (GPa) = -6.86285 11.65677 2.39696
#
# Velocity S-wave (km/s) = -1.81666 2.36761 1.07362
# Velocity P-wave (km/s) = 3.89005 5.40192 4.70708
#
# Compressibility (1/GPa) = 0.02461939
#
# Stress axis : x y z
#
# Youngs Moduli (GPa) = 52.67836 93.86742 52.41025
#
# Poissons Ratio (x) = 0.01350 0.30538
# Poissons Ratio (y) = 0.00758 0.31856
# Poissons Ratio (z) = 0.30694 0.57054
#
# Static dielectric constant tensor:
#      x y z
#    x 1.798830 0.000000 0.000000 
#    y 0.000000 1.726530 0.000000 
#    z 0.000000 0.000000 1.723820 
# 
# From -- ./inp_files/49087.got.cif
#   From: 2010.05.17/outbox.cif.g08.bks.cpg/sg66_25_cif.got.tgz:49087.got - 2010.06.03 17:51:23.
