data_PCOD9498145
_publ_section_title
;
Structure prediction by ZEFSAII (Michael W. Deem and Ramdas Pophale) SiO2 
 PCOD9498145
Probable space group: C C C M
;
_chemical_formula_sum "Si O2"
_cell_formula_units_Z 80
_cell_length_a 14.958948
_cell_length_b 29.320661
_cell_length_c 8.719220
_cell_angle_alpha 90.000000
_cell_angle_beta 90.000000
_cell_angle_gamma 90.000000
_cell_volume 3824.304328
_symmetry_space_group_name_H-M "C C C M"
_symmetry_group_IT_number 66
_symmetry_cell_setting 'orthorhombic'
loop_
_space_group_symop_operation_xyz
x,y,z
-x,-y,z
x,-y,1/2-z
-x,y,1/2-z
-x,-y,-z
x,y,-z
-x,y,1/2+z
x,-y,1/2+z
1/2+x,1/2+y,z
1/2-x,1/2-y,z
1/2+x,1/2-y,1/2-z
1/2-x,1/2+y,1/2-z
1/2-x,1/2-y,-z
1/2+x,1/2+y,-z
1/2-x,1/2+y,1/2+z
1/2+x,1/2-y,1/2+z
loop_
_atom_site_type_symbol
_atom_site_label
_atom_site_fract_x
_atom_site_fract_y
_atom_site_fract_z
Si Si1 0.400466 0.909557 0.181991
Si Si2 0.848664 0.228913 0.172528
Si Si3 0.595931 0.180472 0.679319
Si Si4 0.284218 0.451353 0.684413
Si Si5 0.601242 0.632666 0.184885
O O1 0.500000 0.919473 0.250000
O O2 0.355353 0.861289 0.237055
O O3 0.321641 0.944760 0.220452
O O4 0.412076 0.906870 0.000000
O O5 0.750000 0.250000 0.157964
O O6 0.889571 0.267167 0.281542
O O7 0.856740 0.179427 0.246485
O O8 0.888436 0.228495 0.000000
O O9 0.500000 0.171406 0.750000
O O10 0.602055 0.173115 0.500000
O O11 0.313779 0.500000 0.750000
O O12 0.293714 0.449473 0.500000
O O13 0.342046 0.410671 0.758110
O O14 0.500000 0.629949 0.250000
O O15 0.600407 0.634906 0.000000
#
# Coordination Sequence:
#
# PCOD9498145 Si02
#       5
#    16  16  16  16  16
#     4  10  21  38  62  93 131 171 212 260 316 383
#     4  11  23  39  60  88 125 165 205 252 307 368
#     4  11  21  34  55  83 118 158 200 242 290 354
#     4  11  25  45  68  95 126 163 211 268 329 389
#     4  12  26  45  69  96 129 169 217 271 325 384
#
# _framework density 20.918838000000001
#
# number of rings (size 3 to 8) (size 9 to 14) (size 15 to 20)
#    0.000    1.000    0.000    8.400    0.000   10.400 
#    0.000    4.000    0.000    0.000    0.000    0.000 
#    0.000    0.000    0.000    0.000    0.000    0.000 
#
# Total GULP energy -223172.408174 kJ/mol
# GULP energy per Si atom -5579.310204 kJ/mol
# Density = 2.087123 g / cm^3
# Si number density = 20.918838 Si / 1000 Ang^3
#
#
#
# Elastic Constant Matrix: (Units=GPa)
#
#
# Indices 1 2 3 4 5 6 
#
# 1 94.2711 50.0487 46.5738 0.0000 0.0000 0.0000
# 2 50.0487 158.9343 45.1101 0.0000 0.0000 0.0000
# 3 46.5738 45.1101 107.1741 0.0000 0.0000 0.0000
# 4 0.0000 0.0000 0.0000 35.0805 0.0000 0.0000
# 5 0.0000 0.0000 0.0000 0.0000 5.6556 0.0000
# 6 0.0000 0.0000 0.0000 0.0000 0.0000 18.1204
#
#
#
# Elastic Compliance Matrix: (Units=1/GPa)
#
#
# Indices 1 2 3 4 5 6 
#
# 1 0.014835 -0.003227 -0.005088 0.000000 0.000000 0.000000
# 2 -0.003227 0.007848 -0.001901 0.000000 0.000000 0.000000
# 3 -0.005088 -0.001901 0.012342 0.000000 0.000000 0.000000
# 4 0.000000 0.000000 0.000000 0.028506 0.000000 0.000000
# 5 0.000000 0.000000 0.000000 0.000000 0.176817 0.000000
# 6 0.000000 0.000000 0.000000 0.000000 0.000000 0.055187
#
#
# Mechanical properties :
#
#
# Convention : Reuss Voigt Hill
#
# Bulk Modulus (GPa) = 68.53154 71.53831 70.03492
# Shear Modulus (GPa) = 15.58456 26.34775 20.96615
#
# Velocity S-wave (km/s) = 2.73243 3.55283 3.16929
# Velocity P-wave (km/s) = 6.54116 7.14859 6.85161
#
# Compressibility (1/GPa) = 0.01459182
#
# Stress axis : x y z
#
# Youngs Moduli (GPa) = 67.40852 127.42644 81.02562
#
# Poissons Ratio (x) = 0.41125 0.41228
# Poissons Ratio (y) = 0.21755 0.15400
# Poissons Ratio (z) = 0.34299 0.24219
#
# Static dielectric constant tensor:
#      x y z
#    x 1.379150 0.000000 0.000000 
#    y 0.000000 1.905330 0.000000 
#    z 0.000000 0.000000 1.727220 
# 
# From -- ./inp_files/6701.got.cif
#   From: 2010.05.17/outbox.cif.g08.bks.cpg/sg66_4_cif.got.tgz:6701.got - 2010.06.03 17:51:23.
