data_PCOD9498761
_publ_section_title
;
Structure prediction by ZEFSAII (Michael W. Deem and Ramdas Pophale) SiO2 
 PCOD9498761
Probable space group: C C C M
;
_chemical_formula_sum "Si O2"
_cell_formula_units_Z 112
_cell_length_a 20.884339
_cell_length_b 14.937117
_cell_length_c 15.294721
_cell_angle_alpha 90.000000
_cell_angle_beta 90.000000
_cell_angle_gamma 90.000000
_cell_volume 4771.215978
_symmetry_space_group_name_H-M "C C C M"
_symmetry_group_IT_number 66
_symmetry_cell_setting 'orthorhombic'
loop_
_space_group_symop_operation_xyz
x,y,z
-x,-y,z
x,-y,1/2-z
-x,y,1/2-z
-x,-y,-z
x,y,-z
-x,y,1/2+z
x,-y,1/2+z
1/2+x,1/2+y,z
1/2-x,1/2-y,z
1/2+x,1/2-y,1/2-z
1/2-x,1/2+y,1/2-z
1/2-x,1/2-y,-z
1/2+x,1/2+y,-z
1/2-x,1/2+y,1/2+z
1/2+x,1/2-y,1/2+z
loop_
_atom_site_type_symbol
_atom_site_label
_atom_site_fract_x
_atom_site_fract_y
_atom_site_fract_z
Si Si1 0.102614 0.689625 0.782063
Si Si2 0.654242 0.344302 0.900088
Si Si3 0.741060 0.106773 0.758373
Si Si4 0.073723 0.528488 0.904969
Si Si5 0.402302 0.829596 0.596852
Si Si6 0.425610 0.486705 0.145276
Si Si7 0.672466 0.342781 0.404850
O O1 0.110686 0.774925 0.844337
O O2 0.175506 0.660698 0.760652
O O3 0.078206 0.603716 0.833371
O O4 0.066503 0.700324 0.689094
O O5 0.718226 0.365617 0.844360
O O6 0.615698 0.436822 0.900102
O O7 0.666111 0.314571 0.000000
O O8 0.782433 0.133670 0.674534
O O9 0.731014 0.000000 0.750000
O O10 0.111189 0.435212 0.891272
O O11 0.000000 0.500000 0.907869
O O12 0.093351 0.564672 0.000000
O O13 0.434935 0.822432 0.500000
O O14 0.343020 0.762146 0.590907
O O15 0.500000 0.500000 0.125188
O O16 0.416977 0.500000 0.250000
O O17 0.394814 0.393330 0.114929
O O18 0.696574 0.372190 0.500000
#
# Coordination Sequence:
#
# PCOD9498761 Si02
#       7
#    16  16  16  16  16  16  16
#     4  12  25  43  67  98 137 181 230 283 348 416
#     4  12  25  43  67  99 141 183 226 282 350 419
#     4  12  24  43  66  97 135 182 230 282 341 407
#     4  10  23  45  70  99 135 176 230 291 352 421
#     4  10  22  40  65  95 128 172 227 282 340 408
#     4  11  22  42  71 102 138 181 230 284 348 421
#     4  11  22  41  65  94 135 180 229 286 347 411
#
# _framework density 23.4741
#
# number of rings (size 3 to 8) (size 9 to 14) (size 15 to 20)
#    0.000    0.857    4.286    2.571    0.000    5.714 
#    0.000    2.857    0.000    0.000    0.000    0.000 
#    0.000    0.000    0.000    0.000    0.000    0.000 
#
# Total GULP energy -313225.304749 kJ/mol
# GULP energy per Si atom -5593.309013 kJ/mol
# Density = 2.342067 g / cm^3
# Si number density = 23.474100 Si / 1000 Ang^3
#
#
#
# Elastic Constant Matrix: (Units=GPa)
#
#
# Indices 1 2 3 4 5 6 
#
# 1 63.2599 9.8879 18.0733 0.0000 0.0000 0.0000
# 2 9.8879 111.5532 32.4843 0.0000 0.0000 0.0000
# 3 18.0733 32.4843 196.4271 0.0000 0.0000 0.0000
# 4 0.0000 0.0000 0.0000 31.8676 0.0000 0.0000
# 5 0.0000 0.0000 0.0000 0.0000 -4.1597 0.0000
# 6 0.0000 0.0000 0.0000 0.0000 0.0000 18.2256
#
#
#
# Elastic Compliance Matrix: (Units=1/GPa)
#
#
# Indices 1 2 3 4 5 6 
#
# 1 0.016354 -0.001063 -0.001329 0.000000 0.000000 0.000000
# 2 -0.001063 0.009487 -0.001471 0.000000 0.000000 0.000000
# 3 -0.001329 -0.001471 0.005457 0.000000 0.000000 0.000000
# 4 0.000000 0.000000 0.000000 0.031380 0.000000 0.000000
# 5 0.000000 0.000000 0.000000 0.000000 -0.240400 0.000000
# 6 0.000000 0.000000 0.000000 0.000000 0.000000 0.054868
#
#
# Mechanical properties :
#
#
# Convention : Reuss Voigt Hill
#
# Bulk Modulus (GPa) = 42.42382 54.68123 48.55253
# Shear Modulus (GPa) = -46.61031 29.90633 -8.35199
#
# Velocity S-wave (km/s) = -4.46085 3.57321 -1.88830
# Velocity P-wave (km/s) = 2.90179 6.35363 3.99676
#
# Compressibility (1/GPa) = 0.02357166
#
# Stress axis : x y z
#
# Youngs Moduli (GPa) = 61.14873 105.40833 183.26704
#
# Poissons Ratio (x) = 0.11200 0.24356
# Poissons Ratio (y) = 0.06497 0.26961
# Poissons Ratio (z) = 0.08126 0.15507
#
# Static dielectric constant tensor:
#      x y z
#    x 1.899960 0.000000 0.000000 
#    y 0.000000 1.909250 0.000000 
#    z 0.000000 0.000000 1.987890 
# 
# From -- ./inp_files/32467.got.cif
#   From: 2010.05.17/outbox.cif.g08.bks.cpg/sg66_17_cif.got.tgz:32467.got - 2010.06.03 17:51:23.
