data_PCOD9498188
_publ_section_title
;
Structure prediction by ZEFSAII (Michael W. Deem and Ramdas Pophale) SiO2 
 PCOD9498188
Probable space group: C C C M
;
_chemical_formula_sum "Si O2"
_cell_formula_units_Z 96
_cell_length_a 14.322345
_cell_length_b 14.040119
_cell_length_c 19.609978
_cell_angle_alpha 90.000000
_cell_angle_beta 90.000000
_cell_angle_gamma 90.000000
_cell_volume 3943.320042
_symmetry_space_group_name_H-M "C C C M"
_symmetry_group_IT_number 66
_symmetry_cell_setting 'orthorhombic'
loop_
_space_group_symop_operation_xyz
x,y,z
-x,-y,z
x,-y,1/2-z
-x,y,1/2-z
-x,-y,-z
x,y,-z
-x,y,1/2+z
x,-y,1/2+z
1/2+x,1/2+y,z
1/2-x,1/2-y,z
1/2+x,1/2-y,1/2-z
1/2-x,1/2+y,1/2-z
1/2-x,1/2-y,-z
1/2+x,1/2+y,-z
1/2-x,1/2+y,1/2+z
1/2+x,1/2-y,1/2+z
loop_
_atom_site_type_symbol
_atom_site_label
_atom_site_fract_x
_atom_site_fract_y
_atom_site_fract_z
Si Si1 0.817661 0.508258 0.421793
Si Si2 0.141425 0.290732 0.924733
Si Si3 0.859482 0.777286 0.221263
Si Si4 0.031468 0.876532 0.074687
Si Si5 0.626186 0.539054 0.853061
Si Si6 0.858602 0.288402 0.130969
O O1 0.790160 0.532440 0.500000
O O2 0.923331 0.774403 0.417512
O O3 0.863971 0.601639 0.389729
O O4 0.133945 0.594232 0.425244
O O5 0.250000 0.250000 0.924446
O O6 0.077482 0.103092 0.912495
O O7 0.103665 0.261932 0.000000
O O8 0.750000 0.750000 0.221349
O O9 0.873869 0.891523 0.212064
O O10 0.892669 0.734422 0.292212
O O11 0.896597 0.734014 0.150642
O O12 0.074115 0.939000 0.136914
O O13 0.229904 0.014653 0.125948
O O14 0.058071 0.912765 0.000000
O O15 0.750000 0.250000 0.124935
#
# Coordination Sequence:
#
# PCOD9498188 Si02
#       6
#    16  16  16  16  16  16
#     4  11  20  35  62  93 124 166 214 267 327 390
#     4   9  17  31  56  91 118 147 206 275 323 365
#     4  10  21  39  57  90 125 163 218 268 326 387
#     4  11  24  40  61  96 134 174 218 274 341 403
#     4  11  21  38  65  90 127 166 218 276 327 390
#     4  11  24  38  56  85 133 183 214 259 327 407
#
# _framework density 24.344967
#
# number of rings (size 3 to 8) (size 9 to 14) (size 15 to 20)
#    0.000    1.500    5.000    2.500    0.000    4.000 
#    0.000    1.667    0.000    1.000    0.000    5.833 
#    0.000    0.000    0.000    0.000    0.000    0.000 
#
# Total GULP energy -267783.671015 kJ/mol
# GULP energy per Si atom -5578.826479 kJ/mol
# Density = 2.428956 g / cm^3
# Si number density = 24.344967 Si / 1000 Ang^3
#
#
#
# Elastic Constant Matrix: (Units=GPa)
#
#
# Indices 1 2 3 4 5 6 
#
# 1 54.5000 20.7788 18.3493 0.0000 0.0000 0.0000
# 2 20.7788 191.5723 60.8663 0.0000 0.0000 0.0000
# 3 18.3493 60.8663 147.6196 0.0000 0.0000 0.0000
# 4 0.0000 0.0000 0.0000 103.2929 0.0000 0.0000
# 5 0.0000 0.0000 0.0000 0.0000 37.4468 0.0000
# 6 0.0000 0.0000 0.0000 0.0000 0.0000 32.2556
#
#
#
# Elastic Compliance Matrix: (Units=1/GPa)
#
#
# Indices 1 2 3 4 5 6 
#
# 1 0.019543 -0.001551 -0.001790 0.000000 0.000000 0.000000
# 2 -0.001551 0.006130 -0.002335 0.000000 0.000000 0.000000
# 3 -0.001790 -0.002335 0.007959 0.000000 0.000000 0.000000
# 4 0.000000 0.000000 0.000000 0.009681 0.000000 0.000000
# 5 0.000000 0.000000 0.000000 0.000000 0.026705 0.000000
# 6 0.000000 0.000000 0.000000 0.000000 0.000000 0.031002
#
#
# Mechanical properties :
#
#
# Convention : Reuss Voigt Hill
#
# Bulk Modulus (GPa) = 44.88131 65.96449 55.42290
# Shear Modulus (GPa) = 41.73704 54.17890 47.95797
#
# Velocity S-wave (km/s) = 4.14502 4.72260 4.44321
# Velocity P-wave (km/s) = 6.43303 7.54267 7.00984
#
# Compressibility (1/GPa) = 0.02228099
#
# Stress axis : x y z
#
# Youngs Moduli (GPa) = 51.17042 163.13269 125.63984
#
# Poissons Ratio (x) = 0.25303 0.22485
# Poissons Ratio (y) = 0.07937 0.29333
# Poissons Ratio (z) = 0.09158 0.38087
#
# Static dielectric constant tensor:
#      x y z
#    x 2.147340 0.000000 0.000000 
#    y 0.000000 2.068730 0.000000 
#    z 0.000000 0.000000 1.908690 
# 
# From -- ./inp_files/63880.got.cif
#   From: 2010.05.17/outbox.cif.g08.bks.cpg/sg66_32_cif.got.tgz:63880.got - 2010.06.03 17:51:23.
