data_PCOD9498088
_publ_section_title
;
Structure prediction by ZEFSAII (Michael W. Deem and Ramdas Pophale) SiO2 
 PCOD9498088
Probable space group: C C C M
;
_chemical_formula_sum "Si O2"
_cell_formula_units_Z 128
_cell_length_a 12.562310
_cell_length_b 25.103233
_cell_length_c 22.877446
_cell_angle_alpha 90.000000
_cell_angle_beta 90.000000
_cell_angle_gamma 90.000000
_cell_volume 7214.507717
_symmetry_space_group_name_H-M "C C C M"
_symmetry_group_IT_number 66
_symmetry_cell_setting 'orthorhombic'
loop_
_space_group_symop_operation_xyz
x,y,z
-x,-y,z
x,-y,1/2-z
-x,y,1/2-z
-x,-y,-z
x,y,-z
-x,y,1/2+z
x,-y,1/2+z
1/2+x,1/2+y,z
1/2-x,1/2-y,z
1/2+x,1/2-y,1/2-z
1/2-x,1/2+y,1/2-z
1/2-x,1/2-y,-z
1/2+x,1/2+y,-z
1/2-x,1/2+y,1/2+z
1/2+x,1/2-y,1/2+z
loop_
_atom_site_type_symbol
_atom_site_label
_atom_site_fract_x
_atom_site_fract_y
_atom_site_fract_z
Si Si1 0.271370 0.310522 0.931786
Si Si2 0.804279 0.397671 0.653949
Si Si3 0.282167 0.874755 0.157918
Si Si4 0.179990 0.195991 0.431664
Si Si5 0.464716 0.287967 0.863349
Si Si6 0.372623 0.007998 0.319201
Si Si7 0.114710 0.866411 0.263898
Si Si8 0.991922 0.676979 0.185301
O O1 0.250000 0.250000 0.910371
O O2 0.211329 0.358424 0.900368
O O3 0.393678 0.315041 0.913382
O O4 0.251222 0.311873 0.000000
O O5 0.825375 0.459208 0.643871
O O6 0.697790 0.394264 0.692566
O O7 0.906903 0.371380 0.686374
O O8 0.242378 0.854580 0.094924
O O9 0.320524 0.935974 0.162818
O O10 0.189313 0.861366 0.206023
O O11 0.390536 0.842399 0.169995
O O12 0.150286 0.189189 0.500000
O O13 0.250000 0.250000 0.428241
O O14 0.082947 0.203531 0.386726
O O15 0.424924 0.315207 0.802636
O O16 0.453953 0.224519 0.856028
O O17 0.500000 0.000000 0.325062
O O18 0.348981 0.000000 0.250000
O O19 0.000000 0.893127 0.250000
O O20 0.000000 0.700097 0.250000
#
# Coordination Sequence:
#
# PCOD9498088 Si02
#       8
#    16  16  16  16  16  16  16  16
#     4  10  21  38  60  85 121 162 203 257 308 361
#     4  11  22  39  59  92 122 157 206 250 306 370
#     4  12  23  40  61  92 127 162 209 254 309 371
#     4  11  24  41  61  86 124 171 213 252 299 363
#     4  11  22  36  58  89 124 160 204 248 311 375
#     4  11  21  38  65  92 123 161 199 251 315 376
#     4  11  22  37  57  89 125 158 197 248 312 367
#     4  12  21  34  58  93 127 164 199 253 311 374
#
# _framework density 17.742028000000001
#
# number of rings (size 3 to 8) (size 9 to 14) (size 15 to 20)
#    0.000    0.875    7.500    0.750    0.000    0.000 
#    2.250    2.500    0.000    0.750    0.000    2.625 
#    0.000    0.000    0.000    0.000    0.000    0.000 
#
# Total GULP energy -356275.640798 kJ/mol
# GULP energy per Si atom -5566.806887 kJ/mol
# Density = 1.770165 g / cm^3
# Si number density = 17.742028 Si / 1000 Ang^3
#
#
#
# Elastic Constant Matrix: (Units=GPa)
#
#
# Indices 1 2 3 4 5 6 
#
# 1 101.4343 34.0031 29.4881 0.0000 0.0000 0.0000
# 2 34.0031 118.6039 53.3766 0.0000 0.0000 0.0000
# 3 29.4881 53.3766 51.8332 0.0000 0.0000 0.0000
# 4 0.0000 0.0000 0.0000 18.1317 0.0000 0.0000
# 5 0.0000 0.0000 0.0000 0.0000 15.1760 0.0000
# 6 0.0000 0.0000 0.0000 0.0000 0.0000 21.7488
#
#
#
# Elastic Compliance Matrix: (Units=1/GPa)
#
#
# Indices 1 2 3 4 5 6 
#
# 1 0.011841 -0.000677 -0.006040 0.000000 0.000000 0.000000
# 2 -0.000677 0.015753 -0.015837 0.000000 0.000000 0.000000
# 3 -0.006040 -0.015837 0.039037 0.000000 0.000000 0.000000
# 4 0.000000 0.000000 0.000000 0.055152 0.000000 0.000000
# 5 0.000000 0.000000 0.000000 0.000000 0.065893 0.000000
# 6 0.000000 0.000000 0.000000 0.000000 0.000000 0.045980
#
#
# Mechanical properties :
#
#
# Convention : Reuss Voigt Hill
#
# Bulk Modulus (GPa) = 46.45839 56.17854 51.31846
# Shear Modulus (GPa) = 17.48639 21.34489 19.41564
#
# Velocity S-wave (km/s) = 3.14282 3.47229 3.31166
# Velocity P-wave (km/s) = 6.27791 6.91438 6.60381
#
# Compressibility (1/GPa) = 0.02152464
#
# Stress axis : x y z
#
# Youngs Moduli (GPa) = 84.45063 63.48159 25.61680
#
# Poissons Ratio (x) = 0.04296 0.15472
# Poissons Ratio (y) = 0.05715 0.40568
# Poissons Ratio (z) = 0.51005 1.00534
#
# Static dielectric constant tensor:
#      x y z
#    x 1.640910 0.000000 0.000000 
#    y 0.000000 1.600480 0.000000 
#    z 0.000000 0.000000 1.617490 
# 
# From -- ./inp_files/57337.got.cif
#   From: 2010.05.17/outbox.cif.g08.bks.cpg/sg66_29_cif.got.tgz:57337.got - 2010.06.03 17:51:23.
