data_PCOD9498448
_publ_section_title
;
Structure prediction by ZEFSAII (Michael W. Deem and Ramdas Pophale) SiO2 
 PCOD9498448
Probable space group: C C C M
;
_chemical_formula_sum "Si O2"
_cell_formula_units_Z 92
_cell_length_a 20.564625
_cell_length_b 14.835226
_cell_length_c 15.443970
_cell_angle_alpha 90.000000
_cell_angle_beta 90.000000
_cell_angle_gamma 90.000000
_cell_volume 4711.659641
_symmetry_space_group_name_H-M "C C C M"
_symmetry_group_IT_number 66
_symmetry_cell_setting 'orthorhombic'
loop_
_space_group_symop_operation_xyz
x,y,z
-x,-y,z
x,-y,1/2-z
-x,y,1/2-z
-x,-y,-z
x,y,-z
-x,y,1/2+z
x,-y,1/2+z
1/2+x,1/2+y,z
1/2-x,1/2-y,z
1/2+x,1/2-y,1/2-z
1/2-x,1/2+y,1/2-z
1/2-x,1/2-y,-z
1/2+x,1/2+y,-z
1/2-x,1/2+y,1/2+z
1/2+x,1/2-y,1/2+z
loop_
_atom_site_type_symbol
_atom_site_label
_atom_site_fract_x
_atom_site_fract_y
_atom_site_fract_z
Si Si1 0.000000 0.200136 0.250000
Si Si2 0.500000 0.000000 0.750000
Si Si3 0.211324 0.970203 0.649317
Si Si4 0.149830 0.302197 0.500000
Si Si5 0.292552 0.384755 0.500000
Si Si6 0.597380 0.668488 0.101982
Si Si7 0.405860 0.852138 0.819730
Si Si8 0.309051 0.820543 0.670354
O O1 0.037422 0.155569 0.168739
O O2 0.054468 0.263961 0.291618
O O3 0.547028 0.063769 0.805035
O O4 0.150142 0.906388 0.628335
O O5 0.274637 0.907923 0.628884
O O6 0.212389 0.000000 0.750000
O O7 0.205086 0.054201 0.585504
O O8 0.222961 0.337580 0.500000
O O9 0.153756 0.193686 0.500000
O O10 0.115266 0.340291 0.583440
O O11 0.635415 0.764364 0.118834
O O12 0.580750 0.662581 0.000000
O O13 0.343268 0.854646 0.757640
O O14 0.250000 0.750000 0.687622
#
# Coordination Sequence:
#
# PCOD9498448 Si02
#       8
#     8   4  16   8   8  16  16  16
#     4   9  22  41  65  87 126 172 216 251 328 382
#     4  10  24  42  64  90 128 160 236 272 318 380
#     4  11  23  39  64  95 132 165 210 277 329 386
#     4  11  26  39  65  87 135 172 210 257 330 403
#     4  11  26  40  60 103 129 165 215 258 333 407
#     4  10  21  41  66  94 127 168 221 272 323 389
#     4  10  22  42  61  92 123 174 211 270 313 393
#     4   9  21  36  66  92 129 169 208 259 339 390
#
# _framework density 19.526028
#
# number of rings (size 3 to 8) (size 9 to 14) (size 15 to 20)
#    0.000    1.913    0.870    1.043   15.826    1.391 
#    0.000    0.435    0.000    2.087    0.000    0.000 
#    0.000    0.000    0.000    0.000    0.000    0.000 
#
# Total GULP energy -256715.139238 kJ/mol
# GULP energy per Si atom -5580.763896 kJ/mol
# Density = 1.948159 g / cm^3
# Si number density = 19.526028 Si / 1000 Ang^3
#
#
#
# Elastic Constant Matrix: (Units=GPa)
#
#
# Indices 1 2 3 4 5 6 
#
# 1 82.0260 24.1893 50.9335 0.0000 0.0000 0.0000
# 2 24.1893 98.6549 55.6737 0.0000 0.0000 0.0000
# 3 50.9335 55.6737 152.7722 0.0000 0.0000 0.0000
# 4 0.0000 0.0000 0.0000 37.0958 0.0000 0.0000
# 5 0.0000 0.0000 0.0000 0.0000 9.3503 0.0000
# 6 0.0000 0.0000 0.0000 0.0000 0.0000 48.7612
#
#
#
# Elastic Compliance Matrix: (Units=1/GPa)
#
#
# Indices 1 2 3 4 5 6 
#
# 1 0.015470 -0.001111 -0.004753 0.000000 0.000000 0.000000
# 2 -0.001111 0.012840 -0.004309 0.000000 0.000000 0.000000
# 3 -0.004753 -0.004309 0.009701 0.000000 0.000000 0.000000
# 4 0.000000 0.000000 0.000000 0.026957 0.000000 0.000000
# 5 0.000000 0.000000 0.000000 0.000000 0.106949 0.000000
# 6 0.000000 0.000000 0.000000 0.000000 0.000000 0.020508
#
#
# Mechanical properties :
#
#
# Convention : Reuss Voigt Hill
#
# Bulk Modulus (GPa) = 56.60722 66.11623 61.36173
# Shear Modulus (GPa) = 22.86665 32.55189 27.70927
#
# Velocity S-wave (km/s) = 3.42583 4.08745 3.77117
# Velocity P-wave (km/s) = 6.68595 7.49736 7.10325
#
# Compressibility (1/GPa) = 0.01766559
#
# Stress axis : x y z
#
# Youngs Moduli (GPa) = 64.64079 77.87917 103.08714
#
# Poissons Ratio (x) = 0.08652 0.48995
# Poissons Ratio (y) = 0.07182 0.44420
# Poissons Ratio (z) = 0.30722 0.33558
#
# Static dielectric constant tensor:
#      x y z
#    x 1.655100 0.000000 0.000000 
#    y 0.000000 1.702440 0.000000 
#    z 0.000000 0.000000 1.194870 
# 
# From -- ./inp_files/31266.got.cif
#   From: 2010.05.17/outbox.cif.g08.bks.cpg/sg66_16_cif.got.tgz:31266.got - 2010.06.03 17:51:23.
