data_PCOD9498647
_publ_section_title
;
Structure prediction by ZEFSAII (Michael W. Deem and Ramdas Pophale) SiO2 
 PCOD9498647
Probable space group: C C C M
;
_chemical_formula_sum "Si O2"
_cell_formula_units_Z 64
_cell_length_a 16.889659
_cell_length_b 5.032651
_cell_length_c 37.028609
_cell_angle_alpha 90.000000
_cell_angle_beta 90.000000
_cell_angle_gamma 90.000000
_cell_volume 3147.422851
_symmetry_space_group_name_H-M "C C C M"
_symmetry_group_IT_number 66
_symmetry_cell_setting 'orthorhombic'
loop_
_space_group_symop_operation_xyz
x,y,z
-x,-y,z
x,-y,1/2-z
-x,y,1/2-z
-x,-y,-z
x,y,-z
-x,y,1/2+z
x,-y,1/2+z
1/2+x,1/2+y,z
1/2-x,1/2-y,z
1/2+x,1/2-y,1/2-z
1/2-x,1/2+y,1/2-z
1/2-x,1/2-y,-z
1/2+x,1/2+y,-z
1/2-x,1/2+y,1/2+z
1/2+x,1/2-y,1/2+z
loop_
_atom_site_type_symbol
_atom_site_label
_atom_site_fract_x
_atom_site_fract_y
_atom_site_fract_z
Si Si1 0.655018 0.748014 0.225620
Si Si2 0.919027 0.679690 0.927047
Si Si3 0.442926 0.753772 0.346998
Si Si4 0.162177 0.197829 0.541877
O O1 0.632398 0.500000 0.250000
O O2 0.750000 0.750000 0.220693
O O3 0.613903 0.726671 0.187044
O O4 0.632765 0.000000 0.250000
O O5 0.897711 0.691510 0.884603
O O6 0.871266 0.492912 0.953920
O O7 0.000000 0.500000 0.926214
O O8 0.898120 0.981062 0.940340
O O9 0.500000 0.500000 0.352570
O O10 0.500000 0.000000 0.339531
O O11 0.170278 0.120928 0.500000
O O12 0.250000 0.250000 0.558080
#
# Coordination Sequence:
#
# PCOD9498647 Si02
#       4
#    16  16  16  16
#     4  10  22  39  59  87 120 153 194 241 290 349
#     4  11  23  41  62  89 123 158 201 249 299 358
#     4  11  23  40  61  87 119 154 197 245 292 350
#     4  11  24  41  62  90 122 157 201 250 300 359
#
# _framework density 20.334095000000001
#
# number of rings (size 3 to 8) (size 9 to 14) (size 15 to 20)
#    0.000    1.250    0.000    6.750    0.000   10.000 
#    0.000    2.500    0.000    0.000    0.000    0.000 
#    0.000    0.000    0.000    0.000    0.000    0.000 
#
# Total GULP energy -178136.548111 kJ/mol
# GULP energy per Si atom -5566.767128 kJ/mol
# Density = 2.028781 g / cm^3
# Si number density = 20.334095 Si / 1000 Ang^3
#
#
#
# Elastic Constant Matrix: (Units=GPa)
#
#
# Indices 1 2 3 4 5 6 
#
# 1 27.2967 17.0263 35.6776 0.0000 0.0000 0.0000
# 2 17.0263 146.3666 21.7879 0.0000 0.0000 0.0000
# 3 35.6776 21.7879 101.3051 0.0000 0.0000 0.0000
# 4 0.0000 0.0000 0.0000 56.3406 0.0000 0.0000
# 5 0.0000 0.0000 0.0000 0.0000 25.1842 0.0000
# 6 0.0000 0.0000 0.0000 0.0000 0.0000 25.2960
#
#
#
# Elastic Compliance Matrix: (Units=1/GPa)
#
#
# Indices 1 2 3 4 5 6 
#
# 1 0.070850 -0.004677 -0.023946 0.000000 0.000000 0.000000
# 2 -0.004677 0.007367 0.000063 0.000000 0.000000 0.000000
# 3 -0.023946 0.000063 0.018291 0.000000 0.000000 0.000000
# 4 0.000000 0.000000 0.000000 0.017749 0.000000 0.000000
# 5 0.000000 0.000000 0.000000 0.000000 0.039707 0.000000
# 6 0.000000 0.000000 0.000000 0.000000 0.000000 0.039532
#
#
# Mechanical properties :
#
#
# Convention : Reuss Voigt Hill
#
# Bulk Modulus (GPa) = 25.38904 47.10579 36.24741
# Shear Modulus (GPa) = 18.95762 34.72926 26.84344
#
# Velocity S-wave (km/s) = 3.05668 4.13720 3.63729
# Velocity P-wave (km/s) = 4.99708 6.78514 5.95856
#
# Compressibility (1/GPa) = 0.03938708
#
# Stress axis : x y z
#
# Youngs Moduli (GPa) = 14.11434 135.74247 54.67180
#
# Poissons Ratio (x) = 0.63489 1.30917
# Poissons Ratio (y) = 0.06601 -0.00343
# Poissons Ratio (z) = 0.33798 -0.00852
#
# Static dielectric constant tensor:
#      x y z
#    x 1.787750 0.000000 0.000000 
#    y 0.000000 1.712230 0.000000 
#    z 0.000000 0.000000 1.658090 
# 
# From -- ./inp_files/69767.got.cif
#   From: 2010.05.17/outbox.cif.g08.bks.cpg/sg66_35_cif.got.tgz:69767.got - 2010.06.03 17:51:23.
