data_PCOD9498010
_publ_section_title
;
Structure prediction by ZEFSAII (Michael W. Deem and Ramdas Pophale) SiO2 
 PCOD9498010
Probable space group: C C C M
;
_chemical_formula_sum "Si O2"
_cell_formula_units_Z 64
_cell_length_a 10.307904
_cell_length_b 9.972840
_cell_length_c 27.225201
_cell_angle_alpha 90.000000
_cell_angle_beta 90.000000
_cell_angle_gamma 90.000000
_cell_volume 2798.725543
_symmetry_space_group_name_H-M "C C C M"
_symmetry_group_IT_number 66
_symmetry_cell_setting 'orthorhombic'
loop_
_space_group_symop_operation_xyz
x,y,z
-x,-y,z
x,-y,1/2-z
-x,y,1/2-z
-x,-y,-z
x,y,-z
-x,y,1/2+z
x,-y,1/2+z
1/2+x,1/2+y,z
1/2-x,1/2-y,z
1/2+x,1/2-y,1/2-z
1/2-x,1/2+y,1/2-z
1/2-x,1/2-y,-z
1/2+x,1/2+y,-z
1/2-x,1/2+y,1/2+z
1/2+x,1/2-y,1/2+z
loop_
_atom_site_type_symbol
_atom_site_label
_atom_site_fract_x
_atom_site_fract_y
_atom_site_fract_z
Si Si1 0.120543 0.191674 0.785122
Si Si2 0.383421 0.668825 0.444721
Si Si3 0.796478 0.967743 0.360676
Si Si4 0.954159 0.694882 0.366462
O O1 0.250000 0.250000 0.759947
O O2 0.166150 0.061728 0.815126
O O3 0.000000 0.167667 0.750000
O O4 0.067975 0.297862 0.825923
O O5 0.420805 0.631635 0.500000
O O6 0.250000 0.750000 0.446558
O O7 0.352676 0.544549 0.408529
O O8 0.484434 0.769805 0.419002
O O9 0.871444 0.828665 0.354958
O O10 0.644970 0.928609 0.365617
#
# Coordination Sequence:
#
# PCOD9498010 Si02
#       4
#    16  16  16  16
#     4  11  25  44  66  96 129 170 222 279 338 409
#     4  10  21  37  61  94 132 175 221 274 333 395
#     4  10  22  41  67  90 131 175 215 277 340 395
#     4  10  22  41  64  96 126 173 223 270 338 404
#
# _framework density 22.867550000000001
#
# number of rings (size 3 to 8) (size 9 to 14) (size 15 to 20)
#    0.000    1.750    0.000    6.000    3.500    9.000 
#    0.000    6.250    0.000    0.000    0.000    0.000 
#    0.000    0.000    0.000    0.000    0.000    0.000 
#
# Total GULP energy -179084.895798 kJ/mol
# GULP energy per Si atom -5596.402994 kJ/mol
# Density = 2.281550 g / cm^3
# Si number density = 22.867550 Si / 1000 Ang^3
#
#
#
# Elastic Constant Matrix: (Units=GPa)
#
#
# Indices 1 2 3 4 5 6 
#
# 1 176.1723 66.8602 64.3218 0.0000 0.0000 0.0000
# 2 66.8602 110.2042 68.6677 0.0000 0.0000 0.0000
# 3 64.3218 68.6677 140.0468 0.0000 0.0000 0.0000
# 4 0.0000 0.0000 0.0000 3.8766 0.0000 0.0000
# 5 0.0000 0.0000 0.0000 0.0000 23.4608 0.0000
# 6 0.0000 0.0000 0.0000 0.0000 0.0000 51.8871
#
#
#
# Elastic Compliance Matrix: (Units=1/GPa)
#
#
# Indices 1 2 3 4 5 6 
#
# 1 0.007673 -0.003541 -0.001788 0.000000 0.000000 0.000000
# 2 -0.003541 0.014700 -0.005581 0.000000 0.000000 0.000000
# 3 -0.001788 -0.005581 0.010698 0.000000 0.000000 0.000000
# 4 0.000000 0.000000 0.000000 0.257956 0.000000 0.000000
# 5 0.000000 0.000000 0.000000 0.000000 0.042624 0.000000
# 6 0.000000 0.000000 0.000000 0.000000 0.000000 0.019273
#
#
# Mechanical properties :
#
#
# Convention : Reuss Voigt Hill
#
# Bulk Modulus (GPa) = 88.88326 91.79140 90.33733
# Shear Modulus (GPa) = 13.21023 30.94982 22.08002
#
# Velocity S-wave (km/s) = 2.40611 3.68290 3.11072
# Velocity P-wave (km/s) = 6.83171 7.63627 7.24517
#
# Compressibility (1/GPa) = 0.01125071
#
# Stress axis : x y z
#
# Youngs Moduli (GPa) = 130.32862 68.02634 93.47331
#
# Poissons Ratio (x) = 0.24089 0.16711
# Poissons Ratio (y) = 0.46151 0.52171
# Poissons Ratio (z) = 0.23300 0.37968
#
# Static dielectric constant tensor:
#      x y z
#    x 1.907210 0.000000 0.000000 
#    y 0.000000 1.862560 0.000000 
#    z 0.000000 0.000000 1.862930 
# 
# From -- ./inp_files/68571.got.cif
#   From: 2010.05.17/outbox.cif.g08.bks.cpg/sg66_35_cif.got.tgz:68571.got - 2010.06.03 17:51:23.
