data_PCOD9498839
_publ_section_title
;
Structure prediction by ZEFSAII (Michael W. Deem and Ramdas Pophale) SiO2 
 PCOD9498839
Probable space group: C C C M
;
_chemical_formula_sum "Si O2"
_cell_formula_units_Z 88
_cell_length_a 14.899649
_cell_length_b 23.357627
_cell_length_c 13.489234
_cell_angle_alpha 90.000000
_cell_angle_beta 90.000000
_cell_angle_gamma 90.000000
_cell_volume 4694.529203
_symmetry_space_group_name_H-M "C C C M"
_symmetry_group_IT_number 66
_symmetry_cell_setting 'orthorhombic'
loop_
_space_group_symop_operation_xyz
x,y,z
-x,-y,z
x,-y,1/2-z
-x,y,1/2-z
-x,-y,-z
x,y,-z
-x,y,1/2+z
x,-y,1/2+z
1/2+x,1/2+y,z
1/2-x,1/2-y,z
1/2+x,1/2-y,1/2-z
1/2-x,1/2+y,1/2-z
1/2-x,1/2-y,-z
1/2+x,1/2+y,-z
1/2-x,1/2+y,1/2+z
1/2+x,1/2-y,1/2+z
loop_
_atom_site_type_symbol
_atom_site_label
_atom_site_fract_x
_atom_site_fract_y
_atom_site_fract_z
Si Si1 0.751399 0.436941 0.707668
Si Si2 0.819660 0.303991 0.500000
Si Si3 0.985069 0.932905 0.500000
Si Si4 0.899881 0.659764 0.211418
Si Si5 0.089543 0.871518 0.184459
Si Si6 0.688046 0.412922 0.500000
Si Si7 0.643660 0.753669 0.610541
O O1 0.764820 0.500000 0.750000
O O2 0.839651 0.397414 0.710437
O O3 0.674163 0.397884 0.758216
O O4 0.715472 0.446454 0.597233
O O5 0.750000 0.250000 0.500000
O O6 0.879489 0.310889 0.397967
O O7 0.749182 0.356442 0.500000
O O8 0.931215 0.913987 0.404611
O O9 0.082038 0.901808 0.500000
O O10 0.000000 0.000000 0.500000
O O11 0.871853 0.703532 0.298435
O O12 0.000000 0.645400 0.250000
O O13 0.107806 0.808581 0.141490
O O14 0.000000 0.869058 0.250000
O O15 0.608008 0.769905 0.500000
O O16 0.750000 0.750000 0.601504
#
# Coordination Sequence:
#
# PCOD9498839 Si02
#       7
#    16   8   8  16  16   8  16
#     4  11  24  44  66  92 130 173 219 277 336 392
#     4  10  24  42  74  95 130 177 225 274 332 394
#     4  12  24  38  60  93 130 173 217 260 324 404
#     4  11  25  44  69  98 131 174 230 280 331 395
#     4  12  24  39  64  92 130 174 214 271 336 400
#     4  10  22  42  61  92 125 161 221 263 310 398
#     4  11  23  42  63  95 134 169 212 268 340 407
#
# _framework density 18.745224
#
# number of rings (size 3 to 8) (size 9 to 14) (size 15 to 20)
#    0.000    0.909    4.545    2.182    3.818    1.818 
#    1.636    0.000    0.000    3.273    0.000    0.000 
#    0.000    0.000    0.000    0.000    0.000    0.000 
#
# Total GULP energy -245442.101545 kJ/mol
# GULP energy per Si atom -5578.229581 kJ/mol
# Density = 1.870256 g / cm^3
# Si number density = 18.745224 Si / 1000 Ang^3
#
#
#
# Elastic Constant Matrix: (Units=GPa)
#
#
# Indices 1 2 3 4 5 6 
#
# 1 114.7892 2.5610 43.6682 0.0000 0.0000 0.0000
# 2 2.5610 58.5850 34.3135 0.0000 0.0000 0.0000
# 3 43.6682 34.3135 159.6681 0.0000 0.0000 0.0000
# 4 0.0000 0.0000 0.0000 3868.2723 0.0000 0.0000
# 5 0.0000 0.0000 0.0000 0.0000 -14.7552 0.0000
# 6 0.0000 0.0000 0.0000 0.0000 0.0000 5.0453
#
#
#
# Elastic Compliance Matrix: (Units=1/GPa)
#
#
# Indices 1 2 3 4 5 6 
#
# 1 0.009810 0.001307 -0.002964 0.000000 0.000000 0.000000
# 2 0.001307 0.019701 -0.004591 0.000000 0.000000 0.000000
# 3 -0.002964 -0.004591 0.008060 0.000000 0.000000 0.000000
# 4 0.000000 0.000000 0.000000 0.000259 0.000000 0.000000
# 5 0.000000 0.000000 0.000000 0.000000 -0.067772 0.000000
# 6 0.000000 0.000000 0.000000 0.000000 0.000000 0.198204
#
#
# Mechanical properties :
#
#
# Convention : Reuss Voigt Hill
#
# Bulk Modulus (GPa) = 39.87997 54.90310 47.39154
# Shear Modulus (GPa) = 26.43879 788.54578 407.49229
#
# Velocity S-wave (km/s) = 3.75964 20.53237 14.75996
# Velocity P-wave (km/s) = 6.33778 24.31989 17.77110
#
# Compressibility (1/GPa) = 0.02507524
#
# Stress axis : x y z
#
# Youngs Moduli (GPa) = 101.93703 50.75817 124.06477
#
# Poissons Ratio (x) = -0.06635 0.36771
# Poissons Ratio (y) = -0.13324 0.56963
# Poissons Ratio (z) = 0.30213 0.23305
#
# Static dielectric constant tensor:
#      x y z
#    x 1.672520 0.000000 0.000000 
#    y 0.000000 1.612130 0.000000 
#    z 0.000000 0.000000 1.694850 
# 
# From -- ./inp_files/16488.got.cif
#   From: 2010.05.17/outbox.cif.g08.bks.cpg/sg66_9_cif.got.tgz:16488.got - 2010.06.03 17:51:23.
