data_PCOD9498551
_publ_section_title
;
Structure prediction by ZEFSAII (Michael W. Deem and Ramdas Pophale) SiO2 
 PCOD9498551
Probable space group: C C C M
;
_chemical_formula_sum "Si O2"
_cell_formula_units_Z 112
_cell_length_a 11.909602
_cell_length_b 30.890767
_cell_length_c 14.748150
_cell_angle_alpha 90.000000
_cell_angle_beta 90.000000
_cell_angle_gamma 90.000000
_cell_volume 5425.796313
_symmetry_space_group_name_H-M "C C C M"
_symmetry_group_IT_number 66
_symmetry_cell_setting 'orthorhombic'
loop_
_space_group_symop_operation_xyz
x,y,z
-x,-y,z
x,-y,1/2-z
-x,y,1/2-z
-x,-y,-z
x,y,-z
-x,y,1/2+z
x,-y,1/2+z
1/2+x,1/2+y,z
1/2-x,1/2-y,z
1/2+x,1/2-y,1/2-z
1/2-x,1/2+y,1/2-z
1/2-x,1/2-y,-z
1/2+x,1/2+y,-z
1/2-x,1/2+y,1/2+z
1/2+x,1/2-y,1/2+z
loop_
_atom_site_type_symbol
_atom_site_label
_atom_site_fract_x
_atom_site_fract_y
_atom_site_fract_z
Si Si1 0.967295 0.170681 0.891821
Si Si2 0.499397 0.571411 0.109544
Si Si3 0.485685 0.239087 0.350738
Si Si4 0.782919 0.312420 0.893717
Si Si5 0.134771 0.627599 0.747169
Si Si6 0.298671 0.201717 0.101116
Si Si7 0.808206 0.951256 0.752927
O O1 0.008134 0.123061 0.872542
O O2 0.029958 0.211803 0.852798
O O3 0.841902 0.179493 0.856934
O O4 0.967910 0.176254 0.000000
O O5 0.606056 0.551412 0.161155
O O6 0.387557 0.557041 0.164137
O O7 0.494879 0.564241 0.000000
O O8 0.500000 0.222476 0.250000
O O9 0.357928 0.230522 0.378620
O O10 0.569578 0.211895 0.409790
O O11 0.849835 0.349837 0.844175
O O12 0.775464 0.318484 0.000000
O O13 0.191745 0.662334 0.674124
O O14 0.211210 0.584656 0.740621
O O15 0.000000 0.619076 0.750000
O O16 0.250000 0.250000 0.129132
O O17 0.251278 0.190885 0.000000
O O18 0.763074 0.000000 0.750000
#
# Coordination Sequence:
#
# PCOD9498551 Si02
#       7
#    16  16  16  16  16  16  16
#     4  10  22  35  58  93 125 167 212 261 316 375
#     4  10  22  43  71 103 137 169 209 268 338 405
#     4  12  23  34  56  87 128 177 218 263 312 374
#     4  11  21  39  60  86 124 169 221 268 306 365
#     4  12  25  45  66  96 129 176 229 272 328 388
#     4  11  25  41  59  88 131 177 218 264 318 380
#     4  11  26  45  70 100 131 167 215 279 343 408
#
# _framework density 20.642133000000001
#
# number of rings (size 3 to 8) (size 9 to 14) (size 15 to 20)
#    0.000    1.000    4.286    2.571    6.000    3.143 
#    0.000    0.000    0.000    0.000    0.000    4.000 
#    0.000    0.000    0.000    0.000    0.000    0.000 
#
# Total GULP energy -312068.564903 kJ/mol
# GULP energy per Si atom -5572.652945 kJ/mol
# Density = 2.059515 g / cm^3
# Si number density = 20.642133 Si / 1000 Ang^3
#
#
#
# Elastic Constant Matrix: (Units=GPa)
#
#
# Indices 1 2 3 4 5 6 
#
# 1 99.3379 42.6442 20.0073 0.0000 0.0000 0.0000
# 2 42.6442 144.7419 38.9681 0.0000 0.0000 0.0000
# 3 20.0073 38.9681 104.9864 0.0000 0.0000 0.0000
# 4 0.0000 0.0000 0.0000 -8.8905 0.0000 0.0000
# 5 0.0000 0.0000 0.0000 0.0000 14.1292 0.0000
# 6 0.0000 0.0000 0.0000 0.0000 0.0000 26.4374
#
#
#
# Elastic Compliance Matrix: (Units=1/GPa)
#
#
# Indices 1 2 3 4 5 6 
#
# 1 0.011627 -0.003143 -0.001049 0.000000 0.000000 0.000000
# 2 -0.003143 0.008526 -0.002565 0.000000 0.000000 0.000000
# 3 -0.001049 -0.002565 0.010677 0.000000 0.000000 0.000000
# 4 0.000000 0.000000 0.000000 -0.112479 0.000000 0.000000
# 5 0.000000 0.000000 0.000000 0.000000 0.070775 0.000000
# 6 0.000000 0.000000 0.000000 0.000000 0.000000 0.037825
#
#
# Mechanical properties :
#
#
# Convention : Reuss Voigt Hill
#
# Bulk Modulus (GPa) = 57.75519 61.36726 59.56123
# Shear Modulus (GPa) = 108.13475 22.83165 65.48320
#
# Velocity S-wave (km/s) = 7.24563 3.32937 5.63843
# Velocity P-wave (km/s) = 9.90146 6.67632 8.44429
#
# Compressibility (1/GPa) = 0.01731446
#
# Stress axis : x y z
#
# Youngs Moduli (GPa) = 86.00459 117.29383 93.65741
#
# Poissons Ratio (x) = 0.36868 0.09826
# Poissons Ratio (y) = 0.27033 0.24027
# Poissons Ratio (z) = 0.09023 0.30091
#
# Static dielectric constant tensor:
#      x y z
#    x 1.809270 0.000000 0.000000 
#    y 0.000000 1.769190 0.000000 
#    z 0.000000 0.000000 1.748140 
# 
# From -- ./inp_files/26977.got.cif
#   From: 2010.05.17/outbox.cif.g08.bks.cpg/sg66_14_cif.got.tgz:26977.got - 2010.06.03 17:51:23.
