data_PCOD9498718
_publ_section_title
;
Structure prediction by ZEFSAII (Michael W. Deem and Ramdas Pophale) SiO2 
 PCOD9498718
Probable space group: C C C M
;
_chemical_formula_sum "Si O2"
_cell_formula_units_Z 112
_cell_length_a 15.267223
_cell_length_b 23.664781
_cell_length_c 13.774449
_cell_angle_alpha 90.000000
_cell_angle_beta 90.000000
_cell_angle_gamma 90.000000
_cell_volume 4976.646284
_symmetry_space_group_name_H-M "C C C M"
_symmetry_group_IT_number 66
_symmetry_cell_setting 'orthorhombic'
loop_
_space_group_symop_operation_xyz
x,y,z
-x,-y,z
x,-y,1/2-z
-x,y,1/2-z
-x,-y,-z
x,y,-z
-x,y,1/2+z
x,-y,1/2+z
1/2+x,1/2+y,z
1/2-x,1/2-y,z
1/2+x,1/2-y,1/2-z
1/2-x,1/2+y,1/2-z
1/2-x,1/2-y,-z
1/2+x,1/2+y,-z
1/2-x,1/2+y,1/2+z
1/2+x,1/2-y,1/2+z
loop_
_atom_site_type_symbol
_atom_site_label
_atom_site_fract_x
_atom_site_fract_y
_atom_site_fract_z
Si Si1 0.689326 0.305207 0.602335
Si Si2 0.502933 0.875051 0.111356
Si Si3 0.875665 0.434956 0.260279
Si Si4 0.004716 0.243838 0.389800
Si Si5 0.404654 0.471606 0.112211
Si Si6 0.177553 0.921321 0.796640
Si Si7 0.182892 0.800809 0.819381
O O1 0.704345 0.337097 0.500000
O O2 0.750000 0.250000 0.593569
O O3 0.586133 0.290036 0.608112
O O4 0.711791 0.321437 0.711743
O O5 0.426396 0.898530 0.179264
O O6 0.589676 0.909377 0.139348
O O7 0.517649 0.808935 0.130341
O O8 0.479607 0.882372 0.000000
O O9 0.901313 0.500000 0.250000
O O10 0.774028 0.429901 0.244412
O O11 0.041163 0.240859 0.500000
O O12 0.084900 0.224250 0.323184
O O13 0.500000 0.500000 0.121936
O O14 0.342172 0.524477 0.136315
O O15 0.386351 0.427323 0.200567
O O16 0.395641 0.451781 0.000000
O O17 0.173882 0.864106 0.861754
O O18 0.250000 0.750000 0.849860
#
# Coordination Sequence:
#
# PCOD9498718 Si02
#       7
#    16  16  16  16  16  16  16
#     4   9  20  36  56  85 119 159 212 258 304 370
#     4  10  23  39  63  91 128 172 212 263 320 384
#     4  11  23  40  64  93 126 165 217 275 321 384
#     4  10  22  40  60  88 126 172 212 252 313 384
#     4  10  23  45  72  97 127 166 214 278 340 394
#     4  11  23  43  66  99 131 165 221 272 325 398
#     4  11  24  38  64  94 131 177 209 263 319 384
#
# _framework density 22.505113999999999
#
# number of rings (size 3 to 8) (size 9 to 14) (size 15 to 20)
#    0.000    1.714    1.429    3.000    8.000    6.000 
#    0.000    2.857    0.000    0.000    0.000    0.000 
#    0.000    0.000    0.000    0.000    0.000    0.000 
#
# Total GULP energy -312193.099076 kJ/mol
# GULP energy per Si atom -5574.876769 kJ/mol
# Density = 2.245389 g / cm^3
# Si number density = 22.505114 Si / 1000 Ang^3
#
#
#
# Elastic Constant Matrix: (Units=GPa)
#
#
# Indices 1 2 3 4 5 6 
#
# 1 100.5152 4.6689 -10.7282 0.0000 0.0000 0.0000
# 2 4.6689 108.9514 -13.8017 0.0000 0.0000 0.0000
# 3 -10.7282 -13.8017 67.9381 0.0000 0.0000 0.0000
# 4 0.0000 0.0000 0.0000 15.7245 0.0000 0.0000
# 5 0.0000 0.0000 0.0000 0.0000 14.8893 0.0000
# 6 0.0000 0.0000 0.0000 0.0000 0.0000 9.5926
#
#
#
# Elastic Compliance Matrix: (Units=1/GPa)
#
#
# Indices 1 2 3 4 5 6 
#
# 1 0.010125 -0.000237 0.001551 0.000000 0.000000 0.000000
# 2 -0.000237 0.009426 0.001877 0.000000 0.000000 0.000000
# 3 0.001551 0.001877 0.015346 0.000000 0.000000 0.000000
# 4 0.000000 0.000000 0.000000 0.063595 0.000000 0.000000
# 5 0.000000 0.000000 0.000000 0.000000 0.067162 0.000000
# 6 0.000000 0.000000 0.000000 0.000000 0.000000 0.104247
#
#
# Mechanical properties :
#
#
# Convention : Reuss Voigt Hill
#
# Bulk Modulus (GPa) = 24.22563 26.40919 25.31741
# Shear Modulus (GPa) = 18.03229 27.85899 22.94564
#
# Velocity S-wave (km/s) = 2.83371 3.52219 3.19654
# Velocity P-wave (km/s) = 4.63621 5.31990 4.98978
#
# Compressibility (1/GPa) = 0.04127860
#
# Stress axis : x y z
#
# Youngs Moduli (GPa) = 98.76274 106.08487 65.16546
#
# Poissons Ratio (x) = 0.02519 -0.10105
# Poissons Ratio (y) = 0.02345 -0.12235
# Poissons Ratio (z) = -0.15315 -0.19917
#
# Static dielectric constant tensor:
#      x y z
#    x 1.368610 0.000000 0.000000 
#    y 0.000000 1.925340 0.000000 
#    z 0.000000 0.000000 1.943410 
# 
# From -- ./inp_files/28659.got.cif
#   From: 2010.05.17/outbox.cif.g08.bks.cpg/sg66_15_cif.got.tgz:28659.got - 2010.06.03 17:51:23.
