data_PCOD9498241
_publ_section_title
;
Structure prediction by ZEFSAII (Michael W. Deem and Ramdas Pophale) SiO2 
 PCOD9498241
Probable space group: C C C M
;
_chemical_formula_sum "Si O2"
_cell_formula_units_Z 112
_cell_length_a 13.788805
_cell_length_b 16.840535
_cell_length_c 23.073706
_cell_angle_alpha 90.000000
_cell_angle_beta 90.000000
_cell_angle_gamma 90.000000
_cell_volume 5357.964957
_symmetry_space_group_name_H-M "C C C M"
_symmetry_group_IT_number 66
_symmetry_cell_setting 'orthorhombic'
loop_
_space_group_symop_operation_xyz
x,y,z
-x,-y,z
x,-y,1/2-z
-x,y,1/2-z
-x,-y,-z
x,y,-z
-x,y,1/2+z
x,-y,1/2+z
1/2+x,1/2+y,z
1/2-x,1/2-y,z
1/2+x,1/2-y,1/2-z
1/2-x,1/2+y,1/2-z
1/2-x,1/2-y,-z
1/2+x,1/2+y,-z
1/2-x,1/2+y,1/2+z
1/2+x,1/2-y,1/2+z
loop_
_atom_site_type_symbol
_atom_site_label
_atom_site_fract_x
_atom_site_fract_y
_atom_site_fract_z
Si Si1 0.283273 0.536520 0.647073
Si Si2 0.070601 0.858988 0.697569
Si Si3 0.411465 0.041565 0.312674
Si Si4 0.556201 0.571226 0.404640
Si Si5 0.693933 0.834527 0.068639
Si Si6 0.485103 0.195365 0.153520
Si Si7 0.361522 0.266911 0.564280
O O1 0.325171 0.596961 0.696630
O O2 0.189307 0.483507 0.659758
O O3 0.366414 0.473355 0.635077
O O4 0.260481 0.593958 0.592603
O O5 0.066118 0.763552 0.692366
O O6 0.000000 0.883182 0.750000
O O7 0.021374 0.887275 0.637619
O O8 0.451704 0.130771 0.311252
O O9 0.500000 0.000000 0.346587
O O10 0.405422 0.000000 0.250000
O O11 0.500000 0.500000 0.436524
O O12 0.612584 0.639879 0.437471
O O13 0.750000 0.750000 0.075733
O O14 0.600444 0.835270 0.110944
O O15 0.671640 0.842700 0.000000
O O16 0.566101 0.231512 0.111003
O O17 0.378452 0.232990 0.500000
O O18 0.250000 0.250000 0.579604
#
# Coordination Sequence:
#
# PCOD9498241 Si02
#       7
#    16  16  16  16  16  16  16
#     4  11  22  42  63  94 134 167 215 278 321 393
#     4  10  23  39  67  94 124 165 219 270 327 393
#     4  11  25  40  63  90 133 176 209 260 332 394
#     4   9  21  38  59  91 124 159 207 264 323 381
#     4  11  23  41  67  96 128 176 221 270 336 397
#     4  11  22  44  63  94 130 166 219 273 320 398
#     4  10  21  39  63  88 121 166 211 265 325 381
#
# _framework density 20.903458000000001
#
# number of rings (size 3 to 8) (size 9 to 14) (size 15 to 20)
#    0.000    1.571    2.857    1.286    4.000    2.857 
#    0.000    2.143    0.000    0.000    0.000    0.000 
#    0.000    0.000    0.000    0.000    0.000    0.000 
#
# Total GULP energy -312013.032622 kJ/mol
# GULP energy per Si atom -5571.661297 kJ/mol
# Density = 2.085588 g / cm^3
# Si number density = 20.903458 Si / 1000 Ang^3
#
#
#
# Elastic Constant Matrix: (Units=GPa)
#
#
# Indices 1 2 3 4 5 6 
#
# 1 96.1068 35.9385 3.4276 0.0000 0.0000 0.0000
# 2 35.9385 108.1082 15.7037 0.0000 0.0000 0.0000
# 3 3.4276 15.7037 49.4772 0.0000 0.0000 0.0000
# 4 0.0000 0.0000 0.0000 9.2647 0.0000 0.0000
# 5 0.0000 0.0000 0.0000 0.0000 30.1107 0.0000
# 6 0.0000 0.0000 0.0000 0.0000 0.0000 26.9832
#
#
#
# Elastic Compliance Matrix: (Units=1/GPa)
#
#
# Indices 1 2 3 4 5 6 
#
# 1 0.011892 -0.004019 0.000452 0.000000 0.000000 0.000000
# 2 -0.004019 0.011055 -0.003230 0.000000 0.000000 0.000000
# 3 0.000452 -0.003230 0.021205 0.000000 0.000000 0.000000
# 4 0.000000 0.000000 0.000000 0.107936 0.000000 0.000000
# 5 0.000000 0.000000 0.000000 0.000000 0.033211 0.000000
# 6 0.000000 0.000000 0.000000 0.000000 0.000000 0.037060
#
#
# Mechanical properties :
#
#
# Convention : Reuss Voigt Hill
#
# Bulk Modulus (GPa) = 32.72538 40.42575 36.57557
# Shear Modulus (GPa) = 20.31360 26.51323 23.41342
#
# Velocity S-wave (km/s) = 3.12072 3.56528 3.35038
# Velocity P-wave (km/s) = 5.35488 6.02740 5.70106
#
# Compressibility (1/GPa) = 0.03055732
#
# Stress axis : x y z
#
# Youngs Moduli (GPa) = 84.09170 90.45504 47.15786
#
# Poissons Ratio (x) = 0.36352 -0.02130
# Poissons Ratio (y) = 0.33795 0.15234
# Poissons Ratio (z) = -0.03799 0.29221
#
# Static dielectric constant tensor:
#      x y z
#    x 1.797290 0.000000 0.000000 
#    y 0.000000 1.843530 0.000000 
#    z 0.000000 0.000000 1.755620 
# 
# From -- ./inp_files/58234.got.cif
#   From: 2010.05.17/outbox.cif.g08.bks.cpg/sg66_30_cif.got.tgz:58234.got - 2010.06.03 17:51:23.
