data_PCOD9498442
_publ_section_title
;
Structure prediction by ZEFSAII (Michael W. Deem and Ramdas Pophale) SiO2 
 PCOD9498442
Probable space group: C C C M
;
_chemical_formula_sum "Si O2"
_cell_formula_units_Z 96
_cell_length_a 19.878859
_cell_length_b 15.330795
_cell_length_c 14.786399
_cell_angle_alpha 90.000000
_cell_angle_beta 90.000000
_cell_angle_gamma 90.000000
_cell_volume 4506.283917
_symmetry_space_group_name_H-M "C C C M"
_symmetry_group_IT_number 66
_symmetry_cell_setting 'orthorhombic'
loop_
_space_group_symop_operation_xyz
x,y,z
-x,-y,z
x,-y,1/2-z
-x,y,1/2-z
-x,-y,-z
x,y,-z
-x,y,1/2+z
x,-y,1/2+z
1/2+x,1/2+y,z
1/2-x,1/2-y,z
1/2+x,1/2-y,1/2-z
1/2-x,1/2+y,1/2-z
1/2-x,1/2-y,-z
1/2+x,1/2+y,-z
1/2-x,1/2+y,1/2+z
1/2+x,1/2-y,1/2+z
loop_
_atom_site_type_symbol
_atom_site_label
_atom_site_fract_x
_atom_site_fract_y
_atom_site_fract_z
Si Si1 0.390388 0.206172 0.898312
Si Si2 0.483279 0.902244 0.143188
Si Si3 0.906325 0.943103 0.399814
Si Si4 0.729778 0.350960 0.106789
Si Si5 0.650231 0.098628 0.223057
Si Si6 0.541362 0.621587 0.841282
O O1 0.464391 0.162271 0.901314
O O2 0.353750 0.157346 0.814065
O O3 0.406711 0.304915 0.870489
O O4 0.360643 0.199143 0.000000
O O5 0.500000 0.899729 0.250000
O O6 0.405257 0.875720 0.146486
O O7 0.500000 0.000000 0.110679
O O8 0.888753 0.975838 0.500000
O O9 0.846711 0.878431 0.371079
O O10 0.977107 0.893088 0.405065
O O11 0.920439 0.029075 0.341057
O O12 0.750000 0.250000 0.119779
O O13 0.778615 0.401518 0.174258
O O14 0.740972 0.370230 0.000000
O O15 0.631756 0.000000 0.250000
O O16 0.500000 0.643138 0.750000
#
# Coordination Sequence:
#
# PCOD9498442 Si02
#       6
#    16  16  16  16  16  16
#     4  11  23  37  62  98 133 174 222 278 340 400
#     4   9  16  35  57  86 123 158 206 267 323 382
#     4  10  21  41  65  96 132 163 212 275 338 410
#     4  10  25  45  67  96 129 172 224 274 334 410
#     4  11  22  42  63  89 131 170 218 272 329 402
#     4  11  22  38  66 101 133 172 220 276 343 403
#
# _framework density 21.303584000000001
#
# number of rings (size 3 to 8) (size 9 to 14) (size 15 to 20)
#    0.000    1.667    3.333    4.500    4.667    3.000 
#    0.000    0.000    0.000    0.500    0.000    0.000 
#    0.000    0.000    0.000    0.000    0.000    0.000 
#
# Total GULP energy -267624.600188 kJ/mol
# GULP energy per Si atom -5575.512504 kJ/mol
# Density = 2.125510 g / cm^3
# Si number density = 21.303584 Si / 1000 Ang^3
#
#
#
# Elastic Constant Matrix: (Units=GPa)
#
#
# Indices 1 2 3 4 5 6 
#
# 1 87.7056 23.4688 17.2411 0.0000 0.0000 0.0000
# 2 23.4688 82.7754 25.6334 0.0000 0.0000 0.0000
# 3 17.2411 25.6334 80.8729 0.0000 0.0000 0.0000
# 4 0.0000 0.0000 0.0000 31.4019 0.0000 0.0000
# 5 0.0000 0.0000 0.0000 0.0000 26.3297 0.0000
# 6 0.0000 0.0000 0.0000 0.0000 0.0000 19.7854
#
#
#
# Elastic Compliance Matrix: (Units=1/GPa)
#
#
# Indices 1 2 3 4 5 6 
#
# 1 0.012549 -0.003027 -0.001716 0.000000 0.000000 0.000000
# 2 -0.003027 0.014126 -0.003832 0.000000 0.000000 0.000000
# 3 -0.001716 -0.003832 0.013946 0.000000 0.000000 0.000000
# 4 0.000000 0.000000 0.000000 0.031845 0.000000 0.000000
# 5 0.000000 0.000000 0.000000 0.000000 0.037980 0.000000
# 6 0.000000 0.000000 0.000000 0.000000 0.000000 0.050542
#
#
# Mechanical properties :
#
#
# Convention : Reuss Voigt Hill
#
# Bulk Modulus (GPa) = 42.60575 42.67116 42.63845
# Shear Modulus (GPa) = 26.88743 27.83743 27.36243
#
# Velocity S-wave (km/s) = 3.55647 3.61875 3.58775
# Velocity P-wave (km/s) = 6.07515 6.12650 6.10088
#
# Compressibility (1/GPa) = 0.02347101
#
# Stress axis : x y z
#
# Youngs Moduli (GPa) = 79.68778 70.79313 71.70764
#
# Poissons Ratio (x) = 0.21426 0.12305
# Poissons Ratio (y) = 0.24118 0.27479
# Poissons Ratio (z) = 0.13674 0.27128
#
# Static dielectric constant tensor:
#      x y z
#    x 1.812600 0.000000 0.000000 
#    y 0.000000 1.795430 0.000000 
#    z 0.000000 0.000000 1.881440 
# 
# From -- ./inp_files/31182.got.cif
#   From: 2010.05.17/outbox.cif.g08.bks.cpg/sg66_16_cif.got.tgz:31182.got - 2010.06.03 17:51:23.
