data_PCOD9498490
_publ_section_title
;
Structure prediction by ZEFSAII (Michael W. Deem and Ramdas Pophale) SiO2 
 PCOD9498490
Probable space group: C C C M
;
_chemical_formula_sum "Si O2"
_cell_formula_units_Z 80
_cell_length_a 27.157900
_cell_length_b 9.676621
_cell_length_c 15.305219
_cell_angle_alpha 90.000000
_cell_angle_beta 90.000000
_cell_angle_gamma 90.000000
_cell_volume 4022.161129
_symmetry_space_group_name_H-M "C C C M"
_symmetry_group_IT_number 66
_symmetry_cell_setting 'orthorhombic'
loop_
_space_group_symop_operation_xyz
x,y,z
-x,-y,z
x,-y,1/2-z
-x,y,1/2-z
-x,-y,-z
x,y,-z
-x,y,1/2+z
x,-y,1/2+z
1/2+x,1/2+y,z
1/2-x,1/2-y,z
1/2+x,1/2-y,1/2-z
1/2-x,1/2+y,1/2-z
1/2-x,1/2-y,-z
1/2+x,1/2+y,-z
1/2-x,1/2+y,1/2+z
1/2+x,1/2-y,1/2+z
loop_
_atom_site_type_symbol
_atom_site_label
_atom_site_fract_x
_atom_site_fract_y
_atom_site_fract_z
Si Si1 0.880575 0.751188 0.629345
Si Si2 0.766806 0.034054 0.000000
Si Si3 0.007344 0.664808 0.153462
Si Si4 0.871817 0.003827 0.500000
Si Si5 0.654053 0.017587 0.000000
Si Si6 0.710475 0.641589 0.303083
Si Si7 0.931169 0.280719 0.500000
O O1 0.936602 0.703124 0.633164
O O2 0.854223 0.623572 0.580260
O O3 0.843578 0.789000 0.707365
O O4 0.880461 0.897578 0.579067
O O5 0.775790 0.115356 0.092891
O O6 0.711586 0.975119 0.000000
O O7 0.815695 0.940379 0.000000
O O8 0.000000 0.500000 0.156160
O O9 0.000000 0.723303 0.250000
O O10 0.967201 0.710237 0.083278
O O11 0.906586 0.132491 0.500000
O O12 0.611619 0.899647 0.000000
O O13 0.712674 0.500000 0.250000
O O14 0.750000 0.750000 0.268944
#
# Coordination Sequence:
#
# PCOD9498490 Si02
#       7
#    16   8  16   8   8  16   8
#     4  10  21  42  67  94 128 179 220 264 329 400
#     4  10  21  45  67  93 131 183 225 255 328 411
#     4  11  24  42  66  97 128 170 227 278 319 393
#     4   9  23  38  66  99 134 169 218 273 332 403
#     4  11  19  39  77  90 122 182 222 267 321 393
#     4  11  23  44  68  99 136 177 225 273 329 404
#     4  12  23  43  66 102 132 166 222 284 332 379
#
# _framework density 19.889804999999999
#
# number of rings (size 3 to 8) (size 9 to 14) (size 15 to 20)
#    0.000    1.400    4.000    2.400    0.000    5.200 
#   14.400    1.000    0.000    0.000    0.000    0.000 
#    0.000    0.000    0.000    0.000    0.000    0.000 
#
# Total GULP energy -222717.177434 kJ/mol
# GULP energy per Si atom -5567.929436 kJ/mol
# Density = 1.984454 g / cm^3
# Si number density = 19.889805 Si / 1000 Ang^3
#
#
#
# Elastic Constant Matrix: (Units=GPa)
#
#
# Indices 1 2 3 4 5 6 
#
# 1 219.0247 80.4325 48.8566 0.0000 0.0000 0.0000
# 2 80.4325 106.9682 30.9759 0.0000 0.0000 0.0000
# 3 48.8566 30.9759 63.9278 0.0000 0.0000 0.0000
# 4 0.0000 0.0000 0.0000 34.4434 0.0000 0.0000
# 5 0.0000 0.0000 0.0000 0.0000 -26.7412 0.0000
# 6 0.0000 0.0000 0.0000 0.0000 0.0000 40.8339
#
#
#
# Elastic Compliance Matrix: (Units=1/GPa)
#
#
# Indices 1 2 3 4 5 6 
#
# 1 0.006819 -0.004209 -0.003172 0.000000 0.000000 0.000000
# 2 -0.004209 0.013472 -0.003311 0.000000 0.000000 0.000000
# 3 -0.003172 -0.003311 0.019671 0.000000 0.000000 0.000000
# 4 0.000000 0.000000 0.000000 0.029033 0.000000 0.000000
# 5 0.000000 0.000000 0.000000 0.000000 -0.037395 0.000000
# 6 0.000000 0.000000 0.000000 0.000000 0.000000 0.024489
#
#
# Mechanical properties :
#
#
# Convention : Reuss Voigt Hill
#
# Bulk Modulus (GPa) = 53.82652 78.93898 66.38275
# Shear Modulus (GPa) = 59.76133 25.01760 42.38947
#
# Velocity S-wave (km/s) = 5.48739 3.55041 4.62152
# Velocity P-wave (km/s) = 8.20181 7.52207 7.86928
#
# Compressibility (1/GPa) = 0.01857820
#
# Stress axis : x y z
#
# Youngs Moduli (GPa) = 146.65302 74.22728 50.83557
#
# Poissons Ratio (x) = 0.31240 0.16125
# Poissons Ratio (y) = 0.61722 0.16833
# Poissons Ratio (z) = 0.46517 0.24579
#
# Static dielectric constant tensor:
#      x y z
#    x 1.792190 0.000000 0.000000 
#    y 0.000000 1.646300 0.000000 
#    z 0.000000 0.000000 1.725500 
# 
# From -- ./inp_files/44172.got.cif
#   From: 2010.05.17/outbox.cif.g08.bks.cpg/sg66_23_cif.got.tgz:44172.got - 2010.06.03 17:51:23.
