data_PCOD9498974
_publ_section_title
;
Structure prediction by ZEFSAII (Michael W. Deem and Ramdas Pophale) SiO2 
 PCOD9498974
Probable space group: C C C M
;
_chemical_formula_sum "Si O2"
_cell_formula_units_Z 96
_cell_length_a 20.973918
_cell_length_b 14.455411
_cell_length_c 17.092788
_cell_angle_alpha 90.000000
_cell_angle_beta 90.000000
_cell_angle_gamma 90.000000
_cell_volume 5182.304363
_symmetry_space_group_name_H-M "C C C M"
_symmetry_group_IT_number 66
_symmetry_cell_setting 'orthorhombic'
loop_
_space_group_symop_operation_xyz
x,y,z
-x,-y,z
x,-y,1/2-z
-x,y,1/2-z
-x,-y,-z
x,y,-z
-x,y,1/2+z
x,-y,1/2+z
1/2+x,1/2+y,z
1/2-x,1/2-y,z
1/2+x,1/2-y,1/2-z
1/2-x,1/2+y,1/2-z
1/2-x,1/2-y,-z
1/2+x,1/2+y,-z
1/2-x,1/2+y,1/2+z
1/2+x,1/2-y,1/2+z
loop_
_atom_site_type_symbol
_atom_site_label
_atom_site_fract_x
_atom_site_fract_y
_atom_site_fract_z
Si Si1 0.817098 0.567992 0.593757
Si Si2 0.677114 0.251876 0.804182
Si Si3 0.059111 0.932395 0.592605
Si Si4 0.680115 0.463389 0.160629
Si Si5 0.937679 0.442357 0.406105
Si Si6 0.058764 0.744004 0.690055
O O1 0.816045 0.578386 0.500000
O O2 0.827006 0.667833 0.634253
O O3 0.750081 0.526749 0.623347
O O4 0.874788 0.500054 0.616108
O O5 0.750000 0.250000 0.773385
O O6 0.666468 0.353371 0.840561
O O7 0.624487 0.240662 0.738080
O O8 0.057299 0.913239 0.500000
O O9 0.053972 0.838897 0.641998
O O10 0.124949 0.982829 0.615181
O O11 0.000000 0.000000 0.611848
O O12 0.680768 0.500000 0.250000
O O13 0.937638 0.433168 0.500000
O O14 0.941314 0.343061 0.367091
O O15 0.000000 0.500000 0.382812
O O16 0.000000 0.738334 0.750000
#
# Coordination Sequence:
#
# PCOD9498974 Si02
#       6
#    16  16  16  16  16  16
#     4  10  23  41  64  93 126 165 210 260 312 367
#     4  10  23  38  61  92 123 162 203 259 303 359
#     4  11  25  42  64  91 124 165 208 254 312 375
#     4  11  22  40  64  92 128 165 206 259 306 369
#     4  10  23  42  62  87 123 161 203 257 313 371
#     4  12  24  39  62  92 122 162 207 254 311 371
#
# _framework density 18.524578999999999
#
# number of rings (size 3 to 8) (size 9 to 14) (size 15 to 20)
#    0.000    1.333    1.667    3.000    4.667    5.333 
#    0.000    4.167    0.000    4.000    0.000    0.000 
#    0.000    0.000    0.000    0.000    0.000    0.000 
#
# Total GULP energy -268333.929892 kJ/mol
# GULP energy per Si atom -5590.290206 kJ/mol
# Density = 1.848242 g / cm^3
# Si number density = 18.524579 Si / 1000 Ang^3
#
#
#
# Elastic Constant Matrix: (Units=GPa)
#
#
# Indices 1 2 3 4 5 6 
#
# 1 137.1191 82.0642 54.1175 0.0000 0.0000 0.0000
# 2 82.0642 142.7151 50.4879 0.0000 0.0000 0.0000
# 3 54.1175 50.4879 65.3783 0.0000 0.0000 0.0000
# 4 0.0000 0.0000 0.0000 17.3142 0.0000 0.0000
# 5 0.0000 0.0000 0.0000 0.0000 66.7456 0.0000
# 6 0.0000 0.0000 0.0000 0.0000 0.0000 29.9497
#
#
#
# Elastic Compliance Matrix: (Units=1/GPa)
#
#
# Indices 1 2 3 4 5 6 
#
# 1 0.013040 -0.005063 -0.006884 0.000000 0.000000 0.000000
# 2 -0.005063 0.011606 -0.004772 0.000000 0.000000 0.000000
# 3 -0.006884 -0.004772 0.024679 0.000000 0.000000 0.000000
# 4 0.000000 0.000000 0.000000 0.057756 0.000000 0.000000
# 5 0.000000 0.000000 0.000000 0.000000 0.014982 0.000000
# 6 0.000000 0.000000 0.000000 0.000000 0.000000 0.033389
#
#
# Mechanical properties :
#
#
# Convention : Reuss Voigt Hill
#
# Bulk Modulus (GPa) = 62.94334 79.83905 71.39119
# Shear Modulus (GPa) = 25.74827 33.37143 29.55985
#
# Velocity S-wave (km/s) = 3.73225 4.24897 3.99897
# Velocity P-wave (km/s) = 7.25431 8.20148 7.74239
#
# Compressibility (1/GPa) = 0.01588730
#
# Stress axis : x y z
#
# Youngs Moduli (GPa) = 76.68681 86.15886 40.51968
#
# Poissons Ratio (x) = 0.43621 0.27895
# Poissons Ratio (y) = 0.38826 0.19337
# Poissons Ratio (z) = 0.52793 0.41116
#
# Static dielectric constant tensor:
#      x y z
#    x 1.630160 0.000000 0.000000 
#    y 0.000000 1.622850 0.000000 
#    z 0.000000 0.000000 1.614920 
# 
# From -- ./inp_files/31153.got.cif
#   From: 2010.05.17/outbox.cif.g08.bks.cpg/sg66_16_cif.got.tgz:31153.got - 2010.06.03 17:51:23.
