data_PCOD9498056
_publ_section_title
;
Structure prediction by ZEFSAII (Michael W. Deem and Ramdas Pophale) SiO2 
 PCOD9498056
Probable space group: C C C M
;
_chemical_formula_sum "Si O2"
_cell_formula_units_Z 88
_cell_length_a 12.230664
_cell_length_b 15.002098
_cell_length_c 25.481097
_cell_angle_alpha 90.000000
_cell_angle_beta 90.000000
_cell_angle_gamma 90.000000
_cell_volume 4675.414880
_symmetry_space_group_name_H-M "C C C M"
_symmetry_group_IT_number 66
_symmetry_cell_setting 'orthorhombic'
loop_
_space_group_symop_operation_xyz
x,y,z
-x,-y,z
x,-y,1/2-z
-x,y,1/2-z
-x,-y,-z
x,y,-z
-x,y,1/2+z
x,-y,1/2+z
1/2+x,1/2+y,z
1/2-x,1/2-y,z
1/2+x,1/2-y,1/2-z
1/2-x,1/2+y,1/2-z
1/2-x,1/2-y,-z
1/2+x,1/2+y,-z
1/2-x,1/2+y,1/2+z
1/2+x,1/2-y,1/2+z
loop_
_atom_site_type_symbol
_atom_site_label
_atom_site_fract_x
_atom_site_fract_y
_atom_site_fract_z
Si Si1 0.721257 0.645201 0.500000
Si Si2 0.119455 0.955875 0.675091
Si Si3 0.027811 0.103591 0.000000
Si Si4 0.253616 0.390906 0.617829
Si Si5 0.500000 0.341147 0.250000
Si Si6 0.429051 0.241050 0.354873
Si Si7 0.861731 0.799841 0.094895
O O1 0.750000 0.750000 0.500000
O O2 0.590704 0.646644 0.500000
O O3 0.759291 0.597759 0.554534
O O4 0.096241 0.909328 0.731714
O O5 0.149658 0.867572 0.642851
O O6 0.206220 0.027795 0.654194
O O7 0.000000 0.000000 0.661486
O O8 0.095703 0.136771 0.049185
O O9 0.000000 0.000000 0.000000
O O10 0.351397 0.318287 0.621513
O O11 0.144934 0.346471 0.641813
O O12 0.460829 0.278885 0.297558
O O13 0.539432 0.234367 0.388635
O O14 0.750000 0.750000 0.082701
#
# Coordination Sequence:
#
# PCOD9498056 Si02
#       7
#     8  16   8  16   8  16  16
#     4  12  18  33  58  93 120 157 189 256 302 363
#     4  11  20  38  59  90 116 156 208 262 300 367
#     4  12  21  35  62  89 122 152 205 259 306 365
#     4  11  20  35  63  93 122 153 214 256 304 363
#     4  10  21  38  60  84 125 158 212 265 324 360
#     4  10  21  38  57  89 119 160 205 257 305 377
#     4  11  22  38  56  88 126 159 195 246 315 374
#
# _framework density 18.821860000000001
#
# number of rings (size 3 to 8) (size 9 to 14) (size 15 to 20)
#    0.000    1.091    7.273    2.182    0.000    0.000 
#   13.091    0.909    0.000    0.000    0.000    7.636 
#    0.000    0.000    0.000    0.000    0.000    0.000 
#
# Total GULP energy -245126.206735 kJ/mol
# GULP energy per Si atom -5571.050153 kJ/mol
# Density = 1.877902 g / cm^3
# Si number density = 18.821860 Si / 1000 Ang^3
#
#
#
# Elastic Constant Matrix: (Units=GPa)
#
#
# Indices 1 2 3 4 5 6 
#
# 1 122.6292 61.3056 37.8211 0.0000 0.0000 0.0000
# 2 61.3056 69.3540 30.9619 0.0000 0.0000 0.0000
# 3 37.8211 30.9619 128.7628 0.0000 0.0000 0.0000
# 4 0.0000 0.0000 0.0000 20.5588 0.0000 0.0000
# 5 0.0000 0.0000 0.0000 0.0000 -21.6744 0.0000
# 6 0.0000 0.0000 0.0000 0.0000 0.0000 37.3817
#
#
#
# Elastic Compliance Matrix: (Units=1/GPa)
#
#
# Indices 1 2 3 4 5 6 
#
# 1 0.014818 -0.012496 -0.001347 0.000000 0.000000 0.000000
# 2 -0.012496 0.026692 -0.002748 0.000000 0.000000 0.000000
# 3 -0.001347 -0.002748 0.008823 0.000000 0.000000 0.000000
# 4 0.000000 0.000000 0.000000 0.048641 0.000000 0.000000
# 5 0.000000 0.000000 0.000000 0.000000 -0.046137 0.000000
# 6 0.000000 0.000000 0.000000 0.000000 0.000000 0.026751
#
#
# Mechanical properties :
#
#
# Convention : Reuss Voigt Hill
#
# Bulk Modulus (GPa) = 58.31310 64.54702 61.43006
# Shear Modulus (GPa) = 42.19907 19.96371 31.08139
#
# Velocity S-wave (km/s) = 4.74014 3.26032 4.06808
# Velocity P-wave (km/s) = 7.81072 6.96714 7.40096
#
# Compressibility (1/GPa) = 0.01714881
#
# Stress axis : x y z
#
# Youngs Moduli (GPa) = 67.48744 37.46477 113.34400
#
# Poissons Ratio (x) = 0.46818 0.15273
# Poissons Ratio (y) = 0.84336 0.31143
# Poissons Ratio (z) = 0.09094 0.10294
#
# Static dielectric constant tensor:
#      x y z
#    x 1.642630 0.000000 0.000000 
#    y 0.000000 1.626960 0.000000 
#    z 0.000000 0.000000 1.279370 
# 
# From -- ./inp_files/56789.got.cif
#   From: 2010.05.17/outbox.cif.g08.bks.cpg/sg66_29_cif.got.tgz:56789.got - 2010.06.03 17:51:23.
