data_PCOD9498200
_publ_section_title
;
Structure prediction by ZEFSAII (Michael W. Deem and Ramdas Pophale) SiO2 
 PCOD9498200
Probable space group: C C C M
;
_chemical_formula_sum "Si O2"
_cell_formula_units_Z 76
_cell_length_a 5.714667
_cell_length_b 21.877076
_cell_length_c 25.830020
_cell_angle_alpha 90.000000
_cell_angle_beta 90.000000
_cell_angle_gamma 90.000000
_cell_volume 3229.274377
_symmetry_space_group_name_H-M "C C C M"
_symmetry_group_IT_number 66
_symmetry_cell_setting 'orthorhombic'
loop_
_space_group_symop_operation_xyz
x,y,z
-x,-y,z
x,-y,1/2-z
-x,y,1/2-z
-x,-y,-z
x,y,-z
-x,y,1/2+z
x,-y,1/2+z
1/2+x,1/2+y,z
1/2-x,1/2-y,z
1/2+x,1/2-y,1/2-z
1/2-x,1/2+y,1/2-z
1/2-x,1/2-y,-z
1/2+x,1/2+y,-z
1/2-x,1/2+y,1/2+z
1/2+x,1/2-y,1/2+z
loop_
_atom_site_type_symbol
_atom_site_label
_atom_site_fract_x
_atom_site_fract_y
_atom_site_fract_z
Si Si1 0.052261 0.801857 0.942885
Si Si2 0.000000 0.500000 0.000000
Si Si3 0.743584 0.334538 0.651379
Si Si4 0.000000 0.641146 0.250000
Si Si5 0.117881 0.408420 0.413096
Si Si6 0.872662 0.937446 0.684564
O O1 0.250000 0.750000 0.943272
O O2 0.177972 0.867645 0.938371
O O3 0.910813 0.795330 0.889017
O O4 0.932498 0.799827 0.000000
O O5 0.011117 0.447464 0.955306
O O6 0.567097 0.387173 0.670777
O O7 0.880203 0.318096 0.704668
O O8 0.941986 0.362984 0.615120
O O9 0.807685 0.595824 0.276262
O O10 0.230900 0.449532 0.368241
O O11 0.000000 0.000000 0.698913
#
# Coordination Sequence:
#
# PCOD9498200 Si02
#       6
#    16   4  16   8  16  16
#     4  10  22  42  66  97 133 176 230 282 341 412
#     4  12  20  36  60  88 142 172 208 268 328 402
#     4  10  22  39  62  96 128 178 222 286 341 404
#     4  10  22  39  64  94 132 180 234 290 339 410
#     4  10  22  38  60  97 132 174 223 272 337 409
#     4  10  21  39  59  93 130 175 228 278 336 406
#
# _framework density 23.534700000000001
#
# number of rings (size 3 to 8) (size 9 to 14) (size 15 to 20)
#    0.000    1.895    1.053    1.895    1.474    5.895 
#    0.000    6.842    0.000    0.000  197.053    0.000 
#    0.000    0.000    0.000    0.000    0.000    0.000 
#
# Total GULP energy -211710.612813 kJ/mol
# GULP energy per Si atom -5571.331916 kJ/mol
# Density = 2.348113 g / cm^3
# Si number density = 23.534700 Si / 1000 Ang^3
#
#
#
# Elastic Constant Matrix: (Units=GPa)
#
#
# Indices 1 2 3 4 5 6 
#
# 1 69.0032 10.9675 47.7881 0.0000 0.0000 0.0000
# 2 10.9675 60.6345 32.4540 0.0000 0.0000 0.0000
# 3 47.7881 32.4540 229.5446 0.0000 0.0000 0.0000
# 4 0.0000 0.0000 0.0000 10.7469 0.0000 0.0000
# 5 0.0000 0.0000 0.0000 0.0000 99.8131 0.0000
# 6 0.0000 0.0000 0.0000 0.0000 0.0000 28.4530
#
#
#
# Elastic Compliance Matrix: (Units=1/GPa)
#
#
# Indices 1 2 3 4 5 6 
#
# 1 0.017025 -0.001279 -0.003363 0.000000 0.000000 0.000000
# 2 -0.001279 0.017939 -0.002270 0.000000 0.000000 0.000000
# 3 -0.003363 -0.002270 0.005378 0.000000 0.000000 0.000000
# 4 0.000000 0.000000 0.000000 0.093050 0.000000 0.000000
# 5 0.000000 0.000000 0.000000 0.000000 0.010019 0.000000
# 6 0.000000 0.000000 0.000000 0.000000 0.000000 0.035146
#
#
# Mechanical properties :
#
#
# Convention : Reuss Voigt Hill
#
# Bulk Modulus (GPa) = 37.71330 60.17795 48.94563
# Shear Modulus (GPa) = 24.84849 45.66742 35.25796
#
# Velocity S-wave (km/s) = 3.25287 4.40981 3.87476
# Velocity P-wave (km/s) = 5.49250 7.18011 6.39224
#
# Compressibility (1/GPa) = 0.02651585
#
# Stress axis : x y z
#
# Youngs Moduli (GPa) = 58.73798 55.74568 185.95599
#
# Poissons Ratio (x) = 0.07131 0.62546
# Poissons Ratio (y) = 0.07514 0.42211
# Poissons Ratio (z) = 0.19756 0.12654
#
# Static dielectric constant tensor:
#      x y z
#    x 1.835330 0.000000 0.000000 
#    y 0.000000 1.867430 0.000000 
#    z 0.000000 0.000000 1.920720 
# 
# From -- ./inp_files/61593.got.cif
#   From: 2010.05.17/outbox.cif.g08.bks.cpg/sg66_31_cif.got.tgz:61593.got - 2010.06.03 17:51:23.
