data_PCOD9498365
_publ_section_title
;
Structure prediction by ZEFSAII (Michael W. Deem and Ramdas Pophale) SiO2 
 PCOD9498365
Probable space group: C C C M
;
_chemical_formula_sum "Si O2"
_cell_formula_units_Z 104
_cell_length_a 8.749482
_cell_length_b 20.541263
_cell_length_c 25.528204
_cell_angle_alpha 90.000000
_cell_angle_beta 90.000000
_cell_angle_gamma 90.000000
_cell_volume 4588.066953
_symmetry_space_group_name_H-M "C C C M"
_symmetry_group_IT_number 66
_symmetry_cell_setting 'orthorhombic'
loop_
_space_group_symop_operation_xyz
x,y,z
-x,-y,z
x,-y,1/2-z
-x,y,1/2-z
-x,-y,-z
x,y,-z
-x,y,1/2+z
x,-y,1/2+z
1/2+x,1/2+y,z
1/2-x,1/2-y,z
1/2+x,1/2-y,1/2-z
1/2-x,1/2+y,1/2-z
1/2-x,1/2-y,-z
1/2+x,1/2+y,-z
1/2-x,1/2+y,1/2+z
1/2+x,1/2-y,1/2+z
loop_
_atom_site_type_symbol
_atom_site_label
_atom_site_fract_x
_atom_site_fract_y
_atom_site_fract_z
Si Si1 0.910328 0.792842 0.055270
Si Si2 0.407300 0.171253 0.000000
Si Si3 0.931916 0.066710 0.414907
Si Si4 0.433496 0.931685 0.416272
Si Si5 0.428105 0.396239 0.695454
Si Si6 0.431735 0.893152 0.805513
Si Si7 0.074051 0.248211 0.657770
O O1 0.734203 0.809324 0.045068
O O2 0.982108 0.865388 0.057908
O O3 0.964307 0.759878 0.107951
O O4 0.967198 0.754165 0.000000
O O5 0.488504 0.127046 0.046824
O O6 0.749790 0.062830 0.418323
O O7 0.986147 0.074917 0.354822
O O8 0.000000 0.000000 0.436288
O O9 0.485340 0.921058 0.356471
O O10 0.500000 0.000000 0.434904
O O11 0.500000 0.418143 0.750000
O O12 0.247742 0.409825 0.692409
O O13 0.445095 0.317606 0.690829
O O14 0.500000 0.914136 0.750000
O O15 0.451381 0.814731 0.811317
O O16 0.250000 0.250000 0.638632
#
# Coordination Sequence:
#
# PCOD9498365 Si02
#       7
#    16   8  16  16  16  16  16
#     4   9  20  41  66  95 130 174 222 278 326 395
#     4  10  23  47  69 102 134 177 220 286 330 398
#     4  11  25  44  66  96 137 179 221 277 335 397
#     4  12  26  45  69  98 137 179 229 274 334 401
#     4  10  21  40  64  97 136 179 222 271 340 396
#     4  11  21  39  68 100 136 175 225 279 331 405
#     4   9  18  35  59  94 138 175 217 276 334 397
#
# _framework density 22.667497000000001
#
# number of rings (size 3 to 8) (size 9 to 14) (size 15 to 20)
#    0.462    1.231    1.538    2.538    1.077    2.462 
#    0.000    4.615    0.000    0.000    0.000    0.000 
#    0.000    0.000    0.000    0.000    0.000    0.000 
#
# Total GULP energy -289860.288337 kJ/mol
# GULP energy per Si atom -5574.236314 kJ/mol
# Density = 2.261590 g / cm^3
# Si number density = 22.667497 Si / 1000 Ang^3
#
#
#
# Elastic Constant Matrix: (Units=GPa)
#
#
# Indices 1 2 3 4 5 6 
#
# 1 74.2351 34.5789 48.2380 0.0000 0.0000 0.0000
# 2 34.5789 138.5467 32.2348 0.0000 0.0000 0.0000
# 3 48.2380 32.2348 158.1757 0.0000 0.0000 0.0000
# 4 0.0000 0.0000 0.0000 -49.6805 0.0000 0.0000
# 5 0.0000 0.0000 0.0000 0.0000 18.2811 0.0000
# 6 0.0000 0.0000 0.0000 0.0000 0.0000 32.7182
#
#
#
# Elastic Compliance Matrix: (Units=1/GPa)
#
#
# Indices 1 2 3 4 5 6 
#
# 1 0.018220 -0.003417 -0.004860 0.000000 0.000000 0.000000
# 2 -0.003417 0.008218 -0.000633 0.000000 0.000000 0.000000
# 3 -0.004860 -0.000633 0.007933 0.000000 0.000000 0.000000
# 4 0.000000 0.000000 0.000000 -0.020129 0.000000 0.000000
# 5 0.000000 0.000000 0.000000 0.000000 0.054701 0.000000
# 6 0.000000 0.000000 0.000000 0.000000 0.000000 0.030564
#
#
# Mechanical properties :
#
#
# Convention : Reuss Voigt Hill
#
# Bulk Modulus (GPa) = 60.41574 66.78456 63.60015
# Shear Modulus (GPa) = 40.70171 17.32415 29.01293
#
# Velocity S-wave (km/s) = 4.24205 2.76755 3.58150
# Velocity P-wave (km/s) = 7.12069 6.30389 6.72470
#
# Compressibility (1/GPa) = 0.01655198
#
# Stress axis : x y z
#
# Youngs Moduli (GPa) = 54.88345 121.68785 126.05179
#
# Poissons Ratio (x) = 0.41577 0.61265
# Poissons Ratio (y) = 0.18752 0.07976
# Poissons Ratio (z) = 0.26675 0.07700
#
# Static dielectric constant tensor:
#      x y z
#    x 1.788110 0.000000 0.000000 
#    y 0.000000 2.098420 0.000000 
#    z 0.000000 0.000000 1.804220 
# 
# From -- ./inp_files/62703.got.cif
#   From: 2010.05.17/outbox.cif.g08.bks.cpg/sg66_32_cif.got.tgz:62703.got - 2010.06.03 17:51:23.
