data_PCOD9498257
_publ_section_title
;
Structure prediction by ZEFSAII (Michael W. Deem and Ramdas Pophale) SiO2 
 PCOD9498257
Probable space group: C C C M
;
_chemical_formula_sum "Si O2"
_cell_formula_units_Z 68
_cell_length_a 8.267928
_cell_length_b 18.002776
_cell_length_c 21.974343
_cell_angle_alpha 90.000000
_cell_angle_beta 90.000000
_cell_angle_gamma 90.000000
_cell_volume 3270.785494
_symmetry_space_group_name_H-M "C C C M"
_symmetry_group_IT_number 66
_symmetry_cell_setting 'orthorhombic'
loop_
_space_group_symop_operation_xyz
x,y,z
-x,-y,z
x,-y,1/2-z
-x,y,1/2-z
-x,-y,-z
x,y,-z
-x,y,1/2+z
x,-y,1/2+z
1/2+x,1/2+y,z
1/2-x,1/2-y,z
1/2+x,1/2-y,1/2-z
1/2-x,1/2+y,1/2-z
1/2-x,1/2-y,-z
1/2+x,1/2+y,-z
1/2-x,1/2+y,1/2+z
1/2+x,1/2-y,1/2+z
loop_
_atom_site_type_symbol
_atom_site_label
_atom_site_fract_x
_atom_site_fract_y
_atom_site_fract_z
Si Si1 0.807468 0.490466 0.067379
Si Si2 0.314252 0.831615 0.267973
Si Si3 0.112491 0.073747 0.324048
Si Si4 0.250000 0.250000 0.000000
Si Si5 0.334729 0.646424 0.606666
O O1 0.744736 0.444669 0.124608
O O2 0.720592 0.569931 0.074827
O O3 0.000000 0.500000 0.070267
O O4 0.767187 0.459814 0.000000
O O5 0.500000 0.841364 0.250000
O O6 0.250000 0.750000 0.249680
O O7 0.202422 0.893531 0.234819
O O8 0.296327 0.837218 0.340743
O O9 0.996380 0.134526 0.354559
O O10 0.000000 0.000000 0.315917
O O11 0.347976 0.294264 0.053986
#
# Coordination Sequence:
#
# PCOD9498257 Si02
#       5
#    16  16  16   4  16
#     4  10  21  39  63  93 132 172 220 270 325 389
#     4  12  25  44  69 100 137 176 223 278 340 397
#     4  10  24  43  68  98 133 172 225 273 331 396
#     4  12  24  40  64  98 130 176 216 264 326 400
#     4  11  23  41  68  93 130 174 218 270 327 395
#
# _framework density 20.790113000000002
#
# number of rings (size 3 to 8) (size 9 to 14) (size 15 to 20)
#    0.000    1.176    2.353    3.529    1.647    8.000 
#    0.000    5.882    0.000    3.529    0.000    0.000 
#    0.000    0.000    0.000    0.000    0.000    0.000 
#
# Total GULP energy -189449.038155 kJ/mol
# GULP energy per Si atom -5572.030534 kJ/mol
# Density = 2.074279 g / cm^3
# Si number density = 20.790113 Si / 1000 Ang^3
#
#
#
# Elastic Constant Matrix: (Units=GPa)
#
#
# Indices 1 2 3 4 5 6 
#
# 1 84.4267 13.7322 52.2789 0.0000 0.0000 0.0000
# 2 13.7322 46.0357 31.8409 0.0000 0.0000 0.0000
# 3 52.2789 31.8409 194.5968 0.0000 0.0000 0.0000
# 4 0.0000 0.0000 0.0000 38.1023 0.0000 0.0000
# 5 0.0000 0.0000 0.0000 0.0000 -93.3987 0.0000
# 6 0.0000 0.0000 0.0000 0.0000 0.0000 23.9737
#
#
#
# Elastic Compliance Matrix: (Units=1/GPa)
#
#
# Indices 1 2 3 4 5 6 
#
# 1 0.014342 -0.001819 -0.003555 0.000000 0.000000 0.000000
# 2 -0.001819 0.024725 -0.003557 0.000000 0.000000 0.000000
# 3 -0.003555 -0.003557 0.006676 0.000000 0.000000 0.000000
# 4 0.000000 0.000000 0.000000 0.026245 0.000000 0.000000
# 5 0.000000 0.000000 0.000000 0.000000 -0.010707 0.000000
# 6 0.000000 0.000000 0.000000 0.000000 0.000000 0.041712
#
#
# Mechanical properties :
#
#
# Convention : Reuss Voigt Hill
#
# Bulk Modulus (GPa) = 35.86755 57.86257 46.86506
# Shear Modulus (GPa) = 38.41722 8.88262 23.64992
#
# Velocity S-wave (km/s) = 4.30334 2.06925 3.37643
# Velocity P-wave (km/s) = 6.47930 5.79666 6.14746
#
# Compressibility (1/GPa) = 0.02788036
#
# Stress axis : x y z
#
# Youngs Moduli (GPa) = 69.72514 40.44481 149.79038
#
# Poissons Ratio (x) = 0.07357 0.53256
# Poissons Ratio (y) = 0.12683 0.53280
# Poissons Ratio (z) = 0.24790 0.14386
#
# Static dielectric constant tensor:
#      x y z
#    x 1.724710 0.000000 0.000000 
#    y 0.000000 1.799210 0.000000 
#    z 0.000000 0.000000 1.743780 
# 
# From -- ./inp_files/42498.got.cif
#   From: 2010.05.17/outbox.cif.g08.bks.cpg/sg66_22_cif.got.tgz:42498.got - 2010.06.03 17:51:23.
