data_PCOD9498162
_publ_section_title
;
Structure prediction by ZEFSAII (Michael W. Deem and Ramdas Pophale) SiO2 
 PCOD9498162
Probable space group: C C C M
;
_chemical_formula_sum "Si O2"
_cell_formula_units_Z 88
_cell_length_a 13.502143
_cell_length_b 21.341948
_cell_length_c 15.247568
_cell_angle_alpha 90.000000
_cell_angle_beta 90.000000
_cell_angle_gamma 90.000000
_cell_volume 4393.770205
_symmetry_space_group_name_H-M "C C C M"
_symmetry_group_IT_number 66
_symmetry_cell_setting 'orthorhombic'
loop_
_space_group_symop_operation_xyz
x,y,z
-x,-y,z
x,-y,1/2-z
-x,y,1/2-z
-x,-y,-z
x,y,-z
-x,y,1/2+z
x,-y,1/2+z
1/2+x,1/2+y,z
1/2-x,1/2-y,z
1/2+x,1/2-y,1/2-z
1/2-x,1/2+y,1/2-z
1/2-x,1/2-y,-z
1/2+x,1/2+y,-z
1/2-x,1/2+y,1/2+z
1/2+x,1/2-y,1/2+z
loop_
_atom_site_type_symbol
_atom_site_label
_atom_site_fract_x
_atom_site_fract_y
_atom_site_fract_z
Si Si1 0.430783 0.287974 0.000000
Si Si2 0.933245 0.214034 0.170186
Si Si3 0.881495 0.001308 0.145802
Si Si4 0.441764 0.862605 0.833932
Si Si5 0.298448 0.590791 0.500000
Si Si6 0.083688 0.356848 0.000000
Si Si7 0.771225 0.126496 0.101705
O O1 0.501609 0.295330 0.916443
O O2 0.349073 0.341250 0.000000
O O3 0.389276 0.217238 0.000000
O O4 0.920376 0.288476 0.182097
O O5 0.829526 0.179678 0.155626
O O6 0.000000 0.188950 0.250000
O O7 0.840038 0.065829 0.107048
O O8 0.858044 0.000000 0.250000
O O9 0.000000 0.000000 0.136705
O O10 0.834452 0.946484 0.086600
O O11 0.500000 0.887984 0.750000
O O12 0.515223 0.867855 0.915754
O O13 0.335034 0.889942 0.857356
O O14 0.180954 0.601043 0.500000
O O15 0.757382 0.146250 0.000000
#
# Coordination Sequence:
#
# PCOD9498162 Si02
#       7
#     8  16  16  16   8   8  16
#     4  10  21  38  63  99 134 168 209 259 334 391
#     4  10  22  37  63 100 133 168 210 263 326 391
#     4  11  27  45  65  93 127 163 212 268 321 385
#     4  10  23  42  63  95 134 169 215 268 316 380
#     4  12  24  43  66  91 130 170 214 264 322 382
#     4  10  23  41  65  96 132 170 211 269 320 381
#     4  12  23  41  69  94 126 174 219 262 323 381
#
# _framework density 20.028355999999999
#
# number of rings (size 3 to 8) (size 9 to 14) (size 15 to 20)
#    0.000    1.273    2.727    2.182    7.636    0.727 
#    0.000    7.273    0.000    0.000    0.000    0.000 
#    0.000    0.000    0.000    0.000    0.000    0.000 
#
# Total GULP energy -245973.591236 kJ/mol
# GULP energy per Si atom -5590.308892 kJ/mol
# Density = 1.998277 g / cm^3
# Si number density = 20.028356 Si / 1000 Ang^3
#
#
#
# Elastic Constant Matrix: (Units=GPa)
#
#
# Indices 1 2 3 4 5 6 
#
# 1 130.3999 38.6623 50.0727 0.0000 0.0000 0.0000
# 2 38.6623 31.6604 23.4178 0.0000 0.0000 0.0000
# 3 50.0727 23.4178 140.4437 0.0000 0.0000 0.0000
# 4 0.0000 0.0000 0.0000 -42.4158 0.0000 0.0000
# 5 0.0000 0.0000 0.0000 0.0000 8.2050 0.0000
# 6 0.0000 0.0000 0.0000 0.0000 0.0000 31.4848
#
#
#
# Elastic Compliance Matrix: (Units=1/GPa)
#
#
# Indices 1 2 3 4 5 6 
#
# 1 0.012588 -0.013748 -0.002196 0.000000 0.000000 0.000000
# 2 -0.013748 0.051043 -0.003610 0.000000 0.000000 0.000000
# 3 -0.002196 -0.003610 0.008505 0.000000 0.000000 0.000000
# 4 0.000000 0.000000 0.000000 -0.023576 0.000000 0.000000
# 5 0.000000 0.000000 0.000000 0.000000 0.121876 0.000000
# 6 0.000000 0.000000 0.000000 0.000000 0.000000 0.031761
#
#
# Mechanical properties :
#
#
# Convention : Reuss Voigt Hill
#
# Bulk Modulus (GPa) = 30.27538 58.53441 44.40490
# Shear Modulus (GPa) = 19.81663 12.14489 15.98076
#
# Velocity S-wave (km/s) = 3.14893 2.46516 2.82779
# Velocity P-wave (km/s) = 5.32636 6.11489 5.73420
#
# Compressibility (1/GPa) = 0.03303014
#
# Stress axis : x y z
#
# Youngs Moduli (GPa) = 79.44135 19.59130 117.57824
#
# Poissons Ratio (x) = 0.26934 0.25816
# Poissons Ratio (y) = 1.09214 0.42440
# Poissons Ratio (z) = 0.17443 0.07071
#
# Static dielectric constant tensor:
#      x y z
#    x 1.672230 0.000000 0.000000 
#    y 0.000000 1.714830 0.000000 
#    z 0.000000 0.000000 1.715380 
# 
# From -- ./inp_files/26583.got.cif
#   From: 2010.05.17/outbox.cif.g08.bks.cpg/sg66_14_cif.got.tgz:26583.got - 2010.06.03 17:51:23.
