data_PCOD9498692
_publ_section_title
;
Structure prediction by ZEFSAII (Michael W. Deem and Ramdas Pophale) SiO2 
 PCOD9498692
Probable space group: C C C M
;
_chemical_formula_sum "Si O2"
_cell_formula_units_Z 64
_cell_length_a 7.653392
_cell_length_b 12.122302
_cell_length_c 27.951272
_cell_angle_alpha 90.000000
_cell_angle_beta 90.000000
_cell_angle_gamma 90.000000
_cell_volume 2593.227592
_symmetry_space_group_name_H-M "C C C M"
_symmetry_group_IT_number 66
_symmetry_cell_setting 'orthorhombic'
loop_
_space_group_symop_operation_xyz
x,y,z
-x,-y,z
x,-y,1/2-z
-x,y,1/2-z
-x,-y,-z
x,y,-z
-x,y,1/2+z
x,-y,1/2+z
1/2+x,1/2+y,z
1/2-x,1/2-y,z
1/2+x,1/2-y,1/2-z
1/2-x,1/2+y,1/2-z
1/2-x,1/2-y,-z
1/2+x,1/2+y,-z
1/2-x,1/2+y,1/2+z
1/2+x,1/2-y,1/2+z
loop_
_atom_site_type_symbol
_atom_site_label
_atom_site_fract_x
_atom_site_fract_y
_atom_site_fract_z
Si Si1 0.247929 0.988532 0.000000
Si Si2 0.500000 0.500000 0.589840
Si Si3 0.442797 0.127407 0.186134
Si Si4 0.959327 0.766791 0.603602
Si Si5 0.750000 0.750000 0.742769
Si Si6 0.503236 0.198671 0.500000
O O1 0.371421 0.093644 0.000000
O O2 0.156335 0.995067 0.051578
O O3 0.320878 0.865156 0.000000
O O4 0.499375 0.389988 0.620974
O O5 0.440287 0.171136 0.132150
O O6 0.271151 0.150078 0.218317
O O7 0.591235 0.211724 0.208273
O O8 0.500000 0.000000 0.188986
O O9 0.750000 0.750000 0.605506
O O10 0.021217 0.764719 0.548580
#
# Coordination Sequence:
#
# PCOD9498692 Si02
#       6
#     8   8  16  16   8   8
#     4  10  22  39  65  96 134 197 252 296 339 416
#     4  11  24  42  64  97 142 188 248 299 348 409
#     4  11  26  48  77 109 146 183 236 297 359 435
#     4  12  25  44  68 106 148 188 243 296 355 423
#     4  10  22  50  74 106 134 180 228 294 368 420
#     4  11  23  41  69  98 144 201 238 290 363 409
#
# _framework density 24.679670000000002
#
# number of rings (size 3 to 8) (size 9 to 14) (size 15 to 20)
#    0.000    1.000    3.750    3.375    3.500    6.000 
#    4.500    5.000    0.000    0.000    0.000    0.000 
#    0.000    0.000    0.000    0.000    0.000    0.000 
#
# Total GULP energy -178583.489083 kJ/mol
# GULP energy per Si atom -5580.734034 kJ/mol
# Density = 2.462350 g / cm^3
# Si number density = 24.679670 Si / 1000 Ang^3
#
#
#
# Elastic Constant Matrix: (Units=GPa)
#
#
# Indices 1 2 3 4 5 6 
#
# 1 44.1922 38.9425 13.5748 0.0000 0.0000 0.0000
# 2 38.9425 200.1913 26.6726 0.0000 0.0000 0.0000
# 3 13.5748 26.6726 111.5990 0.0000 0.0000 0.0000
# 4 0.0000 0.0000 0.0000 30.9536 0.0000 0.0000
# 5 0.0000 0.0000 0.0000 0.0000 15.7463 0.0000
# 6 0.0000 0.0000 0.0000 0.0000 0.0000 42.1702
#
#
#
# Elastic Compliance Matrix: (Units=1/GPa)
#
#
# Indices 1 2 3 4 5 6 
#
# 1 0.027804 -0.005121 -0.002158 0.000000 0.000000 0.000000
# 2 -0.005121 0.006103 -0.000836 0.000000 0.000000 0.000000
# 3 -0.002158 -0.000836 0.009423 0.000000 0.000000 0.000000
# 4 0.000000 0.000000 0.000000 0.032306 0.000000 0.000000
# 5 0.000000 0.000000 0.000000 0.000000 0.063507 0.000000
# 6 0.000000 0.000000 0.000000 0.000000 0.000000 0.023713
#
#
# Mechanical properties :
#
#
# Convention : Reuss Voigt Hill
#
# Bulk Modulus (GPa) = 36.90033 57.15139 47.02586
# Shear Modulus (GPa) = 26.57881 36.22685 31.40283
#
# Velocity S-wave (km/s) = 3.28525 3.83545 3.57097
# Velocity P-wave (km/s) = 5.41984 6.54384 6.00818
#
# Compressibility (1/GPa) = 0.02710003
#
# Stress axis : x y z
#
# Youngs Moduli (GPa) = 35.96588 163.86055 106.12460
#
# Poissons Ratio (x) = 0.83915 0.22903
# Poissons Ratio (y) = 0.18418 0.08868
# Poissons Ratio (z) = 0.07762 0.13693
#
# Static dielectric constant tensor:
#      x y z
#    x 2.145190 0.000000 0.000000 
#    y 0.000000 1.939800 0.000000 
#    z 0.000000 0.000000 2.010820 
# 
# From -- ./inp_files/67973.got.cif
#   From: 2010.05.17/outbox.cif.g08.bks.cpg/sg66_34_cif.got.tgz:67973.got - 2010.06.03 17:51:23.
