data_PCOD9498423
_publ_section_title
;
Structure prediction by ZEFSAII (Michael W. Deem and Ramdas Pophale) SiO2 
 PCOD9498423
Probable space group: C C C M
;
_chemical_formula_sum "Si O2"
_cell_formula_units_Z 116
_cell_length_a 24.159178
_cell_length_b 7.975328
_cell_length_c 30.985394
_cell_angle_alpha 90.000000
_cell_angle_beta 90.000000
_cell_angle_gamma 90.000000
_cell_volume 5970.184186
_symmetry_space_group_name_H-M "C C C M"
_symmetry_group_IT_number 66
_symmetry_cell_setting 'orthorhombic'
loop_
_space_group_symop_operation_xyz
x,y,z
-x,-y,z
x,-y,1/2-z
-x,y,1/2-z
-x,-y,-z
x,y,-z
-x,y,1/2+z
x,-y,1/2+z
1/2+x,1/2+y,z
1/2-x,1/2-y,z
1/2+x,1/2-y,1/2-z
1/2-x,1/2+y,1/2-z
1/2-x,1/2-y,-z
1/2+x,1/2+y,-z
1/2-x,1/2+y,1/2+z
1/2+x,1/2-y,1/2+z
loop_
_atom_site_type_symbol
_atom_site_label
_atom_site_fract_x
_atom_site_fract_y
_atom_site_fract_z
Si Si1 0.310424 0.318129 0.591752
Si Si2 0.913895 0.110180 0.318872
Si Si3 0.688569 0.307886 0.735850
Si Si4 0.868003 0.266456 0.176269
Si Si5 0.000000 0.000000 0.250000
Si Si6 0.623752 0.939622 0.550101
Si Si7 0.249295 0.554450 0.452404
Si Si8 0.062440 0.439339 0.132480
O O1 0.250000 0.250000 0.576431
O O2 0.320873 0.262657 0.640220
O O3 0.362535 0.251149 0.564814
O O4 0.296431 0.508933 0.582397
O O5 0.856069 0.186430 0.302024
O O6 0.932552 0.243280 0.354856
O O7 0.959636 0.108271 0.280635
O O8 0.903076 0.909884 0.326856
O O9 0.693917 0.500000 0.750000
O O10 0.750000 0.250000 0.724775
O O11 0.660264 0.217396 0.777023
O O12 0.901458 0.432315 0.162398
O O13 0.608997 0.953317 0.500000
O O14 0.685324 0.013628 0.557487
O O15 0.582997 0.024726 0.583824
O O16 0.262936 0.479448 0.500000
O O17 0.250000 0.750000 0.456430
O O18 0.000000 0.500000 0.137337
#
# Coordination Sequence:
#
# PCOD9498423 Si02
#       8
#    16  16  16  16   4  16  16  16
#     4   9  17  31  54  83 115 160 189 235 292 354
#     4  11  24  42  63  89 120 162 200 259 303 358
#     4  10  22  40  58  88 123 162 193 239 308 367
#     4  10  21  41  58  87 121 155 201 243 302 355
#     4  12  20  48  66  84 122 158 216 258 310 344
#     4   9  19  37  57  82 118 152 194 242 296 364
#     4   9  17  29  50  84 116 150 193 234 286 355
#     4  11  25  40  62  91 112 154 207 255 305 351
#
# _framework density 19.429884999999999
#
# number of rings (size 3 to 8) (size 9 to 14) (size 15 to 20)
#    0.000    2.069    2.069    1.655    3.862    1.931 
#    4.966    0.000    0.000    0.000    0.000    3.379 
#    0.000    0.000    0.000    0.000    0.000    0.000 
#
# Total GULP energy -322898.147866 kJ/mol
# GULP energy per Si atom -5567.209446 kJ/mol
# Density = 1.938566 g / cm^3
# Si number density = 19.429885 Si / 1000 Ang^3
#
#
#
# Elastic Constant Matrix: (Units=GPa)
#
#
# Indices 1 2 3 4 5 6 
#
# 1 63.7718 6.2566 7.2242 0.0000 0.0000 0.0000
# 2 6.2566 48.6614 8.0092 0.0000 0.0000 0.0000
# 3 7.2242 8.0092 38.8711 0.0000 0.0000 0.0000
# 4 0.0000 0.0000 0.0000 23.2733 0.0000 0.0000
# 5 0.0000 0.0000 0.0000 0.0000 10.5819 0.0000
# 6 0.0000 0.0000 0.0000 0.0000 0.0000 20.0361
#
#
#
# Elastic Compliance Matrix: (Units=1/GPa)
#
#
# Indices 1 2 3 4 5 6 
#
# 1 0.016143 -0.001637 -0.002663 0.000000 0.000000 0.000000
# 2 -0.001637 0.021438 -0.004113 0.000000 0.000000 0.000000
# 3 -0.002663 -0.004113 0.027068 0.000000 0.000000 0.000000
# 4 0.000000 0.000000 0.000000 0.042968 0.000000 0.000000
# 5 0.000000 0.000000 0.000000 0.000000 0.094501 0.000000
# 6 0.000000 0.000000 0.000000 0.000000 0.000000 0.049910
#
#
# Mechanical properties :
#
#
# Convention : Reuss Voigt Hill
#
# Bulk Modulus (GPa) = 20.91035 21.58714 21.24874
# Shear Modulus (GPa) = 17.55653 19.43256 18.49454
#
# Velocity S-wave (km/s) = 3.00923 3.16593 3.08857
# Velocity P-wave (km/s) = 4.78114 4.94960 4.86610
#
# Compressibility (1/GPa) = 0.04782321
#
# Stress axis : x y z
#
# Youngs Moduli (GPa) = 61.94558 46.64697 36.94352
#
# Poissons Ratio (x) = 0.07638 0.09837
# Poissons Ratio (y) = 0.10143 0.15194
# Poissons Ratio (z) = 0.16495 0.19185
#
# Static dielectric constant tensor:
#      x y z
#    x 1.678410 0.000000 0.000000 
#    y 0.000000 1.948660 0.000000 
#    z 0.000000 0.000000 1.729070 
# 
# From -- ./inp_files/66134.got.cif
#   From: 2010.05.17/outbox.cif.g08.bks.cpg/sg66_34_cif.got.tgz:66134.got - 2010.06.03 17:51:23.
