data_PCOD9498758
_publ_section_title
;
Structure prediction by ZEFSAII (Michael W. Deem and Ramdas Pophale) SiO2 
 PCOD9498758
Probable space group: C C C M
;
_chemical_formula_sum "Si O2"
_cell_formula_units_Z 120
_cell_length_a 25.884024
_cell_length_b 9.278398
_cell_length_c 25.675825
_cell_angle_alpha 90.000000
_cell_angle_beta 90.000000
_cell_angle_gamma 90.000000
_cell_volume 6166.364583
_symmetry_space_group_name_H-M "C C C M"
_symmetry_group_IT_number 66
_symmetry_cell_setting 'orthorhombic'
loop_
_space_group_symop_operation_xyz
x,y,z
-x,-y,z
x,-y,1/2-z
-x,y,1/2-z
-x,-y,-z
x,y,-z
-x,y,1/2+z
x,-y,1/2+z
1/2+x,1/2+y,z
1/2-x,1/2-y,z
1/2+x,1/2-y,1/2-z
1/2-x,1/2+y,1/2-z
1/2-x,1/2-y,-z
1/2+x,1/2+y,-z
1/2-x,1/2+y,1/2+z
1/2+x,1/2-y,1/2+z
loop_
_atom_site_type_symbol
_atom_site_label
_atom_site_fract_x
_atom_site_fract_y
_atom_site_fract_z
Si Si1 0.134582 0.795844 0.627838
Si Si2 0.854232 0.772424 0.439615
Si Si3 0.750000 0.750000 0.717907
Si Si4 0.641230 0.832033 0.238498
Si Si5 0.221602 0.966248 0.871263
Si Si6 0.320777 0.953551 0.561183
Si Si7 0.945978 0.043104 0.896509
Si Si8 0.948974 0.149569 0.219989
O O1 0.125102 0.704890 0.679798
O O2 0.150027 0.686207 0.582391
O O3 0.182137 0.904214 0.639018
O O4 0.087116 0.898751 0.613639
O O5 0.840824 0.798748 0.500000
O O6 0.810990 0.846999 0.403523
O O7 0.853115 0.601068 0.430995
O O8 0.908537 0.847527 0.426650
O O9 0.698488 0.773122 0.750765
O O10 0.758106 0.888359 0.680477
O O11 0.600016 0.752011 0.275035
O O12 0.640703 0.000000 0.250000
O O13 0.268811 0.024065 0.905563
O O14 0.309012 0.940036 0.500000
O O15 0.958523 0.113346 0.840134
O O16 0.000000 0.000000 0.922224
O O17 0.000000 0.205972 0.250000
O O18 0.936351 0.000000 0.250000
#
# Coordination Sequence:
#
# PCOD9498758 Si02
#       8
#    16  16   8  16  16  16  16  16
#     4  11  25  39  60  92 124 164 208 256 312 370
#     4  10  22  40  65  93 123 162 209 259 314 372
#     4  12  26  38  61  94 131 172 206 256 318 380
#     4  12  27  38  59  90 133 170 201 254 315 383
#     4  11  22  40  64  88 123 166 216 250 299 373
#     4  11  23  41  62  89 126 164 208 260 309 366
#     4  11  22  42  69  92 119 160 210 266 313 377
#     4  11  21  43  68  91 119 161 212 256 313 361
#
# _framework density 19.460412999999999
#
# number of rings (size 3 to 8) (size 9 to 14) (size 15 to 20)
#    0.000    0.933    4.000    3.200    5.600    4.800 
#    0.000    0.667    0.000    1.600    0.000    0.000 
#    0.000    0.000    0.000    0.000    0.000    0.000 
#
# Total GULP energy -335620.039887 kJ/mol
# GULP energy per Si atom -5593.667331 kJ/mol
# Density = 1.941612 g / cm^3
# Si number density = 19.460413 Si / 1000 Ang^3
#
#
#
# Elastic Constant Matrix: (Units=GPa)
#
#
# Indices 1 2 3 4 5 6 
#
# 1 115.7455 30.9380 -10.7568 0.0000 0.0000 0.0000
# 2 30.9380 73.2681 10.0614 0.0000 0.0000 0.0000
# 3 -10.7568 10.0614 19.1522 0.0000 0.0000 0.0000
# 4 0.0000 0.0000 0.0000 21.3167 0.0000 0.0000
# 5 0.0000 0.0000 0.0000 0.0000 9.4297 0.0000
# 6 0.0000 0.0000 0.0000 0.0000 0.0000 17.2911
#
#
#
# Elastic Compliance Matrix: (Units=1/GPa)
#
#
# Indices 1 2 3 4 5 6 
#
# 1 0.011110 -0.005979 0.009381 0.000000 0.000000 0.000000
# 2 -0.005979 0.017928 -0.012776 0.000000 0.000000 0.000000
# 3 0.009381 -0.012776 0.064194 0.000000 0.000000 0.000000
# 4 0.000000 0.000000 0.000000 0.046912 0.000000 0.000000
# 5 0.000000 0.000000 0.000000 0.000000 0.106048 0.000000
# 6 0.000000 0.000000 0.000000 0.000000 0.000000 0.057833
#
#
# Mechanical properties :
#
#
# Convention : Reuss Voigt Hill
#
# Bulk Modulus (GPa) = 13.42611 29.85011 21.63811
# Shear Modulus (GPa) = 14.38427 21.46903 17.92665
#
# Velocity S-wave (km/s) = 2.72169 3.32507 3.03840
# Velocity P-wave (km/s) = 4.09768 5.48759 4.84276
#
# Compressibility (1/GPa) = 0.07448171
#
# Stress axis : x y z
#
# Youngs Moduli (GPa) = 90.01129 55.77918 15.57779
#
# Poissons Ratio (x) = 0.33352 -0.14613
# Poissons Ratio (y) = 0.53821 0.19903
# Poissons Ratio (z) = -0.84439 0.71266
#
# Static dielectric constant tensor:
#      x y z
#    x 1.673460 0.000000 0.000000 
#    y 0.000000 1.669280 0.000000 
#    z 0.000000 0.000000 1.675730 
# 
# From -- ./inp_files/66322.got.cif
#   From: 2010.05.17/outbox.cif.g08.bks.cpg/sg66_34_cif.got.tgz:66322.got - 2010.06.03 17:51:23.
