data_PCOD9498047
_publ_section_title
;
Structure prediction by ZEFSAII (Michael W. Deem and Ramdas Pophale) SiO2 
 PCOD9498047
Probable space group: C C C M
;
_chemical_formula_sum "Si O2"
_cell_formula_units_Z 80
_cell_length_a 17.767465
_cell_length_b 17.882506
_cell_length_c 14.051861
_cell_angle_alpha 90.000000
_cell_angle_beta 90.000000
_cell_angle_gamma 90.000000
_cell_volume 4464.652822
_symmetry_space_group_name_H-M "C C C M"
_symmetry_group_IT_number 66
_symmetry_cell_setting 'orthorhombic'
loop_
_space_group_symop_operation_xyz
x,y,z
-x,-y,z
x,-y,1/2-z
-x,y,1/2-z
-x,-y,-z
x,y,-z
-x,y,1/2+z
x,-y,1/2+z
1/2+x,1/2+y,z
1/2-x,1/2-y,z
1/2+x,1/2-y,1/2-z
1/2-x,1/2+y,1/2-z
1/2-x,1/2-y,-z
1/2+x,1/2+y,-z
1/2-x,1/2+y,1/2+z
1/2+x,1/2-y,1/2+z
loop_
_atom_site_type_symbol
_atom_site_label
_atom_site_fract_x
_atom_site_fract_y
_atom_site_fract_z
Si Si1 0.758372 0.374649 0.788589
Si Si2 0.929530 0.041105 0.647630
Si Si3 0.624966 0.744281 0.285884
Si Si4 0.242221 0.028458 0.104663
Si Si5 0.469235 0.288203 0.113347
O O1 0.679900 0.328180 0.789658
O O2 0.823551 0.315295 0.809560
O O3 0.758316 0.444243 0.860464
O O4 0.767337 0.412696 0.684858
O O5 0.848286 0.034942 0.602044
O O6 0.953983 0.126960 0.647572
O O7 0.920753 0.000000 0.750000
O O8 0.000000 0.000000 0.601171
O O9 0.590268 0.755139 0.179998
O O10 0.553687 0.733409 0.355073
O O11 0.273319 0.043087 0.000000
O O12 0.458707 0.281895 0.000000
#
# Coordination Sequence:
#
# PCOD9498047 Si02
#       5
#    16  16  16  16  16
#     4  10  21  38  56  81 115 155 192 229 284 338
#     4  11  19  31  52  80 119 150 180 218 275 345
#     4  10  21  38  58  79 117 155 188 236 281 338
#     4  11  21  35  55  82 113 147 190 235 281 336
#     4  11  22  36  56  84 112 147 192 235 283 336
#
# _framework density 17.918526
#
# number of rings (size 3 to 8) (size 9 to 14) (size 15 to 20)
#    0.000    1.400    4.000    4.200    0.000    5.600 
#    0.000    4.000    0.000    9.600    0.000   11.200 
#    0.000    0.000    0.000    0.000    0.000    0.000 
#
# Total GULP energy -223119.842704 kJ/mol
# GULP energy per Si atom -5577.996068 kJ/mol
# Density = 1.787774 g / cm^3
# Si number density = 17.918526 Si / 1000 Ang^3
#
#
#
# Elastic Constant Matrix: (Units=GPa)
#
#
# Indices 1 2 3 4 5 6 
#
# 1 65.6908 23.4021 -5.4753 0.0000 0.0000 0.0000
# 2 23.4021 71.7782 -9.8086 0.0000 0.0000 0.0000
# 3 -5.4753 -9.8086 81.7286 0.0000 0.0000 0.0000
# 4 0.0000 0.0000 0.0000 -26.5499 0.0000 0.0000
# 5 0.0000 0.0000 0.0000 0.0000 24.9107 0.0000
# 6 0.0000 0.0000 0.0000 0.0000 0.0000 29.3958
#
#
#
# Elastic Compliance Matrix: (Units=1/GPa)
#
#
# Indices 1 2 3 4 5 6 
#
# 1 0.017242 -0.005555 0.000488 0.000000 0.000000 0.000000
# 2 -0.005555 0.015954 0.001543 0.000000 0.000000 0.000000
# 3 0.000488 0.001543 0.012453 0.000000 0.000000 0.000000
# 4 0.000000 0.000000 0.000000 -0.037665 0.000000 0.000000
# 5 0.000000 0.000000 0.000000 0.000000 0.040143 0.000000
# 6 0.000000 0.000000 0.000000 0.000000 0.000000 0.034018
#
#
# Mechanical properties :
#
#
# Convention : Reuss Voigt Hill
#
# Bulk Modulus (GPa) = 25.90549 26.15933 26.03241
# Shear Modulus (GPa) = 48.99006 19.62329 34.30668
#
# Velocity S-wave (km/s) = 5.23448 3.31288 4.38035
# Velocity P-wave (km/s) = 7.14296 5.40965 6.33586
#
# Compressibility (1/GPa) = 0.03860186
#
# Stress axis : x y z
#
# Youngs Moduli (GPa) = 57.99636 62.68151 80.29889
#
# Poissons Ratio (x) = 0.34819 -0.03922
# Poissons Ratio (y) = 0.32216 -0.12386
# Poissons Ratio (z) = -0.02833 -0.09669
#
# Static dielectric constant tensor:
#      x y z
#    x 1.605750 0.000000 0.000000 
#    y 0.000000 1.609060 0.000000 
#    z 0.000000 0.000000 1.695570 
# 
# From -- ./inp_files/29965.got.cif
#   From: 2010.05.17/outbox.cif.g08.bks.cpg/sg66_15_cif.got.tgz:29965.got - 2010.06.03 17:51:23.
