data_PCOD9498705
_publ_section_title
;
Structure prediction by ZEFSAII (Michael W. Deem and Ramdas Pophale) SiO2 
 PCOD9498705
Probable space group: C C C M
;
_chemical_formula_sum "Si O2"
_cell_formula_units_Z 80
_cell_length_a 30.275711
_cell_length_b 8.860111
_cell_length_c 16.564750
_cell_angle_alpha 90.000000
_cell_angle_beta 90.000000
_cell_angle_gamma 90.000000
_cell_volume 4443.430580
_symmetry_space_group_name_H-M "C C C M"
_symmetry_group_IT_number 66
_symmetry_cell_setting 'orthorhombic'
loop_
_space_group_symop_operation_xyz
x,y,z
-x,-y,z
x,-y,1/2-z
-x,y,1/2-z
-x,-y,-z
x,y,-z
-x,y,1/2+z
x,-y,1/2+z
1/2+x,1/2+y,z
1/2-x,1/2-y,z
1/2+x,1/2-y,1/2-z
1/2-x,1/2+y,1/2-z
1/2-x,1/2-y,-z
1/2+x,1/2+y,-z
1/2-x,1/2+y,1/2+z
1/2+x,1/2-y,1/2+z
loop_
_atom_site_type_symbol
_atom_site_label
_atom_site_fract_x
_atom_site_fract_y
_atom_site_fract_z
Si Si1 0.948107 0.177479 0.261968
Si Si2 0.881729 0.389999 0.826249
Si Si3 0.606416 0.194045 0.594111
Si Si4 0.205099 0.688086 0.405246
Si Si5 0.204580 0.325984 0.405811
O O1 0.920557 0.279313 0.199540
O O2 0.929643 0.229468 0.349052
O O3 0.000000 0.205689 0.250000
O O4 0.939998 0.000000 0.250000
O O5 0.871558 0.500000 0.750000
O O6 0.895052 0.512072 0.894309
O O7 0.839011 0.296506 0.853865
O O8 0.601844 0.231174 0.500000
O O9 0.656419 0.236147 0.623622
O O10 0.205056 0.732890 0.500000
O O11 0.250000 0.750000 0.366685
O O12 0.208419 0.507352 0.402248
O O13 0.197995 0.282761 0.500000
O O14 0.250000 0.250000 0.378021
#
# Coordination Sequence:
#
# PCOD9498705 Si02
#       5
#    16  16  16  16  16
#     4  10  22  40  56  75 107 140 169 215 278 327
#     4   9  18  34  54  75 102 138 175 216 262 311
#     4   9  18  35  58  82 106 136 180 221 253 305
#     4   8  14  26  46  73 103 133 165 205 251 296
#     4   9  17  30  48  73 105 136 170 211 251 297
#
# _framework density 18.004107000000001
#
# number of rings (size 3 to 8) (size 9 to 14) (size 15 to 20)
#    0.000    3.000    0.000    1.800    0.000    5.200 
#    0.000   19.000    0.000    0.000    0.000    0.000 
#    0.000    0.000    0.000    0.000    0.000    0.000 
#
# Total GULP energy -222733.863189 kJ/mol
# GULP energy per Si atom -5568.346580 kJ/mol
# Density = 1.796313 g / cm^3
# Si number density = 18.004107 Si / 1000 Ang^3
#
#
#
# Elastic Constant Matrix: (Units=GPa)
#
#
# Indices 1 2 3 4 5 6 
#
# 1 172.1624 69.3387 64.7417 0.0000 0.0000 0.0000
# 2 69.3387 42.7703 28.5488 0.0000 0.0000 0.0000
# 3 64.7417 28.5488 47.9472 0.0000 0.0000 0.0000
# 4 0.0000 0.0000 0.0000 11.3277 0.0000 0.0000
# 5 0.0000 0.0000 0.0000 0.0000 27.2279 0.0000
# 6 0.0000 0.0000 0.0000 0.0000 0.0000 37.4610
#
#
#
# Elastic Compliance Matrix: (Units=1/GPa)
#
#
# Indices 1 2 3 4 5 6 
#
# 1 0.020852 -0.024912 -0.013322 0.000000 0.000000 0.000000
# 2 -0.024912 0.068565 -0.007187 0.000000 0.000000 0.000000
# 3 -0.013322 -0.007187 0.043124 0.000000 0.000000 0.000000
# 4 0.000000 0.000000 0.000000 0.088279 0.000000 0.000000
# 5 0.000000 0.000000 0.000000 0.000000 0.036727 0.000000
# 6 0.000000 0.000000 0.000000 0.000000 0.000000 0.026694
#
#
# Mechanical properties :
#
#
# Convention : Reuss Voigt Hill
#
# Bulk Modulus (GPa) = 23.98183 65.34867 44.66525
# Shear Modulus (GPa) = 12.85399 21.88670 17.37034
#
# Velocity S-wave (km/s) = 2.67488 3.49040 3.10949
# Velocity P-wave (km/s) = 4.78425 7.25391 6.14444
#
# Compressibility (1/GPa) = 0.04169823
#
# Stress axis : x y z
#
# Youngs Moduli (GPa) = 47.95787 14.58467 23.18878
#
# Poissons Ratio (x) = 0.36333 0.30893
# Poissons Ratio (y) = 1.19472 0.16666
# Poissons Ratio (z) = 0.63891 0.10482
#
# Static dielectric constant tensor:
#      x y z
#    x 1.641600 0.000000 0.000000 
#    y 0.000000 1.606760 0.000000 
#    z 0.000000 0.000000 1.651680 
# 
# From -- ./inp_files/44072.got.cif
#   From: 2010.05.17/outbox.cif.g08.bks.cpg/sg66_23_cif.got.tgz:44072.got - 2010.06.03 17:51:23.
