data_PCOD9498979
_publ_section_title
;
Structure prediction by ZEFSAII (Michael W. Deem and Ramdas Pophale) SiO2 
 PCOD9498979
Probable space group: C C C M
;
_chemical_formula_sum "Si O2"
_cell_formula_units_Z 88
_cell_length_a 10.983593
_cell_length_b 26.500850
_cell_length_c 14.788389
_cell_angle_alpha 90.000000
_cell_angle_beta 90.000000
_cell_angle_gamma 90.000000
_cell_volume 4304.523682
_symmetry_space_group_name_H-M "C C C M"
_symmetry_group_IT_number 66
_symmetry_cell_setting 'orthorhombic'
loop_
_space_group_symop_operation_xyz
x,y,z
-x,-y,z
x,-y,1/2-z
-x,y,1/2-z
-x,-y,-z
x,y,-z
-x,y,1/2+z
x,-y,1/2+z
1/2+x,1/2+y,z
1/2-x,1/2-y,z
1/2+x,1/2-y,1/2-z
1/2-x,1/2+y,1/2-z
1/2-x,1/2-y,-z
1/2+x,1/2+y,-z
1/2-x,1/2+y,1/2+z
1/2+x,1/2-y,1/2+z
loop_
_atom_site_type_symbol
_atom_site_label
_atom_site_fract_x
_atom_site_fract_y
_atom_site_fract_z
Si Si1 0.483821 0.570971 0.356207
Si Si2 0.057562 0.552651 0.152337
Si Si3 0.008321 0.633509 0.500000
Si Si4 0.267679 0.690019 0.500000
Si Si5 0.522872 0.314216 0.642433
Si Si6 0.106491 0.256675 0.500000
Si Si7 0.207352 0.004513 0.400751
O O1 0.500000 0.562731 0.250000
O O2 0.516456 0.628418 0.376506
O O3 0.585921 0.537675 0.402704
O O4 0.347903 0.550617 0.377907
O O5 0.198703 0.535906 0.160098
O O6 0.000000 0.500000 0.118869
O O7 0.000000 0.563279 0.250000
O O8 0.026501 0.598328 0.085534
O O9 0.147512 0.654928 0.500000
O O10 0.929829 0.684838 0.500000
O O11 0.250000 0.750000 0.500000
O O12 0.344490 0.683252 0.593496
O O13 0.500000 0.306000 0.750000
O O14 0.450599 0.272152 0.586369
O O15 0.250000 0.250000 0.500000
O O16 0.263747 0.002081 0.500000
#
# Coordination Sequence:
#
# PCOD9498979 Si02
#       7
#    16  16   8   8  16   8  16
#     4  10  23  38  67 102 132 181 225 279 352 406
#     4  11  28  44  67 100 143 187 233 278 344 424
#     4  12  26  51  71 102 136 195 235 287 353 413
#     4  11  24  47  71  99 141 178 241 291 343 427
#     4  10  24  44  71 104 134 178 230 289 357 408
#     4  11  27  47  72  99 140 176 231 298 346 413
#     4  11  23  39  64  98 140 176 227 281 338 416
#
# _framework density 20.443608000000001
#
# number of rings (size 3 to 8) (size 9 to 14) (size 15 to 20)
#    0.000    1.273    2.727    2.455   15.273    2.909 
#    0.000    0.000    0.000    0.000    0.000    0.000 
#    0.000    0.000    0.000    0.000    0.000    0.000 
#
# Total GULP energy -245231.396948 kJ/mol
# GULP energy per Si atom -5573.440840 kJ/mol
# Density = 2.039708 g / cm^3
# Si number density = 20.443608 Si / 1000 Ang^3
#
#
#
# Elastic Constant Matrix: (Units=GPa)
#
#
# Indices 1 2 3 4 5 6 
#
# 1 134.6285 50.3731 47.6358 0.0000 0.0000 0.0000
# 2 50.3731 175.2112 66.7734 0.0000 0.0000 0.0000
# 3 47.6358 66.7734 130.8594 0.0000 0.0000 0.0000
# 4 0.0000 0.0000 0.0000 14.5470 0.0000 0.0000
# 5 0.0000 0.0000 0.0000 0.0000 21.9168 0.0000
# 6 0.0000 0.0000 0.0000 0.0000 0.0000 29.1806
#
#
#
# Elastic Compliance Matrix: (Units=1/GPa)
#
#
# Indices 1 2 3 4 5 6 
#
# 1 0.008891 -0.001642 -0.002399 0.000000 0.000000 0.000000
# 2 -0.001642 0.007388 -0.003172 0.000000 0.000000 0.000000
# 3 -0.002399 -0.003172 0.010134 0.000000 0.000000 0.000000
# 4 0.000000 0.000000 0.000000 0.068743 0.000000 0.000000
# 5 0.000000 0.000000 0.000000 0.000000 0.045627 0.000000
# 6 0.000000 0.000000 0.000000 0.000000 0.000000 0.034269
#
#
# Mechanical properties :
#
#
# Convention : Reuss Voigt Hill
#
# Bulk Modulus (GPa) = 83.42318 85.58486 84.50402
# Shear Modulus (GPa) = 25.84325 31.52332 28.68328
#
# Velocity S-wave (km/s) = 3.55931 3.93105 3.74979
# Velocity P-wave (km/s) = 7.60175 7.90942 7.75711
#
# Compressibility (1/GPa) = 0.01198708
#
# Stress axis : x y z
#
# Youngs Moduli (GPa) = 112.47403 135.34599 98.68048
#
# Poissons Ratio (x) = 0.22224 0.23670
# Poissons Ratio (y) = 0.18468 0.31305
# Poissons Ratio (z) = 0.26979 0.42937
#
# Static dielectric constant tensor:
#      x y z
#    x 1.820920 0.000000 0.000000 
#    y 0.000000 1.775500 0.000000 
#    z 0.000000 0.000000 1.796680 
# 
# From -- ./inp_files/26596.got.cif
#   From: 2010.05.17/outbox.cif.g08.bks.cpg/sg66_14_cif.got.tgz:26596.got - 2010.06.03 17:51:23.
