data_PCOD9498665
_publ_section_title
;
Structure prediction by ZEFSAII (Michael W. Deem and Ramdas Pophale) SiO2 
 PCOD9498665
Probable space group: C C C M
;
_chemical_formula_sum "Si O2"
_cell_formula_units_Z 116
_cell_length_a 8.209436
_cell_length_b 25.344335
_cell_length_c 23.296715
_cell_angle_alpha 90.000000
_cell_angle_beta 90.000000
_cell_angle_gamma 90.000000
_cell_volume 4847.177334
_symmetry_space_group_name_H-M "C C C M"
_symmetry_group_IT_number 66
_symmetry_cell_setting 'orthorhombic'
loop_
_space_group_symop_operation_xyz
x,y,z
-x,-y,z
x,-y,1/2-z
-x,y,1/2-z
-x,-y,-z
x,y,-z
-x,y,1/2+z
x,-y,1/2+z
1/2+x,1/2+y,z
1/2-x,1/2-y,z
1/2+x,1/2-y,1/2-z
1/2-x,1/2+y,1/2-z
1/2-x,1/2-y,-z
1/2+x,1/2+y,-z
1/2-x,1/2+y,1/2+z
1/2+x,1/2-y,1/2+z
loop_
_atom_site_type_symbol
_atom_site_label
_atom_site_fract_x
_atom_site_fract_y
_atom_site_fract_z
Si Si1 0.969654 0.340236 0.068253
Si Si2 0.709318 0.422239 0.255664
Si Si3 0.097339 0.549220 0.433871
Si Si4 0.402103 0.367512 0.563784
Si Si5 0.000000 0.500000 0.250000
Si Si6 0.678277 0.695033 0.225981
Si Si7 0.587230 0.732406 0.900336
Si Si8 0.396045 0.450698 0.126708
O O1 0.787859 0.361805 0.073895
O O2 0.078986 0.390138 0.085969
O O3 0.992974 0.287669 0.105647
O O4 0.995007 0.327572 0.000000
O O5 0.500000 0.427908 0.250000
O O6 0.855100 0.457754 0.226503
O O7 0.753194 0.360202 0.253125
O O8 0.724725 0.437457 0.322191
O O9 0.042632 0.552468 0.500000
O O10 0.285875 0.535490 0.427645
O O11 0.000000 0.500000 0.406857
O O12 0.430246 0.389404 0.500000
O O13 0.479265 0.309732 0.567518
O O14 0.485629 0.403340 0.611172
O O15 0.500000 0.691850 0.250000
O O16 0.750000 0.750000 0.248261
O O17 0.653516 0.704033 0.157531
O O18 0.750000 0.750000 0.932769
O O19 0.500000 0.500000 0.144714
#
# Coordination Sequence:
#
# PCOD9498665 Si02
#       8
#    16  16  16  16   4  16  16  16
#     4  10  22  39  62  91 130 176 230 287 334 405
#     4  11  26  52  73 110 147 176 239 298 359 425
#     4  10  22  40  61  94 136 176 225 287 341 404
#     4  11  23  40  61  93 133 180 226 275 343 408
#     4  12  26  48  88 106 134 192 226 302 356 422
#     4  10  24  45  69 100 138 179 223 289 356 429
#     4  11  22  40  62  95 128 171 224 278 339 406
#     4  12  24  41  66  95 130 178 221 278 346 415
#
# _framework density 23.931455
#
# number of rings (size 3 to 8) (size 9 to 14) (size 15 to 20)
#    0.000    1.241    1.379    3.931    3.862    6.621 
#    2.483    0.000    0.000    0.000    0.000    0.000 
#    0.000    0.000    0.000    0.000    0.000    0.000 
#
# Total GULP energy -323159.882747 kJ/mol
# GULP energy per Si atom -5571.722116 kJ/mol
# Density = 2.387699 g / cm^3
# Si number density = 23.931455 Si / 1000 Ang^3
#
#
#
# Elastic Constant Matrix: (Units=GPa)
#
#
# Indices 1 2 3 4 5 6 
#
# 1 68.1145 17.2286 14.1547 0.0000 0.0000 0.0000
# 2 17.2286 164.4344 14.3615 0.0000 0.0000 0.0000
# 3 14.1547 14.3615 34.6339 0.0000 0.0000 0.0000
# 4 0.0000 0.0000 0.0000 -648.6310 0.0000 0.0000
# 5 0.0000 0.0000 0.0000 0.0000 21.1894 0.0000
# 6 0.0000 0.0000 0.0000 0.0000 0.0000 45.6143
#
#
#
# Elastic Compliance Matrix: (Units=1/GPa)
#
#
# Indices 1 2 3 4 5 6 
#
# 1 0.016256 -0.001165 -0.006161 0.000000 0.000000 0.000000
# 2 -0.001165 0.006393 -0.002175 0.000000 0.000000 0.000000
# 3 -0.006161 -0.002175 0.032293 0.000000 0.000000 0.000000
# 4 0.000000 0.000000 0.000000 -0.001542 0.000000 0.000000
# 5 0.000000 0.000000 0.000000 0.000000 0.047193 0.000000
# 6 0.000000 0.000000 0.000000 0.000000 0.000000 0.021923
#
#
# Mechanical properties :
#
#
# Convention : Reuss Voigt Hill
#
# Bulk Modulus (GPa) = 27.82323 39.85250 33.83787
# Shear Modulus (GPa) = 32.57341 -101.60292 -34.51475
#
# Velocity S-wave (km/s) = 3.69333 -6.52288 -3.80180
# Velocity P-wave (km/s) = 5.46251 6.32785 2.25861
#
# Compressibility (1/GPa) = 0.03594119
#
# Stress axis : x y z
#
# Youngs Moduli (GPa) = 61.51530 156.40906 30.96630
#
# Poissons Ratio (x) = 0.18224 0.19077
# Poissons Ratio (y) = 0.07168 0.06735
# Poissons Ratio (z) = 0.37897 0.34018
#
# Static dielectric constant tensor:
#      x y z
#    x 1.942320 0.000000 0.000000 
#    y 0.000000 2.023140 0.000000 
#    z 0.000000 0.000000 2.635170 
# 
# From -- ./inp_files/62911.got.cif
#   From: 2010.05.17/outbox.cif.g08.bks.cpg/sg66_32_cif.got.tgz:62911.got - 2010.06.03 17:51:23.
