data_PCOD9498123
_publ_section_title
;
Structure prediction by ZEFSAII (Michael W. Deem and Ramdas Pophale) SiO2 
 PCOD9498123
Probable space group: C C C M
;
_chemical_formula_sum "Si O2"
_cell_formula_units_Z 64
_cell_length_a 9.708972
_cell_length_b 18.165098
_cell_length_c 21.277360
_cell_angle_alpha 90.000000
_cell_angle_beta 90.000000
_cell_angle_gamma 90.000000
_cell_volume 3752.569423
_symmetry_space_group_name_H-M "C C C M"
_symmetry_group_IT_number 66
_symmetry_cell_setting 'orthorhombic'
loop_
_space_group_symop_operation_xyz
x,y,z
-x,-y,z
x,-y,1/2-z
-x,y,1/2-z
-x,-y,-z
x,y,-z
-x,y,1/2+z
x,-y,1/2+z
1/2+x,1/2+y,z
1/2-x,1/2-y,z
1/2+x,1/2-y,1/2-z
1/2-x,1/2+y,1/2-z
1/2-x,1/2-y,-z
1/2+x,1/2+y,-z
1/2-x,1/2+y,1/2+z
1/2+x,1/2-y,1/2+z
loop_
_atom_site_type_symbol
_atom_site_label
_atom_site_fract_x
_atom_site_fract_y
_atom_site_fract_z
Si Si1 0.850373 0.535220 0.683726
Si Si2 0.602711 0.209698 0.806053
Si Si3 0.093416 0.779842 0.068553
Si Si4 0.360654 0.453510 0.572152
O O1 0.801090 0.500000 0.750000
O O2 0.870383 0.622613 0.691909
O O3 0.747634 0.523912 0.625515
O O4 0.000000 0.500000 0.671120
O O5 0.500000 0.227543 0.750000
O O6 0.750000 0.250000 0.798698
O O7 0.535790 0.237527 0.871442
O O8 0.250000 0.750000 0.064825
O O9 0.103201 0.867062 0.079852
O O10 0.028324 0.766654 0.000000
O O11 0.500000 0.500000 0.578219
O O12 0.308710 0.462328 0.500000
#
# Coordination Sequence:
#
# PCOD9498123 Si02
#       4
#    16  16  16  16
#     4  11  22  39  57  84 127 158 189 243 303 355
#     4  11  21  38  61  88 113 153 200 241 287 351
#     4   9  17  34  61  84 109 149 198 237 281 346
#     4  10  21  38  61  91 120 151 201 253 295 349
#
# _framework density 17.05498
#
# number of rings (size 3 to 8) (size 9 to 14) (size 15 to 20)
#    0.000    1.750    7.500    0.000    0.000    3.000 
#    0.000    0.000    0.000    0.750    0.000    0.000 
#    0.000    0.000    0.000    0.000    0.000    0.000 
#
# Total GULP energy -178323.540687 kJ/mol
# GULP energy per Si atom -5572.610646 kJ/mol
# Density = 1.701616 g / cm^3
# Si number density = 17.054980 Si / 1000 Ang^3
#
#
#
# Elastic Constant Matrix: (Units=GPa)
#
#
# Indices 1 2 3 4 5 6 
#
# 1 52.2430 40.8672 58.5961 0.0000 0.0000 0.0000
# 2 40.8672 134.1113 56.5888 0.0000 0.0000 0.0000
# 3 58.5961 56.5888 209.1706 0.0000 0.0000 0.0000
# 4 0.0000 0.0000 0.0000 30.3263 0.0000 0.0000
# 5 0.0000 0.0000 0.0000 0.0000 39.5879 0.0000
# 6 0.0000 0.0000 0.0000 0.0000 0.0000 26.0915
#
#
#
# Elastic Compliance Matrix: (Units=1/GPa)
#
#
# Indices 1 2 3 4 5 6 
#
# 1 0.032721 -0.006890 -0.007302 0.000000 0.000000 0.000000
# 2 -0.006890 0.009868 -0.000740 0.000000 0.000000 0.000000
# 3 -0.007302 -0.000740 0.007027 0.000000 0.000000 0.000000
# 4 0.000000 0.000000 0.000000 0.032975 0.000000 0.000000
# 5 0.000000 0.000000 0.000000 0.000000 0.025260 0.000000
# 6 0.000000 0.000000 0.000000 0.000000 0.000000 0.038327
#
#
# Mechanical properties :
#
#
# Convention : Reuss Voigt Hill
#
# Bulk Modulus (GPa) = 50.62705 78.62545 64.62625
# Shear Modulus (GPa) = 27.37847 35.16600 31.27224
#
# Velocity S-wave (km/s) = 4.01097 4.54576 4.28672
# Velocity P-wave (km/s) = 7.15539 8.58797 7.90420
#
# Compressibility (1/GPa) = 0.01975229
#
# Stress axis : x y z
#
# Youngs Moduli (GPa) = 30.56113 101.33701 142.31703
#
# Poissons Ratio (x) = 0.69818 1.03926
# Poissons Ratio (y) = 0.21056 0.10526
# Poissons Ratio (z) = 0.22317 0.07495
#
# Static dielectric constant tensor:
#      x y z
#    x 1.542590 0.000000 0.000000 
#    y 0.000000 1.570650 0.000000 
#    z 0.000000 0.000000 1.640490 
# 
# From -- ./inp_files/46592.got.cif
#   From: 2010.05.17/outbox.cif.g08.bks.cpg/sg66_24_cif.got.tgz:46592.got - 2010.06.03 17:51:23.
