data_PCOD9498179
_publ_section_title
;
Structure prediction by ZEFSAII (Michael W. Deem and Ramdas Pophale) SiO2 
 PCOD9498179
Probable space group: C C C M
;
_chemical_formula_sum "Si O2"
_cell_formula_units_Z 64
_cell_length_a 9.360787
_cell_length_b 10.559316
_cell_length_c 27.227166
_cell_angle_alpha 90.000000
_cell_angle_beta 90.000000
_cell_angle_gamma 90.000000
_cell_volume 2691.228599
_symmetry_space_group_name_H-M "C C C M"
_symmetry_group_IT_number 66
_symmetry_cell_setting 'orthorhombic'
loop_
_space_group_symop_operation_xyz
x,y,z
-x,-y,z
x,-y,1/2-z
-x,y,1/2-z
-x,-y,-z
x,y,-z
-x,y,1/2+z
x,-y,1/2+z
1/2+x,1/2+y,z
1/2-x,1/2-y,z
1/2+x,1/2-y,1/2-z
1/2-x,1/2+y,1/2-z
1/2-x,1/2-y,-z
1/2+x,1/2+y,-z
1/2-x,1/2+y,1/2+z
1/2+x,1/2-y,1/2+z
loop_
_atom_site_type_symbol
_atom_site_label
_atom_site_fract_x
_atom_site_fract_y
_atom_site_fract_z
Si Si1 0.097058 0.181212 0.944769
Si Si2 0.439756 0.142630 0.634060
Si Si3 0.336937 0.496433 0.862463
Si Si4 0.386116 0.700807 0.713127
O O1 0.250000 0.250000 0.946633
O O2 0.142978 0.051804 0.917863
O O3 0.990872 0.262931 0.909835
O O4 0.041979 0.166947 0.000000
O O5 0.513899 0.202614 0.682055
O O6 0.500000 0.000000 0.624436
O O7 0.271397 0.111558 0.639740
O O8 0.500000 0.500000 0.845024
O O9 0.295316 0.383059 0.826142
O O10 0.500000 0.640520 0.750000
O O11 0.250000 0.750000 0.743979
#
# Coordination Sequence:
#
# PCOD9498179 Si02
#       4
#    16  16  16  16
#     4  10  21  38  65  98 128 165 218 268 314 387
#     4  11  20  42  67  89 125 173 213 260 325 389
#     4  11  24  42  63  92 132 168 210 270 329 387
#     4  11  25  43  63  93 127 163 218 273 326 394
#
# _framework density 23.780961000000001
#
# number of rings (size 3 to 8) (size 9 to 14) (size 15 to 20)
#    0.000    1.250    5.000    1.500    3.500    6.000 
#    0.000    1.250    0.000    0.000    0.000    0.000 
#    0.000    0.000    0.000    0.000    0.000    0.000 
#
# Total GULP energy -178348.189632 kJ/mol
# GULP energy per Si atom -5573.380926 kJ/mol
# Density = 2.372683 g / cm^3
# Si number density = 23.780961 Si / 1000 Ang^3
#
#
#
# Elastic Constant Matrix: (Units=GPa)
#
#
# Indices 1 2 3 4 5 6 
#
# 1 196.4625 63.3202 65.1153 0.0000 0.0000 0.0000
# 2 63.3202 115.0259 44.8201 0.0000 0.0000 0.0000
# 3 65.1153 44.8201 130.3574 0.0000 0.0000 0.0000
# 4 0.0000 0.0000 0.0000 43.8260 0.0000 0.0000
# 5 0.0000 0.0000 0.0000 0.0000 -13.2860 0.0000
# 6 0.0000 0.0000 0.0000 0.0000 0.0000 50.5282
#
#
#
# Elastic Compliance Matrix: (Units=1/GPa)
#
#
# Indices 1 2 3 4 5 6 
#
# 1 0.006797 -0.002793 -0.002435 0.000000 0.000000 0.000000
# 2 -0.002793 0.011186 -0.002451 0.000000 0.000000 0.000000
# 3 -0.002435 -0.002451 0.009730 0.000000 0.000000 0.000000
# 4 0.000000 0.000000 0.000000 0.022818 0.000000 0.000000
# 5 0.000000 0.000000 0.000000 0.000000 -0.075267 0.000000
# 6 0.000000 0.000000 0.000000 0.000000 0.000000 0.019791
#
#
# Mechanical properties :
#
#
# Convention : Reuss Voigt Hill
#
# Bulk Modulus (GPa) = 80.93382 87.59523 84.26452
# Shear Modulus (GPa) = 344.08145 34.11965 189.10055
#
# Velocity S-wave (km/s) = 12.04167 3.79191 8.92694
# Velocity P-wave (km/s) = 15.08121 7.48903 11.90648
#
# Compressibility (1/GPa) = 0.01235577
#
# Stress axis : x y z
#
# Youngs Moduli (GPa) = 147.11768 89.39566 102.77227
#
# Poissons Ratio (x) = 0.24968 0.25025
# Poissons Ratio (y) = 0.41090 0.25189
# Poissons Ratio (z) = 0.35824 0.21911
#
# Static dielectric constant tensor:
#      x y z
#    x 3.252260 0.000000 0.000000 
#    y 0.000000 2.626580 0.000000 
#    z 0.000000 0.000000 1.871370 
# 
# From -- ./inp_files/67872.got.cif
#   From: 2010.05.17/outbox.cif.g08.bks.cpg/sg66_34_cif.got.tgz:67872.got - 2010.06.03 17:51:23.
