data_PCOD9498137
_publ_section_title
;
Structure prediction by ZEFSAII (Michael W. Deem and Ramdas Pophale) SiO2 
 PCOD9498137
Probable space group: C C C M
;
_chemical_formula_sum "Si O2"
_cell_formula_units_Z 116
_cell_length_a 24.102998
_cell_length_b 8.917296
_cell_length_c 30.129947
_cell_angle_alpha 90.000000
_cell_angle_beta 90.000000
_cell_angle_gamma 90.000000
_cell_volume 6475.937002
_symmetry_space_group_name_H-M "C C C M"
_symmetry_group_IT_number 66
_symmetry_cell_setting 'orthorhombic'
loop_
_space_group_symop_operation_xyz
x,y,z
-x,-y,z
x,-y,1/2-z
-x,y,1/2-z
-x,-y,-z
x,y,-z
-x,y,1/2+z
x,-y,1/2+z
1/2+x,1/2+y,z
1/2-x,1/2-y,z
1/2+x,1/2-y,1/2-z
1/2-x,1/2+y,1/2-z
1/2-x,1/2-y,-z
1/2+x,1/2+y,-z
1/2-x,1/2+y,1/2+z
1/2+x,1/2-y,1/2+z
loop_
_atom_site_type_symbol
_atom_site_label
_atom_site_fract_x
_atom_site_fract_y
_atom_site_fract_z
Si Si1 0.873188 0.234082 0.355191
Si Si2 0.290974 0.003848 0.873130
Si Si3 0.434186 0.014665 0.800865
Si Si4 0.197912 0.994072 0.802657
Si Si5 0.904349 0.025526 0.923142
Si Si6 0.000000 0.000000 0.500000
Si Si7 0.220657 0.085545 0.548411
Si Si8 0.372875 0.754134 0.852772
O O1 0.831021 0.355214 0.375348
O O2 0.915727 0.333418 0.325997
O O3 0.837324 0.132683 0.321733
O O4 0.897627 0.127498 0.393927
O O5 0.245672 0.007387 0.911266
O O6 0.327583 0.854367 0.878514
O O7 0.257641 0.995562 0.826807
O O8 0.500000 0.000000 0.801159
O O9 0.414479 0.000000 0.750000
O O10 0.408502 0.874348 0.826521
O O11 0.202901 0.000000 0.750000
O O12 0.162871 0.851886 0.820344
O O13 0.845427 0.073849 0.945046
O O14 0.910386 0.154666 0.885497
O O15 0.951418 0.014332 0.960373
O O16 0.234685 0.023147 0.500000
O O17 0.250000 0.250000 0.549953
#
# Coordination Sequence:
#
# PCOD9498137 Si02
#       8
#    16  16  16  16  16   4  16  16
#     4  10  23  38  59  85 130 158 195 253 310 360
#     4  11  20  37  57  90 126 158 195 242 307 373
#     4  10  22  40  61  85 114 162 217 257 296 354
#     4  11  21  33  56  92 129 167 202 240 295 369
#     4  11  23  42  63  90 118 160 201 255 309 367
#     4  12  28  44  66  92 118 152 216 268 318 374
#     4  11  20  37  64  92 117 155 205 248 300 375
#     4  10  21  38  62  82 125 162 202 249 307 367
#
# _framework density 17.912466999999999
#
# number of rings (size 3 to 8) (size 9 to 14) (size 15 to 20)
#    0.000    1.379    4.828    1.655    1.931    4.414 
#    1.241    0.690    0.000    7.448    0.000    0.000 
#    0.000    0.000    0.000    0.000    0.000    0.000 
#
# Total GULP energy -322960.034999 kJ/mol
# GULP energy per Si atom -5568.276466 kJ/mol
# Density = 1.787170 g / cm^3
# Si number density = 17.912467 Si / 1000 Ang^3
#
#
#
# Elastic Constant Matrix: (Units=GPa)
#
#
# Indices 1 2 3 4 5 6 
#
# 1 104.4374 39.1204 55.7431 0.0000 0.0000 0.0000
# 2 39.1204 101.8463 48.4138 0.0000 0.0000 0.0000
# 3 55.7431 48.4138 149.0272 0.0000 0.0000 0.0000
# 4 0.0000 0.0000 0.0000 7.4862 0.0000 0.0000
# 5 0.0000 0.0000 0.0000 0.0000 -36.5791 0.0000
# 6 0.0000 0.0000 0.0000 0.0000 0.0000 36.2380
#
#
#
# Elastic Compliance Matrix: (Units=1/GPa)
#
#
# Indices 1 2 3 4 5 6 
#
# 1 0.012745 -0.003110 -0.003757 0.000000 0.000000 0.000000
# 2 -0.003110 0.012371 -0.002856 0.000000 0.000000 0.000000
# 3 -0.003757 -0.002856 0.009043 0.000000 0.000000 0.000000
# 4 0.000000 0.000000 0.000000 0.133579 0.000000 0.000000
# 5 0.000000 0.000000 0.000000 0.000000 -0.027338 0.000000
# 6 0.000000 0.000000 0.000000 0.000000 0.000000 0.027595
#
#
# Mechanical properties :
#
#
# Convention : Reuss Voigt Hill
#
# Bulk Modulus (GPa) = 67.96087 71.31838 69.63962
# Shear Modulus (GPa) = 25.99492 15.56460 20.77976
#
# Velocity S-wave (km/s) = 3.81362 2.95095 3.40968
# Velocity P-wave (km/s) = 7.57724 7.17720 7.37993
#
# Compressibility (1/GPa) = 0.01471435
#
# Stress axis : x y z
#
# Youngs Moduli (GPa) = 78.46047 80.83671 110.58007
#
# Poissons Ratio (x) = 0.25137 0.41546
# Poissons Ratio (y) = 0.24398 0.31578
# Poissons Ratio (z) = 0.29478 0.23084
#
# Static dielectric constant tensor:
#      x y z
#    x 1.614150 0.000000 0.000000 
#    y 0.000000 1.644280 0.000000 
#    z 0.000000 0.000000 1.683260 
# 
# From -- ./inp_files/70464.got.cif
#   From: 2010.05.17/outbox.cif.g08.bks.cpg/sg66_36_cif.got.tgz:70464.got - 2010.06.03 17:51:23.
