data_PCOD9498807
_publ_section_title
;
Structure prediction by ZEFSAII (Michael W. Deem and Ramdas Pophale) SiO2 
 PCOD9498807
Probable space group: C C C M
;
_chemical_formula_sum "Si O2"
_cell_formula_units_Z 64
_cell_length_a 16.459308
_cell_length_b 8.824026
_cell_length_c 18.835421
_cell_angle_alpha 90.000000
_cell_angle_beta 90.000000
_cell_angle_gamma 90.000000
_cell_volume 2735.606853
_symmetry_space_group_name_H-M "C C C M"
_symmetry_group_IT_number 66
_symmetry_cell_setting 'orthorhombic'
loop_
_space_group_symop_operation_xyz
x,y,z
-x,-y,z
x,-y,1/2-z
-x,y,1/2-z
-x,-y,-z
x,y,-z
-x,y,1/2+z
x,-y,1/2+z
1/2+x,1/2+y,z
1/2-x,1/2-y,z
1/2+x,1/2-y,1/2-z
1/2-x,1/2+y,1/2-z
1/2-x,1/2-y,-z
1/2+x,1/2+y,-z
1/2-x,1/2+y,1/2+z
1/2+x,1/2-y,1/2+z
loop_
_atom_site_type_symbol
_atom_site_label
_atom_site_fract_x
_atom_site_fract_y
_atom_site_fract_z
Si Si1 0.205920 0.895092 0.114398
Si Si2 0.944826 0.736451 0.416322
Si Si3 0.365645 0.287188 0.921660
Si Si4 0.862039 0.489777 0.672011
O O1 0.250000 0.750000 0.076514
O O2 0.115819 0.837750 0.130696
O O3 0.183865 0.056114 0.079288
O O4 0.274330 0.928272 0.172526
O O5 0.922548 0.744196 0.500000
O O6 0.920813 0.571898 0.385283
O O7 0.036390 0.797043 0.413302
O O8 0.344163 0.176396 0.857703
O O9 0.352313 0.216810 0.000000
O O10 0.898065 0.500000 0.750000
#
# Coordination Sequence:
#
# PCOD9498807 Si02
#       4
#    16  16  16  16
#     4  10  23  40  64  93 130 170 213 266 328 390
#     4  10  22  41  65  94 128 167 216 274 332 392
#     4  11  23  40  66  98 128 164 216 274 332 397
#     4  11  25  43  63  92 131 173 219 271 329 396
#
# _framework density 23.395174000000001
#
# number of rings (size 3 to 8) (size 9 to 14) (size 15 to 20)
#    0.000    1.500    0.000    3.750    0.000   24.000 
#    0.000    0.000    0.000    7.500    0.000    0.000 
#    0.000    0.000    0.000    0.000    0.000    0.000 
#
# Total GULP energy -178209.865464 kJ/mol
# GULP energy per Si atom -5569.058296 kJ/mol
# Density = 2.334193 g / cm^3
# Si number density = 23.395174 Si / 1000 Ang^3
#
#
#
# Elastic Constant Matrix: (Units=GPa)
#
#
# Indices 1 2 3 4 5 6 
#
# 1 156.4386 28.1313 19.5296 0.0000 0.0000 0.0000
# 2 28.1313 119.9409 36.7759 0.0000 0.0000 0.0000
# 3 19.5296 36.7759 68.0193 0.0000 0.0000 0.0000
# 4 0.0000 0.0000 0.0000 -9.7414 0.0000 0.0000
# 5 0.0000 0.0000 0.0000 0.0000 -0.7329 0.0000
# 6 0.0000 0.0000 0.0000 0.0000 0.0000 43.4311
#
#
#
# Elastic Compliance Matrix: (Units=1/GPa)
#
#
# Indices 1 2 3 4 5 6 
#
# 1 0.006768 -0.001189 -0.001301 0.000000 0.000000 0.000000
# 2 -0.001189 0.010203 -0.005175 0.000000 0.000000 0.000000
# 3 -0.001301 -0.005175 0.017873 0.000000 0.000000 0.000000
# 4 0.000000 0.000000 0.000000 -0.102654 0.000000 0.000000
# 5 0.000000 0.000000 0.000000 0.000000 -1.364398 0.000000
# 6 0.000000 0.000000 0.000000 0.000000 0.000000 0.023025
#
#
# Mechanical properties :
#
#
# Convention : Reuss Voigt Hill
#
# Bulk Modulus (GPa) = 51.24094 57.03025 54.13560
# Shear Modulus (GPa) = -3.60400 23.92215 10.15908
#
# Velocity S-wave (km/s) = -1.24251 3.20116 2.08610
# Velocity P-wave (km/s) = 4.45998 6.17196 5.38445
#
# Compressibility (1/GPa) = 0.01951565
#
# Stress axis : x y z
#
# Youngs Moduli (GPa) = 147.74522 98.01012 55.94970
#
# Poissons Ratio (x) = 0.11650 0.07277
# Poissons Ratio (y) = 0.17562 0.28955
# Poissons Ratio (z) = 0.19217 0.50722
#
# Static dielectric constant tensor:
#      x y z
#    x 1.929070 0.000000 0.000000 
#    y 0.000000 2.028070 0.000000 
#    z 0.000000 0.000000 1.780230 
# 
# From -- ./inp_files/50495.got.cif
#   From: 2010.05.17/outbox.cif.g08.bks.cpg/sg66_26_cif.got.tgz:50495.got - 2010.06.03 17:51:23.
