data_PCOD9498929
_publ_section_title
;
Structure prediction by ZEFSAII (Michael W. Deem and Ramdas Pophale) SiO2 
 PCOD9498929
Probable space group: C C C M
;
_chemical_formula_sum "Si O2"
_cell_formula_units_Z 88
_cell_length_a 13.297064
_cell_length_b 18.119879
_cell_length_c 19.277324
_cell_angle_alpha 90.000000
_cell_angle_beta 90.000000
_cell_angle_gamma 90.000000
_cell_volume 4644.701399
_symmetry_space_group_name_H-M "C C C M"
_symmetry_group_IT_number 66
_symmetry_cell_setting 'orthorhombic'
loop_
_space_group_symop_operation_xyz
x,y,z
-x,-y,z
x,-y,1/2-z
-x,y,1/2-z
-x,-y,-z
x,y,-z
-x,y,1/2+z
x,-y,1/2+z
1/2+x,1/2+y,z
1/2-x,1/2-y,z
1/2+x,1/2-y,1/2-z
1/2-x,1/2+y,1/2-z
1/2-x,1/2-y,-z
1/2+x,1/2+y,-z
1/2-x,1/2+y,1/2+z
1/2+x,1/2-y,1/2+z
loop_
_atom_site_type_symbol
_atom_site_label
_atom_site_fract_x
_atom_site_fract_y
_atom_site_fract_z
Si Si1 0.002189 0.588400 0.500000
Si Si2 0.134218 0.722371 0.000000
Si Si3 0.370735 0.158923 0.123270
Si Si4 0.500000 0.804989 0.250000
Si Si5 0.638398 0.716060 0.355023
Si Si6 0.519675 0.414516 0.831880
Si Si7 0.349400 0.668479 0.583578
O O1 0.063734 0.616227 0.433244
O O2 0.000000 0.500000 0.500000
O O3 0.897489 0.636145 0.500000
O O4 0.250000 0.750000 0.000000
O O5 0.095207 0.757700 0.929203
O O6 0.426690 0.152068 0.197038
O O7 0.363007 0.245381 0.102421
O O8 0.253862 0.137093 0.117031
O O9 0.571420 0.753903 0.296461
O O10 0.750000 0.750000 0.348959
O O11 0.624865 0.627881 0.347905
O O12 0.500000 0.500000 0.846892
O O13 0.500000 0.404887 0.750000
O O14 0.440253 0.372465 0.879631
O O15 0.345454 0.661146 0.500000
#
# Coordination Sequence:
#
# PCOD9498929 Si02
#       7
#     8   8  16   8  16  16  16
#     4  12  22  43  67  89 135 171 207 273 334 378
#     4  10  22  44  64  89 126 172 223 261 309 387
#     4  11  22  40  63  98 120 168 213 270 317 380
#     4  12  22  34  70  92 126 156 228 260 308 396
#     4  11  23  40  66  93 122 172 221 261 314 393
#     4  11  24  42  60  94 139 172 201 275 345 388
#     4  11  21  40  71  92 122 162 227 273 314 383
#
# _framework density 18.94632
#
# number of rings (size 3 to 8) (size 9 to 14) (size 15 to 20)
#    0.000    0.909    6.364    0.545    6.364    0.364 
#    6.545    0.455    0.000    0.000    0.000    0.000 
#    0.000    0.000    0.000    0.000    0.000    0.000 
#
# Total GULP energy -245368.537037 kJ/mol
# GULP energy per Si atom -5576.557660 kJ/mol
# Density = 1.890320 g / cm^3
# Si number density = 18.946320 Si / 1000 Ang^3
#
#
#
# Elastic Constant Matrix: (Units=GPa)
#
#
# Indices 1 2 3 4 5 6 
#
# 1 121.0979 43.3405 40.2231 0.0000 0.0000 0.0000
# 2 43.3405 121.2189 32.4854 0.0000 0.0000 0.0000
# 3 40.2231 32.4854 135.0664 0.0000 0.0000 0.0000
# 4 0.0000 0.0000 0.0000 29.6759 0.0000 0.0000
# 5 0.0000 0.0000 0.0000 0.0000 32.2001 0.0000
# 6 0.0000 0.0000 0.0000 0.0000 0.0000 15.2209
#
#
#
# Elastic Compliance Matrix: (Units=1/GPa)
#
#
# Indices 1 2 3 4 5 6 
#
# 1 0.010088 -0.002995 -0.002284 0.000000 0.000000 0.000000
# 2 -0.002995 0.009707 -0.001443 0.000000 0.000000 0.000000
# 3 -0.002284 -0.001443 0.008431 0.000000 0.000000 0.000000
# 4 0.000000 0.000000 0.000000 0.033697 0.000000 0.000000
# 5 0.000000 0.000000 0.000000 0.000000 0.031056 0.000000
# 6 0.000000 0.000000 0.000000 0.000000 0.000000 0.065699
#
#
# Mechanical properties :
#
#
# Convention : Reuss Voigt Hill
#
# Bulk Modulus (GPa) = 67.64577 67.72014 67.68295
# Shear Modulus (GPa) = 28.24070 32.84167 30.54118
#
# Velocity S-wave (km/s) = 3.86497 4.16794 4.01931
# Velocity P-wave (km/s) = 7.46316 7.68004 7.57238
#
# Compressibility (1/GPa) = 0.01478289
#
# Stress axis : x y z
#
# Youngs Moduli (GPa) = 99.12503 103.01873 118.61044
#
# Poissons Ratio (x) = 0.30853 0.27091
# Poissons Ratio (y) = 0.29687 0.17113
# Poissons Ratio (z) = 0.22640 0.14863
#
# Static dielectric constant tensor:
#      x y z
#    x 1.778160 0.000000 0.000000 
#    y 0.000000 1.663620 0.000000 
#    z 0.000000 0.000000 1.688330 
# 
# From -- ./inp_files/40378.got.cif
#   From: 2010.05.17/outbox.cif.g08.bks.cpg/sg66_21_cif.got.tgz:40378.got - 2010.06.03 17:51:23.
