data_PCOD9498246
_publ_section_title
;
Structure prediction by ZEFSAII (Michael W. Deem and Ramdas Pophale) SiO2 
 PCOD9498246
Probable space group: C C C M
;
_chemical_formula_sum "Si O2"
_cell_formula_units_Z 112
_cell_length_a 32.431515
_cell_length_b 11.791554
_cell_length_c 15.825285
_cell_angle_alpha 90.000000
_cell_angle_beta 90.000000
_cell_angle_gamma 90.000000
_cell_volume 6051.873213
_symmetry_space_group_name_H-M "C C C M"
_symmetry_group_IT_number 66
_symmetry_cell_setting 'orthorhombic'
loop_
_space_group_symop_operation_xyz
x,y,z
-x,-y,z
x,-y,1/2-z
-x,y,1/2-z
-x,-y,-z
x,y,-z
-x,y,1/2+z
x,-y,1/2+z
1/2+x,1/2+y,z
1/2-x,1/2-y,z
1/2+x,1/2-y,1/2-z
1/2-x,1/2+y,1/2-z
1/2-x,1/2-y,-z
1/2+x,1/2+y,-z
1/2-x,1/2+y,1/2+z
1/2+x,1/2-y,1/2+z
loop_
_atom_site_type_symbol
_atom_site_label
_atom_site_fract_x
_atom_site_fract_y
_atom_site_fract_z
Si Si1 0.078289 0.257388 0.157891
Si Si2 0.164708 0.140665 0.593076
Si Si3 0.722232 0.364902 0.254951
Si Si4 0.844078 0.119486 0.404763
Si Si5 0.084351 0.265091 0.642010
Si Si6 0.998122 0.868531 0.600103
Si Si7 0.547605 0.002241 0.646719
O O1 0.114766 0.190327 0.112702
O O2 0.089169 0.262919 0.256720
O O3 0.070877 0.383291 0.122753
O O4 0.034128 0.196970 0.148561
O O5 0.183827 0.151013 0.500000
O O6 0.197015 0.151743 0.668194
O O7 0.127006 0.226280 0.602542
O O8 0.145827 0.014192 0.600078
O O9 0.738111 0.500000 0.250000
O O10 0.750000 0.250000 0.263143
O O11 0.690446 0.361036 0.333675
O O12 0.828956 0.143044 0.500000
O O13 0.046573 0.182957 0.618593
O O14 0.070525 0.390530 0.616485
O O15 0.006530 0.858104 0.500000
O O16 0.000000 0.000000 0.623380
O O17 0.500000 0.000000 0.618685
O O18 0.546707 0.000000 0.750000
#
# Coordination Sequence:
#
# PCOD9498246 Si02
#       7
#    16  16  16  16  16  16  16
#     4  11  20  35  57  80 110 153 203 245 292 350
#     4  10  21  39  63  90 122 156 194 243 295 350
#     4  10  22  44  70  97 124 157 193 234 299 368
#     4  10  21  39  63  90 122 156 194 243 295 350
#     4  11  20  35  57  80 110 153 203 245 292 350
#     4  11  23  34  47  74 112 151 196 250 296 340
#     4   9  18  34  52  74 110 157 201 247 296 341
#
# _framework density 18.506665999999999
#
# number of rings (size 3 to 8) (size 9 to 14) (size 15 to 20)
#    0.000    1.714    2.857    2.143    0.000    5.143 
#    2.571    3.571    0.000    0.000    0.000    0.000 
#    0.000    0.000    0.000    0.000    0.000    0.000 
#
# Total GULP energy -312495.366771 kJ/mol
# GULP energy per Si atom -5580.274407 kJ/mol
# Density = 1.846454 g / cm^3
# Si number density = 18.506666 Si / 1000 Ang^3
#
#
#
# Elastic Constant Matrix: (Units=GPa)
#
#
# Indices 1 2 3 4 5 6 
#
# 1 47.1297 28.1803 12.6221 0.0000 0.0000 0.0000
# 2 28.1803 90.3536 9.2946 0.0000 0.0000 0.0000
# 3 12.6221 9.2946 74.1688 0.0000 0.0000 0.0000
# 4 0.0000 0.0000 0.0000 20.9979 0.0000 0.0000
# 5 0.0000 0.0000 0.0000 0.0000 1.7402 0.0000
# 6 0.0000 0.0000 0.0000 0.0000 0.0000 38.5504
#
#
#
# Elastic Compliance Matrix: (Units=1/GPa)
#
#
# Indices 1 2 3 4 5 6 
#
# 1 0.026991 -0.008049 -0.003585 0.000000 0.000000 0.000000
# 2 -0.008049 0.013613 -0.000336 0.000000 0.000000 0.000000
# 3 -0.003585 -0.000336 0.014135 0.000000 0.000000 0.000000
# 4 0.000000 0.000000 0.000000 0.047624 0.000000 0.000000
# 5 0.000000 0.000000 0.000000 0.000000 0.574659 0.000000
# 6 0.000000 0.000000 0.000000 0.000000 0.000000 0.025940
#
#
# Mechanical properties :
#
#
# Convention : Reuss Voigt Hill
#
# Bulk Modulus (GPa) = 32.46915 34.64955 33.55935
# Shear Modulus (GPa) = 6.78272 23.02804 14.90538
#
# Velocity S-wave (km/s) = 1.91650 3.53131 2.84105
# Velocity P-wave (km/s) = 4.74130 5.94897 5.37913
#
# Compressibility (1/GPa) = 0.03079847
#
# Stress axis : x y z
#
# Youngs Moduli (GPa) = 37.04923 73.46058 70.74683
#
# Poissons Ratio (x) = 0.59132 0.25360
# Poissons Ratio (y) = 0.29823 0.02377
# Poissons Ratio (z) = 0.13281 0.02469
#
# Static dielectric constant tensor:
#      x y z
#    x 1.592030 0.000000 0.000000 
#    y 0.000000 1.656990 0.000000 
#    z 0.000000 0.000000 1.665230 
# 
# From -- ./inp_files/33814.got.cif
#   From: 2010.05.17/outbox.cif.g08.bks.cpg/sg66_17_cif.got.tgz:33814.got - 2010.06.03 17:51:23.
