data_PCOD9498606
_publ_section_title
;
Structure prediction by ZEFSAII (Michael W. Deem and Ramdas Pophale) SiO2 
 PCOD9498606
Probable space group: C C C M
;
_chemical_formula_sum "Si O2"
_cell_formula_units_Z 56
_cell_length_a 22.840416
_cell_length_b 13.309836
_cell_length_c 9.454540
_cell_angle_alpha 90.000000
_cell_angle_beta 90.000000
_cell_angle_gamma 90.000000
_cell_volume 2874.200876
_symmetry_space_group_name_H-M "C C C M"
_symmetry_group_IT_number 66
_symmetry_cell_setting 'orthorhombic'
loop_
_space_group_symop_operation_xyz
x,y,z
-x,-y,z
x,-y,1/2-z
-x,y,1/2-z
-x,-y,-z
x,y,-z
-x,y,1/2+z
x,-y,1/2+z
1/2+x,1/2+y,z
1/2-x,1/2-y,z
1/2+x,1/2-y,1/2-z
1/2-x,1/2+y,1/2-z
1/2-x,1/2-y,-z
1/2+x,1/2+y,-z
1/2-x,1/2+y,1/2+z
1/2+x,1/2-y,1/2+z
loop_
_atom_site_type_symbol
_atom_site_label
_atom_site_fract_x
_atom_site_fract_y
_atom_site_fract_z
Si Si1 0.845997 0.096527 0.837915
Si Si2 0.846428 0.599079 0.840609
Si Si3 0.250000 0.750000 0.243952
Si Si4 0.938120 0.229090 0.328661
O O1 0.794808 0.179521 0.839974
O O2 0.899179 0.143293 0.746855
O O3 0.825133 0.000000 0.750000
O O4 0.862266 0.072273 0.000000
O O5 0.838674 0.500000 0.750000
O O6 0.791257 0.674105 0.830046
O O7 0.902437 0.667498 0.802193
O O8 0.853920 0.565117 0.000000
O O9 0.942173 0.215130 0.500000
O O10 0.000000 0.232057 0.250000
#
# Coordination Sequence:
#
# PCOD9498606 Si02
#       4
#    16  16   8  16
#     4  11  23  39  60  88 119 154 194 238 288 344
#     4  10  22  38  59  86 118 154 194 239 290 344
#     4  10  22  38  60  86 118 156 196 240 286 338
#     4  10  22  41  62  86 116 152 193 241 290 342
#
# _framework density 19.483677
#
# number of rings (size 3 to 8) (size 9 to 14) (size 15 to 20)
#    0.000    1.714    0.000    3.429    0.000   13.714 
#    0.000    5.714    0.000    0.000    0.000    0.000 
#    0.000    0.000    0.000    0.000    0.000    0.000 
#
# Total GULP energy -156281.107884 kJ/mol
# GULP energy per Si atom -5581.468139 kJ/mol
# Density = 1.943933 g / cm^3
# Si number density = 19.483677 Si / 1000 Ang^3
#
#
#
# Elastic Constant Matrix: (Units=GPa)
#
#
# Indices 1 2 3 4 5 6 
#
# 1 125.4172 32.9857 44.3025 0.0000 0.0000 0.0000
# 2 32.9857 113.4150 66.6695 0.0000 0.0000 0.0000
# 3 44.3025 66.6695 115.7022 0.0000 0.0000 0.0000
# 4 0.0000 0.0000 0.0000 19.0906 0.0000 0.0000
# 5 0.0000 0.0000 0.0000 0.0000 61.3616 0.0000
# 6 0.0000 0.0000 0.0000 0.0000 0.0000 7.7871
#
#
#
# Elastic Compliance Matrix: (Units=1/GPa)
#
#
# Indices 1 2 3 4 5 6 
#
# 1 0.009284 -0.000923 -0.003023 0.000000 0.000000 0.000000
# 2 -0.000923 0.013425 -0.007382 0.000000 0.000000 0.000000
# 3 -0.003023 -0.007382 0.014054 0.000000 0.000000 0.000000
# 4 0.000000 0.000000 0.000000 0.052382 0.000000 0.000000
# 5 0.000000 0.000000 0.000000 0.000000 0.016297 0.000000
# 6 0.000000 0.000000 0.000000 0.000000 0.000000 0.128417
#
#
# Mechanical properties :
#
#
# Convention : Reuss Voigt Hill
#
# Bulk Modulus (GPa) = 70.88902 71.38331 71.13616
# Shear Modulus (GPa) = 19.14108 31.68632 25.41370
#
# Velocity S-wave (km/s) = 3.13775 4.03712 3.61551
# Velocity P-wave (km/s) = 7.04202 7.64514 7.34977
#
# Compressibility (1/GPa) = 0.01410656
#
# Stress axis : x y z
#
# Youngs Moduli (GPa) = 107.71215 74.48609 71.15309
#
# Poissons Ratio (x) = 0.06877 0.21509
# Poissons Ratio (y) = 0.09944 0.52528
# Poissons Ratio (z) = 0.32560 0.54989
#
# Static dielectric constant tensor:
#      x y z
#    x 1.680210 0.000000 0.000000 
#    y 0.000000 1.702020 0.000000 
#    z 0.000000 0.000000 1.665870 
# 
# From -- ./inp_files/4813.got.cif
#   From: 2010.05.17/outbox.cif.g08.bks.cpg/sg66_3_cif.got.tgz:4813.got - 2010.06.03 17:51:23.
