data_PCOD9498512
_publ_section_title
;
Structure prediction by ZEFSAII (Michael W. Deem and Ramdas Pophale) SiO2 
 PCOD9498512
Probable space group: C C C M
;
_chemical_formula_sum "Si O2"
_cell_formula_units_Z 64
_cell_length_a 27.907870
_cell_length_b 11.016390
_cell_length_c 9.567273
_cell_angle_alpha 90.000000
_cell_angle_beta 90.000000
_cell_angle_gamma 90.000000
_cell_volume 2941.400489
_symmetry_space_group_name_H-M "C C C M"
_symmetry_group_IT_number 66
_symmetry_cell_setting 'orthorhombic'
loop_
_space_group_symop_operation_xyz
x,y,z
-x,-y,z
x,-y,1/2-z
-x,y,1/2-z
-x,-y,-z
x,y,-z
-x,y,1/2+z
x,-y,1/2+z
1/2+x,1/2+y,z
1/2-x,1/2-y,z
1/2+x,1/2-y,1/2-z
1/2-x,1/2+y,1/2-z
1/2-x,1/2-y,-z
1/2+x,1/2+y,-z
1/2-x,1/2+y,1/2+z
1/2+x,1/2-y,1/2+z
loop_
_atom_site_type_symbol
_atom_site_label
_atom_site_fract_x
_atom_site_fract_y
_atom_site_fract_z
Si Si1 0.634401 0.589030 0.500000
Si Si2 0.342349 0.788275 0.500000
Si Si3 0.693795 0.735013 0.702919
Si Si4 0.433620 0.357215 0.000000
Si Si5 0.500000 0.718815 0.250000
Si Si6 0.848104 0.567497 0.500000
Si Si7 0.559701 0.186873 0.000000
O O1 0.669138 0.619549 0.629415
O O2 0.604291 0.466917 0.500000
O O3 0.594238 0.694784 0.500000
O O4 0.319073 0.731728 0.636437
O O5 0.399222 0.760605 0.500000
O O6 0.331481 0.930869 0.500000
O O7 0.750000 0.750000 0.678082
O O8 0.669868 0.854129 0.632158
O O9 0.466031 0.356292 0.141320
O O10 0.470215 0.800051 0.141338
O O11 0.905510 0.572888 0.500000
#
# Coordination Sequence:
#
# PCOD9498512 Si02
#       7
#     8   8  16   8   8   8   8
#     4  10  22  42  66  85 126 178 205 257 323 391
#     4  12  24  41  65  98 127 163 215 272 322 380
#     4  10  22  44  66  93 127 165 218 261 325 382
#     4  11  24  43  63  98 132 176 221 264 337 375
#     4  10  22  39  63  94 134 166 219 277 310 406
#     4  10  21  43  67  87 125 176 204 261 326 390
#     4   9  20  38  62  89 123 168 213 257 331 374
#
# _framework density 21.758343
#
# number of rings (size 3 to 8) (size 9 to 14) (size 15 to 20)
#    0.000    2.000    0.000    5.625    0.000    7.000 
#   13.500    5.000    0.000    0.000    0.000    0.000 
#    0.000    0.000    0.000    0.000    0.000    0.000 
#
# Total GULP energy -178814.800535 kJ/mol
# GULP energy per Si atom -5587.962517 kJ/mol
# Density = 2.170882 g / cm^3
# Si number density = 21.758343 Si / 1000 Ang^3
#
#
#
# Elastic Constant Matrix: (Units=GPa)
#
#
# Indices 1 2 3 4 5 6 
#
# 1 126.8492 8.7443 57.6657 0.0000 0.0000 0.0000
# 2 8.7443 47.2750 18.3960 0.0000 0.0000 0.0000
# 3 57.6657 18.3960 193.7207 0.0000 0.0000 0.0000
# 4 0.0000 0.0000 0.0000 10.6122 0.0000 0.0000
# 5 0.0000 0.0000 0.0000 0.0000 34.7868 0.0000
# 6 0.0000 0.0000 0.0000 0.0000 0.0000 21.9977
#
#
#
# Elastic Compliance Matrix: (Units=1/GPa)
#
#
# Indices 1 2 3 4 5 6 
#
# 1 0.009137 -0.000656 -0.002657 0.000000 0.000000 0.000000
# 2 -0.000656 0.022012 -0.001895 0.000000 0.000000 0.000000
# 3 -0.002657 -0.001895 0.006133 0.000000 0.000000 0.000000
# 4 0.000000 0.000000 0.000000 0.094232 0.000000 0.000000
# 5 0.000000 0.000000 0.000000 0.000000 0.028747 0.000000
# 6 0.000000 0.000000 0.000000 0.000000 0.000000 0.045459
#
#
# Mechanical properties :
#
#
# Convention : Reuss Voigt Hill
#
# Bulk Modulus (GPa) = 37.22376 59.71746 48.47061
# Shear Modulus (GPa) = 22.21330 32.34859 27.28094
#
# Velocity S-wave (km/s) = 3.19863 3.85999 3.54477
# Velocity P-wave (km/s) = 5.54857 6.88268 6.25132
#
# Compressibility (1/GPa) = 0.02686456
#
# Stress axis : x y z
#
# Youngs Moduli (GPa) = 109.44901 45.43069 163.05005
#
# Poissons Ratio (x) = 0.02980 0.43330
# Poissons Ratio (y) = 0.07179 0.30898
# Poissons Ratio (z) = 0.29086 0.08609
#
# Static dielectric constant tensor:
#      x y z
#    x 1.808050 0.000000 0.000000 
#    y 0.000000 1.772430 0.000000 
#    z 0.000000 0.000000 1.907420 
# 
# From -- ./inp_files/11232.got.cif
#   From: 2010.05.17/outbox.cif.g08.bks.cpg/sg66_6_cif.got.tgz:11232.got - 2010.06.03 17:51:23.
