data_PCOD9498599
_publ_section_title
;
Structure prediction by ZEFSAII (Michael W. Deem and Ramdas Pophale) SiO2 
 PCOD9498599
Probable space group: C C C M
;
_chemical_formula_sum "Si O2"
_cell_formula_units_Z 80
_cell_length_a 11.186460
_cell_length_b 14.822954
_cell_length_c 25.469944
_cell_angle_alpha 90.000000
_cell_angle_beta 90.000000
_cell_angle_gamma 90.000000
_cell_volume 4223.333964
_symmetry_space_group_name_H-M "C C C M"
_symmetry_group_IT_number 66
_symmetry_cell_setting 'orthorhombic'
loop_
_space_group_symop_operation_xyz
x,y,z
-x,-y,z
x,-y,1/2-z
-x,y,1/2-z
-x,-y,-z
x,y,-z
-x,y,1/2+z
x,-y,1/2+z
1/2+x,1/2+y,z
1/2-x,1/2-y,z
1/2+x,1/2-y,1/2-z
1/2-x,1/2+y,1/2-z
1/2-x,1/2-y,-z
1/2+x,1/2+y,-z
1/2-x,1/2+y,1/2+z
1/2+x,1/2-y,1/2+z
loop_
_atom_site_type_symbol
_atom_site_label
_atom_site_fract_x
_atom_site_fract_y
_atom_site_fract_z
Si Si1 0.263966 0.644645 0.790083
Si Si2 0.734092 0.149200 0.669789
Si Si3 0.530792 0.100903 0.152786
Si Si4 0.808589 0.651402 0.559445
Si Si5 0.363474 0.523017 0.122927
O O1 0.250000 0.750000 0.805238
O O2 0.288522 0.641818 0.728402
O O3 0.135814 0.600857 0.804191
O O4 0.356134 0.589130 0.825879
O O5 0.750000 0.250000 0.648393
O O6 0.591505 0.139876 0.674358
O O7 0.792330 0.068981 0.636428
O O8 0.585305 0.149414 0.101908
O O9 0.500000 0.000000 0.136404
O O10 0.846869 0.631439 0.500000
O O11 0.750000 0.750000 0.560457
O O12 0.710836 0.578680 0.579511
O O13 0.500000 0.500000 0.109855
#
# Coordination Sequence:
#
# PCOD9498599 Si02
#       5
#    16  16  16  16  16
#     4  10  22  38  57  84 121 168 207 231 276 350
#     4  11  24  36  55  89 124 163 197 237 291 337
#     4  11  20  38  62  87 116 154 195 254 293 341
#     4  10  23  44  69  88 109 150 199 246 305 367
#     4  11  23  39  60  86 123 157 195 248 292 348
#
# _framework density 18.94238
#
# number of rings (size 3 to 8) (size 9 to 14) (size 15 to 20)
#    0.000    1.400    4.000    3.600    5.600    3.200 
#    0.000    0.000    0.000    1.200    0.000    0.000 
#    0.000    0.000    0.000    0.000    0.000    0.000 
#
# Total GULP energy -223270.601211 kJ/mol
# GULP energy per Si atom -5581.765030 kJ/mol
# Density = 1.889927 g / cm^3
# Si number density = 18.942380 Si / 1000 Ang^3
#
#
#
# Elastic Constant Matrix: (Units=GPa)
#
#
# Indices 1 2 3 4 5 6 
#
# 1 28.9380 -11.3201 -5.8833 0.0000 0.0000 0.0000
# 2 -11.3201 95.1847 29.3257 0.0000 0.0000 0.0000
# 3 -5.8833 29.3257 58.2633 0.0000 0.0000 0.0000
# 4 0.0000 0.0000 0.0000 -7.2407 0.0000 0.0000
# 5 0.0000 0.0000 0.0000 0.0000 7.5909 0.0000
# 6 0.0000 0.0000 0.0000 0.0000 0.0000 24.0228
#
#
#
# Elastic Compliance Matrix: (Units=1/GPa)
#
#
# Indices 1 2 3 4 5 6 
#
# 1 0.036396 0.003783 0.001771 0.000000 0.000000 0.000000
# 2 0.003783 0.012827 -0.006074 0.000000 0.000000 0.000000
# 3 0.001771 -0.006074 0.020400 0.000000 0.000000 0.000000
# 4 0.000000 0.000000 0.000000 -0.138107 0.000000 0.000000
# 5 0.000000 0.000000 0.000000 0.000000 0.131737 0.000000
# 6 0.000000 0.000000 0.000000 0.000000 0.000000 0.041627
#
#
# Mechanical properties :
#
#
# Convention : Reuss Voigt Hill
#
# Bulk Modulus (GPa) = 14.58091 22.95897 18.76994
# Shear Modulus (GPa) = 38.82551 16.22550 27.52551
#
# Velocity S-wave (km/s) = 4.53223 2.92990 3.81611
# Velocity P-wave (km/s) = 5.92473 4.85721 5.41733
#
# Compressibility (1/GPa) = 0.06858282
#
# Stress axis : x y z
#
# Youngs Moduli (GPa) = 27.47518 77.95910 49.02024
#
# Poissons Ratio (x) = -0.29491 -0.08682
# Poissons Ratio (y) = -0.10393 0.29777
# Poissons Ratio (z) = -0.04866 0.47355
#
# Static dielectric constant tensor:
#      x y z
#    x 1.662200 0.000000 0.000000 
#    y 0.000000 1.696210 0.000000 
#    z 0.000000 0.000000 1.645240 
# 
# From -- ./inp_files/63512.got.cif
#   From: 2010.05.17/outbox.cif.g08.bks.cpg/sg66_32_cif.got.tgz:63512.got - 2010.06.03 17:51:23.
