data_PCOD9498340
_publ_section_title
;
Structure prediction by ZEFSAII (Michael W. Deem and Ramdas Pophale) SiO2 
 PCOD9498340
Probable space group: C C C M
;
_chemical_formula_sum "Si O2"
_cell_formula_units_Z 116
_cell_length_a 8.352519
_cell_length_b 26.648975
_cell_length_c 26.320348
_cell_angle_alpha 90.000000
_cell_angle_beta 90.000000
_cell_angle_gamma 90.000000
_cell_volume 5858.542823
_symmetry_space_group_name_H-M "C C C M"
_symmetry_group_IT_number 66
_symmetry_cell_setting 'orthorhombic'
loop_
_space_group_symop_operation_xyz
x,y,z
-x,-y,z
x,-y,1/2-z
-x,y,1/2-z
-x,-y,-z
x,y,-z
-x,y,1/2+z
x,-y,1/2+z
1/2+x,1/2+y,z
1/2-x,1/2-y,z
1/2+x,1/2-y,1/2-z
1/2-x,1/2+y,1/2-z
1/2-x,1/2-y,-z
1/2+x,1/2+y,-z
1/2-x,1/2+y,1/2+z
1/2+x,1/2-y,1/2+z
loop_
_atom_site_type_symbol
_atom_site_label
_atom_site_fract_x
_atom_site_fract_y
_atom_site_fract_z
Si Si1 0.741659 0.620230 0.783692
Si Si2 0.393947 0.370111 0.673723
Si Si3 0.840669 0.952015 0.590519
Si Si4 0.023474 0.394044 0.441366
Si Si5 0.415789 0.778536 0.301441
Si Si6 0.500000 0.500000 0.000000
Si Si7 0.336510 0.797262 0.888396
Si Si8 0.851101 0.461579 0.359773
O O1 0.704812 0.615053 0.724113
O O2 0.575252 0.639544 0.808857
O O3 0.871933 0.663152 0.792788
O O4 0.796905 0.568997 0.810327
O O5 0.398659 0.415304 0.634107
O O6 0.296640 0.326415 0.645392
O O7 0.680380 0.928650 0.565500
O O8 0.786970 0.003783 0.616867
O O9 0.960380 0.959338 0.544707
O O10 0.969893 0.395204 0.500000
O O11 0.077436 0.338568 0.423653
O O12 0.901297 0.419834 0.401822
O O13 0.500000 0.759061 0.250000
O O14 0.250000 0.750000 0.309501
O O15 0.533739 0.776091 0.348779
O O16 0.250000 0.750000 0.914562
O O17 0.000000 0.500000 0.350622
#
# Coordination Sequence:
#
# PCOD9498340 Si02
#       8
#    16  16  16  16  16   4  16  16
#     4  11  22  40  62  91 127 175 206 263 319 385
#     4  10  23  40  61  90 135 160 216 265 317 383
#     4  10  22  37  58  91 121 164 211 259 318 368
#     4  10  21  40  62  90 120 158 208 267 320 378
#     4  12  24  37  62  95 125 162 214 258 321 383
#     4  12  20  36  62  86 118 162 220 266 306 382
#     4  11  22  41  63  90 124 165 207 266 320 392
#     4  10  22  39  63  93 128 167 213 262 320 385
#
# _framework density 19.800146000000002
#
# number of rings (size 3 to 8) (size 9 to 14) (size 15 to 20)
#    0.000    1.379    3.448    2.069    2.897    1.655 
#    0.000    4.828    0.000    0.414    0.000    0.000 
#    0.000    0.000    0.000    0.000    0.000    0.000 
#
# Total GULP energy -323520.793106 kJ/mol
# GULP energy per Si atom -5577.944709 kJ/mol
# Density = 1.975508 g / cm^3
# Si number density = 19.800146 Si / 1000 Ang^3
#
#
#
# Elastic Constant Matrix: (Units=GPa)
#
#
# Indices 1 2 3 4 5 6 
#
# 1 41.0518 22.2520 3.9963 0.0000 0.0000 0.0000
# 2 22.2520 109.2520 35.2497 0.0000 0.0000 0.0000
# 3 3.9963 35.2497 70.8842 0.0000 0.0000 0.0000
# 4 0.0000 0.0000 0.0000 9.1916 0.0000 0.0000
# 5 0.0000 0.0000 0.0000 0.0000 13.7734 0.0000
# 6 0.0000 0.0000 0.0000 0.0000 0.0000 26.8145
#
#
#
# Elastic Compliance Matrix: (Units=1/GPa)
#
#
# Indices 1 2 3 4 5 6 
#
# 1 0.027511 -0.006078 0.001472 0.000000 0.000000 0.000000
# 2 -0.006078 0.012245 -0.005747 0.000000 0.000000 0.000000
# 3 0.001472 -0.005747 0.016882 0.000000 0.000000 0.000000
# 4 0.000000 0.000000 0.000000 0.108795 0.000000 0.000000
# 5 0.000000 0.000000 0.000000 0.000000 0.072604 0.000000
# 6 0.000000 0.000000 0.000000 0.000000 0.000000 0.037293
#
#
# Mechanical properties :
#
#
# Convention : Reuss Voigt Hill
#
# Bulk Modulus (GPa) = 27.83047 38.24267 33.03657
# Shear Modulus (GPa) = 16.23305 20.60191 18.41748
#
# Velocity S-wave (km/s) = 2.86640 3.22917 3.05318
# Velocity P-wave (km/s) = 5.00412 5.76712 5.39911
#
# Compressibility (1/GPa) = 0.03593184
#
# Stress axis : x y z
#
# Youngs Moduli (GPa) = 36.34938 81.66430 59.23360
#
# Poissons Ratio (x) = 0.49636 -0.08716
# Poissons Ratio (y) = 0.22093 0.34040
# Poissons Ratio (z) = -0.05349 0.46930
#
# Static dielectric constant tensor:
#      x y z
#    x 1.733330 0.000000 0.000000 
#    y 0.000000 1.705770 0.000000 
#    z 0.000000 0.000000 1.650070 
# 
# From -- ./inp_files/68342.got.cif
#   From: 2010.05.17/outbox.cif.g08.bks.cpg/sg66_35_cif.got.tgz:68342.got - 2010.06.03 17:51:23.
