data_PCOD9498019
_publ_section_title
;
Structure prediction by ZEFSAII (Michael W. Deem and Ramdas Pophale) SiO2 
 PCOD9498019
Probable space group: C C C M
;
_chemical_formula_sum "Si O2"
_cell_formula_units_Z 112
_cell_length_a 23.130835
_cell_length_b 13.890183
_cell_length_c 16.818524
_cell_angle_alpha 90.000000
_cell_angle_beta 90.000000
_cell_angle_gamma 90.000000
_cell_volume 5403.649327
_symmetry_space_group_name_H-M "C C C M"
_symmetry_group_IT_number 66
_symmetry_cell_setting 'orthorhombic'
loop_
_space_group_symop_operation_xyz
x,y,z
-x,-y,z
x,-y,1/2-z
-x,y,1/2-z
-x,-y,-z
x,y,-z
-x,y,1/2+z
x,-y,1/2+z
1/2+x,1/2+y,z
1/2-x,1/2-y,z
1/2+x,1/2-y,1/2-z
1/2-x,1/2+y,1/2-z
1/2-x,1/2-y,-z
1/2+x,1/2+y,-z
1/2-x,1/2+y,1/2+z
1/2+x,1/2-y,1/2+z
loop_
_atom_site_type_symbol
_atom_site_label
_atom_site_fract_x
_atom_site_fract_y
_atom_site_fract_z
Si Si1 0.433385 0.774447 0.336617
Si Si2 0.056160 0.063169 0.095043
Si Si3 0.039336 0.382142 0.407681
Si Si4 0.881036 0.446081 0.409331
Si Si5 0.361446 0.220162 0.674088
Si Si6 0.160837 0.081591 0.591893
Si Si7 0.723872 0.047815 0.170775
O O1 0.442122 0.663991 0.359485
O O2 0.493955 0.830281 0.349691
O O3 0.393141 0.834201 0.397318
O O4 0.400989 0.784566 0.252818
O O5 0.113594 0.000402 0.109605
O O6 0.052291 0.082616 0.000000
O O7 0.000000 0.000000 0.116996
O O8 0.019572 0.376875 0.500000
O O9 0.061589 0.490528 0.389847
O O10 0.099016 0.323465 0.396228
O O11 0.866930 0.468647 0.500000
O O12 0.830105 0.481616 0.353687
O O13 0.347219 0.328435 0.650332
O O14 0.304964 0.152879 0.682678
O O15 0.152029 0.110633 0.500000
O O16 0.226335 0.048036 0.605397
O O17 0.749177 0.000000 0.250000
#
# Coordination Sequence:
#
# PCOD9498019 Si02
#       7
#    16  16  16  16  16  16  16
#     4  12  22  38  62  96 132 175 213 267 332 405
#     4  10  23  43  67  95 132 171 216 273 327 385
#     4  10  21  37  62  93 132 173 220 269 323 394
#     4  10  21  39  64  95 131 175 222 269 331 404
#     4  11  24  40  64  97 127 171 215 277 335 385
#     4  11  25  45  70  96 126 175 232 276 325 392
#     4  11  23  43  65  94 134 169 215 278 339 390
#
# _framework density 20.726734
#
# number of rings (size 3 to 8) (size 9 to 14) (size 15 to 20)
#    0.000    1.286    1.429    4.286    2.000    4.571 
#    0.000    2.857    0.000    2.571    0.000    0.000 
#    0.000    0.000    0.000    0.000    0.000    0.000 
#
# Total GULP energy -312867.113957 kJ/mol
# GULP energy per Si atom -5586.912749 kJ/mol
# Density = 2.067956 g / cm^3
# Si number density = 20.726734 Si / 1000 Ang^3
#
#
#
# Elastic Constant Matrix: (Units=GPa)
#
#
# Indices 1 2 3 4 5 6 
#
# 1 94.4130 39.0177 30.9335 0.0000 0.0000 0.0000
# 2 39.0177 117.6098 31.2810 0.0000 0.0000 0.0000
# 3 30.9335 31.2810 60.4382 0.0000 0.0000 0.0000
# 4 0.0000 0.0000 0.0000 25.4431 0.0000 0.0000
# 5 0.0000 0.0000 0.0000 0.0000 33.1143 0.0000
# 6 0.0000 0.0000 0.0000 0.0000 0.0000 21.2771
#
#
#
# Elastic Compliance Matrix: (Units=1/GPa)
#
#
# Indices 1 2 3 4 5 6 
#
# 1 0.013631 -0.003092 -0.005376 0.000000 0.000000 0.000000
# 2 -0.003092 0.010562 -0.003884 0.000000 0.000000 0.000000
# 3 -0.005376 -0.003884 0.021308 0.000000 0.000000 0.000000
# 4 0.000000 0.000000 0.000000 0.039303 0.000000 0.000000
# 5 0.000000 0.000000 0.000000 0.000000 0.030198 0.000000
# 6 0.000000 0.000000 0.000000 0.000000 0.000000 0.046999
#
#
# Mechanical properties :
#
#
# Convention : Reuss Voigt Hill
#
# Bulk Modulus (GPa) = 48.08634 52.76948 50.42791
# Shear Modulus (GPa) = 25.82149 27.38216 26.60183
#
# Velocity S-wave (km/s) = 3.53343 3.63864 3.58642
# Velocity P-wave (km/s) = 6.31643 6.57022 6.44458
#
# Compressibility (1/GPa) = 0.02079593
#
# Stress axis : x y z
#
# Youngs Moduli (GPa) = 73.36130 94.68334 46.93178
#
# Poissons Ratio (x) = 0.29279 0.25232
# Poissons Ratio (y) = 0.22685 0.18227
# Poissons Ratio (z) = 0.39441 0.36772
#
# Static dielectric constant tensor:
#      x y z
#    x 1.746710 0.000000 0.000000 
#    y 0.000000 1.733950 0.000000 
#    z 0.000000 0.000000 1.719110 
# 
# From -- ./inp_files/32441.got.cif
#   From: 2010.05.17/outbox.cif.g08.bks.cpg/sg66_17_cif.got.tgz:32441.got - 2010.06.03 17:51:23.
