data_PCOD9498999
_publ_section_title
;
Structure prediction by ZEFSAII (Michael W. Deem and Ramdas Pophale) SiO2 
 PCOD9498999
Probable space group: C C C M
;
_chemical_formula_sum "Si O2"
_cell_formula_units_Z 84
_cell_length_a 8.083200
_cell_length_b 26.877039
_cell_length_c 18.717737
_cell_angle_alpha 90.000000
_cell_angle_beta 90.000000
_cell_angle_gamma 90.000000
_cell_volume 4066.474814
_symmetry_space_group_name_H-M "C C C M"
_symmetry_group_IT_number 66
_symmetry_cell_setting 'orthorhombic'
loop_
_space_group_symop_operation_xyz
x,y,z
-x,-y,z
x,-y,1/2-z
-x,y,1/2-z
-x,-y,-z
x,y,-z
-x,y,1/2+z
x,-y,1/2+z
1/2+x,1/2+y,z
1/2-x,1/2-y,z
1/2+x,1/2-y,1/2-z
1/2-x,1/2+y,1/2-z
1/2-x,1/2-y,-z
1/2+x,1/2+y,-z
1/2-x,1/2+y,1/2+z
1/2+x,1/2-y,1/2+z
loop_
_atom_site_type_symbol
_atom_site_label
_atom_site_fract_x
_atom_site_fract_y
_atom_site_fract_z
Si Si1 0.294655 0.169037 0.124564
Si Si2 0.250000 0.250000 0.000000
Si Si3 0.406965 0.113068 0.326277
Si Si4 0.752623 0.530227 0.583628
Si Si5 0.616767 0.424927 0.416601
Si Si6 0.809222 0.801046 0.273737
O O1 0.258387 0.206754 0.062127
O O2 0.470718 0.142019 0.120141
O O3 0.161317 0.124250 0.126515
O O4 0.293957 0.196533 0.200216
O O5 0.500000 0.107069 0.250000
O O6 0.362371 0.061116 0.362114
O O7 0.249034 0.149337 0.314678
O O8 0.804631 0.533209 0.500000
O O9 0.570739 0.555771 0.587951
O O10 0.728943 0.472453 0.603117
O O11 0.649412 0.413605 0.500000
O O12 0.750000 0.750000 0.311556
O O13 0.000000 0.800178 0.250000
#
# Coordination Sequence:
#
# PCOD9498999 Si02
#       6
#    16   4  16  16  16  16
#     4  11  22  38  60  88 121 160 198 246 297 361
#     4  12  24  36  60  86 132 154 200 246 306 346
#     4  10  23  40  58  89 124 157 205 248 301 359
#     4   9  19  37  62  88 120 156 202 253 297 364
#     4   9  18  36  61  90 119 158 198 242 311 361
#     4  11  22  40  63  82 115 162 205 246 299 353
#
# _framework density 20.656711000000001
#
# number of rings (size 3 to 8) (size 9 to 14) (size 15 to 20)
#    0.000    1.905    1.905    4.000    1.333    0.762 
#    0.000    8.571    0.000   13.143    0.000    0.000 
#    0.000    0.000    0.000    0.000    0.000    0.000 
#
# Total GULP energy -233969.106963 kJ/mol
# GULP energy per Si atom -5570.693023 kJ/mol
# Density = 2.060970 g / cm^3
# Si number density = 20.656711 Si / 1000 Ang^3
#
#
#
# Elastic Constant Matrix: (Units=GPa)
#
#
# Indices 1 2 3 4 5 6 
#
# 1 67.3224 20.4995 -1.6471 0.0000 0.0000 0.0000
# 2 20.4995 126.9015 43.0047 0.0000 0.0000 0.0000
# 3 -1.6471 43.0047 48.0389 0.0000 0.0000 0.0000
# 4 0.0000 0.0000 0.0000 -99.2912 0.0000 0.0000
# 5 0.0000 0.0000 0.0000 0.0000 14.8379 0.0000
# 6 0.0000 0.0000 0.0000 0.0000 0.0000 24.0942
#
#
#
# Elastic Compliance Matrix: (Units=1/GPa)
#
#
# Indices 1 2 3 4 5 6 
#
# 1 0.016180 -0.004022 0.004155 0.000000 0.000000 0.000000
# 2 -0.004022 0.012311 -0.011159 0.000000 0.000000 0.000000
# 3 0.004155 -0.011159 0.030949 0.000000 0.000000 0.000000
# 4 0.000000 0.000000 0.000000 -0.010071 0.000000 0.000000
# 5 0.000000 0.000000 0.000000 0.000000 0.067395 0.000000
# 6 0.000000 0.000000 0.000000 0.000000 0.000000 0.041504
#
#
# Mechanical properties :
#
#
# Convention : Reuss Voigt Hill
#
# Bulk Modulus (GPa) = 26.74612 40.66410 33.70511
# Shear Modulus (GPa) = 25.93601 -0.04476 12.94562
#
# Velocity S-wave (km/s) = 3.54725 -0.14736 2.50612
# Velocity P-wave (km/s) = 5.45466 4.43841 4.97256
#
# Compressibility (1/GPa) = 0.03738861
#
# Stress axis : x y z
#
# Youngs Moduli (GPa) = 61.80395 81.22515 32.31152
#
# Poissons Ratio (x) = 0.32667 -0.13426
# Poissons Ratio (y) = 0.24856 0.36057
# Poissons Ratio (z) = -0.25680 0.90641
#
# Static dielectric constant tensor:
#      x y z
#    x 1.793020 0.000000 0.000000 
#    y 0.000000 1.728070 0.000000 
#    z 0.000000 0.000000 1.704880 
# 
# From -- ./inp_files/47095.got.cif
#   From: 2010.05.17/outbox.cif.g08.bks.cpg/sg66_24_cif.got.tgz:47095.got - 2010.06.03 17:51:23.
