data_PCOD9498083
_publ_section_title
;
Structure prediction by ZEFSAII (Michael W. Deem and Ramdas Pophale) SiO2 
 PCOD9498083
Probable space group: C C C M
;
_chemical_formula_sum "Si O2"
_cell_formula_units_Z 72
_cell_length_a 25.703566
_cell_length_b 8.086863
_cell_length_c 16.947709
_cell_angle_alpha 90.000000
_cell_angle_beta 90.000000
_cell_angle_gamma 90.000000
_cell_volume 3522.771416
_symmetry_space_group_name_H-M "C C C M"
_symmetry_group_IT_number 66
_symmetry_cell_setting 'orthorhombic'
loop_
_space_group_symop_operation_xyz
x,y,z
-x,-y,z
x,-y,1/2-z
-x,y,1/2-z
-x,-y,-z
x,y,-z
-x,y,1/2+z
x,-y,1/2+z
1/2+x,1/2+y,z
1/2-x,1/2-y,z
1/2+x,1/2-y,1/2-z
1/2-x,1/2+y,1/2-z
1/2-x,1/2-y,-z
1/2+x,1/2+y,-z
1/2-x,1/2+y,1/2+z
1/2+x,1/2-y,1/2+z
loop_
_atom_site_type_symbol
_atom_site_label
_atom_site_fract_x
_atom_site_fract_y
_atom_site_fract_z
Si Si1 0.941653 0.672512 0.782787
Si Si2 0.277196 0.929298 0.838553
Si Si3 0.180460 0.933181 0.411400
Si Si4 0.873227 0.423627 0.588446
Si Si5 0.877133 0.000000 0.750000
O O1 0.920029 0.500000 0.750000
O O2 0.927894 0.637508 0.873970
O O3 0.911392 0.835241 0.757070
O O4 0.000000 0.686124 0.750000
O O5 0.250000 0.750000 0.839698
O O6 0.275105 0.000000 0.750000
O O7 0.241282 0.039328 0.896181
O O8 0.336525 0.942634 0.868012
O O9 0.167191 0.997347 0.500000
O O10 0.161184 0.744376 0.409459
O O11 0.155011 0.010020 0.331768
O O12 0.881568 0.479966 0.500000
#
# Coordination Sequence:
#
# PCOD9498083 Si02
#       5
#    16  16  16  16   8
#     4  10  22  41  65  90 119 164 215 266 324 384
#     4  12  24  36  58  90 127 170 212 254 313 382
#     4  10  21  38  59  89 125 167 211 253 316 387
#     4  10  22  40  62  87 124 165 207 264 321 380
#     4  10  21  40  64  92 126 168 209 266 324 386
#
# _framework density 20.438455000000001
#
# number of rings (size 3 to 8) (size 9 to 14) (size 15 to 20)
#    0.000    1.556    1.111    3.667    6.222    3.556 
#    0.000    3.333    0.000    5.333    0.000    0.000 
#    0.000    0.000    0.000    0.000    0.000    0.000 
#
# Total GULP energy -200601.441433 kJ/mol
# GULP energy per Si atom -5572.262262 kJ/mol
# Density = 2.039194 g / cm^3
# Si number density = 20.438455 Si / 1000 Ang^3
#
#
#
# Elastic Constant Matrix: (Units=GPa)
#
#
# Indices 1 2 3 4 5 6 
#
# 1 126.0841 29.5744 68.7031 0.0000 0.0000 0.0000
# 2 29.5744 74.0935 36.6987 0.0000 0.0000 0.0000
# 3 68.7031 36.6987 162.9233 0.0000 0.0000 0.0000
# 4 0.0000 0.0000 0.0000 8.5565 0.0000 0.0000
# 5 0.0000 0.0000 0.0000 0.0000 26.3768 0.0000
# 6 0.0000 0.0000 0.0000 0.0000 0.0000 -20.1027
#
#
#
# Elastic Compliance Matrix: (Units=1/GPa)
#
#
# Indices 1 2 3 4 5 6 
#
# 1 0.010628 -0.002276 -0.003969 0.000000 0.000000 0.000000
# 2 -0.002276 0.015679 -0.002572 0.000000 0.000000 0.000000
# 3 -0.003969 -0.002572 0.008391 0.000000 0.000000 0.000000
# 4 0.000000 0.000000 0.000000 0.116870 0.000000 0.000000
# 5 0.000000 0.000000 0.000000 0.000000 0.037912 0.000000
# 6 0.000000 0.000000 0.000000 0.000000 0.000000 -0.049745
#
#
# Mechanical properties :
#
#
# Convention : Reuss Voigt Hill
#
# Bulk Modulus (GPa) = 58.60464 70.33927 64.47196
# Shear Modulus (GPa) = 30.66415 18.17444 24.41929
#
# Velocity S-wave (km/s) = 3.87759 2.98523 3.46030
# Velocity P-wave (km/s) = 6.98453 6.80970 6.89767
#
# Compressibility (1/GPa) = 0.01706349
#
# Stress axis : x y z
#
# Youngs Moduli (GPa) = 94.09295 63.78021 119.17807
#
# Poissons Ratio (x) = 0.14518 0.47301
# Poissons Ratio (y) = 0.21418 0.30650
# Poissons Ratio (z) = 0.37345 0.16403
#
# Static dielectric constant tensor:
#      x y z
#    x 1.753900 0.000000 0.000000 
#    y 0.000000 1.745890 0.000000 
#    z 0.000000 0.000000 1.822420 
# 
# From -- ./inp_files/24456.got.cif
#   From: 2010.05.17/outbox.cif.g08.bks.cpg/sg66_13_cif.got.tgz:24456.got - 2010.06.03 17:51:23.
