data_PCOD9498282
_publ_section_title
;
Structure prediction by ZEFSAII (Michael W. Deem and Ramdas Pophale) SiO2 
 PCOD9498282
Probable space group: C C C M
;
_chemical_formula_sum "Si O2"
_cell_formula_units_Z 72
_cell_length_a 27.042639
_cell_length_b 13.429937
_cell_length_c 9.628179
_cell_angle_alpha 90.000000
_cell_angle_beta 90.000000
_cell_angle_gamma 90.000000
_cell_volume 3496.771081
_symmetry_space_group_name_H-M "C C C M"
_symmetry_group_IT_number 66
_symmetry_cell_setting 'orthorhombic'
loop_
_space_group_symop_operation_xyz
x,y,z
-x,-y,z
x,-y,1/2-z
-x,y,1/2-z
-x,-y,-z
x,y,-z
-x,y,1/2+z
x,-y,1/2+z
1/2+x,1/2+y,z
1/2-x,1/2-y,z
1/2+x,1/2-y,1/2-z
1/2-x,1/2+y,1/2-z
1/2-x,1/2-y,-z
1/2+x,1/2+y,-z
1/2-x,1/2+y,1/2+z
1/2+x,1/2-y,1/2+z
loop_
_atom_site_type_symbol
_atom_site_label
_atom_site_fract_x
_atom_site_fract_y
_atom_site_fract_z
Si Si1 0.127469 0.753759 0.500000
Si Si2 0.658957 0.688936 0.500000
Si Si3 0.031780 0.631907 0.500000
Si Si4 0.074047 0.500000 0.250000
Si Si5 0.200886 0.295806 0.237455
Si Si6 0.750946 0.500000 0.250000
Si Si7 0.414125 0.135204 0.500000
Si Si8 0.322827 0.535034 0.500000
O O1 0.070032 0.723994 0.500000
O O2 0.155308 0.706552 0.367717
O O3 0.141020 0.870636 0.500000
O O4 0.689263 0.723021 0.365155
O O5 0.611031 0.758113 0.500000
O O6 0.650023 0.571662 0.500000
O O7 0.044589 0.569243 0.360480
O O8 0.973384 0.649123 0.500000
O O9 0.100288 0.426753 0.361311
O O10 0.250000 0.250000 0.166970
O O11 0.215076 0.405960 0.286970
O O12 0.714272 0.465866 0.370827
#
# Coordination Sequence:
#
# PCOD9498282 Si02
#       8
#     8   8   8   8  16   8   8   8
#     4  12  25  39  64  88 123 159 211 245 309 360
#     4  12  25  39  64  88 123 159 211 245 309 360
#     4  11  22  40  64  94 126 162 202 251 304 369
#     4  10  21  39  65  88 126 166 190 241 323 370
#     4  12  23  42  60  90 118 160 202 257 296 367
#     4  12  24  37  65  82 122 154 202 245 309 350
#     4  11  22  40  64  94 126 162 202 251 304 369
#     4  12  22  42  59  84 114 172 195 240 304 368
#
# _framework density 20.590423000000001
#
# number of rings (size 3 to 8) (size 9 to 14) (size 15 to 20)
#    0.000    0.444    4.444    6.000    0.000    5.333 
#    0.000    0.556    0.000    0.000    0.000    7.778 
#    0.000    0.000    0.000    0.000    0.000    0.000 
#
# Total GULP energy -201321.526214 kJ/mol
# GULP energy per Si atom -5592.264617 kJ/mol
# Density = 2.054356 g / cm^3
# Si number density = 20.590423 Si / 1000 Ang^3
#
#
#
# Elastic Constant Matrix: (Units=GPa)
#
#
# Indices 1 2 3 4 5 6 
#
# 1 104.7955 65.2053 29.5409 0.0000 0.0000 0.0000
# 2 65.2053 179.0670 28.0640 0.0000 0.0000 0.0000
# 3 29.5409 28.0640 138.9475 0.0000 0.0000 0.0000
# 4 0.0000 0.0000 0.0000 24.2630 0.0000 0.0000
# 5 0.0000 0.0000 0.0000 0.0000 22.5952 0.0000
# 6 0.0000 0.0000 0.0000 0.0000 0.0000 41.3857
#
#
#
# Elastic Compliance Matrix: (Units=1/GPa)
#
#
# Indices 1 2 3 4 5 6 
#
# 1 0.012775 -0.004364 -0.001835 0.000000 0.000000 0.000000
# 2 -0.004364 0.007258 -0.000538 0.000000 0.000000 0.000000
# 3 -0.001835 -0.000538 0.007696 0.000000 0.000000 0.000000
# 4 0.000000 0.000000 0.000000 0.041215 0.000000 0.000000
# 5 0.000000 0.000000 0.000000 0.000000 0.044257 0.000000
# 6 0.000000 0.000000 0.000000 0.000000 0.000000 0.024163
#
#
# Mechanical properties :
#
#
# Convention : Reuss Voigt Hill
#
# Bulk Modulus (GPa) = 70.15158 74.27004 72.21081
# Shear Modulus (GPa) = 32.13577 37.64874 34.89226
#
# Velocity S-wave (km/s) = 3.95487 4.28069 4.12100
# Velocity P-wave (km/s) = 7.41611 7.78337 7.60196
#
# Compressibility (1/GPa) = 0.01425485
#
# Stress axis : x y z
#
# Youngs Moduli (GPa) = 78.27704 137.77745 129.94311
#
# Poissons Ratio (x) = 0.60132 0.23839
# Poissons Ratio (y) = 0.34163 0.06992
# Poissons Ratio (z) = 0.14360 0.07413
#
# Static dielectric constant tensor:
#      x y z
#    x 1.744810 0.000000 0.000000 
#    y 0.000000 1.758200 0.000000 
#    z 0.000000 0.000000 1.742090 
# 
# From -- ./inp_files/10020.got.cif
#   From: 2010.05.17/outbox.cif.g08.bks.cpg/sg66_6_cif.got.tgz:10020.got - 2010.06.03 17:51:23.
