data_PCOD9498850
_publ_section_title
;
Structure prediction by ZEFSAII (Michael W. Deem and Ramdas Pophale) SiO2 
 PCOD9498850
Probable space group: C C C M
;
_chemical_formula_sum "Si O2"
_cell_formula_units_Z 52
_cell_length_a 5.302072
_cell_length_b 30.730374
_cell_length_c 14.814385
_cell_angle_alpha 90.000000
_cell_angle_beta 90.000000
_cell_angle_gamma 90.000000
_cell_volume 2413.776717
_symmetry_space_group_name_H-M "C C C M"
_symmetry_group_IT_number 66
_symmetry_cell_setting 'orthorhombic'
loop_
_space_group_symop_operation_xyz
x,y,z
-x,-y,z
x,-y,1/2-z
-x,y,1/2-z
-x,-y,-z
x,y,-z
-x,y,1/2+z
x,-y,1/2+z
1/2+x,1/2+y,z
1/2-x,1/2-y,z
1/2+x,1/2-y,1/2-z
1/2-x,1/2+y,1/2-z
1/2-x,1/2-y,-z
1/2+x,1/2+y,-z
1/2-x,1/2+y,1/2+z
1/2+x,1/2-y,1/2+z
loop_
_atom_site_type_symbol
_atom_site_label
_atom_site_fract_x
_atom_site_fract_y
_atom_site_fract_z
Si Si1 0.251051 0.024798 0.608538
Si Si2 0.751057 0.380112 0.189192
Si Si3 0.570411 0.709769 0.355865
Si Si4 0.750000 0.750000 0.000000
O O1 0.248920 0.022551 0.500000
O O2 0.263888 0.074952 0.635925
O O3 0.500000 0.000000 0.641321
O O4 0.000000 0.000000 0.640949
O O5 0.500000 0.382920 0.250000
O O6 0.710956 0.336026 0.132528
O O7 0.000000 0.375166 0.250000
O O8 0.500000 0.714119 0.250000
O O9 0.750000 0.750000 0.382776
O O10 0.332930 0.715065 0.420358
#
# Coordination Sequence:
#
# PCOD9498850 Si02
#       4
#    16  16  16   4
#     4  10  22  42  64  96 136 179 227 289 348 418
#     4  11  25  42  69 100 134 183 228 292 359 413
#     4  11  24  46  69 101 147 179 242 301 354 434
#     4  12  26  44  76 104 128 214 226 284 386 430
#
# _framework density 21.543005999999998
#
# number of rings (size 3 to 8) (size 9 to 14) (size 15 to 20)
#    0.000    1.231    1.538    3.231    6.462    3.692 
#    0.000    0.000    0.000    0.000    0.000    0.000 
#    0.000    0.000    0.000    0.000    0.000    0.000 
#
# Total GULP energy -144894.315226 kJ/mol
# GULP energy per Si atom -5572.858278 kJ/mol
# Density = 2.149397 g / cm^3
# Si number density = 21.543006 Si / 1000 Ang^3
#
#
#
# Elastic Constant Matrix: (Units=GPa)
#
#
# Indices 1 2 3 4 5 6 
#
# 1 143.9569 70.9786 25.7856 0.0000 0.0000 0.0000
# 2 70.9786 222.4474 27.5539 0.0000 0.0000 0.0000
# 3 25.7856 27.5539 104.4929 0.0000 0.0000 0.0000
# 4 0.0000 0.0000 0.0000 -536.2816 0.0000 0.0000
# 5 0.0000 0.0000 0.0000 0.0000 -37.4155 0.0000
# 6 0.0000 0.0000 0.0000 0.0000 0.0000 45.6614
#
#
#
# Elastic Compliance Matrix: (Units=1/GPa)
#
#
# Indices 1 2 3 4 5 6 
#
# 1 0.008442 -0.002518 -0.001419 0.000000 0.000000 0.000000
# 2 -0.002518 0.005398 -0.000802 0.000000 0.000000 0.000000
# 3 -0.001419 -0.000802 0.010132 0.000000 0.000000 0.000000
# 4 0.000000 0.000000 0.000000 -0.001865 0.000000 0.000000
# 5 0.000000 0.000000 0.000000 0.000000 -0.026727 0.000000
# 6 0.000000 0.000000 0.000000 0.000000 0.000000 0.021900
#
#
# Mechanical properties :
#
#
# Convention : Reuss Voigt Hill
#
# Bulk Modulus (GPa) = 68.99653 79.94814 74.47233
# Shear Modulus (GPa) = 158.27319 -82.50186 37.88566
#
# Velocity S-wave (km/s) = 8.58067 -6.19512 4.19812
# Velocity P-wave (km/s) = 11.41348 3.73914 7.62517
#
# Compressibility (1/GPa) = 0.01449348
#
# Stress axis : x y z
#
# Youngs Moduli (GPa) = 118.45200 185.24602 98.69934
#
# Poissons Ratio (x) = 0.46644 0.14009
# Poissons Ratio (y) = 0.29826 0.07917
# Poissons Ratio (z) = 0.16812 0.14859
#
# Static dielectric constant tensor:
#      x y z
#    x 1.839040 0.000000 0.000000 
#    y 0.000000 1.759900 0.000000 
#    z 0.000000 0.000000 1.776280 
# 
# From -- ./inp_files/22463.got.cif
#   From: 2010.05.17/outbox.cif.g08.bks.cpg/sg66_12_cif.got.tgz:22463.got - 2010.06.03 17:51:23.
