data_PCOD9498364
_publ_section_title
;
Structure prediction by ZEFSAII (Michael W. Deem and Ramdas Pophale) SiO2 
 PCOD9498364
Probable space group: C C C M
;
_chemical_formula_sum "Si O2"
_cell_formula_units_Z 52
_cell_length_a 12.182878
_cell_length_b 7.513866
_cell_length_c 24.880573
_cell_angle_alpha 90.000000
_cell_angle_beta 90.000000
_cell_angle_gamma 90.000000
_cell_volume 2277.580411
_symmetry_space_group_name_H-M "C C C M"
_symmetry_group_IT_number 66
_symmetry_cell_setting 'orthorhombic'
loop_
_space_group_symop_operation_xyz
x,y,z
-x,-y,z
x,-y,1/2-z
-x,y,1/2-z
-x,-y,-z
x,y,-z
-x,y,1/2+z
x,-y,1/2+z
1/2+x,1/2+y,z
1/2-x,1/2-y,z
1/2+x,1/2-y,1/2-z
1/2-x,1/2+y,1/2-z
1/2-x,1/2-y,-z
1/2+x,1/2+y,-z
1/2-x,1/2+y,1/2+z
1/2+x,1/2-y,1/2+z
loop_
_atom_site_type_symbol
_atom_site_label
_atom_site_fract_x
_atom_site_fract_y
_atom_site_fract_z
Si Si1 0.923054 0.231325 0.343570
Si Si2 0.806024 0.058232 0.441344
Si Si3 0.500000 0.500000 0.250000
Si Si4 0.335401 0.110132 0.358502
O O1 0.887163 0.100935 0.391939
O O2 0.848319 0.408228 0.336861
O O3 0.955212 0.304198 0.143181
O O4 0.928645 0.122882 0.288880
O O5 0.849599 0.003737 0.500000
O O6 0.750000 0.250000 0.447718
O O7 0.712823 0.928256 0.418020
O O8 0.250000 0.250000 0.332797
#
# Coordination Sequence:
#
# PCOD9498364 Si02
#       4
#    16  16   4  16
#     4  10  23  42  65  94 131 173 220 278 333 390
#     4   9  19  39  66  96 131 171 218 271 332 403
#     4  12  24  46  70  92 132 180 232 284 332 400
#     4  10  21  40  64  96 131 167 217 271 336 407
#
# _framework density 22.831246
#
# number of rings (size 3 to 8) (size 9 to 14) (size 15 to 20)
#    0.000    2.154    0.000    1.846    0.000    4.308 
#    0.000   34.615    0.000    0.000    0.000    0.000 
#    0.000    0.000    0.000    0.000    0.000    0.000 
#
# Total GULP energy -145077.210202 kJ/mol
# GULP energy per Si atom -5579.892700 kJ/mol
# Density = 2.277928 g / cm^3
# Si number density = 22.831246 Si / 1000 Ang^3
#
#
#
# Elastic Constant Matrix: (Units=GPa)
#
#
# Indices 1 2 3 4 5 6 
#
# 1 94.3478 38.4600 51.2543 0.0000 0.0000 0.0000
# 2 38.4600 126.3805 71.6570 0.0000 0.0000 0.0000
# 3 51.2543 71.6570 183.7433 0.0000 0.0000 0.0000
# 4 0.0000 0.0000 0.0000 145.4956 0.0000 0.0000
# 5 0.0000 0.0000 0.0000 0.0000 30.2442 0.0000
# 6 0.0000 0.0000 0.0000 0.0000 0.0000 42.7682
#
#
#
# Elastic Compliance Matrix: (Units=1/GPa)
#
#
# Indices 1 2 3 4 5 6 
#
# 1 0.013057 -0.002450 -0.002687 0.000000 0.000000 0.000000
# 2 -0.002450 0.010619 -0.003458 0.000000 0.000000 0.000000
# 3 -0.002687 -0.003458 0.007540 0.000000 0.000000 0.000000
# 4 0.000000 0.000000 0.000000 0.006873 0.000000 0.000000
# 5 0.000000 0.000000 0.000000 0.000000 0.033064 0.000000
# 6 0.000000 0.000000 0.000000 0.000000 0.000000 0.023382
#
#
# Mechanical properties :
#
#
# Convention : Reuss Voigt Hill
#
# Bulk Modulus (GPa) = 71.29036 80.80159 76.04598
# Shear Modulus (GPa) = 42.95504 59.90827 51.43166
#
# Velocity S-wave (km/s) = 4.34223 5.12802 4.75140
# Velocity P-wave (km/s) = 7.51217 8.39820 7.96751
#
# Compressibility (1/GPa) = 0.01402714
#
# Stress axis : x y z
#
# Youngs Moduli (GPa) = 76.58436 94.17306 132.62130
#
# Poissons Ratio (x) = 0.23075 0.35632
# Poissons Ratio (y) = 0.18765 0.45856
# Poissons Ratio (z) = 0.20576 0.32562
#
# Static dielectric constant tensor:
#      x y z
#    x 1.897090 0.000000 0.000000 
#    y 0.000000 1.929970 0.000000 
#    z 0.000000 0.000000 1.842410 
# 
# From -- ./inp_files/35968.got.cif
#   From: 2010.05.17/outbox.cif.g08.bks.cpg/sg66_18_cif.got.tgz:35968.got - 2010.06.03 17:51:23.
