data_PCOD9498631
_publ_section_title
;
Structure prediction by ZEFSAII (Michael W. Deem and Ramdas Pophale) SiO2 
 PCOD9498631
Probable space group: C C C M
;
_chemical_formula_sum "Si O2"
_cell_formula_units_Z 96
_cell_length_a 14.429008
_cell_length_b 22.686618
_cell_length_c 13.735519
_cell_angle_alpha 90.000000
_cell_angle_beta 90.000000
_cell_angle_gamma 90.000000
_cell_volume 4496.258860
_symmetry_space_group_name_H-M "C C C M"
_symmetry_group_IT_number 66
_symmetry_cell_setting 'orthorhombic'
loop_
_space_group_symop_operation_xyz
x,y,z
-x,-y,z
x,-y,1/2-z
-x,y,1/2-z
-x,-y,-z
x,y,-z
-x,y,1/2+z
x,-y,1/2+z
1/2+x,1/2+y,z
1/2-x,1/2-y,z
1/2+x,1/2-y,1/2-z
1/2-x,1/2+y,1/2-z
1/2-x,1/2-y,-z
1/2+x,1/2+y,-z
1/2-x,1/2+y,1/2+z
1/2+x,1/2-y,1/2+z
loop_
_atom_site_type_symbol
_atom_site_label
_atom_site_fract_x
_atom_site_fract_y
_atom_site_fract_z
Si Si1 0.846218 0.492681 0.113877
Si Si2 0.149602 0.277809 0.794477
Si Si3 0.899678 0.597080 0.224875
Si Si4 0.860718 0.020903 0.382712
Si Si5 0.029867 0.904132 0.882086
Si Si6 0.540909 0.731627 0.384216
O O1 0.914199 0.545030 0.146550
O O2 0.860870 0.435624 0.179831
O O3 0.746668 0.521258 0.140916
O O4 0.850055 0.480019 0.000000
O O5 0.250000 0.250000 0.811410
O O6 0.158289 0.347792 0.811043
O O7 0.113618 0.266347 0.683666
O O8 0.064310 0.251898 0.858492
O O9 0.000000 0.622463 0.250000
O O10 0.865818 0.021501 0.500000
O O11 0.902611 0.957625 0.352207
O O12 0.927736 0.073756 0.351086
O O13 0.050889 0.837386 0.854698
O O14 0.031987 0.903791 0.000000
O O15 0.556667 0.738274 0.500000
#
# Coordination Sequence:
#
# PCOD9498631 Si02
#       6
#    16  16  16  16  16  16
#     4  10  22  38  66  92 116 158 206 258 316 367
#     4  11  26  45  64  94 135 169 212 271 321 377
#     4  11  24  45  59  86 125 154 206 264 311 377
#     4   8  15  30  53  91 125 151 188 246 305 361
#     4   8  15  30  56  87 126 155 190 244 300 371
#     4  10  22  43  68  94 124 171 220 260 318 388
#
# _framework density 21.351085000000001
#
# number of rings (size 3 to 8) (size 9 to 14) (size 15 to 20)
#    0.000    2.333    1.667    2.000    4.667    3.333 
#    0.000    0.000    0.000    8.000    0.000    0.000 
#    0.000    0.000    0.000    0.000    0.000    0.000 
#
# Total GULP energy -267959.554370 kJ/mol
# GULP energy per Si atom -5582.490716 kJ/mol
# Density = 2.130249 g / cm^3
# Si number density = 21.351085 Si / 1000 Ang^3
#
#
#
# Elastic Constant Matrix: (Units=GPa)
#
#
# Indices 1 2 3 4 5 6 
#
# 1 50.0392 -1.2602 -29.2629 0.0000 0.0000 0.0000
# 2 -1.2602 109.5210 -15.8253 0.0000 0.0000 0.0000
# 3 -29.2629 -15.8253 73.4353 0.0000 0.0000 0.0000
# 4 0.0000 0.0000 0.0000 12.8242 0.0000 0.0000
# 5 0.0000 0.0000 0.0000 0.0000 -23.1872 0.0000
# 6 0.0000 0.0000 0.0000 0.0000 0.0000 24.4459
#
#
#
# Elastic Compliance Matrix: (Units=1/GPa)
#
#
# Indices 1 2 3 4 5 6 
#
# 1 0.026428 0.001884 0.010937 0.000000 0.000000 0.000000
# 2 0.001884 0.009559 0.002811 0.000000 0.000000 0.000000
# 3 0.010937 0.002811 0.018581 0.000000 0.000000 0.000000
# 4 0.000000 0.000000 0.000000 0.077978 0.000000 0.000000
# 5 0.000000 0.000000 0.000000 0.000000 -0.043127 0.000000
# 6 0.000000 0.000000 0.000000 0.000000 0.000000 0.040907
#
#
# Mechanical properties :
#
#
# Convention : Reuss Voigt Hill
#
# Bulk Modulus (GPa) = 11.65054 15.58874 13.61964
# Shear Modulus (GPa) = 39.16310 21.43948 30.30129
#
# Velocity S-wave (km/s) = 4.28745 3.17225 3.77130
# Velocity P-wave (km/s) = 5.47523 4.55353 5.03551
#
# Compressibility (1/GPa) = 0.08583290
#
# Stress axis : x y z
#
# Youngs Moduli (GPa) = 37.83880 104.61892 53.81700
#
# Poissons Ratio (x) = -0.19715 -0.58861
# Poissons Ratio (y) = -0.07131 -0.15127
# Poissons Ratio (z) = -0.41385 -0.29406
#
# Static dielectric constant tensor:
#      x y z
#    x 1.798840 0.000000 0.000000 
#    y 0.000000 1.749600 0.000000 
#    z 0.000000 0.000000 1.791400 
# 
# From -- ./inp_files/28350.got.cif
#   From: 2010.05.17/outbox.cif.g08.bks.cpg/sg66_15_cif.got.tgz:28350.got - 2010.06.03 17:51:23.
