data_PCOD9498344
_publ_section_title
;
Structure prediction by ZEFSAII (Michael W. Deem and Ramdas Pophale) SiO2 
 PCOD9498344
Probable space group: C C C M
;
_chemical_formula_sum "Si O2"
_cell_formula_units_Z 64
_cell_length_a 7.963857
_cell_length_b 26.576504
_cell_length_c 14.321428
_cell_angle_alpha 90.000000
_cell_angle_beta 90.000000
_cell_angle_gamma 90.000000
_cell_volume 3031.151395
_symmetry_space_group_name_H-M "C C C M"
_symmetry_group_IT_number 66
_symmetry_cell_setting 'orthorhombic'
loop_
_space_group_symop_operation_xyz
x,y,z
-x,-y,z
x,-y,1/2-z
-x,y,1/2-z
-x,-y,-z
x,y,-z
-x,y,1/2+z
x,-y,1/2+z
1/2+x,1/2+y,z
1/2-x,1/2-y,z
1/2+x,1/2-y,1/2-z
1/2-x,1/2+y,1/2-z
1/2-x,1/2-y,-z
1/2+x,1/2+y,-z
1/2-x,1/2+y,1/2+z
1/2+x,1/2-y,1/2+z
loop_
_atom_site_type_symbol
_atom_site_label
_atom_site_fract_x
_atom_site_fract_y
_atom_site_fract_z
Si Si1 0.866497 0.551967 0.500000
Si Si2 0.188897 0.016003 0.141612
Si Si3 0.266803 0.100399 0.000000
Si Si4 0.568403 0.777172 0.648508
Si Si5 0.785934 0.345716 0.000000
Si Si6 0.576062 0.294442 0.500000
O O1 0.825878 0.517123 0.412814
O O2 0.734611 0.596848 0.500000
O O3 0.037149 0.583852 0.500000
O O4 0.204860 0.071829 0.095501
O O5 0.208119 0.000000 0.250000
O O6 0.000000 0.000000 0.116288
O O7 0.207072 0.158906 0.000000
O O8 0.500000 0.788049 0.750000
O O9 0.750000 0.750000 0.655718
O O10 0.609159 0.826778 0.588990
O O11 0.438218 0.742246 0.590177
O O12 0.609982 0.317555 0.000000
#
# Coordination Sequence:
#
# PCOD9498344 Si02
#       6
#     8  16   8  16   8   8
#     4  11  22  37  59  88 123 157 191 252 303 351
#     4  10  21  40  63  85 117 158 199 246 297 359
#     4  11  22  37  59  88 121 155 197 246 303 354
#     4   9  19  37  60  84 118 156 197 253 301 352
#     4   9  19  39  59  80 118 161 197 239 304 359
#     4   9  19  39  59  82 118 161 201 239 294 372
#
# _framework density 21.114089
#
# number of rings (size 3 to 8) (size 9 to 14) (size 15 to 20)
#    0.000    2.250    0.000    6.000    0.000    4.000 
#   18.000    2.500    0.000    0.000    0.000    0.000 
#    0.000    0.000    0.000    0.000    0.000    0.000 
#
# Total GULP energy -178251.253231 kJ/mol
# GULP energy per Si atom -5570.351663 kJ/mol
# Density = 2.106603 g / cm^3
# Si number density = 21.114089 Si / 1000 Ang^3
#
#
#
# Elastic Constant Matrix: (Units=GPa)
#
#
# Indices 1 2 3 4 5 6 
#
# 1 115.5770 24.6874 38.9700 0.0000 0.0000 0.0000
# 2 24.6874 106.4884 33.5974 0.0000 0.0000 0.0000
# 3 38.9700 33.5974 140.4363 0.0000 0.0000 0.0000
# 4 0.0000 0.0000 0.0000 2.5090 0.0000 0.0000
# 5 0.0000 0.0000 0.0000 0.0000 210.9249 0.0000
# 6 0.0000 0.0000 0.0000 0.0000 0.0000 39.9598
#
#
#
# Elastic Compliance Matrix: (Units=1/GPa)
#
#
# Indices 1 2 3 4 5 6 
#
# 1 0.009769 -0.001525 -0.002346 0.000000 0.000000 0.000000
# 2 -0.001525 0.010395 -0.002064 0.000000 0.000000 0.000000
# 3 -0.002346 -0.002064 0.008265 0.000000 0.000000 0.000000
# 4 0.000000 0.000000 0.000000 0.398566 0.000000 0.000000
# 5 0.000000 0.000000 0.000000 0.000000 0.004741 0.000000
# 6 0.000000 0.000000 0.000000 0.000000 0.000000 0.025025
#
#
# Mechanical properties :
#
#
# Convention : Reuss Voigt Hill
#
# Bulk Modulus (GPa) = 60.38411 61.89015 61.13713
# Shear Modulus (GPa) = 10.54517 68.36186 39.45352
#
# Velocity S-wave (km/s) = 2.23723 5.69628 4.32741
# Velocity P-wave (km/s) = 5.94430 8.52288 7.34759
#
# Compressibility (1/GPa) = 0.01656065
#
# Stress axis : x y z
#
# Youngs Moduli (GPa) = 102.36533 96.19737 120.98576
#
# Poissons Ratio (x) = 0.14666 0.28384
# Poissons Ratio (y) = 0.15606 0.24970
# Poissons Ratio (z) = 0.24016 0.19854
#
# Static dielectric constant tensor:
#      x y z
#    x 1.831470 0.000000 0.000000 
#    y 0.000000 1.783820 0.000000 
#    z 0.000000 0.000000 1.754680 
# 
# From -- ./inp_files/24418.got.cif
#   From: 2010.05.17/outbox.cif.g08.bks.cpg/sg66_13_cif.got.tgz:24418.got - 2010.06.03 17:51:23.
