data_PCOD9498552
_publ_section_title
;
Structure prediction by ZEFSAII (Michael W. Deem and Ramdas Pophale) SiO2 
 PCOD9498552
Probable space group: C C C M
;
_chemical_formula_sum "Si O2"
_cell_formula_units_Z 104
_cell_length_a 12.959792
_cell_length_b 20.248380
_cell_length_c 19.196657
_cell_angle_alpha 90.000000
_cell_angle_beta 90.000000
_cell_angle_gamma 90.000000
_cell_volume 5037.486776
_symmetry_space_group_name_H-M "C C C M"
_symmetry_group_IT_number 66
_symmetry_cell_setting 'orthorhombic'
loop_
_space_group_symop_operation_xyz
x,y,z
-x,-y,z
x,-y,1/2-z
-x,y,1/2-z
-x,-y,-z
x,y,-z
-x,y,1/2+z
x,-y,1/2+z
1/2+x,1/2+y,z
1/2-x,1/2-y,z
1/2+x,1/2-y,1/2-z
1/2-x,1/2+y,1/2-z
1/2-x,1/2-y,-z
1/2+x,1/2+y,-z
1/2-x,1/2+y,1/2+z
1/2+x,1/2-y,1/2+z
loop_
_atom_site_type_symbol
_atom_site_label
_atom_site_fract_x
_atom_site_fract_y
_atom_site_fract_z
Si Si1 0.492711 0.616242 0.415349
Si Si2 0.205535 0.051942 0.419877
Si Si3 0.965255 0.264809 0.387475
Si Si4 0.179301 0.686752 0.893338
Si Si5 0.761350 0.084652 0.624664
Si Si6 0.323429 0.187971 0.226705
Si Si7 0.326102 0.823282 0.500000
O O1 0.491397 0.621520 0.500000
O O2 0.590233 0.571398 0.396018
O O3 0.502733 0.689594 0.383774
O O4 0.383732 0.590207 0.388747
O O5 0.197228 0.028673 0.500000
O O6 0.268710 0.119768 0.418009
O O7 0.259183 0.993328 0.377699
O O8 0.927614 0.295080 0.314929
O O9 0.869514 0.271067 0.439970
O O10 0.062058 0.304654 0.418332
O O11 0.250000 0.750000 0.912484
O O12 0.170491 0.684684 0.809479
O O13 0.725960 0.122169 0.694012
O O14 0.707816 0.124523 0.561621
O O15 0.250000 0.250000 0.209824
#
# Coordination Sequence:
#
# PCOD9498552 Si02
#       7
#    16  16  16  16  16  16   8
#     4  11  20  34  62  96 131 156 194 253 317 371
#     4  11  24  40  62  92 128 166 200 249 311 376
#     4  11  21  37  62  96 120 154 209 258 308 354
#     4  11  24  42  61  86 123 166 212 250 301 366
#     4  11  21  40  62  94 127 159 201 251 316 368
#     4  10  22  39  65  90 122 163 203 260 301 359
#     4  10  22  35  61  94 122 159 204 261 306 360
#
# _framework density 20.645216000000001
#
# number of rings (size 3 to 8) (size 9 to 14) (size 15 to 20)
#    0.000    1.231    5.385    0.923    1.077    2.769 
#    0.000    4.615    0.000    5.538    0.000    0.000 
#    0.000    0.000    0.000    0.000    0.000    0.000 
#
# Total GULP energy -289604.869899 kJ/mol
# GULP energy per Si atom -5569.324421 kJ/mol
# Density = 2.059823 g / cm^3
# Si number density = 20.645216 Si / 1000 Ang^3
#
#
#
# Elastic Constant Matrix: (Units=GPa)
#
#
# Indices 1 2 3 4 5 6 
#
# 1 48.1959 10.3348 7.1345 0.0000 0.0000 0.0000
# 2 10.3348 130.0305 9.8152 0.0000 0.0000 0.0000
# 3 7.1345 9.8152 74.6572 0.0000 0.0000 0.0000
# 4 0.0000 0.0000 0.0000 23.9625 0.0000 0.0000
# 5 0.0000 0.0000 0.0000 0.0000 -60.5257 0.0000
# 6 0.0000 0.0000 0.0000 0.0000 0.0000 29.5875
#
#
#
# Elastic Compliance Matrix: (Units=1/GPa)
#
#
# Indices 1 2 3 4 5 6 
#
# 1 0.021355 -0.001559 -0.001836 0.000000 0.000000 0.000000
# 2 -0.001559 0.007881 -0.000887 0.000000 0.000000 0.000000
# 3 -0.001836 -0.000887 0.013687 0.000000 0.000000 0.000000
# 4 0.000000 0.000000 0.000000 0.041732 0.000000 0.000000
# 5 0.000000 0.000000 0.000000 0.000000 -0.016522 0.000000
# 6 0.000000 0.000000 0.000000 0.000000 0.000000 0.033798
#
#
# Mechanical properties :
#
#
# Convention : Reuss Voigt Hill
#
# Bulk Modulus (GPa) = 29.10425 34.16139 31.63282
# Shear Modulus (GPa) = 41.00135 13.64479 27.32307
#
# Velocity S-wave (km/s) = 4.46129 2.57362 3.64188
# Velocity P-wave (km/s) = 6.37694 5.04125 5.74802
#
# Compressibility (1/GPa) = 0.03435924
#
# Stress axis : x y z
#
# Youngs Moduli (GPa) = 46.82821 126.88171 73.06401
#
# Poissons Ratio (x) = 0.19777 0.13413
# Poissons Ratio (y) = 0.07299 0.06482
# Poissons Ratio (z) = 0.08597 0.11257
#
# Static dielectric constant tensor:
#      x y z
#    x 1.809820 0.000000 0.000000 
#    y 0.000000 1.744420 0.000000 
#    z 0.000000 0.000000 1.719000 
# 
# From -- ./inp_files/50060.got.cif
#   From: 2010.05.17/outbox.cif.g08.bks.cpg/sg66_26_cif.got.tgz:50060.got - 2010.06.03 17:51:23.
