data_PCOD9498931
_publ_section_title
;
Structure prediction by ZEFSAII (Michael W. Deem and Ramdas Pophale) SiO2 
 PCOD9498931
Probable space group: C C C M
;
_chemical_formula_sum "Si O2"
_cell_formula_units_Z 64
_cell_length_a 11.925981
_cell_length_b 8.465271
_cell_length_c 25.038781
_cell_angle_alpha 90.000000
_cell_angle_beta 90.000000
_cell_angle_gamma 90.000000
_cell_volume 2527.831728
_symmetry_space_group_name_H-M "C C C M"
_symmetry_group_IT_number 66
_symmetry_cell_setting 'orthorhombic'
loop_
_space_group_symop_operation_xyz
x,y,z
-x,-y,z
x,-y,1/2-z
-x,y,1/2-z
-x,-y,-z
x,y,-z
-x,y,1/2+z
x,-y,1/2+z
1/2+x,1/2+y,z
1/2-x,1/2-y,z
1/2+x,1/2-y,1/2-z
1/2-x,1/2+y,1/2-z
1/2-x,1/2-y,-z
1/2+x,1/2+y,-z
1/2-x,1/2+y,1/2+z
1/2+x,1/2-y,1/2+z
loop_
_atom_site_type_symbol
_atom_site_label
_atom_site_fract_x
_atom_site_fract_y
_atom_site_fract_z
Si Si1 0.673347 0.897141 0.000000
Si Si2 0.429274 0.361319 0.194070
Si Si3 0.042968 0.821841 0.000000
Si Si4 0.611811 0.890779 0.589048
Si Si5 0.330174 0.035265 0.190726
O O1 0.750000 0.750000 0.000000
O O2 0.691768 0.002843 0.948230
O O3 0.552876 0.813518 0.000000
O O4 0.500000 0.500000 0.165100
O O5 0.500000 0.341337 0.250000
O O6 0.402592 0.187524 0.171236
O O7 0.301303 0.423761 0.197366
O O8 0.101301 0.771144 0.055938
O O9 0.000000 0.000000 0.000000
O O10 0.500000 0.000000 0.588846
O O11 0.654033 0.893139 0.649421
O O12 0.370505 0.000000 0.250000
#
# Coordination Sequence:
#
# PCOD9498931 Si02
#       5
#     8  16   8  16  16
#     4   9  19  39  72  90 136 188 249 305 371 471
#     4  10  22  44  65  97 148 198 257 313 362 460
#     4   9  19  45  78 100 147 196 249 338 392 455
#     4   9  21  40  66 108 140 192 258 306 390 473
#     4  11  23  40  73 101 149 207 249 306 397 459
#
# _framework density 25.318141000000001
#
# number of rings (size 3 to 8) (size 9 to 14) (size 15 to 20)
#    0.000    2.250    2.500    1.500    7.000    0.000 
#    0.000    8.750   22.000    0.000    0.000    2.625 
#    0.000    0.000    0.000    0.000    0.000    0.000 
#
# Total GULP energy -178522.647895 kJ/mol
# GULP energy per Si atom -5578.832747 kJ/mol
# Density = 2.526052 g / cm^3
# Si number density = 25.318141 Si / 1000 Ang^3
#
#
#
# Elastic Constant Matrix: (Units=GPa)
#
#
# Indices 1 2 3 4 5 6 
#
# 1 128.0068 53.6886 28.7621 0.0000 0.0000 0.0000
# 2 53.6886 173.7233 72.0518 0.0000 0.0000 0.0000
# 3 28.7621 72.0518 174.8726 0.0000 0.0000 0.0000
# 4 0.0000 0.0000 0.0000 -1.6987 0.0000 0.0000
# 5 0.0000 0.0000 0.0000 0.0000 -89.3949 0.0000
# 6 0.0000 0.0000 0.0000 0.0000 0.0000 54.7731
#
#
#
# Elastic Compliance Matrix: (Units=1/GPa)
#
#
# Indices 1 2 3 4 5 6 
#
# 1 0.008999 -0.002614 -0.000403 0.000000 0.000000 0.000000
# 2 -0.002614 0.007702 -0.002743 0.000000 0.000000 0.000000
# 3 -0.000403 -0.002743 0.006915 0.000000 0.000000 0.000000
# 4 0.000000 0.000000 0.000000 -0.588685 0.000000 0.000000
# 5 0.000000 0.000000 0.000000 0.000000 -0.011186 0.000000
# 6 0.000000 0.000000 0.000000 0.000000 0.000000 0.018257
#
#
# Mechanical properties :
#
#
# Convention : Reuss Voigt Hill
#
# Bulk Modulus (GPa) = 82.67823 87.28973 84.98398
# Shear Modulus (GPa) = -9.21752 14.20924 2.49586
#
# Velocity S-wave (km/s) = -1.91013 2.37159 0.99395
# Velocity P-wave (km/s) = 5.27843 6.48470 5.91241
#
# Compressibility (1/GPa) = 0.01209508
#
# Stress axis : x y z
#
# Youngs Moduli (GPa) = 111.12360 129.83712 144.61053
#
# Poissons Ratio (x) = 0.33938 0.05829
# Poissons Ratio (y) = 0.29047 0.39673
# Poissons Ratio (z) = 0.04479 0.35620
#
# Static dielectric constant tensor:
#      x y z
#    x 1.883450 0.000000 0.000000 
#    y 0.000000 2.014270 0.000000 
#    z 0.000000 0.000000 2.040860 
# 
# From -- ./inp_files/68611.got.cif
#   From: 2010.05.17/outbox.cif.g08.bks.cpg/sg66_35_cif.got.tgz:68611.got - 2010.06.03 17:51:23.
