data_PCOD9498262
_publ_section_title
;
Structure prediction by ZEFSAII (Michael W. Deem and Ramdas Pophale) SiO2 
 PCOD9498262
Probable space group: C C C M
;
_chemical_formula_sum "Si O2"
_cell_formula_units_Z 48
_cell_length_a 16.416859
_cell_length_b 4.951527
_cell_length_c 25.472645
_cell_angle_alpha 90.000000
_cell_angle_beta 90.000000
_cell_angle_gamma 90.000000
_cell_volume 2070.633628
_symmetry_space_group_name_H-M "C C C M"
_symmetry_group_IT_number 66
_symmetry_cell_setting 'orthorhombic'
loop_
_space_group_symop_operation_xyz
x,y,z
-x,-y,z
x,-y,1/2-z
-x,y,1/2-z
-x,-y,-z
x,y,-z
-x,y,1/2+z
x,-y,1/2+z
1/2+x,1/2+y,z
1/2-x,1/2-y,z
1/2+x,1/2-y,1/2-z
1/2-x,1/2+y,1/2-z
1/2-x,1/2-y,-z
1/2+x,1/2+y,-z
1/2-x,1/2+y,1/2+z
1/2+x,1/2-y,1/2+z
loop_
_atom_site_type_symbol
_atom_site_label
_atom_site_fract_x
_atom_site_fract_y
_atom_site_fract_z
Si Si1 0.910371 0.413615 0.106368
Si Si2 0.156488 0.750484 0.788465
Si Si3 0.838474 0.112331 0.442152
O O1 0.905752 0.285545 0.163881
O O2 0.870739 0.708820 0.105713
O O3 0.000000 0.500000 0.087618
O O4 0.858892 0.200225 0.070859
O O5 0.150959 0.500000 0.750000
O O6 0.250000 0.750000 0.810604
O O7 0.144323 0.000000 0.750000
O O8 0.876842 0.162522 0.500000
O O9 0.750000 0.250000 0.446829
#
# Coordination Sequence:
#
# PCOD9498262 Si02
#       3
#    16  16  16
#     4  12  25  41  64  97 134 169 212 275 343 400
#     4  10  21  39  64  90 119 163 216 265 317 388
#     4  11  24  43  67  93 126 173 224 271 326 401
#
# _framework density 23.181308999999999
#
# number of rings (size 3 to 8) (size 9 to 14) (size 15 to 20)
#    0.000    1.000    0.000    7.000    0.000   10.000 
#    0.000    1.667    0.000    0.000    0.000    0.000 
#    0.000    0.000    0.000    0.000    0.000    0.000 
#
# Total GULP energy -133685.841735 kJ/mol
# GULP energy per Si atom -5570.243406 kJ/mol
# Density = 2.312855 g / cm^3
# Si number density = 23.181309 Si / 1000 Ang^3
#
#
#
# Elastic Constant Matrix: (Units=GPa)
#
#
# Indices 1 2 3 4 5 6 
#
# 1 55.6126 21.7831 3.9334 0.0000 0.0000 0.0000
# 2 21.7831 166.8546 19.3034 0.0000 0.0000 0.0000
# 3 3.9334 19.3034 67.4255 0.0000 0.0000 0.0000
# 4 0.0000 0.0000 0.0000 -3.9723 0.0000 0.0000
# 5 0.0000 0.0000 0.0000 0.0000 -18.9227 0.0000
# 6 0.0000 0.0000 0.0000 0.0000 0.0000 28.7540
#
#
#
# Elastic Compliance Matrix: (Units=1/GPa)
#
#
# Indices 1 2 3 4 5 6 
#
# 1 0.018962 -0.002428 -0.000411 0.000000 0.000000 0.000000
# 2 -0.002428 0.006509 -0.001722 0.000000 0.000000 0.000000
# 3 -0.000411 -0.001722 0.015348 0.000000 0.000000 0.000000
# 4 0.000000 0.000000 0.000000 -0.251744 0.000000 0.000000
# 5 0.000000 0.000000 0.000000 0.000000 -0.052846 0.000000
# 6 0.000000 0.000000 0.000000 0.000000 0.000000 0.034778
#
#
# Mechanical properties :
#
#
# Convention : Reuss Voigt Hill
#
# Bulk Modulus (GPa) = 31.54842 42.21470 36.88156
# Shear Modulus (GPa) = -23.88843 17.49664 -3.19589
#
# Velocity S-wave (km/s) = -3.21363 2.75030 -1.17543
# Velocity P-wave (km/s) = 0.36182 5.32313 3.75531
#
# Compressibility (1/GPa) = 0.03169731
#
# Stress axis : x y z
#
# Youngs Moduli (GPa) = 52.73813 153.62350 65.15440
#
# Poissons Ratio (x) = 0.37298 0.02678
# Poissons Ratio (y) = 0.12804 0.11219
# Poissons Ratio (z) = 0.02168 0.26453
#
# Static dielectric constant tensor:
#      x y z
#    x 2.390290 0.000000 0.000000 
#    y 0.000000 1.806920 0.000000 
#    z 0.000000 0.000000 1.827310 
# 
# From -- ./inp_files/58482.got.cif
#   From: 2010.05.17/outbox.cif.g08.bks.cpg/sg66_30_cif.got.tgz:58482.got - 2010.06.03 17:51:23.
