data_PCOD9498396
_publ_section_title
;
Structure prediction by ZEFSAII (Michael W. Deem and Ramdas Pophale) SiO2 
 PCOD9498396
Probable space group: C C C M
;
_chemical_formula_sum "Si O2"
_cell_formula_units_Z 64
_cell_length_a 17.381061
_cell_length_b 9.860977
_cell_length_c 18.613898
_cell_angle_alpha 90.000000
_cell_angle_beta 90.000000
_cell_angle_gamma 90.000000
_cell_volume 3190.314952
_symmetry_space_group_name_H-M "C C C M"
_symmetry_group_IT_number 66
_symmetry_cell_setting 'orthorhombic'
loop_
_space_group_symop_operation_xyz
x,y,z
-x,-y,z
x,-y,1/2-z
-x,y,1/2-z
-x,-y,-z
x,y,-z
-x,y,1/2+z
x,-y,1/2+z
1/2+x,1/2+y,z
1/2-x,1/2-y,z
1/2+x,1/2-y,1/2-z
1/2-x,1/2+y,1/2-z
1/2-x,1/2-y,-z
1/2+x,1/2+y,-z
1/2-x,1/2+y,1/2+z
1/2+x,1/2-y,1/2+z
loop_
_atom_site_type_symbol
_atom_site_label
_atom_site_fract_x
_atom_site_fract_y
_atom_site_fract_z
Si Si1 0.085745 0.361639 0.716786
Si Si2 0.412404 0.481300 0.081505
Si Si3 0.337356 0.223147 0.418587
Si Si4 0.683423 0.639877 0.790983
O O1 0.119011 0.500000 0.750000
O O2 0.107756 0.365644 0.632600
O O3 0.124969 0.222861 0.741092
O O4 0.000000 0.355824 0.750000
O O5 0.500000 0.500000 0.107536
O O6 0.375909 0.629984 0.077483
O O7 0.360687 0.396484 0.135836
O O8 0.415142 0.424684 0.000000
O O9 0.330263 0.167859 0.500000
O O10 0.250000 0.250000 0.390643
O O11 0.704699 0.500000 0.750000
O O12 0.750000 0.750000 0.803987
#
# Coordination Sequence:
#
# PCOD9498396 Si02
#       4
#    16  16  16  16
#     4  11  24  41  63  96 133 171 221 279 330 392
#     4  10  22  41  66  96 128 169 220 270 326 397
#     4  10  21  40  67  92 126 176 220 262 326 404
#     4  12  25  39  65  95 133 171 217 274 331 388
#
# _framework density 20.060715999999999
#
# number of rings (size 3 to 8) (size 9 to 14) (size 15 to 20)
#    0.000    1.250    2.500    3.000    3.500    0.500 
#    0.000    3.750    0.000    0.000    0.000    0.000 
#    0.000    0.000    0.000    0.000    0.000    0.000 
#
# Total GULP energy -178482.162306 kJ/mol
# GULP energy per Si atom -5577.567572 kJ/mol
# Density = 2.001506 g / cm^3
# Si number density = 20.060716 Si / 1000 Ang^3
#
#
#
# Elastic Constant Matrix: (Units=GPa)
#
#
# Indices 1 2 3 4 5 6 
#
# 1 152.7444 44.3922 49.8536 0.0000 0.0000 0.0000
# 2 44.3922 107.8760 37.2950 0.0000 0.0000 0.0000
# 3 49.8536 37.2950 129.4048 0.0000 0.0000 0.0000
# 4 0.0000 0.0000 0.0000 79.5566 0.0000 0.0000
# 5 0.0000 0.0000 0.0000 0.0000 25.7331 0.0000
# 6 0.0000 0.0000 0.0000 0.0000 0.0000 19.4884
#
#
#
# Elastic Compliance Matrix: (Units=1/GPa)
#
#
# Indices 1 2 3 4 5 6 
#
# 1 0.008048 -0.002488 -0.002383 0.000000 0.000000 0.000000
# 2 -0.002488 0.011065 -0.002230 0.000000 0.000000 0.000000
# 3 -0.002383 -0.002230 0.009289 0.000000 0.000000 0.000000
# 4 0.000000 0.000000 0.000000 0.012570 0.000000 0.000000
# 5 0.000000 0.000000 0.000000 0.000000 0.038860 0.000000
# 6 0.000000 0.000000 0.000000 0.000000 0.000000 0.051313
#
#
# Mechanical properties :
#
#
# Convention : Reuss Voigt Hill
#
# Bulk Modulus (GPa) = 70.43283 72.56741 71.50012
# Shear Modulus (GPa) = 33.31554 42.18793 37.75173
#
# Velocity S-wave (km/s) = 4.07963 4.59084 4.34276
# Velocity P-wave (km/s) = 7.57478 8.02206 7.80163
#
# Compressibility (1/GPa) = 0.01419792
#
# Stress axis : x y z
#
# Youngs Moduli (GPa) = 124.25704 90.37695 107.65698
#
# Poissons Ratio (x) = 0.22484 0.25660
# Poissons Ratio (y) = 0.30912 0.24013
# Poissons Ratio (z) = 0.29616 0.20158
#
# Static dielectric constant tensor:
#      x y z
#    x 1.767550 0.000000 0.000000 
#    y 0.000000 1.664070 0.000000 
#    z 0.000000 0.000000 1.824440 
# 
# From -- ./inp_files/39801.got.cif
#   From: 2010.05.17/outbox.cif.g08.bks.cpg/sg66_20_cif.got.tgz:39801.got - 2010.06.03 17:51:23.
