data_PCOD9498473
_publ_section_title
;
Structure prediction by ZEFSAII (Michael W. Deem and Ramdas Pophale) SiO2 
 PCOD9498473
Probable space group: C C C M
;
_chemical_formula_sum "Si O2"
_cell_formula_units_Z 60
_cell_length_a 4.987922
_cell_length_b 25.470651
_cell_length_c 20.368016
_cell_angle_alpha 90.000000
_cell_angle_beta 90.000000
_cell_angle_gamma 90.000000
_cell_volume 2587.667231
_symmetry_space_group_name_H-M "C C C M"
_symmetry_group_IT_number 66
_symmetry_cell_setting 'orthorhombic'
loop_
_space_group_symop_operation_xyz
x,y,z
-x,-y,z
x,-y,1/2-z
-x,y,1/2-z
-x,-y,-z
x,y,-z
-x,y,1/2+z
x,-y,1/2+z
1/2+x,1/2+y,z
1/2-x,1/2-y,z
1/2+x,1/2-y,1/2-z
1/2-x,1/2+y,1/2-z
1/2-x,1/2-y,-z
1/2+x,1/2+y,-z
1/2-x,1/2+y,1/2+z
1/2+x,1/2-y,1/2+z
loop_
_atom_site_type_symbol
_atom_site_label
_atom_site_fract_x
_atom_site_fract_y
_atom_site_fract_z
Si Si1 0.301636 0.067274 0.357382
Si Si2 0.272295 0.640720 0.500000
Si Si3 0.000000 0.000000 0.750000
Si Si4 0.500000 0.280969 0.750000
Si Si5 0.304521 0.642398 0.641262
Si Si6 0.724585 0.936289 0.500000
O O1 0.588839 0.095409 0.348123
O O2 0.271517 0.037422 0.428026
O O3 0.092973 0.115005 0.361301
O O4 0.195227 0.032792 0.297713
O O5 0.247786 0.668306 0.570179
O O6 0.542926 0.606953 0.500000
O O7 0.047476 0.596147 0.500000
O O8 0.750000 0.250000 0.783178
O O9 0.666793 0.316184 0.698738
#
# Coordination Sequence:
#
# PCOD9498473 Si02
#       6
#    16   8   4   8  16   8
#     4  10  22  38  61  87 122 164 208 256 304 359
#     4   8  16  34  64  86 106 154 214 246 292 372
#     4  12  26  36  56  98 132 164 216 258 298 364
#     4  12  25  40  62  95 128 159 200 250 313 386
#     4  10  21  42  63  85 121 165 202 250 314 366
#     4   8  16  35  58  83 112 158 208 254 304 351
#
# _framework density 23.186904999999999
#
# number of rings (size 3 to 8) (size 9 to 14) (size 15 to 20)
#    0.000    2.133    0.000    2.400    0.000    5.867 
#    0.000    1.333    0.000    9.600    0.000    1.867 
#    0.000    0.000    0.000    0.000    0.000    0.000 
#
# Total GULP energy -167434.188680 kJ/mol
# GULP energy per Si atom -5581.139623 kJ/mol
# Density = 2.313413 g / cm^3
# Si number density = 23.186905 Si / 1000 Ang^3
#
#
#
# Elastic Constant Matrix: (Units=GPa)
#
#
# Indices 1 2 3 4 5 6 
#
# 1 115.2154 2.6924 4.9674 0.0000 0.0000 0.0000
# 2 2.6924 34.9756 48.0016 0.0000 0.0000 0.0000
# 3 4.9674 48.0016 219.7349 0.0000 0.0000 0.0000
# 4 0.0000 0.0000 0.0000 81.6013 0.0000 0.0000
# 5 0.0000 0.0000 0.0000 0.0000 -40.9413 0.0000
# 6 0.0000 0.0000 0.0000 0.0000 0.0000 22.6806
#
#
#
# Elastic Compliance Matrix: (Units=1/GPa)
#
#
# Indices 1 2 3 4 5 6 
#
# 1 0.008696 -0.000571 -0.000072 0.000000 0.000000 0.000000
# 2 -0.000571 0.040871 -0.008916 0.000000 0.000000 0.000000
# 3 -0.000072 -0.008916 0.006500 0.000000 0.000000 0.000000
# 4 0.000000 0.000000 0.000000 0.012255 0.000000 0.000000
# 5 0.000000 0.000000 0.000000 0.000000 -0.024425 0.000000
# 6 0.000000 0.000000 0.000000 0.000000 0.000000 0.044091
#
#
# Mechanical properties :
#
#
# Convention : Reuss Voigt Hill
#
# Bulk Modulus (GPa) = 27.06287 53.47209 40.26748
# Shear Modulus (GPa) = 41.86881 33.61908 37.74395
#
# Velocity S-wave (km/s) = 4.25397 3.81191 4.03899
# Velocity P-wave (km/s) = 5.98543 6.51810 6.25743
#
# Compressibility (1/GPa) = 0.03695100
#
# Stress axis : x y z
#
# Youngs Moduli (GPa) = 114.99760 24.46706 153.84185
#
# Poissons Ratio (x) = 0.01396 0.01106
# Poissons Ratio (y) = 0.06563 1.37158
# Poissons Ratio (z) = 0.00827 0.21814
#
# Static dielectric constant tensor:
#      x y z
#    x 1.823940 0.000000 0.000000 
#    y 0.000000 1.860670 0.000000 
#    z 0.000000 0.000000 2.006810 
# 
# From -- ./inp_files/45863.got.cif
#   From: 2010.05.17/outbox.cif.g08.bks.cpg/sg66_23_cif.got.tgz:45863.got - 2010.06.03 17:51:23.
