data_PCOD9498898
_publ_section_title
;
Structure prediction by ZEFSAII (Michael W. Deem and Ramdas Pophale) SiO2 
 PCOD9498898
Probable space group: C C C M
;
_chemical_formula_sum "Si O2"
_cell_formula_units_Z 88
_cell_length_a 13.351641
_cell_length_b 26.579204
_cell_length_c 14.129549
_cell_angle_alpha 90.000000
_cell_angle_beta 90.000000
_cell_angle_gamma 90.000000
_cell_volume 5014.237688
_symmetry_space_group_name_H-M "C C C M"
_symmetry_group_IT_number 66
_symmetry_cell_setting 'orthorhombic'
loop_
_space_group_symop_operation_xyz
x,y,z
-x,-y,z
x,-y,1/2-z
-x,y,1/2-z
-x,-y,-z
x,y,-z
-x,y,1/2+z
x,-y,1/2+z
1/2+x,1/2+y,z
1/2-x,1/2-y,z
1/2+x,1/2-y,1/2-z
1/2-x,1/2+y,1/2-z
1/2-x,1/2-y,-z
1/2+x,1/2+y,-z
1/2-x,1/2+y,1/2+z
1/2+x,1/2-y,1/2+z
loop_
_atom_site_type_symbol
_atom_site_label
_atom_site_fract_x
_atom_site_fract_y
_atom_site_fract_z
Si Si1 0.514716 0.440303 0.000000
Si Si2 0.250669 0.193074 0.112106
Si Si3 0.413665 0.386621 0.816686
Si Si4 0.419254 0.044835 0.000000
Si Si5 0.752389 0.538216 0.500000
Si Si6 0.244616 0.443773 0.713496
Si Si7 0.585504 0.879718 0.174256
O O1 0.500000 0.500000 0.000000
O O2 0.462756 0.414306 0.908161
O O3 0.635570 0.442979 0.000000
O O4 0.250000 0.250000 0.149763
O O5 0.164723 0.156336 0.152723
O O6 0.358926 0.168365 0.130806
O O7 0.233449 0.194632 0.000000
O O8 0.500000 0.364814 0.750000
O O9 0.353809 0.426313 0.750018
O O10 0.437608 0.080572 0.090572
O O11 0.500000 0.000000 0.000000
O O12 0.306667 0.018365 0.000000
O O13 0.781358 0.558098 0.602904
O O14 0.229967 0.500000 0.750000
O O15 0.169164 0.407811 0.765500
O O16 0.500000 0.867740 0.250000
#
# Coordination Sequence:
#
# PCOD9498898 Si02
#       7
#     8  16  16   8   8  16  16
#     4  12  24  34  56  86 131 168 200 242 295 368
#     4  10  22  43  68  88 115 159 215 272 320 371
#     4  11  23  38  59  92 122 163 207 252 311 382
#     4  12  24  38  60  86 127 174 205 246 294 366
#     4  12  22  36  54  84 125 171 203 242 289 354
#     4  11  22  35  55  82 125 165 205 238 295 363
#     4  11  24  39  60  91 119 157 210 256 307 370
#
# _framework density 17.550027
#
# number of rings (size 3 to 8) (size 9 to 14) (size 15 to 20)
#    0.000    0.909    5.455    2.182    2.545    0.727 
#    0.000    0.000    0.000    0.000    0.000    3.818 
#    0.000    0.000    0.000    0.000    0.000    0.000 
#
# Total GULP energy -245032.183573 kJ/mol
# GULP energy per Si atom -5568.913263 kJ/mol
# Density = 1.751008 g / cm^3
# Si number density = 17.550027 Si / 1000 Ang^3
#
#
#
# Elastic Constant Matrix: (Units=GPa)
#
#
# Indices 1 2 3 4 5 6 
#
# 1 72.0398 29.6703 19.5638 0.0000 0.0000 0.0000
# 2 29.6703 104.8674 30.3415 0.0000 0.0000 0.0000
# 3 19.5638 30.3415 122.3122 0.0000 0.0000 0.0000
# 4 0.0000 0.0000 0.0000 101.7848 0.0000 0.0000
# 5 0.0000 0.0000 0.0000 0.0000 36.2740 0.0000
# 6 0.0000 0.0000 0.0000 0.0000 0.0000 22.9513
#
#
#
# Elastic Compliance Matrix: (Units=1/GPa)
#
#
# Indices 1 2 3 4 5 6 
#
# 1 0.015979 -0.004074 -0.001545 0.000000 0.000000 0.000000
# 2 -0.004074 0.011312 -0.002154 0.000000 0.000000 0.000000
# 3 -0.001545 -0.002154 0.008957 0.000000 0.000000 0.000000
# 4 0.000000 0.000000 0.000000 0.009825 0.000000 0.000000
# 5 0.000000 0.000000 0.000000 0.000000 0.027568 0.000000
# 6 0.000000 0.000000 0.000000 0.000000 0.000000 0.043570
#
#
# Mechanical properties :
#
#
# Convention : Reuss Voigt Hill
#
# Bulk Modulus (GPa) = 48.30699 50.93006 49.61852
# Shear Modulus (GPa) = 35.80168 46.84494 41.32331
#
# Velocity S-wave (km/s) = 4.52151 5.17206 4.85769
# Velocity P-wave (km/s) = 7.40566 8.04673 7.73284
#
# Compressibility (1/GPa) = 0.02070094
#
# Stress axis : x y z
#
# Youngs Moduli (GPa) = 62.58334 88.40313 111.63943
#
# Poissons Ratio (x) = 0.36014 0.17251
# Poissons Ratio (y) = 0.25495 0.24052
# Poissons Ratio (z) = 0.09671 0.19046
#
# Static dielectric constant tensor:
#      x y z
#    x 1.796290 0.000000 0.000000 
#    y 0.000000 1.598360 0.000000 
#    z 0.000000 0.000000 1.625690 
# 
# From -- ./inp_files/26590.got.cif
#   From: 2010.05.17/outbox.cif.g08.bks.cpg/sg66_14_cif.got.tgz:26590.got - 2010.06.03 17:51:23.
