data_PCOD9498352
_publ_section_title
;
Structure prediction by ZEFSAII (Michael W. Deem and Ramdas Pophale) SiO2 
 PCOD9498352
Probable space group: C C C M
;
_chemical_formula_sum "Si O2"
_cell_formula_units_Z 88
_cell_length_a 11.684304
_cell_length_b 25.225403
_cell_length_c 14.279388
_cell_angle_alpha 90.000000
_cell_angle_beta 90.000000
_cell_angle_gamma 90.000000
_cell_volume 4208.725056
_symmetry_space_group_name_H-M "C C C M"
_symmetry_group_IT_number 66
_symmetry_cell_setting 'orthorhombic'
loop_
_space_group_symop_operation_xyz
x,y,z
-x,-y,z
x,-y,1/2-z
-x,y,1/2-z
-x,-y,-z
x,y,-z
-x,y,1/2+z
x,-y,1/2+z
1/2+x,1/2+y,z
1/2-x,1/2-y,z
1/2+x,1/2-y,1/2-z
1/2-x,1/2+y,1/2-z
1/2-x,1/2-y,-z
1/2+x,1/2+y,-z
1/2-x,1/2+y,1/2+z
1/2+x,1/2-y,1/2+z
loop_
_atom_site_type_symbol
_atom_site_label
_atom_site_fract_x
_atom_site_fract_y
_atom_site_fract_z
Si Si1 0.858224 0.401168 0.500000
Si Si2 0.316020 0.694841 0.500000
Si Si3 0.275105 0.078371 0.500000
Si Si4 0.990071 0.062297 0.000000
Si Si5 0.612462 0.253712 0.175271
Si Si6 0.863462 0.495021 0.354435
Si Si7 0.079512 0.675754 0.000000
Si Si8 0.011824 0.149719 0.141473
O O1 0.768231 0.354494 0.500000
O O2 0.842180 0.440646 0.411350
O O3 0.977171 0.368263 0.500000
O O4 0.250000 0.750000 0.500000
O O5 0.392012 0.687329 0.406359
O O6 0.141867 0.074724 0.500000
O O7 0.312183 0.138112 0.500000
O O8 0.320526 0.045098 0.412276
O O9 0.033718 0.094573 0.910826
O O10 0.000000 0.000000 0.000000
O O11 0.500000 0.249990 0.250000
O O12 0.750000 0.250000 0.205404
O O13 0.598770 0.312344 0.129798
O O14 0.583896 0.211514 0.093539
O O15 0.816267 0.500000 0.250000
O O16 0.000000 0.500000 0.350828
O O17 0.000000 0.137173 0.250000
#
# Coordination Sequence:
#
# PCOD9498352 Si02
#       8
#     8   8   8   8  16  16   8  16
#     4  11  22  38  66 101 139 177 247 290 350 448
#     4  11  24  44  74 102 141 190 236 303 367 430
#     4  11  22  40  61  92 133 166 231 274 342 416
#     4  11  25  43  66  91 127 182 235 284 346 425
#     4  11  25  45  72 102 144 185 238 292 359 433
#     4  10  21  40  63  93 137 175 214 290 360 413
#     4  12  22  38  69 105 133 186 233 284 360 436
#     4  10  24  45  66  97 139 180 232 294 357 422
#
# _framework density 20.908944000000002
#
# number of rings (size 3 to 8) (size 9 to 14) (size 15 to 20)
#    0.000    1.273    1.818    4.091    5.091    9.091 
#    0.000    0.455    0.000    0.000    0.000    0.000 
#    0.000    0.000    0.000    0.000    0.000    0.000 
#
# Total GULP energy -244954.091983 kJ/mol
# GULP energy per Si atom -5567.138454 kJ/mol
# Density = 2.086135 g / cm^3
# Si number density = 20.908944 Si / 1000 Ang^3
#
#
#
# Elastic Constant Matrix: (Units=GPa)
#
#
# Indices 1 2 3 4 5 6 
#
# 1 97.6190 29.3120 34.3218 0.0000 0.0000 0.0000
# 2 29.3120 173.3941 79.2030 0.0000 0.0000 0.0000
# 3 34.3218 79.2030 182.4320 0.0000 0.0000 0.0000
# 4 0.0000 0.0000 0.0000 -6.1761 0.0000 0.0000
# 5 0.0000 0.0000 0.0000 0.0000 284.4604 0.0000
# 6 0.0000 0.0000 0.0000 0.0000 0.0000 44.7194
#
#
#
# Elastic Compliance Matrix: (Units=1/GPa)
#
#
# Indices 1 2 3 4 5 6 
#
# 1 0.011152 -0.001156 -0.001596 0.000000 0.000000 0.000000
# 2 -0.001156 0.007314 -0.002958 0.000000 0.000000 0.000000
# 3 -0.001596 -0.002958 0.007066 0.000000 0.000000 0.000000
# 4 0.000000 0.000000 0.000000 -0.161914 0.000000 0.000000
# 5 0.000000 0.000000 0.000000 0.000000 0.003515 0.000000
# 6 0.000000 0.000000 0.000000 0.000000 0.000000 0.022362
#
#
# Mechanical properties :
#
#
# Convention : Reuss Voigt Hill
#
# Bulk Modulus (GPa) = 70.86318 82.12429 76.49373
# Shear Modulus (GPa) = -52.97689 85.30796 16.16554
#
# Velocity S-wave (km/s) = -5.03904 6.39440 2.78356
# Velocity P-wave (km/s) = 0.33008 9.68918 6.85526
#
# Compressibility (1/GPa) = 0.01411170
#
# Stress axis : x y z
#
# Youngs Moduli (GPa) = 89.66782 136.72987 141.52493
#
# Poissons Ratio (x) = 0.15808 0.22590
# Poissons Ratio (y) = 0.10367 0.41859
# Poissons Ratio (z) = 0.14313 0.40441
#
# Static dielectric constant tensor:
#      x y z
#    x 1.888480 0.000000 0.000000 
#    y 0.000000 1.674640 0.000000 
#    z 0.000000 0.000000 1.779530 
# 
# From -- ./inp_files/26608.got.cif
#   From: 2010.05.17/outbox.cif.g08.bks.cpg/sg66_14_cif.got.tgz:26608.got - 2010.06.03 17:51:23.
