data_PCOD9498272
_publ_section_title
;
Structure prediction by ZEFSAII (Michael W. Deem and Ramdas Pophale) SiO2 
 PCOD9498272
Probable space group: C C C M
;
_chemical_formula_sum "Si O2"
_cell_formula_units_Z 100
_cell_length_a 22.041048
_cell_length_b 9.725621
_cell_length_c 23.076947
_cell_angle_alpha 90.000000
_cell_angle_beta 90.000000
_cell_angle_gamma 90.000000
_cell_volume 4946.840804
_symmetry_space_group_name_H-M "C C C M"
_symmetry_group_IT_number 66
_symmetry_cell_setting 'orthorhombic'
loop_
_space_group_symop_operation_xyz
x,y,z
-x,-y,z
x,-y,1/2-z
-x,y,1/2-z
-x,-y,-z
x,y,-z
-x,y,1/2+z
x,-y,1/2+z
1/2+x,1/2+y,z
1/2-x,1/2-y,z
1/2+x,1/2-y,1/2-z
1/2-x,1/2+y,1/2-z
1/2-x,1/2-y,-z
1/2+x,1/2+y,-z
1/2-x,1/2+y,1/2+z
1/2+x,1/2-y,1/2+z
loop_
_atom_site_type_symbol
_atom_site_label
_atom_site_fract_x
_atom_site_fract_y
_atom_site_fract_z
Si Si1 0.000000 0.500000 0.250000
Si Si2 0.616429 0.050868 0.064747
Si Si3 0.571911 0.469443 0.682763
Si Si4 0.406474 0.852767 0.668114
Si Si5 0.745143 0.597609 0.401219
Si Si6 0.268693 0.096171 0.198204
Si Si7 0.611078 0.369093 0.065569
O O1 0.958258 0.406127 0.289772
O O2 0.690093 0.065416 0.069518
O O3 0.595338 0.207860 0.075160
O O4 0.590726 0.937394 0.108218
O O5 0.600350 0.011147 0.000000
O O6 0.500000 0.500000 0.685196
O O7 0.594175 0.500000 0.750000
O O8 0.588082 0.311540 0.667439
O O9 0.593359 0.555468 0.625753
O O10 0.341059 0.900425 0.691618
O O11 0.750000 0.750000 0.372066
O O12 0.738218 0.471995 0.357470
O O13 0.684170 0.612176 0.437616
O O14 0.250000 0.250000 0.207451
O O15 0.250548 0.000000 0.250000
O O16 0.587938 0.408104 0.000000
#
# Coordination Sequence:
#
# PCOD9498272 Si02
#       7
#     4  16  16  16  16  16  16
#     4  12  24  44  68  88 124 168 226 264 312 400
#     4   9  20  39  64  96 128 162 213 261 314 382
#     4  11  26  44  64  91 121 163 216 269 327 382
#     4  11  25  41  67  92 122 170 214 270 321 381
#     4   9  18  34  59  89 124 163 205 253 311 380
#     4  11  22  37  56  92 130 165 210 259 327 382
#     4  10  21  39  64  93 128 170 207 256 322 388
#
# _framework density 20.214922000000001
#
# number of rings (size 3 to 8) (size 9 to 14) (size 15 to 20)
#    0.000    1.760    0.800    2.880    4.480    6.720 
#    0.000    0.400    0.000    5.280    0.000    0.000 
#    0.000    0.000    0.000    0.000    0.000    0.000 
#
# Total GULP energy -278676.814577 kJ/mol
# GULP energy per Si atom -5573.536292 kJ/mol
# Density = 2.016891 g / cm^3
# Si number density = 20.214922 Si / 1000 Ang^3
#
#
#
# Elastic Constant Matrix: (Units=GPa)
#
#
# Indices 1 2 3 4 5 6 
#
# 1 46.8567 15.0942 35.9684 0.0000 0.0000 0.0000
# 2 15.0942 150.7449 109.5261 0.0000 0.0000 0.0000
# 3 35.9684 109.5261 184.6991 0.0000 0.0000 0.0000
# 4 0.0000 0.0000 0.0000 -68.3703 0.0000 0.0000
# 5 0.0000 0.0000 0.0000 0.0000 11.9139 0.0000
# 6 0.0000 0.0000 0.0000 0.0000 0.0000 18.9254
#
#
#
# Elastic Compliance Matrix: (Units=1/GPa)
#
#
# Indices 1 2 3 4 5 6 
#
# 1 0.025381 0.001845 -0.006037 0.000000 0.000000 0.000000
# 2 0.001845 0.011790 -0.007350 0.000000 0.000000 0.000000
# 3 -0.006037 -0.007350 0.010949 0.000000 0.000000 0.000000
# 4 0.000000 0.000000 0.000000 -0.014626 0.000000 0.000000
# 5 0.000000 0.000000 0.000000 0.000000 0.083936 0.000000
# 6 0.000000 0.000000 0.000000 0.000000 0.000000 0.052839
#
#
# Mechanical properties :
#
#
# Convention : Reuss Voigt Hill
#
# Bulk Modulus (GPa) = 39.94480 78.16421 59.05451
# Shear Modulus (GPa) = 24.78956 7.27459 16.03207
#
# Velocity S-wave (km/s) = 3.50566 1.89906 2.81922
# Velocity P-wave (km/s) = 6.01574 6.59993 6.31460
#
# Compressibility (1/GPa) = 0.02503455
#
# Stress axis : x y z
#
# Youngs Moduli (GPa) = 39.39907 84.82067 91.33640
#
# Poissons Ratio (x) = -0.15645 0.55136
# Poissons Ratio (y) = -0.07267 0.67136
# Poissons Ratio (z) = 0.23783 0.62347
#
# Static dielectric constant tensor:
#      x y z
#    x 1.603030 0.000000 0.000000 
#    y 0.000000 1.745250 0.000000 
#    z 0.000000 0.000000 1.760960 
# 
# From -- ./inp_files/53059.got.cif
#   From: 2010.05.17/outbox.cif.g08.bks.cpg/sg66_27_cif.got.tgz:53059.got - 2010.06.03 17:51:23.
