data_PCOD9498444
_publ_section_title
;
Structure prediction by ZEFSAII (Michael W. Deem and Ramdas Pophale) SiO2 
 PCOD9498444
Probable space group: C C C M
;
_chemical_formula_sum "Si O2"
_cell_formula_units_Z 72
_cell_length_a 23.397938
_cell_length_b 5.087080
_cell_length_c 26.859779
_cell_angle_alpha 90.000000
_cell_angle_beta 90.000000
_cell_angle_gamma 90.000000
_cell_volume 3197.043815
_symmetry_space_group_name_H-M "C C C M"
_symmetry_group_IT_number 66
_symmetry_cell_setting 'orthorhombic'
loop_
_space_group_symop_operation_xyz
x,y,z
-x,-y,z
x,-y,1/2-z
-x,y,1/2-z
-x,-y,-z
x,y,-z
-x,y,1/2+z
x,-y,1/2+z
1/2+x,1/2+y,z
1/2-x,1/2-y,z
1/2+x,1/2-y,1/2-z
1/2-x,1/2+y,1/2-z
1/2-x,1/2-y,-z
1/2+x,1/2+y,-z
1/2-x,1/2+y,1/2+z
1/2+x,1/2-y,1/2+z
loop_
_atom_site_type_symbol
_atom_site_label
_atom_site_fract_x
_atom_site_fract_y
_atom_site_fract_z
Si Si1 0.208755 0.000053 0.607602
Si Si2 0.877120 0.912600 0.303024
Si Si3 0.435966 0.890542 0.662025
Si Si4 0.791885 0.999608 0.500000
Si Si5 0.958682 0.749633 0.944707
O O1 0.250000 0.750000 0.610299
O O2 0.177704 0.004168 0.553471
O O3 0.250000 0.250000 0.609468
O O4 0.166566 0.015390 0.653454
O O5 0.896537 0.613551 0.312709
O O6 0.852177 0.000000 0.250000
O O7 0.929677 0.114698 0.310124
O O8 0.421906 0.826247 0.603889
O O9 0.500000 0.000000 0.663373
O O10 0.750000 0.250000 0.500000
O O11 0.750000 0.750000 0.500000
O O12 0.000000 0.500000 0.949247
O O13 0.932316 0.788060 0.000000
O O14 0.000000 0.000000 0.933912
#
# Coordination Sequence:
#
# PCOD9498444 Si02
#       5
#    16  16  16   8  16
#     4  10  21  41  66  92 124 158 199 256 325 379
#     4  12  26  41  61  93 125 164 221 264 306 380
#     4  11  23  42  62  87 125 170 215 264 314 364
#     4   8  16  34  62  90 117 152 191 244 306 380
#     4   9  17  33  58  85 117 157 201 255 315 372
#
# _framework density 22.520807000000001
#
# number of rings (size 3 to 8) (size 9 to 14) (size 15 to 20)
#    0.000    1.778    0.000    5.333    0.000    3.556 
#    4.000    0.000    0.000    0.000    0.000    0.000 
#    0.000    0.000    0.000    0.000    0.000    0.000 
#
# Total GULP energy -201019.462828 kJ/mol
# GULP energy per Si atom -5583.873967 kJ/mol
# Density = 2.246955 g / cm^3
# Si number density = 22.520807 Si / 1000 Ang^3
#
#
#
# Elastic Constant Matrix: (Units=GPa)
#
#
# Indices 1 2 3 4 5 6 
#
# 1 43.1896 15.0736 42.1532 0.0000 0.0000 0.0000
# 2 15.0736 164.7413 27.4066 0.0000 0.0000 0.0000
# 3 42.1532 27.4066 205.0134 0.0000 0.0000 0.0000
# 4 0.0000 0.0000 0.0000 34.8588 0.0000 0.0000
# 5 0.0000 0.0000 0.0000 0.0000 32.9867 0.0000
# 6 0.0000 0.0000 0.0000 0.0000 0.0000 20.8166
#
#
#
# Elastic Compliance Matrix: (Units=1/GPa)
#
#
# Indices 1 2 3 4 5 6 
#
# 1 0.029438 -0.001725 -0.005822 0.000000 0.000000 0.000000
# 2 -0.001725 0.006309 -0.000489 0.000000 0.000000 0.000000
# 3 -0.005822 -0.000489 0.006140 0.000000 0.000000 0.000000
# 4 0.000000 0.000000 0.000000 0.028687 0.000000 0.000000
# 5 0.000000 0.000000 0.000000 0.000000 0.030315 0.000000
# 6 0.000000 0.000000 0.000000 0.000000 0.000000 0.048039
#
#
# Mechanical properties :
#
#
# Convention : Reuss Voigt Hill
#
# Bulk Modulus (GPa) = 38.73603 64.69014 51.71308
# Shear Modulus (GPa) = 28.80084 39.61981 34.21032
#
# Velocity S-wave (km/s) = 3.57999 4.19890 3.90173
# Velocity P-wave (km/s) = 5.85883 7.23150 6.58105
#
# Compressibility (1/GPa) = 0.02581576
#
# Stress axis : x y z
#
# Youngs Moduli (GPa) = 33.96935 158.49707 162.86118
#
# Poissons Ratio (x) = 0.27340 0.94822
# Poissons Ratio (y) = 0.05860 0.07960
# Poissons Ratio (z) = 0.19778 0.07747
#
# Static dielectric constant tensor:
#      x y z
#    x 1.784040 0.000000 0.000000 
#    y 0.000000 1.770670 0.000000 
#    z 0.000000 0.000000 1.933450 
# 
# From -- ./inp_files/65937.got.cif
#   From: 2010.05.17/outbox.cif.g08.bks.cpg/sg66_33_cif.got.tgz:65937.got - 2010.06.03 17:51:23.
