data_PCOD9498147
_publ_section_title
;
Structure prediction by ZEFSAII (Michael W. Deem and Ramdas Pophale) SiO2 
 PCOD9498147
Probable space group: C C C M
;
_chemical_formula_sum "Si O2"
_cell_formula_units_Z 64
_cell_length_a 8.494788
_cell_length_b 13.547187
_cell_length_c 21.966570
_cell_angle_alpha 90.000000
_cell_angle_beta 90.000000
_cell_angle_gamma 90.000000
_cell_volume 2527.923454
_symmetry_space_group_name_H-M "C C C M"
_symmetry_group_IT_number 66
_symmetry_cell_setting 'orthorhombic'
loop_
_space_group_symop_operation_xyz
x,y,z
-x,-y,z
x,-y,1/2-z
-x,y,1/2-z
-x,-y,-z
x,y,-z
-x,y,1/2+z
x,-y,1/2+z
1/2+x,1/2+y,z
1/2-x,1/2-y,z
1/2+x,1/2-y,1/2-z
1/2-x,1/2+y,1/2-z
1/2-x,1/2-y,-z
1/2+x,1/2+y,-z
1/2-x,1/2+y,1/2+z
1/2+x,1/2-y,1/2+z
loop_
_atom_site_type_symbol
_atom_site_label
_atom_site_fract_x
_atom_site_fract_y
_atom_site_fract_z
Si Si1 0.680567 0.978126 0.500000
Si Si2 0.925900 0.630309 0.183661
Si Si3 0.253394 0.130215 0.377569
Si Si4 0.572597 0.613033 0.000000
Si Si5 0.420274 0.645626 0.357894
O O1 0.744615 0.916001 0.443790
O O2 0.500000 0.000000 0.500000
O O3 0.744282 0.088541 0.500000
O O4 0.749153 0.598994 0.161799
O O5 0.918718 0.748634 0.174490
O O6 0.000000 0.610395 0.250000
O O7 0.075456 0.597620 0.144709
O O8 0.250000 0.250000 0.377655
O O9 0.092120 0.099268 0.342905
O O10 0.500000 0.500000 0.000000
O O11 0.557561 0.659278 0.067923
#
# Coordination Sequence:
#
# PCOD9498147 Si02
#       5
#     8  16  16   8  16
#     4  12  23  38  66  93 135 175 215 275 334 407
#     4  10  23  38  63  97 124 164 217 274 324 394
#     4  10  21  38  62  95 128 168 219 270 340 390
#     4  12  22  41  61  93 128 169 214 256 327 411
#     4  10  22  38  64  92 130 166 210 268 331 394
#
# _framework density 25.317224
#
# number of rings (size 3 to 8) (size 9 to 14) (size 15 to 20)
#    0.000    1.500    2.500    1.875   10.500    5.000 
#    0.000    0.000    0.000   10.500    0.000    0.000 
#    0.000    0.000    0.000    0.000    0.000    0.000 
#
# Total GULP energy -178231.190566 kJ/mol
# GULP energy per Si atom -5569.724705 kJ/mol
# Density = 2.525960 g / cm^3
# Si number density = 25.317224 Si / 1000 Ang^3
#
#
#
# Elastic Constant Matrix: (Units=GPa)
#
#
# Indices 1 2 3 4 5 6 
#
# 1 300.5478 58.4081 41.9899 0.0000 0.0000 0.0000
# 2 58.4081 87.9734 23.6138 0.0000 0.0000 0.0000
# 3 41.9899 23.6138 119.3285 0.0000 0.0000 0.0000
# 4 0.0000 0.0000 0.0000 28.1967 0.0000 0.0000
# 5 0.0000 0.0000 0.0000 0.0000 13.9835 0.0000
# 6 0.0000 0.0000 0.0000 0.0000 0.0000 52.4876
#
#
#
# Elastic Compliance Matrix: (Units=1/GPa)
#
#
# Indices 1 2 3 4 5 6 
#
# 1 0.003912 -0.002353 -0.000911 0.000000 0.000000 0.000000
# 2 -0.002353 0.013420 -0.001828 0.000000 0.000000 0.000000
# 3 -0.000911 -0.001828 0.009062 0.000000 0.000000 0.000000
# 4 0.000000 0.000000 0.000000 0.035465 0.000000 0.000000
# 5 0.000000 0.000000 0.000000 0.000000 0.071513 0.000000
# 6 0.000000 0.000000 0.000000 0.000000 0.000000 0.019052
#
#
# Mechanical properties :
#
#
# Convention : Reuss Voigt Hill
#
# Bulk Modulus (GPa) = 61.68551 83.98594 72.83573
# Shear Modulus (GPa) = 29.76007 44.52273 37.14140
#
# Velocity S-wave (km/s) = 3.43226 4.19811 3.83435
# Velocity P-wave (km/s) = 6.33444 7.53288 6.95950
#
# Compressibility (1/GPa) = 0.01621126
#
# Stress axis : x y z
#
# Youngs Moduli (GPa) = 255.64165 74.51768 110.34527
#
# Poissons Ratio (x) = 0.17531 0.10052
# Poissons Ratio (y) = 0.60142 0.20168
# Poissons Ratio (z) = 0.23287 0.13620
#
# Static dielectric constant tensor:
#      x y z
#    x 1.888360 0.000000 0.000000 
#    y 0.000000 2.199570 0.000000 
#    z 0.000000 0.000000 0.968800 
# 
# From -- ./inp_files/36410.got.cif
#   From: 2010.05.17/outbox.cif.g08.bks.cpg/sg66_19_cif.got.tgz:36410.got - 2010.06.03 17:51:23.
