data_PCOD9498073
_publ_section_title
;
Structure prediction by ZEFSAII (Michael W. Deem and Ramdas Pophale) SiO2 
 PCOD9498073
Probable space group: C C C M
;
_chemical_formula_sum "Si O2"
_cell_formula_units_Z 64
_cell_length_a 16.123997
_cell_length_b 8.454847
_cell_length_c 24.174034
_cell_angle_alpha 90.000000
_cell_angle_beta 90.000000
_cell_angle_gamma 90.000000
_cell_volume 3295.547610
_symmetry_space_group_name_H-M "C C C M"
_symmetry_group_IT_number 66
_symmetry_cell_setting 'orthorhombic'
loop_
_space_group_symop_operation_xyz
x,y,z
-x,-y,z
x,-y,1/2-z
-x,y,1/2-z
-x,-y,-z
x,y,-z
-x,y,1/2+z
x,-y,1/2+z
1/2+x,1/2+y,z
1/2-x,1/2-y,z
1/2+x,1/2-y,1/2-z
1/2-x,1/2+y,1/2-z
1/2-x,1/2-y,-z
1/2+x,1/2+y,-z
1/2-x,1/2+y,1/2+z
1/2+x,1/2-y,1/2+z
loop_
_atom_site_type_symbol
_atom_site_label
_atom_site_fract_x
_atom_site_fract_y
_atom_site_fract_z
Si Si1 0.905740 0.549336 0.500000
Si Si2 0.667900 0.366441 0.000000
Si Si3 0.595824 0.459376 0.394818
Si Si4 0.272351 0.565320 0.188034
Si Si5 0.825892 0.637582 0.900573
O O1 0.904017 0.736789 0.500000
O O2 0.858306 0.479619 0.552901
O O3 0.000000 0.500000 0.500000
O O4 0.750000 0.250000 0.000000
O O5 0.651196 0.472243 0.945960
O O6 0.500000 0.500000 0.402514
O O7 0.638967 0.536262 0.341207
O O8 0.605035 0.270149 0.388910
O O9 0.272254 0.500000 0.250000
O O10 0.250000 0.750000 0.186166
O O11 0.207814 0.461577 0.151399
O O12 0.750000 0.750000 0.919546
#
# Coordination Sequence:
#
# PCOD9498073 Si02
#       5
#     8   8  16  16  16
#     4  12  22  34  56  88 122 151 190 243 294 347
#     4  12  22  36  58  88 121 163 202 241 296 363
#     4  11  22  38  60  88 122 156 196 248 303 357
#     4  11  23  42  64  86 113 153 202 248 296 362
#     4  10  21  38  59  84 114 156 196 235 288 354
#
# _framework density 19.42014
#
# number of rings (size 3 to 8) (size 9 to 14) (size 15 to 20)
#    0.000    1.000    0.000   10.500    0.000    0.500 
#    0.000    0.000    0.000    5.250    0.000    0.000 
#    0.000    0.000    0.000    0.000    0.000    0.000 
#
# Total GULP energy -178731.698081 kJ/mol
# GULP energy per Si atom -5585.365565 kJ/mol
# Density = 1.937594 g / cm^3
# Si number density = 19.420140 Si / 1000 Ang^3
#
#
#
# Elastic Constant Matrix: (Units=GPa)
#
#
# Indices 1 2 3 4 5 6 
#
# 1 100.0470 36.3699 57.4636 0.0000 0.0000 0.0000
# 2 36.3699 149.4617 53.4296 0.0000 0.0000 0.0000
# 3 57.4636 53.4296 155.8933 0.0000 0.0000 0.0000
# 4 0.0000 0.0000 0.0000 41.0530 0.0000 0.0000
# 5 0.0000 0.0000 0.0000 0.0000 93.5703 0.0000
# 6 0.0000 0.0000 0.0000 0.0000 0.0000 30.1057
#
#
#
# Elastic Compliance Matrix: (Units=1/GPa)
#
#
# Indices 1 2 3 4 5 6 
#
# 1 0.013030 -0.001657 -0.004235 0.000000 0.000000 0.000000
# 2 -0.001657 0.007836 -0.002075 0.000000 0.000000 0.000000
# 3 -0.004235 -0.002075 0.008687 0.000000 0.000000 0.000000
# 4 0.000000 0.000000 0.000000 0.024359 0.000000 0.000000
# 5 0.000000 0.000000 0.000000 0.000000 0.010687 0.000000
# 6 0.000000 0.000000 0.000000 0.000000 0.000000 0.033216
#
#
# Mechanical properties :
#
#
# Convention : Reuss Voigt Hill
#
# Bulk Modulus (GPa) = 73.42654 77.76981 75.59817
# Shear Modulus (GPa) = 42.26976 50.15507 46.21242
#
# Velocity S-wave (km/s) = 4.67046 5.08747 4.88342
# Velocity P-wave (km/s) = 8.18388 8.63960 8.41482
#
# Compressibility (1/GPa) = 0.01361905
#
# Stress axis : x y z
#
# Youngs Moduli (GPa) = 76.74523 127.62394 115.11626
#
# Poissons Ratio (x) = 0.21144 0.48754
# Poissons Ratio (y) = 0.12715 0.23884
# Poissons Ratio (z) = 0.32503 0.26479
#
# Static dielectric constant tensor:
#      x y z
#    x 1.713370 0.000000 0.000000 
#    y 0.000000 1.682660 0.000000 
#    z 0.000000 0.000000 1.667490 
# 
# From -- ./inp_files/46650.got.cif
#   From: 2010.05.17/outbox.cif.g08.bks.cpg/sg66_24_cif.got.tgz:46650.got - 2010.06.03 17:51:23.
