data_PCOD9498768
_publ_section_title
;
Structure prediction by ZEFSAII (Michael W. Deem and Ramdas Pophale) SiO2 
 PCOD9498768
Probable space group: C C C M
;
_chemical_formula_sum "Si O2"
_cell_formula_units_Z 52
_cell_length_a 14.750123
_cell_length_b 12.542677
_cell_length_c 13.529070
_cell_angle_alpha 90.000000
_cell_angle_beta 90.000000
_cell_angle_gamma 90.000000
_cell_volume 2502.959510
_symmetry_space_group_name_H-M "C C C M"
_symmetry_group_IT_number 66
_symmetry_cell_setting 'orthorhombic'
loop_
_space_group_symop_operation_xyz
x,y,z
-x,-y,z
x,-y,1/2-z
-x,y,1/2-z
-x,-y,-z
x,y,-z
-x,y,1/2+z
x,-y,1/2+z
1/2+x,1/2+y,z
1/2-x,1/2-y,z
1/2+x,1/2-y,1/2-z
1/2-x,1/2+y,1/2-z
1/2-x,1/2-y,-z
1/2+x,1/2+y,-z
1/2-x,1/2+y,1/2+z
1/2+x,1/2-y,1/2+z
loop_
_atom_site_type_symbol
_atom_site_label
_atom_site_fract_x
_atom_site_fract_y
_atom_site_fract_z
Si Si1 0.000000 0.000000 0.750000
Si Si2 0.397816 0.832946 0.717837
Si Si3 0.327232 0.975890 0.113586
Si Si4 0.145910 0.117496 0.882652
O O1 0.936182 0.933788 0.822713
O O2 0.500000 0.805522 0.750000
O O3 0.343073 0.877935 0.812545
O O4 0.349302 0.735013 0.664237
O O5 0.399967 0.933560 0.643372
O O6 0.232530 0.039507 0.129384
O O7 0.333640 0.944136 0.000000
O O8 0.129809 0.127031 0.000000
#
# Coordination Sequence:
#
# PCOD9498768 Si02
#       4
#     4  16  16  16
#     4  12  22  44  68  96 130 168 218 272 324 388
#     4  11  22  40  64  98 131 171 215 269 319 380
#     4  10  22  40  66  95 130 173 218 266 323 385
#     4  11  24  43  67  96 131 173 217 267 327 385
#
# _framework density 20.775407000000001
#
# number of rings (size 3 to 8) (size 9 to 14) (size 15 to 20)
#    0.000    1.231    1.538    6.000    0.000    6.154 
#    0.000    0.000    0.000   20.308    0.000    0.000 
#    0.000    0.000    0.000    0.000    0.000    0.000 
#
# Total GULP energy -145294.596340 kJ/mol
# GULP energy per Si atom -5588.253705 kJ/mol
# Density = 2.072812 g / cm^3
# Si number density = 20.775407 Si / 1000 Ang^3
#
#
#
# Elastic Constant Matrix: (Units=GPa)
#
#
# Indices 1 2 3 4 5 6 
#
# 1 112.4929 47.4971 71.9877 0.0000 0.0000 0.0000
# 2 47.4971 116.2096 95.3111 0.0000 0.0000 0.0000
# 3 71.9877 95.3111 218.0801 0.0000 0.0000 0.0000
# 4 0.0000 0.0000 0.0000 16.6799 0.0000 0.0000
# 5 0.0000 0.0000 0.0000 0.0000 30.3977 0.0000
# 6 0.0000 0.0000 0.0000 0.0000 0.0000 -0.3228
#
#
#
# Elastic Compliance Matrix: (Units=1/GPa)
#
#
# Indices 1 2 3 4 5 6 
#
# 1 0.011726 -0.002522 -0.002768 0.000000 0.000000 0.000000
# 2 -0.002522 0.013955 -0.005267 0.000000 0.000000 0.000000
# 3 -0.002768 -0.005267 0.007801 0.000000 0.000000 0.000000
# 4 0.000000 0.000000 0.000000 0.059953 0.000000 0.000000
# 5 0.000000 0.000000 0.000000 0.000000 0.032897 0.000000
# 6 0.000000 0.000000 0.000000 0.000000 0.000000 -3.097451
#
#
# Mechanical properties :
#
#
# Convention : Reuss Voigt Hill
#
# Bulk Modulus (GPa) = 80.85245 97.37495 89.11370
# Shear Modulus (GPa) = -1.69728 24.81672 11.55972
#
# Velocity S-wave (km/s) = -0.90484 3.45994 2.36140
# Velocity P-wave (km/s) = 6.15713 7.93307 7.10084
#
# Compressibility (1/GPa) = 0.01236821
#
# Stress axis : x y z
#
# Youngs Moduli (GPa) = 85.28104 71.65638 128.18670
#
# Poissons Ratio (x) = 0.18072 0.35488
# Poissons Ratio (y) = 0.21508 0.67512
# Poissons Ratio (z) = 0.23610 0.37739
#
# Static dielectric constant tensor:
#      x y z
#    x 2.072870 0.000000 0.000000 
#    y 0.000000 1.770440 0.000000 
#    z 0.000000 0.000000 1.716830 
# 
# From -- ./inp_files/29430.got.cif
#   From: 2010.05.17/outbox.cif.g08.bks.cpg/sg66_15_cif.got.tgz:29430.got - 2010.06.03 17:51:23.
