data_PCOD9498062
_publ_section_title
;
Structure prediction by ZEFSAII (Michael W. Deem and Ramdas Pophale) SiO2 
 PCOD9498062
Probable space group: C C C M
;
_chemical_formula_sum "Si O2"
_cell_formula_units_Z 80
_cell_length_a 10.059641
_cell_length_b 13.249725
_cell_length_c 25.453476
_cell_angle_alpha 90.000000
_cell_angle_beta 90.000000
_cell_angle_gamma 90.000000
_cell_volume 3392.629593
_symmetry_space_group_name_H-M "C C C M"
_symmetry_group_IT_number 66
_symmetry_cell_setting 'orthorhombic'
loop_
_space_group_symop_operation_xyz
x,y,z
-x,-y,z
x,-y,1/2-z
-x,y,1/2-z
-x,-y,-z
x,y,-z
-x,y,1/2+z
x,-y,1/2+z
1/2+x,1/2+y,z
1/2-x,1/2-y,z
1/2+x,1/2-y,1/2-z
1/2-x,1/2+y,1/2-z
1/2-x,1/2-y,-z
1/2+x,1/2+y,-z
1/2-x,1/2+y,1/2+z
1/2+x,1/2-y,1/2+z
loop_
_atom_site_type_symbol
_atom_site_label
_atom_site_fract_x
_atom_site_fract_y
_atom_site_fract_z
Si Si1 0.278954 0.145768 0.346219
Si Si2 0.821490 0.884893 0.234043
Si Si3 0.786733 0.541843 0.556339
Si Si4 0.063748 0.332053 0.056263
Si Si5 0.573165 0.799150 0.827448
O O1 0.250000 0.250000 0.376080
O O2 0.201432 0.154539 0.292491
O O3 0.226935 0.061873 0.386393
O O4 0.432936 0.142014 0.328468
O O5 0.685108 0.869858 0.199856
O O6 0.916422 0.807286 0.203022
O O7 0.853021 0.000000 0.250000
O O8 0.718009 0.561873 0.500000
O O9 0.838729 0.428097 0.555786
O O10 0.917521 0.615061 0.557691
O O11 0.092110 0.276307 0.110547
O O12 0.076129 0.277610 0.000000
#
# Coordination Sequence:
#
# PCOD9498062 Si02
#       5
#    16  16  16  16  16
#     4  11  21  35  56  81 117 154 193 239 291 348
#     4  11  23  38  59  81 112 153 199 247 294 339
#     4   8  15  28  51  85 116 146 191 239 294 348
#     4   8  14  29  55  84 114 147 186 243 299 347
#     4  10  21  38  58  84 119 146 197 245 292 356
#
# _framework density 23.580528000000001
#
# number of rings (size 3 to 8) (size 9 to 14) (size 15 to 20)
#    0.000    2.400    2.000    3.000    0.000    3.600 
#    0.000    4.000    0.000    1.200    0.000    0.000 
#    0.000   20.800    0.000    0.000    0.000    0.000 
#
# Total GULP energy -222776.946961 kJ/mol
# GULP energy per Si atom -5569.423674 kJ/mol
# Density = 2.352686 g / cm^3
# Si number density = 23.580528 Si / 1000 Ang^3
#
#
#
# Elastic Constant Matrix: (Units=GPa)
#
#
# Indices 1 2 3 4 5 6 
#
# 1 75.7485 -2.3640 25.5669 0.0000 0.0000 0.0000
# 2 -2.3640 89.2692 54.1878 0.0000 0.0000 0.0000
# 3 25.5669 54.1878 246.6856 0.0000 0.0000 0.0000
# 4 0.0000 0.0000 0.0000 107.7963 0.0000 0.0000
# 5 0.0000 0.0000 0.0000 0.0000 38.2281 0.0000
# 6 0.0000 0.0000 0.0000 0.0000 0.0000 9.2639
#
#
#
# Elastic Compliance Matrix: (Units=1/GPa)
#
#
# Indices 1 2 3 4 5 6 
#
# 1 0.013836 0.001427 -0.001747 0.000000 0.000000 0.000000
# 2 0.001427 0.013073 -0.003020 0.000000 0.000000 0.000000
# 3 -0.001747 -0.003020 0.004898 0.000000 0.000000 0.000000
# 4 0.000000 0.000000 0.000000 0.009277 0.000000 0.000000
# 5 0.000000 0.000000 0.000000 0.000000 0.026159 0.000000
# 6 0.000000 0.000000 0.000000 0.000000 0.000000 0.107946
#
#
# Mechanical properties :
#
#
# Convention : Reuss Voigt Hill
#
# Bulk Modulus (GPa) = 39.79762 62.94274 51.37018
# Shear Modulus (GPa) = 26.28214 53.34518 39.81366
#
# Velocity S-wave (km/s) = 3.34214 4.76148 4.11349
# Velocity P-wave (km/s) = 5.63978 7.54848 6.66283
#
# Compressibility (1/GPa) = 0.02512713
#
# Stress axis : x y z
#
# Youngs Moduli (GPa) = 72.27558 76.49493 204.15944
#
# Poissons Ratio (x) = -0.10917 0.35676
# Poissons Ratio (y) = -0.10315 0.61646
# Poissons Ratio (z) = 0.12630 0.23098
#
# Static dielectric constant tensor:
#      x y z
#    x 2.017910 0.000000 0.000000 
#    y 0.000000 2.789390 0.000000 
#    z 0.000000 0.000000 1.985500 
# 
# From -- ./inp_files/56548.got.cif
#   From: 2010.05.17/outbox.cif.g08.bks.cpg/sg66_29_cif.got.tgz:56548.got - 2010.06.03 17:51:23.
