data_PCOD9498617
_publ_section_title
;
Structure prediction by ZEFSAII (Michael W. Deem and Ramdas Pophale) SiO2 
 PCOD9498617
Probable space group: C C C M
;
_chemical_formula_sum "Si O2"
_cell_formula_units_Z 56
_cell_length_a 20.703305
_cell_length_b 9.147744
_cell_length_c 14.409988
_cell_angle_alpha 90.000000
_cell_angle_beta 90.000000
_cell_angle_gamma 90.000000
_cell_volume 2729.086504
_symmetry_space_group_name_H-M "C C C M"
_symmetry_group_IT_number 66
_symmetry_cell_setting 'orthorhombic'
loop_
_space_group_symop_operation_xyz
x,y,z
-x,-y,z
x,-y,1/2-z
-x,y,1/2-z
-x,-y,-z
x,y,-z
-x,y,1/2+z
x,-y,1/2+z
1/2+x,1/2+y,z
1/2-x,1/2-y,z
1/2+x,1/2-y,1/2-z
1/2-x,1/2+y,1/2-z
1/2-x,1/2-y,-z
1/2+x,1/2+y,-z
1/2-x,1/2+y,1/2+z
1/2+x,1/2-y,1/2+z
loop_
_atom_site_type_symbol
_atom_site_label
_atom_site_fract_x
_atom_site_fract_y
_atom_site_fract_z
Si Si1 0.558198 0.883053 0.000000
Si Si2 0.125936 0.105785 0.000000
Si Si3 0.152074 0.527174 0.140766
Si Si4 0.715579 0.607407 0.829319
Si Si5 0.828514 0.228920 0.000000
O O1 0.560149 0.704159 0.000000
O O2 0.500000 0.000000 0.000000
O O3 0.600044 0.930332 0.911475
O O4 0.164734 0.149617 0.906892
O O5 0.137518 0.929948 0.000000
O O6 0.144001 0.500000 0.250000
O O7 0.225234 0.475333 0.121030
O O8 0.147612 0.685541 0.092673
O O9 0.689885 0.500000 0.750000
O O10 0.750000 0.750000 0.786056
O O11 0.750000 0.250000 0.000000
#
# Coordination Sequence:
#
# PCOD9498617 Si02
#       5
#     8   8  16  16   8
#     4  11  24  44  62  82 119 179 239 284 318 383
#     4  12  22  36  58  91 133 170 220 276 330 405
#     4  10  22  38  61  91 129 167 216 272 348 420
#     4  11  22  34  58  93 136 166 205 266 356 425
#     4  11  21  35  58 100 136 171 205 268 350 430
#
# _framework density 20.519687000000001
#
# number of rings (size 3 to 8) (size 9 to 14) (size 15 to 20)
#    0.000    1.143    5.714    1.286    8.000    0.571 
#    0.000    2.857    0.000    0.000    0.000    8.000 
#    0.000    0.000    0.000    0.000    0.000    0.000 
#
# Total GULP energy -155940.641263 kJ/mol
# GULP energy per Si atom -5569.308617 kJ/mol
# Density = 2.047298 g / cm^3
# Si number density = 20.519687 Si / 1000 Ang^3
#
#
#
# Elastic Constant Matrix: (Units=GPa)
#
#
# Indices 1 2 3 4 5 6 
#
# 1 51.9296 40.2944 31.9489 0.0000 0.0000 0.0000
# 2 40.2944 183.7722 49.3179 0.0000 0.0000 0.0000
# 3 31.9489 49.3179 132.2868 0.0000 0.0000 0.0000
# 4 0.0000 0.0000 0.0000 -86.5182 0.0000 0.0000
# 5 0.0000 0.0000 0.0000 0.0000-1284.4506 0.0000
# 6 0.0000 0.0000 0.0000 0.0000 0.0000 36.9773
#
#
#
# Elastic Compliance Matrix: (Units=1/GPa)
#
#
# Indices 1 2 3 4 5 6 
#
# 1 0.025418 -0.004362 -0.004512 0.000000 0.000000 0.000000
# 2 -0.004362 0.006795 -0.001480 0.000000 0.000000 0.000000
# 3 -0.004512 -0.001480 0.009201 0.000000 0.000000 0.000000
# 4 0.000000 0.000000 0.000000 -0.011558 0.000000 0.000000
# 5 0.000000 0.000000 0.000000 0.000000 -0.000779 0.000000
# 6 0.000000 0.000000 0.000000 0.000000 0.000000 0.027044
#
#
# Mechanical properties :
#
#
# Convention : Reuss Voigt Hill
#
# Bulk Modulus (GPa) = 48.29766 67.90124 58.09945
# Shear Modulus (GPa) = 59.71497 -250.36979 -95.32741
#
# Velocity S-wave (km/s) = 5.40041 -11.05800 -6.82330
# Velocity P-wave (km/s) = 7.90407 11.39634 5.80526
#
# Compressibility (1/GPa) = 0.02070494
#
# Stress axis : x y z
#
# Youngs Moduli (GPa) = 39.34239 147.16475 108.68600
#
# Poissons Ratio (x) = 0.64196 0.49044
# Poissons Ratio (y) = 0.17162 0.16083
# Poissons Ratio (z) = 0.17753 0.21777
#
# Static dielectric constant tensor:
#      x y z
#    x 1.737630 0.000000 0.000000 
#    y 0.000000 1.875220 0.000000 
#    z 0.000000 0.000000 1.690980 
# 
# From -- ./inp_files/23895.got.cif
#   From: 2010.05.17/outbox.cif.g08.bks.cpg/sg66_12_cif.got.tgz:23895.got - 2010.06.03 17:51:23.
