data_PCOD9498464
_publ_section_title
;
Structure prediction by ZEFSAII (Michael W. Deem and Ramdas Pophale) SiO2 
 PCOD9498464
Probable space group: C C C M
;
_chemical_formula_sum "Si O2"
_cell_formula_units_Z 112
_cell_length_a 30.165829
_cell_length_b 10.412816
_cell_length_c 16.471447
_cell_angle_alpha 90.000000
_cell_angle_beta 90.000000
_cell_angle_gamma 90.000000
_cell_volume 5173.866425
_symmetry_space_group_name_H-M "C C C M"
_symmetry_group_IT_number 66
_symmetry_cell_setting 'orthorhombic'
loop_
_space_group_symop_operation_xyz
x,y,z
-x,-y,z
x,-y,1/2-z
-x,y,1/2-z
-x,-y,-z
x,y,-z
-x,y,1/2+z
x,-y,1/2+z
1/2+x,1/2+y,z
1/2-x,1/2-y,z
1/2+x,1/2-y,1/2-z
1/2-x,1/2+y,1/2-z
1/2-x,1/2-y,-z
1/2+x,1/2+y,-z
1/2-x,1/2+y,1/2+z
1/2+x,1/2-y,1/2+z
loop_
_atom_site_type_symbol
_atom_site_label
_atom_site_fract_x
_atom_site_fract_y
_atom_site_fract_z
Si Si1 0.559239 0.043907 0.657909
Si Si2 0.301134 0.274631 0.401827
Si Si3 0.047500 0.044431 0.342773
Si Si4 0.661496 0.010670 0.844034
Si Si5 0.355410 0.473099 0.902196
Si Si6 0.485130 0.201997 0.406249
Si Si7 0.701739 0.762803 0.904625
O O1 0.611508 0.041293 0.648968
O O2 0.532941 0.172941 0.634505
O O3 0.549211 0.000000 0.750000
O O4 0.540415 0.932685 0.600150
O O5 0.300837 0.275860 0.500000
O O6 0.250000 0.250000 0.375530
O O7 0.323948 0.408190 0.374915
O O8 0.330867 0.155141 0.372838
O O9 0.093564 0.993824 0.378092
O O10 0.043546 0.196666 0.355796
O O11 0.047073 0.000000 0.250000
O O12 0.000000 0.000000 0.379950
O O13 0.689253 0.910441 0.895853
O O14 0.674503 0.000000 0.750000
O O15 0.334102 0.339095 0.871701
O O16 0.354997 0.473727 0.000000
O O17 0.489568 0.240423 0.500000
O O18 0.750000 0.750000 0.865772
O O19 0.705203 0.731248 0.000000
#
# Coordination Sequence:
#
# PCOD9498464 Si02
#       7
#    16  16  16  16  16  16  16
#     4  10  23  39  66  92 127 167 205 259 329 390
#     4  10  21  41  69  97 128 168 213 264 327 393
#     4  11  27  42  63  87 128 177 220 262 327 395
#     4  11  24  39  60  94 127 165 212 258 312 380
#     4  10  22  41  66  97 130 167 216 274 326 385
#     4  11  23  41  65  94 124 158 213 272 317 373
#     4  10  22  41  65  93 128 168 210 262 327 392
#
# _framework density 21.647255000000001
#
# number of rings (size 3 to 8) (size 9 to 14) (size 15 to 20)
#    0.000    1.571    0.000    4.286    6.000    9.714 
#    0.000    1.429    0.000    0.000    0.000    0.000 
#    0.000    0.000    0.000    0.000    0.000    0.000 
#
# Total GULP energy -312754.103090 kJ/mol
# GULP energy per Si atom -5584.894698 kJ/mol
# Density = 2.159798 g / cm^3
# Si number density = 21.647255 Si / 1000 Ang^3
#
#
#
# Elastic Constant Matrix: (Units=GPa)
#
#
# Indices 1 2 3 4 5 6 
#
# 1 101.1028 6.3419 22.8718 0.0000 0.0000 0.0000
# 2 6.3419 78.7536 16.6593 0.0000 0.0000 0.0000
# 3 22.8718 16.6593 60.3154 0.0000 0.0000 0.0000
# 4 0.0000 0.0000 0.0000 15.4000 0.0000 0.0000
# 5 0.0000 0.0000 0.0000 0.0000 23.2782 0.0000
# 6 0.0000 0.0000 0.0000 0.0000 0.0000 7.0079
#
#
#
# Elastic Compliance Matrix: (Units=1/GPa)
#
#
# Indices 1 2 3 4 5 6 
#
# 1 0.010819 -0.000004 -0.004102 0.000000 0.000000 0.000000
# 2 -0.000004 0.013486 -0.003723 0.000000 0.000000 0.000000
# 3 -0.004102 -0.003723 0.019163 0.000000 0.000000 0.000000
# 4 0.000000 0.000000 0.000000 0.064935 0.000000 0.000000
# 5 0.000000 0.000000 0.000000 0.000000 0.042959 0.000000
# 6 0.000000 0.000000 0.000000 0.000000 0.000000 0.142696
#
#
# Mechanical properties :
#
#
# Convention : Reuss Voigt Hill
#
# Bulk Modulus (GPa) = 35.95730 36.87976 36.41853
# Shear Modulus (GPa) = 15.67472 22.09048 18.88260
#
# Velocity S-wave (km/s) = 2.69382 3.19795 2.95665
# Velocity P-wave (km/s) = 5.13052 5.54162 5.34003
#
# Compressibility (1/GPa) = 0.02781076
#
# Stress axis : x y z
#
# Youngs Moduli (GPa) = 92.42973 74.15223 52.18313
#
# Poissons Ratio (x) = 0.00027 0.21404
# Poissons Ratio (y) = 0.00033 0.19430
# Poissons Ratio (z) = 0.37911 0.27610
#
# Static dielectric constant tensor:
#      x y z
#    x 1.818220 0.000000 0.000000 
#    y 0.000000 1.829020 0.000000 
#    z 0.000000 0.000000 1.739290 
# 
# From -- ./inp_files/33836.got.cif
#   From: 2010.05.17/outbox.cif.g08.bks.cpg/sg66_17_cif.got.tgz:33836.got - 2010.06.03 17:51:23.
