data_PCOD9498975
_publ_section_title
;
Structure prediction by ZEFSAII (Michael W. Deem and Ramdas Pophale) SiO2 
 PCOD9498975
Probable space group: C C C M
;
_chemical_formula_sum "Si O2"
_cell_formula_units_Z 116
_cell_length_a 17.924272
_cell_length_b 13.002708
_cell_length_c 24.649688
_cell_angle_alpha 90.000000
_cell_angle_beta 90.000000
_cell_angle_gamma 90.000000
_cell_volume 5744.956731
_symmetry_space_group_name_H-M "C C C M"
_symmetry_group_IT_number 66
_symmetry_cell_setting 'orthorhombic'
loop_
_space_group_symop_operation_xyz
x,y,z
-x,-y,z
x,-y,1/2-z
-x,y,1/2-z
-x,-y,-z
x,y,-z
-x,y,1/2+z
x,-y,1/2+z
1/2+x,1/2+y,z
1/2-x,1/2-y,z
1/2+x,1/2-y,1/2-z
1/2-x,1/2+y,1/2-z
1/2-x,1/2-y,-z
1/2+x,1/2+y,-z
1/2-x,1/2+y,1/2+z
1/2+x,1/2-y,1/2+z
loop_
_atom_site_type_symbol
_atom_site_label
_atom_site_fract_x
_atom_site_fract_y
_atom_site_fract_z
Si Si1 0.799711 0.352274 0.562449
Si Si2 0.449153 0.601868 0.943572
Si Si3 0.416945 0.546332 0.829852
Si Si4 0.053123 0.725278 0.199874
Si Si5 0.000000 0.500000 0.000000
Si Si6 0.473784 0.813829 0.584707
Si Si7 0.730988 0.557649 0.830173
Si Si8 0.710912 0.852439 0.722163
O O1 0.805397 0.394756 0.500000
O O2 0.750000 0.250000 0.559045
O O3 0.883808 0.325745 0.582126
O O4 0.758395 0.417481 0.609326
O O5 0.500000 0.500000 0.944752
O O6 0.400276 0.586010 0.890760
O O7 0.500921 0.702359 0.938366
O O8 0.406308 0.608322 0.000000
O O9 0.500000 0.500000 0.825961
O O10 0.419576 0.654739 0.798809
O O11 0.357932 0.455269 0.820188
O O12 0.124421 0.655805 0.210451
O O13 0.000000 0.711613 0.250000
O O14 0.010072 0.693317 0.144735
O O15 0.002611 0.591767 0.047723
O O16 0.767719 0.632218 0.785430
O O17 0.758143 0.446610 0.811578
O O18 0.750000 0.750000 0.702408
#
# Coordination Sequence:
#
# PCOD9498975 Si02
#       8
#    16  16  16  16   4  16  16  16
#     4  11  25  43  69 102 142 177 228 288 341 412
#     4   9  18  36  64  94 136 168 222 285 337 395
#     4  10  23  38  64 101 132 175 225 280 346 411
#     4  11  25  43  69  98 135 173 230 288 332 409
#     4  12  24  44  74  88 150 184 234 270 340 410
#     4  11  24  44  67 103 133 188 234 280 346 405
#     4  11  25  43  68  94 137 184 222 276 354 409
#     4  11  24  45  64  93 133 176 222 275 336 410
#
# _framework density 20.191623
#
# number of rings (size 3 to 8) (size 9 to 14) (size 15 to 20)
#    0.000    1.379    2.759    1.241    9.655    0.828 
#    0.000    0.000    0.000    0.414    0.000    0.000 
#    0.000    0.000    0.000    0.000    0.000    0.000 
#
# Total GULP energy -322907.348955 kJ/mol
# GULP energy per Si atom -5567.368085 kJ/mol
# Density = 2.014567 g / cm^3
# Si number density = 20.191623 Si / 1000 Ang^3
#
#
#
# Elastic Constant Matrix: (Units=GPa)
#
#
# Indices 1 2 3 4 5 6 
#
# 1 103.3824 10.5804 61.0550 0.0000 0.0000 0.0000
# 2 10.5804 107.6847 42.9062 0.0000 0.0000 0.0000
# 3 61.0550 42.9062 147.9924 0.0000 0.0000 0.0000
# 4 0.0000 0.0000 0.0000 2.0321 0.0000 0.0000
# 5 0.0000 0.0000 0.0000 0.0000 14.8082 0.0000
# 6 0.0000 0.0000 0.0000 0.0000 0.0000 20.5274
#
#
#
# Elastic Compliance Matrix: (Units=1/GPa)
#
#
# Indices 1 2 3 4 5 6 
#
# 1 0.012876 0.000963 -0.005591 0.000000 0.000000 0.000000
# 2 0.000963 0.010571 -0.003462 0.000000 0.000000 0.000000
# 3 -0.005591 -0.003462 0.010068 0.000000 0.000000 0.000000
# 4 0.000000 0.000000 0.000000 0.492109 0.000000 0.000000
# 5 0.000000 0.000000 0.000000 0.000000 0.067530 0.000000
# 6 0.000000 0.000000 0.000000 0.000000 0.000000 0.048715
#
#
# Mechanical properties :
#
#
# Convention : Reuss Voigt Hill
#
# Bulk Modulus (GPa) = 57.69052 65.34921 61.51987
# Shear Modulus (GPa) = 7.53205 23.77471 15.65338
#
# Velocity S-wave (km/s) = 1.93349 3.43513 2.78734
# Velocity P-wave (km/s) = 5.79811 6.94033 6.39478
#
# Compressibility (1/GPa) = 0.01733387
#
# Stress axis : x y z
#
# Youngs Moduli (GPa) = 77.66148 94.59675 99.32921
#
# Poissons Ratio (x) = -0.09107 0.55538
# Poissons Ratio (y) = -0.07476 0.34388
# Poissons Ratio (z) = 0.43423 0.32749
#
# Static dielectric constant tensor:
#      x y z
#    x 1.707870 0.000000 0.000000 
#    y 0.000000 1.723310 0.000000 
#    z 0.000000 0.000000 1.786140 
# 
# From -- ./inp_files/65335.got.cif
#   From: 2010.05.17/outbox.cif.g08.bks.cpg/sg66_33_cif.got.tgz:65335.got - 2010.06.03 17:51:23.
