data_PCOD9498524
_publ_section_title
;
Structure prediction by ZEFSAII (Michael W. Deem and Ramdas Pophale) SiO2 
 PCOD9498524
Probable space group: C C C M
;
_chemical_formula_sum "Si O2"
_cell_formula_units_Z 48
_cell_length_a 16.826456
_cell_length_b 7.642499
_cell_length_c 15.732911
_cell_angle_alpha 90.000000
_cell_angle_beta 90.000000
_cell_angle_gamma 90.000000
_cell_volume 2023.192147
_symmetry_space_group_name_H-M "C C C M"
_symmetry_group_IT_number 66
_symmetry_cell_setting 'orthorhombic'
loop_
_space_group_symop_operation_xyz
x,y,z
-x,-y,z
x,-y,1/2-z
-x,y,1/2-z
-x,-y,-z
x,y,-z
-x,y,1/2+z
x,-y,1/2+z
1/2+x,1/2+y,z
1/2-x,1/2-y,z
1/2+x,1/2-y,1/2-z
1/2-x,1/2+y,1/2-z
1/2-x,1/2-y,-z
1/2+x,1/2+y,-z
1/2-x,1/2+y,1/2+z
1/2+x,1/2-y,1/2+z
loop_
_atom_site_type_symbol
_atom_site_label
_atom_site_fract_x
_atom_site_fract_y
_atom_site_fract_z
Si Si1 0.256660 0.956671 0.000000
Si Si2 0.320062 0.377877 0.831374
Si Si3 0.013384 0.290279 0.156509
Si Si4 0.431486 0.853322 0.000000
O O1 0.250000 0.750000 0.000000
O O2 0.216806 0.030679 0.914947
O O3 0.352040 0.966381 0.000000
O O4 0.338098 0.500000 0.750000
O O5 0.250000 0.250000 0.800011
O O6 0.397224 0.269385 0.861924
O O7 0.000000 0.500000 0.163848
O O8 0.000000 0.216723 0.250000
O O9 0.949533 0.239561 0.084181
O O10 0.500000 0.000000 0.000000
#
# Coordination Sequence:
#
# PCOD9498524 Si02
#       4
#     8  16  16   8
#     4  12  28  50  77 115 153 199 256 321 385 454
#     4  12  27  46  78 113 157 201 259 315 383 455
#     4  10  23  43  74 106 149 200 253 303 379 445
#     4  10  21  44  76  99 140 193 245 297 372 438
#
# _framework density 23.724883999999999
#
# number of rings (size 3 to 8) (size 9 to 14) (size 15 to 20)
#    0.000    1.000    0.000    6.500   14.000    0.667 
#    0.000    1.667    0.000    0.000    0.000    0.000 
#    0.000    0.000    0.000    0.000    0.000    0.000 
#
# Total GULP energy -134054.380864 kJ/mol
# GULP energy per Si atom -5585.599203 kJ/mol
# Density = 2.367088 g / cm^3
# Si number density = 23.724884 Si / 1000 Ang^3
#
#
#
# Elastic Constant Matrix: (Units=GPa)
#
#
# Indices 1 2 3 4 5 6 
#
# 1 200.9445 71.4865 70.8880 0.0000 0.0000 0.0000
# 2 71.4865 102.7369 36.4991 0.0000 0.0000 0.0000
# 3 70.8880 36.4991 221.6884 0.0000 0.0000 0.0000
# 4 0.0000 0.0000 0.0000 23.0172 0.0000 0.0000
# 5 0.0000 0.0000 0.0000 0.0000 25.8003 0.0000
# 6 0.0000 0.0000 0.0000 0.0000 0.0000 55.6411
#
#
#
# Elastic Compliance Matrix: (Units=1/GPa)
#
#
# Indices 1 2 3 4 5 6 
#
# 1 0.007078 -0.004377 -0.001543 0.000000 0.000000 0.000000
# 2 -0.004377 0.013045 -0.000748 0.000000 0.000000 0.000000
# 3 -0.001543 -0.000748 0.005127 0.000000 0.000000 0.000000
# 4 0.000000 0.000000 0.000000 0.043446 0.000000 0.000000
# 5 0.000000 0.000000 0.000000 0.000000 0.038759 0.000000
# 6 0.000000 0.000000 0.000000 0.000000 0.000000 0.017972
#
#
# Mechanical properties :
#
#
# Convention : Reuss Voigt Hill
#
# Bulk Modulus (GPa) = 83.92978 98.12411 91.02695
# Shear Modulus (GPa) = 35.03022 43.99148 39.51085
#
# Velocity S-wave (km/s) = 3.84672 4.31075 4.08533
# Velocity P-wave (km/s) = 7.42851 8.13792 7.79129
#
# Compressibility (1/GPa) = 0.01191472
#
# Stress axis : x y z
#
# Youngs Moduli (GPa) = 141.28795 76.65849 195.03492
#
# Poissons Ratio (x) = 0.33552 0.30086
# Poissons Ratio (y) = 0.61839 0.14592
# Poissons Ratio (z) = 0.21795 0.05735
#
# Static dielectric constant tensor:
#      x y z
#    x 1.821810 0.000000 0.000000 
#    y 0.000000 1.871780 0.000000 
#    z 0.000000 0.000000 2.131700 
# 
# From -- ./inp_files/39518.got.cif
#   From: 2010.05.17/outbox.cif.g08.bks.cpg/sg66_20_cif.got.tgz:39518.got - 2010.06.03 17:51:23.
