data_PCOD9498277
_publ_section_title
;
Structure prediction by ZEFSAII (Michael W. Deem and Ramdas Pophale) SiO2 
 PCOD9498277
Probable space group: C C C M
;
_chemical_formula_sum "Si O2"
_cell_formula_units_Z 96
_cell_length_a 22.752304
_cell_length_b 11.261731
_cell_length_c 17.174144
_cell_angle_alpha 90.000000
_cell_angle_beta 90.000000
_cell_angle_gamma 90.000000
_cell_volume 4400.536538
_symmetry_space_group_name_H-M "C C C M"
_symmetry_group_IT_number 66
_symmetry_cell_setting 'orthorhombic'
loop_
_space_group_symop_operation_xyz
x,y,z
-x,-y,z
x,-y,1/2-z
-x,y,1/2-z
-x,-y,-z
x,y,-z
-x,y,1/2+z
x,-y,1/2+z
1/2+x,1/2+y,z
1/2-x,1/2-y,z
1/2+x,1/2-y,1/2-z
1/2-x,1/2+y,1/2-z
1/2-x,1/2-y,-z
1/2+x,1/2+y,-z
1/2-x,1/2+y,1/2+z
1/2+x,1/2-y,1/2+z
loop_
_atom_site_type_symbol
_atom_site_label
_atom_site_fract_x
_atom_site_fract_y
_atom_site_fract_z
Si Si1 0.266692 0.879010 0.698723
Si Si2 0.415678 0.299673 0.406814
Si Si3 0.127160 0.641722 0.585611
Si Si4 0.566153 0.049173 0.835594
Si Si5 0.453491 0.356815 0.089035
Si Si6 0.346480 0.492681 0.842390
O O1 0.250000 0.750000 0.737903
O O2 0.323940 0.842865 0.650463
O O3 0.277868 0.000000 0.750000
O O4 0.214170 0.923469 0.640458
O O5 0.414018 0.271553 0.500000
O O6 0.423823 0.187916 0.349400
O O7 0.477958 0.368053 0.394188
O O8 0.360495 0.381428 0.382713
O O9 0.150800 0.666975 0.500000
O O10 0.105498 0.508870 0.597569
O O11 0.068361 0.720636 0.594648
O O12 0.500000 0.000000 0.845477
O O13 0.583407 0.000000 0.750000
O O14 0.404655 0.419443 0.139461
O O15 0.444027 0.396308 0.000000
O O16 0.343438 0.500000 0.750000
#
# Coordination Sequence:
#
# PCOD9498277 Si02
#       6
#    16  16  16  16  16  16
#     4  11  25  46  71  97 133 178 232 291 351 413
#     4  11  24  42  65  97 140 180 222 284 350 418
#     4  11  23  40  67  96 128 170 224 280 329 406
#     4  11  24  39  65  96 134 176 227 278 344 413
#     4  10  21  39  64  94 131 171 216 273 340 407
#     4  11  25  40  66  96 134 176 229 280 350 409
#
# _framework density 21.815522000000001
#
# number of rings (size 3 to 8) (size 9 to 14) (size 15 to 20)
#    0.000    1.167    3.333    2.000    2.333    7.667 
#    0.000    0.000    0.000    2.500    0.000    0.000 
#    0.000    0.000    0.000    0.000    0.000    0.000 
#
# Total GULP energy -267491.441095 kJ/mol
# GULP energy per Si atom -5572.738356 kJ/mol
# Density = 2.176587 g / cm^3
# Si number density = 21.815522 Si / 1000 Ang^3
#
#
#
# Elastic Constant Matrix: (Units=GPa)
#
#
# Indices 1 2 3 4 5 6 
#
# 1 74.9937 6.5633 13.2535 0.0000 0.0000 0.0000
# 2 6.5633 91.0230 13.6456 0.0000 0.0000 0.0000
# 3 13.2535 13.6456 37.1958 0.0000 0.0000 0.0000
# 4 0.0000 0.0000 0.0000 27.4306 0.0000 0.0000
# 5 0.0000 0.0000 0.0000 0.0000 11.1439 0.0000
# 6 0.0000 0.0000 0.0000 0.0000 0.0000 12.1877
#
#
#
# Elastic Compliance Matrix: (Units=1/GPa)
#
#
# Indices 1 2 3 4 5 6 
#
# 1 0.014237 -0.000282 -0.004970 0.000000 0.000000 0.000000
# 2 -0.000282 0.011631 -0.004167 0.000000 0.000000 0.000000
# 3 -0.004970 -0.004167 0.030184 0.000000 0.000000 0.000000
# 4 0.000000 0.000000 0.000000 0.036456 0.000000 0.000000
# 5 0.000000 0.000000 0.000000 0.000000 0.089735 0.000000
# 6 0.000000 0.000000 0.000000 0.000000 0.000000 0.082050
#
#
# Mechanical properties :
#
#
# Convention : Reuss Voigt Hill
#
# Bulk Modulus (GPa) = 26.86963 30.01526 28.44244
# Shear Modulus (GPa) = 16.91849 21.46913 19.19381
#
# Velocity S-wave (km/s) = 2.78785 3.14047 2.96940
# Velocity P-wave (km/s) = 4.76511 5.19025 4.98221
#
# Compressibility (1/GPa) = 0.03721674
#
# Stress axis : x y z
#
# Youngs Moduli (GPa) = 70.23760 85.97581 33.13001
#
# Poissons Ratio (x) = 0.02421 0.16465
# Poissons Ratio (y) = 0.01978 0.13804
# Poissons Ratio (z) = 0.34906 0.35823
#
# Static dielectric constant tensor:
#      x y z
#    x 1.828550 0.000000 0.000000 
#    y 0.000000 1.888350 0.000000 
#    z 0.000000 0.000000 1.799520 
# 
# From -- ./inp_files/43590.got.cif
#   From: 2010.05.17/outbox.cif.g08.bks.cpg/sg66_22_cif.got.tgz:43590.got - 2010.06.03 17:51:23.
