data_PCOD9498131
_publ_section_title
;
Structure prediction by ZEFSAII (Michael W. Deem and Ramdas Pophale) SiO2 
 PCOD9498131
Probable space group: C C C M
;
_chemical_formula_sum "Si O2"
_cell_formula_units_Z 96
_cell_length_a 15.664248
_cell_length_b 20.419114
_cell_length_c 15.815781
_cell_angle_alpha 90.000000
_cell_angle_beta 90.000000
_cell_angle_gamma 90.000000
_cell_volume 5058.678591
_symmetry_space_group_name_H-M "C C C M"
_symmetry_group_IT_number 66
_symmetry_cell_setting 'orthorhombic'
loop_
_space_group_symop_operation_xyz
x,y,z
-x,-y,z
x,-y,1/2-z
-x,y,1/2-z
-x,-y,-z
x,y,-z
-x,y,1/2+z
x,-y,1/2+z
1/2+x,1/2+y,z
1/2-x,1/2-y,z
1/2+x,1/2-y,1/2-z
1/2-x,1/2+y,1/2-z
1/2-x,1/2-y,-z
1/2+x,1/2+y,-z
1/2-x,1/2+y,1/2+z
1/2+x,1/2-y,1/2+z
loop_
_atom_site_type_symbol
_atom_site_label
_atom_site_fract_x
_atom_site_fract_y
_atom_site_fract_z
Si Si1 0.737928 0.535360 0.335099
Si Si2 0.016918 0.112687 0.000000
Si Si3 0.436735 0.690325 0.670846
Si Si4 0.907716 0.525465 0.098870
Si Si5 0.759508 0.823091 0.269728
Si Si6 0.131370 0.983625 0.000000
Si Si7 0.075418 0.659166 0.316170
O O1 0.705742 0.500000 0.250000
O O2 0.834557 0.510908 0.348865
O O3 0.728427 0.613517 0.327807
O O4 0.687017 0.512338 0.416228
O O5 0.039051 0.151568 0.086049
O O6 0.920984 0.084446 0.000000
O O7 0.071665 0.046604 0.000000
O O8 0.500000 0.674780 0.750000
O O9 0.339714 0.678598 0.704482
O O10 0.446036 0.767890 0.652268
O O11 0.912119 0.602861 0.115277
O O12 0.000000 0.500000 0.124452
O O13 0.893792 0.511477 0.000000
O O14 0.750000 0.750000 0.308562
O O15 0.668022 0.835586 0.227014
O O16 0.000000 0.641451 0.250000
#
# Coordination Sequence:
#
# PCOD9498131 Si02
#       7
#    16   8  16  16  16   8  16
#     4  12  22  40  67  87 125 169 203 256 323 363
#     4  11  24  42  64  87 125 165 202 272 320 358
#     4  10  22  41  64  92 125 161 211 256 317 381
#     4  11  24  38  58  93 127 159 207 254 308 383
#     4  10  21  38  61  93 122 161 211 256 305 372
#     4  11  26  42  59  94 121 154 228 262 300 385
#     4  10  21  39  63  92 124 161 205 253 307 383
#
# _framework density 18.977287
#
# number of rings (size 3 to 8) (size 9 to 14) (size 15 to 20)
#    0.000    1.333    2.500    3.000    1.167    0.000 
#    0.000    3.333    0.000    0.000    0.000    0.000 
#    0.000    0.000    0.000    0.000    0.000    0.000 
#
# Total GULP energy -267861.381354 kJ/mol
# GULP energy per Si atom -5580.445445 kJ/mol
# Density = 1.893409 g / cm^3
# Si number density = 18.977287 Si / 1000 Ang^3
#
#
#
# Elastic Constant Matrix: (Units=GPa)
#
#
# Indices 1 2 3 4 5 6 
#
# 1 92.7274 12.8041 34.7108 0.0000 0.0000 0.0000
# 2 12.8041 96.6864 41.3557 0.0000 0.0000 0.0000
# 3 34.7108 41.3557 92.5500 0.0000 0.0000 0.0000
# 4 0.0000 0.0000 0.0000 41.0042 0.0000 0.0000
# 5 0.0000 0.0000 0.0000 0.0000 16.0085 0.0000
# 6 0.0000 0.0000 0.0000 0.0000 0.0000 14.5613
#
#
#
# Elastic Compliance Matrix: (Units=1/GPa)
#
#
# Indices 1 2 3 4 5 6 
#
# 1 0.012560 0.000435 -0.004905 0.000000 0.000000 0.000000
# 2 0.000435 0.012802 -0.005883 0.000000 0.000000 0.000000
# 3 -0.004905 -0.005883 0.015274 0.000000 0.000000 0.000000
# 4 0.000000 0.000000 0.000000 0.024388 0.000000 0.000000
# 5 0.000000 0.000000 0.000000 0.000000 0.062467 0.000000
# 6 0.000000 0.000000 0.000000 0.000000 0.000000 0.068675
#
#
# Mechanical properties :
#
#
# Convention : Reuss Voigt Hill
#
# Bulk Modulus (GPa) = 50.18032 51.07834 50.62933
# Shear Modulus (GPa) = 22.36983 27.18769 24.77876
#
# Velocity S-wave (km/s) = 3.43704 3.78913 3.61738
# Velocity P-wave (km/s) = 6.50006 6.79097 6.64711
#
# Compressibility (1/GPa) = 0.01992813
#
# Stress axis : x y z
#
# Youngs Moduli (GPa) = 79.61544 78.11491 65.47263
#
# Poissons Ratio (x) = -0.03395 0.32114
# Poissons Ratio (y) = -0.03460 0.38520
# Poissons Ratio (z) = 0.39051 0.45958
#
# Static dielectric constant tensor:
#      x y z
#    x 1.662110 0.000000 0.000000 
#    y 0.000000 1.686720 0.000000 
#    z 0.000000 0.000000 1.642700 
# 
# From -- ./inp_files/28444.got.cif
#   From: 2010.05.17/outbox.cif.g08.bks.cpg/sg66_15_cif.got.tgz:28444.got - 2010.06.03 17:51:23.
