data_PCOD9498499
_publ_section_title
;
Structure prediction by ZEFSAII (Michael W. Deem and Ramdas Pophale) SiO2 
 PCOD9498499
Probable space group: C C C M
;
_chemical_formula_sum "Si O2"
_cell_formula_units_Z 36
_cell_length_a 4.910454
_cell_length_b 13.299903
_cell_length_c 23.167968
_cell_angle_alpha 90.000000
_cell_angle_beta 90.000000
_cell_angle_gamma 90.000000
_cell_volume 1513.066672
_symmetry_space_group_name_H-M "C C C M"
_symmetry_group_IT_number 66
_symmetry_cell_setting 'orthorhombic'
loop_
_space_group_symop_operation_xyz
x,y,z
-x,-y,z
x,-y,1/2-z
-x,y,1/2-z
-x,-y,-z
x,y,-z
-x,y,1/2+z
x,-y,1/2+z
1/2+x,1/2+y,z
1/2-x,1/2-y,z
1/2+x,1/2-y,1/2-z
1/2-x,1/2+y,1/2-z
1/2-x,1/2-y,-z
1/2+x,1/2+y,-z
1/2-x,1/2+y,1/2+z
1/2+x,1/2-y,1/2+z
loop_
_atom_site_type_symbol
_atom_site_label
_atom_site_fract_x
_atom_site_fract_y
_atom_site_fract_z
Si Si1 0.754908 0.927127 0.563896
Si Si2 0.988443 0.684223 0.670868
Si Si3 0.000000 0.500000 0.250000
O O1 0.817312 0.883144 0.500000
O O2 0.671418 0.852911 0.614322
O O3 0.500000 0.000000 0.557696
O O4 0.000000 0.000000 0.581193
O O5 0.750000 0.750000 0.703152
O O6 0.250000 0.750000 0.656383
O O7 0.101030 0.584970 0.704283
#
# Coordination Sequence:
#
# PCOD9498499 Si02
#       3
#    16  16   4
#     4  10  21  42  71 103 142 185 226 285 360 422
#     4  12  27  45  72 105 136 186 243 287 358 425
#     4  12  28  50  70  96 148 186 228 316 340 420
#
# _framework density 23.792738
#
# number of rings (size 3 to 8) (size 9 to 14) (size 15 to 20)
#    0.000    0.889    2.222    4.000    0.000    3.556 
#    0.000    0.000    0.000    0.000    0.000    0.000 
#    0.000    0.000    0.000    0.000    0.000    0.000 
#
# Total GULP energy -100333.706120 kJ/mol
# GULP energy per Si atom -5574.094784 kJ/mol
# Density = 2.373858 g / cm^3
# Si number density = 23.792738 Si / 1000 Ang^3
#
#
#
# Elastic Constant Matrix: (Units=GPa)
#
#
# Indices 1 2 3 4 5 6 
#
# 1 174.0489 62.5694 25.7884 0.0000 0.0000 0.0000
# 2 62.5694 154.7559 68.7830 0.0000 0.0000 0.0000
# 3 25.7884 68.7830 136.1172 0.0000 0.0000 0.0000
# 4 0.0000 0.0000 0.0000 31.1549 0.0000 0.0000
# 5 0.0000 0.0000 0.0000 0.0000 57.3057 0.0000
# 6 0.0000 0.0000 0.0000 0.0000 0.0000 43.5640
#
#
#
# Elastic Compliance Matrix: (Units=1/GPa)
#
#
# Indices 1 2 3 4 5 6 
#
# 1 0.006724 -0.002776 0.000129 0.000000 0.000000 0.000000
# 2 -0.002776 0.009479 -0.004264 0.000000 0.000000 0.000000
# 3 0.000129 -0.004264 0.009477 0.000000 0.000000 0.000000
# 4 0.000000 0.000000 0.000000 0.032098 0.000000 0.000000
# 5 0.000000 0.000000 0.000000 0.000000 0.017450 0.000000
# 6 0.000000 0.000000 0.000000 0.000000 0.000000 0.022955
#
#
# Mechanical properties :
#
#
# Convention : Reuss Voigt Hill
#
# Bulk Modulus (GPa) = 84.33146 86.57817 85.45481
# Shear Modulus (GPa) = 43.11870 46.92369 45.02119
#
# Velocity S-wave (km/s) = 4.26169 4.44575 4.35469
# Velocity P-wave (km/s) = 7.72898 7.92593 7.82807
#
# Compressibility (1/GPa) = 0.01185797
#
# Stress axis : x y z
#
# Youngs Moduli (GPa) = 148.71274 105.49155 105.51837
#
# Poissons Ratio (x) = 0.29284 -0.01359
# Poissons Ratio (y) = 0.41282 0.44996
# Poissons Ratio (z) = -0.01915 0.44984
#
# Static dielectric constant tensor:
#      x y z
#    x 1.855790 0.000000 0.000000 
#    y 0.000000 2.063780 0.000000 
#    z 0.000000 0.000000 2.085010 
# 
# From -- ./inp_files/53556.got.cif
#   From: 2010.05.17/outbox.cif.g08.bks.cpg/sg66_27_cif.got.tgz:53556.got - 2010.06.03 17:51:23.
