data_PCOD9498306
_publ_section_title
;
Structure prediction by ZEFSAII (Michael W. Deem and Ramdas Pophale) SiO2 
 PCOD9498306
Probable space group: C C C M
;
_chemical_formula_sum "Si O2"
_cell_formula_units_Z 112
_cell_length_a 16.041820
_cell_length_b 11.114465
_cell_length_c 29.046037
_cell_angle_alpha 90.000000
_cell_angle_beta 90.000000
_cell_angle_gamma 90.000000
_cell_volume 5178.799385
_symmetry_space_group_name_H-M "C C C M"
_symmetry_group_IT_number 66
_symmetry_cell_setting 'orthorhombic'
loop_
_space_group_symop_operation_xyz
x,y,z
-x,-y,z
x,-y,1/2-z
-x,y,1/2-z
-x,-y,-z
x,y,-z
-x,y,1/2+z
x,-y,1/2+z
1/2+x,1/2+y,z
1/2-x,1/2-y,z
1/2+x,1/2-y,1/2-z
1/2-x,1/2+y,1/2-z
1/2-x,1/2-y,-z
1/2+x,1/2+y,-z
1/2-x,1/2+y,1/2+z
1/2+x,1/2-y,1/2+z
loop_
_atom_site_type_symbol
_atom_site_label
_atom_site_fract_x
_atom_site_fract_y
_atom_site_fract_z
Si Si1 0.763090 0.892431 0.946423
Si Si2 0.093344 0.984622 0.383996
Si Si3 0.576007 0.907004 0.947464
Si Si4 0.681167 0.009486 0.304829
Si Si5 0.945800 0.331814 0.793152
Si Si6 0.864521 0.088797 0.792458
Si Si7 0.898962 0.275731 0.645563
O O1 0.750000 0.750000 0.930255
O O2 0.832859 0.973432 0.921410
O O3 0.671680 0.953795 0.943181
O O4 0.785797 0.881387 0.000000
O O5 0.118507 0.864118 0.355732
O O6 0.091210 0.078118 0.341822
O O7 0.000000 0.000000 0.404511
O O8 0.575674 0.812208 0.906299
O O9 0.500000 0.000000 0.941769
O O10 0.569803 0.858561 0.000000
O O11 0.606782 0.926499 0.322684
O O12 0.770417 0.946620 0.306306
O O13 0.663359 0.000000 0.250000
O O14 0.669448 0.136210 0.330651
O O15 0.883790 0.224897 0.776965
O O16 0.000000 0.375351 0.750000
O O17 0.018827 0.287322 0.825021
O O18 0.888900 0.000000 0.750000
#
# Coordination Sequence:
#
# PCOD9498306 Si02
#       7
#    16  16  16  16  16  16  16
#     4  10  21  41  70 100 131 168 219 280 330 394
#     4  12  25  42  63  95 133 179 223 270 337 407
#     4  10  21  39  66 101 131 163 210 268 330 392
#     4  11  24  40  61  93 120 166 221 279 325 385
#     4  12  23  41  63  86 129 168 218 270 329 394
#     4  11  26  41  60  87 129 174 219 264 331 396
#     4  12  23  39  66  94 127 168 217 270 326 388
#
# _framework density 21.626635
#
# number of rings (size 3 to 8) (size 9 to 14) (size 15 to 20)
#    0.000    0.857    4.286    3.429    0.000    0.286 
#    0.000    0.000    0.000    0.000    0.000    3.000 
#    0.000    0.000    0.000    0.000    0.000    0.000 
#
# Total GULP energy -311960.532730 kJ/mol
# GULP energy per Si atom -5570.723799 kJ/mol
# Density = 2.157741 g / cm^3
# Si number density = 21.626635 Si / 1000 Ang^3
#
#
#
# Elastic Constant Matrix: (Units=GPa)
#
#
# Indices 1 2 3 4 5 6 
#
# 1 143.1570 36.7611 26.7997 0.0000 0.0000 0.0000
# 2 36.7611 78.4237 10.5099 0.0000 0.0000 0.0000
# 3 26.7997 10.5099 87.1485 0.0000 0.0000 0.0000
# 4 0.0000 0.0000 0.0000 25.5469 0.0000 0.0000
# 5 0.0000 0.0000 0.0000 0.0000 -54.8436 0.0000
# 6 0.0000 0.0000 0.0000 0.0000 0.0000 36.8555
#
#
#
# Elastic Compliance Matrix: (Units=1/GPa)
#
#
# Indices 1 2 3 4 5 6 
#
# 1 0.008309 -0.003611 -0.002120 0.000000 0.000000 0.000000
# 2 -0.003611 0.014530 -0.000642 0.000000 0.000000 0.000000
# 3 -0.002120 -0.000642 0.012204 0.000000 0.000000 0.000000
# 4 0.000000 0.000000 0.000000 0.039144 0.000000 0.000000
# 5 0.000000 0.000000 0.000000 0.000000 -0.018234 0.000000
# 6 0.000000 0.000000 0.000000 0.000000 0.000000 0.027133
#
#
# Mechanical properties :
#
#
# Convention : Reuss Voigt Hill
#
# Bulk Modulus (GPa) = 44.84696 50.76339 47.80517
# Shear Modulus (GPa) = 48.41947 17.15566 32.78757
#
# Velocity S-wave (km/s) = 4.73682 2.81955 3.89790
# Velocity P-wave (km/s) = 7.12029 5.84153 6.51237
#
# Compressibility (1/GPa) = 0.02229806
#
# Stress axis : x y z
#
# Youngs Moduli (GPa) = 120.34508 68.82354 81.94066
#
# Poissons Ratio (x) = 0.24852 0.17370
# Poissons Ratio (y) = 0.43456 0.05259
# Poissons Ratio (z) = 0.25511 0.04417
#
# Static dielectric constant tensor:
#      x y z
#    x 1.926750 0.000000 0.000000 
#    y 0.000000 1.928770 0.000000 
#    z 0.000000 0.000000 1.897640 
# 
# From -- ./inp_files/69553.got.cif
#   From: 2010.05.17/outbox.cif.g08.bks.cpg/sg66_35_cif.got.tgz:69553.got - 2010.06.03 17:51:23.
