data_PCOD9498051
_publ_section_title
;
Structure prediction by ZEFSAII (Michael W. Deem and Ramdas Pophale) SiO2 
 PCOD9498051
Probable space group: C C C M
;
_chemical_formula_sum "Si O2"
_cell_formula_units_Z 104
_cell_length_a 9.785391
_cell_length_b 24.273018
_cell_length_c 24.038031
_cell_angle_alpha 90.000000
_cell_angle_beta 90.000000
_cell_angle_gamma 90.000000
_cell_volume 5709.536485
_symmetry_space_group_name_H-M "C C C M"
_symmetry_group_IT_number 66
_symmetry_cell_setting 'orthorhombic'
loop_
_space_group_symop_operation_xyz
x,y,z
-x,-y,z
x,-y,1/2-z
-x,y,1/2-z
-x,-y,-z
x,y,-z
-x,y,1/2+z
x,-y,1/2+z
1/2+x,1/2+y,z
1/2-x,1/2-y,z
1/2+x,1/2-y,1/2-z
1/2-x,1/2+y,1/2-z
1/2-x,1/2-y,-z
1/2+x,1/2+y,-z
1/2-x,1/2+y,1/2+z
1/2+x,1/2-y,1/2+z
loop_
_atom_site_type_symbol
_atom_site_label
_atom_site_fract_x
_atom_site_fract_y
_atom_site_fract_z
Si Si1 0.265100 0.398041 0.266119
Si Si2 0.063421 0.853648 0.867505
Si Si3 0.641960 0.972973 0.637473
Si Si4 0.500000 0.826585 0.750000
Si Si5 0.884157 0.046789 0.656394
Si Si6 0.839008 0.631885 0.434216
Si Si7 0.411086 0.233295 0.639260
O O1 0.367649 0.362717 0.305746
O O2 0.201581 0.440992 0.309510
O O3 0.336972 0.430108 0.216254
O O4 0.137531 0.362802 0.243361
O O5 0.183480 0.863124 0.911999
O O6 0.016208 0.790936 0.874043
O O7 0.950796 0.900620 0.873390
O O8 0.616279 0.927049 0.590420
O O9 0.500000 0.000000 0.652498
O O10 0.756682 0.018764 0.625158
O O11 0.529754 0.790347 0.696080
O O12 0.000000 0.000000 0.662826
O O13 0.848681 0.634570 0.500000
O O14 0.914663 0.683692 0.405194
O O15 0.250000 0.250000 0.645247
#
# Coordination Sequence:
#
# PCOD9498051 Si02
#       7
#    16  16  16   8  16  16  16
#     4  11  22  33  54  86 126 168 198 232 308 370
#     4  10  22  38  54  92 119 158 214 250 299 375
#     4  11  23  40  58  91 127 157 211 255 305 381
#     4  12  20  36  55  88 133 160 194 264 302 376
#     4  12  23  37  59  87 128 169 197 246 309 381
#     4  10  21  42  67  87 117 162 217 270 312 360
#     4  10  21  38  56  88 127 160 208 252 308 373
#
# _framework density 18.215139000000001
#
# number of rings (size 3 to 8) (size 9 to 14) (size 15 to 20)
#    0.000    1.231    7.692    1.846    4.308    3.692 
#    0.000    1.538    0.000    0.000    0.000    1.077 
#    0.000    0.000    0.000    0.000    0.000    0.000 
#
# Total GULP energy -290232.567693 kJ/mol
# GULP energy per Si atom -5581.395533 kJ/mol
# Density = 1.817368 g / cm^3
# Si number density = 18.215139 Si / 1000 Ang^3
#
#
#
# Elastic Constant Matrix: (Units=GPa)
#
#
# Indices 1 2 3 4 5 6 
#
# 1 40.9389 18.0786 -10.8898 0.0000 0.0000 0.0000
# 2 18.0786 109.4420 20.8757 0.0000 0.0000 0.0000
# 3 -10.8898 20.8757 69.7507 0.0000 0.0000 0.0000
# 4 0.0000 0.0000 0.0000 3.5017 0.0000 0.0000
# 5 0.0000 0.0000 0.0000 0.0000 7.9328 0.0000
# 6 0.0000 0.0000 0.0000 0.0000 0.0000 19.8028
#
#
#
# Elastic Compliance Matrix: (Units=1/GPa)
#
#
# Indices 1 2 3 4 5 6 
#
# 1 0.028714 -0.005937 0.006260 0.000000 0.000000 0.000000
# 2 -0.005937 0.010918 -0.004195 0.000000 0.000000 0.000000
# 3 0.006260 -0.004195 0.016570 0.000000 0.000000 0.000000
# 4 0.000000 0.000000 0.000000 0.285575 0.000000 0.000000
# 5 0.000000 0.000000 0.000000 0.000000 0.126059 0.000000
# 6 0.000000 0.000000 0.000000 0.000000 0.000000 0.050498
#
#
# Mechanical properties :
#
#
# Convention : Reuss Voigt Hill
#
# Bulk Modulus (GPa) = 20.63670 30.69560 25.66615
# Shear Modulus (GPa) = 9.22119 19.05193 14.13656
#
# Velocity S-wave (km/s) = 2.25241 3.23761 2.78886
# Velocity P-wave (km/s) = 4.25658 5.55558 4.94888
#
# Compressibility (1/GPa) = 0.04845736
#
# Stress axis : x y z
#
# Youngs Moduli (GPa) = 34.82662 91.59076 60.35178
#
# Poissons Ratio (x) = 0.54379 -0.37779
# Poissons Ratio (y) = 0.20677 0.25315
# Poissons Ratio (z) = -0.21801 0.38419
#
# Static dielectric constant tensor:
#      x y z
#    x 1.634450 0.000000 0.000000 
#    y 0.000000 1.692480 0.000000 
#    z 0.000000 0.000000 1.588470 
# 
# From -- ./inp_files/47402.got.cif
#   From: 2010.05.17/outbox.cif.g08.bks.cpg/sg66_24_cif.got.tgz:47402.got - 2010.06.03 17:51:23.
