data_PCOD9498099
_publ_section_title
;
Structure prediction by ZEFSAII (Michael W. Deem and Ramdas Pophale) SiO2 
 PCOD9498099
Probable space group: C C C M
;
_chemical_formula_sum "Si O2"
_cell_formula_units_Z 64
_cell_length_a 10.104307
_cell_length_b 11.777997
_cell_length_c 26.298889
_cell_angle_alpha 90.000000
_cell_angle_beta 90.000000
_cell_angle_gamma 90.000000
_cell_volume 3129.791267
_symmetry_space_group_name_H-M "C C C M"
_symmetry_group_IT_number 66
_symmetry_cell_setting 'orthorhombic'
loop_
_space_group_symop_operation_xyz
x,y,z
-x,-y,z
x,-y,1/2-z
-x,y,1/2-z
-x,-y,-z
x,y,-z
-x,y,1/2+z
x,-y,1/2+z
1/2+x,1/2+y,z
1/2-x,1/2-y,z
1/2+x,1/2-y,1/2-z
1/2-x,1/2+y,1/2-z
1/2-x,1/2-y,-z
1/2+x,1/2+y,-z
1/2-x,1/2+y,1/2+z
1/2+x,1/2-y,1/2+z
loop_
_atom_site_type_symbol
_atom_site_label
_atom_site_fract_x
_atom_site_fract_y
_atom_site_fract_z
Si Si1 0.250000 0.750000 0.262108
Si Si2 0.840582 0.999198 0.556820
Si Si3 0.791343 0.573504 0.841037
Si Si4 0.585482 0.832607 0.327598
Si Si5 0.750000 0.250000 0.084523
O O1 0.286048 0.644971 0.298961
O O2 0.371517 0.773021 0.224066
O O3 0.814663 0.045677 0.500000
O O4 0.780257 0.870135 0.557703
O O5 0.772631 0.068077 0.603068
O O6 0.000000 0.000000 0.564168
O O7 0.820684 0.444042 0.826669
O O8 0.935968 0.630479 0.836222
O O9 0.627025 0.764215 0.377297
#
# Coordination Sequence:
#
# PCOD9498099 Si02
#       5
#     8  16  16  16   8
#     4  11  20  32  62  88 118 162 200 251 310 372
#     4  10  22  41  63  92 127 164 213 271 324 382
#     4  10  21  38  60  88 123 161 206 255 310 382
#     4   9  20  39  59  88 123 160 204 253 309 382
#     4   9  19  38  67  88 123 162 203 261 318 374
#
# _framework density 20.448647999999999
#
# number of rings (size 3 to 8) (size 9 to 14) (size 15 to 20)
#    0.000    2.250    0.000    1.875    3.500    2.000 
#    4.500   11.875    0.000    0.000    0.000    0.000 
#    0.000    0.000    0.000    0.000    0.000    0.000 
#
# Total GULP energy -178332.994416 kJ/mol
# GULP energy per Si atom -5572.906075 kJ/mol
# Density = 2.040211 g / cm^3
# Si number density = 20.448648 Si / 1000 Ang^3
#
#
#
# Elastic Constant Matrix: (Units=GPa)
#
#
# Indices 1 2 3 4 5 6 
#
# 1 69.9406 33.2308 78.7054 0.0000 0.0000 0.0000
# 2 33.2308 34.1291 52.6309 0.0000 0.0000 0.0000
# 3 78.7054 52.6309 198.1785 0.0000 0.0000 0.0000
# 4 0.0000 0.0000 0.0000 55.2777 0.0000 0.0000
# 5 0.0000 0.0000 0.0000 0.0000 23.2663 0.0000
# 6 0.0000 0.0000 0.0000 0.0000 0.0000 27.9217
#
#
#
# Elastic Compliance Matrix: (Units=1/GPa)
#
#
# Indices 1 2 3 4 5 6 
#
# 1 0.032113 -0.019646 -0.007536 0.000000 0.000000 0.000000
# 2 -0.019646 0.061643 -0.008568 0.000000 0.000000 0.000000
# 3 -0.007536 -0.008568 0.010314 0.000000 0.000000 0.000000
# 4 0.000000 0.000000 0.000000 0.018090 0.000000 0.000000
# 5 0.000000 0.000000 0.000000 0.000000 0.042981 0.000000
# 6 0.000000 0.000000 0.000000 0.000000 0.000000 0.035814
#
#
# Mechanical properties :
#
#
# Convention : Reuss Voigt Hill
#
# Bulk Modulus (GPa) = 30.70410 70.15361 50.42886
# Shear Modulus (GPa) = 17.64837 30.47187 24.06012
#
# Velocity S-wave (km/s) = 2.94097 3.86445 3.43390
# Velocity P-wave (km/s) = 5.15560 7.36843 6.35901
#
# Compressibility (1/GPa) = 0.03256894
#
# Stress axis : x y z
#
# Youngs Moduli (GPa) = 31.14046 16.22247 96.95331
#
# Poissons Ratio (x) = 0.31871 0.73062
# Poissons Ratio (y) = 0.61180 0.83072
# Poissons Ratio (z) = 0.23467 0.13900
#
# Static dielectric constant tensor:
#      x y z
#    x 1.789210 0.000000 0.000000 
#    y 0.000000 1.781530 0.000000 
#    z 0.000000 0.000000 1.727620 
# 
# From -- ./inp_files/63327.got.cif
#   From: 2010.05.17/outbox.cif.g08.bks.cpg/sg66_32_cif.got.tgz:63327.got - 2010.06.03 17:51:23.
