data_PCOD9498418
_publ_section_title
;
Structure prediction by ZEFSAII (Michael W. Deem and Ramdas Pophale) SiO2 
 PCOD9498418
Probable space group: C C C M
;
_chemical_formula_sum "Si O2"
_cell_formula_units_Z 112
_cell_length_a 13.816874
_cell_length_b 15.336248
_cell_length_c 26.222459
_cell_angle_alpha 90.000000
_cell_angle_beta 90.000000
_cell_angle_gamma 90.000000
_cell_volume 5556.513003
_symmetry_space_group_name_H-M "C C C M"
_symmetry_group_IT_number 66
_symmetry_cell_setting 'orthorhombic'
loop_
_space_group_symop_operation_xyz
x,y,z
-x,-y,z
x,-y,1/2-z
-x,y,1/2-z
-x,-y,-z
x,y,-z
-x,y,1/2+z
x,-y,1/2+z
1/2+x,1/2+y,z
1/2-x,1/2-y,z
1/2+x,1/2-y,1/2-z
1/2-x,1/2+y,1/2-z
1/2-x,1/2-y,-z
1/2+x,1/2+y,-z
1/2-x,1/2+y,1/2+z
1/2+x,1/2-y,1/2+z
loop_
_atom_site_type_symbol
_atom_site_label
_atom_site_fract_x
_atom_site_fract_y
_atom_site_fract_z
Si Si1 0.417979 0.132937 0.795177
Si Si2 0.809729 0.475869 0.156845
Si Si3 0.655724 0.793002 0.704396
Si Si4 0.399872 0.464162 0.191268
Si Si5 0.867942 0.751596 0.440958
Si Si6 0.100420 0.545664 0.942460
Si Si7 0.006081 0.207656 0.846800
O O1 0.500000 0.127018 0.750000
O O2 0.380525 0.042079 0.814486
O O3 0.333472 0.177918 0.762419
O O4 0.445926 0.196299 0.841411
O O5 0.851024 0.381485 0.172189
O O6 0.700100 0.495763 0.171666
O O7 0.819822 0.485335 0.096845
O O8 0.750000 0.750000 0.683626
O O9 0.573942 0.720105 0.697854
O O10 0.500000 0.500000 0.168092
O O11 0.400605 0.500000 0.250000
O O12 0.416391 0.363545 0.173084
O O13 0.879556 0.784160 0.500000
O O14 0.750000 0.750000 0.431174
O O15 0.901705 0.650532 0.440753
O O16 0.938765 0.797774 0.398325
O O17 0.000000 0.500000 0.927267
O O18 0.121581 0.519059 0.000000
#
# Coordination Sequence:
#
# PCOD9498418 Si02
#       7
#    16  16  16  16  16  16  16
#     4  10  25  38  61  91 129 167 214 279 323 393
#     4  12  24  41  66  95 129 175 222 276 327 393
#     4  11  23  37  62  86 124 172 222 267 319 381
#     4  11  27  42  62  89 136 183 222 255 323 408
#     4  10  21  40  69  99 124 163 225 285 334 388
#     4  10  22  41  67  99 132 166 213 280 347 403
#     4  11  23  40  62  92 131 172 210 271 333 398
#
# _framework density 20.156525999999999
#
# number of rings (size 3 to 8) (size 9 to 14) (size 15 to 20)
#    0.000    1.286    1.429    3.429   14.000    1.714 
#    0.000    0.714    0.000    0.857    0.000    5.000 
#    0.000    0.000    0.000    0.000    0.000    0.000 
#
# Total GULP energy -311741.856682 kJ/mol
# GULP energy per Si atom -5566.818869 kJ/mol
# Density = 2.011065 g / cm^3
# Si number density = 20.156526 Si / 1000 Ang^3
#
#
#
# Elastic Constant Matrix: (Units=GPa)
#
#
# Indices 1 2 3 4 5 6 
#
# 1 80.1992 25.8719 44.5557 0.0000 0.0000 0.0000
# 2 25.8719 62.3429 21.0043 0.0000 0.0000 0.0000
# 3 44.5557 21.0043 118.6515 0.0000 0.0000 0.0000
# 4 0.0000 0.0000 0.0000 11.1551 0.0000 0.0000
# 5 0.0000 0.0000 0.0000 0.0000 30.8937 0.0000
# 6 0.0000 0.0000 0.0000 0.0000 0.0000 35.0514
#
#
#
# Elastic Compliance Matrix: (Units=1/GPa)
#
#
# Indices 1 2 3 4 5 6 
#
# 1 0.017256 -0.005294 -0.005543 0.000000 0.000000 0.000000
# 2 -0.005294 0.018682 -0.001319 0.000000 0.000000 0.000000
# 3 -0.005543 -0.001319 0.010743 0.000000 0.000000 0.000000
# 4 0.000000 0.000000 0.000000 0.089645 0.000000 0.000000
# 5 0.000000 0.000000 0.000000 0.000000 0.032369 0.000000
# 6 0.000000 0.000000 0.000000 0.000000 0.000000 0.028530
#
#
# Mechanical properties :
#
#
# Convention : Reuss Voigt Hill
#
# Bulk Modulus (GPa) = 44.70435 49.33969 47.02202
# Shear Modulus (GPa) = 21.83480 26.73750 24.28615
#
# Velocity S-wave (km/s) = 3.29487 3.64606 3.47490
# Velocity P-wave (km/s) = 6.05818 6.50049 6.28323
#
# Compressibility (1/GPa) = 0.02236919
#
# Stress axis : x y z
#
# Youngs Moduli (GPa) = 57.95063 53.52851 93.08376
#
# Poissons Ratio (x) = 0.28336 0.51595
# Poissons Ratio (y) = 0.30677 0.12280
# Poissons Ratio (z) = 0.32121 0.07062
#
# Static dielectric constant tensor:
#      x y z
#    x 1.831280 0.000000 0.000000 
#    y 0.000000 1.831170 0.000000 
#    z 0.000000 0.000000 1.768250 
# 
# From -- ./inp_files/64670.got.cif
#   From: 2010.05.17/outbox.cif.g08.bks.cpg/sg66_33_cif.got.tgz:64670.got - 2010.06.03 17:51:23.
