data_PCOD9498093
_publ_section_title
;
Structure prediction by ZEFSAII (Michael W. Deem and Ramdas Pophale) SiO2 
 PCOD9498093
Probable space group: C C C M
;
_chemical_formula_sum "Si O2"
_cell_formula_units_Z 80
_cell_length_a 5.119956
_cell_length_b 27.619183
_cell_length_c 25.279516
_cell_angle_alpha 90.000000
_cell_angle_beta 90.000000
_cell_angle_gamma 90.000000
_cell_volume 3574.751121
_symmetry_space_group_name_H-M "C C C M"
_symmetry_group_IT_number 66
_symmetry_cell_setting 'orthorhombic'
loop_
_space_group_symop_operation_xyz
x,y,z
-x,-y,z
x,-y,1/2-z
-x,y,1/2-z
-x,-y,-z
x,y,-z
-x,y,1/2+z
x,-y,1/2+z
1/2+x,1/2+y,z
1/2-x,1/2-y,z
1/2+x,1/2-y,1/2-z
1/2-x,1/2+y,1/2-z
1/2-x,1/2-y,-z
1/2+x,1/2+y,-z
1/2-x,1/2+y,1/2+z
1/2+x,1/2-y,1/2+z
loop_
_atom_site_type_symbol
_atom_site_label
_atom_site_fract_x
_atom_site_fract_y
_atom_site_fract_z
Si Si1 0.002345 0.441199 0.440206
Si Si2 0.746607 0.691242 0.559153
Si Si3 0.753515 0.121927 0.284511
Si Si4 0.494618 0.441798 0.124361
Si Si5 0.245790 0.691901 0.377451
O O1 0.059183 0.425182 0.500000
O O2 0.715514 0.427980 0.420478
O O3 0.000000 0.500000 0.441222
O O4 0.221034 0.426737 0.397248
O O5 0.682640 0.675117 0.500000
O O6 0.750000 0.750000 0.558080
O O7 0.529797 0.676878 0.601632
O O8 0.033992 0.677989 0.578332
O O9 0.500000 0.107319 0.250000
O O10 0.879928 0.080579 0.321937
O O11 0.673515 0.165002 0.323863
O O12 0.000000 0.138830 0.250000
O O13 0.500000 0.500000 0.129744
O O14 0.250000 0.750000 0.370969
#
# Coordination Sequence:
#
# PCOD9498093 Si02
#       5
#    16  16  16  16  16
#     4   9  17  33  60  90 120 151 181 223 284 355
#     4   9  17  33  59  89 122 157 191 235 293 360
#     4  12  26  43  61  83 115 155 205 262 305 341
#     4  10  21  39  60  85 116 150 190 235 289 353
#     4  10  21  38  60  87 119 156 199 244 297 360
#
# _framework density 22.379179000000001
#
# number of rings (size 3 to 8) (size 9 to 14) (size 15 to 20)
#    0.000    2.000    0.000    3.600    0.000    6.000 
#    0.000    7.000    0.000    0.000    0.000    0.000 
#    0.000    0.000    0.000    0.000    0.000    0.000 
#
# Total GULP energy -223697.752014 kJ/mol
# GULP energy per Si atom -5592.443800 kJ/mol
# Density = 2.232824 g / cm^3
# Si number density = 22.379179 Si / 1000 Ang^3
#
#
#
# Elastic Constant Matrix: (Units=GPa)
#
#
# Indices 1 2 3 4 5 6 
#
# 1 111.2054 15.6346 31.1946 0.0000 0.0000 0.0000
# 2 15.6346 88.3348 19.5395 0.0000 0.0000 0.0000
# 3 31.1946 19.5395 114.1009 0.0000 0.0000 0.0000
# 4 0.0000 0.0000 0.0000 22.5243 0.0000 0.0000
# 5 0.0000 0.0000 0.0000 0.0000 51.2092 0.0000
# 6 0.0000 0.0000 0.0000 0.0000 0.0000 28.7715
#
#
#
# Elastic Compliance Matrix: (Units=1/GPa)
#
#
# Indices 1 2 3 4 5 6 
#
# 1 0.009859 -0.001194 -0.002491 0.000000 0.000000 0.000000
# 2 -0.001194 0.011911 -0.001713 0.000000 0.000000 0.000000
# 3 -0.002491 -0.001713 0.009739 0.000000 0.000000 0.000000
# 4 0.000000 0.000000 0.000000 0.044397 0.000000 0.000000
# 5 0.000000 0.000000 0.000000 0.000000 0.019528 0.000000
# 6 0.000000 0.000000 0.000000 0.000000 0.000000 0.034757
#
#
# Mechanical properties :
#
#
# Convention : Reuss Voigt Hill
#
# Bulk Modulus (GPa) = 48.28110 49.59763 48.93936
# Shear Modulus (GPa) = 33.80898 36.98582 35.39740
#
# Velocity S-wave (km/s) = 3.89103 4.06974 3.98139
# Velocity P-wave (km/s) = 6.46589 6.65539 6.56133
#
# Compressibility (1/GPa) = 0.02071204
#
# Stress axis : x y z
#
# Youngs Moduli (GPa) = 101.43045 83.95691 102.68447
#
# Poissons Ratio (x) = 0.10024 0.25578
# Poissons Ratio (y) = 0.12111 0.17593
# Poissons Ratio (z) = 0.25266 0.14384
#
# Static dielectric constant tensor:
#      x y z
#    x 1.778800 0.000000 0.000000 
#    y 0.000000 1.891150 0.000000 
#    z 0.000000 0.000000 1.788850 
# 
# From -- ./inp_files/54373.got.cif
#   From: 2010.05.17/outbox.cif.g08.bks.cpg/sg66_28_cif.got.tgz:54373.got - 2010.06.03 17:51:23.
