data_PCOD9498678
_publ_section_title
;
Structure prediction by ZEFSAII (Michael W. Deem and Ramdas Pophale) SiO2 
 PCOD9498678
Probable space group: C C C M
;
_chemical_formula_sum "Si O2"
_cell_formula_units_Z 64
_cell_length_a 13.868238
_cell_length_b 10.041378
_cell_length_c 19.725619
_cell_angle_alpha 90.000000
_cell_angle_beta 90.000000
_cell_angle_gamma 90.000000
_cell_volume 2746.915138
_symmetry_space_group_name_H-M "C C C M"
_symmetry_group_IT_number 66
_symmetry_cell_setting 'orthorhombic'
loop_
_space_group_symop_operation_xyz
x,y,z
-x,-y,z
x,-y,1/2-z
-x,y,1/2-z
-x,-y,-z
x,y,-z
-x,y,1/2+z
x,-y,1/2+z
1/2+x,1/2+y,z
1/2-x,1/2-y,z
1/2+x,1/2-y,1/2-z
1/2-x,1/2+y,1/2-z
1/2-x,1/2-y,-z
1/2+x,1/2+y,-z
1/2-x,1/2+y,1/2+z
1/2+x,1/2-y,1/2+z
loop_
_atom_site_type_symbol
_atom_site_label
_atom_site_fract_x
_atom_site_fract_y
_atom_site_fract_z
Si Si1 0.855361 0.243179 0.424096
Si Si2 0.565785 0.321952 0.921598
Si Si3 0.601316 0.025831 0.880420
Si Si4 0.787489 0.898198 0.695330
O O1 0.840262 0.188572 0.500000
O O2 0.750000 0.250000 0.389680
O O3 0.884724 0.397829 0.426848
O O4 0.952979 0.171183 0.398700
O O5 0.594058 0.165275 0.919075
O O6 0.639261 0.384077 0.867842
O O7 0.574048 0.367055 0.000000
O O8 0.690387 0.033387 0.830861
O O9 0.500000 0.000000 0.843447
O O10 0.750000 0.750000 0.717015
O O11 0.830028 0.000000 0.750000
#
# Coordination Sequence:
#
# PCOD9498678 Si02
#       4
#    16  16  16  16
#     4   9  17  31  56  92 130 163 197 246 312 383
#     4   9  18  35  61  93 125 161 210 267 325 380
#     4   9  18  33  57  87 118 158 208 261 313 368
#     4  10  22  39  63  93 127 169 216 267 323 386
#
# _framework density 23.298862
#
# number of rings (size 3 to 8) (size 9 to 14) (size 15 to 20)
#    0.000    2.750    0.000    0.750    0.000   10.000 
#    0.000    1.250    0.000   35.250    0.000    0.000 
#    0.000    0.000    0.000    0.000    0.000   12.750 
#
# Total GULP energy -178407.122937 kJ/mol
# GULP energy per Si atom -5575.222592 kJ/mol
# Density = 2.324583 g / cm^3
# Si number density = 23.298862 Si / 1000 Ang^3
#
#
#
# Elastic Constant Matrix: (Units=GPa)
#
#
# Indices 1 2 3 4 5 6 
#
# 1 195.8164 33.5549 66.1505 0.0000 0.0000 0.0000
# 2 33.5549 98.0539 51.5602 0.0000 0.0000 0.0000
# 3 66.1505 51.5602 101.1700 0.0000 0.0000 0.0000
# 4 0.0000 0.0000 0.0000 12.3037 0.0000 0.0000
# 5 0.0000 0.0000 0.0000 0.0000 -18.9233 0.0000
# 6 0.0000 0.0000 0.0000 0.0000 0.0000 33.2443
#
#
#
# Elastic Compliance Matrix: (Units=1/GPa)
#
#
# Indices 1 2 3 4 5 6 
#
# 1 0.006555 0.000014 -0.004293 0.000000 0.000000 0.000000
# 2 0.000014 0.013932 -0.007110 0.000000 0.000000 0.000000
# 3 -0.004293 -0.007110 0.016315 0.000000 0.000000 0.000000
# 4 0.000000 0.000000 0.000000 0.081276 0.000000 0.000000
# 5 0.000000 0.000000 0.000000 0.000000 -0.052845 0.000000
# 6 0.000000 0.000000 0.000000 0.000000 0.000000 0.030080
#
#
# Mechanical properties :
#
#
# Convention : Reuss Voigt Hill
#
# Bulk Modulus (GPa) = 71.30308 77.50793 74.40551
# Shear Modulus (GPa) = 40.72815 21.57658 31.15237
#
# Velocity S-wave (km/s) = 4.18553 3.04646 3.66057
# Velocity P-wave (km/s) = 7.35040 6.76118 7.06194
#
# Compressibility (1/GPa) = 0.01402464
#
# Stress axis : x y z
#
# Youngs Moduli (GPa) = 152.56320 71.77663 61.29378
#
# Poissons Ratio (x) = -0.00104 0.26314
# Poissons Ratio (y) = -0.00220 0.43579
# Poissons Ratio (z) = 0.65498 0.51032
#
# Static dielectric constant tensor:
#      x y z
#    x 1.922350 0.000000 0.000000 
#    y 0.000000 1.922800 0.000000 
#    z 0.000000 0.000000 1.875240 
# 
# From -- ./inp_files/38007.got.cif
#   From: 2010.05.17/outbox.cif.g08.bks.cpg/sg66_20_cif.got.tgz:38007.got - 2010.06.03 17:51:23.
