data_PCOD9498492
_publ_section_title
;
Structure prediction by ZEFSAII (Michael W. Deem and Ramdas Pophale) SiO2 
 PCOD9498492
Probable space group: C C C M
;
_chemical_formula_sum "Si O2"
_cell_formula_units_Z 112
_cell_length_a 25.731409
_cell_length_b 14.497165
_cell_length_c 14.588816
_cell_angle_alpha 90.000000
_cell_angle_beta 90.000000
_cell_angle_gamma 90.000000
_cell_volume 5442.102241
_symmetry_space_group_name_H-M "C C C M"
_symmetry_group_IT_number 66
_symmetry_cell_setting 'orthorhombic'
loop_
_space_group_symop_operation_xyz
x,y,z
-x,-y,z
x,-y,1/2-z
-x,y,1/2-z
-x,-y,-z
x,y,-z
-x,y,1/2+z
x,-y,1/2+z
1/2+x,1/2+y,z
1/2-x,1/2-y,z
1/2+x,1/2-y,1/2-z
1/2-x,1/2+y,1/2-z
1/2-x,1/2-y,-z
1/2+x,1/2+y,-z
1/2-x,1/2+y,1/2+z
1/2+x,1/2-y,1/2+z
loop_
_atom_site_type_symbol
_atom_site_label
_atom_site_fract_x
_atom_site_fract_y
_atom_site_fract_z
Si Si1 0.940287 0.649702 0.264863
Si Si2 0.542040 0.633857 0.103088
Si Si3 0.569995 0.417917 0.896763
Si Si4 0.909955 0.510810 0.107373
Si Si5 0.624819 0.318050 0.748328
Si Si6 0.241126 0.856382 0.748600
Si Si7 0.214365 0.504257 0.608722
O O1 0.923320 0.598015 0.171268
O O2 0.940441 0.573816 0.345783
O O3 0.893289 0.720217 0.290149
O O4 0.000000 0.683179 0.250000
O O5 0.482303 0.635213 0.133234
O O6 0.556539 0.525415 0.102261
O O7 0.583738 0.678900 0.166707
O O8 0.544277 0.669454 0.000000
O O9 0.612801 0.394233 0.824556
O O10 0.583039 0.390181 0.000000
O O11 0.847908 0.491313 0.116115
O O12 0.921833 0.523265 0.000000
O O13 0.681508 0.346158 0.717042
O O14 0.250000 0.750000 0.775520
O O15 0.272137 0.900837 0.663004
O O16 0.255282 0.924447 0.833574
O O17 0.227685 0.505990 0.500000
#
# Coordination Sequence:
#
# PCOD9498492 Si02
#       7
#    16  16  16  16  16  16  16
#     4  11  23  38  60  93 126 154 196 248 298 371
#     4   9  19  35  54  79 115 155 192 231 276 334
#     4   9  19  35  54  79 115 155 192 231 276 334
#     4  10  21  42  68  87 114 155 195 249 319 375
#     4  12  23  35  58  85 116 160 195 241 294 343
#     4  11  24  42  63  90 125 162 206 261 314 372
#     4  10  23  43  67  93 123 163 211 265 321 375
#
# _framework density 20.580282
#
# number of rings (size 3 to 8) (size 9 to 14) (size 15 to 20)
#    0.000    1.714    0.000    6.857    4.000    5.143 
#    0.000    0.000    0.000    0.000    0.000    0.000 
#    0.000    0.000    0.000    0.000    0.000    0.000 
#
# Total GULP energy -312257.069594 kJ/mol
# GULP energy per Si atom -5576.019100 kJ/mol
# Density = 2.053344 g / cm^3
# Si number density = 20.580282 Si / 1000 Ang^3
#
#
#
# Elastic Constant Matrix: (Units=GPa)
#
#
# Indices 1 2 3 4 5 6 
#
# 1 51.3944 -4.9444 7.7079 0.0000 0.0000 0.0000
# 2 -4.9444 51.7503 15.6977 0.0000 0.0000 0.0000
# 3 7.7079 15.6977 80.2681 0.0000 0.0000 0.0000
# 4 0.0000 0.0000 0.0000 23.7314 0.0000 0.0000
# 5 0.0000 0.0000 0.0000 0.0000 34.7468 0.0000
# 6 0.0000 0.0000 0.0000 0.0000 0.0000 28.7097
#
#
#
# Elastic Compliance Matrix: (Units=1/GPa)
#
#
# Indices 1 2 3 4 5 6 
#
# 1 0.020081 0.002661 -0.002449 0.000000 0.000000 0.000000
# 2 0.002661 0.020895 -0.004342 0.000000 0.000000 0.000000
# 3 -0.002449 -0.004342 0.013543 0.000000 0.000000 0.000000
# 4 0.000000 0.000000 0.000000 0.042138 0.000000 0.000000
# 5 0.000000 0.000000 0.000000 0.000000 0.028780 0.000000
# 6 0.000000 0.000000 0.000000 0.000000 0.000000 0.034831
#
#
# Mechanical properties :
#
#
# Convention : Reuss Voigt Hill
#
# Bulk Modulus (GPa) = 21.61717 24.48168 23.04943
# Shear Modulus (GPa) = 27.18192 28.43435 27.80813
#
# Velocity S-wave (km/s) = 3.63819 3.72106 3.67986
# Velocity P-wave (km/s) = 5.30803 5.51210 5.41103
#
# Compressibility (1/GPa) = 0.04625953
#
# Stress axis : x y z
#
# Youngs Moduli (GPa) = 49.79911 47.85861 73.84154
#
# Poissons Ratio (x) = -0.12737 0.18082
# Poissons Ratio (y) = -0.13253 0.32061
# Poissons Ratio (z) = 0.12195 0.20780
#
# Static dielectric constant tensor:
#      x y z
#    x 1.447570 0.000000 0.000000 
#    y 0.000000 1.866400 0.000000 
#    z 0.000000 0.000000 1.714960 
# 
# From -- ./inp_files/28748.got.cif
#   From: 2010.05.17/outbox.cif.g08.bks.cpg/sg66_15_cif.got.tgz:28748.got - 2010.06.03 17:51:23.
