data_PCOD9498090
_publ_section_title
;
Structure prediction by ZEFSAII (Michael W. Deem and Ramdas Pophale) SiO2 
 PCOD9498090
Probable space group: C C C M
;
_chemical_formula_sum "Si O2"
_cell_formula_units_Z 40
_cell_length_a 7.072696
_cell_length_b 8.163564
_cell_length_c 28.613576
_cell_angle_alpha 90.000000
_cell_angle_beta 90.000000
_cell_angle_gamma 90.000000
_cell_volume 1652.102281
_symmetry_space_group_name_H-M "C C C M"
_symmetry_group_IT_number 66
_symmetry_cell_setting 'orthorhombic'
loop_
_space_group_symop_operation_xyz
x,y,z
-x,-y,z
x,-y,1/2-z
-x,y,1/2-z
-x,-y,-z
x,y,-z
-x,y,1/2+z
x,-y,1/2+z
1/2+x,1/2+y,z
1/2-x,1/2-y,z
1/2+x,1/2-y,1/2-z
1/2-x,1/2+y,1/2-z
1/2-x,1/2-y,-z
1/2+x,1/2+y,-z
1/2-x,1/2+y,1/2+z
1/2+x,1/2-y,1/2+z
loop_
_atom_site_type_symbol
_atom_site_label
_atom_site_fract_x
_atom_site_fract_y
_atom_site_fract_z
Si Si1 0.719300 0.558084 0.500000
Si Si2 0.780104 0.055377 0.400077
Si Si3 0.779979 0.055163 0.300012
O O1 0.500000 0.500000 0.500000
O O2 0.750000 0.750000 0.500000
O O3 0.797357 0.498323 0.450245
O O4 0.750000 0.250000 0.398775
O O5 0.706374 0.987613 0.350065
O O6 0.000000 0.000000 0.400647
O O7 0.750000 0.250000 0.300972
O O8 0.701898 0.000000 0.250000
O O9 0.000000 0.000000 0.299541
#
# Coordination Sequence:
#
# PCOD9498090 Si02
#       3
#     8  16  16
#     4  10  21  38  60  86 116 152 192 238 288 342
#     4   9  18  35  57  83 114 150 190 235 285 340
#     4   9  18  34  57  83 114 150 190 235 285 339
#
# _framework density 24.211576999999998
#
# number of rings (size 3 to 8) (size 9 to 14) (size 15 to 20)
#    0.000    2.800    0.000    0.600    0.000    1.600 
#    0.000   20.000    0.000   43.200    0.000    0.000 
#    0.000    0.000    0.000    0.000    0.000    0.000 
#
# Total GULP energy -111471.839833 kJ/mol
# GULP energy per Si atom -5573.591992 kJ/mol
# Density = 2.415647 g / cm^3
# Si number density = 24.211577 Si / 1000 Ang^3
#
#
#
# Elastic Constant Matrix: (Units=GPa)
#
#
# Indices 1 2 3 4 5 6 
#
# 1 180.0397 33.8543 14.3184 0.0000 0.0000 0.0000
# 2 33.8543 120.6755 52.0010 0.0000 0.0000 0.0000
# 3 14.3184 52.0010 393.8078 0.0000 0.0000 0.0000
# 4 0.0000 0.0000 0.0000 78.1018 0.0000 0.0000
# 5 0.0000 0.0000 0.0000 0.0000 -74.5679 0.0000
# 6 0.0000 0.0000 0.0000 0.0000 0.0000 40.5202
#
#
#
# Elastic Compliance Matrix: (Units=1/GPa)
#
#
# Indices 1 2 3 4 5 6 
#
# 1 0.005864 -0.001647 0.000004 0.000000 0.000000 0.000000
# 2 -0.001647 0.009249 -0.001161 0.000000 0.000000 0.000000
# 3 0.000004 -0.001161 0.002693 0.000000 0.000000 0.000000
# 4 0.000000 0.000000 0.000000 0.012804 0.000000 0.000000
# 5 0.000000 0.000000 0.000000 0.000000 -0.013411 0.000000
# 6 0.000000 0.000000 0.000000 0.000000 0.000000 0.024679
#
#
# Mechanical properties :
#
#
# Convention : Reuss Voigt Hill
#
# Bulk Modulus (GPa) = 81.98517 99.43004 90.70761
# Shear Modulus (GPa) = 96.99063 48.43412 72.71238
#
# Velocity S-wave (km/s) = 6.33613 4.47749 5.48610
# Velocity P-wave (km/s) = 9.35223 8.23935 8.81338
#
# Compressibility (1/GPa) = 0.01219733
#
# Stress axis : x y z
#
# Youngs Moduli (GPa) = 170.54204 108.11782 371.39932
#
# Poissons Ratio (x) = 0.17805 -0.00158
# Poissons Ratio (y) = 0.28085 0.43136
# Poissons Ratio (z) = -0.00073 0.12557
#
# Static dielectric constant tensor:
#      x y z
#    x 1.730410 0.000000 0.000000 
#    y 0.000000 1.890680 0.000000 
#    z 0.000000 0.000000 2.067570 
# 
# From -- ./inp_files/67656.got.cif
#   From: 2010.05.17/outbox.cif.g08.bks.cpg/sg66_34_cif.got.tgz:67656.got - 2010.06.03 17:51:23.
