data_PCOD9498968
_publ_section_title
;
Structure prediction by ZEFSAII (Michael W. Deem and Ramdas Pophale) SiO2 
 PCOD9498968
Probable space group: C C C M
;
_chemical_formula_sum "Si O2"
_cell_formula_units_Z 96
_cell_length_a 26.883608
_cell_length_b 21.156247
_cell_length_c 8.529114
_cell_angle_alpha 90.000000
_cell_angle_beta 90.000000
_cell_angle_gamma 90.000000
_cell_volume 4850.986904
_symmetry_space_group_name_H-M "C C C M"
_symmetry_group_IT_number 66
_symmetry_cell_setting 'orthorhombic'
loop_
_space_group_symop_operation_xyz
x,y,z
-x,-y,z
x,-y,1/2-z
-x,y,1/2-z
-x,-y,-z
x,y,-z
-x,y,1/2+z
x,-y,1/2+z
1/2+x,1/2+y,z
1/2-x,1/2-y,z
1/2+x,1/2-y,1/2-z
1/2-x,1/2+y,1/2-z
1/2-x,1/2-y,-z
1/2+x,1/2+y,-z
1/2-x,1/2+y,1/2+z
1/2+x,1/2-y,1/2+z
loop_
_atom_site_type_symbol
_atom_site_label
_atom_site_fract_x
_atom_site_fract_y
_atom_site_fract_z
Si Si1 0.554473 0.188733 0.188738
Si Si2 0.276582 0.913608 0.320342
Si Si3 0.662229 0.567722 0.810843
Si Si4 0.884251 0.200487 0.311503
Si Si5 0.799508 0.711371 0.673886
Si Si6 0.616727 0.934553 0.315705
O O1 0.500000 0.171548 0.250000
O O2 0.568636 0.258166 0.255742
O O3 0.592267 0.131914 0.240631
O O4 0.555678 0.191835 0.000000
O O5 0.279331 0.935550 0.500000
O O6 0.220521 0.925420 0.258477
O O7 0.286080 0.839306 0.304878
O O8 0.324617 0.936379 0.225456
O O9 0.644093 0.500000 0.750000
O O10 0.628136 0.627843 0.764053
O O11 0.663708 0.567371 0.000000
O O12 0.882056 0.202561 0.500000
O O13 0.841063 0.241661 0.233030
O O14 0.813119 0.684406 0.500000
O O15 0.750000 0.750000 0.653182
O O16 0.609933 0.936116 0.500000
O O17 0.594469 0.000000 0.250000
#
# Coordination Sequence:
#
# PCOD9498968 Si02
#       6
#    16  16  16  16  16  16
#     4  11  25  44  66  92 117 149 196 249 307 364
#     4  11  21  35  56  84 121 165 207 246 287 340
#     4  10  23  38  56  87 123 163 204 242 291 352
#     4  11  22  39  62  87 118 156 199 248 302 359
#     4  11  21  32  52  84 118 157 201 245 292 347
#     4  11  24  40  59  87 122 161 206 247 296 351
#
# _framework density 19.789788000000001
#
# number of rings (size 3 to 8) (size 9 to 14) (size 15 to 20)
#    0.000    1.167    3.333    3.000    0.000    7.000 
#    0.000    1.667    0.000    0.500    0.000    3.500 
#    0.000    0.000    0.000    0.000    0.000    0.000 
#
# Total GULP energy -267601.522176 kJ/mol
# GULP energy per Si atom -5575.031712 kJ/mol
# Density = 1.974475 g / cm^3
# Si number density = 19.789788 Si / 1000 Ang^3
#
#
#
# Elastic Constant Matrix: (Units=GPa)
#
#
# Indices 1 2 3 4 5 6 
#
# 1 60.4900 37.1037 18.7539 0.0000 0.0000 0.0000
# 2 37.1037 147.1281 24.6951 0.0000 0.0000 0.0000
# 3 18.7539 24.6951 49.2190 0.0000 0.0000 0.0000
# 4 0.0000 0.0000 0.0000 33.5407 0.0000 0.0000
# 5 0.0000 0.0000 0.0000 0.0000 28.4837 0.0000
# 6 0.0000 0.0000 0.0000 0.0000 0.0000 3.8974
#
#
#
# Elastic Compliance Matrix: (Units=1/GPa)
#
#
# Indices 1 2 3 4 5 6 
#
# 1 0.020986 -0.004313 -0.005832 0.000000 0.000000 0.000000
# 2 -0.004313 0.008308 -0.002525 0.000000 0.000000 0.000000
# 3 -0.005832 -0.002525 0.023806 0.000000 0.000000 0.000000
# 4 0.000000 0.000000 0.000000 0.029815 0.000000 0.000000
# 5 0.000000 0.000000 0.000000 0.000000 0.035108 0.000000
# 6 0.000000 0.000000 0.000000 0.000000 0.000000 0.256581
#
#
# Mechanical properties :
#
#
# Convention : Reuss Voigt Hill
#
# Bulk Modulus (GPa) = 36.02364 46.43804 41.23084
# Shear Modulus (GPa) = 12.21901 24.93663 18.57782
#
# Velocity S-wave (km/s) = 2.48753 3.55361 3.06724
# Velocity P-wave (km/s) = 5.14714 6.35249 5.78131
#
# Compressibility (1/GPa) = 0.02775955
#
# Stress axis : x y z
#
# Youngs Moduli (GPa) = 47.65191 120.35986 42.00540
#
# Poissons Ratio (x) = 0.51916 0.24497
# Poissons Ratio (y) = 0.20554 0.10607
# Poissons Ratio (z) = 0.27790 0.30393
#
# Static dielectric constant tensor:
#      x y z
#    x 1.722240 0.000000 0.000000 
#    y 0.000000 1.763780 0.000000 
#    z 0.000000 0.000000 1.709550 
# 
# From -- ./inp_files/7972.got.cif
#   From: 2010.05.17/outbox.cif.g08.bks.cpg/sg66_4_cif.got.tgz:7972.got - 2010.06.03 17:51:23.
