data_PCOD9498203
_publ_section_title
;
Structure prediction by ZEFSAII (Michael W. Deem and Ramdas Pophale) SiO2 
 PCOD9498203
Probable space group: C C C M
;
_chemical_formula_sum "Si O2"
_cell_formula_units_Z 96
_cell_length_a 21.394509
_cell_length_b 14.638322
_cell_length_c 15.612575
_cell_angle_alpha 90.000000
_cell_angle_beta 90.000000
_cell_angle_gamma 90.000000
_cell_volume 4889.541739
_symmetry_space_group_name_H-M "C C C M"
_symmetry_group_IT_number 66
_symmetry_cell_setting 'orthorhombic'
loop_
_space_group_symop_operation_xyz
x,y,z
-x,-y,z
x,-y,1/2-z
-x,y,1/2-z
-x,-y,-z
x,y,-z
-x,y,1/2+z
x,-y,1/2+z
1/2+x,1/2+y,z
1/2-x,1/2-y,z
1/2+x,1/2-y,1/2-z
1/2-x,1/2+y,1/2-z
1/2-x,1/2-y,-z
1/2+x,1/2+y,-z
1/2-x,1/2+y,1/2+z
1/2+x,1/2-y,1/2+z
loop_
_atom_site_type_symbol
_atom_site_label
_atom_site_fract_x
_atom_site_fract_y
_atom_site_fract_z
Si Si1 0.531607 0.240503 0.340214
Si Si2 0.753836 0.642275 0.237056
Si Si3 0.884728 0.103391 0.737445
Si Si4 0.638645 0.106627 0.401119
Si Si5 0.399696 0.719280 0.093578
Si Si6 0.676086 0.093078 0.097276
O O1 0.500000 0.212347 0.250000
O O2 0.571103 0.332432 0.320025
O O3 0.577846 0.163131 0.374058
O O4 0.473540 0.261554 0.400938
O O5 0.750000 0.750000 0.256578
O O6 0.686737 0.606855 0.205894
O O7 0.806125 0.631169 0.164424
O O8 0.775015 0.593089 0.324864
O O9 0.883295 0.151714 0.830115
O O10 0.906734 0.000000 0.750000
O O11 0.654166 0.128746 0.500000
O O12 0.633204 0.996886 0.395319
O O13 0.364058 0.814969 0.106896
O O14 0.382418 0.683587 0.000000
O O15 0.702793 0.092691 0.000000
#
# Coordination Sequence:
#
# PCOD9498203 Si02
#       6
#    16  16  16  16  16  16
#     4  10  21  39  60  86 120 161 202 246 297 352
#     4  12  21  40  64  88 120 161 201 246 305 364
#     4  11  23  40  60  83 116 157 202 249 296 350
#     4  11  23  40  62  94 129 160 195 243 306 376
#     4  10  21  39  61  87 115 150 199 250 295 348
#     4  10  22  39  64  94 123 154 197 249 305 365
#
# _framework density 19.633741000000001
#
# number of rings (size 3 to 8) (size 9 to 14) (size 15 to 20)
#    0.000    1.333    3.333    3.000    0.000    5.000 
#    0.000    8.333    0.000    0.000    0.000    0.000 
#    0.000    0.000    0.000    0.000    0.000    0.000 
#
# Total GULP energy -268128.598973 kJ/mol
# GULP energy per Si atom -5586.012479 kJ/mol
# Density = 1.958905 g / cm^3
# Si number density = 19.633741 Si / 1000 Ang^3
#
#
#
# Elastic Constant Matrix: (Units=GPa)
#
#
# Indices 1 2 3 4 5 6 
#
# 1 67.8604 -5.7087 31.2273 0.0000 0.0000 0.0000
# 2 -5.7087 87.3263 27.9433 0.0000 0.0000 0.0000
# 3 31.2273 27.9433 85.0875 0.0000 0.0000 0.0000
# 4 0.0000 0.0000 0.0000 -20.0488 0.0000 0.0000
# 5 0.0000 0.0000 0.0000 0.0000 7.4938 0.0000
# 6 0.0000 0.0000 0.0000 0.0000 0.0000 8.0955
#
#
#
# Elastic Compliance Matrix: (Units=1/GPa)
#
#
# Indices 1 2 3 4 5 6 
#
# 1 0.018819 0.003844 -0.008169 0.000000 0.000000 0.000000
# 2 0.003844 0.013581 -0.005871 0.000000 0.000000 0.000000
# 3 -0.008169 -0.005871 0.016679 0.000000 0.000000 0.000000
# 4 0.000000 0.000000 0.000000 -0.049878 0.000000 0.000000
# 5 0.000000 0.000000 0.000000 0.000000 0.133444 0.000000
# 6 0.000000 0.000000 0.000000 0.000000 0.000000 0.123526
#
#
# Mechanical properties :
#
#
# Convention : Reuss Voigt Hill
#
# Bulk Modulus (GPa) = 34.85893 38.57754 36.71824
# Shear Modulus (GPa) = 17.47491 11.56224 14.51858
#
# Velocity S-wave (km/s) = 2.98660 2.42935 2.72227
# Velocity P-wave (km/s) = 5.44850 5.24979 5.35007
#
# Compressibility (1/GPa) = 0.02868706
#
# Stress axis : x y z
#
# Youngs Moduli (GPa) = 53.13896 73.63101 59.95683
#
# Poissons Ratio (x) = -0.28305 0.48978
# Poissons Ratio (y) = -0.20427 0.35200
# Poissons Ratio (z) = 0.43409 0.43229
#
# Static dielectric constant tensor:
#      x y z
#    x 1.679940 0.000000 0.000000 
#    y 0.000000 1.690490 0.000000 
#    z 0.000000 0.000000 1.719290 
# 
# From -- ./inp_files/28377.got.cif
#   From: 2010.05.17/outbox.cif.g08.bks.cpg/sg66_15_cif.got.tgz:28377.got - 2010.06.03 17:51:23.
