data_PCOD9498651
_publ_section_title
;
Structure prediction by ZEFSAII (Michael W. Deem and Ramdas Pophale) SiO2 
 PCOD9498651
Probable space group: C C C M
;
_chemical_formula_sum "Si O2"
_cell_formula_units_Z 84
_cell_length_a 15.806643
_cell_length_b 18.857809
_cell_length_c 14.973440
_cell_angle_alpha 90.000000
_cell_angle_beta 90.000000
_cell_angle_gamma 90.000000
_cell_volume 4463.262850
_symmetry_space_group_name_H-M "C C C M"
_symmetry_group_IT_number 66
_symmetry_cell_setting 'orthorhombic'
loop_
_space_group_symop_operation_xyz
x,y,z
-x,-y,z
x,-y,1/2-z
-x,y,1/2-z
-x,-y,-z
x,y,-z
-x,y,1/2+z
x,-y,1/2+z
1/2+x,1/2+y,z
1/2-x,1/2-y,z
1/2+x,1/2-y,1/2-z
1/2-x,1/2+y,1/2-z
1/2-x,1/2-y,-z
1/2+x,1/2+y,-z
1/2-x,1/2+y,1/2+z
1/2+x,1/2-y,1/2+z
loop_
_atom_site_type_symbol
_atom_site_label
_atom_site_fract_x
_atom_site_fract_y
_atom_site_fract_z
Si Si1 0.786558 0.634026 0.500000
Si Si2 0.500000 0.000000 0.250000
Si Si3 0.383090 0.714416 0.000000
Si Si4 0.084355 0.765624 0.194766
Si Si5 0.820978 0.898486 0.753854
Si Si6 0.101803 0.996212 0.605239
Si Si7 0.142596 0.602655 0.186486
O O1 0.688490 0.654371 0.500000
O O2 0.833981 0.710323 0.500000
O O3 0.815889 0.595661 0.410990
O O4 0.436602 0.948946 0.196395
O O5 0.432522 0.712760 0.092095
O O6 0.157357 0.817195 0.231694
O O7 0.112355 0.683830 0.197987
O O8 0.000000 0.776902 0.250000
O O9 0.863967 0.925798 0.844705
O O10 0.720310 0.911146 0.753865
O O11 0.861146 0.943212 0.671238
O O12 0.125399 0.999913 0.500000
O O13 0.000000 0.000000 0.610008
#
# Coordination Sequence:
#
# PCOD9498651 Si02
#       7
#     8   4   8  16  16  16  16
#     4   9  18  37  62  90 113 153 216 265 302 355
#     4  12  24  42  60  88 134 172 200 252 322 392
#     4   9  18  34  62  94 120 151 209 268 305 356
#     4  11  21  38  63  95 127 158 210 267 311 360
#     4  11  21  38  64  91 121 169 208 256 313 371
#     4  10  22  39  59  91 128 159 202 253 317 386
#     4  11  23  40  62  89 124 165 210 261 316 368
#
# _framework density 18.820312000000001
#
# number of rings (size 3 to 8) (size 9 to 14) (size 15 to 20)
#    0.000    1.524    2.857    4.000    2.667    0.381 
#    1.714    0.000    4.190    1.143    0.000    0.000 
#    0.000    0.000    0.000    0.000    0.000    0.000 
#
# Total GULP energy -234517.993731 kJ/mol
# GULP energy per Si atom -5583.761755 kJ/mol
# Density = 1.877748 g / cm^3
# Si number density = 18.820312 Si / 1000 Ang^3
#
#
#
# Elastic Constant Matrix: (Units=GPa)
#
#
# Indices 1 2 3 4 5 6 
#
# 1 116.0644 29.8268 61.6165 0.0000 0.0000 0.0000
# 2 29.8268 98.3969 30.2510 0.0000 0.0000 0.0000
# 3 61.6165 30.2510 137.5327 0.0000 0.0000 0.0000
# 4 0.0000 0.0000 0.0000 18.1075 0.0000 0.0000
# 5 0.0000 0.0000 0.0000 0.0000 26.9882 0.0000
# 6 0.0000 0.0000 0.0000 0.0000 0.0000 30.0730
#
#
#
# Elastic Compliance Matrix: (Units=1/GPa)
#
#
# Indices 1 2 3 4 5 6 
#
# 1 0.011686 -0.002073 -0.004780 0.000000 0.000000 0.000000
# 2 -0.002073 0.011268 -0.001550 0.000000 0.000000 0.000000
# 3 -0.004780 -0.001550 0.009753 0.000000 0.000000 0.000000
# 4 0.000000 0.000000 0.000000 0.055226 0.000000 0.000000
# 5 0.000000 0.000000 0.000000 0.000000 0.037053 0.000000
# 6 0.000000 0.000000 0.000000 0.000000 0.000000 0.033252
#
#
# Mechanical properties :
#
#
# Convention : Reuss Voigt Hill
#
# Bulk Modulus (GPa) = 62.88295 66.15361 64.51828
# Shear Modulus (GPa) = 27.72487 30.38705 29.05596
#
# Velocity S-wave (km/s) = 3.84231 4.02255 3.93346
# Velocity P-wave (km/s) = 7.29173 7.53664 7.41520
#
# Compressibility (1/GPa) = 0.01590256
#
# Stress axis : x y z
#
# Youngs Moduli (GPa) = 85.57262 88.74908 102.53104
#
# Poissons Ratio (x) = 0.18397 0.49005
# Poissons Ratio (y) = 0.17739 0.15889
# Poissons Ratio (z) = 0.40900 0.13753
#
# Static dielectric constant tensor:
#      x y z
#    x 1.633840 0.000000 0.000000 
#    y 0.000000 1.694930 0.000000 
#    z 0.000000 0.000000 1.650390 
# 
# From -- ./inp_files/28273.got.cif
#   From: 2010.05.17/outbox.cif.g08.bks.cpg/sg66_15_cif.got.tgz:28273.got - 2010.06.03 17:51:23.
