data_PCOD9498778
_publ_section_title
;
Structure prediction by ZEFSAII (Michael W. Deem and Ramdas Pophale) SiO2 
 PCOD9498778
Probable space group: C C C M
;
_chemical_formula_sum "Si O2"
_cell_formula_units_Z 72
_cell_length_a 8.047220
_cell_length_b 14.997007
_cell_length_c 24.185099
_cell_angle_alpha 90.000000
_cell_angle_beta 90.000000
_cell_angle_gamma 90.000000
_cell_volume 2918.759680
_symmetry_space_group_name_H-M "C C C M"
_symmetry_group_IT_number 66
_symmetry_cell_setting 'orthorhombic'
loop_
_space_group_symop_operation_xyz
x,y,z
-x,-y,z
x,-y,1/2-z
-x,y,1/2-z
-x,-y,-z
x,y,-z
-x,y,1/2+z
x,-y,1/2+z
1/2+x,1/2+y,z
1/2-x,1/2-y,z
1/2+x,1/2-y,1/2-z
1/2-x,1/2+y,1/2-z
1/2-x,1/2-y,-z
1/2+x,1/2+y,-z
1/2-x,1/2+y,1/2+z
1/2+x,1/2-y,1/2+z
loop_
_atom_site_type_symbol
_atom_site_label
_atom_site_fract_x
_atom_site_fract_y
_atom_site_fract_z
Si Si1 0.750000 0.250000 0.692591
Si Si2 0.000000 0.000000 0.142979
Si Si3 0.674767 0.068122 0.701897
Si Si4 0.068360 0.797226 0.116169
Si Si5 0.000000 0.500000 0.601457
Si Si6 0.746609 0.996075 0.500000
Si Si7 0.516725 0.338830 0.500000
O O1 0.702230 0.164421 0.727537
O O2 0.584803 0.271391 0.656559
O O3 0.845676 0.966325 0.177261
O O4 0.064933 0.906689 0.116451
O O5 0.554962 0.072895 0.647732
O O6 0.643371 0.000000 0.750000
O O7 0.250000 0.750000 0.125844
O O8 0.007260 0.777968 0.053754
O O9 0.854154 0.514116 0.557308
O O10 0.821318 0.096860 0.500000
O O11 0.876363 0.915817 0.500000
#
# Coordination Sequence:
#
# PCOD9498778 Si02
#       7
#     8   8  16  16   8   8   8
#     4  10  26  47  72 110 152 197 256 326 388 470
#     4  10  23  47  72 100 146 203 258 312 399 464
#     4  11  24  47  74 108 147 194 251 319 392 466
#     4  11  24  44  72 110 155 207 261 324 390 471
#     4  11  23  40  68 112 143 195 256 314 386 465
#     4  10  22  40  72 100 149 202 252 314 382 465
#     4  11  21  41  64 105 144 203 261 307 383 459
#
# _framework density 24.668013999999999
#
# number of rings (size 3 to 8) (size 9 to 14) (size 15 to 20)
#    0.000    1.333    0.000    6.333    6.222    0.444 
#    2.000    2.222    0.000    0.000    0.000    0.000 
#    0.000    0.000    0.000    0.000    0.000    0.000 
#
# Total GULP energy -200725.711817 kJ/mol
# GULP energy per Si atom -5575.714217 kJ/mol
# Density = 2.461187 g / cm^3
# Si number density = 24.668014 Si / 1000 Ang^3
#
#
#
# Elastic Constant Matrix: (Units=GPa)
#
#
# Indices 1 2 3 4 5 6 
#
# 1 143.4601 37.3075 50.2559 0.0000 0.0000 0.0000
# 2 37.3075 155.9427 51.8487 0.0000 0.0000 0.0000
# 3 50.2559 51.8487 124.2273 0.0000 0.0000 0.0000
# 4 0.0000 0.0000 0.0000 19.7944 0.0000 0.0000
# 5 0.0000 0.0000 0.0000 0.0000 15.7205 0.0000
# 6 0.0000 0.0000 0.0000 0.0000 0.0000 17.1774
#
#
#
# Elastic Compliance Matrix: (Units=1/GPa)
#
#
# Indices 1 2 3 4 5 6 
#
# 1 0.008255 -0.001004 -0.002920 0.000000 0.000000 0.000000
# 2 -0.001004 0.007568 -0.002753 0.000000 0.000000 0.000000
# 3 -0.002920 -0.002753 0.010380 0.000000 0.000000 0.000000
# 4 0.000000 0.000000 0.000000 0.050519 0.000000 0.000000
# 5 0.000000 0.000000 0.000000 0.000000 0.063611 0.000000
# 6 0.000000 0.000000 0.000000 0.000000 0.000000 0.058216
#
#
# Mechanical properties :
#
#
# Convention : Reuss Voigt Hill
#
# Bulk Modulus (GPa) = 77.82670 78.05046 77.93858
# Shear Modulus (GPa) = 23.12821 29.48632 26.30727
#
# Velocity S-wave (km/s) = 3.06531 3.46110 3.26920
# Velocity P-wave (km/s) = 6.64427 6.90517 6.77597
#
# Compressibility (1/GPa) = 0.01284906
#
# Stress axis : x y z
#
# Youngs Moduli (GPa) = 121.14308 132.13629 96.33871
#
# Poissons Ratio (x) = 0.13264 0.28135
# Poissons Ratio (y) = 0.12161 0.26518
# Poissons Ratio (z) = 0.35379 0.36371
#
# Static dielectric constant tensor:
#      x y z
#    x 2.106450 0.000000 0.000000 
#    y 0.000000 1.947340 0.000000 
#    z 0.000000 0.000000 2.024470 
# 
# From -- ./inp_files/62267.got.cif
#   From: 2010.05.17/outbox.cif.g08.bks.cpg/sg66_32_cif.got.tgz:62267.got - 2010.06.03 17:51:23.
