data_PCOD9498164
_publ_section_title
;
Structure prediction by ZEFSAII (Michael W. Deem and Ramdas Pophale) SiO2 
 PCOD9498164
Probable space group: C C C M
;
_chemical_formula_sum "Si O2"
_cell_formula_units_Z 88
_cell_length_a 11.158931
_cell_length_b 14.032168
_cell_length_c 26.369597
_cell_angle_alpha 90.000000
_cell_angle_beta 90.000000
_cell_angle_gamma 90.000000
_cell_volume 4129.056831
_symmetry_space_group_name_H-M "C C C M"
_symmetry_group_IT_number 66
_symmetry_cell_setting 'orthorhombic'
loop_
_space_group_symop_operation_xyz
x,y,z
-x,-y,z
x,-y,1/2-z
-x,y,1/2-z
-x,-y,-z
x,y,-z
-x,y,1/2+z
x,-y,1/2+z
1/2+x,1/2+y,z
1/2-x,1/2-y,z
1/2+x,1/2-y,1/2-z
1/2-x,1/2+y,1/2-z
1/2-x,1/2-y,-z
1/2+x,1/2+y,-z
1/2-x,1/2+y,1/2+z
1/2+x,1/2-y,1/2+z
loop_
_atom_site_type_symbol
_atom_site_label
_atom_site_fract_x
_atom_site_fract_y
_atom_site_fract_z
Si Si1 0.418133 0.340596 0.000000
Si Si2 0.960832 0.263725 0.606174
Si Si3 0.698887 0.883821 0.400295
Si Si4 0.191834 0.000000 0.250000
Si Si5 0.617026 0.947479 0.167133
Si Si6 0.564423 0.402378 0.837229
Si Si7 0.173539 0.949966 0.000000
O O1 0.411265 0.277623 0.947839
O O2 0.545617 0.396291 0.000000
O O3 0.332780 0.434372 0.000000
O O4 0.094160 0.306561 0.595390
O O5 0.972434 0.178411 0.646626
O O6 0.897626 0.347702 0.638133
O O7 0.812219 0.868758 0.363605
O O8 0.756101 0.910399 0.452699
O O9 0.642630 0.978616 0.377493
O O10 0.276902 0.949965 0.291675
O O11 0.109207 0.926487 0.219100
O O12 0.500000 0.000000 0.191206
O O13 0.500000 0.500000 0.856296
#
# Coordination Sequence:
#
# PCOD9498164 Si02
#       7
#     8  16  16   8  16  16   8
#     4  11  23  36  63  98 135 177 208 262 325 384
#     4  11  22  40  66  98 129 167 218 270 316 392
#     4  10  21  38  64  92 123 165 208 255 313 378
#     4  10  22  44  66  86 122 172 210 264 338 392
#     4   9  21  42  65  90 123 161 208 272 323 379
#     4  11  22  40  61  90 127 160 209 267 322 383
#     4  11  21  38  61  92 133 175 206 252 319 382
#
# _framework density 21.312373000000001
#
# number of rings (size 3 to 8) (size 9 to 14) (size 15 to 20)
#    0.000    1.636    1.818    2.727    0.000    1.455 
#    0.000   30.000    0.000    2.182    0.000    0.000 
#    0.000    0.000    0.000    0.000    0.000    0.000 
#
# Total GULP energy -245231.661146 kJ/mol
# GULP energy per Si atom -5573.446844 kJ/mol
# Density = 2.126387 g / cm^3
# Si number density = 21.312373 Si / 1000 Ang^3
#
#
#
# Elastic Constant Matrix: (Units=GPa)
#
#
# Indices 1 2 3 4 5 6 
#
# 1 39.5636 11.2534 28.6271 0.0000 0.0000 0.0000
# 2 11.2534 149.3590 46.2759 0.0000 0.0000 0.0000
# 3 28.6271 46.2759 154.3318 0.0000 0.0000 0.0000
# 4 0.0000 0.0000 0.0000 113.1152 0.0000 0.0000
# 5 0.0000 0.0000 0.0000 0.0000 -2.6777 0.0000
# 6 0.0000 0.0000 0.0000 0.0000 0.0000 10.4366
#
#
#
# Elastic Compliance Matrix: (Units=1/GPa)
#
#
# Indices 1 2 3 4 5 6 
#
# 1 0.029239 -0.000576 -0.005251 0.000000 0.000000 0.000000
# 2 -0.000576 0.007392 -0.002110 0.000000 0.000000 0.000000
# 3 -0.005251 -0.002110 0.008086 0.000000 0.000000 0.000000
# 4 0.000000 0.000000 0.000000 0.008841 0.000000 0.000000
# 5 0.000000 0.000000 0.000000 0.000000 -0.373450 0.000000
# 6 0.000000 0.000000 0.000000 0.000000 0.000000 0.095817
#
#
# Mechanical properties :
#
#
# Convention : Reuss Voigt Hill
#
# Bulk Modulus (GPa) = 34.66913 57.28525 45.97719
# Shear Modulus (GPa) = -25.17788 41.31468 8.06840
#
# Velocity S-wave (km/s) = -3.44084 4.40765 1.94782
# Velocity P-wave (km/s) = 0.71875 7.26914 5.16512
#
# Compressibility (1/GPa) = 0.02884411
#
# Stress axis : x y z
#
# Youngs Moduli (GPa) = 34.20095 135.27526 123.66890
#
# Poissons Ratio (x) = 0.07794 0.64936
# Poissons Ratio (y) = 0.01970 0.26090
# Poissons Ratio (z) = 0.17958 0.28539
#
# Static dielectric constant tensor:
#      x y z
#    x 1.843950 0.000000 0.000000 
#    y 0.000000 1.692010 0.000000 
#    z 0.000000 0.000000 1.812710 
# 
# From -- ./inp_files/56798.got.cif
#   From: 2010.05.17/outbox.cif.g08.bks.cpg/sg66_29_cif.got.tgz:56798.got - 2010.06.03 17:51:23.
