data_PCOD9498226
_publ_section_title
;
Structure prediction by ZEFSAII (Michael W. Deem and Ramdas Pophale) SiO2 
 PCOD9498226
Probable space group: C C C M
;
_chemical_formula_sum "Si O2"
_cell_formula_units_Z 64
_cell_length_a 13.436006
_cell_length_b 12.954147
_cell_length_c 16.536511
_cell_angle_alpha 90.000000
_cell_angle_beta 90.000000
_cell_angle_gamma 90.000000
_cell_volume 2878.212760
_symmetry_space_group_name_H-M "C C C M"
_symmetry_group_IT_number 66
_symmetry_cell_setting 'orthorhombic'
loop_
_space_group_symop_operation_xyz
x,y,z
-x,-y,z
x,-y,1/2-z
-x,y,1/2-z
-x,-y,-z
x,y,-z
-x,y,1/2+z
x,-y,1/2+z
1/2+x,1/2+y,z
1/2-x,1/2-y,z
1/2+x,1/2-y,1/2-z
1/2-x,1/2+y,1/2-z
1/2-x,1/2-y,-z
1/2+x,1/2+y,-z
1/2-x,1/2+y,1/2+z
1/2+x,1/2-y,1/2+z
loop_
_atom_site_type_symbol
_atom_site_label
_atom_site_fract_x
_atom_site_fract_y
_atom_site_fract_z
Si Si1 0.891750 0.455583 0.905742
Si Si2 0.648550 0.699427 0.905762
Si Si3 0.818420 0.981068 0.341750
Si Si4 0.931151 0.782437 0.594749
O O1 0.800442 0.489476 0.851303
O O2 0.887697 0.331870 0.902689
O O3 0.000000 0.500000 0.883545
O O4 0.874607 0.487519 0.000000
O O5 0.750000 0.750000 0.870825
O O6 0.646539 0.576083 0.896991
O O7 0.542373 0.730433 0.869119
O O8 0.647188 0.731409 0.000000
O O9 0.864172 0.871694 0.367345
O O10 0.848831 0.000000 0.250000
O O11 0.941587 0.810993 0.500000
#
# Coordination Sequence:
#
# PCOD9498226 Si02
#       4
#    16  16  16  16
#     4  10  21  41  68  93 118 154 206 264 317 373
#     4  10  21  39  62  87 116 155 207 260 306 358
#     4  12  25  38  56  88 127 166 203 246 310 380
#     4  10  21  39  65  92 119 157 206 261 313 368
#
# _framework density 22.236021999999998
#
# number of rings (size 3 to 8) (size 9 to 14) (size 15 to 20)
#    0.000    1.500    0.000    5.250    0.000   12.500 
#    0.000    2.500    0.000    0.000    0.000    0.000 
#    0.000    0.000    0.000    0.000    0.000    0.000 
#
# Total GULP energy -178708.158096 kJ/mol
# GULP energy per Si atom -5584.629941 kJ/mol
# Density = 2.218541 g / cm^3
# Si number density = 22.236022 Si / 1000 Ang^3
#
#
#
# Elastic Constant Matrix: (Units=GPa)
#
#
# Indices 1 2 3 4 5 6 
#
# 1 53.4884 -7.0980 13.2114 0.0000 0.0000 0.0000
# 2 -7.0980 70.6098 12.8372 0.0000 0.0000 0.0000
# 3 13.2114 12.8372 22.5104 0.0000 0.0000 0.0000
# 4 0.0000 0.0000 0.0000 -11.4492 0.0000 0.0000
# 5 0.0000 0.0000 0.0000 0.0000 -24.9472 0.0000
# 6 0.0000 0.0000 0.0000 0.0000 0.0000 28.6214
#
#
#
# Elastic Compliance Matrix: (Units=1/GPa)
#
#
# Indices 1 2 3 4 5 6 
#
# 1 0.023612 0.005459 -0.016971 0.000000 0.000000 0.000000
# 2 0.005459 0.017063 -0.012934 0.000000 0.000000 0.000000
# 3 -0.016971 -0.012934 0.061761 0.000000 0.000000 0.000000
# 4 0.000000 0.000000 0.000000 -0.087342 0.000000 0.000000
# 5 0.000000 0.000000 0.000000 0.000000 -0.040085 0.000000
# 6 0.000000 0.000000 0.000000 0.000000 0.000000 0.034939
#
#
# Mechanical properties :
#
#
# Convention : Reuss Voigt Hill
#
# Bulk Modulus (GPa) = 18.67687 20.50110 19.58899
# Shear Modulus (GPa) = 65.19992 6.95552 36.07772
#
# Velocity S-wave (km/s) = 5.42083 1.77055 4.03238
# Velocity P-wave (km/s) = 6.89914 3.66327 5.52348
#
# Compressibility (1/GPa) = 0.05354215
#
# Stress axis : x y z
#
# Youngs Moduli (GPa) = 42.35165 58.60753 16.19156
#
# Poissons Ratio (x) = -0.31994 0.27479
# Poissons Ratio (y) = -0.23120 0.20943
# Poissons Ratio (z) = 0.71875 0.75805
#
# Static dielectric constant tensor:
#      x y z
#    x 1.908790 0.000000 0.000000 
#    y 0.000000 1.826820 0.000000 
#    z 0.000000 0.000000 1.821880 
# 
# From -- ./inp_files/37969.got.cif
#   From: 2010.05.17/outbox.cif.g08.bks.cpg/sg66_19_cif.got.tgz:37969.got - 2010.06.03 17:51:23.
