data_PCOD9498710
_publ_section_title
;
Structure prediction by ZEFSAII (Michael W. Deem and Ramdas Pophale) SiO2 
 PCOD9498710
Probable space group: C C C M
;
_chemical_formula_sum "Si O2"
_cell_formula_units_Z 72
_cell_length_a 5.147340
_cell_length_b 34.438673
_cell_length_c 23.706431
_cell_angle_alpha 90.000000
_cell_angle_beta 90.000000
_cell_angle_gamma 90.000000
_cell_volume 4202.381158
_symmetry_space_group_name_H-M "C C C M"
_symmetry_group_IT_number 66
_symmetry_cell_setting 'orthorhombic'
loop_
_space_group_symop_operation_xyz
x,y,z
-x,-y,z
x,-y,1/2-z
-x,y,1/2-z
-x,-y,-z
x,y,-z
-x,y,1/2+z
x,-y,1/2+z
1/2+x,1/2+y,z
1/2-x,1/2-y,z
1/2+x,1/2-y,1/2-z
1/2-x,1/2+y,1/2-z
1/2-x,1/2-y,-z
1/2+x,1/2+y,-z
1/2-x,1/2+y,1/2+z
1/2+x,1/2-y,1/2+z
loop_
_atom_site_type_symbol
_atom_site_label
_atom_site_fract_x
_atom_site_fract_y
_atom_site_fract_z
Si Si1 0.848586 0.386072 0.567123
Si Si2 0.006018 0.222211 0.500000
Si Si3 0.750027 0.704127 0.288350
Si Si4 0.867656 0.160533 0.097453
Si Si5 0.247551 0.476104 0.931554
O O1 0.787553 0.381743 0.500000
O O2 0.633075 0.363431 0.602859
O O3 0.806166 0.431193 0.582182
O O4 0.134784 0.367529 0.575511
O O5 0.250000 0.250000 0.500000
O O6 0.045529 0.194271 0.446161
O O7 0.750000 0.250000 0.500000
O O8 0.500000 0.696648 0.250000
O O9 0.750000 0.750000 0.303123
O O10 0.731651 0.679683 0.345168
O O11 0.000000 0.696025 0.250000
O O12 0.500000 0.500000 0.911766
O O13 0.000000 0.500000 0.912353
O O14 0.257990 0.476906 0.000000
#
# Coordination Sequence:
#
# PCOD9498710 Si02
#       5
#    16   8  16  16  16
#     4  11  20  34  52  79 117 149 177 216 277 327
#     4  12  24  36  52  78 112 150 184 216 268 342
#     4  10  22  40  59  77 101 140 189 241 283 313
#     4  12  22  37  55  80 112 145 183 227 276 334
#     4   9  17  29  47  72 105 148 184 210 247 319
#
# _framework density 17.133143
#
# number of rings (size 3 to 8) (size 9 to 14) (size 15 to 20)
#    0.000    1.333    2.222    4.667    0.000    6.222 
#    0.000    0.000    0.000    0.000    0.000    0.000 
#    0.000   62.222    0.000    0.000    0.000    0.000 
#
# Total GULP energy -200749.390836 kJ/mol
# GULP energy per Si atom -5576.371968 kJ/mol
# Density = 1.709415 g / cm^3
# Si number density = 17.133143 Si / 1000 Ang^3
#
#
#
# Elastic Constant Matrix: (Units=GPa)
#
#
# Indices 1 2 3 4 5 6 
#
# 1 151.7783 64.1915 16.6774 0.0000 0.0000 0.0000
# 2 64.1915 123.9060 37.7235 0.0000 0.0000 0.0000
# 3 16.6774 37.7235 63.1639 0.0000 0.0000 0.0000
# 4 0.0000 0.0000 0.0000 14.7926 0.0000 0.0000
# 5 0.0000 0.0000 0.0000 0.0000 -23.1599 0.0000
# 6 0.0000 0.0000 0.0000 0.0000 0.0000 38.0545
#
#
#
# Elastic Compliance Matrix: (Units=1/GPa)
#
#
# Indices 1 2 3 4 5 6 
#
# 1 0.008449 -0.004520 0.000469 0.000000 0.000000 0.000000
# 2 -0.004520 0.012282 -0.006142 0.000000 0.000000 0.000000
# 3 0.000469 -0.006142 0.019376 0.000000 0.000000 0.000000
# 4 0.000000 0.000000 0.000000 0.067601 0.000000 0.000000
# 5 0.000000 0.000000 0.000000 0.000000 -0.043178 0.000000
# 6 0.000000 0.000000 0.000000 0.000000 0.000000 0.026278
#
#
# Mechanical properties :
#
#
# Convention : Reuss Voigt Hill
#
# Bulk Modulus (GPa) = 50.70750 64.00367 57.35559
# Shear Modulus (GPa) = 42.45648 20.62114 31.53881
#
# Velocity S-wave (km/s) = 4.98338 3.47303 4.29512
# Velocity P-wave (km/s) = 7.92291 7.31576 7.62538
#
# Compressibility (1/GPa) = 0.01972095
#
# Stress axis : x y z
#
# Youngs Moduli (GPa) = 118.36393 81.42023 51.60956
#
# Poissons Ratio (x) = 0.36798 -0.02418
# Poissons Ratio (y) = 0.53495 0.31698
# Poissons Ratio (z) = -0.05545 0.50007
#
# Static dielectric constant tensor:
#      x y z
#    x 1.573090 0.000000 0.000000 
#    y 0.000000 1.558060 0.000000 
#    z 0.000000 0.000000 1.546390 
# 
# From -- ./inp_files/54223.got.cif
#   From: 2010.05.17/outbox.cif.g08.bks.cpg/sg66_28_cif.got.tgz:54223.got - 2010.06.03 17:51:23.
