data_PCOD9498793
_publ_section_title
;
Structure prediction by ZEFSAII (Michael W. Deem and Ramdas Pophale) SiO2 
 PCOD9498793
Probable space group: C C C M
;
_chemical_formula_sum "Si O2"
_cell_formula_units_Z 112
_cell_length_a 14.503942
_cell_length_b 26.248359
_cell_length_c 15.272841
_cell_angle_alpha 90.000000
_cell_angle_beta 90.000000
_cell_angle_gamma 90.000000
_cell_volume 5814.441993
_symmetry_space_group_name_H-M "C C C M"
_symmetry_group_IT_number 66
_symmetry_cell_setting 'orthorhombic'
loop_
_space_group_symop_operation_xyz
x,y,z
-x,-y,z
x,-y,1/2-z
-x,y,1/2-z
-x,-y,-z
x,y,-z
-x,y,1/2+z
x,-y,1/2+z
1/2+x,1/2+y,z
1/2-x,1/2-y,z
1/2+x,1/2-y,1/2-z
1/2-x,1/2+y,1/2-z
1/2-x,1/2-y,-z
1/2+x,1/2+y,-z
1/2-x,1/2+y,1/2+z
1/2+x,1/2-y,1/2+z
loop_
_atom_site_type_symbol
_atom_site_label
_atom_site_fract_x
_atom_site_fract_y
_atom_site_fract_z
Si Si1 0.854647 0.769473 0.759811
Si Si2 0.600575 0.159146 0.739341
Si Si3 0.393336 0.993251 0.854789
Si Si4 0.712205 0.906272 0.099002
Si Si5 0.897698 0.142523 0.397493
Si Si6 0.302473 0.115271 0.398989
Si Si7 0.604778 0.656179 0.397224
O O1 0.750000 0.750000 0.753978
O O2 0.908312 0.718156 0.784426
O O3 0.867959 0.811464 0.834766
O O4 0.884200 0.796636 0.669404
O O5 0.500000 0.134873 0.750000
O O6 0.659390 0.128911 0.668251
O O7 0.651433 0.154486 0.832086
O O8 0.349070 0.939079 0.879263
O O9 0.500000 0.000000 0.883924
O O10 0.392489 0.000000 0.750000
O O11 0.329498 0.037744 0.892774
O O12 0.821684 0.901458 0.116194
O O13 0.695813 0.887699 0.000000
O O14 0.891893 0.157254 0.500000
O O15 0.005042 0.131052 0.379975
O O16 0.319228 0.128315 0.500000
O O17 0.192444 0.119140 0.383261
O O18 0.607282 0.671616 0.500000
#
# Coordination Sequence:
#
# PCOD9498793 Si02
#       7
#    16  16  16  16  16  16  16
#     4  12  22  39  63  87 122 165 200 248 302 355
#     4  12  24  38  57  88 123 158 202 251 295 352
#     4  11  23  41  64  88 122 160 195 246 307 364
#     4  11  23  40  63  89 120 159 201 247 301 360
#     4  10  22  41  64  90 122 162 205 249 300 356
#     4  11  23  40  63  89 120 159 201 247 301 360
#     4  10  22  41  64  90 122 162 205 249 300 356
#
# _framework density 19.262381000000001
#
# number of rings (size 3 to 8) (size 9 to 14) (size 15 to 20)
#    0.000    1.000    4.286    2.571    0.000    4.571 
#    0.000    0.714    0.000    4.286    0.000    0.000 
#    0.000    0.000    0.000    0.000    0.000    0.000 
#
# Total GULP energy -312679.786284 kJ/mol
# GULP energy per Si atom -5583.567612 kJ/mol
# Density = 1.921854 g / cm^3
# Si number density = 19.262381 Si / 1000 Ang^3
#
#
#
# Elastic Constant Matrix: (Units=GPa)
#
#
# Indices 1 2 3 4 5 6 
#
# 1 143.8207 14.0424 33.9470 0.0000 0.0000 0.0000
# 2 14.0424 59.5532 5.2743 0.0000 0.0000 0.0000
# 3 33.9470 5.2743 71.9660 0.0000 0.0000 0.0000
# 4 0.0000 0.0000 0.0000 5.0373 0.0000 0.0000
# 5 0.0000 0.0000 0.0000 0.0000 18.8987 0.0000
# 6 0.0000 0.0000 0.0000 0.0000 0.0000 29.4511
#
#
#
# Elastic Compliance Matrix: (Units=1/GPa)
#
#
# Indices 1 2 3 4 5 6 
#
# 1 0.007965 -0.001555 -0.003643 0.000000 0.000000 0.000000
# 2 -0.001555 0.017205 -0.000527 0.000000 0.000000 0.000000
# 3 -0.003643 -0.000527 0.015653 0.000000 0.000000 0.000000
# 4 0.000000 0.000000 0.000000 0.198521 0.000000 0.000000
# 5 0.000000 0.000000 0.000000 0.000000 0.052914 0.000000
# 6 0.000000 0.000000 0.000000 0.000000 0.000000 0.033955
#
#
# Mechanical properties :
#
#
# Convention : Reuss Voigt Hill
#
# Bulk Modulus (GPa) = 34.04711 42.42970 38.23841
# Shear Modulus (GPa) = 14.39040 25.48247 19.93644
#
# Velocity S-wave (km/s) = 2.73623 3.64113 3.22062
# Velocity P-wave (km/s) = 5.26274 6.30493 5.80726
#
# Compressibility (1/GPa) = 0.02937107
#
# Stress axis : x y z
#
# Youngs Moduli (GPa) = 125.55110 58.12209 63.88722
#
# Poissons Ratio (x) = 0.09041 0.23275
# Poissons Ratio (y) = 0.19529 0.03368
# Poissons Ratio (z) = 0.45740 0.03064
#
# Static dielectric constant tensor:
#      x y z
#    x 1.732690 0.000000 0.000000 
#    y 0.000000 1.639070 0.000000 
#    z 0.000000 0.000000 1.676930 
# 
# From -- ./inp_files/28862.got.cif
#   From: 2010.05.17/outbox.cif.g08.bks.cpg/sg66_15_cif.got.tgz:28862.got - 2010.06.03 17:51:23.
