data_PCOD9498338
_publ_section_title
;
Structure prediction by ZEFSAII (Michael W. Deem and Ramdas Pophale) SiO2 
 PCOD9498338
Probable space group: C C C M
;
_chemical_formula_sum "Si O2"
_cell_formula_units_Z 64
_cell_length_a 22.641392
_cell_length_b 14.114251
_cell_length_c 10.420645
_cell_angle_alpha 90.000000
_cell_angle_beta 90.000000
_cell_angle_gamma 90.000000
_cell_volume 3330.086859
_symmetry_space_group_name_H-M "C C C M"
_symmetry_group_IT_number 66
_symmetry_cell_setting 'orthorhombic'
loop_
_space_group_symop_operation_xyz
x,y,z
-x,-y,z
x,-y,1/2-z
-x,y,1/2-z
-x,-y,-z
x,y,-z
-x,y,1/2+z
x,-y,1/2+z
1/2+x,1/2+y,z
1/2-x,1/2-y,z
1/2+x,1/2-y,1/2-z
1/2-x,1/2+y,1/2-z
1/2-x,1/2-y,-z
1/2+x,1/2+y,-z
1/2-x,1/2+y,1/2+z
1/2+x,1/2-y,1/2+z
loop_
_atom_site_type_symbol
_atom_site_label
_atom_site_fract_x
_atom_site_fract_y
_atom_site_fract_z
Si Si1 0.500000 0.229089 0.250000
Si Si2 0.629580 0.699607 0.262282
Si Si3 0.229225 0.483662 0.000000
Si Si4 0.015187 0.389896 0.500000
Si Si5 0.818425 0.282153 0.500000
Si Si6 0.348239 0.170213 0.500000
Si Si7 0.309716 0.500000 0.250000
O O1 0.441089 0.289864 0.271038
O O2 0.508830 0.162345 0.373641
O O3 0.650980 0.740756 0.126353
O O4 0.656919 0.764348 0.374678
O O5 0.651237 0.592517 0.276854
O O6 0.197148 0.584490 0.000000
O O7 0.269158 0.477592 0.872980
O O8 0.183505 0.396244 0.000000
O O9 0.085803 0.373733 0.500000
O O10 0.000000 0.500000 0.500000
O O11 0.750000 0.250000 0.500000
#
# Coordination Sequence:
#
# PCOD9498338 Si02
#       7
#     8  16   8   8   8   8   8
#     4  10  23  41  64  90 126 162 208 262 310 364
#     4  11  24  43  64  93 127 166 212 262 313 371
#     4  12  25  39  63  94 123 168 206 252 322 378
#     4  10  21  40  61  91 122 162 203 252 308 376
#     4  12  23  43  65  92 129 168 208 264 309 376
#     4  10  25  40  63  92 128 163 203 257 317 374
#     4  12  24  41  64  90 123 166 214 254 314 372
#
# _framework density 19.218717999999999
#
# number of rings (size 3 to 8) (size 9 to 14) (size 15 to 20)
#    0.000    1.000    2.500    3.375    3.500    1.500 
#    0.000    0.000    0.000    7.500    0.000    0.000 
#    0.000    0.000    0.000    0.000    0.000    0.000 
#
# Total GULP energy -179051.600617 kJ/mol
# GULP energy per Si atom -5595.362519 kJ/mol
# Density = 1.917498 g / cm^3
# Si number density = 19.218718 Si / 1000 Ang^3
#
#
#
# Elastic Constant Matrix: (Units=GPa)
#
#
# Indices 1 2 3 4 5 6 
#
# 1 35.2402 23.3350 -14.0280 0.0000 0.0000 0.0000
# 2 23.3350 143.9612 14.3125 0.0000 0.0000 0.0000
# 3 -14.0280 14.3125 107.5558 0.0000 0.0000 0.0000
# 4 0.0000 0.0000 0.0000 32.9811 0.0000 0.0000
# 5 0.0000 0.0000 0.0000 0.0000 10.5629 0.0000
# 6 0.0000 0.0000 0.0000 0.0000 0.0000 36.0371
#
#
#
# Elastic Compliance Matrix: (Units=1/GPa)
#
#
# Indices 1 2 3 4 5 6 
#
# 1 0.034555 -0.006130 0.005323 0.000000 0.000000 0.000000
# 2 -0.006130 0.008127 -0.001881 0.000000 0.000000 0.000000
# 3 0.005323 -0.001881 0.010242 0.000000 0.000000 0.000000
# 4 0.000000 0.000000 0.000000 0.030320 0.000000 0.000000
# 5 0.000000 0.000000 0.000000 0.000000 0.094671 0.000000
# 6 0.000000 0.000000 0.000000 0.000000 0.000000 0.027749
#
#
# Mechanical properties :
#
#
# Convention : Reuss Voigt Hill
#
# Bulk Modulus (GPa) = 21.03212 37.11069 29.07141
# Shear Modulus (GPa) = 22.03706 33.45872 27.74789
#
# Velocity S-wave (km/s) = 3.38989 4.17699 3.80385
# Velocity P-wave (km/s) = 5.12729 6.52798 5.86957
#
# Compressibility (1/GPa) = 0.04754632
#
# Stress axis : x y z
#
# Youngs Moduli (GPa) = 28.93970 123.04697 97.63713
#
# Poissons Ratio (x) = 0.75430 -0.51968
# Poissons Ratio (y) = 0.17741 0.18366
# Poissons Ratio (z) = -0.15403 0.23145
#
# Static dielectric constant tensor:
#      x y z
#    x 1.668240 0.000000 0.000000 
#    y 0.000000 1.636750 0.000000 
#    z 0.000000 0.000000 1.646970 
# 
# From -- ./inp_files/5162.got.cif
#   From: 2010.05.17/outbox.cif.g08.bks.cpg/sg66_3_cif.got.tgz:5162.got - 2010.06.03 17:51:23.
