data_PCOD9498044
_publ_section_title
;
Structure prediction by ZEFSAII (Michael W. Deem and Ramdas Pophale) SiO2 
 PCOD9498044
Probable space group: C C C M
;
_chemical_formula_sum "Si O2"
_cell_formula_units_Z 72
_cell_length_a 32.461992
_cell_length_b 13.356083
_cell_length_c 9.041582
_cell_angle_alpha 90.000000
_cell_angle_beta 90.000000
_cell_angle_gamma 90.000000
_cell_volume 3920.114038
_symmetry_space_group_name_H-M "C C C M"
_symmetry_group_IT_number 66
_symmetry_cell_setting 'orthorhombic'
loop_
_space_group_symop_operation_xyz
x,y,z
-x,-y,z
x,-y,1/2-z
-x,y,1/2-z
-x,-y,-z
x,y,-z
-x,y,1/2+z
x,-y,1/2+z
1/2+x,1/2+y,z
1/2-x,1/2-y,z
1/2+x,1/2-y,1/2-z
1/2-x,1/2+y,1/2-z
1/2-x,1/2-y,-z
1/2+x,1/2+y,-z
1/2-x,1/2+y,1/2+z
1/2+x,1/2-y,1/2+z
loop_
_atom_site_type_symbol
_atom_site_label
_atom_site_fract_x
_atom_site_fract_y
_atom_site_fract_z
Si Si1 0.454763 0.893598 0.320564
Si Si2 0.250000 0.250000 0.755010
Si Si3 0.116932 0.278018 0.678276
Si Si4 0.815051 0.594455 0.164892
Si Si5 0.677929 0.395403 0.168251
O O1 0.500000 0.878684 0.250000
O O2 0.455986 0.899363 0.500000
O O3 0.424874 0.806107 0.262309
O O4 0.440160 0.000000 0.250000
O O5 0.219811 0.321886 0.843225
O O6 0.281619 0.324254 0.672069
O O7 0.112263 0.280278 0.500000
O O8 0.148723 0.362865 0.733192
O O9 0.139808 0.174266 0.722162
O O10 0.797089 0.500000 0.250000
O O11 0.829826 0.570093 0.000000
O O12 0.683882 0.500000 0.250000
O O13 0.668826 0.420582 0.000000
#
# Coordination Sequence:
#
# PCOD9498044 Si02
#       5
#    16   8  16  16  16
#     4  11  21  35  57  86 118 150 181 220 267 323
#     4  10  22  36  54  76 104 140 182 226 272 324
#     4  10  21  38  56  78 108 144 181 221 268 323
#     4  11  22  35  51  74 102 137 177 221 268 319
#     4  10  22  38  58  80 108 143 184 230 278 328
#
# _framework density 18.366813
#
# number of rings (size 3 to 8) (size 9 to 14) (size 15 to 20)
#    0.000    1.556    0.000    6.000    0.000    9.778 
#    0.000    0.000    0.000    0.667    0.000    4.667 
#    0.000    0.000    0.000    0.000    0.000    0.000 
#
# Total GULP energy -200755.804668 kJ/mol
# GULP energy per Si atom -5576.550130 kJ/mol
# Density = 1.832501 g / cm^3
# Si number density = 18.366813 Si / 1000 Ang^3
#
#
#
# Elastic Constant Matrix: (Units=GPa)
#
#
# Indices 1 2 3 4 5 6 
#
# 1 89.1818 47.4713 30.3252 0.0000 0.0000 0.0000
# 2 47.4713 119.8218 53.8267 0.0000 0.0000 0.0000
# 3 30.3252 53.8267 117.3104 0.0000 0.0000 0.0000
# 4 0.0000 0.0000 0.0000 12.9210 0.0000 0.0000
# 5 0.0000 0.0000 0.0000 0.0000 27.3334 0.0000
# 6 0.0000 0.0000 0.0000 0.0000 0.0000 24.1284
#
#
#
# Elastic Compliance Matrix: (Units=1/GPa)
#
#
# Indices 1 2 3 4 5 6 
#
# 1 0.014388 -0.005075 -0.001390 0.000000 0.000000 0.000000
# 2 -0.005075 0.012303 -0.004333 0.000000 0.000000 0.000000
# 3 -0.001390 -0.004333 0.010872 0.000000 0.000000 0.000000
# 4 0.000000 0.000000 0.000000 0.077394 0.000000 0.000000
# 5 0.000000 0.000000 0.000000 0.000000 0.036585 0.000000
# 6 0.000000 0.000000 0.000000 0.000000 0.000000 0.041445
#
#
# Mechanical properties :
#
#
# Convention : Reuss Voigt Hill
#
# Bulk Modulus (GPa) = 62.63848 65.50672 64.07260
# Shear Modulus (GPa) = 22.73698 25.85593 24.29646
#
# Velocity S-wave (km/s) = 3.52225 3.75607 3.64104
# Velocity P-wave (km/s) = 7.12179 7.38607 7.25513
#
# Compressibility (1/GPa) = 0.01596463
#
# Stress axis : x y z
#
# Youngs Moduli (GPa) = 69.50474 81.28047 91.97916
#
# Poissons Ratio (x) = 0.41254 0.12789
# Poissons Ratio (y) = 0.35277 0.39856
# Poissons Ratio (z) = 0.09664 0.35220
#
# Static dielectric constant tensor:
#      x y z
#    x 1.653820 0.000000 0.000000 
#    y 0.000000 1.661890 0.000000 
#    z 0.000000 0.000000 1.631940 
# 
# From -- ./inp_files/11292.got.cif
#   From: 2010.05.17/outbox.cif.g08.bks.cpg/sg66_6_cif.got.tgz:11292.got - 2010.06.03 17:51:23.
