data_PCOD9498236
_publ_section_title
;
Structure prediction by ZEFSAII (Michael W. Deem and Ramdas Pophale) SiO2 
 PCOD9498236
Probable space group: C C C M
;
_chemical_formula_sum "Si O2"
_cell_formula_units_Z 96
_cell_length_a 21.851073
_cell_length_b 22.470053
_cell_length_c 9.342891
_cell_angle_alpha 90.000000
_cell_angle_beta 90.000000
_cell_angle_gamma 90.000000
_cell_volume 4587.310603
_symmetry_space_group_name_H-M "C C C M"
_symmetry_group_IT_number 66
_symmetry_cell_setting 'orthorhombic'
loop_
_space_group_symop_operation_xyz
x,y,z
-x,-y,z
x,-y,1/2-z
-x,y,1/2-z
-x,-y,-z
x,y,-z
-x,y,1/2+z
x,-y,1/2+z
1/2+x,1/2+y,z
1/2-x,1/2-y,z
1/2+x,1/2-y,1/2-z
1/2-x,1/2+y,1/2-z
1/2-x,1/2-y,-z
1/2+x,1/2+y,-z
1/2-x,1/2+y,1/2+z
1/2+x,1/2-y,1/2+z
loop_
_atom_site_type_symbol
_atom_site_label
_atom_site_fract_x
_atom_site_fract_y
_atom_site_fract_z
Si Si1 0.554877 0.575946 0.500000
Si Si2 0.178511 0.445015 0.168578
Si Si3 0.877049 0.266062 0.166096
Si Si4 0.908194 0.059459 0.500000
Si Si5 0.436613 0.895237 0.829893
Si Si6 0.762220 0.655410 0.662640
Si Si7 0.377498 0.356786 0.743530
O O1 0.481864 0.569056 0.500000
O O2 0.592038 0.512694 0.500000
O O3 0.575548 0.613926 0.634627
O O4 0.209135 0.500000 0.250000
O O5 0.114495 0.433705 0.249391
O O6 0.216704 0.387159 0.209798
O O7 0.172266 0.453972 0.000000
O O8 0.915429 0.326393 0.187323
O O9 0.805969 0.286976 0.179325
O O10 0.895433 0.212204 0.270509
O O11 0.886287 0.247322 0.000000
O O12 0.877805 0.094715 0.631410
O O13 0.500000 0.904685 0.750000
O O14 0.439126 0.908043 0.000000
O O15 0.778113 0.633689 0.500000
O O16 0.689344 0.654439 0.674660
#
# Coordination Sequence:
#
# PCOD9498236 Si02
#       7
#     8  16  16   8  16  16  16
#     4  11  24  48  65  82 124 174 213 264 326 379
#     4  11  23  40  62  90 128 168 211 260 315 366
#     4   9  19  39  64  93 126 164 207 255 313 382
#     4  11  28  42  61  94 128 158 213 278 324 375
#     4  10  21  39  62  91 128 167 213 260 314 369
#     4  10  21  40  65  94 128 164 208 259 317 383
#     4  12  22  42  68  94 118 169 210 254 318 398
#
# _framework density 20.927295000000001
#
# number of rings (size 3 to 8) (size 9 to 14) (size 15 to 20)
#    0.000    1.500    1.667    4.500    1.167    5.667 
#    7.500    2.500    0.000    0.000    0.000    0.000 
#    0.000    0.000    0.000    0.000    0.000    0.000 
#
# Total GULP energy -267695.478120 kJ/mol
# GULP energy per Si atom -5576.989127 kJ/mol
# Density = 2.087966 g / cm^3
# Si number density = 20.927295 Si / 1000 Ang^3
#
#
#
# Elastic Constant Matrix: (Units=GPa)
#
#
# Indices 1 2 3 4 5 6 
#
# 1 40.1806 -6.8348 2.3210 0.0000 0.0000 0.0000
# 2 -6.8348 99.0664 23.7130 0.0000 0.0000 0.0000
# 3 2.3210 23.7130 103.6366 0.0000 0.0000 0.0000
# 4 0.0000 0.0000 0.0000 12.6661 0.0000 0.0000
# 5 0.0000 0.0000 0.0000 0.0000 -12.6771 0.0000
# 6 0.0000 0.0000 0.0000 0.0000 0.0000 16.8595
#
#
#
# Elastic Compliance Matrix: (Units=1/GPa)
#
#
# Indices 1 2 3 4 5 6 
#
# 1 0.025285 0.001989 -0.001021 0.000000 0.000000 0.000000
# 2 0.001989 0.010836 -0.002524 0.000000 0.000000 0.000000
# 3 -0.001021 -0.002524 0.010249 0.000000 0.000000 0.000000
# 4 0.000000 0.000000 0.000000 0.078951 0.000000 0.000000
# 5 0.000000 0.000000 0.000000 0.000000 -0.078883 0.000000
# 6 0.000000 0.000000 0.000000 0.000000 0.000000 0.059314
#
#
# Mechanical properties :
#
#
# Convention : Reuss Voigt Hill
#
# Bulk Modulus (GPa) = 23.11738 31.25357 27.18548
# Shear Modulus (GPa) = 40.55689 18.28200 29.41944
#
# Velocity S-wave (km/s) = 4.40704 2.95887 3.75346
# Velocity P-wave (km/s) = 6.08001 5.16140 5.63944
#
# Compressibility (1/GPa) = 0.04325749
#
# Stress axis : x y z
#
# Youngs Moduli (GPa) = 39.54917 92.28861 97.56621
#
# Poissons Ratio (x) = -0.18356 0.09965
# Poissons Ratio (y) = -0.07866 0.24624
# Poissons Ratio (z) = 0.04039 0.23292
#
# Static dielectric constant tensor:
#      x y z
#    x 1.761760 0.000000 0.000000 
#    y 0.000000 1.792640 0.000000 
#    z 0.000000 0.000000 1.776950 
# 
# From -- ./inp_files/9157.got.cif
#   From: 2010.05.17/outbox.cif.g08.bks.cpg/sg66_5_cif.got.tgz:9157.got - 2010.06.03 17:51:23.
