data_PCOD9498154
_publ_section_title
;
Structure prediction by ZEFSAII (Michael W. Deem and Ramdas Pophale) SiO2 
 PCOD9498154
Probable space group: C C C M
;
_chemical_formula_sum "Si O2"
_cell_formula_units_Z 72
_cell_length_a 11.520957
_cell_length_b 23.520726
_cell_length_c 14.196439
_cell_angle_alpha 90.000000
_cell_angle_beta 90.000000
_cell_angle_gamma 90.000000
_cell_volume 3846.969110
_symmetry_space_group_name_H-M "C C C M"
_symmetry_group_IT_number 66
_symmetry_cell_setting 'orthorhombic'
loop_
_space_group_symop_operation_xyz
x,y,z
-x,-y,z
x,-y,1/2-z
-x,y,1/2-z
-x,-y,-z
x,y,-z
-x,y,1/2+z
x,-y,1/2+z
1/2+x,1/2+y,z
1/2-x,1/2-y,z
1/2+x,1/2-y,1/2-z
1/2-x,1/2+y,1/2-z
1/2-x,1/2-y,-z
1/2+x,1/2+y,-z
1/2-x,1/2+y,1/2+z
1/2+x,1/2-y,1/2+z
loop_
_atom_site_type_symbol
_atom_site_label
_atom_site_fract_x
_atom_site_fract_y
_atom_site_fract_z
Si Si1 0.292315 0.566786 0.242955
Si Si2 0.889734 0.754324 0.109527
Si Si3 0.870890 0.369588 0.607845
Si Si4 0.000000 0.846725 0.750000
Si Si5 0.417423 0.951846 0.105535
O O1 0.330177 0.500000 0.250000
O O2 0.222711 0.593819 0.332956
O O3 0.396299 0.610299 0.220388
O O4 0.194652 0.563933 0.163000
O O5 0.750000 0.750000 0.110571
O O6 0.910335 0.691107 0.148736
O O7 0.946026 0.804673 0.170460
O O8 0.927471 0.759193 0.000000
O O9 0.825984 0.361525 0.500000
O O10 0.992243 0.401360 0.600786
O O11 0.500000 0.000000 0.148534
O O12 0.384296 0.971118 0.000000
#
# Coordination Sequence:
#
# PCOD9498154 Si02
#       5
#    16  16  16   8  16
#     4  12  24  39  61  91 135 171 204 258 317 377
#     4  10  22  43  66  86 119 168 217 261 312 381
#     4  10  21  39  65  93 119 159 216 265 313 375
#     4  12  27  40  62  98 131 168 216 260 320 388
#     4  10  21  38  63  93 122 162 215 264 312 367
#
# _framework density 18.716032999999999
#
# number of rings (size 3 to 8) (size 9 to 14) (size 15 to 20)
#    0.000    1.333    4.444    1.000    3.111    0.889 
#    0.000    0.000    0.000    8.667    0.000    0.000 
#    0.000    0.000    0.000    0.000    0.000    0.000 
#
# Total GULP energy -200414.948410 kJ/mol
# GULP energy per Si atom -5567.081900 kJ/mol
# Density = 1.867343 g / cm^3
# Si number density = 18.716033 Si / 1000 Ang^3
#
#
#
# Elastic Constant Matrix: (Units=GPa)
#
#
# Indices 1 2 3 4 5 6 
#
# 1 94.1004 53.2768 38.1318 0.0000 0.0000 0.0000
# 2 53.2768 164.4624 43.9537 0.0000 0.0000 0.0000
# 3 38.1318 43.9537 93.8485 0.0000 0.0000 0.0000
# 4 0.0000 0.0000 0.0000 17.4268 0.0000 0.0000
# 5 0.0000 0.0000 0.0000 0.0000 25.2257 0.0000
# 6 0.0000 0.0000 0.0000 0.0000 0.0000 38.8906
#
#
#
# Elastic Compliance Matrix: (Units=1/GPa)
#
#
# Indices 1 2 3 4 5 6 
#
# 1 0.014309 -0.003522 -0.004164 0.000000 0.000000 0.000000
# 2 -0.003522 0.007817 -0.002230 0.000000 0.000000 0.000000
# 3 -0.004164 -0.002230 0.013392 0.000000 0.000000 0.000000
# 4 0.000000 0.000000 0.000000 0.057383 0.000000 0.000000
# 5 0.000000 0.000000 0.000000 0.000000 0.039642 0.000000
# 6 0.000000 0.000000 0.000000 0.000000 0.000000 0.025713
#
#
# Mechanical properties :
#
#
# Convention : Reuss Voigt Hill
#
# Bulk Modulus (GPa) = 63.75577 69.23732 66.49655
# Shear Modulus (GPa) = 27.27511 30.77855 29.02683
#
# Velocity S-wave (km/s) = 3.82162 4.05965 3.94243
# Velocity P-wave (km/s) = 7.32201 7.68428 7.50533
#
# Compressibility (1/GPa) = 0.01568485
#
# Stress axis : x y z
#
# Youngs Moduli (GPa) = 69.88820 127.91850 74.67221
#
# Poissons Ratio (x) = 0.45057 0.31094
# Poissons Ratio (y) = 0.24617 0.16653
# Poissons Ratio (z) = 0.29102 0.28528
#
# Static dielectric constant tensor:
#      x y z
#    x 1.669130 0.000000 0.000000 
#    y 0.000000 2.054600 0.000000 
#    z 0.000000 0.000000 1.716520 
# 
# From -- ./inp_files/26302.got.cif
#   From: 2010.05.17/outbox.cif.g08.bks.cpg/sg66_14_cif.got.tgz:26302.got - 2010.06.03 17:51:23.
