data_PCOD9498310
_publ_section_title
;
Structure prediction by ZEFSAII (Michael W. Deem and Ramdas Pophale) SiO2 
 PCOD9498310
Probable space group: C C C M
;
_chemical_formula_sum "Si O2"
_cell_formula_units_Z 60
_cell_length_a 11.162036
_cell_length_b 18.446191
_cell_length_c 15.191187
_cell_angle_alpha 90.000000
_cell_angle_beta 90.000000
_cell_angle_gamma 90.000000
_cell_volume 3127.820559
_symmetry_space_group_name_H-M "C C C M"
_symmetry_group_IT_number 66
_symmetry_cell_setting 'orthorhombic'
loop_
_space_group_symop_operation_xyz
x,y,z
-x,-y,z
x,-y,1/2-z
-x,y,1/2-z
-x,-y,-z
x,y,-z
-x,y,1/2+z
x,-y,1/2+z
1/2+x,1/2+y,z
1/2-x,1/2-y,z
1/2+x,1/2-y,1/2-z
1/2-x,1/2+y,1/2-z
1/2-x,1/2-y,-z
1/2+x,1/2+y,-z
1/2-x,1/2+y,1/2+z
1/2+x,1/2-y,1/2+z
loop_
_atom_site_type_symbol
_atom_site_label
_atom_site_fract_x
_atom_site_fract_y
_atom_site_fract_z
Si Si1 0.170621 0.882061 0.320976
Si Si2 0.500000 0.738800 0.250000
Si Si3 0.000000 0.000000 0.750000
Si Si4 0.957993 0.416922 0.000000
Si Si5 0.708768 0.164711 0.500000
Si Si6 0.609879 0.878798 0.690362
O O1 0.090326 0.811034 0.303660
O O2 0.236747 0.871637 0.412805
O O3 0.269390 0.889050 0.244420
O O4 0.082525 0.949570 0.310741
O O5 0.576274 0.793349 0.310341
O O6 0.000000 0.500000 0.000000
O O7 0.888264 0.406443 0.908525
O O8 0.068464 0.358621 0.000000
O O9 0.750000 0.250000 0.500000
O O10 0.500000 0.910303 0.750000
#
# Coordination Sequence:
#
# PCOD9498310 Si02
#       6
#    16   8   4   8   8  16
#     4  11  22  42  66  95 134 172 218 272 322 401
#     4   9  20  41  65  98 127 170 220 268 325 380
#     4  10  28  42  62  88 134 182 214 256 350 388
#     4  12  26  38  59 107 127 171 220 271 335 400
#     4  12  22  41  74  98 130 174 228 272 325 404
#     4  10  21  39  66  88 130 163 217 268 325 382
#
# _framework density 19.182686
#
# number of rings (size 3 to 8) (size 9 to 14) (size 15 to 20)
#    0.800    0.533    2.667    4.000    3.733    1.067 
#    0.000    8.000    0.000    0.000    0.000    0.000 
#    0.000    0.000    0.000    0.000    0.000    0.000 
#
# Total GULP energy -167425.621817 kJ/mol
# GULP energy per Si atom -5580.854061 kJ/mol
# Density = 1.913903 g / cm^3
# Si number density = 19.182686 Si / 1000 Ang^3
#
#
#
# Elastic Constant Matrix: (Units=GPa)
#
#
# Indices 1 2 3 4 5 6 
#
# 1 106.6156 32.1617 55.2308 0.0000 0.0000 0.0000
# 2 32.1617 103.7450 41.2838 0.0000 0.0000 0.0000
# 3 55.2308 41.2838 179.1760 0.0000 0.0000 0.0000
# 4 0.0000 0.0000 0.0000 3.4159 0.0000 0.0000
# 5 0.0000 0.0000 0.0000 0.0000 20.3879 0.0000
# 6 0.0000 0.0000 0.0000 0.0000 0.0000 -24.4565
#
#
#
# Elastic Compliance Matrix: (Units=1/GPa)
#
#
# Indices 1 2 3 4 5 6 
#
# 1 0.011685 -0.002410 -0.003047 0.000000 0.000000 0.000000
# 2 -0.002410 0.011109 -0.001817 0.000000 0.000000 0.000000
# 3 -0.003047 -0.001817 0.006939 0.000000 0.000000 0.000000
# 4 0.000000 0.000000 0.000000 0.292747 0.000000 0.000000
# 5 0.000000 0.000000 0.000000 0.000000 0.049049 0.000000
# 6 0.000000 0.000000 0.000000 0.000000 0.000000 -0.040889
#
#
# Mechanical properties :
#
#
# Convention : Reuss Voigt Hill
#
# Bulk Modulus (GPa) = 65.85007 71.87659 68.86333
# Shear Modulus (GPa) = 14.27559 17.26016 15.76788
#
# Velocity S-wave (km/s) = 2.73095 3.00288 2.87014
# Velocity P-wave (km/s) = 6.65932 7.04088 6.85275
#
# Compressibility (1/GPa) = 0.01518601
#
# Stress axis : x y z
#
# Youngs Moduli (GPa) = 85.58203 90.01638 144.11752
#
# Poissons Ratio (x) = 0.21694 0.43905
# Poissons Ratio (y) = 0.20625 0.26183
# Poissons Ratio (z) = 0.26073 0.16354
#
# Static dielectric constant tensor:
#      x y z
#    x 1.682550 0.000000 0.000000 
#    y 0.000000 1.692320 0.000000 
#    z 0.000000 0.000000 1.668390 
# 
# From -- ./inp_files/26042.got.cif
#   From: 2010.05.17/outbox.cif.g08.bks.cpg/sg66_14_cif.got.tgz:26042.got - 2010.06.03 17:51:23.
