data_PCOD9498371
_publ_section_title
;
Structure prediction by ZEFSAII (Michael W. Deem and Ramdas Pophale) SiO2 
 PCOD9498371
Probable space group: C C C M
;
_chemical_formula_sum "Si O2"
_cell_formula_units_Z 116
_cell_length_a 9.787611
_cell_length_b 25.097286
_cell_length_c 25.017004
_cell_angle_alpha 90.000000
_cell_angle_beta 90.000000
_cell_angle_gamma 90.000000
_cell_volume 6145.238718
_symmetry_space_group_name_H-M "C C C M"
_symmetry_group_IT_number 66
_symmetry_cell_setting 'orthorhombic'
loop_
_space_group_symop_operation_xyz
x,y,z
-x,-y,z
x,-y,1/2-z
-x,y,1/2-z
-x,-y,-z
x,y,-z
-x,y,1/2+z
x,-y,1/2+z
1/2+x,1/2+y,z
1/2-x,1/2-y,z
1/2+x,1/2-y,1/2-z
1/2-x,1/2+y,1/2-z
1/2-x,1/2-y,-z
1/2+x,1/2+y,-z
1/2-x,1/2+y,1/2+z
1/2+x,1/2-y,1/2+z
loop_
_atom_site_type_symbol
_atom_site_label
_atom_site_fract_x
_atom_site_fract_y
_atom_site_fract_z
Si Si1 0.163173 0.994296 0.438546
Si Si2 0.981671 0.156565 0.686786
Si Si3 0.181633 0.066257 0.336340
Si Si4 0.964286 0.383813 0.811153
Si Si5 0.091257 0.265300 0.355777
Si Si6 0.000000 0.000000 0.750000
Si Si7 0.726957 0.891189 0.876855
Si Si8 0.372169 0.211749 0.936904
O O1 0.216002 0.999578 0.500000
O O2 0.206846 0.938531 0.411228
O O3 0.199430 0.037636 0.393369
O O4 0.000000 0.000000 0.441987
O O5 0.838202 0.135314 0.663292
O O6 0.000000 0.147240 0.750000
O O7 0.095775 0.120687 0.657570
O O8 0.011391 0.218491 0.675603
O O9 0.331255 0.080338 0.316575
O O10 0.096811 0.032710 0.291523
O O11 0.930395 0.323889 0.831190
O O12 0.000000 0.379008 0.750000
O O13 0.094229 0.407394 0.842736
O O14 0.250000 0.250000 0.357854
O O15 0.014616 0.269197 0.412323
O O16 0.670321 0.846102 0.916349
O O17 0.250000 0.250000 0.917822
O O18 0.377867 0.213159 0.000000
#
# Coordination Sequence:
#
# PCOD9498371 Si02
#       8
#    16  16  16  16  16   4  16  16
#     4  11  24  44  69  97 127 168 229 280 325 393
#     4  12  22  39  67  94 132 175 214 260 320 398
#     4  12  24  44  67 100 127 172 221 269 335 383
#     4  11  26  42  64 101 140 172 213 271 332 399
#     4  11  23  41  63  96 138 171 217 264 322 399
#     4  12  24  44  72  92 132 168 226 278 316 402
#     4  11  23  43  65  96 130 173 216 267 335 394
#     4  10  21  40  65  92 125 168 220 271 321 384
#
# _framework density 18.876401999999999
#
# number of rings (size 3 to 8) (size 9 to 14) (size 15 to 20)
#    0.000    0.828    5.517    1.655    1.931    0.828 
#    0.000    4.828    0.000    0.000    0.000    0.000 
#    0.000    0.000    0.000    0.000    0.000    0.000 
#
# Total GULP energy -323782.663235 kJ/mol
# GULP energy per Si atom -5582.459711 kJ/mol
# Density = 1.883344 g / cm^3
# Si number density = 18.876402 Si / 1000 Ang^3
#
#
#
# Elastic Constant Matrix: (Units=GPa)
#
#
# Indices 1 2 3 4 5 6 
#
# 1 140.0269 32.1789 54.8937 0.0000 0.0000 0.0000
# 2 32.1789 66.2379 50.9690 0.0000 0.0000 0.0000
# 3 54.8937 50.9690 125.0045 0.0000 0.0000 0.0000
# 4 0.0000 0.0000 0.0000 -15.8084 0.0000 0.0000
# 5 0.0000 0.0000 0.0000 0.0000 19.5727 0.0000
# 6 0.0000 0.0000 0.0000 0.0000 0.0000 1908.2655
#
#
#
# Elastic Compliance Matrix: (Units=1/GPa)
#
#
# Indices 1 2 3 4 5 6 
#
# 1 0.008787 -0.001894 -0.003086 0.000000 0.000000 0.000000
# 2 -0.001894 0.022407 -0.008305 0.000000 0.000000 0.000000
# 3 -0.003086 -0.008305 0.012741 0.000000 0.000000 0.000000
# 4 0.000000 0.000000 0.000000 -0.063258 0.000000 0.000000
# 5 0.000000 0.000000 0.000000 0.000000 0.051092 0.000000
# 6 0.000000 0.000000 0.000000 0.000000 0.000000 0.000524
#
#
# Mechanical properties :
#
#
# Convention : Reuss Voigt Hill
#
# Bulk Modulus (GPa) = 57.58513 67.48364 62.53439
# Shear Modulus (GPa) = 77.33777 395.28781 236.31279
#
# Velocity S-wave (km/s) = 6.40777 14.48665 11.20095
# Velocity P-wave (km/s) = 9.23681 17.76641 14.15917
#
# Compressibility (1/GPa) = 0.01736559
#
# Stress axis : x y z
#
# Youngs Moduli (GPa) = 113.80985 44.62800 78.48549
#
# Poissons Ratio (x) = 0.08451 0.24223
# Poissons Ratio (y) = 0.21552 0.65180
# Poissons Ratio (z) = 0.35126 0.37063
#
# Static dielectric constant tensor:
#      x y z
#    x 1.653270 0.000000 0.000000 
#    y 0.000000 1.670650 0.000000 
#    z 0.000000 0.000000 1.641190 
# 
# From -- ./inp_files/55914.got.cif
#   From: 2010.05.17/outbox.cif.g08.bks.cpg/sg66_28_cif.got.tgz:55914.got - 2010.06.03 17:51:23.
