data_PCOD9498789
_publ_section_title
;
Structure prediction by ZEFSAII (Michael W. Deem and Ramdas Pophale) SiO2 
 PCOD9498789
Probable space group: C C C M
;
_chemical_formula_sum "Si O2"
_cell_formula_units_Z 112
_cell_length_a 14.106783
_cell_length_b 23.882951
_cell_length_c 15.609005
_cell_angle_alpha 90.000000
_cell_angle_beta 90.000000
_cell_angle_gamma 90.000000
_cell_volume 5258.854961
_symmetry_space_group_name_H-M "C C C M"
_symmetry_group_IT_number 66
_symmetry_cell_setting 'orthorhombic'
loop_
_space_group_symop_operation_xyz
x,y,z
-x,-y,z
x,-y,1/2-z
-x,y,1/2-z
-x,-y,-z
x,y,-z
-x,y,1/2+z
x,-y,1/2+z
1/2+x,1/2+y,z
1/2-x,1/2-y,z
1/2+x,1/2-y,1/2-z
1/2-x,1/2+y,1/2-z
1/2-x,1/2-y,-z
1/2+x,1/2+y,-z
1/2-x,1/2+y,1/2+z
1/2+x,1/2-y,1/2+z
loop_
_atom_site_type_symbol
_atom_site_label
_atom_site_fract_x
_atom_site_fract_y
_atom_site_fract_z
Si Si1 0.137871 0.660733 0.404015
Si Si2 0.404887 0.028280 0.901064
Si Si3 0.277129 0.544843 0.690533
Si Si4 0.523579 0.563976 0.851041
Si Si5 0.432655 0.209117 0.403525
Si Si6 0.286906 0.847065 0.773571
Si Si7 0.116780 0.838356 0.904561
O O1 0.178789 0.666660 0.500000
O O2 0.099865 0.596123 0.396857
O O3 0.204001 0.675885 0.323639
O O4 0.042657 0.695664 0.395803
O O5 0.303134 0.013252 0.862484
O O6 0.500000 0.000000 0.862941
O O7 0.403517 0.011436 0.000000
O O8 0.328309 0.500000 0.750000
O O9 0.362671 0.572971 0.638401
O O10 0.220178 0.587430 0.750851
O O11 0.500000 0.500000 0.879251
O O12 0.500000 0.569736 0.750000
O O13 0.459473 0.611978 0.893638
O O14 0.401325 0.191565 0.500000
O O15 0.372100 0.176937 0.331284
O O16 0.423804 0.275818 0.398933
O O17 0.193432 0.838166 0.829069
O O18 0.159914 0.844497 0.000000
#
# Coordination Sequence:
#
# PCOD9498789 Si02
#       7
#    16  16  16  16  16  16  16
#     4   9  20  39  62  91 129 170 216 269 328 400
#     4   9  20  38  61  91 128 169 214 267 328 399
#     4  11  22  38  63  94 131 172 221 274 328 400
#     4  11  21  43  66  89 132 176 223 279 335 396
#     4  10  22  41  63  92 132 169 218 281 343 411
#     4  11  21  38  63  95 128 173 219 270 340 402
#     4  11  24  42  67  98 129 170 224 284 344 404
#
# _framework density 21.297411
#
# number of rings (size 3 to 8) (size 9 to 14) (size 15 to 20)
#    0.000    1.714    2.857    1.286    2.000    3.429 
#    2.571    2.143    0.000    1.714    0.000    0.000 
#    0.000    0.000    0.000    0.000    0.000    0.000 
#
# Total GULP energy -312051.459168 kJ/mol
# GULP energy per Si atom -5572.347485 kJ/mol
# Density = 2.124894 g / cm^3
# Si number density = 21.297411 Si / 1000 Ang^3
#
#
#
# Elastic Constant Matrix: (Units=GPa)
#
#
# Indices 1 2 3 4 5 6 
#
# 1 115.2647 27.1337 68.8034 0.0000 0.0000 0.0000
# 2 27.1337 44.7144 51.0220 0.0000 0.0000 0.0000
# 3 68.8034 51.0220 143.1723 0.0000 0.0000 0.0000
# 4 0.0000 0.0000 0.0000 9.2635 0.0000 0.0000
# 5 0.0000 0.0000 0.0000 0.0000 29.8653 0.0000
# 6 0.0000 0.0000 0.0000 0.0000 0.0000 25.1472
#
#
#
# Elastic Compliance Matrix: (Units=1/GPa)
#
#
# Indices 1 2 3 4 5 6 
#
# 1 0.012204 -0.001203 -0.005436 0.000000 0.000000 0.000000
# 2 -0.001203 0.037809 -0.012896 0.000000 0.000000 0.000000
# 3 -0.005436 -0.012896 0.014193 0.000000 0.000000 0.000000
# 4 0.000000 0.000000 0.000000 0.107951 0.000000 0.000000
# 5 0.000000 0.000000 0.000000 0.000000 0.033484 0.000000
# 6 0.000000 0.000000 0.000000 0.000000 0.000000 0.039766
#
#
# Mechanical properties :
#
#
# Convention : Reuss Voigt Hill
#
# Bulk Modulus (GPa) = 39.78334 66.34107 53.06220
# Shear Modulus (GPa) = 17.07337 23.26803 20.17070
#
# Velocity S-wave (km/s) = 2.83444 3.30893 3.08083
# Velocity P-wave (km/s) = 5.42517 6.76876 6.13387
#
# Compressibility (1/GPa) = 0.02513615
#
# Stress axis : x y z
#
# Youngs Moduli (GPa) = 81.94267 26.44864 70.45863
#
# Poissons Ratio (x) = 0.03180 0.38302
# Poissons Ratio (y) = 0.09854 0.90864
# Poissons Ratio (z) = 0.44545 0.34108
#
# Static dielectric constant tensor:
#      x y z
#    x 1.807560 0.000000 0.000000 
#    y 0.000000 1.644230 0.000000 
#    z 0.000000 0.000000 1.833220 
# 
# From -- ./inp_files/28738.got.cif
#   From: 2010.05.17/outbox.cif.g08.bks.cpg/sg66_15_cif.got.tgz:28738.got - 2010.06.03 17:51:23.
