data_PCOD9498856
_publ_section_title
;
Structure prediction by ZEFSAII (Michael W. Deem and Ramdas Pophale) SiO2 
 PCOD9498856
Probable space group: C C C M
;
_chemical_formula_sum "Si O2"
_cell_formula_units_Z 88
_cell_length_a 9.914196
_cell_length_b 26.730564
_cell_length_c 15.647428
_cell_angle_alpha 90.000000
_cell_angle_beta 90.000000
_cell_angle_gamma 90.000000
_cell_volume 4146.756982
_symmetry_space_group_name_H-M "C C C M"
_symmetry_group_IT_number 66
_symmetry_cell_setting 'orthorhombic'
loop_
_space_group_symop_operation_xyz
x,y,z
-x,-y,z
x,-y,1/2-z
-x,y,1/2-z
-x,-y,-z
x,y,-z
-x,y,1/2+z
x,-y,1/2+z
1/2+x,1/2+y,z
1/2-x,1/2-y,z
1/2+x,1/2-y,1/2-z
1/2-x,1/2+y,1/2-z
1/2-x,1/2-y,-z
1/2+x,1/2+y,-z
1/2-x,1/2+y,1/2+z
1/2+x,1/2-y,1/2+z
loop_
_atom_site_type_symbol
_atom_site_label
_atom_site_fract_x
_atom_site_fract_y
_atom_site_fract_z
Si Si1 0.500000 0.301353 0.250000
Si Si2 0.568991 0.119467 0.597403
Si Si3 0.197486 0.109469 0.233329
Si Si4 0.372283 0.464085 0.095576
Si Si5 0.791093 0.440944 0.097076
Si Si6 0.910501 0.738214 0.096882
O O1 0.370111 0.337013 0.244385
O O2 0.496049 0.267635 0.166238
O O3 0.623032 0.111785 0.500000
O O4 0.665603 0.110139 0.677757
O O5 0.440704 0.082599 0.602916
O O6 0.549978 0.179614 0.601830
O O7 0.109968 0.075557 0.169883
O O8 0.215561 0.085184 0.325246
O O9 0.500000 0.500000 0.099179
O O10 0.239597 0.499651 0.107164
O O11 0.370497 0.442456 0.000000
O O12 0.743011 0.429599 0.000000
O O13 0.750000 0.750000 0.112124
O O14 0.936662 0.755335 0.000000
#
# Coordination Sequence:
#
# PCOD9498856 Si02
#       6
#     8  16  16  16  16  16
#     4  12  26  36  65 102 130 171 232 280 336 418
#     4  10  22  42  66  92 125 172 230 283 341 412
#     4  12  23  38  63  96 129 171 218 280 338 414
#     4  10  22  42  66  93 132 175 221 280 348 416
#     4  10  23  41  62  91 129 173 218 276 339 408
#     4  10  22  43  66  91 134 182 225 279 347 421
#
# _framework density 21.221402000000001
#
# number of rings (size 3 to 8) (size 9 to 14) (size 15 to 20)
#    0.000    1.455    1.818    2.727    2.545    2.909 
#    0.000    4.545    0.000    3.818    0.000    0.000 
#    0.000    0.000    0.000    0.000    0.000    0.000 
#
# Total GULP energy -245563.508569 kJ/mol
# GULP energy per Si atom -5580.988831 kJ/mol
# Density = 2.117310 g / cm^3
# Si number density = 21.221402 Si / 1000 Ang^3
#
#
#
# Elastic Constant Matrix: (Units=GPa)
#
#
# Indices 1 2 3 4 5 6 
#
# 1 73.5477 33.8471 42.7195 0.0000 0.0000 0.0000
# 2 33.8471 56.4255 56.0102 0.0000 0.0000 0.0000
# 3 42.7195 56.0102 171.9492 0.0000 0.0000 0.0000
# 4 0.0000 0.0000 0.0000 42.0861 0.0000 0.0000
# 5 0.0000 0.0000 0.0000 0.0000 32.4872 0.0000
# 6 0.0000 0.0000 0.0000 0.0000 0.0000 32.1485
#
#
#
# Elastic Compliance Matrix: (Units=1/GPa)
#
#
# Indices 1 2 3 4 5 6 
#
# 1 0.019037 -0.009938 -0.001492 0.000000 0.000000 0.000000
# 2 -0.009938 0.031379 -0.007752 0.000000 0.000000 0.000000
# 3 -0.001492 -0.007752 0.008712 0.000000 0.000000 0.000000
# 4 0.000000 0.000000 0.000000 0.023761 0.000000 0.000000
# 5 0.000000 0.000000 0.000000 0.000000 0.030781 0.000000
# 6 0.000000 0.000000 0.000000 0.000000 0.000000 0.031106
#
#
# Mechanical properties :
#
#
# Convention : Reuss Voigt Hill
#
# Bulk Modulus (GPa) = 48.16426 63.00847 55.58636
# Shear Modulus (GPa) = 26.30722 32.63405 29.47064
#
# Velocity S-wave (km/s) = 3.52469 3.92572 3.73060
# Velocity P-wave (km/s) = 6.26977 7.09252 6.69380
#
# Compressibility (1/GPa) = 0.02076228
#
# Stress axis : x y z
#
# Youngs Moduli (GPa) = 52.52927 31.86834 114.78861
#
# Poissons Ratio (x) = 0.31671 0.17131
# Poissons Ratio (y) = 0.52204 0.88988
# Poissons Ratio (z) = 0.07840 0.24705
#
# Static dielectric constant tensor:
#      x y z
#    x 1.831120 0.000000 0.000000 
#    y 0.000000 1.760440 0.000000 
#    z 0.000000 0.000000 1.733370 
# 
# From -- ./inp_files/26763.got.cif
#   From: 2010.05.17/outbox.cif.g08.bks.cpg/sg66_14_cif.got.tgz:26763.got - 2010.06.03 17:51:23.
