data_PCOD9498095
_publ_section_title
;
Structure prediction by ZEFSAII (Michael W. Deem and Ramdas Pophale) SiO2 
 PCOD9498095
Probable space group: C C C M
;
_chemical_formula_sum "Si O2"
_cell_formula_units_Z 108
_cell_length_a 15.090699
_cell_length_b 24.063327
_cell_length_c 14.088753
_cell_angle_alpha 90.000000
_cell_angle_beta 90.000000
_cell_angle_gamma 90.000000
_cell_volume 5116.083038
_symmetry_space_group_name_H-M "C C C M"
_symmetry_group_IT_number 66
_symmetry_cell_setting 'orthorhombic'
loop_
_space_group_symop_operation_xyz
x,y,z
-x,-y,z
x,-y,1/2-z
-x,y,1/2-z
-x,-y,-z
x,y,-z
-x,y,1/2+z
x,-y,1/2+z
1/2+x,1/2+y,z
1/2-x,1/2-y,z
1/2+x,1/2-y,1/2-z
1/2-x,1/2+y,1/2-z
1/2-x,1/2-y,-z
1/2+x,1/2+y,-z
1/2-x,1/2+y,1/2+z
1/2+x,1/2-y,1/2+z
loop_
_atom_site_type_symbol
_atom_site_label
_atom_site_fract_x
_atom_site_fract_y
_atom_site_fract_z
Si Si1 0.294507 0.097822 0.107991
Si Si2 0.857028 0.523573 0.391520
Si Si3 0.982581 0.193669 0.388783
Si Si4 0.188671 0.199283 0.611478
Si Si5 0.690616 0.420125 0.791370
Si Si6 0.000000 0.906198 0.250000
Si Si7 0.000000 0.500000 0.250000
Si Si8 0.158113 0.280853 0.885525
O O1 0.219328 0.082570 0.182360
O O2 0.339189 0.154856 0.142933
O O3 0.355989 0.043647 0.105730
O O4 0.262002 0.107025 0.000000
O O5 0.868599 0.543581 0.500000
O O6 0.762806 0.543742 0.348937
O O7 0.935703 0.536218 0.318166
O O8 0.963094 0.184241 0.500000
O O9 0.084512 0.212282 0.381819
O O10 0.969374 0.136792 0.332006
O O11 0.919730 0.241736 0.349151
O O12 0.209364 0.189502 0.500000
O O13 0.250000 0.250000 0.644103
O O14 0.199849 0.141856 0.666686
O O15 0.586831 0.436606 0.791487
O O16 0.250000 0.250000 0.864405
O O17 0.148566 0.281985 0.000000
#
# Coordination Sequence:
#
# PCOD9498095 Si02
#       8
#    16  16  16  16  16   8   4  16
#     4  10  21  38  60  87 124 160 200 258 314 374
#     4  11  24  45  70  96 128 166 213 266 324 384
#     4   9  18  34  52  79 121 161 205 257 313 378
#     4   9  19  36  56  83 120 165 214 264 320 385
#     4  11  21  40  62  90 124 168 214 267 323 385
#     4  10  22  34  62  92 122 169 217 262 318 378
#     4  12  22  48  74 100 120 166 210 272 320 390
#     4   9  17  31  54  83 115 153 194 244 311 376
#
# _framework density 21.109898999999999
#
# number of rings (size 3 to 8) (size 9 to 14) (size 15 to 20)
#    0.000    2.074    1.481    1.556    0.000    5.333 
#    2.667    2.222    0.000    1.778    0.000    0.000 
#    0.000    0.000    0.000    0.000    0.000    0.000 
#
# Total GULP energy -301420.131099 kJ/mol
# GULP energy per Si atom -5581.854280 kJ/mol
# Density = 2.106185 g / cm^3
# Si number density = 21.109899 Si / 1000 Ang^3
#
#
#
# Elastic Constant Matrix: (Units=GPa)
#
#
# Indices 1 2 3 4 5 6 
#
# 1 108.3844 39.6704 32.2377 0.0000 0.0000 0.0000
# 2 39.6704 88.9620 9.8652 0.0000 0.0000 0.0000
# 3 32.2377 9.8652 109.2712 0.0000 0.0000 0.0000
# 4 0.0000 0.0000 0.0000 26.7985 0.0000 0.0000
# 5 0.0000 0.0000 0.0000 0.0000 19.2992 0.0000
# 6 0.0000 0.0000 0.0000 0.0000 0.0000 31.4256
#
#
#
# Elastic Compliance Matrix: (Units=1/GPa)
#
#
# Indices 1 2 3 4 5 6 
#
# 1 0.011972 -0.004997 -0.003081 0.000000 0.000000 0.000000
# 2 -0.004997 0.013440 0.000261 0.000000 0.000000 0.000000
# 3 -0.003081 0.000261 0.010037 0.000000 0.000000 0.000000
# 4 0.000000 0.000000 0.000000 0.037315 0.000000 0.000000
# 5 0.000000 0.000000 0.000000 0.000000 0.051816 0.000000
# 6 0.000000 0.000000 0.000000 0.000000 0.000000 0.031821
#
#
# Mechanical properties :
#
#
# Convention : Reuss Voigt Hill
#
# Bulk Modulus (GPa) = 50.46697 52.24046 51.35372
# Shear Modulus (GPa) = 27.98931 30.49429 29.24180
#
# Velocity S-wave (km/s) = 3.64522 3.80485 3.72589
# Velocity P-wave (km/s) = 6.45566 6.64102 6.54899
#
# Compressibility (1/GPa) = 0.01981494
#
# Stress axis : x y z
#
# Youngs Moduli (GPa) = 83.53038 74.40455 99.63215
#
# Poissons Ratio (x) = 0.37179 0.30695
# Poissons Ratio (y) = 0.41739 -0.02598
# Poissons Ratio (z) = 0.25734 -0.01940
#
# Static dielectric constant tensor:
#      x y z
#    x 1.778430 0.000000 0.000000 
#    y 0.000000 1.770230 0.000000 
#    z 0.000000 0.000000 1.812140 
# 
# From -- ./inp_files/28758.got.cif
#   From: 2010.05.17/outbox.cif.g08.bks.cpg/sg66_15_cif.got.tgz:28758.got - 2010.06.03 17:51:23.
