data_PCOD9498928
_publ_section_title
;
Structure prediction by ZEFSAII (Michael W. Deem and Ramdas Pophale) SiO2 
 PCOD9498928
Probable space group: C C C M
;
_chemical_formula_sum "Si O2"
_cell_formula_units_Z 112
_cell_length_a 12.676468
_cell_length_b 14.453985
_cell_length_c 27.728642
_cell_angle_alpha 90.000000
_cell_angle_beta 90.000000
_cell_angle_gamma 90.000000
_cell_volume 5080.593694
_symmetry_space_group_name_H-M "C C C M"
_symmetry_group_IT_number 66
_symmetry_cell_setting 'orthorhombic'
loop_
_space_group_symop_operation_xyz
x,y,z
-x,-y,z
x,-y,1/2-z
-x,y,1/2-z
-x,-y,-z
x,y,-z
-x,y,1/2+z
x,-y,1/2+z
1/2+x,1/2+y,z
1/2-x,1/2-y,z
1/2+x,1/2-y,1/2-z
1/2-x,1/2+y,1/2-z
1/2-x,1/2-y,-z
1/2+x,1/2+y,-z
1/2-x,1/2+y,1/2+z
1/2+x,1/2-y,1/2+z
loop_
_atom_site_type_symbol
_atom_site_label
_atom_site_fract_x
_atom_site_fract_y
_atom_site_fract_z
Si Si1 0.841974 0.537620 0.694786
Si Si2 0.600076 0.448714 0.802560
Si Si3 0.222013 0.381263 0.557561
Si Si4 0.124746 0.256581 0.887501
Si Si5 0.958901 0.268433 0.197099
Si Si6 0.106649 0.457352 0.096195
Si Si7 0.567604 0.283620 0.942113
O O1 0.858159 0.500000 0.750000
O O2 0.718674 0.533845 0.681099
O O3 0.882494 0.643490 0.687457
O O4 0.893177 0.472540 0.654097
O O5 0.500000 0.500000 0.827219
O O6 0.602286 0.500000 0.750000
O O7 0.585678 0.337231 0.801966
O O8 0.223124 0.372409 0.500000
O O9 0.199420 0.483238 0.574333
O O10 0.337618 0.350647 0.574057
O O11 0.124888 0.313927 0.573358
O O12 0.250000 0.250000 0.879121
O O13 0.115094 0.351961 0.916392
O O14 0.059066 0.265868 0.838286
O O15 0.044690 0.192780 0.918328
O O16 0.000000 0.287289 0.250000
O O17 0.000000 0.500000 0.076108
O O18 0.557638 0.283857 0.000000
#
# Coordination Sequence:
#
# PCOD9498928 Si02
#       7
#    16  16  16  16  16  16  16
#     4  11  25  40  67  95 131 174 222 281 337 393
#     4  10  22  44  63  94 124 169 224 273 327 399
#     4   9  19  38  71 102 131 172 225 287 337 403
#     4  12  28  43  64  99 140 183 223 280 349 406
#     4  12  24  42  68  93 132 176 230 278 334 396
#     4  12  23  42  62  98 134 165 228 280 329 412
#     4   9  19  41  69 101 135 173 225 280 344 415
#
# _framework density 22.044668000000001
#
# number of rings (size 3 to 8) (size 9 to 14) (size 15 to 20)
#    0.000    1.286    4.286    2.143    4.000    2.286 
#    0.000    0.714    0.000    1.714    0.000    0.000 
#    0.000    0.000    0.000    0.000    0.000    0.000 
#
# Total GULP energy -312162.645673 kJ/mol
# GULP energy per Si atom -5574.332958 kJ/mol
# Density = 2.199449 g / cm^3
# Si number density = 22.044668 Si / 1000 Ang^3
#
#
#
# Elastic Constant Matrix: (Units=GPa)
#
#
# Indices 1 2 3 4 5 6 
#
# 1 174.1235 18.3059 27.6807 0.0000 0.0000 0.0000
# 2 18.3059 75.6734 -10.4584 0.0000 0.0000 0.0000
# 3 27.6807 -10.4584 46.6085 0.0000 0.0000 0.0000
# 4 0.0000 0.0000 0.0000 23.2270 0.0000 0.0000
# 5 0.0000 0.0000 0.0000 0.0000 16.4623 0.0000
# 6 0.0000 0.0000 0.0000 0.0000 0.0000 52.8136
#
#
#
# Elastic Compliance Matrix: (Units=1/GPa)
#
#
# Indices 1 2 3 4 5 6 
#
# 1 0.006690 -0.002237 -0.004475 0.000000 0.000000 0.000000
# 2 -0.002237 0.014385 0.004556 0.000000 0.000000 0.000000
# 3 -0.004475 0.004556 0.025135 0.000000 0.000000 0.000000
# 4 0.000000 0.000000 0.000000 0.043053 0.000000 0.000000
# 5 0.000000 0.000000 0.000000 0.000000 0.060745 0.000000
# 6 0.000000 0.000000 0.000000 0.000000 0.000000 0.018935
#
#
# Mechanical properties :
#
#
# Convention : Reuss Voigt Hill
#
# Bulk Modulus (GPa) = 23.86643 40.82908 32.34775
# Shear Modulus (GPa) = 26.70656 35.89239 31.29947
#
# Velocity S-wave (km/s) = 3.48440 4.03943 3.77214
# Velocity P-wave (km/s) = 5.19980 6.34959 5.80324
#
# Compressibility (1/GPa) = 0.04189986
#
# Stress axis : x y z
#
# Youngs Moduli (GPa) = 149.48653 69.51466 39.78474
#
# Poissons Ratio (x) = 0.15548 0.17803
# Poissons Ratio (y) = 0.33435 -0.18127
# Poissons Ratio (z) = 0.66892 -0.31673
#
# Static dielectric constant tensor:
#      x y z
#    x 1.868010 0.000000 0.000000 
#    y 0.000000 1.870870 0.000000 
#    z 0.000000 0.000000 1.763210 
# 
# From -- ./inp_files/69083.got.cif
#   From: 2010.05.17/outbox.cif.g08.bks.cpg/sg66_35_cif.got.tgz:69083.got - 2010.06.03 17:51:23.
