data_PCOD9498670
_publ_section_title
;
Structure prediction by ZEFSAII (Michael W. Deem and Ramdas Pophale) SiO2 
 PCOD9498670
Probable space group: C C C M
;
_chemical_formula_sum "Si O2"
_cell_formula_units_Z 56
_cell_length_a 8.766687
_cell_length_b 11.611077
_cell_length_c 23.476487
_cell_angle_alpha 90.000000
_cell_angle_beta 90.000000
_cell_angle_gamma 90.000000
_cell_volume 2389.687524
_symmetry_space_group_name_H-M "C C C M"
_symmetry_group_IT_number 66
_symmetry_cell_setting 'orthorhombic'
loop_
_space_group_symop_operation_xyz
x,y,z
-x,-y,z
x,-y,1/2-z
-x,y,1/2-z
-x,-y,-z
x,y,-z
-x,y,1/2+z
x,-y,1/2+z
1/2+x,1/2+y,z
1/2-x,1/2-y,z
1/2+x,1/2-y,1/2-z
1/2-x,1/2+y,1/2-z
1/2-x,1/2-y,-z
1/2+x,1/2+y,-z
1/2-x,1/2+y,1/2+z
1/2+x,1/2-y,1/2+z
loop_
_atom_site_type_symbol
_atom_site_label
_atom_site_fract_x
_atom_site_fract_y
_atom_site_fract_z
Si Si1 0.177730 0.873622 0.228663
Si Si2 0.750000 0.250000 0.602340
Si Si3 0.757685 0.435194 0.000000
Si Si4 0.988748 0.755837 0.000000
Si Si5 0.818829 0.007283 0.620072
O O1 0.250000 0.750000 0.241632
O O2 0.000000 0.869938 0.250000
O O3 0.234597 0.000000 0.250000
O O4 0.208476 0.899179 0.161220
O O5 0.609110 0.253168 0.557799
O O6 0.767756 0.134745 0.640076
O O7 0.759092 0.502579 0.941386
O O8 0.898791 0.350880 0.000000
O O9 0.598723 0.365844 0.000000
O O10 0.000000 0.000000 0.613362
#
# Coordination Sequence:
#
# PCOD9498670 Si02
#       5
#    16   8   8   8  16
#     4  11  27  52  79 106 145 190 247 310 371 432
#     4  11  24  40  68 100 144 196 242 285 364 430
#     4  11  23  41  67 104 152 189 238 296 363 435
#     4  10  22  39  63 100 150 197 238 290 347 442
#     4  12  24  44  72 104 143 193 236 300 369 431
#
# _framework density 23.434025999999999
#
# number of rings (size 3 to 8) (size 9 to 14) (size 15 to 20)
#    0.000    0.857    5.714    2.143    6.000    2.857 
#    0.000    2.857    0.000    0.000    0.000    0.000 
#    0.000    0.000    0.000    0.000    0.000    0.000 
#
# Total GULP energy -156311.606350 kJ/mol
# GULP energy per Si atom -5582.557370 kJ/mol
# Density = 2.338069 g / cm^3
# Si number density = 23.434026 Si / 1000 Ang^3
#
#
#
# Elastic Constant Matrix: (Units=GPa)
#
#
# Indices 1 2 3 4 5 6 
#
# 1 59.1278 57.9481 13.1924 0.0000 0.0000 0.0000
# 2 57.9481 220.4498 66.8353 0.0000 0.0000 0.0000
# 3 13.1924 66.8353 97.7282 0.0000 0.0000 0.0000
# 4 0.0000 0.0000 0.0000 52.3194 0.0000 0.0000
# 5 0.0000 0.0000 0.0000 0.0000 7.1518 0.0000
# 6 0.0000 0.0000 0.0000 0.0000 0.0000 9.7064
#
#
#
# Elastic Compliance Matrix: (Units=1/GPa)
#
#
# Indices 1 2 3 4 5 6 
#
# 1 0.022910 -0.006415 0.001294 0.000000 0.000000 0.000000
# 2 -0.006415 0.007519 -0.004276 0.000000 0.000000 0.000000
# 3 0.001294 -0.004276 0.012982 0.000000 0.000000 0.000000
# 4 0.000000 0.000000 0.000000 0.019113 0.000000 0.000000
# 5 0.000000 0.000000 0.000000 0.000000 0.139825 0.000000
# 6 0.000000 0.000000 0.000000 0.000000 0.000000 0.103024
#
#
# Mechanical properties :
#
#
# Convention : Reuss Voigt Hill
#
# Bulk Modulus (GPa) = 40.62028 72.58417 56.60223
# Shear Modulus (GPa) = 15.04335 29.79087 22.41711
#
# Velocity S-wave (km/s) = 2.53641 3.56935 3.09626
# Velocity P-wave (km/s) = 5.09405 6.93023 6.08184
#
# Compressibility (1/GPa) = 0.02461825
#
# Stress axis : x y z
#
# Youngs Moduli (GPa) = 43.64823 133.00044 77.02904
#
# Poissons Ratio (x) = 0.85316 -0.09969
# Poissons Ratio (y) = 0.27999 0.32938
# Poissons Ratio (z) = -0.05649 0.56872
#
# Static dielectric constant tensor:
#      x y z
#    x 1.837260 0.000000 0.000000 
#    y 0.000000 1.922740 0.000000 
#    z 0.000000 0.000000 2.237300 
# 
# From -- ./inp_files/61981.got.cif
#   From: 2010.05.17/outbox.cif.g08.bks.cpg/sg66_31_cif.got.tgz:61981.got - 2010.06.03 17:51:23.
