data_PCOD9498990
_publ_section_title
;
Structure prediction by ZEFSAII (Michael W. Deem and Ramdas Pophale) SiO2 
 PCOD9498990
Probable space group: C C C M
;
_chemical_formula_sum "Si O2"
_cell_formula_units_Z 96
_cell_length_a 21.472544
_cell_length_b 15.136658
_cell_length_c 15.061165
_cell_angle_alpha 90.000000
_cell_angle_beta 90.000000
_cell_angle_gamma 90.000000
_cell_volume 4895.218328
_symmetry_space_group_name_H-M "C C C M"
_symmetry_group_IT_number 66
_symmetry_cell_setting 'orthorhombic'
loop_
_space_group_symop_operation_xyz
x,y,z
-x,-y,z
x,-y,1/2-z
-x,y,1/2-z
-x,-y,-z
x,y,-z
-x,y,1/2+z
x,-y,1/2+z
1/2+x,1/2+y,z
1/2-x,1/2-y,z
1/2+x,1/2-y,1/2-z
1/2-x,1/2+y,1/2-z
1/2-x,1/2-y,-z
1/2+x,1/2+y,-z
1/2-x,1/2+y,1/2+z
1/2+x,1/2-y,1/2+z
loop_
_atom_site_type_symbol
_atom_site_label
_atom_site_fract_x
_atom_site_fract_y
_atom_site_fract_z
Si Si1 0.178805 0.257715 0.731844
Si Si2 0.448218 0.264149 0.829417
Si Si3 0.401670 0.018291 0.500000
Si Si4 0.823488 0.906453 0.401045
Si Si5 0.934128 0.969932 0.146772
Si Si6 0.310075 0.949475 0.157388
Si Si7 0.489584 0.847480 0.500000
O O1 0.250000 0.250000 0.770080
O O2 0.119578 0.269146 0.796166
O O3 0.167552 0.170684 0.671670
O O4 0.180250 0.345112 0.672041
O O5 0.500000 0.263330 0.750000
O O6 0.434222 0.364869 0.856819
O O7 0.475352 0.209458 0.912069
O O8 0.358880 0.016523 0.413517
O O9 0.442150 0.108411 0.500000
O O10 0.445042 0.932821 0.500000
O O11 0.819057 0.867591 0.500000
O O12 0.759988 0.957232 0.378148
O O13 0.878405 0.977203 0.397104
O O14 0.931885 0.000000 0.250000
O O15 0.000000 0.000000 0.109162
O O16 0.316377 0.000000 0.250000
#
# Coordination Sequence:
#
# PCOD9498990 Si02
#       7
#    16  16   8  16  16  16   8
#     4  10  23  39  65  97 131 178 222 276 338 398
#     4  12  23  46  67  97 136 176 223 274 342 407
#     4  11  24  48  66  98 130 168 233 290 339 402
#     4  11  23  39  64  98 136 173 223 275 332 403
#     4  11  21  41  62  93 131 179 214 267 330 410
#     4  11  23  41  68  95 132 174 224 278 344 396
#     4  11  28  44  71  97 130 173 228 288 342 406
#
# _framework density 19.610973000000001
#
# number of rings (size 3 to 8) (size 9 to 14) (size 15 to 20)
#    0.000    1.000    4.167    2.500    4.667    1.333 
#    4.500    2.083    0.000    0.000    0.000    0.000 
#    0.000    0.000    0.000    0.000    0.000    0.000 
#
# Total GULP energy -268185.493791 kJ/mol
# GULP energy per Si atom -5587.197787 kJ/mol
# Density = 1.956634 g / cm^3
# Si number density = 19.610973 Si / 1000 Ang^3
#
#
#
# Elastic Constant Matrix: (Units=GPa)
#
#
# Indices 1 2 3 4 5 6 
#
# 1 138.8809 42.2680 51.3851 0.0000 0.0000 0.0000
# 2 42.2680 91.8998 30.4294 0.0000 0.0000 0.0000
# 3 51.3851 30.4294 101.8408 0.0000 0.0000 0.0000
# 4 0.0000 0.0000 0.0000 8.5293 0.0000 0.0000
# 5 0.0000 0.0000 0.0000 0.0000 27.2123 0.0000
# 6 0.0000 0.0000 0.0000 0.0000 0.0000 31.4780
#
#
#
# Elastic Compliance Matrix: (Units=1/GPa)
#
#
# Indices 1 2 3 4 5 6 
#
# 1 0.009596 -0.003119 -0.003910 0.000000 0.000000 0.000000
# 2 -0.003119 0.013090 -0.002337 0.000000 0.000000 0.000000
# 3 -0.003910 -0.002337 0.012491 0.000000 0.000000 0.000000
# 4 0.000000 0.000000 0.000000 0.117242 0.000000 0.000000
# 5 0.000000 0.000000 0.000000 0.000000 0.036748 0.000000
# 6 0.000000 0.000000 0.000000 0.000000 0.000000 0.031768
#
#
# Mechanical properties :
#
#
# Convention : Reuss Voigt Hill
#
# Bulk Modulus (GPa) = 60.81316 64.53185 62.67251
# Shear Modulus (GPa) = 20.39570 27.34652 23.87111
#
# Velocity S-wave (km/s) = 3.22842 3.73828 3.49267
# Velocity P-wave (km/s) = 6.70627 7.18404 6.94926
#
# Compressibility (1/GPa) = 0.01644381
#
# Stress axis : x y z
#
# Youngs Moduli (GPa) = 104.20603 76.39454 80.06078
#
# Poissons Ratio (x) = 0.23828 0.31304
# Poissons Ratio (y) = 0.32502 0.18714
# Poissons Ratio (z) = 0.40745 0.17857
#
# Static dielectric constant tensor:
#      x y z
#    x 1.719040 0.000000 0.000000 
#    y 0.000000 1.677650 0.000000 
#    z 0.000000 0.000000 1.690560 
# 
# From -- ./inp_files/31223.got.cif
#   From: 2010.05.17/outbox.cif.g08.bks.cpg/sg66_16_cif.got.tgz:31223.got - 2010.06.03 17:51:23.
