data_PCOD9498479
_publ_section_title
;
Structure prediction by ZEFSAII (Michael W. Deem and Ramdas Pophale) SiO2 
 PCOD9498479
Probable space group: C C C M
;
_chemical_formula_sum "Si O2"
_cell_formula_units_Z 52
_cell_length_a 7.144951
_cell_length_b 13.704744
_cell_length_c 24.114691
_cell_angle_alpha 90.000000
_cell_angle_beta 90.000000
_cell_angle_gamma 90.000000
_cell_volume 2361.303895
_symmetry_space_group_name_H-M "C C C M"
_symmetry_group_IT_number 66
_symmetry_cell_setting 'orthorhombic'
loop_
_space_group_symop_operation_xyz
x,y,z
-x,-y,z
x,-y,1/2-z
-x,y,1/2-z
-x,-y,-z
x,y,-z
-x,y,1/2+z
x,-y,1/2+z
1/2+x,1/2+y,z
1/2-x,1/2-y,z
1/2+x,1/2-y,1/2-z
1/2-x,1/2+y,1/2-z
1/2-x,1/2-y,-z
1/2+x,1/2+y,-z
1/2-x,1/2+y,1/2+z
1/2+x,1/2-y,1/2+z
loop_
_atom_site_type_symbol
_atom_site_label
_atom_site_fract_x
_atom_site_fract_y
_atom_site_fract_z
Si Si1 0.696617 0.555899 0.939113
Si Si2 0.500000 0.000000 0.250000
Si Si3 0.201139 0.400995 0.349147
Si Si4 0.939528 0.221543 0.364322
O O1 0.500000 0.500000 0.945049
O O2 0.792693 0.492261 0.891043
O O3 0.644600 0.662668 0.916656
O O4 0.787645 0.558308 0.000000
O O5 0.623954 0.934545 0.290445
O O6 0.407465 0.354561 0.341093
O O7 0.062821 0.318162 0.373757
O O8 0.750000 0.250000 0.331155
#
# Coordination Sequence:
#
# PCOD9498479 Si02
#       4
#    16   4  16  16
#     4   9  19  39  68 101 140 181 221 277 349 425
#     4  12  24  48  68  96 130 182 244 292 348 408
#     4  10  23  43  67  97 134 181 234 288 344 416
#     4  10  21  42  64  98 137 171 225 282 345 419
#
# _framework density 22.021730999999999
#
# number of rings (size 3 to 8) (size 9 to 14) (size 15 to 20)
#    0.000    2.154    0.000    1.846    0.000    1.846 
#   16.615   24.615    0.000    0.000    0.000    0.000 
#    0.000    0.000    0.000    0.000    0.000    0.000 
#
# Total GULP energy -145033.624321 kJ/mol
# GULP energy per Si atom -5578.216320 kJ/mol
# Density = 2.197161 g / cm^3
# Si number density = 22.021731 Si / 1000 Ang^3
#
#
#
# Elastic Constant Matrix: (Units=GPa)
#
#
# Indices 1 2 3 4 5 6 
#
# 1 156.7126 50.2073 50.3745 0.0000 0.0000 0.0000
# 2 50.2073 152.3233 76.7000 0.0000 0.0000 0.0000
# 3 50.3745 76.7000 154.4792 0.0000 0.0000 0.0000
# 4 0.0000 0.0000 0.0000 28.7815 0.0000 0.0000
# 5 0.0000 0.0000 0.0000 0.0000 37.8832 0.0000
# 6 0.0000 0.0000 0.0000 0.0000 0.0000 34.9741
#
#
#
# Elastic Compliance Matrix: (Units=1/GPa)
#
#
# Indices 1 2 3 4 5 6 
#
# 1 0.007422 -0.001637 -0.001608 0.000000 0.000000 0.000000
# 2 -0.001637 0.009114 -0.003992 0.000000 0.000000 0.000000
# 3 -0.001608 -0.003992 0.008979 0.000000 0.000000 0.000000
# 4 0.000000 0.000000 0.000000 0.034745 0.000000 0.000000
# 5 0.000000 0.000000 0.000000 0.000000 0.026397 0.000000
# 6 0.000000 0.000000 0.000000 0.000000 0.000000 0.028593
#
#
# Mechanical properties :
#
#
# Convention : Reuss Voigt Hill
#
# Bulk Modulus (GPa) = 90.54785 90.89765 90.72275
# Shear Modulus (GPa) = 37.48018 39.40998 38.44508
#
# Velocity S-wave (km/s) = 4.12996 4.23495 4.18279
# Velocity P-wave (km/s) = 7.99680 8.07954 8.03828
#
# Compressibility (1/GPa) = 0.01104388
#
# Stress axis : x y z
#
# Youngs Moduli (GPa) = 134.72886 109.71584 111.36559
#
# Poissons Ratio (x) = 0.17960 0.17903
# Poissons Ratio (y) = 0.22055 0.44452
# Poissons Ratio (z) = 0.21659 0.43794
#
# Static dielectric constant tensor:
#      x y z
#    x 1.884260 0.000000 0.000000 
#    y 0.000000 1.851930 0.000000 
#    z 0.000000 0.000000 1.777220 
# 
# From -- ./inp_files/46285.got.cif
#   From: 2010.05.17/outbox.cif.g08.bks.cpg/sg66_24_cif.got.tgz:46285.got - 2010.06.03 17:51:23.
