data_PCOD9498354
_publ_section_title
;
Structure prediction by ZEFSAII (Michael W. Deem and Ramdas Pophale) SiO2 
 PCOD9498354
Probable space group: C C C M
;
_chemical_formula_sum "Si O2"
_cell_formula_units_Z 112
_cell_length_a 31.522259
_cell_length_b 12.612067
_cell_length_c 14.189308
_cell_angle_alpha 90.000000
_cell_angle_beta 90.000000
_cell_angle_gamma 90.000000
_cell_volume 5641.113243
_symmetry_space_group_name_H-M "C C C M"
_symmetry_group_IT_number 66
_symmetry_cell_setting 'orthorhombic'
loop_
_space_group_symop_operation_xyz
x,y,z
-x,-y,z
x,-y,1/2-z
-x,y,1/2-z
-x,-y,-z
x,y,-z
-x,y,1/2+z
x,-y,1/2+z
1/2+x,1/2+y,z
1/2-x,1/2-y,z
1/2+x,1/2-y,1/2-z
1/2-x,1/2+y,1/2-z
1/2-x,1/2-y,-z
1/2+x,1/2+y,-z
1/2-x,1/2+y,1/2+z
1/2+x,1/2-y,1/2+z
loop_
_atom_site_type_symbol
_atom_site_label
_atom_site_fract_x
_atom_site_fract_y
_atom_site_fract_z
Si Si1 0.936535 0.420301 0.885056
Si Si2 0.223888 0.353440 0.250244
Si Si3 0.137583 0.039369 0.387580
Si Si4 0.632989 0.229956 0.213401
Si Si5 0.968966 0.647818 0.113600
Si Si6 0.407262 0.672270 0.612439
Si Si7 0.233364 0.986929 0.389897
O O1 0.901635 0.346624 0.835412
O O2 0.939825 0.545946 0.858330
O O3 0.982773 0.373781 0.857192
O O4 0.931762 0.414250 0.000000
O O5 0.250000 0.250000 0.248405
O O6 0.176607 0.334094 0.283234
O O7 0.248785 0.418706 0.328548
O O8 0.233849 0.399196 0.147026
O O9 0.136042 0.057723 0.500000
O O10 0.135044 0.154589 0.338596
O O11 0.101146 0.951914 0.364623
O O12 0.182914 0.981273 0.366947
O O13 0.623858 0.260728 0.321666
O O14 0.950999 0.764852 0.135465
O O15 0.969752 0.641164 0.000000
O O16 0.399775 0.682780 0.500000
O O17 0.236423 0.002405 0.500000
#
# Coordination Sequence:
#
# PCOD9498354 Si02
#       7
#    16  16  16  16  16  16  16
#     4   9  19  37  63  93 125 163 201 251 314 371
#     4  11  23  39  60  87 122 157 204 256 307 369
#     4  10  21  40  64  87 115 157 207 257 314 371
#     4  12  23  36  61  92 122 156 205 263 307 364
#     4   8  17  38  62  87 126 165 201 247 307 376
#     4  10  22  38  60  87 118 161 206 248 304 370
#     4  10  23  41  61  84 118 164 206 251 317 379
#
# _framework density 19.854237000000001
#
# number of rings (size 3 to 8) (size 9 to 14) (size 15 to 20)
#    0.000    2.000    1.429    2.571    2.000    5.714 
#    0.000    3.571    0.000    5.143    0.000    0.000 
#    0.000    0.000    0.000    0.000    0.000    0.000 
#
# Total GULP energy -311775.088166 kJ/mol
# GULP energy per Si atom -5567.412289 kJ/mol
# Density = 1.980905 g / cm^3
# Si number density = 19.854237 Si / 1000 Ang^3
#
#
#
# Elastic Constant Matrix: (Units=GPa)
#
#
# Indices 1 2 3 4 5 6 
#
# 1 126.9493 99.9329 44.2927 0.0000 0.0000 0.0000
# 2 99.9329 170.7940 59.2820 0.0000 0.0000 0.0000
# 3 44.2927 59.2820 90.2617 0.0000 0.0000 0.0000
# 4 0.0000 0.0000 0.0000 25.1955 0.0000 0.0000
# 5 0.0000 0.0000 0.0000 0.0000 13.2597 0.0000
# 6 0.0000 0.0000 0.0000 0.0000 0.0000 37.3029
#
#
#
# Elastic Compliance Matrix: (Units=1/GPa)
#
#
# Indices 1 2 3 4 5 6 
#
# 1 0.014891 -0.008000 -0.002053 0.000000 0.000000 0.000000
# 2 -0.008000 0.011882 -0.003878 0.000000 0.000000 0.000000
# 3 -0.002053 -0.003878 0.014633 0.000000 0.000000 0.000000
# 4 0.000000 0.000000 0.000000 0.039690 0.000000 0.000000
# 5 0.000000 0.000000 0.000000 0.000000 0.075416 0.000000
# 6 0.000000 0.000000 0.000000 0.000000 0.000000 0.026808
#
#
# Mechanical properties :
#
#
# Convention : Reuss Voigt Hill
#
# Bulk Modulus (GPa) = 73.83303 88.33557 81.08430
# Shear Modulus (GPa) = 23.18061 27.45146 25.31603
#
# Velocity S-wave (km/s) = 3.42064 3.72243 3.57472
# Velocity P-wave (km/s) = 7.27113 7.94128 7.61358
#
# Compressibility (1/GPa) = 0.01354407
#
# Stress axis : x y z
#
# Youngs Moduli (GPa) = 67.15350 84.15954 68.33756
#
# Poissons Ratio (x) = 0.67332 0.14028
# Poissons Ratio (y) = 0.53726 0.26501
# Poissons Ratio (z) = 0.13785 0.32637
#
# Static dielectric constant tensor:
#      x y z
#    x 1.695880 0.000000 0.000000 
#    y 0.000000 1.739200 0.000000 
#    z 0.000000 0.000000 1.724940 
# 
# From -- ./inp_files/33797.got.cif
#   From: 2010.05.17/outbox.cif.g08.bks.cpg/sg66_17_cif.got.tgz:33797.got - 2010.06.03 17:51:23.
