data_PCOD9498992
_publ_section_title
;
Structure prediction by ZEFSAII (Michael W. Deem and Ramdas Pophale) SiO2 
 PCOD9498992
Probable space group: C C C M
;
_chemical_formula_sum "Si O2"
_cell_formula_units_Z 80
_cell_length_a 22.286295
_cell_length_b 5.150512
_cell_length_c 29.947922
_cell_angle_alpha 90.000000
_cell_angle_beta 90.000000
_cell_angle_gamma 90.000000
_cell_volume 3437.597079
_symmetry_space_group_name_H-M "C C C M"
_symmetry_group_IT_number 66
_symmetry_cell_setting 'orthorhombic'
loop_
_space_group_symop_operation_xyz
x,y,z
-x,-y,z
x,-y,1/2-z
-x,y,1/2-z
-x,-y,-z
x,y,-z
-x,y,1/2+z
x,-y,1/2+z
1/2+x,1/2+y,z
1/2-x,1/2-y,z
1/2+x,1/2-y,1/2-z
1/2-x,1/2+y,1/2-z
1/2-x,1/2-y,-z
1/2+x,1/2+y,-z
1/2-x,1/2+y,1/2+z
1/2+x,1/2-y,1/2+z
loop_
_atom_site_type_symbol
_atom_site_label
_atom_site_fract_x
_atom_site_fract_y
_atom_site_fract_z
Si Si1 0.750000 0.250000 0.419766
Si Si2 0.500000 0.500000 0.161995
Si Si3 0.914435 0.606707 0.500000
Si Si4 0.329252 0.956377 0.855136
Si Si5 0.444664 0.156977 0.596518
Si Si6 0.128321 0.054258 0.801627
Si Si7 0.337697 0.399260 0.000000
O O1 0.727341 0.025961 0.386075
O O2 0.699512 0.348363 0.454613
O O3 0.549125 0.416418 0.123743
O O4 0.445191 0.408469 0.194367
O O5 0.950244 0.677889 0.544252
O O6 0.891964 0.310121 0.500000
O O7 0.858242 0.802966 0.500000
O O8 0.340734 0.185673 0.819897
O O9 0.383157 0.975570 0.891219
O O10 0.341880 0.686511 0.829485
O O11 0.500000 0.000000 0.617331
O O12 0.141077 0.000000 0.750000
#
# Coordination Sequence:
#
# PCOD9498992 Si02
#       7
#     8   8   8  16  16  16   8
#     4  11  26  50  74 100 142 184 242 292 344 409
#     4  10  23  39  68 100 142 192 224 277 349 430
#     4  12  27  42  69 104 147 181 235 284 342 407
#     4  11  25  43  73 102 134 188 229 291 353 416
#     4  11  23  43  65 104 147 183 229 278 348 417
#     4  11  24  45  70 105 140 176 234 291 355 428
#     4  11  28  46  71 102 138 188 243 288 328 412
#
# _framework density 23.272068999999998
#
# number of rings (size 3 to 8) (size 9 to 14) (size 15 to 20)
#    0.000    1.000    4.000    1.200    8.400    4.400 
#    0.000    4.000    0.000    0.000    0.000    0.000 
#    0.000    0.000    0.000    0.000    0.000    0.000 
#
# Total GULP energy -222747.576987 kJ/mol
# GULP energy per Si atom -5568.689425 kJ/mol
# Density = 2.321910 g / cm^3
# Si number density = 23.272069 Si / 1000 Ang^3
#
#
#
# Elastic Constant Matrix: (Units=GPa)
#
#
# Indices 1 2 3 4 5 6 
#
# 1 55.9442 25.5603 21.3832 0.0000 0.0000 0.0000
# 2 25.5603 83.5680 27.0913 0.0000 0.0000 0.0000
# 3 21.3832 27.0913 130.5926 0.0000 0.0000 0.0000
# 4 0.0000 0.0000 0.0000 13.7758 0.0000 0.0000
# 5 0.0000 0.0000 0.0000 0.0000 6.3648 0.0000
# 6 0.0000 0.0000 0.0000 0.0000 0.0000 20.6791
#
#
#
# Elastic Compliance Matrix: (Units=1/GPa)
#
#
# Indices 1 2 3 4 5 6 
#
# 1 0.021405 -0.005801 -0.002301 0.000000 0.000000 0.000000
# 2 -0.005801 0.014401 -0.002038 0.000000 0.000000 0.000000
# 3 -0.002301 -0.002038 0.008457 0.000000 0.000000 0.000000
# 4 0.000000 0.000000 0.000000 0.072591 0.000000 0.000000
# 5 0.000000 0.000000 0.000000 0.000000 0.157115 0.000000
# 6 0.000000 0.000000 0.000000 0.000000 0.000000 0.048358
#
#
# Mechanical properties :
#
#
# Convention : Reuss Voigt Hill
#
# Bulk Modulus (GPa) = 41.69610 46.46384 44.07997
# Shear Modulus (GPa) = 14.26123 21.23528 17.74825
#
# Velocity S-wave (km/s) = 2.47817 3.02400 2.76459
# Velocity P-wave (km/s) = 5.11314 5.67465 5.40119
#
# Compressibility (1/GPa) = 0.02398306
#
# Stress axis : x y z
#
# Youngs Moduli (GPa) = 46.71810 69.43889 118.24589
#
# Poissons Ratio (x) = 0.40281 0.27214
# Poissons Ratio (y) = 0.27101 0.24095
# Poissons Ratio (z) = 0.10752 0.14149
#
# Static dielectric constant tensor:
#      x y z
#    x 2.067240 0.000000 0.000000 
#    y 0.000000 1.723500 0.000000 
#    z 0.000000 0.000000 1.795880 
# 
# From -- ./inp_files/70342.got.cif
#   From: 2010.05.17/outbox.cif.g08.bks.cpg/sg66_36_cif.got.tgz:70342.got - 2010.06.03 17:51:23.
