data_PCOD9498706
_publ_section_title
;
Structure prediction by ZEFSAII (Michael W. Deem and Ramdas Pophale) SiO2 
 PCOD9498706
Probable space group: C C C M
;
_chemical_formula_sum "Si O2"
_cell_formula_units_Z 116
_cell_length_a 24.140245
_cell_length_b 26.304308
_cell_length_c 9.434819
_cell_angle_alpha 90.000000
_cell_angle_beta 90.000000
_cell_angle_gamma 90.000000
_cell_volume 5991.038735
_symmetry_space_group_name_H-M "C C C M"
_symmetry_group_IT_number 66
_symmetry_cell_setting 'orthorhombic'
loop_
_space_group_symop_operation_xyz
x,y,z
-x,-y,z
x,-y,1/2-z
-x,y,1/2-z
-x,-y,-z
x,y,-z
-x,y,1/2+z
x,-y,1/2+z
1/2+x,1/2+y,z
1/2-x,1/2-y,z
1/2+x,1/2-y,1/2-z
1/2-x,1/2+y,1/2-z
1/2-x,1/2-y,-z
1/2+x,1/2+y,-z
1/2-x,1/2+y,1/2+z
1/2+x,1/2-y,1/2+z
loop_
_atom_site_type_symbol
_atom_site_label
_atom_site_fract_x
_atom_site_fract_y
_atom_site_fract_z
Si Si1 0.773805 0.826980 0.833463
Si Si2 0.331983 0.046781 0.339653
Si Si3 0.411904 0.579663 0.843615
Si Si4 0.099256 0.819293 0.669128
Si Si5 0.500000 0.500000 0.750000
Si Si6 0.289286 0.575101 0.156696
Si Si7 0.166003 0.664516 0.830957
Si Si8 0.552891 0.225105 0.830827
O O1 0.835511 0.806239 0.803544
O O2 0.781478 0.885304 0.783093
O O3 0.719050 0.810974 0.747695
O O4 0.763372 0.821758 0.000000
O O5 0.353202 0.044435 0.500000
O O6 0.264925 0.041010 0.345515
O O7 0.340015 0.104868 0.287887
O O8 0.354611 0.000000 0.250000
O O9 0.413634 0.624184 0.727369
O O10 0.459217 0.537946 0.831825
O O11 0.351031 0.553953 0.832582
O O12 0.415206 0.603955 0.000000
O O13 0.089981 0.816512 0.500000
O O14 0.063927 0.779388 0.757744
O O15 0.287970 0.601759 0.000000
O O16 0.108611 0.692885 0.805301
O O17 0.176562 0.665037 0.000000
O O18 0.500000 0.202288 0.750000
O O19 0.543952 0.229113 0.000000
#
# Coordination Sequence:
#
# PCOD9498706 Si02
#       8
#    16  16  16  16   4  16  16  16
#     4   9  17  31  55  87 117 146 183 235 289 337
#     4   9  17  30  52  82 113 144 181 221 272 335
#     4  10  22  40  57  76 107 151 198 246 300 347
#     4  10  22  40  62  88 117 149 191 245 297 350
#     4  12  26  36  56  82 110 148 208 266 302 332
#     4   8  16  32  51  72 106 148 187 230 281 345
#     4   9  20  38  58  83 120 157 189 229 281 348
#     4  11  24  42  64  87 112 150 195 238 287 342
#
# _framework density 19.362251000000001
#
# number of rings (size 3 to 8) (size 9 to 14) (size 15 to 20)
#    0.000    2.483    0.000    2.276    1.931    6.621 
#    0.000    2.759    0.000    0.414    0.000    2.897 
#    0.000    0.000    0.000    0.000    0.000    0.000 
#
# Total GULP energy -323094.800876 kJ/mol
# GULP energy per Si atom -5570.600015 kJ/mol
# Density = 1.931818 g / cm^3
# Si number density = 19.362251 Si / 1000 Ang^3
#
#
#
# Elastic Constant Matrix: (Units=GPa)
#
#
# Indices 1 2 3 4 5 6 
#
# 1 116.7489 32.9547 53.1878 0.0000 0.0000 0.0000
# 2 32.9547 63.6613 33.0783 0.0000 0.0000 0.0000
# 3 53.1878 33.0783 76.9593 0.0000 0.0000 0.0000
# 4 0.0000 0.0000 0.0000 17.3838 0.0000 0.0000
# 5 0.0000 0.0000 0.0000 0.0000 25.9185 0.0000
# 6 0.0000 0.0000 0.0000 0.0000 0.0000 22.0633
#
#
#
# Elastic Compliance Matrix: (Units=1/GPa)
#
#
# Indices 1 2 3 4 5 6 
#
# 1 0.012832 -0.002620 -0.007743 0.000000 0.000000 0.000000
# 2 -0.002620 0.020760 -0.007112 0.000000 0.000000 0.000000
# 3 -0.007743 -0.007112 0.021402 0.000000 0.000000 0.000000
# 4 0.000000 0.000000 0.000000 0.057525 0.000000 0.000000
# 5 0.000000 0.000000 0.000000 0.000000 0.038583 0.000000
# 6 0.000000 0.000000 0.000000 0.000000 0.000000 0.045324
#
#
# Mechanical properties :
#
#
# Convention : Reuss Voigt Hill
#
# Bulk Modulus (GPa) = 49.88860 55.09014 52.48937
# Shear Modulus (GPa) = 21.00345 22.28302 21.64323
#
# Velocity S-wave (km/s) = 3.29715 3.39610 3.34699
# Velocity P-wave (km/s) = 6.34955 6.62511 6.48879
#
# Compressibility (1/GPa) = 0.02004466
#
# Stress axis : x y z
#
# Youngs Moduli (GPa) = 77.92927 48.17002 46.72479
#
# Poissons Ratio (x) = 0.12619 0.36177
# Poissons Ratio (y) = 0.20415 0.33233
# Poissons Ratio (z) = 0.60337 0.34261
#
# Static dielectric constant tensor:
#      x y z
#    x 1.711660 0.000000 0.000000 
#    y 0.000000 1.685190 0.000000 
#    z 0.000000 0.000000 1.685220 
# 
# From -- ./inp_files/9417.got.cif
#   From: 2010.05.17/outbox.cif.g08.bks.cpg/sg66_5_cif.got.tgz:9417.got - 2010.06.03 17:51:23.
