data_PCOD9498620
_publ_section_title
;
Structure prediction by ZEFSAII (Michael W. Deem and Ramdas Pophale) SiO2 
 PCOD9498620
Probable space group: C C C M
;
_chemical_formula_sum "Si O2"
_cell_formula_units_Z 56
_cell_length_a 9.337870
_cell_length_b 21.068346
_cell_length_c 13.887642
_cell_angle_alpha 90.000000
_cell_angle_beta 90.000000
_cell_angle_gamma 90.000000
_cell_volume 2732.164085
_symmetry_space_group_name_H-M "C C C M"
_symmetry_group_IT_number 66
_symmetry_cell_setting 'orthorhombic'
loop_
_space_group_symop_operation_xyz
x,y,z
-x,-y,z
x,-y,1/2-z
-x,y,1/2-z
-x,-y,-z
x,y,-z
-x,y,1/2+z
x,-y,1/2+z
1/2+x,1/2+y,z
1/2-x,1/2-y,z
1/2+x,1/2-y,1/2-z
1/2-x,1/2+y,1/2-z
1/2-x,1/2-y,-z
1/2+x,1/2+y,-z
1/2-x,1/2+y,1/2+z
1/2+x,1/2-y,1/2+z
loop_
_atom_site_type_symbol
_atom_site_label
_atom_site_fract_x
_atom_site_fract_y
_atom_site_fract_z
Si Si1 0.133757 0.167133 0.388939
Si Si2 0.500000 0.229714 0.750000
Si Si3 0.898577 0.057836 0.389337
Si Si4 0.845122 0.610242 0.759554
O O1 0.163760 0.182509 0.500000
O O2 0.086201 0.226940 0.324644
O O3 0.264269 0.129456 0.338806
O O4 0.997782 0.120053 0.385485
O O5 0.390818 0.180079 0.801263
O O6 0.855500 0.045963 0.500000
O O7 0.763074 0.070680 0.323383
O O8 0.000000 0.000000 0.359320
O O9 0.000000 0.578418 0.750000
#
# Coordination Sequence:
#
# PCOD9498620 Si02
#       4
#    16   8  16  16
#     4  11  22  39  63  92 132 181 220 268 327 388
#     4  10  22  38  61  93 136 168 222 270 320 402
#     4  10  22  42  67  93 127 177 231 272 321 394
#     4  10  23  38  63  95 133 167 217 275 330 386
#
# _framework density 20.496573000000001
#
# number of rings (size 3 to 8) (size 9 to 14) (size 15 to 20)
#    0.857    0.857    2.857    0.857    0.000    6.857 
#    0.000    5.714    0.000    5.143    0.000    0.000 
#    0.000    0.000    0.000    0.000    0.000    0.000 
#
# Total GULP energy -156266.609918 kJ/mol
# GULP energy per Si atom -5580.950354 kJ/mol
# Density = 2.044992 g / cm^3
# Si number density = 20.496573 Si / 1000 Ang^3
#
#
#
# Elastic Constant Matrix: (Units=GPa)
#
#
# Indices 1 2 3 4 5 6 
#
# 1 176.1488 51.5197 92.2639 0.0000 0.0000 0.0000
# 2 51.5197 98.2678 46.9067 0.0000 0.0000 0.0000
# 3 92.2639 46.9067 136.7598 0.0000 0.0000 0.0000
# 4 0.0000 0.0000 0.0000 20.3121 0.0000 0.0000
# 5 0.0000 0.0000 0.0000 0.0000 3.3373 0.0000
# 6 0.0000 0.0000 0.0000 0.0000 0.0000 26.3202
#
#
#
# Elastic Compliance Matrix: (Units=1/GPa)
#
#
# Indices 1 2 3 4 5 6 
#
# 1 0.009166 -0.002217 -0.005424 0.000000 0.000000 0.000000
# 2 -0.002217 0.012705 -0.002862 0.000000 0.000000 0.000000
# 3 -0.005424 -0.002862 0.011953 0.000000 0.000000 0.000000
# 4 0.000000 0.000000 0.000000 0.049232 0.000000 0.000000
# 5 0.000000 0.000000 0.000000 0.000000 0.299642 0.000000
# 6 0.000000 0.000000 0.000000 0.000000 0.000000 0.037994
#
#
# Mechanical properties :
#
#
# Convention : Reuss Voigt Hill
#
# Bulk Modulus (GPa) = 78.01024 88.06190 83.03607
# Shear Modulus (GPa) = 11.21156 24.69299 17.95228
#
# Velocity S-wave (km/s) = 2.34133 3.47470 2.96272
# Velocity P-wave (km/s) = 6.74180 7.69126 7.23213
#
# Compressibility (1/GPa) = 0.01281883
#
# Stress axis : x y z
#
# Youngs Moduli (GPa) = 109.09716 78.71161 83.66343
#
# Poissons Ratio (x) = 0.17449 0.45375
# Poissons Ratio (y) = 0.24184 0.23944
# Poissons Ratio (z) = 0.59169 0.22527
#
# Static dielectric constant tensor:
#      x y z
#    x 1.748020 0.000000 0.000000 
#    y 0.000000 1.774170 0.000000 
#    z 0.000000 0.000000 1.724560 
# 
# From -- ./inp_files/23841.got.cif
#   From: 2010.05.17/outbox.cif.g08.bks.cpg/sg66_12_cif.got.tgz:23841.got - 2010.06.03 17:51:23.
