data_PCOD9498872
_publ_section_title
;
Structure prediction by ZEFSAII (Michael W. Deem and Ramdas Pophale) SiO2 
 PCOD9498872
Probable space group: C C C M
;
_chemical_formula_sum "Si O2"
_cell_formula_units_Z 64
_cell_length_a 9.930954
_cell_length_b 14.403151
_cell_length_c 20.072399
_cell_angle_alpha 90.000000
_cell_angle_beta 90.000000
_cell_angle_gamma 90.000000
_cell_volume 2871.096339
_symmetry_space_group_name_H-M "C C C M"
_symmetry_group_IT_number 66
_symmetry_cell_setting 'orthorhombic'
loop_
_space_group_symop_operation_xyz
x,y,z
-x,-y,z
x,-y,1/2-z
-x,y,1/2-z
-x,-y,-z
x,y,-z
-x,y,1/2+z
x,-y,1/2+z
1/2+x,1/2+y,z
1/2-x,1/2-y,z
1/2+x,1/2-y,1/2-z
1/2-x,1/2+y,1/2-z
1/2-x,1/2-y,-z
1/2+x,1/2+y,-z
1/2-x,1/2+y,1/2+z
1/2+x,1/2-y,1/2+z
loop_
_atom_site_type_symbol
_atom_site_label
_atom_site_fract_x
_atom_site_fract_y
_atom_site_fract_z
Si Si1 0.998752 0.104348 0.124432
Si Si2 0.698337 0.890515 0.325845
Si Si3 0.290668 0.891576 0.321725
Si Si4 0.013035 0.697764 0.575443
O O1 0.857499 0.117012 0.161804
O O2 0.129422 0.110223 0.171622
O O3 0.010613 0.190915 0.075516
O O4 0.000000 0.000000 0.095069
O O5 0.667010 0.856587 0.251181
O O6 0.614756 0.839125 0.382653
O O7 0.667246 0.000527 0.327731
O O8 0.360304 0.836636 0.381287
O O9 0.014743 0.662309 0.500000
#
# Coordination Sequence:
#
# PCOD9498872 Si02
#       4
#    16  16  16  16
#     4  10  23  42  65  93 124 160 208 264 315 365
#     4  10  22  42  68  96 125 160 205 258 315 372
#     4  10  22  42  68  96 125 160 205 258 315 372
#     4  12  26  41  61  93 130 169 211 252 303 370
#
# _framework density 22.291135000000001
#
# number of rings (size 3 to 8) (size 9 to 14) (size 15 to 20)
#    0.000    1.500    0.000    3.750    0.000   17.500 
#    0.000    5.000    0.000    0.000    0.000    0.000 
#    0.000    0.000    0.000    0.000    0.000    0.000 
#
# Total GULP energy -178996.307774 kJ/mol
# GULP energy per Si atom -5593.634618 kJ/mol
# Density = 2.224040 g / cm^3
# Si number density = 22.291135 Si / 1000 Ang^3
#
#
#
# Elastic Constant Matrix: (Units=GPa)
#
#
# Indices 1 2 3 4 5 6 
#
# 1 141.2968 20.0817 42.4464 0.0000 0.0000 0.0000
# 2 20.0817 105.2905 47.7064 0.0000 0.0000 0.0000
# 3 42.4464 47.7064 160.9617 0.0000 0.0000 0.0000
# 4 0.0000 0.0000 0.0000 24.4888 0.0000 0.0000
# 5 0.0000 0.0000 0.0000 0.0000 13.0655 0.0000
# 6 0.0000 0.0000 0.0000 0.0000 0.0000 32.2615
#
#
#
# Elastic Compliance Matrix: (Units=1/GPa)
#
#
# Indices 1 2 3 4 5 6 
#
# 1 0.007723 -0.000636 -0.001848 0.000000 0.000000 0.000000
# 2 -0.000636 0.011023 -0.003099 0.000000 0.000000 0.000000
# 3 -0.001848 -0.003099 0.007619 0.000000 0.000000 0.000000
# 4 0.000000 0.000000 0.000000 0.040835 0.000000 0.000000
# 5 0.000000 0.000000 0.000000 0.000000 0.076537 0.000000
# 6 0.000000 0.000000 0.000000 0.000000 0.000000 0.030997
#
#
# Mechanical properties :
#
#
# Convention : Reuss Voigt Hill
#
# Bulk Modulus (GPa) = 65.79729 69.77978 67.78853
# Shear Modulus (GPa) = 26.18267 33.78414 29.98340
#
# Velocity S-wave (km/s) = 3.43093 3.89728 3.67151
# Velocity P-wave (km/s) = 6.72877 7.18495 6.96060
#
# Compressibility (1/GPa) = 0.01519820
#
# Stress axis : x y z
#
# Youngs Moduli (GPa) = 129.48619 90.71861 131.25663
#
# Poissons Ratio (x) = 0.05766 0.24259
# Poissons Ratio (y) = 0.08229 0.40683
# Poissons Ratio (z) = 0.23931 0.28118
#
# Static dielectric constant tensor:
#      x y z
#    x 1.824920 0.000000 0.000000 
#    y 0.000000 1.851010 0.000000 
#    z 0.000000 0.000000 1.756310 
# 
# From -- ./inp_files/37995.got.cif
#   From: 2010.05.17/outbox.cif.g08.bks.cpg/sg66_19_cif.got.tgz:37995.got - 2010.06.03 17:51:23.
