data_PCOD9498933
_publ_section_title
;
Structure prediction by ZEFSAII (Michael W. Deem and Ramdas Pophale) SiO2 
 PCOD9498933
Probable space group: C C C M
;
_chemical_formula_sum "Si O2"
_cell_formula_units_Z 56
_cell_length_a 12.226430
_cell_length_b 7.171139
_cell_length_c 23.881500
_cell_angle_alpha 90.000000
_cell_angle_beta 90.000000
_cell_angle_gamma 90.000000
_cell_volume 2093.868521
_symmetry_space_group_name_H-M "C C C M"
_symmetry_group_IT_number 66
_symmetry_cell_setting 'orthorhombic'
loop_
_space_group_symop_operation_xyz
x,y,z
-x,-y,z
x,-y,1/2-z
-x,y,1/2-z
-x,-y,-z
x,y,-z
-x,y,1/2+z
x,-y,1/2+z
1/2+x,1/2+y,z
1/2-x,1/2-y,z
1/2+x,1/2-y,1/2-z
1/2-x,1/2+y,1/2-z
1/2-x,1/2-y,-z
1/2+x,1/2+y,-z
1/2-x,1/2+y,1/2+z
1/2+x,1/2-y,1/2+z
loop_
_atom_site_type_symbol
_atom_site_label
_atom_site_fract_x
_atom_site_fract_y
_atom_site_fract_z
Si Si1 0.908842 0.874959 0.934753
Si Si2 0.164768 0.530356 0.064504
Si Si3 0.880333 0.589763 0.319866
Si Si4 0.750000 0.250000 0.729635
O O1 0.896875 0.660594 0.918312
O O2 0.791304 0.972646 0.934826
O O3 0.938004 0.854334 0.000000
O O4 0.000000 0.000000 0.906038
O O5 0.136832 0.658518 0.116808
O O6 0.139419 0.586491 0.000000
O O7 0.787843 0.426634 0.307638
O O8 0.851742 0.746658 0.273782
O O9 0.000000 0.500000 0.312501
#
# Coordination Sequence:
#
# PCOD9498933 Si02
#       4
#    16  16  16   8
#     4   8  14  27  50  83 125 172 216 252 296 369
#     4   9  18  33  56  91 133 170 207 260 326 394
#     4  11  24  44  67  95 130 165 212 273 325 385
#     4  10  22  44  66  86 120 166 216 270 316 366
#
# _framework density 26.744755999999999
#
# number of rings (size 3 to 8) (size 9 to 14) (size 15 to 20)
#    0.000    2.571    0.000    5.143    0.000    2.857 
#    0.000   15.000    0.000    0.000    0.000    0.000 
#    0.000    0.000    0.000    0.000    0.000    0.000 
#
# Total GULP energy -156372.727450 kJ/mol
# GULP energy per Si atom -5584.740266 kJ/mol
# Density = 2.668388 g / cm^3
# Si number density = 26.744756 Si / 1000 Ang^3
#
#
#
# Elastic Constant Matrix: (Units=GPa)
#
#
# Indices 1 2 3 4 5 6 
#
# 1 155.4688 65.2635 24.9166 0.0000 0.0000 0.0000
# 2 65.2635 107.0248 29.4529 0.0000 0.0000 0.0000
# 3 24.9166 29.4529 187.2156 0.0000 0.0000 0.0000
# 4 0.0000 0.0000 0.0000 23.0077 0.0000 0.0000
# 5 0.0000 0.0000 0.0000 0.0000 24.2591 0.0000
# 6 0.0000 0.0000 0.0000 0.0000 0.0000 61.7292
#
#
#
# Elastic Compliance Matrix: (Units=1/GPa)
#
#
# Indices 1 2 3 4 5 6 
#
# 1 0.008665 -0.005192 -0.000337 0.000000 0.000000 0.000000
# 2 -0.005192 0.012877 -0.001335 0.000000 0.000000 0.000000
# 3 -0.000337 -0.001335 0.005596 0.000000 0.000000 0.000000
# 4 0.000000 0.000000 0.000000 0.043464 0.000000 0.000000
# 5 0.000000 0.000000 0.000000 0.000000 0.041222 0.000000
# 6 0.000000 0.000000 0.000000 0.000000 0.000000 0.016200
#
#
# Mechanical properties :
#
#
# Convention : Reuss Voigt Hill
#
# Bulk Modulus (GPa) = 74.55698 76.55279 75.55489
# Shear Modulus (GPa) = 34.19501 43.80429 38.99965
#
# Velocity S-wave (km/s) = 3.57959 4.05144 3.82280
# Velocity P-wave (km/s) = 6.70987 7.11134 6.91352
#
# Compressibility (1/GPa) = 0.01341256
#
# Stress axis : x y z
#
# Youngs Moduli (GPa) = 115.40112 77.65927 178.69187
#
# Poissons Ratio (x) = 0.40317 0.06014
# Poissons Ratio (y) = 0.59911 0.23853
# Poissons Ratio (z) = 0.03884 0.10366
#
# Static dielectric constant tensor:
#      x y z
#    x 2.144540 0.000000 0.000000 
#    y 0.000000 2.459410 0.000000 
#    z 0.000000 0.000000 2.118930 
# 
# From -- ./inp_files/63223.got.cif
#   From: 2010.05.17/outbox.cif.g08.bks.cpg/sg66_32_cif.got.tgz:63223.got - 2010.06.03 17:51:23.
