data_PCOD9498118
_publ_section_title
;
Structure prediction by ZEFSAII (Michael W. Deem and Ramdas Pophale) SiO2 
 PCOD9498118
Probable space group: C C C M
;
_chemical_formula_sum "Si O2"
_cell_formula_units_Z 64
_cell_length_a 8.072478
_cell_length_b 16.472509
_cell_length_c 21.749697
_cell_angle_alpha 90.000000
_cell_angle_beta 90.000000
_cell_angle_gamma 90.000000
_cell_volume 2892.143480
_symmetry_space_group_name_H-M "C C C M"
_symmetry_group_IT_number 66
_symmetry_cell_setting 'orthorhombic'
loop_
_space_group_symop_operation_xyz
x,y,z
-x,-y,z
x,-y,1/2-z
-x,y,1/2-z
-x,-y,-z
x,y,-z
-x,y,1/2+z
x,-y,1/2+z
1/2+x,1/2+y,z
1/2-x,1/2-y,z
1/2+x,1/2-y,1/2-z
1/2-x,1/2+y,1/2-z
1/2-x,1/2-y,-z
1/2+x,1/2+y,-z
1/2-x,1/2+y,1/2+z
1/2+x,1/2-y,1/2+z
loop_
_atom_site_type_symbol
_atom_site_label
_atom_site_fract_x
_atom_site_fract_y
_atom_site_fract_z
Si Si1 0.434963 0.591707 0.433625
Si Si2 0.077798 0.090240 0.310847
Si Si3 0.115946 0.676269 0.430216
Si Si4 0.886956 0.322099 0.810535
O O1 0.500000 0.500000 0.436442
O O2 0.474941 0.629760 0.500000
O O3 0.519501 0.630365 0.374344
O O4 0.237976 0.598236 0.425379
O O5 0.273818 0.096718 0.307429
O O6 0.000000 0.129210 0.250000
O O7 0.000000 0.000000 0.312463
O O8 0.045597 0.676884 0.500000
O O9 0.250000 0.750000 0.425680
O O10 0.990966 0.678402 0.373601
O O11 0.750000 0.250000 0.809661
O O12 0.000000 0.317915 0.750000
#
# Coordination Sequence:
#
# PCOD9498118 Si02
#       4
#    16  16  16  16
#     4   9  18  36  60  84 117 158 196 240 295 351
#     4  10  21  39  60  83 118 159 198 243 299 355
#     4  10  21  38  61  90 122 156 199 248 298 355
#     4  12  24  39  63  91 121 157 203 251 300 359
#
# _framework density 22.128914999999999
#
# number of rings (size 3 to 8) (size 9 to 14) (size 15 to 20)
#    0.000    1.750    0.000    4.500    0.000    1.500 
#    0.000   17.500    0.000   13.500    0.000    0.000 
#    0.000    0.000    0.000    0.000    0.000    0.000 
#
# Total GULP energy -178499.912085 kJ/mol
# GULP energy per Si atom -5578.122253 kJ/mol
# Density = 2.207855 g / cm^3
# Si number density = 22.128915 Si / 1000 Ang^3
#
#
#
# Elastic Constant Matrix: (Units=GPa)
#
#
# Indices 1 2 3 4 5 6 
#
# 1 146.3490 52.2283 123.2361 0.0000 0.0000 0.0000
# 2 52.2283 86.8554 14.7323 0.0000 0.0000 0.0000
# 3 123.2361 14.7323 288.5250 0.0000 0.0000 0.0000
# 4 0.0000 0.0000 0.0000 -6.0486 0.0000 0.0000
# 5 0.0000 0.0000 0.0000 0.0000 56.1399 0.0000
# 6 0.0000 0.0000 0.0000 0.0000 0.0000 51.4742
#
#
#
# Elastic Compliance Matrix: (Units=1/GPa)
#
#
# Indices 1 2 3 4 5 6 
#
# 1 0.014450 -0.007709 -0.005778 0.000000 0.000000 0.000000
# 2 -0.007709 0.015727 0.002490 0.000000 0.000000 0.000000
# 3 -0.005778 0.002490 0.005807 0.000000 0.000000 0.000000
# 4 0.000000 0.000000 0.000000 -0.165327 0.000000 0.000000
# 5 0.000000 0.000000 0.000000 0.000000 0.017813 0.000000
# 6 0.000000 0.000000 0.000000 0.000000 0.000000 0.019427
#
#
# Mechanical properties :
#
#
# Convention : Reuss Voigt Hill
#
# Bulk Modulus (GPa) = 71.48855 100.23588 85.86221
# Shear Modulus (GPa) = -76.39899 42.41529 -16.99185
#
# Velocity S-wave (km/s) = -5.88213 4.38280 -2.77403
# Velocity P-wave (km/s) = 3.70904 8.42654 5.35022
#
# Compressibility (1/GPa) = 0.01398825
#
# Stress axis : x y z
#
# Youngs Moduli (GPa) = 69.20517 63.58627 172.21167
#
# Poissons Ratio (x) = 0.49018 0.99508
# Poissons Ratio (y) = 0.53350 -0.42875
# Poissons Ratio (z) = 0.39988 -0.15831
#
# Static dielectric constant tensor:
#      x y z
#    x 1.799550 0.000000 0.000000 
#    y 0.000000 2.034130 0.000000 
#    z 0.000000 0.000000 1.823470 
# 
# From -- ./inp_files/53964.got.cif
#   From: 2010.05.17/outbox.cif.g08.bks.cpg/sg66_27_cif.got.tgz:53964.got - 2010.06.03 17:51:23.
