data_PCOD9498697
_publ_section_title
;
Structure prediction by ZEFSAII (Michael W. Deem and Ramdas Pophale) SiO2 
 PCOD9498697
Probable space group: C C C M
;
_chemical_formula_sum "Si O2"
_cell_formula_units_Z 108
_cell_length_a 11.596560
_cell_length_b 27.609438
_cell_length_c 15.116946
_cell_angle_alpha 90.000000
_cell_angle_beta 90.000000
_cell_angle_gamma 90.000000
_cell_volume 4840.060693
_symmetry_space_group_name_H-M "C C C M"
_symmetry_group_IT_number 66
_symmetry_cell_setting 'orthorhombic'
loop_
_space_group_symop_operation_xyz
x,y,z
-x,-y,z
x,-y,1/2-z
-x,y,1/2-z
-x,-y,-z
x,y,-z
-x,y,1/2+z
x,-y,1/2+z
1/2+x,1/2+y,z
1/2-x,1/2-y,z
1/2+x,1/2-y,1/2-z
1/2-x,1/2+y,1/2-z
1/2-x,1/2-y,-z
1/2+x,1/2+y,-z
1/2-x,1/2+y,1/2+z
1/2+x,1/2-y,1/2+z
loop_
_atom_site_type_symbol
_atom_site_label
_atom_site_fract_x
_atom_site_fract_y
_atom_site_fract_z
Si Si1 0.957453 0.135659 0.151080
Si Si2 0.091032 0.960111 0.397271
Si Si3 0.333777 0.993774 0.650763
Si Si4 0.210945 0.604771 0.102391
Si Si5 0.000000 0.500000 0.000000
Si Si6 0.412136 0.802027 0.896912
Si Si7 0.750000 0.250000 0.246506
Si Si8 0.405553 0.275298 0.099027
O O1 0.822827 0.124114 0.151873
O O2 0.000000 0.138652 0.250000
O O3 0.028455 0.091373 0.108359
O O4 0.990846 0.186001 0.105524
O O5 0.114963 0.972114 0.500000
O O6 0.212995 0.964753 0.348698
O O7 0.000000 0.000000 0.363084
O O8 0.310095 0.048639 0.618074
O O9 0.375411 0.000000 0.750000
O O10 0.422180 0.973959 0.578627
O O11 0.103324 0.640508 0.117068
O O12 0.243358 0.609394 0.000000
O O13 0.335089 0.777633 0.820522
O O14 0.537518 0.777780 0.890620
O O15 0.374594 0.792223 0.000000
O O16 0.678094 0.282342 0.317293
O O17 0.355522 0.280407 0.000000
#
# Coordination Sequence:
#
# PCOD9498697 Si02
#       8
#    16  16  16  16   4  16   8  16
#     4  12  23  36  64 103 141 175 226 279 342 421
#     4  11  22  39  64 101 141 179 214 276 354 418
#     4  12  25  45  73  99 133 181 232 287 348 409
#     4  11  21  41  68  98 131 176 222 284 344 404
#     4  12  26  52  66  90 132 184 234 290 328 406
#     4  10  22  39  67  96 127 173 232 277 334 410
#     4  12  22  40  64  92 136 176 214 288 338 402
#     4  11  24  43  63  94 135 186 226 276 344 408
#
# _framework density 22.313770000000002
#
# number of rings (size 3 to 8) (size 9 to 14) (size 15 to 20)
#    0.000    0.741    2.963    6.000    0.000    2.370 
#    0.000    4.444    0.000    0.000    0.000    0.000 
#    0.000    0.000    0.000    0.000    0.000    0.000 
#
# Total GULP energy -301217.158434 kJ/mol
# GULP energy per Si atom -5578.095527 kJ/mol
# Density = 2.226298 g / cm^3
# Si number density = 22.313770 Si / 1000 Ang^3
#
#
#
# Elastic Constant Matrix: (Units=GPa)
#
#
# Indices 1 2 3 4 5 6 
#
# 1 63.8374 5.4449 10.5985 0.0000 0.0000 0.0000
# 2 5.4449 65.3811 -17.6310 0.0000 0.0000 0.0000
# 3 10.5985 -17.6310 141.9347 0.0000 0.0000 0.0000
# 4 0.0000 0.0000 0.0000 26.6021 0.0000 0.0000
# 5 0.0000 0.0000 0.0000 0.0000 -19.0788 0.0000
# 6 0.0000 0.0000 0.0000 0.0000 0.0000 29.2733
#
#
#
# Elastic Compliance Matrix: (Units=1/GPa)
#
#
# Indices 1 2 3 4 5 6 
#
# 1 0.016046 -0.001717 -0.001411 0.000000 0.000000 0.000000
# 2 -0.001717 0.016009 0.002117 0.000000 0.000000 0.000000
# 3 -0.001411 0.002117 0.007414 0.000000 0.000000 0.000000
# 4 0.000000 0.000000 0.000000 0.037591 0.000000 0.000000
# 5 0.000000 0.000000 0.000000 0.000000 -0.052414 0.000000
# 6 0.000000 0.000000 0.000000 0.000000 0.000000 0.034161
#
#
# Mechanical properties :
#
#
# Convention : Reuss Voigt Hill
#
# Bulk Modulus (GPa) = 26.70574 29.77534 28.24054
# Shear Modulus (GPa) = 68.20321 25.54206 46.87263
#
# Velocity S-wave (km/s) = 5.53461 3.38698 4.58822
# Velocity P-wave (km/s) = 7.26889 5.35429 6.38377
#
# Compressibility (1/GPa) = 0.03744513
#
# Stress axis : x y z
#
# Youngs Moduli (GPa) = 62.32252 62.46588 134.88294
#
# Poissons Ratio (x) = 0.10725 0.19038
# Poissons Ratio (y) = 0.10700 -0.28552
# Poissons Ratio (z) = 0.08796 -0.13223
#
# Static dielectric constant tensor:
#      x y z
#    x 1.893990 0.000000 0.000000 
#    y 0.000000 1.826950 0.000000 
#    z 0.000000 0.000000 1.807050 
# 
# From -- ./inp_files/27071.got.cif
#   From: 2010.05.17/outbox.cif.g08.bks.cpg/sg66_14_cif.got.tgz:27071.got - 2010.06.03 17:51:23.
