data_PCOD9498279
_publ_section_title
;
Structure prediction by ZEFSAII (Michael W. Deem and Ramdas Pophale) SiO2 
 PCOD9498279
Probable space group: C C C M
;
_chemical_formula_sum "Si O2"
_cell_formula_units_Z 80
_cell_length_a 17.526294
_cell_length_b 8.580854
_cell_length_c 26.241794
_cell_angle_alpha 90.000000
_cell_angle_beta 90.000000
_cell_angle_gamma 90.000000
_cell_volume 3946.518357
_symmetry_space_group_name_H-M "C C C M"
_symmetry_group_IT_number 66
_symmetry_cell_setting 'orthorhombic'
loop_
_space_group_symop_operation_xyz
x,y,z
-x,-y,z
x,-y,1/2-z
-x,y,1/2-z
-x,-y,-z
x,y,-z
-x,y,1/2+z
x,-y,1/2+z
1/2+x,1/2+y,z
1/2-x,1/2-y,z
1/2+x,1/2-y,1/2-z
1/2-x,1/2+y,1/2-z
1/2-x,1/2-y,-z
1/2+x,1/2+y,-z
1/2-x,1/2+y,1/2+z
1/2+x,1/2-y,1/2+z
loop_
_atom_site_type_symbol
_atom_site_label
_atom_site_fract_x
_atom_site_fract_y
_atom_site_fract_z
Si Si1 0.016649 0.683608 0.194093
Si Si2 0.234772 0.934185 0.000000
Si Si3 0.574512 0.606486 0.000000
Si Si4 0.067155 0.125888 0.109749
Si Si5 0.739004 0.434957 0.390057
Si Si6 0.687091 0.880382 0.702728
O O1 0.107244 0.699011 0.186996
O O2 0.000000 0.500000 0.194606
O O3 0.000000 0.750567 0.250000
O O4 0.960416 0.757099 0.152842
O O5 0.250000 0.750000 0.000000
O O6 0.146179 0.988563 0.000000
O O7 0.263081 0.004939 0.053767
O O8 0.500000 0.500000 0.000000
O O9 0.575493 0.698824 0.053028
O O10 0.148245 0.044303 0.119030
O O11 0.000000 0.000000 0.107671
O O12 0.750000 0.250000 0.387493
O O13 0.783411 0.523172 0.345810
O O14 0.750000 0.750000 0.716454
O O15 0.674924 0.000000 0.750000
#
# Coordination Sequence:
#
# PCOD9498279 Si02
#       6
#    16   8   8  16  16  16
#     4  11  23  42  60  85 123 163 201 257 320 364
#     4  10  21  39  64  95 131 168 211 256 312 375
#     4   8  18  37  61  89 121 158 202 256 300 355
#     4  10  21  40  64  90 121 163 208 254 308 373
#     4  11  23  40  65  95 129 165 209 262 314 372
#     4  12  25  41  62  90 123 165 211 260 317 378
#
# _framework density 20.271032999999999
#
# number of rings (size 3 to 8) (size 9 to 14) (size 15 to 20)
#    0.000    1.400    2.000    3.900    2.800    3.600 
#    0.000    0.500    0.000    0.000    0.000    0.000 
#    0.000    0.000    0.000    0.000    0.000    0.000 
#
# Total GULP energy -223311.235196 kJ/mol
# GULP energy per Si atom -5582.780880 kJ/mol
# Density = 2.022490 g / cm^3
# Si number density = 20.271033 Si / 1000 Ang^3
#
#
#
# Elastic Constant Matrix: (Units=GPa)
#
#
# Indices 1 2 3 4 5 6 
#
# 1 90.9379 3.7617 42.9799 0.0000 0.0000 0.0000
# 2 3.7617 61.8745 42.1965 0.0000 0.0000 0.0000
# 3 42.9799 42.1965 190.6654 0.0000 0.0000 0.0000
# 4 0.0000 0.0000 0.0000 30.1379 0.0000 0.0000
# 5 0.0000 0.0000 0.0000 0.0000 -3.6200 0.0000
# 6 0.0000 0.0000 0.0000 0.0000 0.0000 24.4027
#
#
#
# Elastic Compliance Matrix: (Units=1/GPa)
#
#
# Indices 1 2 3 4 5 6 
#
# 1 0.012404 0.001358 -0.003097 0.000000 0.000000 0.000000
# 2 0.001358 0.019183 -0.004552 0.000000 0.000000 0.000000
# 3 -0.003097 -0.004552 0.006950 0.000000 0.000000 0.000000
# 4 0.000000 0.000000 0.000000 0.033181 0.000000 0.000000
# 5 0.000000 0.000000 0.000000 0.000000 -0.276244 0.000000
# 6 0.000000 0.000000 0.000000 0.000000 0.000000 0.040979
#
#
# Mechanical properties :
#
#
# Convention : Reuss Voigt Hill
#
# Bulk Modulus (GPa) = 38.52620 57.92821 48.22721
# Shear Modulus (GPa) = -35.13347 27.15346 -3.99000
#
# Velocity S-wave (km/s) = -4.16767 3.66392 -1.40449
# Velocity P-wave (km/s) = 2.02793 6.82187 4.60573
#
# Compressibility (1/GPa) = 0.02595636
#
# Stress axis : x y z
#
# Youngs Moduli (GPa) = 80.62001 52.12901 143.88249
#
# Poissons Ratio (x) = -0.07077 0.44554
# Poissons Ratio (y) = -0.10945 0.65488
# Poissons Ratio (z) = 0.24964 0.23727
#
# Static dielectric constant tensor:
#      x y z
#    x 1.773720 0.000000 0.000000 
#    y 0.000000 1.693600 0.000000 
#    z 0.000000 0.000000 1.769160 
# 
# From -- ./inp_files/65128.got.cif
#   From: 2010.05.17/outbox.cif.g08.bks.cpg/sg66_33_cif.got.tgz:65128.got - 2010.06.03 17:51:23.
