data_PCOD9498461
_publ_section_title
;
Structure prediction by ZEFSAII (Michael W. Deem and Ramdas Pophale) SiO2 
 PCOD9498461
Probable space group: C C C M
;
_chemical_formula_sum "Si O2"
_cell_formula_units_Z 72
_cell_length_a 14.351415
_cell_length_b 8.410294
_cell_length_c 27.867089
_cell_angle_alpha 90.000000
_cell_angle_beta 90.000000
_cell_angle_gamma 90.000000
_cell_volume 3363.547038
_symmetry_space_group_name_H-M "C C C M"
_symmetry_group_IT_number 66
_symmetry_cell_setting 'orthorhombic'
loop_
_space_group_symop_operation_xyz
x,y,z
-x,-y,z
x,-y,1/2-z
-x,y,1/2-z
-x,-y,-z
x,y,-z
-x,y,1/2+z
x,-y,1/2+z
1/2+x,1/2+y,z
1/2-x,1/2-y,z
1/2+x,1/2-y,1/2-z
1/2-x,1/2+y,1/2-z
1/2-x,1/2-y,-z
1/2+x,1/2+y,-z
1/2-x,1/2+y,1/2+z
1/2+x,1/2-y,1/2+z
loop_
_atom_site_type_symbol
_atom_site_label
_atom_site_fract_x
_atom_site_fract_y
_atom_site_fract_z
Si Si1 0.150221 0.078854 0.000000
Si Si2 0.750000 0.750000 0.184820
Si Si3 0.401879 0.815017 0.102558
Si Si4 0.036043 0.254538 0.500000
Si Si5 0.712529 0.491771 0.605328
Si Si6 0.856722 0.500000 0.750000
Si Si7 0.000000 0.500000 0.670635
O O1 0.073388 0.217461 0.000000
O O2 0.090964 0.914449 0.000000
O O3 0.204408 0.074232 0.949227
O O4 0.695508 0.636476 0.147151
O O5 0.802171 0.634892 0.221759
O O6 0.359922 0.638727 0.109268
O O7 0.316204 0.935333 0.113299
O O8 0.493696 0.853597 0.133565
O O9 0.430105 0.838218 0.047722
O O10 0.921790 0.559847 0.707297
#
# Coordination Sequence:
#
# PCOD9498461 Si02
#       7
#     8   8  16   8  16   8   8
#     4   9  19  36  61 104 142 168 220 268 323 397
#     4  12  26  45  72  96 126 177 226 288 342 400
#     4  10  21  41  68  97 135 179 219 260 337 399
#     4   9  19  34  63 100 146 176 204 272 325 393
#     4  10  22  41  69  99 133 180 223 268 325 416
#     4  11  28  46  70  91 130 166 226 289 344 398
#     4  11  24  45  66  94 130 167 218 289 334 396
#
# _framework density 21.405971999999998
#
# number of rings (size 3 to 8) (size 9 to 14) (size 15 to 20)
#    0.000    1.778    2.222    0.667    6.222    3.556 
#    0.000    0.000    0.000    0.000    0.000    0.000 
#    0.000    0.000    0.000    0.000    0.000    0.000 
#
# Total GULP energy -200506.037191 kJ/mol
# GULP energy per Si atom -5569.612144 kJ/mol
# Density = 2.135725 g / cm^3
# Si number density = 21.405972 Si / 1000 Ang^3
#
#
#
# Elastic Constant Matrix: (Units=GPa)
#
#
# Indices 1 2 3 4 5 6 
#
# 1 42.3403 35.9934 52.3768 0.0000 0.0000 0.0000
# 2 35.9934 84.1060 66.1371 0.0000 0.0000 0.0000
# 3 52.3768 66.1371 201.4864 0.0000 0.0000 0.0000
# 4 0.0000 0.0000 0.0000 35.3412 0.0000 0.0000
# 5 0.0000 0.0000 0.0000 0.0000 67.8692 0.0000
# 6 0.0000 0.0000 0.0000 0.0000 0.0000 14.7285
#
#
#
# Elastic Compliance Matrix: (Units=1/GPa)
#
#
# Indices 1 2 3 4 5 6 
#
# 1 0.043365 -0.013067 -0.006984 0.000000 0.000000 0.000000
# 2 -0.013067 0.019964 -0.003156 0.000000 0.000000 0.000000
# 3 -0.006984 -0.003156 0.007815 0.000000 0.000000 0.000000
# 4 0.000000 0.000000 0.000000 0.028296 0.000000 0.000000
# 5 0.000000 0.000000 0.000000 0.000000 0.014734 0.000000
# 6 0.000000 0.000000 0.000000 0.000000 0.000000 0.067895
#
#
# Mechanical properties :
#
#
# Convention : Reuss Voigt Hill
#
# Bulk Modulus (GPa) = 40.43643 70.77189 55.60416
# Shear Modulus (GPa) = 21.12151 35.14949 28.13550
#
# Velocity S-wave (km/s) = 3.14460 4.05661 3.62937
# Velocity P-wave (km/s) = 5.66710 7.42125 6.60269
#
# Compressibility (1/GPa) = 0.02473018
#
# Stress axis : x y z
#
# Youngs Moduli (GPa) = 23.05990 50.09123 127.96514
#
# Poissons Ratio (x) = 0.65452 0.89369
# Poissons Ratio (y) = 0.30131 0.40390
# Poissons Ratio (z) = 0.16105 0.15810
#
# Static dielectric constant tensor:
#      x y z
#    x 1.877750 0.000000 0.000000 
#    y 0.000000 1.968550 0.000000 
#    z 0.000000 0.000000 1.749490 
# 
# From -- ./inp_files/55308.got.cif
#   From: 2010.05.17/outbox.cif.g08.bks.cpg/sg66_28_cif.got.tgz:55308.got - 2010.06.03 17:51:23.
