data_PCOD9498711
_publ_section_title
;
Structure prediction by ZEFSAII (Michael W. Deem and Ramdas Pophale) SiO2 
 PCOD9498711
Probable space group: C C C M
;
_chemical_formula_sum "Si O2"
_cell_formula_units_Z 96
_cell_length_a 9.576550
_cell_length_b 28.343208
_cell_length_c 19.378053
_cell_angle_alpha 90.000000
_cell_angle_beta 90.000000
_cell_angle_gamma 90.000000
_cell_volume 5259.787805
_symmetry_space_group_name_H-M "C C C M"
_symmetry_group_IT_number 66
_symmetry_cell_setting 'orthorhombic'
loop_
_space_group_symop_operation_xyz
x,y,z
-x,-y,z
x,-y,1/2-z
-x,y,1/2-z
-x,-y,-z
x,y,-z
-x,y,1/2+z
x,-y,1/2+z
1/2+x,1/2+y,z
1/2-x,1/2-y,z
1/2+x,1/2-y,1/2-z
1/2-x,1/2+y,1/2-z
1/2-x,1/2-y,-z
1/2+x,1/2+y,-z
1/2-x,1/2+y,1/2+z
1/2+x,1/2-y,1/2+z
loop_
_atom_site_type_symbol
_atom_site_label
_atom_site_fract_x
_atom_site_fract_y
_atom_site_fract_z
Si Si1 0.364759 0.851815 0.708580
Si Si2 0.220852 0.303246 0.921531
Si Si3 0.357218 0.292870 0.290004
Si Si4 0.481529 0.552535 0.135555
Si Si5 0.029926 0.153982 0.575843
Si Si6 0.237868 0.052343 0.755555
O O1 0.500000 0.835884 0.750000
O O2 0.372918 0.833081 0.630671
O O3 0.225324 0.828756 0.740325
O O4 0.343149 0.907214 0.721524
O O5 0.250000 0.250000 0.895887
O O6 0.371057 0.327867 0.923354
O O7 0.165739 0.300062 0.000000
O O8 0.500000 0.279275 0.250000
O O9 0.250000 0.250000 0.301610
O O10 0.394204 0.319730 0.360989
O O11 0.500000 0.500000 0.104152
O O12 0.478596 0.597811 0.087195
O O13 0.612742 0.554554 0.188188
O O14 0.343005 0.558208 0.182832
O O15 0.090126 0.164727 0.500000
O O16 0.299625 0.000000 0.750000
#
# Coordination Sequence:
#
# PCOD9498711 Si02
#       6
#    16  16  16  16  16  16
#     4  12  23  36  62  93 114 154 204 247 298 355
#     4  10  22  40  59  82 119 161 199 241 297 363
#     4  12  24  40  61  85 121 153 201 254 293 349
#     4   9  16  32  59  87 115 154 196 242 300 355
#     4  11  22  37  60  88 121 159 194 245 305 353
#     4   9  17  32  56  86 119 149 189 250 302 347
#
# _framework density 18.251685999999999
#
# number of rings (size 3 to 8) (size 9 to 14) (size 15 to 20)
#    0.000    1.500    5.000    2.000    2.333    1.000 
#    0.000    0.833    0.000    0.000    0.000    1.167 
#    0.000    0.000    0.000    0.000    0.000    0.000 
#
# Total GULP energy -267715.977504 kJ/mol
# GULP energy per Si atom -5577.416198 kJ/mol
# Density = 1.821014 g / cm^3
# Si number density = 18.251686 Si / 1000 Ang^3
#
#
#
# Elastic Constant Matrix: (Units=GPa)
#
#
# Indices 1 2 3 4 5 6 
#
# 1 59.7614 30.5979 24.1047 0.0000 0.0000 0.0000
# 2 30.5979 137.1673 48.8072 0.0000 0.0000 0.0000
# 3 24.1047 48.8072 98.3330 0.0000 0.0000 0.0000
# 4 0.0000 0.0000 0.0000 -9.5425 0.0000 0.0000
# 5 0.0000 0.0000 0.0000 0.0000 22.4116 0.0000
# 6 0.0000 0.0000 0.0000 0.0000 0.0000 24.8285
#
#
#
# Elastic Compliance Matrix: (Units=1/GPa)
#
#
# Indices 1 2 3 4 5 6 
#
# 1 0.019693 -0.003249 -0.003215 0.000000 0.000000 0.000000
# 2 -0.003249 0.009390 -0.003864 0.000000 0.000000 0.000000
# 3 -0.003215 -0.003864 0.012876 0.000000 0.000000 0.000000
# 4 0.000000 0.000000 0.000000 -0.104795 0.000000 0.000000
# 5 0.000000 0.000000 0.000000 0.000000 0.044620 0.000000
# 6 0.000000 0.000000 0.000000 0.000000 0.000000 0.040276
#
#
# Mechanical properties :
#
#
# Convention : Reuss Voigt Hill
#
# Bulk Modulus (GPa) = 46.94233 55.80903 51.37568
# Shear Modulus (GPa) = 100.36571 20.32299 60.34435
#
# Velocity S-wave (km/s) = 7.42356 3.34051 5.75622
# Velocity P-wave (km/s) = 9.96264 6.74704 8.50814
#
# Compressibility (1/GPa) = 0.02130274
#
# Stress axis : x y z
#
# Youngs Moduli (GPa) = 50.77826 106.49463 77.66617
#
# Poissons Ratio (x) = 0.34601 0.24968
# Poissons Ratio (y) = 0.16498 0.30012
# Poissons Ratio (z) = 0.16324 0.41153
#
# Static dielectric constant tensor:
#      x y z
#    x 1.614850 0.000000 0.000000 
#    y 0.000000 1.714830 0.000000 
#    z 0.000000 0.000000 1.641300 
# 
# From -- ./inp_files/47316.got.cif
#   From: 2010.05.17/outbox.cif.g08.bks.cpg/sg66_24_cif.got.tgz:47316.got - 2010.06.03 17:51:23.
