data_PCOD9498501
_publ_section_title
;
Structure prediction by ZEFSAII (Michael W. Deem and Ramdas Pophale) SiO2 
 PCOD9498501
Probable space group: C C C M
;
_chemical_formula_sum "Si O2"
_cell_formula_units_Z 44
_cell_length_a 13.376201
_cell_length_b 5.786553
_cell_length_c 22.584687
_cell_angle_alpha 90.000000
_cell_angle_beta 90.000000
_cell_angle_gamma 90.000000
_cell_volume 1748.102112
_symmetry_space_group_name_H-M "C C C M"
_symmetry_group_IT_number 66
_symmetry_cell_setting 'orthorhombic'
loop_
_space_group_symop_operation_xyz
x,y,z
-x,-y,z
x,-y,1/2-z
-x,y,1/2-z
-x,-y,-z
x,y,-z
-x,y,1/2+z
x,-y,1/2+z
1/2+x,1/2+y,z
1/2-x,1/2-y,z
1/2+x,1/2-y,1/2-z
1/2-x,1/2+y,1/2-z
1/2-x,1/2-y,-z
1/2+x,1/2+y,-z
1/2-x,1/2+y,1/2+z
1/2+x,1/2-y,1/2+z
loop_
_atom_site_type_symbol
_atom_site_label
_atom_site_fract_x
_atom_site_fract_y
_atom_site_fract_z
Si Si1 0.140964 0.348722 0.177947
Si Si2 0.500000 0.500000 0.750000
Si Si3 0.250000 0.750000 0.855665
Si Si4 0.887395 0.905944 0.068006
O O1 0.250000 0.250000 0.190711
O O2 0.165402 0.620575 0.184278
O O3 0.116368 0.322425 0.108131
O O4 0.063767 0.179536 0.209896
O O5 0.312660 0.578516 0.897656
O O6 0.858499 0.872429 0.000000
O O7 0.000000 0.000000 0.069332
#
# Coordination Sequence:
#
# PCOD9498501 Si02
#       4
#    16   4   8  16
#     4  10  24  49  75 110 144 194 259 313 382 461
#     4  12  24  56  80  98 154 214 256 322 390 462
#     4  10  23  44  70 110 148 184 245 320 380 448
#     4  10  21  42  72 108 148 192 243 302 378 463
#
# _framework density 25.170152999999999
#
# number of rings (size 3 to 8) (size 9 to 14) (size 15 to 20)
#    0.000    1.818    1.818    0.545    0.000    9.455 
#   13.091   14.545    0.000    0.000    0.000    0.000 
#    0.000    0.000    0.000    0.000    0.000    0.000 
#
# Total GULP energy -122967.733343 kJ/mol
# GULP energy per Si atom -5589.442425 kJ/mol
# Density = 2.511286 g / cm^3
# Si number density = 25.170153 Si / 1000 Ang^3
#
#
#
# Elastic Constant Matrix: (Units=GPa)
#
#
# Indices 1 2 3 4 5 6 
#
# 1 167.2076 54.1241 67.1884 0.0000 0.0000 0.0000
# 2 54.1241 110.1892 73.3480 0.0000 0.0000 0.0000
# 3 67.1884 73.3480 156.8357 0.0000 0.0000 0.0000
# 4 0.0000 0.0000 0.0000 33.4843 0.0000 0.0000
# 5 0.0000 0.0000 0.0000 0.0000 43.6702 0.0000
# 6 0.0000 0.0000 0.0000 0.0000 0.0000 55.3782
#
#
#
# Elastic Compliance Matrix: (Units=1/GPa)
#
#
# Indices 1 2 3 4 5 6 
#
# 1 0.007597 -0.002273 -0.002192 0.000000 0.000000 0.000000
# 2 -0.002273 0.013857 -0.005507 0.000000 0.000000 0.000000
# 3 -0.002192 -0.005507 0.009891 0.000000 0.000000 0.000000
# 4 0.000000 0.000000 0.000000 0.029865 0.000000 0.000000
# 5 0.000000 0.000000 0.000000 0.000000 0.022899 0.000000
# 6 0.000000 0.000000 0.000000 0.000000 0.000000 0.018058
#
#
# Mechanical properties :
#
#
# Convention : Reuss Voigt Hill
#
# Bulk Modulus (GPa) = 87.70405 91.50594 89.60499
# Shear Modulus (GPa) = 39.71091 42.47798 41.09445
#
# Velocity S-wave (km/s) = 3.97633 4.11254 4.04501
# Velocity P-wave (km/s) = 7.48343 7.68014 7.58242
#
# Compressibility (1/GPa) = 0.01140198
#
# Stress axis : x y z
#
# Youngs Moduli (GPa) = 131.63273 72.16311 101.10635
#
# Poissons Ratio (x) = 0.16400 0.22159
# Poissons Ratio (y) = 0.29916 0.55681
# Poissons Ratio (z) = 0.28849 0.39742
#
# Static dielectric constant tensor:
#      x y z
#    x 1.975500 0.000000 0.000000 
#    y 0.000000 2.153190 0.000000 
#    z 0.000000 0.000000 2.025860 
# 
# From -- ./inp_files/64066.got.cif
#   From: 2010.05.17/outbox.cif.g08.bks.cpg/sg66_33_cif.got.tgz:64066.got - 2010.06.03 17:51:23.
