data_PCOD9498129
_publ_section_title
;
Structure prediction by ZEFSAII (Michael W. Deem and Ramdas Pophale) SiO2 
 PCOD9498129
Probable space group: C C C M
;
_chemical_formula_sum "Si O2"
_cell_formula_units_Z 120
_cell_length_a 12.432048
_cell_length_b 22.559846
_cell_length_c 22.261794
_cell_angle_alpha 90.000000
_cell_angle_beta 90.000000
_cell_angle_gamma 90.000000
_cell_volume 6243.656021
_symmetry_space_group_name_H-M "C C C M"
_symmetry_group_IT_number 66
_symmetry_cell_setting 'orthorhombic'
loop_
_space_group_symop_operation_xyz
x,y,z
-x,-y,z
x,-y,1/2-z
-x,y,1/2-z
-x,-y,-z
x,y,-z
-x,y,1/2+z
x,-y,1/2+z
1/2+x,1/2+y,z
1/2-x,1/2-y,z
1/2+x,1/2-y,1/2-z
1/2-x,1/2+y,1/2-z
1/2-x,1/2-y,-z
1/2+x,1/2+y,-z
1/2-x,1/2+y,1/2+z
1/2+x,1/2-y,1/2+z
loop_
_atom_site_type_symbol
_atom_site_label
_atom_site_fract_x
_atom_site_fract_y
_atom_site_fract_z
Si Si1 0.250000 0.250000 0.400121
Si Si2 0.871215 0.486141 0.929366
Si Si3 0.285574 0.090267 0.151758
Si Si4 0.499919 0.843571 0.314967
Si Si5 0.281858 0.117419 0.645526
Si Si6 0.621393 0.429542 0.241647
Si Si7 0.810639 0.809233 0.929880
Si Si8 0.013308 0.261871 0.433502
O O1 0.256028 0.186852 0.365733
O O2 0.138374 0.246963 0.435080
O O3 0.809795 0.529747 0.883627
O O4 0.825550 0.420816 0.911420
O O5 0.000000 0.500000 0.921178
O O6 0.849531 0.497152 0.000000
O O7 0.397733 0.114766 0.176891
O O8 0.200695 0.089147 0.205270
O O9 0.235848 0.135818 0.104499
O O10 0.500000 0.811380 0.250000
O O11 0.609757 0.881050 0.314883
O O12 0.499268 0.803538 0.375272
O O13 0.181168 0.088517 0.679932
O O14 0.614922 0.500000 0.250000
O O15 0.500000 0.405458 0.250000
O O16 0.750000 0.750000 0.908070
O O17 0.936635 0.794621 0.923793
O O18 0.787000 0.816048 0.000000
O O19 0.982502 0.287141 0.500000
#
# Coordination Sequence:
#
# PCOD9498129 Si02
#       8
#     8  16  16  16  16  16  16  16
#     4  10  25  42  66  94 130 180 225 270 319 404
#     4  11  24  40  68 105 134 165 216 282 342 397
#     4  12  22  40  67  93 131 171 211 274 334 396
#     4  11  22  38  63 101 131 166 215 272 336 393
#     4  11  23  45  64  96 135 174 219 271 329 400
#     4  11  25  44  69  91 124 174 224 266 325 402
#     4  10  21  38  61  92 129 171 218 266 325 393
#     4  10  22  42  63  89 128 179 225 268 325 394
#
# _framework density 19.219508999999999
#
# number of rings (size 3 to 8) (size 9 to 14) (size 15 to 20)
#    0.000    1.200    5.333    0.600    1.867    3.200 
#    6.000    2.000    0.000    0.800    0.000    0.000 
#    0.000    0.000    0.000    0.000    0.000    0.000 
#
# Total GULP energy -334323.717361 kJ/mol
# GULP energy per Si atom -5572.061956 kJ/mol
# Density = 1.917576 g / cm^3
# Si number density = 19.219509 Si / 1000 Ang^3
#
#
#
# Elastic Constant Matrix: (Units=GPa)
#
#
# Indices 1 2 3 4 5 6 
#
# 1 134.9763 25.6395 34.0330 0.0000 0.0000 0.0000
# 2 25.6395 74.9527 24.7829 0.0000 0.0000 0.0000
# 3 34.0330 24.7829 96.7939 0.0000 0.0000 0.0000
# 4 0.0000 0.0000 0.0000 25.6227 0.0000 0.0000
# 5 0.0000 0.0000 0.0000 0.0000 25.0158 0.0000
# 6 0.0000 0.0000 0.0000 0.0000 0.0000 28.7854
#
#
#
# Elastic Compliance Matrix: (Units=1/GPa)
#
#
# Indices 1 2 3 4 5 6 
#
# 1 0.008415 -0.002076 -0.002427 0.000000 0.000000 0.000000
# 2 -0.002076 0.015088 -0.003133 0.000000 0.000000 0.000000
# 3 -0.002427 -0.003133 0.011987 0.000000 0.000000 0.000000
# 4 0.000000 0.000000 0.000000 0.039028 0.000000 0.000000
# 5 0.000000 0.000000 0.000000 0.000000 0.039975 0.000000
# 6 0.000000 0.000000 0.000000 0.000000 0.000000 0.034740
#
#
# Mechanical properties :
#
#
# Convention : Reuss Voigt Hill
#
# Bulk Modulus (GPa) = 49.46328 52.84819 51.15573
# Shear Modulus (GPa) = 29.19810 30.70261 29.95035
#
# Velocity S-wave (km/s) = 3.90191 4.00117 3.95185
# Velocity P-wave (km/s) = 6.78909 6.99305 6.89182
#
# Compressibility (1/GPa) = 0.02021702
#
# Stress axis : x y z
#
# Youngs Moduli (GPa) = 118.83458 66.27845 83.42481
#
# Poissons Ratio (x) = 0.13760 0.20249
# Poissons Ratio (y) = 0.24670 0.26138
# Poissons Ratio (z) = 0.28844 0.20766
#
# Static dielectric constant tensor:
#      x y z
#    x 1.696640 0.000000 0.000000 
#    y 0.000000 1.660680 0.000000 
#    z 0.000000 0.000000 1.718240 
# 
# From -- ./inp_files/57223.got.cif
#   From: 2010.05.17/outbox.cif.g08.bks.cpg/sg66_29_cif.got.tgz:57223.got - 2010.06.03 17:51:23.
