data_PCOD9498084
_publ_section_title
;
Structure prediction by ZEFSAII (Michael W. Deem and Ramdas Pophale) SiO2 
 PCOD9498084
Probable space group: C C C M
;
_chemical_formula_sum "Si O2"
_cell_formula_units_Z 64
_cell_length_a 18.080346
_cell_length_b 7.368872
_cell_length_c 21.948099
_cell_angle_alpha 90.000000
_cell_angle_beta 90.000000
_cell_angle_gamma 90.000000
_cell_volume 2924.183757
_symmetry_space_group_name_H-M "C C C M"
_symmetry_group_IT_number 66
_symmetry_cell_setting 'orthorhombic'
loop_
_space_group_symop_operation_xyz
x,y,z
-x,-y,z
x,-y,1/2-z
-x,y,1/2-z
-x,-y,-z
x,y,-z
-x,y,1/2+z
x,-y,1/2+z
1/2+x,1/2+y,z
1/2-x,1/2-y,z
1/2+x,1/2-y,1/2-z
1/2-x,1/2+y,1/2-z
1/2-x,1/2-y,-z
1/2+x,1/2+y,-z
1/2-x,1/2+y,1/2+z
1/2+x,1/2-y,1/2+z
loop_
_atom_site_type_symbol
_atom_site_label
_atom_site_fract_x
_atom_site_fract_y
_atom_site_fract_z
Si Si1 0.953957 0.757273 0.687804
Si Si2 0.597866 0.630951 0.856555
Si Si3 0.276793 0.458352 0.933616
Si Si4 0.818059 0.517243 0.817680
O O1 0.891251 0.607914 0.680966
O O2 0.000000 0.729453 0.750000
O O3 0.019037 0.769034 0.637313
O O4 0.916604 0.954565 0.684349
O O5 0.637008 0.555418 0.916729
O O6 0.653873 0.776302 0.827260
O O7 0.250000 0.250000 0.937400
O O8 0.234023 0.534353 0.874460
O O9 0.263115 0.541230 0.000000
O O10 0.784564 0.500000 0.750000
#
# Coordination Sequence:
#
# PCOD9498084 Si02
#       4
#    16  16  16  16
#     4  11  22  35  59  95 131 159 202 265 326 380
#     4  10  21  38  59  89 126 166 203 257 323 380
#     4   9  21  44  65  88 129 175 217 266 321 384
#     4  11  22  36  63  96 124 161 213 260 324 383
#
# _framework density 21.886448999999999
#
# number of rings (size 3 to 8) (size 9 to 14) (size 15 to 20)
#    0.000    1.750    2.500    2.250    0.000    3.000 
#    4.500    6.250    0.000    6.000    0.000    0.000 
#    0.000    0.000    0.000    0.000    0.000    0.000 
#
# Total GULP energy -178634.926779 kJ/mol
# GULP energy per Si atom -5582.341462 kJ/mol
# Density = 2.183663 g / cm^3
# Si number density = 21.886449 Si / 1000 Ang^3
#
#
#
# Elastic Constant Matrix: (Units=GPa)
#
#
# Indices 1 2 3 4 5 6 
#
# 1 103.9591 13.9253 77.3533 0.0000 0.0000 0.0000
# 2 13.9253 87.0944 27.1307 0.0000 0.0000 0.0000
# 3 77.3533 27.1307 176.6887 0.0000 0.0000 0.0000
# 4 0.0000 0.0000 0.0000 3.8860 0.0000 0.0000
# 5 0.0000 0.0000 0.0000 0.0000 14.1101 0.0000
# 6 0.0000 0.0000 0.0000 0.0000 0.0000 25.2228
#
#
#
# Elastic Compliance Matrix: (Units=1/GPa)
#
#
# Indices 1 2 3 4 5 6 
#
# 1 0.014277 -0.000353 -0.006196 0.000000 0.000000 0.000000
# 2 -0.000353 0.012067 -0.001699 0.000000 0.000000 0.000000
# 3 -0.006196 -0.001699 0.008633 0.000000 0.000000 0.000000
# 4 0.000000 0.000000 0.000000 0.257332 0.000000 0.000000
# 5 0.000000 0.000000 0.000000 0.000000 0.070871 0.000000
# 6 0.000000 0.000000 0.000000 0.000000 0.000000 0.039647
#
#
# Mechanical properties :
#
#
# Convention : Reuss Voigt Hill
#
# Bulk Modulus (GPa) = 54.10487 67.17343 60.63915
# Shear Modulus (GPa) = 11.75137 25.26598 18.50868
#
# Velocity S-wave (km/s) = 2.31968 3.40135 2.91119
# Velocity P-wave (km/s) = 5.65234 6.79588 6.25032
#
# Compressibility (1/GPa) = 0.01848262
#
# Stress axis : x y z
#
# Youngs Moduli (GPa) = 70.04376 82.86866 115.83272
#
# Poissons Ratio (x) = 0.02921 0.71772
# Poissons Ratio (y) = 0.02469 0.19676
# Poissons Ratio (z) = 0.43400 0.14076
#
# Static dielectric constant tensor:
#      x y z
#    x 1.857610 0.000000 0.000000 
#    y 0.000000 1.840130 0.000000 
#    z 0.000000 0.000000 1.841550 
# 
# From -- ./inp_files/58551.got.cif
#   From: 2010.05.17/outbox.cif.g08.bks.cpg/sg66_30_cif.got.tgz:58551.got - 2010.06.03 17:51:23.
