data_PCOD9498378
_publ_section_title
;
Structure prediction by ZEFSAII (Michael W. Deem and Ramdas Pophale) SiO2 
 PCOD9498378
Probable space group: C C C M
;
_chemical_formula_sum "Si O2"
_cell_formula_units_Z 88
_cell_length_a 8.603308
_cell_length_b 18.418851
_cell_length_c 27.772701
_cell_angle_alpha 90.000000
_cell_angle_beta 90.000000
_cell_angle_gamma 90.000000
_cell_volume 4400.946856
_symmetry_space_group_name_H-M "C C C M"
_symmetry_group_IT_number 66
_symmetry_cell_setting 'orthorhombic'
loop_
_space_group_symop_operation_xyz
x,y,z
-x,-y,z
x,-y,1/2-z
-x,y,1/2-z
-x,-y,-z
x,y,-z
-x,y,1/2+z
x,-y,1/2+z
1/2+x,1/2+y,z
1/2-x,1/2-y,z
1/2+x,1/2-y,1/2-z
1/2-x,1/2+y,1/2-z
1/2-x,1/2-y,-z
1/2+x,1/2+y,-z
1/2-x,1/2+y,1/2+z
1/2+x,1/2-y,1/2+z
loop_
_atom_site_type_symbol
_atom_site_label
_atom_site_fract_x
_atom_site_fract_y
_atom_site_fract_z
Si Si1 0.591048 0.924109 0.447016
Si Si2 0.000000 0.814175 0.250000
Si Si3 0.343914 0.816642 0.403999
Si Si4 0.861816 0.907028 0.168760
Si Si5 0.275074 0.566056 0.151548
Si Si6 0.112877 0.709637 0.831695
O O1 0.661266 0.913133 0.500000
O O2 0.460274 0.863052 0.436823
O O3 0.711985 0.929187 0.403099
O O4 0.500000 0.000000 0.446627
O O5 0.119705 0.863361 0.281059
O O6 0.086471 0.760582 0.213760
O O7 0.250000 0.750000 0.426880
O O8 0.224121 0.866609 0.374597
O O9 0.456537 0.787567 0.361915
O O10 0.042914 0.915419 0.154420
O O11 0.774261 0.984553 0.172791
O O12 0.169483 0.627377 0.177305
O O13 0.250000 0.750000 0.860893
#
# Coordination Sequence:
#
# PCOD9498378 Si02
#       6
#    16   8  16  16  16  16
#     4  10  21  40  66  92 125 165 211 260 321 398
#     4  12  24  39  64  93 128 170 224 262 317 376
#     4  11  21  38  65  91 125 162 207 262 326 373
#     4  11  23  39  62  93 123 170 209 266 312 378
#     4  10  22  42  62  86 130 165 206 258 327 373
#     4  11  23  39  60  87 123 170 209 259 313 382
#
# _framework density 19.995697
#
# number of rings (size 3 to 8) (size 9 to 14) (size 15 to 20)
#    0.000    1.273    5.455    0.000    2.545    1.818 
#    0.000    2.727    4.000   18.545    0.000    0.000 
#    0.000    0.000    0.000    0.000    0.000    0.000 
#
# Total GULP energy -245414.261529 kJ/mol
# GULP energy per Si atom -5577.596853 kJ/mol
# Density = 1.995019 g / cm^3
# Si number density = 19.995697 Si / 1000 Ang^3
#
#
#
# Elastic Constant Matrix: (Units=GPa)
#
#
# Indices 1 2 3 4 5 6 
#
# 1 44.0017 30.3126 12.2243 0.0000 0.0000 0.0000
# 2 30.3126 134.2181 48.4730 0.0000 0.0000 0.0000
# 3 12.2243 48.4730 103.4580 0.0000 0.0000 0.0000
# 4 0.0000 0.0000 0.0000 -103.6301 0.0000 0.0000
# 5 0.0000 0.0000 0.0000 0.0000 46.4879 0.0000
# 6 0.0000 0.0000 0.0000 0.0000 0.0000 42.7626
#
#
#
# Elastic Compliance Matrix: (Units=1/GPa)
#
#
# Indices 1 2 3 4 5 6 
#
# 1 0.026927 -0.005937 -0.000400 0.000000 0.000000 0.000000
# 2 -0.005937 0.010277 -0.004114 0.000000 0.000000 0.000000
# 3 -0.000400 -0.004114 0.011640 0.000000 0.000000 0.000000
# 4 0.000000 0.000000 0.000000 -0.009650 0.000000 0.000000
# 5 0.000000 0.000000 0.000000 0.000000 0.021511 0.000000
# 6 0.000000 0.000000 0.000000 0.000000 0.000000 0.023385
#
#
# Mechanical properties :
#
#
# Convention : Reuss Voigt Hill
#
# Bulk Modulus (GPa) = 35.78628 51.52194 43.65411
# Shear Modulus (GPa) = 43.74193 9.83527 26.78860
#
# Velocity S-wave (km/s) = 4.68222 2.22022 3.66419
# Velocity P-wave (km/s) = 6.86780 5.69166 6.30721
#
# Compressibility (1/GPa) = 0.02794367
#
# Stress axis : x y z
#
# Youngs Moduli (GPa) = 37.13680 97.30440 85.90804
#
# Poissons Ratio (x) = 0.57770 0.03436
# Poissons Ratio (y) = 0.22048 0.35339
# Poissons Ratio (z) = 0.01486 0.40027
#
# Static dielectric constant tensor:
#      x y z
#    x 1.659000 0.000000 0.000000 
#    y 0.000000 1.790600 0.000000 
#    z 0.000000 0.000000 1.711460 
# 
# From -- ./inp_files/68183.got.cif
#   From: 2010.05.17/outbox.cif.g08.bks.cpg/sg66_35_cif.got.tgz:68183.got - 2010.06.03 17:51:23.
