data_PCOD9498318
_publ_section_title
;
Structure prediction by ZEFSAII (Michael W. Deem and Ramdas Pophale) SiO2 
 PCOD9498318
Probable space group: C C C M
;
_chemical_formula_sum "Si O2"
_cell_formula_units_Z 64
_cell_length_a 16.930751
_cell_length_b 7.724342
_cell_length_c 21.426963
_cell_angle_alpha 90.000000
_cell_angle_beta 90.000000
_cell_angle_gamma 90.000000
_cell_volume 2802.194888
_symmetry_space_group_name_H-M "C C C M"
_symmetry_group_IT_number 66
_symmetry_cell_setting 'orthorhombic'
loop_
_space_group_symop_operation_xyz
x,y,z
-x,-y,z
x,-y,1/2-z
-x,y,1/2-z
-x,-y,-z
x,y,-z
-x,y,1/2+z
x,-y,1/2+z
1/2+x,1/2+y,z
1/2-x,1/2-y,z
1/2+x,1/2-y,1/2-z
1/2-x,1/2+y,1/2-z
1/2-x,1/2-y,-z
1/2+x,1/2+y,-z
1/2-x,1/2+y,1/2+z
1/2+x,1/2-y,1/2+z
loop_
_atom_site_type_symbol
_atom_site_label
_atom_site_fract_x
_atom_site_fract_y
_atom_site_fract_z
Si Si1 0.988924 0.795156 0.818814
Si Si2 0.254683 0.039695 0.068018
Si Si3 0.573372 0.131486 0.932334
Si Si4 0.319524 0.386348 0.811441
O O1 0.896136 0.778041 0.833211
O O2 0.000000 0.717464 0.750000
O O3 0.050355 0.733580 0.870280
O O4 0.000000 0.000000 0.815172
O O5 0.250000 0.250000 0.067430
O O6 0.207053 0.994351 0.130326
O O7 0.343242 0.966718 0.072740
O O8 0.223696 0.981474 0.000000
O O9 0.500000 0.000000 0.935643
O O10 0.573337 0.225724 0.000000
O O11 0.336305 0.500000 0.750000
O O12 0.250000 0.250000 0.797022
#
# Coordination Sequence:
#
# PCOD9498318 Si02
#       4
#    16  16  16  16
#     4  11  24  44  61  90 136 177 220 277 333 393
#     4   9  19  37  61  93 130 165 211 274 336 395
#     4  10  21  39  66  98 130 171 224 274 327 397
#     4  11  23  39  63  90 124 170 215 271 331 390
#
# _framework density 22.83924
#
# number of rings (size 3 to 8) (size 9 to 14) (size 15 to 20)
#    0.000    1.750    2.500    3.000    3.500    4.000 
#    0.000    0.000    0.000    3.750    0.000    0.000 
#    0.000    0.000    0.000    0.000    0.000    0.000 
#
# Total GULP energy -178620.532903 kJ/mol
# GULP energy per Si atom -5581.891653 kJ/mol
# Density = 2.278726 g / cm^3
# Si number density = 22.839240 Si / 1000 Ang^3
#
#
#
# Elastic Constant Matrix: (Units=GPa)
#
#
# Indices 1 2 3 4 5 6 
#
# 1 144.6763 25.5653 61.8454 0.0000 0.0000 0.0000
# 2 25.5653 51.4710 43.6224 0.0000 0.0000 0.0000
# 3 61.8454 43.6224 245.4654 0.0000 0.0000 0.0000
# 4 0.0000 0.0000 0.0000 12.5998 0.0000 0.0000
# 5 0.0000 0.0000 0.0000 0.0000 76.1439 0.0000
# 6 0.0000 0.0000 0.0000 0.0000 0.0000 37.5900
#
#
#
# Elastic Compliance Matrix: (Units=1/GPa)
#
#
# Indices 1 2 3 4 5 6 
#
# 1 0.008049 -0.002683 -0.001551 0.000000 0.000000 0.000000
# 2 -0.002683 0.023768 -0.003548 0.000000 0.000000 0.000000
# 3 -0.001551 -0.003548 0.005095 0.000000 0.000000 0.000000
# 4 0.000000 0.000000 0.000000 0.079367 0.000000 0.000000
# 5 0.000000 0.000000 0.000000 0.000000 0.013133 0.000000
# 6 0.000000 0.000000 0.000000 0.000000 0.000000 0.026603
#
#
# Mechanical properties :
#
#
# Convention : Reuss Voigt Hill
#
# Bulk Modulus (GPa) = 46.84323 78.18655 62.51489
# Shear Modulus (GPa) = 27.98056 45.97205 36.97631
#
# Velocity S-wave (km/s) = 3.50395 4.49135 4.02802
# Velocity P-wave (km/s) = 6.07657 7.82330 7.00460
#
# Compressibility (1/GPa) = 0.02134780
#
# Stress axis : x y z
#
# Youngs Moduli (GPa) = 124.23558 42.07332 196.26317
#
# Poissons Ratio (x) = 0.11290 0.30443
# Poissons Ratio (y) = 0.33337 0.69631
# Poissons Ratio (z) = 0.19271 0.14927
#
# Static dielectric constant tensor:
#      x y z
#    x 1.863020 0.000000 0.000000 
#    y 0.000000 1.911920 0.000000 
#    z 0.000000 0.000000 1.965270 
# 
# From -- ./inp_files/58561.got.cif
#   From: 2010.05.17/outbox.cif.g08.bks.cpg/sg66_30_cif.got.tgz:58561.got - 2010.06.03 17:51:23.
