data_PCOD9498111
_publ_section_title
;
Structure prediction by ZEFSAII (Michael W. Deem and Ramdas Pophale) SiO2 
 PCOD9498111
Probable space group: C C C M
;
_chemical_formula_sum "Si O2"
_cell_formula_units_Z 80
_cell_length_a 24.835315
_cell_length_b 7.309777
_cell_length_c 19.529428
_cell_angle_alpha 90.000000
_cell_angle_beta 90.000000
_cell_angle_gamma 90.000000
_cell_volume 3545.384358
_symmetry_space_group_name_H-M "C C C M"
_symmetry_group_IT_number 66
_symmetry_cell_setting 'orthorhombic'
loop_
_space_group_symop_operation_xyz
x,y,z
-x,-y,z
x,-y,1/2-z
-x,y,1/2-z
-x,-y,-z
x,y,-z
-x,y,1/2+z
x,-y,1/2+z
1/2+x,1/2+y,z
1/2-x,1/2-y,z
1/2+x,1/2-y,1/2-z
1/2-x,1/2+y,1/2-z
1/2-x,1/2-y,-z
1/2+x,1/2+y,-z
1/2-x,1/2+y,1/2+z
1/2+x,1/2-y,1/2+z
loop_
_atom_site_type_symbol
_atom_site_label
_atom_site_fract_x
_atom_site_fract_y
_atom_site_fract_z
Si Si1 0.601562 0.249054 0.921590
Si Si2 0.483806 0.217843 0.923170
Si Si3 0.598058 0.914532 0.820211
Si Si4 0.301033 0.334511 0.793515
Si Si5 0.285328 0.565388 0.922420
O O1 0.540591 0.319629 0.910434
O O2 0.651211 0.385539 0.916515
O O3 0.610433 0.084024 0.869838
O O4 0.602018 0.179002 0.000000
O O5 0.441240 0.220989 0.862096
O O6 0.500000 0.000000 0.924641
O O7 0.463816 0.264391 0.000000
O O8 0.653124 0.812121 0.804511
O O9 0.574830 0.000000 0.750000
O O10 0.324816 0.500000 0.750000
O O11 0.250000 0.250000 0.754455
O O12 0.276741 0.578681 0.637279
O O13 0.250000 0.750000 0.914182
O O14 0.274810 0.498915 0.000000
#
# Coordination Sequence:
#
# PCOD9498111 Si02
#       5
#    16  16  16  16  16
#     4   9  18  36  60  85 117 152 183 222 279 340
#     4   8  16  32  56  84 113 149 187 222 271 336
#     4  11  21  34  57  85 111 145 193 240 274 317
#     4  12  25  41  59  80 112 152 191 230 282 346
#     4  10  21  38  61  89 117 144 182 234 286 334
#
# _framework density 22.564547999999998
#
# number of rings (size 3 to 8) (size 9 to 14) (size 15 to 20)
#    0.000    2.000    0.000    5.400    0.000    5.600 
#    0.000    1.000    0.000    4.800    0.000    0.000 
#    0.000    0.000    0.000    0.000    0.000    0.000 
#
# Total GULP energy -223548.814802 kJ/mol
# GULP energy per Si atom -5588.720370 kJ/mol
# Density = 2.251319 g / cm^3
# Si number density = 22.564548 Si / 1000 Ang^3
#
#
#
# Elastic Constant Matrix: (Units=GPa)
#
#
# Indices 1 2 3 4 5 6 
#
# 1 113.5183 11.0743 28.3208 0.0000 0.0000 0.0000
# 2 11.0743 38.7405 35.6002 0.0000 0.0000 0.0000
# 3 28.3208 35.6002 116.4809 0.0000 0.0000 0.0000
# 4 0.0000 0.0000 0.0000 22.9869 0.0000 0.0000
# 5 0.0000 0.0000 0.0000 0.0000 6.6816 0.0000
# 6 0.0000 0.0000 0.0000 0.0000 0.0000 32.2407
#
#
#
# Elastic Compliance Matrix: (Units=1/GPa)
#
#
# Indices 1 2 3 4 5 6 
#
# 1 0.009397 -0.000816 -0.002035 0.000000 0.000000 0.000000
# 2 -0.000816 0.035965 -0.010794 0.000000 0.000000 0.000000
# 3 -0.002035 -0.010794 0.012379 0.000000 0.000000 0.000000
# 4 0.000000 0.000000 0.000000 0.043503 0.000000 0.000000
# 5 0.000000 0.000000 0.000000 0.000000 0.149666 0.000000
# 6 0.000000 0.000000 0.000000 0.000000 0.000000 0.031017
#
#
# Mechanical properties :
#
#
# Convention : Reuss Voigt Hill
#
# Bulk Modulus (GPa) = 32.83999 46.52556 39.68278
# Shear Modulus (GPa) = 15.65607 25.29812 20.47710
#
# Velocity S-wave (km/s) = 2.63693 3.35198 3.01573
# Velocity P-wave (km/s) = 4.88432 5.97032 5.45442
#
# Compressibility (1/GPa) = 0.03045068
#
# Stress axis : x y z
#
# Youngs Moduli (GPa) = 106.42254 27.80516 80.78326
#
# Poissons Ratio (x) = 0.02268 0.16442
# Poissons Ratio (y) = 0.08681 0.87194
# Poissons Ratio (z) = 0.21660 0.30012
#
# Static dielectric constant tensor:
#      x y z
#    x 1.863300 0.000000 0.000000 
#    y 0.000000 1.853250 0.000000 
#    z 0.000000 0.000000 1.848480 
# 
# From -- ./inp_files/44094.got.cif
#   From: 2010.05.17/outbox.cif.g08.bks.cpg/sg66_23_cif.got.tgz:44094.got - 2010.06.03 17:51:23.
