data_PCOD9498250
_publ_section_title
;
Structure prediction by ZEFSAII (Michael W. Deem and Ramdas Pophale) SiO2 
 PCOD9498250
Probable space group: C C C M
;
_chemical_formula_sum "Si O2"
_cell_formula_units_Z 72
_cell_length_a 8.987012
_cell_length_b 15.945939
_cell_length_c 22.258614
_cell_angle_alpha 90.000000
_cell_angle_beta 90.000000
_cell_angle_gamma 90.000000
_cell_volume 3189.800620
_symmetry_space_group_name_H-M "C C C M"
_symmetry_group_IT_number 66
_symmetry_cell_setting 'orthorhombic'
loop_
_space_group_symop_operation_xyz
x,y,z
-x,-y,z
x,-y,1/2-z
-x,y,1/2-z
-x,-y,-z
x,y,-z
-x,y,1/2+z
x,-y,1/2+z
1/2+x,1/2+y,z
1/2-x,1/2-y,z
1/2+x,1/2-y,1/2-z
1/2-x,1/2+y,1/2-z
1/2-x,1/2-y,-z
1/2+x,1/2+y,-z
1/2-x,1/2+y,1/2+z
1/2+x,1/2-y,1/2+z
loop_
_atom_site_type_symbol
_atom_site_label
_atom_site_fract_x
_atom_site_fract_y
_atom_site_fract_z
Si Si1 0.465316 0.849391 0.500000
Si Si2 0.331218 0.477446 0.129663
Si Si3 0.131715 0.595297 0.201828
Si Si4 0.723474 0.975353 0.500000
Si Si5 0.106628 0.327361 0.873551
Si Si6 0.250000 0.750000 0.269402
O O1 0.630353 0.888699 0.500000
O O2 0.422041 0.797918 0.559241
O O3 0.374023 0.938023 0.500000
O O4 0.500000 0.500000 0.145562
O O5 0.231417 0.519082 0.181462
O O6 0.308455 0.517408 0.063283
O O7 0.256055 0.384715 0.126675
O O8 0.235939 0.669154 0.227500
O O9 0.000000 0.584203 0.250000
O O10 0.037891 0.618015 0.142268
O O11 0.117025 0.263018 0.817906
#
# Coordination Sequence:
#
# PCOD9498250 Si02
#       6
#     8  16  16   8  16   8
#     4   9  16  33  66  92 121 161 210 247 305 386
#     4  11  22  36  64  99 129 156 202 263 317 368
#     4  10  22  41  61  83 120 167 212 254 305 376
#     4   9  17  34  60 100 129 155 195 255 318 374
#     4  10  21  39  63  91 122 167 206 251 313 377
#     4  10  24  39  58  83 116 162 212 262 298 350
#
# _framework density 22.571943999999998
#
# number of rings (size 3 to 8) (size 9 to 14) (size 15 to 20)
#    0.000    2.000    2.222    1.000    0.000   12.000 
#    0.000    7.778    0.000    5.333    0.000    0.000 
#    0.000    0.000    0.000    0.000    0.000    0.000 
#
# Total GULP energy -200618.175974 kJ/mol
# GULP energy per Si atom -5572.727110 kJ/mol
# Density = 2.252057 g / cm^3
# Si number density = 22.571944 Si / 1000 Ang^3
#
#
#
# Elastic Constant Matrix: (Units=GPa)
#
#
# Indices 1 2 3 4 5 6 
#
# 1 96.9224 11.6152 22.0917 0.0000 0.0000 0.0000
# 2 11.6152 52.9433 19.0131 0.0000 0.0000 0.0000
# 3 22.0917 19.0131 129.5169 0.0000 0.0000 0.0000
# 4 0.0000 0.0000 0.0000 25.0029 0.0000 0.0000
# 5 0.0000 0.0000 0.0000 0.0000 28.7735 0.0000
# 6 0.0000 0.0000 0.0000 0.0000 0.0000 24.7204
#
#
#
# Elastic Compliance Matrix: (Units=1/GPa)
#
#
# Indices 1 2 3 4 5 6 
#
# 1 0.010898 -0.001819 -0.001592 0.000000 0.000000 0.000000
# 2 -0.001819 0.020243 -0.002661 0.000000 0.000000 0.000000
# 3 -0.001592 -0.002661 0.008383 0.000000 0.000000 0.000000
# 4 0.000000 0.000000 0.000000 0.039995 0.000000 0.000000
# 5 0.000000 0.000000 0.000000 0.000000 0.034754 0.000000
# 6 0.000000 0.000000 0.000000 0.000000 0.000000 0.040452
#
#
# Mechanical properties :
#
#
# Convention : Reuss Voigt Hill
#
# Bulk Modulus (GPa) = 36.52363 42.75807 39.64085
# Shear Modulus (GPa) = 28.40938 30.81020 29.60979
#
# Velocity S-wave (km/s) = 3.55154 3.69857 3.62580
# Velocity P-wave (km/s) = 5.74753 6.10109 5.92695
#
# Compressibility (1/GPa) = 0.02737954
#
# Stress axis : x y z
#
# Youngs Moduli (GPa) = 91.75663 49.39976 119.28604
#
# Poissons Ratio (x) = 0.08987 0.18989
# Poissons Ratio (y) = 0.16694 0.31746
# Poissons Ratio (z) = 0.14606 0.13147
#
# Static dielectric constant tensor:
#      x y z
#    x 1.865800 0.000000 0.000000 
#    y 0.000000 1.910920 0.000000 
#    z 0.000000 0.000000 1.868150 
# 
# From -- ./inp_files/55282.got.cif
#   From: 2010.05.17/outbox.cif.g08.bks.cpg/sg66_28_cif.got.tgz:55282.got - 2010.06.03 17:51:23.
