data_PCOD9498242
_publ_section_title
;
Structure prediction by ZEFSAII (Michael W. Deem and Ramdas Pophale) SiO2 
 PCOD9498242
Probable space group: C C C M
;
_chemical_formula_sum "Si O2"
_cell_formula_units_Z 72
_cell_length_a 13.428388
_cell_length_b 16.279986
_cell_length_c 18.134404
_cell_angle_alpha 90.000000
_cell_angle_beta 90.000000
_cell_angle_gamma 90.000000
_cell_volume 3964.434027
_symmetry_space_group_name_H-M "C C C M"
_symmetry_group_IT_number 66
_symmetry_cell_setting 'orthorhombic'
loop_
_space_group_symop_operation_xyz
x,y,z
-x,-y,z
x,-y,1/2-z
-x,y,1/2-z
-x,-y,-z
x,y,-z
-x,y,1/2+z
x,-y,1/2+z
1/2+x,1/2+y,z
1/2-x,1/2-y,z
1/2+x,1/2-y,1/2-z
1/2-x,1/2+y,1/2-z
1/2-x,1/2-y,-z
1/2+x,1/2+y,-z
1/2-x,1/2+y,1/2+z
1/2+x,1/2-y,1/2+z
loop_
_atom_site_type_symbol
_atom_site_label
_atom_site_fract_x
_atom_site_fract_y
_atom_site_fract_z
Si Si1 0.755465 0.089094 0.210787
Si Si2 0.250000 0.750000 0.684460
Si Si3 0.944152 0.730851 0.085117
Si Si4 0.468506 0.906677 0.828943
Si Si5 0.841310 0.815874 0.586291
O O1 0.753148 0.166202 0.267295
O O2 0.649387 0.092700 0.169866
O O3 0.831276 0.111667 0.145655
O O4 0.767194 0.000000 0.250000
O O5 0.149901 0.752365 0.635471
O O6 0.975744 0.638650 0.105952
O O7 0.049232 0.777315 0.098419
O O8 0.917608 0.740876 0.000000
O O9 0.500000 0.867561 0.750000
O O10 0.500000 0.000000 0.827472
O O11 0.833660 0.840047 0.500000
O O12 0.750000 0.750000 0.598808
#
# Coordination Sequence:
#
# PCOD9498242 Si02
#       5
#    16   8  16  16  16
#     4  12  22  37  65  96 122 161 207 255 314 367
#     4  12  23  40  61  88 130 164 202 258 303 372
#     4  11  23  39  60  87 121 166 206 248 312 369
#     4  11  19  35  58  89 124 150 191 256 319 368
#     4  10  21  39  63  89 120 159 206 254 300 358
#
# _framework density 18.161483
#
# number of rings (size 3 to 8) (size 9 to 14) (size 15 to 20)
#    0.000    0.889    7.778    0.333    0.000    0.444 
#    0.000    6.667    0.000    2.667    0.000    0.000 
#    0.000    0.000    0.000    0.000    0.000    0.000 
#
# Total GULP energy -200673.134723 kJ/mol
# GULP energy per Si atom -5574.253742 kJ/mol
# Density = 1.812015 g / cm^3
# Si number density = 18.161483 Si / 1000 Ang^3
#
#
#
# Elastic Constant Matrix: (Units=GPa)
#
#
# Indices 1 2 3 4 5 6 
#
# 1 106.4628 41.3892 57.4245 0.0000 0.0000 0.0000
# 2 41.3892 95.5093 45.7427 0.0000 0.0000 0.0000
# 3 57.4245 45.7427 70.3439 0.0000 0.0000 0.0000
# 4 0.0000 0.0000 0.0000 22.7994 0.0000 0.0000
# 5 0.0000 0.0000 0.0000 0.0000 19.7684 0.0000
# 6 0.0000 0.0000 0.0000 0.0000 0.0000 1.4268
#
#
#
# Elastic Compliance Matrix: (Units=1/GPa)
#
#
# Indices 1 2 3 4 5 6 
#
# 1 0.016853 -0.001037 -0.013083 0.000000 0.000000 0.000000
# 2 -0.001037 0.015270 -0.009083 0.000000 0.000000 0.000000
# 3 -0.013083 -0.009083 0.030803 0.000000 0.000000 0.000000
# 4 0.000000 0.000000 0.000000 0.043861 0.000000 0.000000
# 5 0.000000 0.000000 0.000000 0.000000 0.050586 0.000000
# 6 0.000000 0.000000 0.000000 0.000000 0.000000 0.700877
#
#
# Mechanical properties :
#
#
# Convention : Reuss Voigt Hill
#
# Bulk Modulus (GPa) = 60.53732 62.38097 61.45915
# Shear Modulus (GPa) = 5.49352 17.31622 11.40487
#
# Velocity S-wave (km/s) = 1.74109 3.09116 2.50865
# Velocity P-wave (km/s) = 6.11940 6.86752 6.50423
#
# Compressibility (1/GPa) = 0.01651874
#
# Stress axis : x y z
#
# Youngs Moduli (GPa) = 59.33585 65.48909 32.46477
#
# Poissons Ratio (x) = 0.06793 0.42475
# Poissons Ratio (y) = 0.06155 0.29487
# Poissons Ratio (z) = 0.77632 0.59482
#
# Static dielectric constant tensor:
#      x y z
#    x 1.684340 0.000000 0.000000 
#    y 0.000000 1.642510 0.000000 
#    z 0.000000 0.000000 1.669660 
# 
# From -- ./inp_files/40041.got.cif
#   From: 2010.05.17/outbox.cif.g08.bks.cpg/sg66_21_cif.got.tgz:40041.got - 2010.06.03 17:51:23.
