data_PCOD9498488
_publ_section_title
;
Structure prediction by ZEFSAII (Michael W. Deem and Ramdas Pophale) SiO2 
 PCOD9498488
Probable space group: C C C M
;
_chemical_formula_sum "Si O2"
_cell_formula_units_Z 64
_cell_length_a 10.896107
_cell_length_b 10.204306
_cell_length_c 24.572896
_cell_angle_alpha 90.000000
_cell_angle_beta 90.000000
_cell_angle_gamma 90.000000
_cell_volume 2732.191749
_symmetry_space_group_name_H-M "C C C M"
_symmetry_group_IT_number 66
_symmetry_cell_setting 'orthorhombic'
loop_
_space_group_symop_operation_xyz
x,y,z
-x,-y,z
x,-y,1/2-z
-x,y,1/2-z
-x,-y,-z
x,y,-z
-x,y,1/2+z
x,-y,1/2+z
1/2+x,1/2+y,z
1/2-x,1/2-y,z
1/2+x,1/2-y,1/2-z
1/2-x,1/2+y,1/2-z
1/2-x,1/2-y,-z
1/2+x,1/2+y,-z
1/2-x,1/2+y,1/2+z
1/2+x,1/2-y,1/2+z
loop_
_atom_site_type_symbol
_atom_site_label
_atom_site_fract_x
_atom_site_fract_y
_atom_site_fract_z
Si Si1 0.000000 0.291948 0.750000
Si Si2 0.450550 0.311412 0.440249
Si Si3 0.712172 0.929968 0.594821
Si Si4 0.750000 0.750000 0.696582
Si Si5 0.121509 0.312483 0.858444
O O1 0.049870 0.359646 0.804842
O O2 0.874967 0.221857 0.770535
O O3 0.505979 0.322860 0.500000
O O4 0.372654 0.175290 0.435951
O O5 0.347540 0.422230 0.430779
O O6 0.543296 0.296256 0.390481
O O7 0.726401 0.871337 0.655851
O O8 0.650223 0.069718 0.600363
O O9 0.250000 0.250000 0.842024
#
# Coordination Sequence:
#
# PCOD9498488 Si02
#       5
#     8  16  16   8  16
#     4  12  22  45  63  98 140 178 229 285 344 418
#     4  10  22  44  70  95 128 172 227 287 346 407
#     4  10  21  42  66  97 125 168 227 285 330 411
#     4  10  22  40  67  94 127 176 234 274 344 404
#     4  12  26  41  64  99 138 178 227 277 349 419
#
# _framework density 23.424417999999999
#
# number of rings (size 3 to 8) (size 9 to 14) (size 15 to 20)
#    0.000    1.500    6.250    2.250    0.000    6.500 
#    0.000    2.500    0.000    0.000    0.000    0.000 
#    0.000    0.000    0.000    0.000    0.000    0.000 
#
# Total GULP energy -178709.516295 kJ/mol
# GULP energy per Si atom -5584.672384 kJ/mol
# Density = 2.337110 g / cm^3
# Si number density = 23.424418 Si / 1000 Ang^3
#
#
#
# Elastic Constant Matrix: (Units=GPa)
#
#
# Indices 1 2 3 4 5 6 
#
# 1 135.8800 8.2528 50.4127 0.0000 0.0000 0.0000
# 2 8.2528 53.4255 2.8182 0.0000 0.0000 0.0000
# 3 50.4127 2.8182 129.4123 0.0000 0.0000 0.0000
# 4 0.0000 0.0000 0.0000 -45.1827 0.0000 0.0000
# 5 0.0000 0.0000 0.0000 0.0000 27.6776 0.0000
# 6 0.0000 0.0000 0.0000 0.0000 0.0000 21.5717
#
#
#
# Elastic Compliance Matrix: (Units=1/GPa)
#
#
# Indices 1 2 3 4 5 6 
#
# 1 0.008674 -0.001163 -0.003354 0.000000 0.000000 0.000000
# 2 -0.001163 0.018895 0.000042 0.000000 0.000000 0.000000
# 3 -0.003354 0.000042 0.009033 0.000000 0.000000 0.000000
# 4 0.000000 0.000000 0.000000 -0.022132 0.000000 0.000000
# 5 0.000000 0.000000 0.000000 0.000000 0.036130 0.000000
# 6 0.000000 0.000000 0.000000 0.000000 0.000000 0.046357
#
#
# Mechanical properties :
#
#
# Convention : Reuss Voigt Hill
#
# Bulk Modulus (GPa) = 36.16402 49.07614 42.62008
# Shear Modulus (GPa) = 43.43109 17.96226 30.69668
#
# Velocity S-wave (km/s) = 4.31059 2.77215 3.62395
# Velocity P-wave (km/s) = 6.34406 5.58952 5.97870
#
# Compressibility (1/GPa) = 0.02765179
#
# Stress axis : x y z
#
# Youngs Moduli (GPa) = 115.28238 52.92378 110.70758
#
# Poissons Ratio (x) = 0.06155 0.37129
# Poissons Ratio (y) = 0.13408 -0.00460
# Poissons Ratio (z) = 0.38663 -0.00220
#
# Static dielectric constant tensor:
#      x y z
#    x 1.917840 0.000000 0.000000 
#    y 0.000000 1.892140 0.000000 
#    z 0.000000 0.000000 1.849570 
# 
# From -- ./inp_files/56326.got.cif
#   From: 2010.05.17/outbox.cif.g08.bks.cpg/sg66_29_cif.got.tgz:56326.got - 2010.06.03 17:51:23.
