data_PCOD9498672
_publ_section_title
;
Structure prediction by ZEFSAII (Michael W. Deem and Ramdas Pophale) SiO2 
 PCOD9498672
Probable space group: C C C M
;
_chemical_formula_sum "Si O2"
_cell_formula_units_Z 104
_cell_length_a 16.684325
_cell_length_b 11.081027
_cell_length_c 27.859755
_cell_angle_alpha 90.000000
_cell_angle_beta 90.000000
_cell_angle_gamma 90.000000
_cell_volume 5150.696343
_symmetry_space_group_name_H-M "C C C M"
_symmetry_group_IT_number 66
_symmetry_cell_setting 'orthorhombic'
loop_
_space_group_symop_operation_xyz
x,y,z
-x,-y,z
x,-y,1/2-z
-x,y,1/2-z
-x,-y,-z
x,y,-z
-x,y,1/2+z
x,-y,1/2+z
1/2+x,1/2+y,z
1/2-x,1/2-y,z
1/2+x,1/2-y,1/2-z
1/2-x,1/2+y,1/2-z
1/2-x,1/2-y,-z
1/2+x,1/2+y,-z
1/2-x,1/2+y,1/2+z
1/2+x,1/2-y,1/2+z
loop_
_atom_site_type_symbol
_atom_site_label
_atom_site_fract_x
_atom_site_fract_y
_atom_site_fract_z
Si Si1 0.875359 0.151258 0.195971
Si Si2 0.935996 0.598350 0.329713
Si Si3 0.697236 0.871941 0.055850
Si Si4 0.500000 0.500000 0.133582
Si Si5 0.439976 0.244727 0.117050
Si Si6 0.326660 0.677079 0.701165
Si Si7 0.741205 0.970803 0.359294
O O1 0.911280 0.285893 0.201091
O O2 0.862195 0.121250 0.251179
O O3 0.796626 0.137577 0.161547
O O4 0.937299 0.065766 0.168393
O O5 0.850706 0.541350 0.342938
O O6 0.000000 0.500000 0.311271
O O7 0.981172 0.664846 0.373896
O O8 0.750000 0.750000 0.060743
O O9 0.614659 0.827074 0.079853
O O10 0.735099 0.983814 0.085667
O O11 0.689144 0.901264 0.000000
O O12 0.461351 0.385394 0.105542
O O13 0.390630 0.254305 0.167648
O O14 0.250000 0.750000 0.719683
O O15 0.284657 0.581487 0.666690
#
# Coordination Sequence:
#
# PCOD9498672 Si02
#       7
#    16  16  16   8  16  16  16
#     4  11  25  38  63  94 129 174 220 263 322 398
#     4  11  23  41  64  91 134 175 209 265 332 383
#     4  11  21  39  70  98 124 170 225 277 334 395
#     4  10  22  39  63  86 128 170 217 266 330 375
#     4  11  21  41  59  92 125 166 214 274 320 389
#     4  12  21  38  60  88 128 173 217 256 321 384
#     4  12  21  42  62  93 130 169 216 273 325 386
#
# _framework density 20.191444000000001
#
# number of rings (size 3 to 8) (size 9 to 14) (size 15 to 20)
#    0.000    0.769    6.154    1.846    0.000    3.077 
#    0.000    8.077    0.000    5.538    0.000    0.000 
#    0.000    0.000    0.000    0.000    0.000    0.000 
#
# Total GULP energy -289840.398575 kJ/mol
# GULP energy per Si atom -5573.853819 kJ/mol
# Density = 2.014549 g / cm^3
# Si number density = 20.191444 Si / 1000 Ang^3
#
#
#
# Elastic Constant Matrix: (Units=GPa)
#
#
# Indices 1 2 3 4 5 6 
#
# 1 115.2984 28.7924 29.8430 0.0000 0.0000 0.0000
# 2 28.7924 85.7627 25.7571 0.0000 0.0000 0.0000
# 3 29.8430 25.7571 102.2736 0.0000 0.0000 0.0000
# 4 0.0000 0.0000 0.0000 -3.6328 0.0000 0.0000
# 5 0.0000 0.0000 0.0000 0.0000 6.4327 0.0000
# 6 0.0000 0.0000 0.0000 0.0000 0.0000 42.6730
#
#
#
# Elastic Compliance Matrix: (Units=1/GPa)
#
#
# Indices 1 2 3 4 5 6 
#
# 1 0.009913 -0.002660 -0.002222 0.000000 0.000000 0.000000
# 2 -0.002660 0.013328 -0.002580 0.000000 0.000000 0.000000
# 3 -0.002222 -0.002580 0.011076 0.000000 0.000000 0.000000
# 4 0.000000 0.000000 0.000000 -0.275271 0.000000 0.000000
# 5 0.000000 0.000000 0.000000 0.000000 0.155457 0.000000
# 6 0.000000 0.000000 0.000000 0.000000 0.000000 0.023434
#
#
# Mechanical properties :
#
#
# Convention : Reuss Voigt Hill
#
# Bulk Modulus (GPa) = 51.57168 52.45774 52.01471
# Shear Modulus (GPa) = -122.93079 23.69073 -49.62003
#
# Velocity S-wave (km/s) = -7.81120 3.42907 -4.96267
# Velocity P-wave (km/s) = 7.46701 6.45869 2.64968
#
# Compressibility (1/GPa) = 0.01939049
#
# Stress axis : x y z
#
# Youngs Moduli (GPa) = 100.88001 75.02887 90.28488
#
# Poissons Ratio (x) = 0.19961 0.20066
# Poissons Ratio (y) = 0.26839 0.23296
# Poissons Ratio (z) = 0.22420 0.19360
#
# Static dielectric constant tensor:
#      x y z
#    x 1.769300 0.000000 0.000000 
#    y 0.000000 1.796720 0.000000 
#    z 0.000000 0.000000 1.665880 
# 
# From -- ./inp_files/65285.got.cif
#   From: 2010.05.17/outbox.cif.g08.bks.cpg/sg66_33_cif.got.tgz:65285.got - 2010.06.03 17:51:23.
