data_PCOD9498953
_publ_section_title
;
Structure prediction by ZEFSAII (Michael W. Deem and Ramdas Pophale) SiO2 
 PCOD9498953
Probable space group: C C C M
;
_chemical_formula_sum "Si O2"
_cell_formula_units_Z 56
_cell_length_a 5.205325
_cell_length_b 29.517548
_cell_length_c 17.087354
_cell_angle_alpha 90.000000
_cell_angle_beta 90.000000
_cell_angle_gamma 90.000000
_cell_volume 2625.445124
_symmetry_space_group_name_H-M "C C C M"
_symmetry_group_IT_number 66
_symmetry_cell_setting 'orthorhombic'
loop_
_space_group_symop_operation_xyz
x,y,z
-x,-y,z
x,-y,1/2-z
-x,y,1/2-z
-x,-y,-z
x,y,-z
-x,y,1/2+z
x,-y,1/2+z
1/2+x,1/2+y,z
1/2-x,1/2-y,z
1/2+x,1/2-y,1/2-z
1/2-x,1/2+y,1/2-z
1/2-x,1/2-y,-z
1/2+x,1/2+y,-z
1/2-x,1/2+y,1/2+z
1/2+x,1/2-y,1/2+z
loop_
_atom_site_type_symbol
_atom_site_label
_atom_site_fract_x
_atom_site_fract_y
_atom_site_fract_z
Si Si1 0.250000 0.750000 0.303344
Si Si2 0.750331 0.530547 0.407626
Si Si3 0.900692 0.201853 0.910039
Si Si4 0.248176 0.620776 0.804453
O O1 0.500000 0.759174 0.250000
O O2 0.839338 0.789763 0.139004
O O3 0.500000 0.500000 0.393202
O O4 0.752769 0.543011 0.500000
O O5 0.747929 0.574738 0.354326
O O6 0.000000 0.500000 0.391922
O O7 0.750000 0.250000 0.909009
O O8 0.753285 0.162789 0.864355
O O9 0.950182 0.190101 0.000000
O O10 0.500000 0.623221 0.750000
O O11 0.000000 0.622197 0.750000
#
# Coordination Sequence:
#
# PCOD9498953 Si02
#       4
#     8  16  16  16
#     4  12  25  44  73 100 136 182 230 294 357 414
#     4  10  22  45  73 100 136 182 228 283 348 420
#     4  11  27  48  71 100 139 190 241 288 348 423
#     4  12  28  43  69 105 140 183 229 292 355 414
#
# _framework density 21.329718
#
# number of rings (size 3 to 8) (size 9 to 14) (size 15 to 20)
#    0.000    0.857    1.429    3.857    8.000    3.429 
#    0.000    2.857    0.000    0.000    0.000    0.000 
#    0.000    0.000    0.000    0.000    0.000    0.000 
#
# Total GULP energy -156816.546802 kJ/mol
# GULP energy per Si atom -5600.590957 kJ/mol
# Density = 2.128117 g / cm^3
# Si number density = 21.329718 Si / 1000 Ang^3
#
#
#
# Elastic Constant Matrix: (Units=GPa)
#
#
# Indices 1 2 3 4 5 6 
#
# 1 184.0372 66.2597 98.6310 0.0000 0.0000 0.0000
# 2 66.2597 158.3903 115.6478 0.0000 0.0000 0.0000
# 3 98.6310 115.6478 198.3439 0.0000 0.0000 0.0000
# 4 0.0000 0.0000 0.0000 62.9669 0.0000 0.0000
# 5 0.0000 0.0000 0.0000 0.0000 -105.4881 0.0000
# 6 0.0000 0.0000 0.0000 0.0000 0.0000 19.6574
#
#
#
# Elastic Compliance Matrix: (Units=1/GPa)
#
#
# Indices 1 2 3 4 5 6 
#
# 1 0.007454 -0.000717 -0.003289 0.000000 0.000000 0.000000
# 2 -0.000717 0.011063 -0.006094 0.000000 0.000000 0.000000
# 3 -0.003289 -0.006094 0.010230 0.000000 0.000000 0.000000
# 4 0.000000 0.000000 0.000000 0.015881 0.000000 0.000000
# 5 0.000000 0.000000 0.000000 0.000000 -0.009480 0.000000
# 6 0.000000 0.000000 0.000000 0.000000 0.000000 0.050871
#
#
# Mechanical properties :
#
#
# Convention : Reuss Voigt Hill
#
# Bulk Modulus (GPa) = 116.98396 122.42758 119.70577
# Shear Modulus (GPa) = 45.84249 12.77610 29.30929
#
# Velocity S-wave (km/s) = 4.64101 2.45006 3.71092
# Velocity P-wave (km/s) = 9.14785 8.09481 8.63740
#
# Compressibility (1/GPa) = 0.00854818
#
# Stress axis : x y z
#
# Youngs Moduli (GPa) = 134.14868 90.39253 97.74973
#
# Poissons Ratio (x) = 0.06483 0.32147
# Poissons Ratio (y) = 0.09621 0.59566
# Poissons Ratio (z) = 0.44118 0.55083
#
# Static dielectric constant tensor:
#      x y z
#    x 1.820520 0.000000 0.000000 
#    y 0.000000 1.752250 0.000000 
#    z 0.000000 0.000000 1.767820 
# 
# From -- ./inp_files/22542.got.cif
#   From: 2010.05.17/outbox.cif.g08.bks.cpg/sg66_12_cif.got.tgz:22542.got - 2010.06.03 17:51:23.
