data_PCOD9498057
_publ_section_title
;
Structure prediction by ZEFSAII (Michael W. Deem and Ramdas Pophale) SiO2 
 PCOD9498057
Probable space group: C C C M
;
_chemical_formula_sum "Si O2"
_cell_formula_units_Z 72
_cell_length_a 25.270998
_cell_length_b 5.148892
_cell_length_c 32.507507
_cell_angle_alpha 90.000000
_cell_angle_beta 90.000000
_cell_angle_gamma 90.000000
_cell_volume 4229.800075
_symmetry_space_group_name_H-M "C C C M"
_symmetry_group_IT_number 66
_symmetry_cell_setting 'orthorhombic'
loop_
_space_group_symop_operation_xyz
x,y,z
-x,-y,z
x,-y,1/2-z
-x,y,1/2-z
-x,-y,-z
x,y,-z
-x,y,1/2+z
x,-y,1/2+z
1/2+x,1/2+y,z
1/2-x,1/2-y,z
1/2+x,1/2-y,1/2-z
1/2-x,1/2+y,1/2-z
1/2-x,1/2-y,-z
1/2+x,1/2+y,-z
1/2-x,1/2+y,1/2+z
1/2+x,1/2-y,1/2+z
loop_
_atom_site_type_symbol
_atom_site_label
_atom_site_fract_x
_atom_site_fract_y
_atom_site_fract_z
Si Si1 0.188469 0.333292 0.128821
Si Si2 0.149626 0.851319 0.917246
Si Si3 0.186020 0.256067 0.774426
Si Si4 0.287635 0.494118 0.500000
Si Si5 0.535249 0.243442 0.048808
O O1 0.250000 0.250000 0.122234
O O2 0.178229 0.610175 0.106400
O O3 0.177288 0.313827 0.177496
O O4 0.152255 0.108678 0.109960
O O5 0.177364 0.952125 0.959279
O O6 0.090528 0.764158 0.927948
O O7 0.164473 0.500000 0.750000
O O8 0.250000 0.250000 0.770789
O O9 0.167277 0.000000 0.750000
O O10 0.250000 0.250000 0.500000
O O11 0.250000 0.750000 0.500000
O O12 0.500000 0.500000 0.053818
O O13 0.500000 0.000000 0.061947
O O14 0.546975 0.213047 0.000000
#
# Coordination Sequence:
#
# PCOD9498057 Si02
#       5
#    16  16  16   8  16
#     4  11  22  34  53  79 115 148 177 218 262 317
#     4  12  22  37  53  78 108 144 186 223 269 318
#     4   9  17  31  50  73 103 142 179 212 257 312
#     4  12  24  36  50  72 108 154 188 212 247 318
#     4  10  21  38  58  76  98 133 183 238 286 314
#
# _framework density 17.022079999999999
#
# number of rings (size 3 to 8) (size 9 to 14) (size 15 to 20)
#    0.000    1.333    1.111    6.667    0.000    3.556 
#    0.000    0.000    0.000    0.000    0.000    0.000 
#    0.000   62.222    0.000    0.000    0.000    0.000 
#
# Total GULP energy -200741.552995 kJ/mol
# GULP energy per Si atom -5576.154250 kJ/mol
# Density = 1.698334 g / cm^3
# Si number density = 17.022080 Si / 1000 Ang^3
#
#
#
# Elastic Constant Matrix: (Units=GPa)
#
#
# Indices 1 2 3 4 5 6 
#
# 1 69.1139 24.1562 31.3492 0.0000 0.0000 0.0000
# 2 24.1562 142.8119 59.8032 0.0000 0.0000 0.0000
# 3 31.3492 59.8032 113.9684 0.0000 0.0000 0.0000
# 4 0.0000 0.0000 0.0000 31.8039 0.0000 0.0000
# 5 0.0000 0.0000 0.0000 0.0000 7.6529 0.0000
# 6 0.0000 0.0000 0.0000 0.0000 0.0000 21.5275
#
#
#
# Elastic Compliance Matrix: (Units=1/GPa)
#
#
# Indices 1 2 3 4 5 6 
#
# 1 0.016678 -0.001153 -0.003982 0.000000 0.000000 0.000000
# 2 -0.001153 0.009054 -0.004434 0.000000 0.000000 0.000000
# 3 -0.003982 -0.004434 0.012196 0.000000 0.000000 0.000000
# 4 0.000000 0.000000 0.000000 0.031443 0.000000 0.000000
# 5 0.000000 0.000000 0.000000 0.000000 0.130669 0.000000
# 6 0.000000 0.000000 0.000000 0.000000 0.000000 0.046452
#
#
# Mechanical properties :
#
#
# Convention : Reuss Voigt Hill
#
# Bulk Modulus (GPa) = 53.22104 61.83460 57.52782
# Shear Modulus (GPa) = 18.38946 26.23591 22.31269
#
# Velocity S-wave (km/s) = 3.29040 3.93018 3.62444
# Velocity P-wave (km/s) = 6.76531 7.54984 7.16832
#
# Compressibility (1/GPa) = 0.01878956
#
# Stress axis : x y z
#
# Youngs Moduli (GPa) = 59.95778 110.44942 81.99209
#
# Poissons Ratio (x) = 0.12739 0.32653
# Poissons Ratio (y) = 0.06916 0.36352
# Poissons Ratio (z) = 0.23878 0.48969
#
# Static dielectric constant tensor:
#      x y z
#    x 1.534980 0.000000 0.000000 
#    y 0.000000 1.561670 0.000000 
#    z 0.000000 0.000000 1.455150 
# 
# From -- ./inp_files/65954.got.cif
#   From: 2010.05.17/outbox.cif.g08.bks.cpg/sg66_33_cif.got.tgz:65954.got - 2010.06.03 17:51:23.
