data_PCOD9498184
_publ_section_title
;
Structure prediction by ZEFSAII (Michael W. Deem and Ramdas Pophale) SiO2 
 PCOD9498184
Probable space group: C C C M
;
_chemical_formula_sum "Si O2"
_cell_formula_units_Z 88
_cell_length_a 21.004045
_cell_length_b 11.058451
_cell_length_c 17.208943
_cell_angle_alpha 90.000000
_cell_angle_beta 90.000000
_cell_angle_gamma 90.000000
_cell_volume 3997.159092
_symmetry_space_group_name_H-M "C C C M"
_symmetry_group_IT_number 66
_symmetry_cell_setting 'orthorhombic'
loop_
_space_group_symop_operation_xyz
x,y,z
-x,-y,z
x,-y,1/2-z
-x,y,1/2-z
-x,-y,-z
x,y,-z
-x,y,1/2+z
x,-y,1/2+z
1/2+x,1/2+y,z
1/2-x,1/2-y,z
1/2+x,1/2-y,1/2-z
1/2-x,1/2+y,1/2-z
1/2-x,1/2-y,-z
1/2+x,1/2+y,-z
1/2-x,1/2+y,1/2+z
1/2+x,1/2-y,1/2+z
loop_
_atom_site_type_symbol
_atom_site_label
_atom_site_fract_x
_atom_site_fract_y
_atom_site_fract_z
Si Si1 0.789640 0.016558 0.090394
Si Si2 0.500000 0.500000 0.873676
Si Si3 0.844502 0.431682 0.832063
Si Si4 0.392363 0.659672 0.809619
Si Si5 0.557203 0.919525 0.911068
Si Si6 0.888279 0.841300 0.872485
O O1 0.728226 0.050246 0.141520
O O2 0.845063 0.094000 0.130860
O O3 0.819063 0.879785 0.095134
O O4 0.779475 0.046268 0.000000
O O5 0.462341 0.607842 0.829154
O O6 0.442147 0.426498 0.911559
O O7 0.853710 0.500000 0.750000
O O8 0.874409 0.299507 0.820565
O O9 0.883303 0.493001 0.901468
O O10 0.382763 0.630334 0.719144
O O11 0.583654 0.793261 0.878326
O O12 0.500000 0.000000 0.874215
O O13 0.538896 0.894663 0.000000
#
# Coordination Sequence:
#
# PCOD9498184 Si02
#       6
#    16   8  16  16  16  16
#     4  11  25  42  66  97 135 179 227 287 349 406
#     4  10  21  38  69 100 127 168 223 282 341 388
#     4  12  24  43  66  97 131 181 229 276 339 411
#     4  11  22  41  68  99 133 173 228 287 331 410
#     4  11  25  43  65  98 138 175 219 278 343 412
#     4  11  21  43  66  99 133 177 227 281 336 411
#
# _framework density 22.015636000000001
#
# number of rings (size 3 to 8) (size 9 to 14) (size 15 to 20)
#    0.000    0.909    1.818    7.091    0.000    3.273 
#    0.000   15.000    0.000    0.000    0.000    0.000 
#    0.000    0.000    0.000    0.000    0.000    0.000 
#
# Total GULP energy -245206.150631 kJ/mol
# GULP energy per Si atom -5572.867060 kJ/mol
# Density = 2.196553 g / cm^3
# Si number density = 22.015636 Si / 1000 Ang^3
#
#
#
# Elastic Constant Matrix: (Units=GPa)
#
#
# Indices 1 2 3 4 5 6 
#
# 1 117.6370 54.7924 4.1357 0.0000 0.0000 0.0000
# 2 54.7924 156.2411 29.2839 0.0000 0.0000 0.0000
# 3 4.1357 29.2839 78.9202 0.0000 0.0000 0.0000
# 4 0.0000 0.0000 0.0000 6.6430 0.0000 0.0000
# 5 0.0000 0.0000 0.0000 0.0000 58.2791 0.0000
# 6 0.0000 0.0000 0.0000 0.0000 0.0000 32.5569
#
#
#
# Elastic Compliance Matrix: (Units=1/GPa)
#
#
# Indices 1 2 3 4 5 6 
#
# 1 0.010214 -0.003742 0.000853 0.000000 0.000000 0.000000
# 2 -0.003742 0.008250 -0.002865 0.000000 0.000000 0.000000
# 3 0.000853 -0.002865 0.013689 0.000000 0.000000 0.000000
# 4 0.000000 0.000000 0.000000 0.150535 0.000000 0.000000
# 5 0.000000 0.000000 0.000000 0.000000 0.017159 0.000000
# 6 0.000000 0.000000 0.000000 0.000000 0.000000 0.030715
#
#
# Mechanical properties :
#
#
# Convention : Reuss Voigt Hill
#
# Bulk Modulus (GPa) = 48.43688 58.80246 53.61967
# Shear Modulus (GPa) = 20.08431 37.13488 28.60959
#
# Velocity S-wave (km/s) = 3.02367 4.11146 3.60879
# Velocity P-wave (km/s) = 5.85141 7.02184 6.46317
#
# Compressibility (1/GPa) = 0.02064543
#
# Stress axis : x y z
#
# Youngs Moduli (GPa) = 97.90935 121.21920 73.04932
#
# Poissons Ratio (x) = 0.45357 -0.06232
# Poissons Ratio (y) = 0.36635 0.20928
# Poissons Ratio (z) = -0.08353 0.34729
#
# Static dielectric constant tensor:
#      x y z
#    x 1.872590 0.000000 0.000000 
#    y 0.000000 1.920490 0.000000 
#    z 0.000000 0.000000 1.808450 
# 
# From -- ./inp_files/42767.got.cif
#   From: 2010.05.17/outbox.cif.g08.bks.cpg/sg66_22_cif.got.tgz:42767.got - 2010.06.03 17:51:23.
