data_PCOD9498165
_publ_section_title
;
Structure prediction by ZEFSAII (Michael W. Deem and Ramdas Pophale) SiO2 
 PCOD9498165
Probable space group: C C C M
;
_chemical_formula_sum "Si O2"
_cell_formula_units_Z 72
_cell_length_a 20.798065
_cell_length_b 8.242035
_cell_length_c 22.662003
_cell_angle_alpha 90.000000
_cell_angle_beta 90.000000
_cell_angle_gamma 90.000000
_cell_volume 3884.683834
_symmetry_space_group_name_H-M "C C C M"
_symmetry_group_IT_number 66
_symmetry_cell_setting 'orthorhombic'
loop_
_space_group_symop_operation_xyz
x,y,z
-x,-y,z
x,-y,1/2-z
-x,y,1/2-z
-x,-y,-z
x,y,-z
-x,y,1/2+z
x,-y,1/2+z
1/2+x,1/2+y,z
1/2-x,1/2-y,z
1/2+x,1/2-y,1/2-z
1/2-x,1/2+y,1/2-z
1/2-x,1/2-y,-z
1/2+x,1/2+y,-z
1/2-x,1/2+y,1/2+z
1/2+x,1/2-y,1/2+z
loop_
_atom_site_type_symbol
_atom_site_label
_atom_site_fract_x
_atom_site_fract_y
_atom_site_fract_z
Si Si1 0.272650 0.024248 0.000000
Si Si2 0.446699 0.386138 0.601478
Si Si3 0.250000 0.750000 0.393216
Si Si4 0.525908 0.183169 0.309463
Si Si5 0.858820 0.099220 0.311422
Si Si6 0.649225 0.692614 0.500000
O O1 0.284092 0.128741 0.059449
O O2 0.313416 0.861182 0.000000
O O3 0.198862 0.958905 0.000000
O O4 0.500000 0.500000 0.571411
O O5 0.490071 0.256191 0.634727
O O6 0.406555 0.486502 0.650233
O O7 0.395828 0.316968 0.556576
O O8 0.203185 0.854117 0.350738
O O9 0.500000 0.267175 0.250000
O O10 0.600959 0.230881 0.306325
O O11 0.500000 0.000000 0.307965
O O12 0.846106 0.000000 0.250000
#
# Coordination Sequence:
#
# PCOD9498165 Si02
#       6
#     8  16   8  16  16   8
#     4  10  24  42  67  81 124 176 211 268 304 367
#     4  10  21  38  66  90 125 160 203 249 319 373
#     4  11  24  46  62  90 122 171 222 256 312 361
#     4  10  21  38  64  93 123 158 199 253 314 373
#     4  11  22  42  63  91 127 165 202 253 312 379
#     4  11  21  42  62  94 119 162 220 257 311 360
#
# _framework density 18.534327000000001
#
# number of rings (size 3 to 8) (size 9 to 14) (size 15 to 20)
#    0.000    1.556    4.444    0.333    3.111    0.000 
#    8.000    0.556    0.000    0.000    0.000    0.000 
#    0.000    0.000    0.000    0.000    0.000    0.000 
#
# Total GULP energy -200409.904828 kJ/mol
# GULP energy per Si atom -5566.941801 kJ/mol
# Density = 1.849214 g / cm^3
# Si number density = 18.534327 Si / 1000 Ang^3
#
#
#
# Elastic Constant Matrix: (Units=GPa)
#
#
# Indices 1 2 3 4 5 6 
#
# 1 72.4791 26.3337 45.5780 0.0000 0.0000 0.0000
# 2 26.3337 85.8508 40.4684 0.0000 0.0000 0.0000
# 3 45.5780 40.4684 116.2237 0.0000 0.0000 0.0000
# 4 0.0000 0.0000 0.0000 50.4560 0.0000 0.0000
# 5 0.0000 0.0000 0.0000 0.0000 30.3652 0.0000
# 6 0.0000 0.0000 0.0000 0.0000 0.0000 23.7183
#
#
#
# Elastic Compliance Matrix: (Units=1/GPa)
#
#
# Indices 1 2 3 4 5 6 
#
# 1 0.018840 -0.002747 -0.006432 0.000000 0.000000 0.000000
# 2 -0.002747 0.014336 -0.003914 0.000000 0.000000 0.000000
# 3 -0.006432 -0.003914 0.012489 0.000000 0.000000 0.000000
# 4 0.000000 0.000000 0.000000 0.019819 0.000000 0.000000
# 5 0.000000 0.000000 0.000000 0.000000 0.032932 0.000000
# 6 0.000000 0.000000 0.000000 0.000000 0.000000 0.042162
#
#
# Mechanical properties :
#
#
# Convention : Reuss Voigt Hill
#
# Bulk Modulus (GPa) = 51.33820 55.47931 53.40875
# Shear Modulus (GPa) = 28.85886 31.71947 30.28916
#
# Velocity S-wave (km/s) = 3.95023 4.14138 4.04693
# Velocity P-wave (km/s) = 6.96885 7.27092 7.12149
#
# Compressibility (1/GPa) = 0.01947867
#
# Stress axis : x y z
#
# Youngs Moduli (GPa) = 53.07961 69.75488 80.06883
#
# Poissons Ratio (x) = 0.19162 0.51497
# Poissons Ratio (y) = 0.14581 0.31342
# Poissons Ratio (z) = 0.34139 0.27305
#
# Static dielectric constant tensor:
#      x y z
#    x 1.641020 0.000000 0.000000 
#    y 0.000000 1.709510 0.000000 
#    z 0.000000 0.000000 1.648190 
# 
# From -- ./inp_files/51663.got.cif
#   From: 2010.05.17/outbox.cif.g08.bks.cpg/sg66_26_cif.got.tgz:51663.got - 2010.06.03 17:51:23.
