data_PCOD9498433
_publ_section_title
;
Structure prediction by ZEFSAII (Michael W. Deem and Ramdas Pophale) SiO2 
 PCOD9498433
Probable space group: C C C M
;
_chemical_formula_sum "Si O2"
_cell_formula_units_Z 96
_cell_length_a 20.229416
_cell_length_b 11.586511
_cell_length_c 17.579668
_cell_angle_alpha 90.000000
_cell_angle_beta 90.000000
_cell_angle_gamma 90.000000
_cell_volume 4120.469394
_symmetry_space_group_name_H-M "C C C M"
_symmetry_group_IT_number 66
_symmetry_cell_setting 'orthorhombic'
loop_
_space_group_symop_operation_xyz
x,y,z
-x,-y,z
x,-y,1/2-z
-x,y,1/2-z
-x,-y,-z
x,y,-z
-x,y,1/2+z
x,-y,1/2+z
1/2+x,1/2+y,z
1/2-x,1/2-y,z
1/2+x,1/2-y,1/2-z
1/2-x,1/2+y,1/2-z
1/2-x,1/2-y,-z
1/2+x,1/2+y,-z
1/2-x,1/2+y,1/2+z
1/2+x,1/2-y,1/2+z
loop_
_atom_site_type_symbol
_atom_site_label
_atom_site_fract_x
_atom_site_fract_y
_atom_site_fract_z
Si Si1 0.647823 0.227738 0.411959
Si Si2 0.149665 0.907942 0.314524
Si Si3 0.894400 0.750297 0.681550
Si Si4 0.492462 0.632743 0.588119
Si Si5 0.696657 0.401281 0.910611
Si Si6 0.668671 0.984777 0.335980
O O1 0.667891 0.218665 0.500000
O O2 0.691769 0.312067 0.359034
O O3 0.578701 0.302210 0.409815
O O4 0.642652 0.102703 0.373750
O O5 0.105361 0.821598 0.260950
O O6 0.144044 0.000660 0.384168
O O7 0.169992 0.000000 0.250000
O O8 0.957583 0.790403 0.635530
O O9 0.886833 0.613145 0.677444
O O10 0.828337 0.793000 0.637576
O O11 0.500000 0.500000 0.617594
O O12 0.512799 0.629196 0.500000
O O13 0.769107 0.443753 0.886477
O O14 0.693417 0.380694 0.000000
O O15 0.693642 0.000000 0.250000
#
# Coordination Sequence:
#
# PCOD9498433 Si02
#       6
#    16  16  16  16  16  16
#     4  11  24  43  68 101 138 178 231 287 346 412
#     4  10  21  41  64  95 131 174 223 281 343 403
#     4  11  23  42  69  98 134 184 229 282 346 414
#     4  10  22  42  70 102 137 175 224 293 351 410
#     4  11  24  41  68 102 135 178 233 290 347 416
#     4  12  25  45  66  95 141 188 231 282 345 419
#
# _framework density 23.298314999999999
#
# number of rings (size 3 to 8) (size 9 to 14) (size 15 to 20)
#    0.000    1.167    1.667    5.500    0.000    6.667 
#    0.000    7.500    0.000    0.000    0.000    0.000 
#    0.000    0.000    0.000    0.000    0.000    0.000 
#
# Total GULP energy -267349.525264 kJ/mol
# GULP energy per Si atom -5569.781776 kJ/mol
# Density = 2.324529 g / cm^3
# Si number density = 23.298315 Si / 1000 Ang^3
#
#
#
# Elastic Constant Matrix: (Units=GPa)
#
#
# Indices 1 2 3 4 5 6 
#
# 1 57.4804 11.7973 -20.6266 0.0000 0.0000 0.0000
# 2 11.7973 160.1782 16.0548 0.0000 0.0000 0.0000
# 3 -20.6266 16.0548 132.7906 0.0000 0.0000 0.0000
# 4 0.0000 0.0000 0.0000 36.1610 0.0000 0.0000
# 5 0.0000 0.0000 0.0000 0.0000 -30.2135 0.0000
# 6 0.0000 0.0000 0.0000 0.0000 0.0000 15.5429
#
#
#
# Elastic Compliance Matrix: (Units=1/GPa)
#
#
# Indices 1 2 3 4 5 6 
#
# 1 0.018873 -0.001705 0.003138 0.000000 0.000000 0.000000
# 2 -0.001705 0.006474 -0.001047 0.000000 0.000000 0.000000
# 3 0.003138 -0.001047 0.008145 0.000000 0.000000 0.000000
# 4 0.000000 0.000000 0.000000 0.027654 0.000000 0.000000
# 5 0.000000 0.000000 0.000000 0.000000 -0.033098 0.000000
# 6 0.000000 0.000000 0.000000 0.000000 0.000000 0.064338
#
#
# Mechanical properties :
#
#
# Convention : Reuss Voigt Hill
#
# Bulk Modulus (GPa) = 29.18628 40.54447 34.86537
# Shear Modulus (GPa) = 48.52706 27.17965 37.85336
#
# Velocity S-wave (km/s) = 4.56878 3.41925 4.03516
# Velocity P-wave (km/s) = 6.35501 5.74704 6.05865
#
# Compressibility (1/GPa) = 0.03426268
#
# Stress axis : x y z
#
# Youngs Moduli (GPa) = 52.98572 154.47424 122.77964
#
# Poissons Ratio (x) = 0.26330 -0.38524
# Poissons Ratio (y) = 0.09031 0.12860
# Poissons Ratio (z) = -0.16625 0.16180
#
# Static dielectric constant tensor:
#      x y z
#    x 2.041680 0.000000 0.000000 
#    y 0.000000 2.121800 0.000000 
#    z 0.000000 0.000000 1.966710 
# 
# From -- ./inp_files/43600.got.cif
#   From: 2010.05.17/outbox.cif.g08.bks.cpg/sg66_22_cif.got.tgz:43600.got - 2010.06.03 17:51:23.
