data_PCOD9498278
_publ_section_title
;
Structure prediction by ZEFSAII (Michael W. Deem and Ramdas Pophale) SiO2 
 PCOD9498278
Probable space group: C C C M
;
_chemical_formula_sum "Si O2"
_cell_formula_units_Z 64
_cell_length_a 18.257026
_cell_length_b 7.925862
_cell_length_c 16.826343
_cell_angle_alpha 90.000000
_cell_angle_beta 90.000000
_cell_angle_gamma 90.000000
_cell_volume 2434.816735
_symmetry_space_group_name_H-M "C C C M"
_symmetry_group_IT_number 66
_symmetry_cell_setting 'orthorhombic'
loop_
_space_group_symop_operation_xyz
x,y,z
-x,-y,z
x,-y,1/2-z
-x,y,1/2-z
-x,-y,-z
x,y,-z
-x,y,1/2+z
x,-y,1/2+z
1/2+x,1/2+y,z
1/2-x,1/2-y,z
1/2+x,1/2-y,1/2-z
1/2-x,1/2+y,1/2-z
1/2-x,1/2-y,-z
1/2+x,1/2+y,-z
1/2-x,1/2+y,1/2+z
1/2+x,1/2-y,1/2+z
loop_
_atom_site_type_symbol
_atom_site_label
_atom_site_fract_x
_atom_site_fract_y
_atom_site_fract_z
Si Si1 0.028024 0.308577 0.414084
Si Si2 0.099658 0.786979 0.321360
Si Si3 0.340821 0.363595 0.353320
Si Si4 0.292655 0.069069 0.093126
O O1 0.004368 0.236084 0.500000
O O2 0.114274 0.270392 0.405504
O O3 0.000000 0.500000 0.415997
O O4 0.986570 0.231240 0.337791
O O5 0.138763 0.813682 0.236777
O O6 0.135961 0.619485 0.357664
O O7 0.119392 0.956715 0.369130
O O8 0.257310 0.421826 0.368839
O O9 0.250000 0.250000 0.098265
O O10 0.304480 0.038795 0.000000
#
# Coordination Sequence:
#
# PCOD9498278 Si02
#       4
#    16  16  16  16
#     4  11  24  41  62  93 133 176 226 288 356 426
#     4  10  21  39  64  94 131 174 226 285 347 419
#     4  10  21  39  65  97 131 172 226 285 349 420
#     4   9  18  36  63  94 128 170 223 281 343 417
#
# _framework density 26.285345
#
# number of rings (size 3 to 8) (size 9 to 14) (size 15 to 20)
#    0.000    2.000    0.000    3.000    0.000    8.000 
#    0.000   18.750    0.000    4.500    0.000    5.250 
#    0.000   12.000    0.000    0.000    0.000    0.000 
#
# Total GULP energy -178796.186126 kJ/mol
# GULP energy per Si atom -5587.380816 kJ/mol
# Density = 2.622552 g / cm^3
# Si number density = 26.285345 Si / 1000 Ang^3
#
#
#
# Elastic Constant Matrix: (Units=GPa)
#
#
# Indices 1 2 3 4 5 6 
#
# 1 177.6475 39.7011 66.0110 0.0000 0.0000 0.0000
# 2 39.7011 145.7532 39.4356 0.0000 0.0000 0.0000
# 3 66.0110 39.4356 134.8256 0.0000 0.0000 0.0000
# 4 0.0000 0.0000 0.0000 34.7084 0.0000 0.0000
# 5 0.0000 0.0000 0.0000 0.0000 23.4893 0.0000
# 6 0.0000 0.0000 0.0000 0.0000 0.0000 47.9122
#
#
#
# Elastic Compliance Matrix: (Units=1/GPa)
#
#
# Indices 1 2 3 4 5 6 
#
# 1 0.007031 -0.001068 -0.003130 0.000000 0.000000 0.000000
# 2 -0.001068 0.007613 -0.001704 0.000000 0.000000 0.000000
# 3 -0.003130 -0.001704 0.009448 0.000000 0.000000 0.000000
# 4 0.000000 0.000000 0.000000 0.028812 0.000000 0.000000
# 5 0.000000 0.000000 0.000000 0.000000 0.042573 0.000000
# 6 0.000000 0.000000 0.000000 0.000000 0.000000 0.020871
#
#
# Mechanical properties :
#
#
# Convention : Reuss Voigt Hill
#
# Bulk Modulus (GPa) = 81.38173 83.16907 82.27540
# Shear Modulus (GPa) = 37.80814 42.09389 39.95101
#
# Velocity S-wave (km/s) = 3.79670 4.00612 3.90281
# Velocity P-wave (km/s) = 7.08858 7.28753 7.18875
#
# Compressibility (1/GPa) = 0.01228777
#
# Stress axis : x y z
#
# Youngs Moduli (GPa) = 142.22973 131.35691 105.84591
#
# Poissons Ratio (x) = 0.14033 0.33128
# Poissons Ratio (y) = 0.15194 0.18033
# Poissons Ratio (z) = 0.44516 0.22379
#
# Static dielectric constant tensor:
#      x y z
#    x 2.122510 0.000000 0.000000 
#    y 0.000000 2.126920 0.000000 
#    z 0.000000 0.000000 2.001090 
# 
# From -- ./inp_files/42361.got.cif
#   From: 2010.05.17/outbox.cif.g08.bks.cpg/sg66_22_cif.got.tgz:42361.got - 2010.06.03 17:51:23.
