data_PCOD9498296
_publ_section_title
;
Structure prediction by ZEFSAII (Michael W. Deem and Ramdas Pophale) SiO2 
 PCOD9498296
Probable space group: C C C M
;
_chemical_formula_sum "Si O2"
_cell_formula_units_Z 112
_cell_length_a 11.600323
_cell_length_b 16.934510
_cell_length_c 27.214835
_cell_angle_alpha 90.000000
_cell_angle_beta 90.000000
_cell_angle_gamma 90.000000
_cell_volume 5346.239648
_symmetry_space_group_name_H-M "C C C M"
_symmetry_group_IT_number 66
_symmetry_cell_setting 'orthorhombic'
loop_
_space_group_symop_operation_xyz
x,y,z
-x,-y,z
x,-y,1/2-z
-x,y,1/2-z
-x,-y,-z
x,y,-z
-x,y,1/2+z
x,-y,1/2+z
1/2+x,1/2+y,z
1/2-x,1/2-y,z
1/2+x,1/2-y,1/2-z
1/2-x,1/2+y,1/2-z
1/2-x,1/2-y,-z
1/2+x,1/2+y,-z
1/2-x,1/2+y,1/2+z
1/2+x,1/2-y,1/2+z
loop_
_atom_site_type_symbol
_atom_site_label
_atom_site_fract_x
_atom_site_fract_y
_atom_site_fract_z
Si Si1 0.034541 0.304958 0.146654
Si Si2 0.677163 0.173519 0.210627
Si Si3 0.457294 0.378547 0.860639
Si Si4 0.197997 0.042084 0.944180
Si Si5 0.959490 0.590201 0.055007
Si Si6 0.787693 0.935397 0.361315
Si Si7 0.235440 0.403891 0.192133
O O1 0.029477 0.214356 0.130874
O O2 0.997658 0.358198 0.100319
O O3 0.158434 0.340448 0.162409
O O4 0.953382 0.311664 0.194616
O O5 0.750000 0.250000 0.226939
O O6 0.732165 0.142602 0.160002
O O7 0.695061 0.107489 0.252285
O O8 0.392128 0.416446 0.907539
O O9 0.576594 0.423111 0.851101
O O10 0.369995 0.385098 0.814842
O O11 0.319700 0.087968 0.943803
O O12 0.222223 0.957754 0.918376
O O13 0.157868 0.035826 0.000000
O O14 0.000000 0.500000 0.061038
O O15 0.994597 0.616319 0.000000
O O16 0.728490 0.009643 0.332830
#
# Coordination Sequence:
#
# PCOD9498296 Si02
#       7
#    16  16  16  16  16  16  16
#     4  12  23  41  67  96 134 173 214 287 332 392
#     4  12  25  43  64  93 135 179 223 273 340 396
#     4  11  23  41  65  98 142 171 212 277 344 394
#     4  10  21  40  69  98 129 173 223 273 331 406
#     4  10  21  39  65  96 129 170 221 274 335 398
#     4  11  23  44  64  97 136 179 215 277 330 396
#     4  11  24  41  68  96 129 175 230 268 324 400
#
# _framework density 20.949304000000001
#
# number of rings (size 3 to 8) (size 9 to 14) (size 15 to 20)
#    0.000    1.000    4.286    4.714    0.000    2.286 
#    0.000    5.714    0.000    0.857    0.000    0.000 
#    0.000    0.000    0.000    0.000    0.000    0.000 
#
# Total GULP energy -312583.976467 kJ/mol
# GULP energy per Si atom -5581.856723 kJ/mol
# Density = 2.090162 g / cm^3
# Si number density = 20.949304 Si / 1000 Ang^3
#
#
#
# Elastic Constant Matrix: (Units=GPa)
#
#
# Indices 1 2 3 4 5 6 
#
# 1 62.1838 2.5355 7.0922 0.0000 0.0000 0.0000
# 2 2.5355 60.2780 20.9428 0.0000 0.0000 0.0000
# 3 7.0922 20.9428 109.0997 0.0000 0.0000 0.0000
# 4 0.0000 0.0000 0.0000 16.5779 0.0000 0.0000
# 5 0.0000 0.0000 0.0000 0.0000 24.8807 0.0000
# 6 0.0000 0.0000 0.0000 0.0000 0.0000 29.8169
#
#
#
# Elastic Compliance Matrix: (Units=1/GPa)
#
#
# Indices 1 2 3 4 5 6 
#
# 1 0.016208 -0.000338 -0.000989 0.000000 0.000000 0.000000
# 2 -0.000338 0.017782 -0.003392 0.000000 0.000000 0.000000
# 3 -0.000989 -0.003392 0.009881 0.000000 0.000000 0.000000
# 4 0.000000 0.000000 0.000000 0.060321 0.000000 0.000000
# 5 0.000000 0.000000 0.000000 0.000000 0.040192 0.000000
# 6 0.000000 0.000000 0.000000 0.000000 0.000000 0.033538
#
#
# Mechanical properties :
#
#
# Convention : Reuss Voigt Hill
#
# Bulk Modulus (GPa) = 29.04056 32.52248 30.78152
# Shear Modulus (GPa) = 25.14613 27.65450 26.40031
#
# Velocity S-wave (km/s) = 3.46834 3.63721 3.55378
# Velocity P-wave (km/s) = 5.47098 5.76170 5.61822
#
# Compressibility (1/GPa) = 0.03443460
#
# Stress axis : x y z
#
# Youngs Moduli (GPa) = 61.69830 56.23548 101.20192
#
# Poissons Ratio (x) = 0.01902 0.10006
# Poissons Ratio (y) = 0.02087 0.34323
# Poissons Ratio (z) = 0.06100 0.19072
#
# Static dielectric constant tensor:
#      x y z
#    x 1.803020 0.000000 0.000000 
#    y 0.000000 1.750260 0.000000 
#    z 0.000000 0.000000 1.763950 
# 
# From -- ./inp_files/69081.got.cif
#   From: 2010.05.17/outbox.cif.g08.bks.cpg/sg66_35_cif.got.tgz:69081.got - 2010.06.03 17:51:23.
