data_PCOD9498895
_publ_section_title
;
Structure prediction by ZEFSAII (Michael W. Deem and Ramdas Pophale) SiO2 
 PCOD9498895
Probable space group: C C C M
;
_chemical_formula_sum "Si O2"
_cell_formula_units_Z 96
_cell_length_a 11.633902
_cell_length_b 23.313074
_cell_length_c 18.505953
_cell_angle_alpha 90.000000
_cell_angle_beta 90.000000
_cell_angle_gamma 90.000000
_cell_volume 5019.221922
_symmetry_space_group_name_H-M "C C C M"
_symmetry_group_IT_number 66
_symmetry_cell_setting 'orthorhombic'
loop_
_space_group_symop_operation_xyz
x,y,z
-x,-y,z
x,-y,1/2-z
-x,y,1/2-z
-x,-y,-z
x,y,-z
-x,y,1/2+z
x,-y,1/2+z
1/2+x,1/2+y,z
1/2-x,1/2-y,z
1/2+x,1/2-y,1/2-z
1/2-x,1/2+y,1/2-z
1/2-x,1/2-y,-z
1/2+x,1/2+y,-z
1/2-x,1/2+y,1/2+z
1/2+x,1/2-y,1/2+z
loop_
_atom_site_type_symbol
_atom_site_label
_atom_site_fract_x
_atom_site_fract_y
_atom_site_fract_z
Si Si1 0.684528 0.928643 0.179933
Si Si2 0.416571 0.553169 0.914933
Si Si3 0.430303 0.627622 0.674829
Si Si4 0.165040 0.441937 0.348316
Si Si5 0.384912 0.733728 0.418051
Si Si6 0.020608 0.357529 0.084148
O O1 0.820245 0.914738 0.177863
O O2 0.651680 0.927398 0.263910
O O3 0.622489 0.880819 0.133656
O O4 0.641498 0.989552 0.147601
O O5 0.500000 0.500000 0.895024
O O6 0.489348 0.607168 0.890371
O O7 0.297272 0.558306 0.872999
O O8 0.393603 0.549473 0.000000
O O9 0.500000 0.625538 0.750000
O O10 0.396307 0.690700 0.648965
O O11 0.089910 0.395374 0.391744
O O12 0.407779 0.710561 0.500000
O O13 0.250000 0.750000 0.419274
O O14 0.469657 0.788605 0.408444
O O15 0.042250 0.369774 0.000000
#
# Coordination Sequence:
#
# PCOD9498895 Si02
#       6
#    16  16  16  16  16  16
#     4  11  23  39  65  92 131 169 214 265 328 394
#     4  11  23  38  62  93 129 170 213 263 322 391
#     4  12  23  40  65  97 126 168 221 274 319 391
#     4  11  23  41  62  95 134 170 208 265 333 399
#     4  10  22  43  67  91 126 171 220 274 330 391
#     4  11  24  42  65  93 129 170 218 272 327 392
#
# _framework density 19.126470999999999
#
# number of rings (size 3 to 8) (size 9 to 14) (size 15 to 20)
#    0.000    1.000    5.000    2.000    0.000    5.667 
#    0.000    0.833    0.000    3.000    0.000    0.000 
#    0.000    0.000    0.000    0.000    0.000    0.000 
#
# Total GULP energy -267561.113868 kJ/mol
# GULP energy per Si atom -5574.189872 kJ/mol
# Density = 1.908294 g / cm^3
# Si number density = 19.126471 Si / 1000 Ang^3
#
#
#
# Elastic Constant Matrix: (Units=GPa)
#
#
# Indices 1 2 3 4 5 6 
#
# 1 82.5738 24.2840 24.9107 0.0000 0.0000 0.0000
# 2 24.2840 68.2301 35.4524 0.0000 0.0000 0.0000
# 3 24.9107 35.4524 28.6078 0.0000 0.0000 0.0000
# 4 0.0000 0.0000 0.0000 33.4275 0.0000 0.0000
# 5 0.0000 0.0000 0.0000 0.0000 768.5963 0.0000
# 6 0.0000 0.0000 0.0000 0.0000 0.0000 30.6660
#
#
#
# Elastic Compliance Matrix: (Units=1/GPa)
#
#
# Indices 1 2 3 4 5 6 
#
# 1 0.016921 0.004588 -0.020420 0.000000 0.000000 0.000000
# 2 0.004588 0.042404 -0.056544 0.000000 0.000000 0.000000
# 3 -0.020420 -0.056544 0.122809 0.000000 0.000000 0.000000
# 4 0.000000 0.000000 0.000000 0.029916 0.000000 0.000000
# 5 0.000000 0.000000 0.000000 0.000000 0.001301 0.000000
# 6 0.000000 0.000000 0.000000 0.000000 0.000000 0.032609
#
#
# Mechanical properties :
#
#
# Convention : Reuss Voigt Hill
#
# Bulk Modulus (GPa) = 26.75100 38.74510 32.74805
# Shear Modulus (GPa) = 12.40164 172.85560 92.62862
#
# Velocity S-wave (km/s) = 2.54914 9.51689 6.96668
# Velocity P-wave (km/s) = 4.76244 11.87699 9.04831
#
# Compressibility (1/GPa) = 0.03738178
#
# Stress axis : x y z
#
# Youngs Moduli (GPa) = 59.09667 23.58284 8.14275
#
# Poissons Ratio (x) = -0.10819 0.16627
# Poissons Ratio (y) = -0.27111 0.46042
# Poissons Ratio (z) = 1.20674 1.33346
#
# Static dielectric constant tensor:
#      x y z
#    x 1.698530 0.000000 0.000000 
#    y 0.000000 1.721740 0.000000 
#    z 0.000000 0.000000 1.631420 
# 
# From -- ./inp_files/38821.got.cif
#   From: 2010.05.17/outbox.cif.g08.bks.cpg/sg66_20_cif.got.tgz:38821.got - 2010.06.03 17:51:23.
