data_PCOD9498170
_publ_section_title
;
Structure prediction by ZEFSAII (Michael W. Deem and Ramdas Pophale) SiO2 
 PCOD9498170
Probable space group: C C C M
;
_chemical_formula_sum "Si O2"
_cell_formula_units_Z 52
_cell_length_a 17.584942
_cell_length_b 4.848489
_cell_length_c 28.942077
_cell_angle_alpha 90.000000
_cell_angle_beta 90.000000
_cell_angle_gamma 90.000000
_cell_volume 2467.613000
_symmetry_space_group_name_H-M "C C C M"
_symmetry_group_IT_number 66
_symmetry_cell_setting 'orthorhombic'
loop_
_space_group_symop_operation_xyz
x,y,z
-x,-y,z
x,-y,1/2-z
-x,y,1/2-z
-x,-y,-z
x,y,-z
-x,y,1/2+z
x,-y,1/2+z
1/2+x,1/2+y,z
1/2-x,1/2-y,z
1/2+x,1/2-y,1/2-z
1/2-x,1/2+y,1/2-z
1/2-x,1/2-y,-z
1/2+x,1/2+y,-z
1/2-x,1/2+y,1/2+z
1/2+x,1/2-y,1/2+z
loop_
_atom_site_type_symbol
_atom_site_label
_atom_site_fract_x
_atom_site_fract_y
_atom_site_fract_z
Si Si1 0.944465 0.241908 0.552367
Si Si2 0.000000 0.000000 0.750000
Si Si3 0.161800 0.175539 0.863517
Si Si4 0.921922 0.640081 0.672396
O O1 0.917540 0.177297 0.500000
O O2 0.877124 0.273112 0.588618
O O3 0.000000 0.500000 0.549314
O O4 0.000000 0.000000 0.568880
O O5 0.049228 0.802605 0.782992
O O6 0.250000 0.250000 0.866160
O O7 0.129350 0.370054 0.822724
O O8 0.129372 0.866544 0.854928
O O9 0.000000 0.500000 0.651850
#
# Coordination Sequence:
#
# PCOD9498170 Si02
#       4
#    16   4  16  16
#     4  10  21  38  64  97 129 172 227 267 302 372
#     4  12  26  44  78  96 112 168 232 280 322 380
#     4  12  25  41  66 101 140 176 207 265 344 394
#     4  12  24  44  72  95 123 169 231 269 319 396
#
# _framework density 21.072996
#
# number of rings (size 3 to 8) (size 9 to 14) (size 15 to 20)
#    0.000    0.615    3.077    6.000    0.000    0.615 
#    0.000    3.077    0.000    9.231    0.000    0.000 
#    0.000    0.000    0.000    0.000    0.000    0.000 
#
# Total GULP energy -145046.028465 kJ/mol
# GULP energy per Si atom -5578.693403 kJ/mol
# Density = 2.102503 g / cm^3
# Si number density = 21.072996 Si / 1000 Ang^3
#
#
#
# Elastic Constant Matrix: (Units=GPa)
#
#
# Indices 1 2 3 4 5 6 
#
# 1 176.8828 57.8865 49.7953 0.0000 0.0000 0.0000
# 2 57.8865 144.9150 9.5653 0.0000 0.0000 0.0000
# 3 49.7953 9.5653 80.8057 0.0000 0.0000 0.0000
# 4 0.0000 0.0000 0.0000 29.8587 0.0000 0.0000
# 5 0.0000 0.0000 0.0000 0.0000 23.5593 0.0000
# 6 0.0000 0.0000 0.0000 0.0000 0.0000 32.3273
#
#
#
# Elastic Compliance Matrix: (Units=1/GPa)
#
#
# Indices 1 2 3 4 5 6 
#
# 1 0.007849 -0.002838 -0.004501 0.000000 0.000000 0.000000
# 2 -0.002838 0.007981 0.000804 0.000000 0.000000 0.000000
# 3 -0.004501 0.000804 0.015054 0.000000 0.000000 0.000000
# 4 0.000000 0.000000 0.000000 0.033491 0.000000 0.000000
# 5 0.000000 0.000000 0.000000 0.000000 0.042446 0.000000
# 6 0.000000 0.000000 0.000000 0.000000 0.000000 0.030934
#
#
# Mechanical properties :
#
#
# Convention : Reuss Voigt Hill
#
# Bulk Modulus (GPa) = 56.13460 70.78863 63.46161
# Shear Modulus (GPa) = 31.89509 36.17281 34.03395
#
# Velocity S-wave (km/s) = 3.89466 4.14762 4.02313
# Velocity P-wave (km/s) = 6.84985 7.52343 7.19453
#
# Compressibility (1/GPa) = 0.01781433
#
# Stress axis : x y z
#
# Youngs Moduli (GPa) = 127.39673 125.29277 66.42787
#
# Poissons Ratio (x) = 0.35563 0.29900
# Poissons Ratio (y) = 0.36160 -0.05343
# Poissons Ratio (z) = 0.57343 -0.10078
#
# Static dielectric constant tensor:
#      x y z
#    x 1.774220 0.000000 0.000000 
#    y 0.000000 1.740500 0.000000 
#    z 0.000000 0.000000 1.794600 
# 
# From -- ./inp_files/64849.got.cif
#   From: 2010.05.17/outbox.cif.g08.bks.cpg/sg66_33_cif.got.tgz:64849.got - 2010.06.03 17:51:23.
