data_PCOD9498456
_publ_section_title
;
Structure prediction by ZEFSAII (Michael W. Deem and Ramdas Pophale) SiO2 
 PCOD9498456
Probable space group: C C C M
;
_chemical_formula_sum "Si O2"
_cell_formula_units_Z 112
_cell_length_a 11.096558
_cell_length_b 14.936070
_cell_length_c 32.580582
_cell_angle_alpha 90.000000
_cell_angle_beta 90.000000
_cell_angle_gamma 90.000000
_cell_volume 5399.872006
_symmetry_space_group_name_H-M "C C C M"
_symmetry_group_IT_number 66
_symmetry_cell_setting 'orthorhombic'
loop_
_space_group_symop_operation_xyz
x,y,z
-x,-y,z
x,-y,1/2-z
-x,y,1/2-z
-x,-y,-z
x,y,-z
-x,y,1/2+z
x,-y,1/2+z
1/2+x,1/2+y,z
1/2-x,1/2-y,z
1/2+x,1/2-y,1/2-z
1/2-x,1/2+y,1/2-z
1/2-x,1/2-y,-z
1/2+x,1/2+y,-z
1/2-x,1/2+y,1/2+z
1/2+x,1/2-y,1/2+z
loop_
_atom_site_type_symbol
_atom_site_label
_atom_site_fract_x
_atom_site_fract_y
_atom_site_fract_z
Si Si1 0.772902 0.426681 0.840461
Si Si2 0.050947 0.228257 0.868829
Si Si3 0.179528 0.167834 0.580468
Si Si4 0.870537 0.912563 0.729033
Si Si5 0.135948 0.984511 0.546659
Si Si6 0.724856 0.109815 0.618540
Si Si7 0.413263 0.213879 0.286637
O O1 0.755323 0.363285 0.879398
O O2 0.642473 0.436943 0.818851
O O3 0.815314 0.523069 0.855583
O O4 0.847509 0.373042 0.806142
O O5 0.158908 0.157971 0.861496
O O6 0.118546 0.318161 0.884449
O O7 0.952074 0.194391 0.901764
O O8 0.986862 0.249269 0.825936
O O9 0.250000 0.250000 0.561899
O O10 0.182369 0.085378 0.549860
O O11 0.845866 0.804725 0.730037
O O12 0.000000 0.913056 0.750000
O O13 0.805708 0.000000 0.750000
O O14 0.129243 0.951543 0.500000
O O15 0.220311 0.924779 0.575428
O O16 0.000000 0.000000 0.563209
O O17 0.500000 0.184539 0.250000
#
# Coordination Sequence:
#
# PCOD9498456 Si02
#       7
#    16  16  16  16  16  16  16
#     4  11  22  41  64  90 118 171 221 266 328 390
#     4  11  22  44  63  96 129 171 220 268 323 394
#     4  11  20  39  70  94 127 173 216 261 315 397
#     4  10  22  34  56  87 115 155 210 270 322 363
#     4  10  21  41  68 101 134 166 215 270 322 390
#     4  10  25  40  67  96 130 168 213 267 327 398
#     4  11  24  42  62  88 133 167 219 280 327 381
#
# _framework density 20.741232
#
# number of rings (size 3 to 8) (size 9 to 14) (size 15 to 20)
#    0.000    1.429    4.286    0.429    6.000    2.000 
#    5.143    2.857    0.000    0.857    0.000    0.000 
#    0.000    0.000    0.000    0.000    0.000    0.000 
#
# Total GULP energy -311869.062971 kJ/mol
# GULP energy per Si atom -5569.090410 kJ/mol
# Density = 2.069402 g / cm^3
# Si number density = 20.741232 Si / 1000 Ang^3
#
#
#
# Elastic Constant Matrix: (Units=GPa)
#
#
# Indices 1 2 3 4 5 6 
#
# 1 38.2629 46.2024 18.2566 0.0000 0.0000 0.0000
# 2 46.2024 156.1052 26.1113 0.0000 0.0000 0.0000
# 3 18.2566 26.1113 59.5740 0.0000 0.0000 0.0000
# 4 0.0000 0.0000 0.0000 11.5558 0.0000 0.0000
# 5 0.0000 0.0000 0.0000 0.0000 14.0540 0.0000
# 6 0.0000 0.0000 0.0000 0.0000 0.0000 25.4680
#
#
#
# Elastic Compliance Matrix: (Units=1/GPa)
#
#
# Indices 1 2 3 4 5 6 
#
# 1 0.044286 -0.011695 -0.008446 0.000000 0.000000 0.000000
# 2 -0.011695 0.010001 -0.000800 0.000000 0.000000 0.000000
# 3 -0.008446 -0.000800 0.019725 0.000000 0.000000 0.000000
# 4 0.000000 0.000000 0.000000 0.086536 0.000000 0.000000
# 5 0.000000 0.000000 0.000000 0.000000 0.071154 0.000000
# 6 0.000000 0.000000 0.000000 0.000000 0.000000 0.039265
#
#
# Mechanical properties :
#
#
# Convention : Reuss Voigt Hill
#
# Bulk Modulus (GPa) = 31.12211 48.34253 39.73232
# Shear Modulus (GPa) = 15.45320 21.10701 18.28010
#
# Velocity S-wave (km/s) = 2.73252 3.19350 2.97196
# Velocity P-wave (km/s) = 4.99931 6.07914 5.56548
#
# Compressibility (1/GPa) = 0.03213150
#
# Stress axis : x y z
#
# Youngs Moduli (GPa) = 22.58049 99.99069 50.69830
#
# Poissons Ratio (x) = 1.16935 0.42819
# Poissons Ratio (y) = 0.26407 0.04054
# Poissons Ratio (z) = 0.19071 0.07995
#
# Static dielectric constant tensor:
#      x y z
#    x 1.793140 0.000000 0.000000 
#    y 0.000000 1.821980 0.000000 
#    z 0.000000 0.000000 1.729050 
# 
# From -- ./inp_files/69085.got.cif
#   From: 2010.05.17/outbox.cif.g08.bks.cpg/sg66_35_cif.got.tgz:69085.got - 2010.06.03 17:51:23.
