data_PCOD9498782
_publ_section_title
;
Structure prediction by ZEFSAII (Michael W. Deem and Ramdas Pophale) SiO2 
 PCOD9498782
Probable space group: C C C M
;
_chemical_formula_sum "Si O2"
_cell_formula_units_Z 80
_cell_length_a 7.656155
_cell_length_b 18.082623
_cell_length_c 24.714511
_cell_angle_alpha 90.000000
_cell_angle_beta 90.000000
_cell_angle_gamma 90.000000
_cell_volume 3421.560055
_symmetry_space_group_name_H-M "C C C M"
_symmetry_group_IT_number 66
_symmetry_cell_setting 'orthorhombic'
loop_
_space_group_symop_operation_xyz
x,y,z
-x,-y,z
x,-y,1/2-z
-x,y,1/2-z
-x,-y,-z
x,y,-z
-x,y,1/2+z
x,-y,1/2+z
1/2+x,1/2+y,z
1/2-x,1/2-y,z
1/2+x,1/2-y,1/2-z
1/2-x,1/2+y,1/2-z
1/2-x,1/2-y,-z
1/2+x,1/2+y,-z
1/2-x,1/2+y,1/2+z
1/2+x,1/2-y,1/2+z
loop_
_atom_site_type_symbol
_atom_site_label
_atom_site_fract_x
_atom_site_fract_y
_atom_site_fract_z
Si Si1 0.262346 0.640214 0.215546
Si Si2 0.627640 0.429411 0.061269
Si Si3 0.435847 0.282785 0.382191
Si Si4 0.868197 0.657615 0.830881
Si Si5 0.198124 0.504229 0.840022
O O1 0.389697 0.687038 0.178032
O O2 0.246290 0.667991 0.276460
O O3 0.303657 0.553542 0.203532
O O4 0.066091 0.646312 0.191579
O O5 0.500000 0.500000 0.064066
O O6 0.534188 0.354279 0.080795
O O7 0.777002 0.449287 0.104902
O O8 0.690825 0.421417 0.000000
O O9 0.250000 0.250000 0.402057
O O10 0.584887 0.221395 0.374049
O O11 0.776895 0.582447 0.852313
O O12 0.000000 0.500000 0.819626
#
# Coordination Sequence:
#
# PCOD9498782 Si02
#       5
#    16  16  16  16  16
#     4   8  15  28  49  76 111 149 177 209 266 336
#     4  10  22  41  59  76 107 149 188 236 296 342
#     4   9  18  34  55  81 111 146 189 229 275 340
#     4   9  15  28  51  78 107 139 179 227 269 317
#     4   9  17  32  56  83 108 140 187 232 272 331
#
# _framework density 23.381146999999999
#
# number of rings (size 3 to 8) (size 9 to 14) (size 15 to 20)
#    0.000    3.000    0.000    1.800    0.000    3.200 
#    0.000   16.000    0.000   10.800    0.000    0.000 
#    0.000    0.000    0.000    0.000    0.000    0.000 
#
# Total GULP energy -222802.428270 kJ/mol
# GULP energy per Si atom -5570.060707 kJ/mol
# Density = 2.332793 g / cm^3
# Si number density = 23.381147 Si / 1000 Ang^3
#
#
#
# Elastic Constant Matrix: (Units=GPa)
#
#
# Indices 1 2 3 4 5 6 
#
# 1 41.4200 15.7271 -5.1214 0.0000 0.0000 0.0000
# 2 15.7271 206.6235 55.9195 0.0000 0.0000 0.0000
# 3 -5.1214 55.9195 83.3957 0.0000 0.0000 0.0000
# 4 0.0000 0.0000 0.0000 23.8982 0.0000 0.0000
# 5 0.0000 0.0000 0.0000 0.0000 3.9975 0.0000
# 6 0.0000 0.0000 0.0000 0.0000 0.0000 24.4036
#
#
#
# Elastic Compliance Matrix: (Units=1/GPa)
#
#
# Indices 1 2 3 4 5 6 
#
# 1 0.025684 -0.002910 0.003528 0.000000 0.000000 0.000000
# 2 -0.002910 0.006242 -0.004364 0.000000 0.000000 0.000000
# 3 0.003528 -0.004364 0.015134 0.000000 0.000000 0.000000
# 4 0.000000 0.000000 0.000000 0.041844 0.000000 0.000000
# 5 0.000000 0.000000 0.000000 0.000000 0.250153 0.000000
# 6 0.000000 0.000000 0.000000 0.000000 0.000000 0.040978
#
#
# Mechanical properties :
#
#
# Convention : Reuss Voigt Hill
#
# Bulk Modulus (GPa) = 25.27237 51.60998 38.44118
# Shear Modulus (GPa) = 12.47764 28.12080 20.29922
#
# Velocity S-wave (km/s) = 2.31262 3.47178 2.94970
# Velocity P-wave (km/s) = 4.23831 6.17999 5.29884
#
# Compressibility (1/GPa) = 0.03956890
#
# Stress axis : x y z
#
# Youngs Moduli (GPa) = 38.93470 160.19574 66.07562
#
# Poissons Ratio (x) = 0.46615 -0.23314
# Poissons Ratio (y) = 0.11329 0.28838
# Poissons Ratio (z) = -0.13738 0.69916
#
# Static dielectric constant tensor:
#      x y z
#    x 1.904800 0.000000 0.000000 
#    y 0.000000 2.138980 0.000000 
#    z 0.000000 0.000000 1.833750 
# 
# From -- ./inp_files/62418.got.cif
#   From: 2010.05.17/outbox.cif.g08.bks.cpg/sg66_32_cif.got.tgz:62418.got - 2010.06.03 17:51:23.
