data_PCOD9498800
_publ_section_title
;
Structure prediction by ZEFSAII (Michael W. Deem and Ramdas Pophale) SiO2 
 PCOD9498800
Probable space group: C C C M
;
_chemical_formula_sum "Si O2"
_cell_formula_units_Z 68
_cell_length_a 8.849137
_cell_length_b 28.095433
_cell_length_c 15.467237
_cell_angle_alpha 90.000000
_cell_angle_beta 90.000000
_cell_angle_gamma 90.000000
_cell_volume 3845.469655
_symmetry_space_group_name_H-M "C C C M"
_symmetry_group_IT_number 66
_symmetry_cell_setting 'orthorhombic'
loop_
_space_group_symop_operation_xyz
x,y,z
-x,-y,z
x,-y,1/2-z
-x,y,1/2-z
-x,-y,-z
x,y,-z
-x,y,1/2+z
x,-y,1/2+z
1/2+x,1/2+y,z
1/2-x,1/2-y,z
1/2+x,1/2-y,1/2-z
1/2-x,1/2+y,1/2-z
1/2-x,1/2-y,-z
1/2+x,1/2+y,-z
1/2-x,1/2+y,1/2+z
1/2+x,1/2-y,1/2+z
loop_
_atom_site_type_symbol
_atom_site_label
_atom_site_fract_x
_atom_site_fract_y
_atom_site_fract_z
Si Si1 0.428098 0.663298 0.000000
Si Si2 0.116937 0.151822 0.824689
Si Si3 0.750000 0.250000 0.648131
Si Si4 0.082473 0.407480 0.834409
Si Si5 0.103342 0.374685 0.500000
Si Si6 0.006549 0.732417 0.500000
Si Si7 0.000000 0.500000 0.750000
O O1 0.526988 0.655573 0.914376
O O2 0.285071 0.627980 0.000000
O O3 0.402151 0.720679 0.000000
O O4 0.189643 0.203682 0.802264
O O5 0.254838 0.116136 0.840464
O O6 0.000000 0.137803 0.750000
O O7 0.885136 0.265369 0.583987
O O8 0.000000 0.385676 0.750000
O O9 0.092008 0.463468 0.810372
O O10 0.976266 0.397868 0.916478
O O11 0.066955 0.318695 0.500000
#
# Coordination Sequence:
#
# PCOD9498800 Si02
#       7
#     8  16   8  16   8   8   4
#     4  10  23  36  54  96 131 157 199 243 296 357
#     4  11  21  38  60  87 128 163 200 251 299 358
#     4   9  18  34  52  87 124 162 200 233 288 355
#     4  10  22  41  65  87 113 155 207 253 304 360
#     4  12  19  37  67  86 118 168 203 239 303 370
#     4   9  17  34  55  83 124 162 197 239 283 348
#     4   8  24  46  62  92 114 144 218 262 304 358
#
# _framework density 17.683145
#
# number of rings (size 3 to 8) (size 9 to 14) (size 15 to 20)
#    0.706    1.176    2.353    3.176    0.000    1.412 
#    8.471    0.588    0.000    1.412    0.000    0.000 
#    0.000    0.000    0.000    0.000    0.000    0.000 
#
# Total GULP energy -189390.409372 kJ/mol
# GULP energy per Si atom -5570.306158 kJ/mol
# Density = 1.764290 g / cm^3
# Si number density = 17.683145 Si / 1000 Ang^3
#
#
#
# Elastic Constant Matrix: (Units=GPa)
#
#
# Indices 1 2 3 4 5 6 
#
# 1 105.6208 54.0949 41.5764 0.0000 0.0000 0.0000
# 2 54.0949 103.2734 29.2140 0.0000 0.0000 0.0000
# 3 41.5764 29.2140 105.3562 0.0000 0.0000 0.0000
# 4 0.0000 0.0000 0.0000 57.2624 0.0000 0.0000
# 5 0.0000 0.0000 0.0000 0.0000 22.1804 0.0000
# 6 0.0000 0.0000 0.0000 0.0000 0.0000 18.5738
#
#
#
# Elastic Compliance Matrix: (Units=1/GPa)
#
#
# Indices 1 2 3 4 5 6 
#
# 1 0.014250 -0.006373 -0.003856 0.000000 0.000000 0.000000
# 2 -0.006373 0.013358 -0.001189 0.000000 0.000000 0.000000
# 3 -0.003856 -0.001189 0.011343 0.000000 0.000000 0.000000
# 4 0.000000 0.000000 0.000000 0.017463 0.000000 0.000000
# 5 0.000000 0.000000 0.000000 0.000000 0.045085 0.000000
# 6 0.000000 0.000000 0.000000 0.000000 0.000000 0.053839
#
#
# Mechanical properties :
#
#
# Convention : Reuss Voigt Hill
#
# Bulk Modulus (GPa) = 62.05791 62.66900 62.36345
# Shear Modulus (GPa) = 27.24111 32.22767 29.73439
#
# Velocity S-wave (km/s) = 3.92919 4.27372 4.10507
# Velocity P-wave (km/s) = 7.46695 7.73755 7.60346
#
# Compressibility (1/GPa) = 0.01611398
#
# Stress axis : x y z
#
# Youngs Moduli (GPa) = 70.17582 74.86327 88.16002
#
# Poissons Ratio (x) = 0.47713 0.33996
# Poissons Ratio (y) = 0.44725 0.10481
# Poissons Ratio (z) = 0.27061 0.08900
#
# Static dielectric constant tensor:
#      x y z
#    x 1.614230 0.000000 0.000000 
#    y 0.000000 1.610190 0.000000 
#    z 0.000000 0.000000 1.613910 
# 
# From -- ./inp_files/37123.got.cif
#   From: 2010.05.17/outbox.cif.g08.bks.cpg/sg66_19_cif.got.tgz:37123.got - 2010.06.03 17:51:23.
