data_PCOD9498114
_publ_section_title
;
Structure prediction by ZEFSAII (Michael W. Deem and Ramdas Pophale) SiO2 
 PCOD9498114
Probable space group: C C C M
;
_chemical_formula_sum "Si O2"
_cell_formula_units_Z 80
_cell_length_a 26.091340
_cell_length_b 6.276611
_cell_length_c 24.867661
_cell_angle_alpha 90.000000
_cell_angle_beta 90.000000
_cell_angle_gamma 90.000000
_cell_volume 4072.457270
_symmetry_space_group_name_H-M "C C C M"
_symmetry_group_IT_number 66
_symmetry_cell_setting 'orthorhombic'
loop_
_space_group_symop_operation_xyz
x,y,z
-x,-y,z
x,-y,1/2-z
-x,y,1/2-z
-x,-y,-z
x,y,-z
-x,y,1/2+z
x,-y,1/2+z
1/2+x,1/2+y,z
1/2-x,1/2-y,z
1/2+x,1/2-y,1/2-z
1/2-x,1/2+y,1/2-z
1/2-x,1/2-y,-z
1/2+x,1/2+y,-z
1/2-x,1/2+y,1/2+z
1/2+x,1/2-y,1/2+z
loop_
_atom_site_type_symbol
_atom_site_label
_atom_site_fract_x
_atom_site_fract_y
_atom_site_fract_z
Si Si1 0.158915 0.000000 0.250000
Si Si2 0.378874 0.634117 0.861956
Si Si3 0.055543 0.601523 0.938648
Si Si4 0.250000 0.750000 0.299353
Si Si5 0.144782 0.752881 0.559109
Si Si6 0.285643 0.934254 0.111154
O O1 0.123394 0.934801 0.199926
O O2 0.198924 0.810461 0.266286
O O3 0.428215 0.729894 0.892870
O O4 0.360886 0.430454 0.896004
O O5 0.336135 0.816083 0.867904
O O6 0.097018 0.410209 0.938109
O O7 0.000000 0.500000 0.929718
O O8 0.056930 0.692767 0.000000
O O9 0.240802 0.549300 0.338469
O O10 0.146260 0.851186 0.500000
O O11 0.195053 0.612599 0.570305
O O12 0.250000 0.750000 0.087683
#
# Coordination Sequence:
#
# PCOD9498114 Si02
#       6
#     8  16  16   8  16  16
#     4  12  22  36  62  85 120 164 207 254 296 358
#     4  11  22  37  58  91 120 158 204 255 307 363
#     4   9  20  40  66  93 118 152 200 256 319 383
#     4  12  22  40  57  92 115 162 218 252 288 356
#     4  10  21  38  61  89 123 156 199 255 310 369
#     4  11  20  38  56  85 124 158 207 248 293 358
#
# _framework density 19.644159999999999
#
# number of rings (size 3 to 8) (size 9 to 14) (size 15 to 20)
#    0.000    1.400    4.000    1.800    0.000    2.000 
#    0.000    6.500    0.000    3.600    0.000    0.000 
#    0.000    0.000    0.000    0.000    0.000    0.000 
#
# Total GULP energy -223339.896312 kJ/mol
# GULP energy per Si atom -5583.497408 kJ/mol
# Density = 1.959945 g / cm^3
# Si number density = 19.644160 Si / 1000 Ang^3
#
#
#
# Elastic Constant Matrix: (Units=GPa)
#
#
# Indices 1 2 3 4 5 6 
#
# 1 87.0463 31.7151 59.7378 0.0000 0.0000 0.0000
# 2 31.7151 70.3457 43.5774 0.0000 0.0000 0.0000
# 3 59.7378 43.5774 151.7336 0.0000 0.0000 0.0000
# 4 0.0000 0.0000 0.0000 17.3044 0.0000 0.0000
# 5 0.0000 0.0000 0.0000 0.0000 23.6537 0.0000
# 6 0.0000 0.0000 0.0000 0.0000 0.0000 23.7889
#
#
#
# Elastic Compliance Matrix: (Units=1/GPa)
#
#
# Indices 1 2 3 4 5 6 
#
# 1 0.016705 -0.004205 -0.005369 0.000000 0.000000 0.000000
# 2 -0.004205 0.018351 -0.003615 0.000000 0.000000 0.000000
# 3 -0.005369 -0.003615 0.009742 0.000000 0.000000 0.000000
# 4 0.000000 0.000000 0.000000 0.057789 0.000000 0.000000
# 5 0.000000 0.000000 0.000000 0.000000 0.042277 0.000000
# 6 0.000000 0.000000 0.000000 0.000000 0.000000 0.042036
#
#
# Mechanical properties :
#
#
# Convention : Reuss Voigt Hill
#
# Bulk Modulus (GPa) = 54.28871 64.35401 59.32136
# Shear Modulus (GPa) = 22.78758 24.55576 23.67167
#
# Velocity S-wave (km/s) = 3.40960 3.53941 3.47511
# Velocity P-wave (km/s) = 6.57241 7.03805 6.80921
#
# Compressibility (1/GPa) = 0.01842004
#
# Stress axis : x y z
#
# Youngs Moduli (GPa) = 59.86238 54.49402 102.64439
#
# Poissons Ratio (x) = 0.22917 0.55110
# Poissons Ratio (y) = 0.25175 0.37101
# Poissons Ratio (z) = 0.32140 0.19697
#
# Static dielectric constant tensor:
#      x y z
#    x 1.699290 0.000000 0.000000 
#    y 0.000000 1.695510 0.000000 
#    z 0.000000 0.000000 1.698800 
# 
# From -- ./inp_files/60373.got.cif
#   From: 2010.05.17/outbox.cif.g08.bks.cpg/sg66_31_cif.got.tgz:60373.got - 2010.06.03 17:51:23.
