data_PCOD9498980
_publ_section_title
;
Structure prediction by ZEFSAII (Michael W. Deem and Ramdas Pophale) SiO2 
 PCOD9498980
Probable space group: C C C M
;
_chemical_formula_sum "Si O2"
_cell_formula_units_Z 64
_cell_length_a 7.709315
_cell_length_b 15.248789
_cell_length_c 24.706656
_cell_angle_alpha 90.000000
_cell_angle_beta 90.000000
_cell_angle_gamma 90.000000
_cell_volume 2904.458093
_symmetry_space_group_name_H-M "C C C M"
_symmetry_group_IT_number 66
_symmetry_cell_setting 'orthorhombic'
loop_
_space_group_symop_operation_xyz
x,y,z
-x,-y,z
x,-y,1/2-z
-x,y,1/2-z
-x,-y,-z
x,y,-z
-x,y,1/2+z
x,-y,1/2+z
1/2+x,1/2+y,z
1/2-x,1/2-y,z
1/2+x,1/2-y,1/2-z
1/2-x,1/2+y,1/2-z
1/2-x,1/2-y,-z
1/2+x,1/2+y,-z
1/2-x,1/2+y,1/2+z
1/2+x,1/2-y,1/2+z
loop_
_atom_site_type_symbol
_atom_site_label
_atom_site_fract_x
_atom_site_fract_y
_atom_site_fract_z
Si Si1 0.685288 0.349780 0.898106
Si Si2 0.216303 0.154549 0.114328
Si Si3 0.791751 0.491319 0.811995
Si Si4 0.208721 0.646311 0.500000
Si Si5 0.698598 0.037401 0.000000
O O1 0.750000 0.250000 0.895690
O O2 0.479214 0.345561 0.907736
O O3 0.730641 0.404220 0.843638
O O4 0.765186 0.404322 0.947769
O O5 0.250000 0.250000 0.139396
O O6 0.227344 0.074849 0.154778
O O7 0.347691 0.142054 0.063650
O O8 0.733341 0.500000 0.750000
O O9 0.000000 0.500000 0.812884
O O10 0.250000 0.750000 0.500000
O O11 0.309241 0.552477 0.500000
O O12 0.500000 0.000000 0.000000
#
# Coordination Sequence:
#
# PCOD9498980 Si02
#       5
#    16  16  16   8   8
#     4  12  26  42  68 101 137 180 226 274 336 407
#     4  11  24  43  69  97 137 175 221 280 335 401
#     4  11  25  46  70  97 132 174 224 281 340 402
#     4  10  23  38  67  98 134 173 214 267 332 396
#     4  12  26  42  69 101 143 182 222 277 336 409
#
# _framework density 22.035091000000001
#
# number of rings (size 3 to 8) (size 9 to 14) (size 15 to 20)
#    0.000    0.750    2.500    4.125    7.000    4.000 
#    0.000    0.000    0.000    0.000    0.000    0.000 
#    0.000    0.000    0.000    0.000    0.000    0.000 
#
# Total GULP energy -178528.762172 kJ/mol
# GULP energy per Si atom -5579.023818 kJ/mol
# Density = 2.198494 g / cm^3
# Si number density = 22.035091 Si / 1000 Ang^3
#
#
#
# Elastic Constant Matrix: (Units=GPa)
#
#
# Indices 1 2 3 4 5 6 
#
# 1 114.9880 37.8962 17.6667 0.0000 0.0000 0.0000
# 2 37.8962 249.0687 100.0251 0.0000 0.0000 0.0000
# 3 17.6667 100.0251 163.2744 0.0000 0.0000 0.0000
# 4 0.0000 0.0000 0.0000 11.5683 0.0000 0.0000
# 5 0.0000 0.0000 0.0000 0.0000 3.3777 0.0000
# 6 0.0000 0.0000 0.0000 0.0000 0.0000 37.0984
#
#
#
# Elastic Compliance Matrix: (Units=1/GPa)
#
#
# Indices 1 2 3 4 5 6 
#
# 1 0.009160 -0.001321 -0.000182 0.000000 0.000000 0.000000
# 2 -0.001321 0.005515 -0.003236 0.000000 0.000000 0.000000
# 3 -0.000182 -0.003236 0.008127 0.000000 0.000000 0.000000
# 4 0.000000 0.000000 0.000000 0.086443 0.000000 0.000000
# 5 0.000000 0.000000 0.000000 0.000000 0.296063 0.000000
# 6 0.000000 0.000000 0.000000 0.000000 0.000000 0.026955
#
#
# Mechanical properties :
#
#
# Convention : Reuss Voigt Hill
#
# Bulk Modulus (GPa) = 75.04858 93.16745 84.10802
# Shear Modulus (GPa) = 11.20618 35.19176 23.19897
#
# Velocity S-wave (km/s) = 2.25758 4.00068 3.24824
# Velocity P-wave (km/s) = 6.39751 7.98209 7.23332
#
# Compressibility (1/GPa) = 0.01332470
#
# Stress axis : x y z
#
# Youngs Moduli (GPa) = 109.17337 181.30942 123.04986
#
# Poissons Ratio (x) = 0.23942 0.02241
# Poissons Ratio (y) = 0.14417 0.39819
# Poissons Ratio (z) = 0.01988 0.58671
#
# Static dielectric constant tensor:
#      x y z
#    x 2.843590 0.000000 0.000000 
#    y 0.000000 2.093180 0.000000 
#    z 0.000000 0.000000 1.789530 
# 
# From -- ./inp_files/55061.got.cif
#   From: 2010.05.17/outbox.cif.g08.bks.cpg/sg66_28_cif.got.tgz:55061.got - 2010.06.03 17:51:23.
