data_PCOD9498005
_publ_section_title
;
Structure prediction by ZEFSAII (Michael W. Deem and Ramdas Pophale) SiO2 
 PCOD9498005
Probable space group: C C C M
;
_chemical_formula_sum "Si O2"
_cell_formula_units_Z 96
_cell_length_a 26.688086
_cell_length_b 9.185527
_cell_length_c 20.326372
_cell_angle_alpha 90.000000
_cell_angle_beta 90.000000
_cell_angle_gamma 90.000000
_cell_volume 4982.890872
_symmetry_space_group_name_H-M "C C C M"
_symmetry_group_IT_number 66
_symmetry_cell_setting 'orthorhombic'
loop_
_space_group_symop_operation_xyz
x,y,z
-x,-y,z
x,-y,1/2-z
-x,y,1/2-z
-x,-y,-z
x,y,-z
-x,y,1/2+z
x,-y,1/2+z
1/2+x,1/2+y,z
1/2-x,1/2-y,z
1/2+x,1/2-y,1/2-z
1/2-x,1/2+y,1/2-z
1/2-x,1/2-y,-z
1/2+x,1/2+y,-z
1/2-x,1/2+y,1/2+z
1/2+x,1/2-y,1/2+z
loop_
_atom_site_type_symbol
_atom_site_label
_atom_site_fract_x
_atom_site_fract_y
_atom_site_fract_z
Si Si1 0.694171 0.811661 0.575360
Si Si2 0.619255 0.687041 0.316719
Si Si3 0.020102 0.164338 0.072361
Si Si4 0.641960 0.900431 0.075981
Si Si5 0.547035 0.095260 0.123111
Si Si6 0.111350 0.151979 0.163416
O O1 0.674995 0.781081 0.500000
O O2 0.750000 0.750000 0.578408
O O3 0.662193 0.744807 0.634720
O O4 0.687216 0.984917 0.584459
O O5 0.573179 0.798325 0.325098
O O6 0.626188 0.682747 0.238555
O O7 0.611255 0.522484 0.341525
O O8 0.056620 0.191983 0.133950
O O9 0.977183 0.286880 0.073540
O O10 0.045183 0.172698 0.000000
O O11 0.000000 0.000000 0.078463
O O12 0.645879 0.755579 0.119031
O O13 0.591192 0.992455 0.094486
O O14 0.639355 0.861993 0.000000
O O15 0.500000 0.000000 0.146380
#
# Coordination Sequence:
#
# PCOD9498005 Si02
#       6
#    16  16  16  16  16  16
#     4   9  20  42  69  93 118 151 192 245 310 373
#     4  10  24  41  57  84 123 160 200 250 310 364
#     4  11  22  36  55  81 116 165 212 252 297 348
#     4  10  21  37  61  91 122 154 199 255 298 353
#     4  11  21  36  54  82 118 160 205 252 299 356
#     4  11  22  40  56  83 125 162 202 249 301 355
#
# _framework density 19.265924999999999
#
# number of rings (size 3 to 8) (size 9 to 14) (size 15 to 20)
#    0.000    1.667    3.333    1.000    0.000    6.000 
#    3.000    4.167    0.000    3.000    0.000    0.000 
#    0.000    0.000    0.000    0.000    0.000    0.000 
#
# Total GULP energy -267252.902475 kJ/mol
# GULP energy per Si atom -5567.768802 kJ/mol
# Density = 1.922207 g / cm^3
# Si number density = 19.265925 Si / 1000 Ang^3
#
#
#
# Elastic Constant Matrix: (Units=GPa)
#
#
# Indices 1 2 3 4 5 6 
#
# 1 57.4846 31.7764 26.6028 0.0000 0.0000 0.0000
# 2 31.7764 136.6036 56.4411 0.0000 0.0000 0.0000
# 3 26.6028 56.4411 95.5482 0.0000 0.0000 0.0000
# 4 0.0000 0.0000 0.0000 -1.7443 0.0000 0.0000
# 5 0.0000 0.0000 0.0000 0.0000 15.5119 0.0000
# 6 0.0000 0.0000 0.0000 0.0000 0.0000 28.5951
#
#
#
# Elastic Compliance Matrix: (Units=1/GPa)
#
#
# Indices 1 2 3 4 5 6 
#
# 1 0.021017 -0.003269 -0.003921 0.000000 0.000000 0.000000
# 2 -0.003269 0.010192 -0.005111 0.000000 0.000000 0.000000
# 3 -0.003921 -0.005111 0.014576 0.000000 0.000000 0.000000
# 4 0.000000 0.000000 0.000000 -0.573308 0.000000 0.000000
# 5 0.000000 0.000000 0.000000 0.000000 0.064467 0.000000
# 6 0.000000 0.000000 0.000000 0.000000 0.000000 0.034971
#
#
# Mechanical properties :
#
#
# Convention : Reuss Voigt Hill
#
# Bulk Modulus (GPa) = 47.20182 57.69746 52.44964
# Shear Modulus (GPa) = -12.61283 20.12696 3.75707
#
# Velocity S-wave (km/s) = -2.56143 3.23568 1.39798
# Velocity P-wave (km/s) = 3.97561 6.63117 5.46708
#
# Compressibility (1/GPa) = 0.02118563
#
# Stress axis : x y z
#
# Youngs Moduli (GPa) = 47.57946 98.11164 68.60415
#
# Poissons Ratio (x) = 0.32074 0.26897
# Poissons Ratio (y) = 0.15554 0.35061
# Poissons Ratio (z) = 0.18654 0.50141
#
# Static dielectric constant tensor:
#      x y z
#    x 1.690050 0.000000 0.000000 
#    y 0.000000 1.700230 0.000000 
#    z 0.000000 0.000000 1.671830 
# 
# From -- ./inp_files/52984.got.cif
#   From: 2010.05.17/outbox.cif.g08.bks.cpg/sg66_27_cif.got.tgz:52984.got - 2010.06.03 17:51:23.
