data_PCOD9498862
_publ_section_title
;
Structure prediction by ZEFSAII (Michael W. Deem and Ramdas Pophale) SiO2 
 PCOD9498862
Probable space group: C C C M
;
_chemical_formula_sum "Si O2"
_cell_formula_units_Z 112
_cell_length_a 11.517333
_cell_length_b 31.751754
_cell_length_c 14.990143
_cell_angle_alpha 90.000000
_cell_angle_beta 90.000000
_cell_angle_gamma 90.000000
_cell_volume 5481.828201
_symmetry_space_group_name_H-M "C C C M"
_symmetry_group_IT_number 66
_symmetry_cell_setting 'orthorhombic'
loop_
_space_group_symop_operation_xyz
x,y,z
-x,-y,z
x,-y,1/2-z
-x,y,1/2-z
-x,-y,-z
x,y,-z
-x,y,1/2+z
x,-y,1/2+z
1/2+x,1/2+y,z
1/2-x,1/2-y,z
1/2+x,1/2-y,1/2-z
1/2-x,1/2+y,1/2-z
1/2-x,1/2-y,-z
1/2+x,1/2+y,-z
1/2-x,1/2+y,1/2+z
1/2+x,1/2-y,1/2+z
loop_
_atom_site_type_symbol
_atom_site_label
_atom_site_fract_x
_atom_site_fract_y
_atom_site_fract_z
Si Si1 0.462382 0.389713 0.895703
Si Si2 0.127620 0.799501 0.608710
Si Si3 0.908706 0.535218 0.898515
Si Si4 0.525605 0.122104 0.147203
Si Si5 0.267894 0.408180 0.399847
Si Si6 0.604099 0.208170 0.392901
Si Si7 0.818198 0.955847 0.778385
O O1 0.424992 0.343650 0.862711
O O2 0.601628 0.390431 0.897126
O O3 0.404605 0.424608 0.831544
O O4 0.423887 0.396088 0.000000
O O5 0.123690 0.799978 0.500000
O O6 0.262615 0.798726 0.635875
O O7 0.070329 0.755314 0.638063
O O8 0.792815 0.536802 0.841021
O O9 0.000000 0.500000 0.865417
O O10 0.966153 0.581759 0.899273
O O11 0.879438 0.523630 0.000000
O O12 0.500000 0.112788 0.250000
O O13 0.659870 0.122569 0.118183
O O14 0.470525 0.167749 0.131088
O O15 0.252160 0.426405 0.500000
O O16 0.268197 0.438025 0.314394
O O17 0.605842 0.209767 0.500000
O O18 0.872936 0.000000 0.750000
#
# Coordination Sequence:
#
# PCOD9498862 Si02
#       7
#    16  16  16  16  16  16  16
#     4  10  22  42  67  93 126 174 221 267 327 392
#     4   8  16  34  63  95 123 157 209 266 324 389
#     4  11  24  42  67  96 128 169 215 273 338 391
#     4  12  23  39  62  91 131 167 215 264 324 395
#     4  11  25  43  61  88 130 174 213 263 324 386
#     4   9  17  33  62  95 124 158 205 267 329 386
#     4  12  25  42  66  95 130 166 224 276 325 390
#
# _framework density 20.431141
#
# number of rings (size 3 to 8) (size 9 to 14) (size 15 to 20)
#    0.000    1.571    1.429    4.714    0.000    4.571 
#    0.000    3.571    0.000    3.857    0.000    0.000 
#    0.000    0.000    0.000    0.000    0.000    0.000 
#
# Total GULP energy -312543.393914 kJ/mol
# GULP energy per Si atom -5581.132034 kJ/mol
# Density = 2.038464 g / cm^3
# Si number density = 20.431141 Si / 1000 Ang^3
#
#
#
# Elastic Constant Matrix: (Units=GPa)
#
#
# Indices 1 2 3 4 5 6 
#
# 1 123.1695 78.9344 44.1218 0.0000 0.0000 0.0000
# 2 78.9344 182.4863 37.3012 0.0000 0.0000 0.0000
# 3 44.1218 37.3012 102.7615 0.0000 0.0000 0.0000
# 4 0.0000 0.0000 0.0000 116.6027 0.0000 0.0000
# 5 0.0000 0.0000 0.0000 0.0000 22.2373 0.0000
# 6 0.0000 0.0000 0.0000 0.0000 0.0000 7.9305
#
#
#
# Elastic Compliance Matrix: (Units=1/GPa)
#
#
# Indices 1 2 3 4 5 6 
#
# 1 0.012377 -0.004610 -0.003641 0.000000 0.000000 0.000000
# 2 -0.004610 0.007636 -0.000793 0.000000 0.000000 0.000000
# 3 -0.003641 -0.000793 0.011582 0.000000 0.000000 0.000000
# 4 0.000000 0.000000 0.000000 0.008576 0.000000 0.000000
# 5 0.000000 0.000000 0.000000 0.000000 0.044970 0.000000
# 6 0.000000 0.000000 0.000000 0.000000 0.000000 0.126096
#
#
# Mechanical properties :
#
#
# Convention : Reuss Voigt Hill
#
# Bulk Modulus (GPa) = 74.02494 81.01467 77.51980
# Shear Modulus (GPa) = 21.38344 45.89142 33.63743
#
# Velocity S-wave (km/s) = 3.23865 4.74450 4.06196
# Velocity P-wave (km/s) = 7.09191 8.35178 7.74750
#
# Compressibility (1/GPa) = 0.01350896
#
# Stress axis : x y z
#
# Youngs Moduli (GPa) = 80.79333 130.96372 86.33860
#
# Poissons Ratio (x) = 0.60368 0.31437
# Poissons Ratio (y) = 0.37242 0.06843
# Poissons Ratio (z) = 0.29418 0.10379
#
# Static dielectric constant tensor:
#      x y z
#    x 1.730010 0.000000 0.000000 
#    y 0.000000 1.790790 0.000000 
#    z 0.000000 0.000000 1.750190 
# 
# From -- ./inp_files/27021.got.cif
#   From: 2010.05.17/outbox.cif.g08.bks.cpg/sg66_14_cif.got.tgz:27021.got - 2010.06.03 17:51:23.
