data_PCOD9498579
_publ_section_title
;
Structure prediction by ZEFSAII (Michael W. Deem and Ramdas Pophale) SiO2 
 PCOD9498579
Probable space group: C C C M
;
_chemical_formula_sum "Si O2"
_cell_formula_units_Z 52
_cell_length_a 25.962290
_cell_length_b 5.149181
_cell_length_c 18.597419
_cell_angle_alpha 90.000000
_cell_angle_beta 90.000000
_cell_angle_gamma 90.000000
_cell_volume 2486.187225
_symmetry_space_group_name_H-M "C C C M"
_symmetry_group_IT_number 66
_symmetry_cell_setting 'orthorhombic'
loop_
_space_group_symop_operation_xyz
x,y,z
-x,-y,z
x,-y,1/2-z
-x,y,1/2-z
-x,-y,-z
x,y,-z
-x,y,1/2+z
x,-y,1/2+z
1/2+x,1/2+y,z
1/2-x,1/2-y,z
1/2+x,1/2-y,1/2-z
1/2-x,1/2+y,1/2-z
1/2-x,1/2-y,-z
1/2+x,1/2+y,-z
1/2-x,1/2+y,1/2+z
1/2+x,1/2-y,1/2+z
loop_
_atom_site_type_symbol
_atom_site_label
_atom_site_fract_x
_atom_site_fract_y
_atom_site_fract_z
Si Si1 0.718684 0.985644 0.352377
Si Si2 0.561494 0.464239 0.916734
Si Si3 0.750000 0.250000 0.000000
Si Si4 0.098625 0.535706 0.668531
O O1 0.750000 0.250000 0.346074
O O2 0.660220 0.008014 0.328884
O O3 0.750000 0.750000 0.315493
O O4 0.718949 0.905755 0.436281
O O5 0.500000 0.500000 0.916573
O O6 0.585316 0.688786 0.867044
O O7 0.576075 0.188659 0.882501
O O8 0.579389 0.483165 0.000000
O O9 0.078504 0.500000 0.750000
#
# Coordination Sequence:
#
# PCOD9498579 Si02
#       4
#    16  16   4  16
#     4  10  22  37  60  92 130 167 217 258 318 378
#     4  11  26  46  70  97 128 171 226 279 327 389
#     4   8  22  36  62  92 124 174 220 260 322 364
#     4  12  26  42  68 101 135 177 215 268 342 395
#
# _framework density 20.915561
#
# number of rings (size 3 to 8) (size 9 to 14) (size 15 to 20)
#    0.923    0.308    0.000    5.077    4.308    7.385 
#    0.000    0.000    0.000    0.000    0.000    0.000 
#    0.000    0.000    0.000    0.000    0.000    0.000 
#
# Total GULP energy -144808.988400 kJ/mol
# GULP energy per Si atom -5569.576477 kJ/mol
# Density = 2.086796 g / cm^3
# Si number density = 20.915561 Si / 1000 Ang^3
#
#
#
# Elastic Constant Matrix: (Units=GPa)
#
#
# Indices 1 2 3 4 5 6 
#
# 1 64.3872 -15.2455 -14.0865 0.0000 0.0000 0.0000
# 2 -15.2455 40.0802 -25.9578 0.0000 0.0000 0.0000
# 3 -14.0865 -25.9578 150.2926 0.0000 0.0000 0.0000
# 4 0.0000 0.0000 0.0000 31.9653 0.0000 0.0000
# 5 0.0000 0.0000 0.0000 0.0000 55.4015 0.0000
# 6 0.0000 0.0000 0.0000 0.0000 0.0000 37.4996
#
#
#
# Elastic Compliance Matrix: (Units=1/GPa)
#
#
# Indices 1 2 3 4 5 6 
#
# 1 0.018421 0.009148 0.003307 0.000000 0.000000 0.000000
# 2 0.009148 0.032636 0.006494 0.000000 0.000000 0.000000
# 3 0.003307 0.006494 0.008085 0.000000 0.000000 0.000000
# 4 0.000000 0.000000 0.000000 0.031284 0.000000 0.000000
# 5 0.000000 0.000000 0.000000 0.000000 0.018050 0.000000
# 6 0.000000 0.000000 0.000000 0.000000 0.000000 0.026667
#
#
# Mechanical properties :
#
#
# Convention : Reuss Voigt Hill
#
# Bulk Modulus (GPa) = 10.30513 16.02004 13.16258
# Shear Modulus (GPa) = 38.58292 45.64327 42.11309
#
# Velocity S-wave (km/s) = 4.29966 4.67654 4.49205
# Velocity P-wave (km/s) = 5.43940 6.06927 5.76295
#
# Compressibility (1/GPa) = 0.09703907
#
# Stress axis : x y z
#
# Youngs Moduli (GPa) = 54.28720 30.64135 123.68241
#
# Poissons Ratio (x) = -0.28031 -0.40896
# Poissons Ratio (y) = -0.49663 -0.80321
# Poissons Ratio (z) = -0.17950 -0.19899
#
# Static dielectric constant tensor:
#      x y z
#    x 1.720420 0.000000 0.000000 
#    y 0.000000 1.694500 0.000000 
#    z 0.000000 0.000000 1.757080 
# 
# From -- ./inp_files/43903.got.cif
#   From: 2010.05.17/outbox.cif.g08.bks.cpg/sg66_22_cif.got.tgz:43903.got - 2010.06.03 17:51:23.
