data_PCOD9498689
_publ_section_title
;
Structure prediction by ZEFSAII (Michael W. Deem and Ramdas Pophale) SiO2 
 PCOD9498689
Probable space group: C C C M
;
_chemical_formula_sum "Si O2"
_cell_formula_units_Z 64
_cell_length_a 15.934570
_cell_length_b 11.668813
_cell_length_c 15.648981
_cell_angle_alpha 90.000000
_cell_angle_beta 90.000000
_cell_angle_gamma 90.000000
_cell_volume 2909.732680
_symmetry_space_group_name_H-M "C C C M"
_symmetry_group_IT_number 66
_symmetry_cell_setting 'orthorhombic'
loop_
_space_group_symop_operation_xyz
x,y,z
-x,-y,z
x,-y,1/2-z
-x,y,1/2-z
-x,-y,-z
x,y,-z
-x,y,1/2+z
x,-y,1/2+z
1/2+x,1/2+y,z
1/2-x,1/2-y,z
1/2+x,1/2-y,1/2-z
1/2-x,1/2+y,1/2-z
1/2-x,1/2-y,-z
1/2+x,1/2+y,-z
1/2-x,1/2+y,1/2+z
1/2+x,1/2-y,1/2+z
loop_
_atom_site_type_symbol
_atom_site_label
_atom_site_fract_x
_atom_site_fract_y
_atom_site_fract_z
Si Si1 0.378912 0.840276 0.327998
Si Si2 0.362876 0.624427 0.221380
Si Si3 0.560737 0.826845 0.358314
Si Si4 0.719243 0.954292 0.405088
O O1 0.351332 0.710966 0.302034
O O2 0.465001 0.847522 0.382426
O O3 0.412346 0.878388 0.234385
O O4 0.310622 0.922941 0.368484
O O5 0.391224 0.500000 0.250000
O O6 0.427918 0.692052 0.161098
O O7 0.279675 0.604850 0.164517
O O8 0.635302 0.877938 0.412666
O O9 0.757217 0.964083 0.500000
#
# Coordination Sequence:
#
# PCOD9498689 Si02
#       4
#    16  16  16  16
#     4   9  21  40  62  91 123 170 224 264 306 380
#     4  10  22  39  65  90 128 171 222 262 311 386
#     4   9  20  38  65  90 122 168 226 263 309 379
#     4  12  24  37  62 100 136 166 207 275 338 378
#
# _framework density 21.995146999999999
#
# number of rings (size 3 to 8) (size 9 to 14) (size 15 to 20)
#    1.500    0.500    0.000    3.750    3.500    8.000 
#    0.000    2.500    0.000    0.000    0.000   10.500 
#    0.000    0.000    0.000    0.000    0.000    0.000 
#
# Total GULP energy -178205.576063 kJ/mol
# GULP energy per Si atom -5568.924252 kJ/mol
# Density = 2.194508 g / cm^3
# Si number density = 21.995147 Si / 1000 Ang^3
#
#
#
# Elastic Constant Matrix: (Units=GPa)
#
#
# Indices 1 2 3 4 5 6 
#
# 1 74.5209 6.7610 7.9202 0.0000 0.0000 0.0000
# 2 6.7610 137.9081 19.0694 0.0000 0.0000 0.0000
# 3 7.9202 19.0694 58.5871 0.0000 0.0000 0.0000
# 4 0.0000 0.0000 0.0000 -21.3038 0.0000 0.0000
# 5 0.0000 0.0000 0.0000 0.0000-1633.4519 0.0000
# 6 0.0000 0.0000 0.0000 0.0000 0.0000 27.0695
#
#
#
# Elastic Compliance Matrix: (Units=1/GPa)
#
#
# Indices 1 2 3 4 5 6 
#
# 1 0.013639 -0.000433 -0.001703 0.000000 0.000000 0.000000
# 2 -0.000433 0.007607 -0.002417 0.000000 0.000000 0.000000
# 3 -0.001703 -0.002417 0.018086 0.000000 0.000000 0.000000
# 4 0.000000 0.000000 0.000000 -0.046940 0.000000 0.000000
# 5 0.000000 0.000000 0.000000 0.000000 -0.000612 0.000000
# 6 0.000000 0.000000 0.000000 0.000000 0.000000 0.036942
#
#
# Mechanical properties :
#
#
# Convention : Reuss Voigt Hill
#
# Bulk Modulus (GPa) = 33.08534 37.61304 35.34919
# Shear Modulus (GPa) = 104.37765 -309.71953 -102.67094
#
# Velocity S-wave (km/s) = 6.89622 -11.87932 -6.83961
# Velocity P-wave (km/s) = 8.85919 13.07746 6.80201
#
# Compressibility (1/GPa) = 0.03022487
#
# Stress axis : x y z
#
# Youngs Moduli (GPa) = 73.31738 131.46304 55.29260
#
# Poissons Ratio (x) = 0.05695 0.09415
# Poissons Ratio (y) = 0.03176 0.13366
# Poissons Ratio (z) = 0.12485 0.31779
#
# Static dielectric constant tensor:
#      x y z
#    x 1.866300 0.000000 0.000000 
#    y 0.000000 1.853470 0.000000 
#    z 0.000000 0.000000 1.890410 
# 
# From -- ./inp_files/39783.got.cif
#   From: 2010.05.17/outbox.cif.g08.bks.cpg/sg66_20_cif.got.tgz:39783.got - 2010.06.03 17:51:23.
