data_PCOD9498633
_publ_section_title
;
Structure prediction by ZEFSAII (Michael W. Deem and Ramdas Pophale) SiO2 
 PCOD9498633
Probable space group: C C C M
;
_chemical_formula_sum "Si O2"
_cell_formula_units_Z 104
_cell_length_a 8.768206
_cell_length_b 25.138368
_cell_length_c 21.477970
_cell_angle_alpha 90.000000
_cell_angle_beta 90.000000
_cell_angle_gamma 90.000000
_cell_volume 4734.139549
_symmetry_space_group_name_H-M "C C C M"
_symmetry_group_IT_number 66
_symmetry_cell_setting 'orthorhombic'
loop_
_space_group_symop_operation_xyz
x,y,z
-x,-y,z
x,-y,1/2-z
-x,y,1/2-z
-x,-y,-z
x,y,-z
-x,y,1/2+z
x,-y,1/2+z
1/2+x,1/2+y,z
1/2-x,1/2-y,z
1/2+x,1/2-y,1/2-z
1/2-x,1/2+y,1/2-z
1/2-x,1/2-y,-z
1/2+x,1/2+y,-z
1/2-x,1/2+y,1/2+z
1/2+x,1/2-y,1/2+z
loop_
_atom_site_type_symbol
_atom_site_label
_atom_site_fract_x
_atom_site_fract_y
_atom_site_fract_z
Si Si1 0.270541 0.686949 0.000000
Si Si2 0.438861 0.591771 0.000000
Si Si3 0.197242 0.081093 0.096198
Si Si4 0.819500 0.497522 0.000000
Si Si5 0.946400 0.560307 0.818023
Si Si6 0.319802 0.693015 0.238206
Si Si7 0.188684 0.307076 0.875582
Si Si8 0.631732 0.848766 0.371109
O O1 0.250000 0.750000 0.000000
O O2 0.198502 0.663300 0.937822
O O3 0.430121 0.656134 0.000000
O O4 0.529843 0.578819 0.064468
O O5 0.283631 0.556202 0.000000
O O6 0.274506 0.033529 0.058652
O O7 0.267468 0.068535 0.165178
O O8 0.257844 0.141579 0.085077
O O9 0.000000 0.500000 0.000000
O O10 0.000000 0.500000 0.821598
O O11 0.000000 0.580359 0.750000
O O12 0.045272 0.595274 0.865766
O O13 0.500000 0.693475 0.250000
O O14 0.250000 0.750000 0.219653
O O15 0.251420 0.682733 0.306199
O O16 0.257633 0.655825 0.183029
O O17 0.250000 0.250000 0.897556
O O18 0.007135 0.306630 0.865823
#
# Coordination Sequence:
#
# PCOD9498633 Si02
#       8
#     8   8  16   8  16  16  16  16
#     4  12  31  44  67 103 148 191 238 300 368 425
#     4  11  28  46  69 101 141 191 248 302 352 434
#     4  10  22  42  69  98 140 180 232 296 349 421
#     4  11  25  46  74 101 128 187 252 286 349 427
#     4  10  22  42  74 110 141 183 238 302 364 436
#     4  11  22  39  69  99 136 187 237 290 352 431
#     4  10  22  38  68 101 135 182 228 288 361 428
#     4  11  24  45  67  97 142 187 241 292 356 435
#
# _framework density 21.96809
#
# number of rings (size 3 to 8) (size 9 to 14) (size 15 to 20)
#    0.000    1.385    0.000    6.000   10.769    2.462 
#    0.000    2.308    0.000    0.000    0.000    0.000 
#    0.000    0.000    0.000    0.000    0.000    0.000 
#
# Total GULP energy -289735.554123 kJ/mol
# GULP energy per Si atom -5571.837579 kJ/mol
# Density = 2.191809 g / cm^3
# Si number density = 21.968090 Si / 1000 Ang^3
#
#
#
# Elastic Constant Matrix: (Units=GPa)
#
#
# Indices 1 2 3 4 5 6 
#
# 1 126.5283 25.6951 35.2716 0.0000 0.0000 0.0000
# 2 25.6951 127.0097 11.9880 0.0000 0.0000 0.0000
# 3 35.2716 11.9880 66.0180 0.0000 0.0000 0.0000
# 4 0.0000 0.0000 0.0000 40.6326 0.0000 0.0000
# 5 0.0000 0.0000 0.0000 0.0000 30.8971 0.0000
# 6 0.0000 0.0000 0.0000 0.0000 0.0000 20.5308
#
#
#
# Elastic Compliance Matrix: (Units=1/GPa)
#
#
# Indices 1 2 3 4 5 6 
#
# 1 0.009551 -0.001476 -0.004835 0.000000 0.000000 0.000000
# 2 -0.001476 0.008239 -0.000708 0.000000 0.000000 0.000000
# 3 -0.004835 -0.000708 0.017859 0.000000 0.000000 0.000000
# 4 0.000000 0.000000 0.000000 0.024611 0.000000 0.000000
# 5 0.000000 0.000000 0.000000 0.000000 0.032365 0.000000
# 6 0.000000 0.000000 0.000000 0.000000 0.000000 0.048707
#
#
# Mechanical properties :
#
#
# Convention : Reuss Voigt Hill
#
# Bulk Modulus (GPa) = 46.27006 51.71836 48.99421
# Shear Modulus (GPa) = 30.75551 34.85221 32.80386
#
# Velocity S-wave (km/s) = 3.74573 3.98740 3.86845
# Velocity P-wave (km/s) = 6.30995 6.69274 6.50416
#
# Compressibility (1/GPa) = 0.02161225
#
# Stress axis : x y z
#
# Youngs Moduli (GPa) = 104.70282 121.37725 55.99435
#
# Poissons Ratio (x) = 0.17914 0.27072
# Poissons Ratio (y) = 0.15453 0.03962
# Poissons Ratio (z) = 0.50621 0.08588
#
# Static dielectric constant tensor:
#      x y z
#    x 1.523140 0.000000 0.000000 
#    y 0.000000 1.835660 0.000000 
#    z 0.000000 0.000000 1.722220 
# 
# From -- ./inp_files/47462.got.cif
#   From: 2010.05.17/outbox.cif.g08.bks.cpg/sg66_24_cif.got.tgz:47462.got - 2010.06.03 17:51:23.
