data_PCOD9498908
_publ_section_title
;
Structure prediction by ZEFSAII (Michael W. Deem and Ramdas Pophale) SiO2 
 PCOD9498908
Probable space group: C C C M
;
_chemical_formula_sum "Si O2"
_cell_formula_units_Z 92
_cell_length_a 13.575200
_cell_length_b 16.433296
_cell_length_c 19.352326
_cell_angle_alpha 90.000000
_cell_angle_beta 90.000000
_cell_angle_gamma 90.000000
_cell_volume 4317.219062
_symmetry_space_group_name_H-M "C C C M"
_symmetry_group_IT_number 66
_symmetry_cell_setting 'orthorhombic'
loop_
_space_group_symop_operation_xyz
x,y,z
-x,-y,z
x,-y,1/2-z
-x,y,1/2-z
-x,-y,-z
x,y,-z
-x,y,1/2+z
x,-y,1/2+z
1/2+x,1/2+y,z
1/2-x,1/2-y,z
1/2+x,1/2-y,1/2-z
1/2-x,1/2+y,1/2-z
1/2-x,1/2-y,-z
1/2+x,1/2+y,-z
1/2-x,1/2+y,1/2+z
1/2+x,1/2-y,1/2+z
loop_
_atom_site_type_symbol
_atom_site_label
_atom_site_fract_x
_atom_site_fract_y
_atom_site_fract_z
Si Si1 0.383405 0.910642 0.000000
Si Si2 0.148110 0.588698 0.730175
Si Si3 0.000000 0.000000 0.250000
Si Si4 0.587794 0.842176 0.000000
Si Si5 0.657908 0.193927 0.863404
Si Si6 0.779115 0.056746 0.500000
Si Si7 0.445698 0.766764 0.646576
Si Si8 0.849994 0.094277 0.650663
O O1 0.364127 0.859010 0.069143
O O2 0.299349 0.981045 0.000000
O O3 0.504743 0.914192 0.000000
O O4 0.108281 0.500000 0.750000
O O5 0.178591 0.633972 0.800083
O O6 0.078777 0.651867 0.689736
O O7 0.242615 0.576906 0.681752
O O8 0.929768 0.950110 0.198293
O O9 0.569973 0.789688 0.932622
O O10 0.700100 0.870330 0.000000
O O11 0.750000 0.250000 0.876744
O O12 0.561941 0.247733 0.843886
O O13 0.843077 0.065272 0.570392
O O14 0.376672 0.689739 0.659553
#
# Coordination Sequence:
#
# PCOD9498908 Si02
#       8
#     8  16   4   8  16   8  16  16
#     4  10  24  42  67 103 146 188 236 296 358 435
#     4  12  25  43  68 106 139 186 237 306 370 436
#     4  12  32  50  72 104 152 194 244 304 364 430
#     4  10  22  43  69 109 145 187 237 304 366 431
#     4  11  25  43  68  98 141 192 235 292 360 438
#     4  12  24  46  74 105 140 193 239 302 361 440
#     4  11  25  43  71 105 141 187 244 303 362 439
#     4  12  27  47  75 104 145 190 245 301 363 433
#
# _framework density 21.310015
#
# number of rings (size 3 to 8) (size 9 to 14) (size 15 to 20)
#    0.000    0.696    2.609    4.174    4.870    2.435 
#    0.000    0.000    0.000    0.000    0.000    0.000 
#    0.000    0.000    0.000    0.000    0.000    0.000 
#
# Total GULP energy -257080.166597 kJ/mol
# GULP energy per Si atom -5588.699274 kJ/mol
# Density = 2.126151 g / cm^3
# Si number density = 21.310015 Si / 1000 Ang^3
#
#
#
# Elastic Constant Matrix: (Units=GPa)
#
#
# Indices 1 2 3 4 5 6 
#
# 1 112.0450 30.0449 24.7575 0.0000 0.0000 0.0000
# 2 30.0449 88.3171 23.0231 0.0000 0.0000 0.0000
# 3 24.7575 23.0231 148.6509 0.0000 0.0000 0.0000
# 4 0.0000 0.0000 0.0000 25.5924 0.0000 0.0000
# 5 0.0000 0.0000 0.0000 0.0000 29.8340 0.0000
# 6 0.0000 0.0000 0.0000 0.0000 0.0000 7.4001
#
#
#
# Elastic Compliance Matrix: (Units=1/GPa)
#
#
# Indices 1 2 3 4 5 6 
#
# 1 0.010018 -0.003098 -0.001189 0.000000 0.000000 0.000000
# 2 -0.003098 0.012757 -0.001460 0.000000 0.000000 0.000000
# 3 -0.001189 -0.001460 0.007151 0.000000 0.000000 0.000000
# 4 0.000000 0.000000 0.000000 0.039074 0.000000 0.000000
# 5 0.000000 0.000000 0.000000 0.000000 0.033519 0.000000
# 6 0.000000 0.000000 0.000000 0.000000 0.000000 0.135133
#
#
# Mechanical properties :
#
#
# Convention : Reuss Voigt Hill
#
# Bulk Modulus (GPa) = 54.24938 56.07377 55.16157
# Shear Modulus (GPa) = 19.58547 30.64446 25.11497
#
# Velocity S-wave (km/s) = 3.03491 3.79625 3.43673
# Velocity P-wave (km/s) = 6.14763 6.75173 6.45675
#
# Compressibility (1/GPa) = 0.01843339
#
# Stress axis : x y z
#
# Youngs Moduli (GPa) = 99.81574 78.38562 139.83572
#
# Poissons Ratio (x) = 0.24287 0.16622
# Poissons Ratio (y) = 0.30926 0.20414
# Poissons Ratio (z) = 0.11865 0.11443
#
# Static dielectric constant tensor:
#      x y z
#    x 1.771230 0.000000 0.000000 
#    y 0.000000 1.785720 0.000000 
#    z 0.000000 0.000000 1.747170 
# 
# From -- ./inp_files/49970.got.cif
#   From: 2010.05.17/outbox.cif.g08.bks.cpg/sg66_25_cif.got.tgz:49970.got - 2010.06.03 17:51:23.
