data_PCOD9498122
_publ_section_title
;
Structure prediction by ZEFSAII (Michael W. Deem and Ramdas Pophale) SiO2 
 PCOD9498122
Probable space group: C C C M
;
_chemical_formula_sum "Si O2"
_cell_formula_units_Z 96
_cell_length_a 15.823128
_cell_length_b 22.419007
_cell_length_c 13.657302
_cell_angle_alpha 90.000000
_cell_angle_beta 90.000000
_cell_angle_gamma 90.000000
_cell_volume 4844.775160
_symmetry_space_group_name_H-M "C C C M"
_symmetry_group_IT_number 66
_symmetry_cell_setting 'orthorhombic'
loop_
_space_group_symop_operation_xyz
x,y,z
-x,-y,z
x,-y,1/2-z
-x,y,1/2-z
-x,-y,-z
x,y,-z
-x,y,1/2+z
x,-y,1/2+z
1/2+x,1/2+y,z
1/2-x,1/2-y,z
1/2+x,1/2-y,1/2-z
1/2-x,1/2+y,1/2-z
1/2-x,1/2-y,-z
1/2+x,1/2+y,-z
1/2-x,1/2+y,1/2+z
1/2+x,1/2-y,1/2+z
loop_
_atom_site_type_symbol
_atom_site_label
_atom_site_fract_x
_atom_site_fract_y
_atom_site_fract_z
Si Si1 0.546141 0.439317 0.887482
Si Si2 0.821006 0.859808 0.292489
Si Si3 0.981908 0.430489 0.387852
Si Si4 0.092154 0.751867 0.113096
Si Si5 0.076284 0.174742 0.109353
Si Si6 0.124340 0.368347 0.715738
O O1 0.500000 0.500000 0.860053
O O2 0.621626 0.416607 0.819884
O O3 0.477079 0.386648 0.886446
O O4 0.576543 0.445434 0.000000
O O5 0.845461 0.808190 0.370485
O O6 0.853301 0.831103 0.191162
O O7 0.724011 0.877156 0.287892
O O8 0.953506 0.425433 0.500000
O O9 0.072299 0.399702 0.371012
O O10 0.000000 0.500000 0.365128
O O11 0.918264 0.396717 0.313283
O O12 0.109940 0.701397 0.192995
O O13 0.996447 0.776046 0.126391
O O14 0.100666 0.731534 0.000000
O O15 0.110446 0.182697 0.000000
#
# Coordination Sequence:
#
# PCOD9498122 Si02
#       6
#    16  16  16  16  16  16
#     4   9  18  35  55  81 120 165 207 246 297 366
#     4  11  22  35  59  94 130 160 207 263 309 362
#     4  10  24  48  70  87 120 163 205 263 331 386
#     4  10  21  38  61  90 130 169 205 251 306 373
#     4   9  20  37  56  82 120 167 205 244 303 364
#     4  11  23  39  64  98 120 154 211 261 317 373
#
# _framework density 19.815161
#
# number of rings (size 3 to 8) (size 9 to 14) (size 15 to 20)
#    0.000    2.000    0.000    5.500    4.667    5.333 
#    6.000    0.000    0.000    2.000    0.000    0.000 
#    0.000    0.000    0.000    0.000    0.000    0.000 
#
# Total GULP energy -267942.470671 kJ/mol
# GULP energy per Si atom -5582.134806 kJ/mol
# Density = 1.977006 g / cm^3
# Si number density = 19.815161 Si / 1000 Ang^3
#
#
#
# Elastic Constant Matrix: (Units=GPa)
#
#
# Indices 1 2 3 4 5 6 
#
# 1 94.9880 43.3443 35.5600 0.0000 0.0000 0.0000
# 2 43.3443 100.7792 37.7582 0.0000 0.0000 0.0000
# 3 35.5600 37.7582 123.1053 0.0000 0.0000 0.0000
# 4 0.0000 0.0000 0.0000 27.3492 0.0000 0.0000
# 5 0.0000 0.0000 0.0000 0.0000 6.7516 0.0000
# 6 0.0000 0.0000 0.0000 0.0000 0.0000 67.8340
#
#
#
# Elastic Compliance Matrix: (Units=1/GPa)
#
#
# Indices 1 2 3 4 5 6 
#
# 1 0.013714 -0.004987 -0.002432 0.000000 0.000000 0.000000
# 2 -0.004987 0.013025 -0.002554 0.000000 0.000000 0.000000
# 3 -0.002432 -0.002554 0.009609 0.000000 0.000000 0.000000
# 4 0.000000 0.000000 0.000000 0.036564 0.000000 0.000000
# 5 0.000000 0.000000 0.000000 0.000000 0.148113 0.000000
# 6 0.000000 0.000000 0.000000 0.000000 0.000000 0.014742
#
#
# Mechanical properties :
#
#
# Convention : Reuss Voigt Hill
#
# Bulk Modulus (GPa) = 60.97141 61.35528 61.16335
# Shear Modulus (GPa) = 19.14397 33.86763 26.50580
#
# Velocity S-wave (km/s) = 3.11163 4.13871 3.66136
# Velocity P-wave (km/s) = 6.61412 7.33959 6.98628
#
# Compressibility (1/GPa) = 0.01640113
#
# Stress axis : x y z
#
# Youngs Moduli (GPa) = 72.92011 76.77804 104.06934
#
# Poissons Ratio (x) = 0.38290 0.25307
# Poissons Ratio (y) = 0.36366 0.26582
# Poissons Ratio (z) = 0.17732 0.19611
#
# Static dielectric constant tensor:
#      x y z
#    x 1.657100 0.000000 0.000000 
#    y 0.000000 1.778720 0.000000 
#    z 0.000000 0.000000 1.751600 
# 
# From -- ./inp_files/28388.got.cif
#   From: 2010.05.17/outbox.cif.g08.bks.cpg/sg66_15_cif.got.tgz:28388.got - 2010.06.03 17:51:23.
