data_PCOD9498270
_publ_section_title
;
Structure prediction by ZEFSAII (Michael W. Deem and Ramdas Pophale) SiO2 
 PCOD9498270
Probable space group: C C C M
;
_chemical_formula_sum "Si O2"
_cell_formula_units_Z 56
_cell_length_a 5.003980
_cell_length_b 25.190824
_cell_length_c 22.333996
_cell_angle_alpha 90.000000
_cell_angle_beta 90.000000
_cell_angle_gamma 90.000000
_cell_volume 2815.298007
_symmetry_space_group_name_H-M "C C C M"
_symmetry_group_IT_number 66
_symmetry_cell_setting 'orthorhombic'
loop_
_space_group_symop_operation_xyz
x,y,z
-x,-y,z
x,-y,1/2-z
-x,y,1/2-z
-x,-y,-z
x,y,-z
-x,y,1/2+z
x,-y,1/2+z
1/2+x,1/2+y,z
1/2-x,1/2-y,z
1/2+x,1/2-y,1/2-z
1/2-x,1/2+y,1/2-z
1/2-x,1/2-y,-z
1/2+x,1/2+y,-z
1/2-x,1/2+y,1/2+z
1/2+x,1/2-y,1/2+z
loop_
_atom_site_type_symbol
_atom_site_label
_atom_site_fract_x
_atom_site_fract_y
_atom_site_fract_z
Si Si1 0.372166 0.190876 0.684943
Si Si2 0.881200 0.850632 0.880179
Si Si3 0.498984 0.711118 0.000000
Si Si4 0.759713 0.536834 0.930609
O O1 0.500000 0.181711 0.750000
O O2 0.750000 0.250000 0.817853
O O3 0.121826 0.153982 0.667417
O O4 0.879925 0.317925 0.640292
O O5 0.790459 0.910428 0.893082
O O6 0.993350 0.825362 0.941295
O O7 0.250000 0.750000 0.000000
O O8 0.750000 0.750000 0.000000
O O9 0.500000 0.500000 0.930963
O O10 0.000000 0.500000 0.908566
O O11 0.819911 0.552361 0.000000
#
# Coordination Sequence:
#
# PCOD9498270 Si02
#       4
#    16  16   8  16
#     4  12  25  42  65  90 126 172 223 260 304 380
#     4  12  23  41  64  94 129 167 211 265 321 381
#     4  12  24  36  56  92 132 164 196 254 331 386
#     4  10  21  39  64  93 128 166 211 258 314 387
#
# _framework density 19.891321000000001
#
# number of rings (size 3 to 8) (size 9 to 14) (size 15 to 20)
#    0.000    0.571    1.429    9.429    0.000    0.000 
#    0.000    0.000    0.000   12.857    0.000    0.000 
#    0.000    0.000    0.000    0.000    0.000    0.000 
#
# Total GULP energy -156715.479310 kJ/mol
# GULP energy per Si atom -5596.981404 kJ/mol
# Density = 1.984605 g / cm^3
# Si number density = 19.891321 Si / 1000 Ang^3
#
#
#
# Elastic Constant Matrix: (Units=GPa)
#
#
# Indices 1 2 3 4 5 6 
#
# 1 172.2307 72.5698 57.0425 0.0000 0.0000 0.0000
# 2 72.5698 132.2968 69.6484 0.0000 0.0000 0.0000
# 3 57.0425 69.6484 95.7911 0.0000 0.0000 0.0000
# 4 0.0000 0.0000 0.0000 10.8382 0.0000 0.0000
# 5 0.0000 0.0000 0.0000 0.0000 44.6874 0.0000
# 6 0.0000 0.0000 0.0000 0.0000 0.0000 42.1430
#
#
#
# Elastic Compliance Matrix: (Units=1/GPa)
#
#
# Indices 1 2 3 4 5 6 
#
# 1 0.007910 -0.003012 -0.002520 0.000000 0.000000 0.000000
# 2 -0.003012 0.013393 -0.007944 0.000000 0.000000 0.000000
# 3 -0.002520 -0.007944 0.017716 0.000000 0.000000 0.000000
# 4 0.000000 0.000000 0.000000 0.092266 0.000000 0.000000
# 5 0.000000 0.000000 0.000000 0.000000 0.022378 0.000000
# 6 0.000000 0.000000 0.000000 0.000000 0.000000 0.023729
#
#
# Mechanical properties :
#
#
# Convention : Reuss Voigt Hill
#
# Bulk Modulus (GPa) = 82.87611 88.76001 85.81806
# Shear Modulus (GPa) = 23.99600 32.93761 28.46680
#
# Velocity S-wave (km/s) = 3.47703 4.07366 3.78711
# Velocity P-wave (km/s) = 7.60753 8.17592 7.89684
#
# Compressibility (1/GPa) = 0.01206620
#
# Stress axis : x y z
#
# Youngs Moduli (GPa) = 126.42150 74.66320 56.44464
#
# Poissons Ratio (x) = 0.22490 0.14225
# Poissons Ratio (y) = 0.38080 0.44842
# Poissons Ratio (z) = 0.31861 0.59316
#
# Static dielectric constant tensor:
#      x y z
#    x 1.680040 0.000000 0.000000 
#    y 0.000000 1.661280 0.000000 
#    z 0.000000 0.000000 1.728100 
# 
# From -- ./inp_files/53904.got.cif
#   From: 2010.05.17/outbox.cif.g08.bks.cpg/sg66_27_cif.got.tgz:53904.got - 2010.06.03 17:51:23.
