data_PCOD9498195
_publ_section_title
;
Structure prediction by ZEFSAII (Michael W. Deem and Ramdas Pophale) SiO2 
 PCOD9498195
Probable space group: C C C M
;
_chemical_formula_sum "Si O2"
_cell_formula_units_Z 112
_cell_length_a 11.154105
_cell_length_b 23.650133
_cell_length_c 20.030982
_cell_angle_alpha 90.000000
_cell_angle_beta 90.000000
_cell_angle_gamma 90.000000
_cell_volume 5284.094265
_symmetry_space_group_name_H-M "C C C M"
_symmetry_group_IT_number 66
_symmetry_cell_setting 'orthorhombic'
loop_
_space_group_symop_operation_xyz
x,y,z
-x,-y,z
x,-y,1/2-z
-x,y,1/2-z
-x,-y,-z
x,y,-z
-x,y,1/2+z
x,-y,1/2+z
1/2+x,1/2+y,z
1/2-x,1/2-y,z
1/2+x,1/2-y,1/2-z
1/2-x,1/2+y,1/2-z
1/2-x,1/2-y,-z
1/2+x,1/2+y,-z
1/2-x,1/2+y,1/2+z
1/2+x,1/2-y,1/2+z
loop_
_atom_site_type_symbol
_atom_site_label
_atom_site_fract_x
_atom_site_fract_y
_atom_site_fract_z
Si Si1 0.377012 0.753714 0.884378
Si Si2 0.694499 0.557793 0.293569
Si Si3 0.642859 0.507667 0.574663
Si Si4 0.311733 0.622721 0.572415
Si Si5 0.511045 0.350347 0.821990
Si Si6 0.864417 0.662473 0.743048
Si Si7 0.358612 0.791647 0.390490
O O1 0.250000 0.750000 0.921845
O O2 0.401325 0.689409 0.862545
O O3 0.356585 0.795742 0.820669
O O4 0.508117 0.772961 0.910733
O O5 0.691190 0.500000 0.250000
O O6 0.718803 0.540219 0.369917
O O7 0.568166 0.589374 0.305533
O O8 0.777520 0.608046 0.264327
O O9 0.500000 0.500000 0.590096
O O10 0.649211 0.532441 0.500000
O O11 0.690717 0.444176 0.574436
O O12 0.364832 0.639239 0.500000
O O13 0.392285 0.643448 0.634340
O O14 0.180996 0.648929 0.579135
O O15 0.500000 0.321098 0.750000
O O16 0.848554 0.699222 0.810438
O O17 0.000000 0.640257 0.750000
O O18 0.250000 0.750000 0.411118
#
# Coordination Sequence:
#
# PCOD9498195 Si02
#       7
#    16  16  16  16  16  16  16
#     4  11  22  38  62  93 131 176 217 266 338 413
#     4  12  24  35  60  97 130 165 222 284 342 390
#     4  10  21  39  59  86 128 176 220 270 341 416
#     4  11  24  41  63  94 132 174 220 277 346 411
#     4  12  22  36  63  94 131 163 216 271 336 398
#     4  10  22  38  61  92 132 169 215 274 341 409
#     4  11  21  37  62  93 130 171 216 266 331 412
#
# _framework density 21.195685000000001
#
# number of rings (size 3 to 8) (size 9 to 14) (size 15 to 20)
#    0.000    1.000    4.286    4.286    0.000    0.571 
#    0.000    0.000    0.000    6.000    0.000    9.000 
#    0.000    0.000    0.000    0.000    0.000    0.000 
#
# Total GULP energy -312259.385999 kJ/mol
# GULP energy per Si atom -5576.060464 kJ/mol
# Density = 2.114744 g / cm^3
# Si number density = 21.195685 Si / 1000 Ang^3
#
#
#
# Elastic Constant Matrix: (Units=GPa)
#
#
# Indices 1 2 3 4 5 6 
#
# 1 128.4940 34.5497 31.4623 0.0000 0.0000 0.0000
# 2 34.5497 85.6434 11.7002 0.0000 0.0000 0.0000
# 3 31.4623 11.7002 82.1769 0.0000 0.0000 0.0000
# 4 0.0000 0.0000 0.0000 75.1416 0.0000 0.0000
# 5 0.0000 0.0000 0.0000 0.0000 -19.2301 0.0000
# 6 0.0000 0.0000 0.0000 0.0000 0.0000 36.3011
#
#
#
# Elastic Compliance Matrix: (Units=1/GPa)
#
#
# Indices 1 2 3 4 5 6 
#
# 1 0.009462 -0.003388 -0.003140 0.000000 0.000000 0.000000
# 2 -0.003388 0.013121 -0.000571 0.000000 0.000000 0.000000
# 3 -0.003140 -0.000571 0.013452 0.000000 0.000000 0.000000
# 4 0.000000 0.000000 0.000000 0.013308 0.000000 0.000000
# 5 0.000000 0.000000 0.000000 0.000000 -0.052002 0.000000
# 6 0.000000 0.000000 0.000000 0.000000 0.000000 0.027547
#
#
# Mechanical properties :
#
#
# Convention : Reuss Voigt Hill
#
# Bulk Modulus (GPa) = 45.79393 50.19321 47.99357
# Shear Modulus (GPa) = 107.83306 33.01600 70.42453
#
# Velocity S-wave (km/s) = 7.14041 3.95102 5.77044
# Velocity P-wave (km/s) = 9.46746 6.67431 8.19082
#
# Compressibility (1/GPa) = 0.02183696
#
# Stress axis : x y z
#
# Youngs Moduli (GPa) = 105.68092 76.21255 74.33568
#
# Poissons Ratio (x) = 0.25823 0.23344
# Poissons Ratio (y) = 0.35807 0.04244
# Poissons Ratio (z) = 0.33188 0.04351
#
# Static dielectric constant tensor:
#      x y z
#    x 1.812320 0.000000 0.000000 
#    y 0.000000 1.770410 0.000000 
#    z 0.000000 0.000000 1.901540 
# 
# From -- ./inp_files/49020.got.cif
#   From: 2010.05.17/outbox.cif.g08.bks.cpg/sg66_25_cif.got.tgz:49020.got - 2010.06.03 17:51:23.
