data_PCOD9498252
_publ_section_title
;
Structure prediction by ZEFSAII (Michael W. Deem and Ramdas Pophale) SiO2 
 PCOD9498252
Probable space group: C C C M
;
_chemical_formula_sum "Si O2"
_cell_formula_units_Z 64
_cell_length_a 15.553054
_cell_length_b 9.825624
_cell_length_c 16.728561
_cell_angle_alpha 90.000000
_cell_angle_beta 90.000000
_cell_angle_gamma 90.000000
_cell_volume 2556.432941
_symmetry_space_group_name_H-M "C C C M"
_symmetry_group_IT_number 66
_symmetry_cell_setting 'orthorhombic'
loop_
_space_group_symop_operation_xyz
x,y,z
-x,-y,z
x,-y,1/2-z
-x,y,1/2-z
-x,-y,-z
x,y,-z
-x,y,1/2+z
x,-y,1/2+z
1/2+x,1/2+y,z
1/2-x,1/2-y,z
1/2+x,1/2-y,1/2-z
1/2-x,1/2+y,1/2-z
1/2-x,1/2-y,-z
1/2+x,1/2+y,-z
1/2-x,1/2+y,1/2+z
1/2+x,1/2-y,1/2+z
loop_
_atom_site_type_symbol
_atom_site_label
_atom_site_fract_x
_atom_site_fract_y
_atom_site_fract_z
Si Si1 0.669468 0.324255 0.371012
Si Si2 0.226901 0.588882 0.904644
Si Si3 0.904862 0.322558 0.781915
Si Si4 0.015791 0.841276 0.082509
O O1 0.750000 0.250000 0.408299
O O2 0.698397 0.482580 0.376974
O O3 0.652160 0.253089 0.284919
O O4 0.581063 0.288417 0.414071
O O5 0.250000 0.750000 0.898623
O O6 0.149235 0.573231 0.838525
O O7 0.209244 0.562559 0.000000
O O8 0.000000 0.365324 0.750000
O O9 0.932707 0.206082 0.842933
O O10 0.060118 0.800946 0.000000
O O11 0.000000 0.000000 0.084624
#
# Coordination Sequence:
#
# PCOD9498252 Si02
#       4
#    16  16  16  16
#     4  11  25  43  68  99 134 174 224 280 336 396
#     4  11  24  43  69 101 137 178 226 281 339 401
#     4  10  23  41  64  96 134 176 223 277 337 400
#     4  10  21  39  63  92 128 172 221 272 333 405
#
# _framework density 25.034883000000001
#
# number of rings (size 3 to 8) (size 9 to 14) (size 15 to 20)
#    0.000    1.500    0.000    3.750    0.000   20.500 
#    0.000    8.750    0.000    7.500    0.000    3.500 
#    0.000    0.000    0.000    0.000    0.000    0.000 
#
# Total GULP energy -178651.636129 kJ/mol
# GULP energy per Si atom -5582.863629 kJ/mol
# Density = 2.497790 g / cm^3
# Si number density = 25.034883 Si / 1000 Ang^3
#
#
#
# Elastic Constant Matrix: (Units=GPa)
#
#
# Indices 1 2 3 4 5 6 
#
# 1 120.4720 22.7637 43.9800 0.0000 0.0000 0.0000
# 2 22.7637 111.8378 42.9323 0.0000 0.0000 0.0000
# 3 43.9800 42.9323 178.0604 0.0000 0.0000 0.0000
# 4 0.0000 0.0000 0.0000 -24.9986 0.0000 0.0000
# 5 0.0000 0.0000 0.0000 0.0000 -2.4967 0.0000
# 6 0.0000 0.0000 0.0000 0.0000 0.0000 36.2078
#
#
#
# Elastic Compliance Matrix: (Units=1/GPa)
#
#
# Indices 1 2 3 4 5 6 
#
# 1 0.009246 -0.001108 -0.002017 0.000000 0.000000 0.000000
# 2 -0.001108 0.009986 -0.002134 0.000000 0.000000 0.000000
# 3 -0.002017 -0.002134 0.006629 0.000000 0.000000 0.000000
# 4 0.000000 0.000000 0.000000 -0.040002 0.000000 0.000000
# 5 0.000000 0.000000 0.000000 0.000000 -0.400534 0.000000
# 6 0.000000 0.000000 0.000000 0.000000 0.000000 0.027618
#
#
# Mechanical properties :
#
#
# Convention : Reuss Voigt Hill
#
# Bulk Modulus (GPa) = 65.17241 69.96913 67.57077
# Shear Modulus (GPa) = -13.46167 21.78878 4.16356
#
# Velocity S-wave (km/s) = -2.32139 2.95335 1.29101
# Velocity P-wave (km/s) = 4.34788 6.29595 5.41032
#
# Compressibility (1/GPa) = 0.01534392
#
# Stress axis : x y z
#
# Youngs Moduli (GPa) = 108.15219 100.13738 150.85801
#
# Poissons Ratio (x) = 0.11094 0.30423
# Poissons Ratio (y) = 0.11982 0.32196
# Poissons Ratio (z) = 0.21811 0.21371
#
# Static dielectric constant tensor:
#      x y z
#    x 2.061360 0.000000 0.000000 
#    y 0.000000 2.023940 0.000000 
#    z 0.000000 0.000000 1.986180 
# 
# From -- ./inp_files/39780.got.cif
#   From: 2010.05.17/outbox.cif.g08.bks.cpg/sg66_20_cif.got.tgz:39780.got - 2010.06.03 17:51:23.
