data_PCOD9498097
_publ_section_title
;
Structure prediction by ZEFSAII (Michael W. Deem and Ramdas Pophale) SiO2 
 PCOD9498097
Probable space group: C C C M
;
_chemical_formula_sum "Si O2"
_cell_formula_units_Z 108
_cell_length_a 10.009751
_cell_length_b 23.512321
_cell_length_c 24.225526
_cell_angle_alpha 90.000000
_cell_angle_beta 90.000000
_cell_angle_gamma 90.000000
_cell_volume 5701.537591
_symmetry_space_group_name_H-M "C C C M"
_symmetry_group_IT_number 66
_symmetry_cell_setting 'orthorhombic'
loop_
_space_group_symop_operation_xyz
x,y,z
-x,-y,z
x,-y,1/2-z
-x,y,1/2-z
-x,-y,-z
x,y,-z
-x,y,1/2+z
x,-y,1/2+z
1/2+x,1/2+y,z
1/2-x,1/2-y,z
1/2+x,1/2-y,1/2-z
1/2-x,1/2+y,1/2-z
1/2-x,1/2-y,-z
1/2+x,1/2+y,-z
1/2-x,1/2+y,1/2+z
1/2+x,1/2-y,1/2+z
loop_
_atom_site_type_symbol
_atom_site_label
_atom_site_fract_x
_atom_site_fract_y
_atom_site_fract_z
Si Si1 0.875281 0.460510 0.646432
Si Si2 0.488121 0.431022 0.562232
Si Si3 0.500000 0.500000 0.750000
Si Si4 0.353913 0.115692 0.751129
Si Si5 0.721896 0.128513 0.563362
Si Si6 0.143612 0.792431 0.722735
Si Si7 0.250000 0.250000 0.116485
Si Si8 0.313719 0.440091 0.337850
O O1 0.876474 0.438036 0.709048
O O2 0.866896 0.407515 0.605649
O O3 0.749020 0.501492 0.640017
O O4 0.000000 0.500000 0.634904
O O5 0.500000 0.500000 0.566757
O O6 0.437075 0.419611 0.500000
O O7 0.629773 0.399089 0.567462
O O8 0.393089 0.411869 0.612157
O O9 0.587562 0.540394 0.710913
O O10 0.500000 0.145407 0.750000
O O11 0.301839 0.096776 0.691240
O O12 0.232259 0.150573 0.778355
O O13 0.678630 0.122228 0.500000
O O14 0.722628 0.194250 0.581076
O O15 0.250000 0.750000 0.752742
O O16 0.134484 0.766900 0.660915
O O17 0.000000 0.798852 0.750000
#
# Coordination Sequence:
#
# PCOD9498097 Si02
#       8
#    16  16   4  16  16  16   8  16
#     4  12  22  39  56  89 134 174 217 270 337 405
#     4  10  21  38  60  87 125 168 222 281 334 389
#     4  12  20  28  48  88 116 152 222 270 300 412
#     4  12  24  38  59  90 135 178 216 267 335 414
#     4  11  23  42  66  92 125 176 231 282 336 399
#     4  10  23  40  65  94 129 168 218 275 333 401
#     4  10  23  42  66  92 134 166 231 280 334 400
#     4  12  23  32  58  85 126 170 215 266 341 392
#
# _framework density 18.942259
#
# number of rings (size 3 to 8) (size 9 to 14) (size 15 to 20)
#    0.444    0.444    6.667    0.667    3.111    0.296 
#    0.000    0.000    0.000    0.000    0.000    0.000 
#    0.000    8.889    0.000    0.000    0.000    0.000 
#
# Total GULP energy -301283.217252 kJ/mol
# GULP energy per Si atom -5579.318838 kJ/mol
# Density = 1.889915 g / cm^3
# Si number density = 18.942259 Si / 1000 Ang^3
#
#
#
# Elastic Constant Matrix: (Units=GPa)
#
#
# Indices 1 2 3 4 5 6 
#
# 1 95.7962 25.5300 44.0174 0.0000 0.0000 0.0000
# 2 25.5300 91.7715 29.1890 0.0000 0.0000 0.0000
# 3 44.0174 29.1890 117.5878 0.0000 0.0000 0.0000
# 4 0.0000 0.0000 0.0000 25.5850 0.0000 0.0000
# 5 0.0000 0.0000 0.0000 0.0000 12.2235 0.0000
# 6 0.0000 0.0000 0.0000 0.0000 0.0000 18.1043
#
#
#
# Elastic Compliance Matrix: (Units=1/GPa)
#
#
# Indices 1 2 3 4 5 6 
#
# 1 0.013022 -0.002250 -0.004316 0.000000 0.000000 0.000000
# 2 -0.002250 0.012219 -0.002191 0.000000 0.000000 0.000000
# 3 -0.004316 -0.002191 0.010664 0.000000 0.000000 0.000000
# 4 0.000000 0.000000 0.000000 0.039085 0.000000 0.000000
# 5 0.000000 0.000000 0.000000 0.000000 0.081810 0.000000
# 6 0.000000 0.000000 0.000000 0.000000 0.000000 0.055236
#
#
# Mechanical properties :
#
#
# Convention : Reuss Voigt Hill
#
# Bulk Modulus (GPa) = 54.37398 55.84758 55.11078
# Shear Modulus (GPa) = 21.21526 24.94382 23.07954
#
# Velocity S-wave (km/s) = 3.35027 3.63276 3.49437
# Velocity P-wave (km/s) = 6.61310 6.86607 6.74078
#
# Compressibility (1/GPa) = 0.01839115
#
# Stress axis : x y z
#
# Youngs Moduli (GPa) = 76.79581 81.83720 93.77509
#
# Poissons Ratio (x) = 0.18411 0.40473
# Poissons Ratio (y) = 0.17277 0.20547
# Poissons Ratio (z) = 0.33145 0.17931
#
# Static dielectric constant tensor:
#      x y z
#    x 1.669440 0.000000 0.000000 
#    y 0.000000 1.707330 0.000000 
#    z 0.000000 0.000000 1.677630 
# 
# From -- ./inp_files/57197.got.cif
#   From: 2010.05.17/outbox.cif.g08.bks.cpg/sg66_29_cif.got.tgz:57197.got - 2010.06.03 17:51:23.
