data_PCOD9498645
_publ_section_title
;
Structure prediction by ZEFSAII (Michael W. Deem and Ramdas Pophale) SiO2 
 PCOD9498645
Probable space group: C C C M
;
_chemical_formula_sum "Si O2"
_cell_formula_units_Z 104
_cell_length_a 27.336669
_cell_length_b 22.209383
_cell_length_c 9.459979
_cell_angle_alpha 90.000000
_cell_angle_beta 90.000000
_cell_angle_gamma 90.000000
_cell_volume 5743.442270
_symmetry_space_group_name_H-M "C C C M"
_symmetry_group_IT_number 66
_symmetry_cell_setting 'orthorhombic'
loop_
_space_group_symop_operation_xyz
x,y,z
-x,-y,z
x,-y,1/2-z
-x,y,1/2-z
-x,-y,-z
x,y,-z
-x,y,1/2+z
x,-y,1/2+z
1/2+x,1/2+y,z
1/2-x,1/2-y,z
1/2+x,1/2-y,1/2-z
1/2-x,1/2+y,1/2-z
1/2-x,1/2-y,-z
1/2+x,1/2+y,-z
1/2-x,1/2+y,1/2+z
1/2+x,1/2-y,1/2+z
loop_
_atom_site_type_symbol
_atom_site_label
_atom_site_fract_x
_atom_site_fract_y
_atom_site_fract_z
Si Si1 0.844628 0.119333 0.336428
Si Si2 0.794811 0.000000 0.250000
Si Si3 0.694720 0.725714 0.662906
Si Si4 0.047356 0.308979 0.833159
Si Si5 0.155027 0.336359 0.831572
Si Si6 0.451421 0.666935 0.331532
Si Si7 0.302201 0.055143 0.339715
O O1 0.838128 0.138677 0.500000
O O2 0.827845 0.050388 0.323069
O O3 0.812239 0.160898 0.233877
O O4 0.901386 0.131644 0.298161
O O5 0.755258 0.037228 0.157030
O O6 0.677167 0.725870 0.500000
O O7 0.750000 0.750000 0.661451
O O8 0.666727 0.771955 0.764154
O O9 0.097160 0.345110 0.806568
O O10 0.055542 0.238055 0.796898
O O11 0.000000 0.330411 0.750000
O O12 0.037696 0.310857 0.000000
O O13 0.186936 0.385347 0.749182
O O14 0.164363 0.337221 0.000000
O O15 0.500000 0.646253 0.250000
O O16 0.459316 0.662455 0.500000
O O17 0.320010 0.060260 0.500000
O O18 0.325063 0.000000 0.250000
#
# Coordination Sequence:
#
# PCOD9498645 Si02
#       7
#    16   8  16  16  16  16  16
#     4  11  22  40  61  82 113 154 197 241 291 347
#     4  10  24  38  63  82 111 154 204 240 288 342
#     4  11  24  37  53  84 120 150 188 242 293 344
#     4   9  18  33  55  85 118 149 186 229 283 349
#     4  11  21  37  60  87 118 154 193 235 289 348
#     4   9  18  35  57  83 113 148 188 235 288 346
#     4  10  22  39  59  84 115 155 198 239 284 340
#
# _framework density 18.107607000000002
#
# number of rings (size 3 to 8) (size 9 to 14) (size 15 to 20)
#    0.462    1.385    1.538    2.769    0.000    6.769 
#    0.000    0.385    0.000    2.308    0.000    3.231 
#    0.000    0.000    0.000    0.000    0.000    0.000 
#
# Total GULP energy -289836.220054 kJ/mol
# GULP energy per Si atom -5573.773463 kJ/mol
# Density = 1.806639 g / cm^3
# Si number density = 18.107607 Si / 1000 Ang^3
#
#
#
# Elastic Constant Matrix: (Units=GPa)
#
#
# Indices 1 2 3 4 5 6 
#
# 1 91.6814 31.3737 46.6790 0.0000 0.0000 0.0000
# 2 31.3737 81.9631 37.9728 0.0000 0.0000 0.0000
# 3 46.6790 37.9728 101.5681 0.0000 0.0000 0.0000
# 4 0.0000 0.0000 0.0000 -4.9789 0.0000 0.0000
# 5 0.0000 0.0000 0.0000 0.0000 8.6212 0.0000
# 6 0.0000 0.0000 0.0000 0.0000 0.0000 25.1037
#
#
#
# Elastic Compliance Matrix: (Units=1/GPa)
#
#
# Indices 1 2 3 4 5 6 
#
# 1 0.014844 -0.003050 -0.005682 0.000000 0.000000 0.000000
# 2 -0.003050 0.015383 -0.004350 0.000000 0.000000 0.000000
# 3 -0.005682 -0.004350 0.014083 0.000000 0.000000 0.000000
# 4 0.000000 0.000000 0.000000 -0.200849 0.000000 0.000000
# 5 0.000000 0.000000 0.000000 0.000000 0.115994 0.000000
# 6 0.000000 0.000000 0.000000 0.000000 0.000000 0.039835
#
#
# Mechanical properties :
#
#
# Convention : Reuss Voigt Hill
#
# Bulk Modulus (GPa) = 55.10303 56.36263 55.73283
# Shear Modulus (GPa) = 158.72922 16.36168 87.54545
#
# Velocity S-wave (km/s) = 9.37279 3.00922 6.96077
# Velocity P-wave (km/s) = 12.15027 6.57784 9.76978
#
# Compressibility (1/GPa) = 0.01814782
#
# Stress axis : x y z
#
# Youngs Moduli (GPa) = 67.36837 65.00652 71.00721
#
# Poissons Ratio (x) = 0.19824 0.40345
# Poissons Ratio (y) = 0.20544 0.30886
# Poissons Ratio (z) = 0.38278 0.28276
#
# Static dielectric constant tensor:
#      x y z
#    x 1.636630 0.000000 0.000000 
#    y 0.000000 1.636100 0.000000 
#    z 0.000000 0.000000 1.618890 
# 
# From -- ./inp_files/10384.got.cif
#   From: 2010.05.17/outbox.cif.g08.bks.cpg/sg66_6_cif.got.tgz:10384.got - 2010.06.03 17:51:23.
