data_PCOD9498565
_publ_section_title
;
Structure prediction by ZEFSAII (Michael W. Deem and Ramdas Pophale) SiO2 
 PCOD9498565
Probable space group: C C C M
;
_chemical_formula_sum "Si O2"
_cell_formula_units_Z 68
_cell_length_a 20.557771
_cell_length_b 18.552737
_cell_length_c 10.049577
_cell_angle_alpha 90.000000
_cell_angle_beta 90.000000
_cell_angle_gamma 90.000000
_cell_volume 3832.937999
_symmetry_space_group_name_H-M "C C C M"
_symmetry_group_IT_number 66
_symmetry_cell_setting 'orthorhombic'
loop_
_space_group_symop_operation_xyz
x,y,z
-x,-y,z
x,-y,1/2-z
-x,y,1/2-z
-x,-y,-z
x,y,-z
-x,y,1/2+z
x,-y,1/2+z
1/2+x,1/2+y,z
1/2-x,1/2-y,z
1/2+x,1/2-y,1/2-z
1/2-x,1/2+y,1/2-z
1/2-x,1/2-y,-z
1/2+x,1/2+y,-z
1/2-x,1/2+y,1/2+z
1/2+x,1/2-y,1/2+z
loop_
_atom_site_type_symbol
_atom_site_label
_atom_site_fract_x
_atom_site_fract_y
_atom_site_fract_z
Si Si1 0.199007 0.818975 0.500000
Si Si2 0.070582 0.727501 0.500000
Si Si3 0.753916 0.582896 0.234172
Si Si4 0.720571 0.172175 0.000000
Si Si5 0.597001 0.108043 0.710379
Si Si6 0.000000 0.500000 0.750000
Si Si7 0.429759 0.166078 0.500000
O O1 0.250000 0.750000 0.500000
O O2 0.123412 0.792466 0.500000
O O3 0.215131 0.868856 0.372221
O O4 0.089100 0.681168 0.629659
O O5 0.990680 0.722345 0.500000
O O6 0.731243 0.500000 0.250000
O O7 0.758169 0.625657 0.372867
O O8 0.829845 0.581404 0.192314
O O9 0.750000 0.250000 0.000000
O O10 0.644355 0.192712 0.000000
O O11 0.548332 0.047378 0.661458
O O12 0.573103 0.121860 0.861695
#
# Coordination Sequence:
#
# PCOD9498565 Si02
#       7
#     8   8  16   8  16   4   8
#     4  12  23  37  63  82 119 158 201 249 287 341
#     4  12  22  38  53  85 115 151 198 238 280 335
#     4  11  22  39  56  87 116 160 197 241 292 344
#     4  10  23  38  61  83 120 152 194 241 287 349
#     4  11  22  33  55  80 122 157 192 225 271 354
#     4  12  20  34  52  86 120 174 178 224 280 350
#     4  10  22  37  53  83 115 149 190 237 283 337
#
# _framework density 17.740960999999999
#
# number of rings (size 3 to 8) (size 9 to 14) (size 15 to 20)
#    0.000    0.941    5.882    1.412    3.294    1.882 
#    0.000    0.000    0.000    0.000    0.000    4.941 
#    0.000    0.000    0.000    0.000    0.000    0.000 
#
# Total GULP energy -189369.030386 kJ/mol
# GULP energy per Si atom -5569.677364 kJ/mol
# Density = 1.770058 g / cm^3
# Si number density = 17.740961 Si / 1000 Ang^3
#
#
#
# Elastic Constant Matrix: (Units=GPa)
#
#
# Indices 1 2 3 4 5 6 
#
# 1 102.4014 69.8073 47.4211 0.0000 0.0000 0.0000
# 2 69.8073 127.9062 38.0905 0.0000 0.0000 0.0000
# 3 47.4211 38.0905 83.4078 0.0000 0.0000 0.0000
# 4 0.0000 0.0000 0.0000 40.3739 0.0000 0.0000
# 5 0.0000 0.0000 0.0000 0.0000 28.3475 0.0000
# 6 0.0000 0.0000 0.0000 0.0000 0.0000 27.5370
#
#
#
# Elastic Compliance Matrix: (Units=1/GPa)
#
#
# Indices 1 2 3 4 5 6 
#
# 1 0.018362 -0.008001 -0.006786 0.000000 0.000000 0.000000
# 2 -0.008001 0.012535 -0.001176 0.000000 0.000000 0.000000
# 3 -0.006786 -0.001176 0.016384 0.000000 0.000000 0.000000
# 4 0.000000 0.000000 0.000000 0.024768 0.000000 0.000000
# 5 0.000000 0.000000 0.000000 0.000000 0.035277 0.000000
# 6 0.000000 0.000000 0.000000 0.000000 0.000000 0.036315
#
#
# Mechanical properties :
#
#
# Convention : Reuss Voigt Hill
#
# Bulk Modulus (GPa) = 65.11801 69.37256 67.24528
# Shear Modulus (GPa) = 27.67258 29.81144 28.74201
#
# Velocity S-wave (km/s) = 3.95373 4.10368 4.02940
# Velocity P-wave (km/s) = 7.59126 7.85121 7.72233
#
# Compressibility (1/GPa) = 0.01535673
#
# Stress axis : x y z
#
# Youngs Moduli (GPa) = 54.46026 79.77775 61.03395
#
# Poissons Ratio (x) = 0.63827 0.41417
# Poissons Ratio (y) = 0.43571 0.07176
# Poissons Ratio (z) = 0.36956 0.09379
#
# Static dielectric constant tensor:
#      x y z
#    x 1.640580 0.000000 0.000000 
#    y 0.000000 1.783980 0.000000 
#    z 0.000000 0.000000 1.529720 
# 
# From -- ./inp_files/16196.got.cif
#   From: 2010.05.17/outbox.cif.g08.bks.cpg/sg66_9_cif.got.tgz:16196.got - 2010.06.03 17:51:23.
