data_PCOD9498133
_publ_section_title
;
Structure prediction by ZEFSAII (Michael W. Deem and Ramdas Pophale) SiO2 
 PCOD9498133
Probable space group: C C C M
;
_chemical_formula_sum "Si O2"
_cell_formula_units_Z 52
_cell_length_a 18.815063
_cell_length_b 5.225567
_cell_length_c 23.256487
_cell_angle_alpha 90.000000
_cell_angle_beta 90.000000
_cell_angle_gamma 90.000000
_cell_volume 2286.563204
_symmetry_space_group_name_H-M "C C C M"
_symmetry_group_IT_number 66
_symmetry_cell_setting 'orthorhombic'
loop_
_space_group_symop_operation_xyz
x,y,z
-x,-y,z
x,-y,1/2-z
-x,y,1/2-z
-x,-y,-z
x,y,-z
-x,y,1/2+z
x,-y,1/2+z
1/2+x,1/2+y,z
1/2-x,1/2-y,z
1/2+x,1/2-y,1/2-z
1/2-x,1/2+y,1/2-z
1/2-x,1/2-y,-z
1/2+x,1/2+y,-z
1/2-x,1/2+y,1/2+z
1/2+x,1/2-y,1/2+z
loop_
_atom_site_type_symbol
_atom_site_label
_atom_site_fract_x
_atom_site_fract_y
_atom_site_fract_z
Si Si1 0.045422 0.759957 0.432126
Si Si2 0.189278 0.554932 0.389842
Si Si3 0.750000 0.250000 0.000000
Si Si4 0.834085 0.253002 0.779760
O O1 0.060807 0.805971 0.500000
O O2 0.119394 0.721772 0.400720
O O3 0.000000 0.500000 0.427897
O O4 0.000000 0.000000 0.411018
O O5 0.250000 0.750000 0.366941
O O6 0.215808 0.434454 0.449293
O O7 0.167582 0.324117 0.347089
O O8 0.867777 0.500000 0.750000
O O9 0.750000 0.250000 0.765547
O O10 0.864312 0.000000 0.750000
#
# Coordination Sequence:
#
# PCOD9498133 Si02
#       4
#    16  16   4  16
#     4  10  24  41  62  94 144 194 232 272 343 434
#     4  12  25  41  69 103 147 185 239 304 362 431
#     4  12  26  36  64 112 152 180 232 306 376 414
#     4  10  21  38  61  94 131 173 227 290 355 416
#
# _framework density 22.741554000000001
#
# number of rings (size 3 to 8) (size 9 to 14) (size 15 to 20)
#    0.000    1.231    3.077    3.231    4.308    0.000 
#    0.000    0.000    0.000    0.923    0.000   21.538 
#    0.000    0.000    0.000    0.000    0.000    0.000 
#
# Total GULP energy -144817.070504 kJ/mol
# GULP energy per Si atom -5569.887327 kJ/mol
# Density = 2.268979 g / cm^3
# Si number density = 22.741554 Si / 1000 Ang^3
#
#
#
# Elastic Constant Matrix: (Units=GPa)
#
#
# Indices 1 2 3 4 5 6 
#
# 1 107.9736 48.8196 17.3354 0.0000 0.0000 0.0000
# 2 48.8196 187.3609 67.3552 0.0000 0.0000 0.0000
# 3 17.3354 67.3552 149.8091 0.0000 0.0000 0.0000
# 4 0.0000 0.0000 0.0000 -27.3909 0.0000 0.0000
# 5 0.0000 0.0000 0.0000 0.0000 -8.3982 0.0000
# 6 0.0000 0.0000 0.0000 0.0000 0.0000 25.9609
#
#
#
# Elastic Compliance Matrix: (Units=1/GPa)
#
#
# Indices 1 2 3 4 5 6 
#
# 1 0.010498 -0.002742 0.000018 0.000000 0.000000 0.000000
# 2 -0.002742 0.007082 -0.002867 0.000000 0.000000 0.000000
# 3 0.000018 -0.002867 0.007962 0.000000 0.000000 0.000000
# 4 0.000000 0.000000 0.000000 -0.036508 0.000000 0.000000
# 5 0.000000 0.000000 0.000000 0.000000 -0.119074 0.000000
# 6 0.000000 0.000000 0.000000 0.000000 0.000000 0.038520
#
#
# Mechanical properties :
#
#
# Convention : Reuss Voigt Hill
#
# Bulk Modulus (GPa) = 69.63351 79.12937 74.38144
# Shear Modulus (GPa) = -66.18062 18.80992 -23.68535
#
# Velocity S-wave (km/s) = -5.40040 2.87908 -3.23073
# Velocity P-wave (km/s) = 2.86354 6.77663 4.34298
#
# Compressibility (1/GPa) = 0.01436090
#
# Stress axis : x y z
#
# Youngs Moduli (GPa) = 95.25258 141.19449 125.59483
#
# Poissons Ratio (x) = 0.38715 -0.00226
# Poissons Ratio (y) = 0.26118 0.36008
# Poissons Ratio (z) = -0.00171 0.40481
#
# Static dielectric constant tensor:
#      x y z
#    x 1.783130 0.000000 0.000000 
#    y 0.000000 1.925530 0.000000 
#    z 0.000000 0.000000 1.872730 
# 
# From -- ./inp_files/51469.got.cif
#   From: 2010.05.17/outbox.cif.g08.bks.cpg/sg66_26_cif.got.tgz:51469.got - 2010.06.03 17:51:23.
