data_PCOD9498963
_publ_section_title
;
Structure prediction by ZEFSAII (Michael W. Deem and Ramdas Pophale) SiO2 
 PCOD9498963
Probable space group: C C C M
;
_chemical_formula_sum "Si O2"
_cell_formula_units_Z 112
_cell_length_a 13.177122
_cell_length_b 31.272331
_cell_length_c 14.483925
_cell_angle_alpha 90.000000
_cell_angle_beta 90.000000
_cell_angle_gamma 90.000000
_cell_volume 5968.525977
_symmetry_space_group_name_H-M "C C C M"
_symmetry_group_IT_number 66
_symmetry_cell_setting 'orthorhombic'
loop_
_space_group_symop_operation_xyz
x,y,z
-x,-y,z
x,-y,1/2-z
-x,y,1/2-z
-x,-y,-z
x,y,-z
-x,y,1/2+z
x,-y,1/2+z
1/2+x,1/2+y,z
1/2-x,1/2-y,z
1/2+x,1/2-y,1/2-z
1/2-x,1/2+y,1/2-z
1/2-x,1/2-y,-z
1/2+x,1/2+y,-z
1/2-x,1/2+y,1/2+z
1/2+x,1/2-y,1/2+z
loop_
_atom_site_type_symbol
_atom_site_label
_atom_site_fract_x
_atom_site_fract_y
_atom_site_fract_z
Si Si1 0.899719 0.615523 0.396228
Si Si2 0.118089 0.846738 0.266523
Si Si3 0.066101 0.460134 0.105798
Si Si4 0.070264 0.767958 0.608275
Si Si5 0.331223 0.713392 0.891861
Si Si6 0.706513 0.098798 0.710564
Si Si7 0.421246 0.172737 0.888584
O O1 0.858510 0.619025 0.500000
O O2 0.824595 0.600890 0.317297
O O3 0.988311 0.579670 0.396901
O O4 0.961531 0.658803 0.371681
O O5 0.119406 0.807149 0.337931
O O6 0.171676 0.827383 0.175042
O O7 0.176828 0.888632 0.299529
O O8 0.000000 0.855602 0.250000
O O9 0.160807 0.443920 0.165419
O O10 0.000000 0.500000 0.140355
O O11 0.097323 0.469561 0.000000
O O12 0.094253 0.771299 0.500000
O O13 0.101070 0.720923 0.641515
O O14 0.947743 0.770556 0.617991
O O15 0.250000 0.750000 0.867292
O O16 0.315145 0.702876 0.000000
O O17 0.648993 0.138484 0.661160
O O18 0.408262 0.169930 0.000000
#
# Coordination Sequence:
#
# PCOD9498963 Si02
#       7
#    16  16  16  16  16  16  16
#     4   9  19  32  48  77 109 134 166 211 260 322
#     4  10  23  36  48  69 103 140 191 239 267 311
#     4   9  18  35  58  86 116 135 156 199 259 335
#     4   9  19  34  49  66  96 137 180 239 286 317
#     4   9  19  33  49  68  91 133 190 237 279 318
#     4  11  21  31  52  76 102 143 178 210 268 329
#     4   9  18  31  47  72 102 130 173 228 281 332
#
# _framework density 18.765101999999999
#
# number of rings (size 3 to 8) (size 9 to 14) (size 15 to 20)
#    0.000    2.571    0.000    3.000    4.000    5.143 
#    0.000    1.429    0.000    0.000    0.000    2.000 
#    0.000    3.429    0.000    0.000    0.000    0.000 
#
# Total GULP energy -312515.191289 kJ/mol
# GULP energy per Si atom -5580.628416 kJ/mol
# Density = 1.872239 g / cm^3
# Si number density = 18.765102 Si / 1000 Ang^3
#
#
#
# Elastic Constant Matrix: (Units=GPa)
#
#
# Indices 1 2 3 4 5 6 
#
# 1 54.4637 37.4188 33.6569 0.0000 0.0000 0.0000
# 2 37.4188 72.9147 24.9071 0.0000 0.0000 0.0000
# 3 33.6569 24.9071 64.2101 0.0000 0.0000 0.0000
# 4 0.0000 0.0000 0.0000 14.6919 0.0000 0.0000
# 5 0.0000 0.0000 0.0000 0.0000 -7.9878 0.0000
# 6 0.0000 0.0000 0.0000 0.0000 0.0000 33.0617
#
#
#
# Elastic Compliance Matrix: (Units=1/GPa)
#
#
# Indices 1 2 3 4 5 6 
#
# 1 0.036446 -0.014038 -0.013659 0.000000 0.000000 0.000000
# 2 -0.014038 0.021217 -0.000872 0.000000 0.000000 0.000000
# 3 -0.013659 -0.000872 0.023071 0.000000 0.000000 0.000000
# 4 0.000000 0.000000 0.000000 0.068065 0.000000 0.000000
# 5 0.000000 0.000000 0.000000 0.000000 -0.125190 0.000000
# 6 0.000000 0.000000 0.000000 0.000000 0.000000 0.030246
#
#
# Mechanical properties :
#
#
# Convention : Reuss Voigt Hill
#
# Bulk Modulus (GPa) = 42.37712 42.61713 42.49712
# Shear Modulus (GPa) = 42.06733 14.32687 28.19710
#
# Velocity S-wave (km/s) = 4.73989 2.76612 3.88059
# Velocity P-wave (km/s) = 7.25171 5.74126 6.54024
#
# Compressibility (1/GPa) = 0.02359764
#
# Stress axis : x y z
#
# Youngs Moduli (GPa) = 27.43775 47.13311 43.34375
#
# Poissons Ratio (x) = 0.66165 0.59201
# Poissons Ratio (y) = 0.38517 0.03778
# Poissons Ratio (z) = 0.37476 0.04108
#
# Static dielectric constant tensor:
#      x y z
#    x 1.673990 0.000000 0.000000 
#    y 0.000000 1.664820 0.000000 
#    z 0.000000 0.000000 1.698950 
# 
# From -- ./inp_files/29026.got.cif
#   From: 2010.05.17/outbox.cif.g08.bks.cpg/sg66_15_cif.got.tgz:29026.got - 2010.06.03 17:51:23.
