data_PCOD9498650
_publ_section_title
;
Structure prediction by ZEFSAII (Michael W. Deem and Ramdas Pophale) SiO2 
 PCOD9498650
Probable space group: C C C M
;
_chemical_formula_sum "Si O2"
_cell_formula_units_Z 88
_cell_length_a 18.550742
_cell_length_b 16.818929
_cell_length_c 14.120570
_cell_angle_alpha 90.000000
_cell_angle_beta 90.000000
_cell_angle_gamma 90.000000
_cell_volume 4405.668852
_symmetry_space_group_name_H-M "C C C M"
_symmetry_group_IT_number 66
_symmetry_cell_setting 'orthorhombic'
loop_
_space_group_symop_operation_xyz
x,y,z
-x,-y,z
x,-y,1/2-z
-x,y,1/2-z
-x,-y,-z
x,y,-z
-x,y,1/2+z
x,-y,1/2+z
1/2+x,1/2+y,z
1/2-x,1/2-y,z
1/2+x,1/2-y,1/2-z
1/2-x,1/2+y,1/2-z
1/2-x,1/2-y,-z
1/2+x,1/2+y,-z
1/2-x,1/2+y,1/2+z
1/2+x,1/2-y,1/2+z
loop_
_atom_site_type_symbol
_atom_site_label
_atom_site_fract_x
_atom_site_fract_y
_atom_site_fract_z
Si Si1 0.048374 0.293438 0.112022
Si Si2 0.576215 0.964853 0.114782
Si Si3 0.793488 0.416593 0.886145
Si Si4 0.819365 0.000000 0.250000
Si Si5 0.083225 0.141589 0.767280
Si Si6 0.880726 0.261592 0.888244
O O1 0.083496 0.374595 0.149626
O O2 0.078632 0.215060 0.160516
O O3 0.961634 0.297537 0.126519
O O4 0.059917 0.287775 0.000000
O O5 0.500000 0.000000 0.145110
O O6 0.639706 0.024880 0.136242
O O7 0.573330 0.959515 0.000000
O O8 0.729231 0.452850 0.825318
O O9 0.820719 0.327263 0.863203
O O10 0.780411 0.418992 0.000000
O O11 0.870160 0.933464 0.202462
O O12 0.117516 0.182122 0.673545
O O13 0.000000 0.117906 0.750000
O O14 0.873452 0.244565 0.000000
#
# Coordination Sequence:
#
# PCOD9498650 Si02
#       6
#    16  16  16   8  16  16
#     4   9  17  33  61  93 120 148 189 242 295 349
#     4   9  15  30  58  89 122 154 185 230 286 351
#     4  10  22  39  59  88 125 160 193 235 296 361
#     4  12  27  42  57  82 120 162 204 250 295 354
#     4  10  23  42  63  84 111 153 209 257 298 340
#     4   9  18  37  63  89 115 148 194 246 294 343
#
# _framework density 19.974266
#
# number of rings (size 3 to 8) (size 9 to 14) (size 15 to 20)
#    0.000    2.364    1.818    0.273    2.545    2.182 
#    0.000    2.273    0.000    8.727    0.000    0.000 
#    0.000    0.000    0.000    0.000    0.000    0.000 
#
# Total GULP energy -245732.636072 kJ/mol
# GULP energy per Si atom -5584.832638 kJ/mol
# Density = 1.992880 g / cm^3
# Si number density = 19.974266 Si / 1000 Ang^3
#
#
#
# Elastic Constant Matrix: (Units=GPa)
#
#
# Indices 1 2 3 4 5 6 
#
# 1 95.3422 72.1291 32.2579 0.0000 0.0000 0.0000
# 2 72.1291 103.8556 30.6638 0.0000 0.0000 0.0000
# 3 32.2579 30.6638 58.3775 0.0000 0.0000 0.0000
# 4 0.0000 0.0000 0.0000 -4.6149 0.0000 0.0000
# 5 0.0000 0.0000 0.0000 0.0000 22.4584 0.0000
# 6 0.0000 0.0000 0.0000 0.0000 0.0000 24.2831
#
#
#
# Elastic Compliance Matrix: (Units=1/GPa)
#
#
# Indices 1 2 3 4 5 6 
#
# 1 0.023358 -0.014690 -0.005191 0.000000 0.000000 0.000000
# 2 -0.014690 0.020635 -0.002721 0.000000 0.000000 0.000000
# 3 -0.005191 -0.002721 0.021428 0.000000 0.000000 0.000000
# 4 0.000000 0.000000 0.000000 -0.216689 0.000000 0.000000
# 5 0.000000 0.000000 0.000000 0.000000 0.044527 0.000000
# 6 0.000000 0.000000 0.000000 0.000000 0.000000 0.041181
#
#
# Mechanical properties :
#
#
# Convention : Reuss Voigt Hill
#
# Bulk Modulus (GPa) = 49.46601 58.63076 54.04839
# Shear Modulus (GPa) = -367.17829 16.59363 -175.29233
#
# Velocity S-wave (km/s) = -13.57294 2.88540 -9.37814
# Velocity P-wave (km/s) = 14.85982 6.36534 9.49465
#
# Compressibility (1/GPa) = 0.02021590
#
# Stress axis : x y z
#
# Youngs Moduli (GPa) = 42.81159 48.46231 46.66845
#
# Poissons Ratio (x) = 0.71191 0.24226
# Poissons Ratio (y) = 0.62890 0.12700
# Poissons Ratio (z) = 0.22223 0.13189
#
# Static dielectric constant tensor:
#      x y z
#    x 1.703630 0.000000 0.000000 
#    y 0.000000 1.688020 0.000000 
#    z 0.000000 0.000000 1.728240 
# 
# From -- ./inp_files/31092.got.cif
#   From: 2010.05.17/outbox.cif.g08.bks.cpg/sg66_16_cif.got.tgz:31092.got - 2010.06.03 17:51:23.
