data_PCOD9498414
_publ_section_title
;
Structure prediction by ZEFSAII (Michael W. Deem and Ramdas Pophale) SiO2 
 PCOD9498414
Probable space group: C C C M
;
_chemical_formula_sum "Si O2"
_cell_formula_units_Z 80
_cell_length_a 12.024085
_cell_length_b 22.041586
_cell_length_c 13.988441
_cell_angle_alpha 90.000000
_cell_angle_beta 90.000000
_cell_angle_gamma 90.000000
_cell_volume 3707.355170
_symmetry_space_group_name_H-M "C C C M"
_symmetry_group_IT_number 66
_symmetry_cell_setting 'orthorhombic'
loop_
_space_group_symop_operation_xyz
x,y,z
-x,-y,z
x,-y,1/2-z
-x,y,1/2-z
-x,-y,-z
x,y,-z
-x,y,1/2+z
x,-y,1/2+z
1/2+x,1/2+y,z
1/2-x,1/2-y,z
1/2+x,1/2-y,1/2-z
1/2-x,1/2+y,1/2-z
1/2-x,1/2-y,-z
1/2+x,1/2+y,-z
1/2-x,1/2+y,1/2+z
1/2+x,1/2-y,1/2+z
loop_
_atom_site_type_symbol
_atom_site_label
_atom_site_fract_x
_atom_site_fract_y
_atom_site_fract_z
Si Si1 0.774278 0.903943 0.386705
Si Si2 0.186360 0.837758 0.614756
Si Si3 0.628454 0.184643 0.767704
Si Si4 0.940308 0.202348 0.887744
Si Si5 0.120716 0.974495 0.383880
O O1 0.753847 0.904182 0.500000
O O2 0.679507 0.867340 0.334139
O O3 0.885892 0.863538 0.372052
O O4 0.794341 0.972607 0.355547
O O5 0.206435 0.835310 0.500000
O O6 0.292305 0.815818 0.674619
O O7 0.157005 0.907174 0.644569
O O8 0.071443 0.801610 0.633523
O O9 0.500000 0.170301 0.750000
O O10 0.622875 0.247887 0.825711
O O11 0.927288 0.216757 0.000000
O O12 0.117301 0.972185 0.500000
O O13 0.000000 0.000000 0.354901
#
# Coordination Sequence:
#
# PCOD9498414 Si02
#       5
#    16  16  16  16  16
#     4  10  21  40  68  99 131 168 216 274 340 403
#     4  10  23  44  70 102 135 171 223 286 348 399
#     4  12  28  41  62  92 138 184 229 269 321 403
#     4  10  22  42  69  97 130 169 218 282 344 400
#     4   9  16  37  71 103 131 163 214 284 350 400
#
# _framework density 21.578726
#
# number of rings (size 3 to 8) (size 9 to 14) (size 15 to 20)
#    0.000    1.800    2.000    1.200    5.600    4.000 
#    0.000    5.000    0.000    3.600    0.000    0.000 
#    0.000    0.000    0.000    0.000    0.000    0.000 
#
# Total GULP energy -223903.530194 kJ/mol
# GULP energy per Si atom -5597.588255 kJ/mol
# Density = 2.152961 g / cm^3
# Si number density = 21.578726 Si / 1000 Ang^3
#
#
#
# Elastic Constant Matrix: (Units=GPa)
#
#
# Indices 1 2 3 4 5 6 
#
# 1 159.8282 62.0284 75.3410 0.0000 0.0000 0.0000
# 2 62.0284 142.1517 66.9947 0.0000 0.0000 0.0000
# 3 75.3410 66.9947 116.5469 0.0000 0.0000 0.0000
# 4 0.0000 0.0000 0.0000 28.2935 0.0000 0.0000
# 5 0.0000 0.0000 0.0000 0.0000 41.9822 0.0000
# 6 0.0000 0.0000 0.0000 0.0000 0.0000 32.8111
#
#
#
# Elastic Compliance Matrix: (Units=1/GPa)
#
#
# Indices 1 2 3 4 5 6 
#
# 1 0.009281 -0.001676 -0.005036 0.000000 0.000000 0.000000
# 2 -0.001676 0.009951 -0.004637 0.000000 0.000000 0.000000
# 3 -0.005036 -0.004637 0.014501 0.000000 0.000000 0.000000
# 4 0.000000 0.000000 0.000000 0.035344 0.000000 0.000000
# 5 0.000000 0.000000 0.000000 0.000000 0.023820 0.000000
# 6 0.000000 0.000000 0.000000 0.000000 0.000000 0.030477
#
#
# Mechanical properties :
#
#
# Convention : Reuss Voigt Hill
#
# Bulk Modulus (GPa) = 90.61798 91.91722 91.26760
# Shear Modulus (GPa) = 33.38856 34.89489 34.14173
#
# Velocity S-wave (km/s) = 3.93783 4.02568 3.98200
# Velocity P-wave (km/s) = 7.92216 8.01853 7.97049
#
# Compressibility (1/GPa) = 0.01103534
#
# Stress axis : x y z
#
# Youngs Moduli (GPa) = 107.74327 100.48753 68.95995
#
# Poissons Ratio (x) = 0.16846 0.34730
# Poissons Ratio (y) = 0.18062 0.31975
# Poissons Ratio (z) = 0.54262 0.46593
#
# Static dielectric constant tensor:
#      x y z
#    x 1.759780 0.000000 0.000000 
#    y 0.000000 1.782090 0.000000 
#    z 0.000000 0.000000 1.834840 
# 
# From -- ./inp_files/26405.got.cif
#   From: 2010.05.17/outbox.cif.g08.bks.cpg/sg66_14_cif.got.tgz:26405.got - 2010.06.03 17:51:23.
