data_PCOD9498640
_publ_section_title
;
Structure prediction by ZEFSAII (Michael W. Deem and Ramdas Pophale) SiO2 
 PCOD9498640
Probable space group: C C C M
;
_chemical_formula_sum "Si O2"
_cell_formula_units_Z 128
_cell_length_a 21.922783
_cell_length_b 11.680666
_cell_length_c 27.960892
_cell_angle_alpha 90.000000
_cell_angle_beta 90.000000
_cell_angle_gamma 90.000000
_cell_volume 7160.021277
_symmetry_space_group_name_H-M "C C C M"
_symmetry_group_IT_number 66
_symmetry_cell_setting 'orthorhombic'
loop_
_space_group_symop_operation_xyz
x,y,z
-x,-y,z
x,-y,1/2-z
-x,y,1/2-z
-x,-y,-z
x,y,-z
-x,y,1/2+z
x,-y,1/2+z
1/2+x,1/2+y,z
1/2-x,1/2-y,z
1/2+x,1/2-y,1/2-z
1/2-x,1/2+y,1/2-z
1/2-x,1/2-y,-z
1/2+x,1/2+y,-z
1/2-x,1/2+y,1/2+z
1/2+x,1/2-y,1/2+z
loop_
_atom_site_type_symbol
_atom_site_label
_atom_site_fract_x
_atom_site_fract_y
_atom_site_fract_z
Si Si1 0.985940 0.294094 0.401384
Si Si2 0.828846 0.949681 0.598790
Si Si3 0.602167 0.968295 0.944508
Si Si4 0.603852 0.502164 0.304517
Si Si5 0.119110 0.728383 0.942925
Si Si6 0.502854 0.308634 0.303872
Si Si7 0.557601 0.574656 0.943944
Si Si8 0.265373 0.878020 0.556289
O O1 0.953118 0.410377 0.416411
O O2 0.940130 0.192872 0.416155
O O3 0.047439 0.257789 0.429703
O O4 0.999460 0.283752 0.345516
O O5 0.837017 0.815203 0.585783
O O6 0.848075 0.977382 0.653338
O O7 0.882173 0.003982 0.566073
O O8 0.768699 0.019205 0.583856
O O9 0.662168 0.891547 0.941084
O O10 0.625267 0.094458 0.930391
O O11 0.582869 0.976207 0.000000
O O12 0.628123 0.500000 0.250000
O O13 0.563461 0.386859 0.309934
O O14 0.554056 0.604206 0.308692
O O15 0.128118 0.744574 0.000000
O O16 0.500000 0.262867 0.250000
O O17 0.500000 0.500000 0.926447
O O18 0.549778 0.596638 0.000000
O O19 0.247580 0.886579 0.500000
O O20 0.250000 0.750000 0.573380
#
# Coordination Sequence:
#
# PCOD9498640 Si02
#       8
#    16  16  16  16  16  16  16  16
#     4  12  19  32  54  79 111 148 184 222 276 329
#     4  12  20  33  55  83 107 144 186 230 274 320
#     4  10  23  39  52  74 112 157 190 217 266 333
#     4   9  17  31  50  82 114 136 172 223 280 335
#     4  11  22  34  52  80 112 148 187 224 266 327
#     4   9  17  30  50  81 113 139 173 220 279 339
#     4  11  19  26  43  77 114 136 166 221 272 318
#     4  10  22  39  56  79 111 145 183 225 272 331
#
# _framework density 17.877041999999999
#
# number of rings (size 3 to 8) (size 9 to 14) (size 15 to 20)
#    0.000    1.500    3.750    4.125    0.000    2.500 
#    0.000    1.875    0.000    1.500    6.500    0.000 
#    0.000    0.000    0.000    0.000    0.000    0.000 
#
# Total GULP energy -356989.614165 kJ/mol
# GULP energy per Si atom -5577.962721 kJ/mol
# Density = 1.783635 g / cm^3
# Si number density = 17.877042 Si / 1000 Ang^3
#
#
#
# Elastic Constant Matrix: (Units=GPa)
#
#
# Indices 1 2 3 4 5 6 
#
# 1 30.4294 23.0398 15.8226 0.0000 0.0000 0.0000
# 2 23.0398 98.1445 42.3293 0.0000 0.0000 0.0000
# 3 15.8226 42.3293 102.2420 0.0000 0.0000 0.0000
# 4 0.0000 0.0000 0.0000 15.3201 0.0000 0.0000
# 5 0.0000 0.0000 0.0000 0.0000 14.5613 0.0000
# 6 0.0000 0.0000 0.0000 0.0000 0.0000 20.7995
#
#
#
# Elastic Compliance Matrix: (Units=1/GPa)
#
#
# Indices 1 2 3 4 5 6 
#
# 1 0.040637 -0.008311 -0.002848 0.000000 0.000000 0.000000
# 2 -0.008311 0.014104 -0.004553 0.000000 0.000000 0.000000
# 3 -0.002848 -0.004553 0.012106 0.000000 0.000000 0.000000
# 4 0.000000 0.000000 0.000000 0.065274 0.000000 0.000000
# 5 0.000000 0.000000 0.000000 0.000000 0.068675 0.000000
# 6 0.000000 0.000000 0.000000 0.000000 0.000000 0.048078
#
#
# Mechanical properties :
#
#
# Convention : Reuss Voigt Hill
#
# Bulk Modulus (GPa) = 28.23039 43.68881 35.95960
# Shear Modulus (GPa) = 17.11708 20.11112 18.61410
#
# Velocity S-wave (km/s) = 3.09769 3.35769 3.23031
# Velocity P-wave (km/s) = 5.34976 6.28679 5.83711
#
# Compressibility (1/GPa) = 0.03542281
#
# Stress axis : x y z
#
# Youngs Moduli (GPa) = 24.60825 70.90277 82.60113
#
# Poissons Ratio (x) = 0.58930 0.23523
# Poissons Ratio (y) = 0.20453 0.37607
# Poissons Ratio (z) = 0.07008 0.32281
#
# Static dielectric constant tensor:
#      x y z
#    x 1.625480 0.000000 0.000000 
#    y 0.000000 1.683410 0.000000 
#    z 0.000000 0.000000 1.617570 
# 
# From -- ./inp_files/66180.got.cif
#   From: 2010.05.17/outbox.cif.g08.bks.cpg/sg66_34_cif.got.tgz:66180.got - 2010.06.03 17:51:23.
