data_PCOD9498182
_publ_section_title
;
Structure prediction by ZEFSAII (Michael W. Deem and Ramdas Pophale) SiO2 
 PCOD9498182
Probable space group: C C C M
;
_chemical_formula_sum "Si O2"
_cell_formula_units_Z 64
_cell_length_a 14.590820
_cell_length_b 19.882929
_cell_length_c 10.670132
_cell_angle_alpha 90.000000
_cell_angle_beta 90.000000
_cell_angle_gamma 90.000000
_cell_volume 3095.493195
_symmetry_space_group_name_H-M "C C C M"
_symmetry_group_IT_number 66
_symmetry_cell_setting 'orthorhombic'
loop_
_space_group_symop_operation_xyz
x,y,z
-x,-y,z
x,-y,1/2-z
-x,y,1/2-z
-x,-y,-z
x,y,-z
-x,y,1/2+z
x,-y,1/2+z
1/2+x,1/2+y,z
1/2-x,1/2-y,z
1/2+x,1/2-y,1/2-z
1/2-x,1/2+y,1/2-z
1/2-x,1/2-y,-z
1/2+x,1/2+y,-z
1/2-x,1/2+y,1/2+z
1/2+x,1/2-y,1/2+z
loop_
_atom_site_type_symbol
_atom_site_label
_atom_site_fract_x
_atom_site_fract_y
_atom_site_fract_z
Si Si1 0.179048 0.307047 0.145614
Si Si2 0.774995 0.075504 0.000000
Si Si3 0.692151 0.420405 0.272378
Si Si4 0.500000 0.847965 0.250000
Si Si5 0.447740 0.929169 0.000000
Si Si6 0.089594 0.952939 0.500000
O O1 0.250000 0.250000 0.183345
O O2 0.225581 0.379891 0.163878
O O3 0.088658 0.303949 0.225731
O O4 0.157422 0.297260 0.000000
O O5 0.811515 0.107457 0.129933
O O6 0.822753 0.002443 0.000000
O O7 0.664231 0.069459 0.000000
O O8 0.710556 0.500000 0.250000
O O9 0.605812 0.414549 0.368119
O O10 0.519492 0.891897 0.373714
O O11 0.500000 0.000000 0.000000
O O12 0.000000 0.000000 0.500000
#
# Coordination Sequence:
#
# PCOD9498182 Si02
#       6
#    16   8  16   8   8   8
#     4  11  24  45  72  99 136 187 232 282 349 420
#     4  10  22  36  58  96 135 172 209 276 351 383
#     4  10  21  38  66  94 134 170 222 282 339 396
#     4  12  25  42  68 102 139 180 238 282 342 428
#     4  12  26  36  66 109 144 179 221 284 355 425
#     4  10  22  38  60  91 131 178 229 275 331 413
#
# _framework density 20.675218999999998
#
# number of rings (size 3 to 8) (size 9 to 14) (size 15 to 20)
#    0.000    1.250    5.000    0.375    7.000    4.500 
#    0.000    7.500    0.000    0.000    0.000    0.000 
#    0.000    0.000    0.000    0.000    0.000    0.000 
#
# Total GULP energy -178396.675925 kJ/mol
# GULP energy per Si atom -5574.896123 kJ/mol
# Density = 2.062816 g / cm^3
# Si number density = 20.675219 Si / 1000 Ang^3
#
#
#
# Elastic Constant Matrix: (Units=GPa)
#
#
# Indices 1 2 3 4 5 6 
#
# 1 118.7630 41.4381 81.1364 0.0000 0.0000 0.0000
# 2 41.4381 49.5011 24.5757 0.0000 0.0000 0.0000
# 3 81.1364 24.5757 170.2965 0.0000 0.0000 0.0000
# 4 0.0000 0.0000 0.0000 11.5528 0.0000 0.0000
# 5 0.0000 0.0000 0.0000 0.0000 34.2480 0.0000
# 6 0.0000 0.0000 0.0000 0.0000 0.0000 30.3263
#
#
#
# Elastic Compliance Matrix: (Units=1/GPa)
#
#
# Indices 1 2 3 4 5 6 
#
# 1 0.016427 -0.010627 -0.006293 0.000000 0.000000 0.000000
# 2 -0.010627 0.028636 0.000931 0.000000 0.000000 0.000000
# 3 -0.006293 0.000931 0.008736 0.000000 0.000000 0.000000
# 4 0.000000 0.000000 0.000000 0.086559 0.000000 0.000000
# 5 0.000000 0.000000 0.000000 0.000000 0.029199 0.000000
# 6 0.000000 0.000000 0.000000 0.000000 0.000000 0.032975
#
#
# Mechanical properties :
#
#
# Convention : Reuss Voigt Hill
#
# Bulk Modulus (GPa) = 45.82926 70.31789 58.07357
# Shear Modulus (GPa) = 20.67960 27.98610 24.33285
#
# Velocity S-wave (km/s) = 3.16604 3.68313 3.43433
# Velocity P-wave (km/s) = 5.96486 7.22301 6.62387
#
# Compressibility (1/GPa) = 0.02182012
#
# Stress axis : x y z
#
# Youngs Moduli (GPa) = 60.87359 34.92135 114.46789
#
# Poissons Ratio (x) = 0.37112 0.72036
# Poissons Ratio (y) = 0.64693 -0.10655
# Poissons Ratio (z) = 0.38308 -0.03251
#
# Static dielectric constant tensor:
#      x y z
#    x 1.727310 0.000000 0.000000 
#    y 0.000000 1.662430 0.000000 
#    z 0.000000 0.000000 1.883150 
# 
# From -- ./inp_files/15972.got.cif
#   From: 2010.05.17/outbox.cif.g08.bks.cpg/sg66_8_cif.got.tgz:15972.got - 2010.06.03 17:51:23.
