data_PCOD9498549
_publ_section_title
;
Structure prediction by ZEFSAII (Michael W. Deem and Ramdas Pophale) SiO2 
 PCOD9498549
Probable space group: C C C M
;
_chemical_formula_sum "Si O2"
_cell_formula_units_Z 88
_cell_length_a 14.676323
_cell_length_b 12.323933
_cell_length_c 23.790143
_cell_angle_alpha 90.000000
_cell_angle_beta 90.000000
_cell_angle_gamma 90.000000
_cell_volume 4302.923672
_symmetry_space_group_name_H-M "C C C M"
_symmetry_group_IT_number 66
_symmetry_cell_setting 'orthorhombic'
loop_
_space_group_symop_operation_xyz
x,y,z
-x,-y,z
x,-y,1/2-z
-x,y,1/2-z
-x,-y,-z
x,y,-z
-x,y,1/2+z
x,-y,1/2+z
1/2+x,1/2+y,z
1/2-x,1/2-y,z
1/2+x,1/2-y,1/2-z
1/2-x,1/2+y,1/2-z
1/2-x,1/2-y,-z
1/2+x,1/2+y,-z
1/2-x,1/2+y,1/2+z
1/2+x,1/2-y,1/2+z
loop_
_atom_site_type_symbol
_atom_site_label
_atom_site_fract_x
_atom_site_fract_y
_atom_site_fract_z
Si Si1 0.915210 0.414945 0.000000
Si Si2 0.709427 0.885134 0.000000
Si Si3 0.506159 0.629608 0.123119
Si Si4 0.929661 0.101045 0.500000
Si Si5 0.109355 0.514060 0.185963
Si Si6 0.345416 0.798209 0.377627
Si Si7 0.352148 0.213906 0.391902
O O1 0.829033 0.494034 0.000000
O O2 0.905706 0.341011 0.055424
O O3 0.000000 0.500000 0.000000
O O4 0.669579 0.824028 0.055113
O O5 0.819282 0.902256 0.000000
O O6 0.500000 0.500000 0.136074
O O7 0.578048 0.716474 0.148448
O O8 0.406538 0.679697 0.127185
O O9 0.541253 0.647092 0.059404
O O10 0.000000 0.000000 0.500000
O O11 0.140245 0.500000 0.250000
O O12 0.143041 0.416246 0.147892
O O13 0.141941 0.625407 0.157532
O O14 0.000000 0.500000 0.185023
O O15 0.250000 0.750000 0.359300
O O16 0.250000 0.250000 0.407275
#
# Coordination Sequence:
#
# PCOD9498549 Si02
#       7
#     8   8  16   8  16  16  16
#     4  12  24  41  67  99 143 176 225 276 339 404
#     4  12  22  37  66 103 130 175 229 270 324 410
#     4  11  24  40  61  96 138 179 211 265 340 399
#     4  10  22  35  57  88 146 184 207 255 323 407
#     4  11  25  48  72  95 128 179 234 286 340 397
#     4  12  23  41  70  99 133 173 225 272 330 408
#     4  12  26  43  70 103 139 177 226 283 342 405
#
# _framework density 20.451212999999999
#
# number of rings (size 3 to 8) (size 9 to 14) (size 15 to 20)
#    0.000    0.545    5.455    3.273    7.636    0.727 
#    0.000    0.000    0.000    1.091    0.000    0.000 
#    0.000    0.000    0.000    0.000    0.000    0.000 
#
# Total GULP energy -245182.177146 kJ/mol
# GULP energy per Si atom -5572.322208 kJ/mol
# Density = 2.040466 g / cm^3
# Si number density = 20.451213 Si / 1000 Ang^3
#
#
#
# Elastic Constant Matrix: (Units=GPa)
#
#
# Indices 1 2 3 4 5 6 
#
# 1 110.4194 55.4780 14.0513 0.0000 0.0000 0.0000
# 2 55.4780 164.5248 30.2037 0.0000 0.0000 0.0000
# 3 14.0513 30.2037 88.3634 0.0000 0.0000 0.0000
# 4 0.0000 0.0000 0.0000 25.8021 0.0000 0.0000
# 5 0.0000 0.0000 0.0000 0.0000 0.3328 0.0000
# 6 0.0000 0.0000 0.0000 0.0000 0.0000 47.6360
#
#
#
# Elastic Compliance Matrix: (Units=1/GPa)
#
#
# Indices 1 2 3 4 5 6 
#
# 1 0.010925 -0.003590 -0.000510 0.000000 0.000000 0.000000
# 2 -0.003590 0.007665 -0.002049 0.000000 0.000000 0.000000
# 3 -0.000510 -0.002049 0.012098 0.000000 0.000000 0.000000
# 4 0.000000 0.000000 0.000000 0.038757 0.000000 0.000000
# 5 0.000000 0.000000 0.000000 0.000000 3.004556 0.000000
# 6 0.000000 0.000000 0.000000 0.000000 0.000000 0.020993
#
#
# Mechanical properties :
#
#
# Convention : Reuss Voigt Hill
#
# Bulk Modulus (GPa) = 54.37854 62.53040 58.45447
# Shear Modulus (GPa) = 1.60595 32.32583 16.96589
#
# Velocity S-wave (km/s) = 0.88711 3.98003 2.88337
# Velocity P-wave (km/s) = 5.26274 7.19462 6.30313
#
# Compressibility (1/GPa) = 0.01838961
#
# Stress axis : x y z
#
# Youngs Moduli (GPa) = 91.53157 130.46401 82.65554
#
# Poissons Ratio (x) = 0.46841 0.04216
# Poissons Ratio (y) = 0.32863 0.16936
# Poissons Ratio (z) = 0.04669 0.26733
#
# Static dielectric constant tensor:
#      x y z
#    x 2.177060 0.000000 0.000000 
#    y 0.000000 1.764730 0.000000 
#    z 0.000000 0.000000 1.843190 
# 
# From -- ./inp_files/58029.got.cif
#   From: 2010.05.17/outbox.cif.g08.bks.cpg/sg66_30_cif.got.tgz:58029.got - 2010.06.03 17:51:23.
