data_PCOD9498192
_publ_section_title
;
Structure prediction by ZEFSAII (Michael W. Deem and Ramdas Pophale) SiO2 
 PCOD9498192
Probable space group: C C C M
;
_chemical_formula_sum "Si O2"
_cell_formula_units_Z 68
_cell_length_a 5.385583
_cell_length_b 26.475795
_cell_length_c 27.762518
_cell_angle_alpha 90.000000
_cell_angle_beta 90.000000
_cell_angle_gamma 90.000000
_cell_volume 3958.590575
_symmetry_space_group_name_H-M "C C C M"
_symmetry_group_IT_number 66
_symmetry_cell_setting 'orthorhombic'
loop_
_space_group_symop_operation_xyz
x,y,z
-x,-y,z
x,-y,1/2-z
-x,y,1/2-z
-x,-y,-z
x,y,-z
-x,y,1/2+z
x,-y,1/2+z
1/2+x,1/2+y,z
1/2-x,1/2-y,z
1/2+x,1/2-y,1/2-z
1/2-x,1/2+y,1/2-z
1/2-x,1/2-y,-z
1/2+x,1/2+y,-z
1/2-x,1/2+y,1/2+z
1/2+x,1/2-y,1/2+z
loop_
_atom_site_type_symbol
_atom_site_label
_atom_site_fract_x
_atom_site_fract_y
_atom_site_fract_z
Si Si1 0.500000 0.500000 0.250000
Si Si2 0.999212 0.282170 0.556979
Si Si3 0.890976 0.555383 0.302265
Si Si4 0.028595 0.940873 0.442370
Si Si5 0.529038 0.108277 0.899976
O O1 0.616042 0.539590 0.287897
O O2 0.993593 0.296102 0.500000
O O3 0.750000 0.250000 0.566569
O O4 0.250000 0.250000 0.564885
O O5 0.005469 0.332885 0.587946
O O6 0.936431 0.594526 0.343995
O O7 0.000000 0.500000 0.315923
O O8 0.000000 0.569531 0.250000
O O9 0.051989 0.936067 0.500000
O O10 0.278353 0.918663 0.418882
O O11 0.777564 0.912967 0.425655
O O12 0.000000 0.000000 0.430143
#
# Coordination Sequence:
#
# PCOD9498192 Si02
#       5
#     4  16  16  16  16
#     4   8  18  36  56  78 122 152 190 236 278 332
#     4  10  21  39  59  81 111 148 197 251 291 335
#     4   9  20  35  56  85 117 151 192 236 282 345
#     4  11  23  36  52  84 124 155 186 227 281 358
#     4  12  23  36  62  84 113 158 198 235 294 346
#
# _framework density 17.177831999999999
#
# number of rings (size 3 to 8) (size 9 to 14) (size 15 to 20)
#    0.000    1.882    0.000    5.647    8.235    3.765 
#    0.000    0.000    0.000    1.412    0.000    0.000 
#    0.000    0.000    0.000    0.000    0.000    0.000 
#
# Total GULP energy -189511.729597 kJ/mol
# GULP energy per Si atom -5573.874400 kJ/mol
# Density = 1.713873 g / cm^3
# Si number density = 17.177832 Si / 1000 Ang^3
#
#
#
# Elastic Constant Matrix: (Units=GPa)
#
#
# Indices 1 2 3 4 5 6 
#
# 1 128.2663 62.8057 53.5243 0.0000 0.0000 0.0000
# 2 62.8057 140.0585 96.3624 0.0000 0.0000 0.0000
# 3 53.5243 96.3624 112.6652 0.0000 0.0000 0.0000
# 4 0.0000 0.0000 0.0000 48.7384 0.0000 0.0000
# 5 0.0000 0.0000 0.0000 0.0000 60.2186 0.0000
# 6 0.0000 0.0000 0.0000 0.0000 0.0000 25.3446
#
#
#
# Elastic Compliance Matrix: (Units=1/GPa)
#
#
# Indices 1 2 3 4 5 6 
#
# 1 0.010224 -0.003020 -0.002274 0.000000 0.000000 0.000000
# 2 -0.003020 0.018241 -0.014167 0.000000 0.000000 0.000000
# 3 -0.002274 -0.014167 0.022073 0.000000 0.000000 0.000000
# 4 0.000000 0.000000 0.000000 0.020518 0.000000 0.000000
# 5 0.000000 0.000000 0.000000 0.000000 0.016606 0.000000
# 6 0.000000 0.000000 0.000000 0.000000 0.000000 0.039456
#
#
# Mechanical properties :
#
#
# Convention : Reuss Voigt Hill
#
# Bulk Modulus (GPa) = 86.08664 89.59718 87.84191
# Shear Modulus (GPa) = 29.42688 38.08016 33.75352
#
# Velocity S-wave (km/s) = 4.14342 4.71342 4.43758
# Velocity P-wave (km/s) = 8.55069 9.04951 8.80363
#
# Compressibility (1/GPa) = 0.01161620
#
# Stress axis : x y z
#
# Youngs Moduli (GPa) = 97.80880 54.82091 45.30392
#
# Poissons Ratio (x) = 0.16557 0.10302
# Poissons Ratio (y) = 0.29539 0.64182
# Poissons Ratio (z) = 0.22242 0.77664
#
# Static dielectric constant tensor:
#      x y z
#    x 1.656880 0.000000 0.000000 
#    y 0.000000 1.547570 0.000000 
#    z 0.000000 0.000000 1.566850 
# 
# From -- ./inp_files/61325.got.cif
#   From: 2010.05.17/outbox.cif.g08.bks.cpg/sg66_31_cif.got.tgz:61325.got - 2010.06.03 17:51:23.
