data_PCOD9498450
_publ_section_title
;
Structure prediction by ZEFSAII (Michael W. Deem and Ramdas Pophale) SiO2 
 PCOD9498450
Probable space group: C C C M
;
_chemical_formula_sum "Si O2"
_cell_formula_units_Z 96
_cell_length_a 9.168774
_cell_length_b 21.083878
_cell_length_c 26.181849
_cell_angle_alpha 90.000000
_cell_angle_beta 90.000000
_cell_angle_gamma 90.000000
_cell_volume 5061.299956
_symmetry_space_group_name_H-M "C C C M"
_symmetry_group_IT_number 66
_symmetry_cell_setting 'orthorhombic'
loop_
_space_group_symop_operation_xyz
x,y,z
-x,-y,z
x,-y,1/2-z
-x,y,1/2-z
-x,-y,-z
x,y,-z
-x,y,1/2+z
x,-y,1/2+z
1/2+x,1/2+y,z
1/2-x,1/2-y,z
1/2+x,1/2-y,1/2-z
1/2-x,1/2+y,1/2-z
1/2-x,1/2-y,-z
1/2+x,1/2+y,-z
1/2-x,1/2+y,1/2+z
1/2+x,1/2-y,1/2+z
loop_
_atom_site_type_symbol
_atom_site_label
_atom_site_fract_x
_atom_site_fract_y
_atom_site_fract_z
Si Si1 0.933490 0.910423 0.694886
Si Si2 0.716543 0.582191 0.868665
Si Si3 0.588049 0.274977 0.853664
Si Si4 0.963455 0.648624 0.190094
Si Si5 0.136439 0.808090 0.559534
Si Si6 0.137927 0.534962 0.166251
O O1 0.899984 0.837585 0.680881
O O2 0.785561 0.950461 0.695518
O O3 0.000000 0.915250 0.750000
O O4 0.055301 0.930388 0.653328
O O5 0.705139 0.627465 0.917455
O O6 0.807048 0.516883 0.875049
O O7 0.803608 0.623649 0.825635
O O8 0.750000 0.250000 0.863447
O O9 0.494587 0.220699 0.825111
O O10 0.502420 0.292776 0.905167
O O11 0.070764 0.604079 0.155826
O O12 0.000000 0.639256 0.250000
O O13 0.101038 0.814642 0.500000
O O14 0.250000 0.750000 0.565369
O O15 0.000000 0.500000 0.192095
#
# Coordination Sequence:
#
# PCOD9498450 Si02
#       6
#    16  16  16  16  16  16
#     4  11  22  36  56  88 122 169 207 253 302 367
#     4  10  22  36  60  87 122 156 211 259 300 370
#     4  11  22  38  60  89 126 159 205 265 315 375
#     4  11  21  36  56  88 128 170 205 242 303 374
#     4  10  21  41  67  90 117 158 210 268 329 377
#     4  10  22  38  56  81 120 168 203 250 300 366
#
# _framework density 18.967459999999999
#
# number of rings (size 3 to 8) (size 9 to 14) (size 15 to 20)
#    0.000    1.500    3.333    2.000    0.000    7.333 
#    0.000    0.000    0.000   13.500    0.000    0.000 
#    0.000    0.000    0.000    0.000    0.000    0.000 
#
# Total GULP energy -267663.825763 kJ/mol
# GULP energy per Si atom -5576.329703 kJ/mol
# Density = 1.892429 g / cm^3
# Si number density = 18.967460 Si / 1000 Ang^3
#
#
#
# Elastic Constant Matrix: (Units=GPa)
#
#
# Indices 1 2 3 4 5 6 
#
# 1 112.1060 32.1156 17.4002 0.0000 0.0000 0.0000
# 2 32.1156 117.2472 22.3352 0.0000 0.0000 0.0000
# 3 17.4002 22.3352 52.2469 0.0000 0.0000 0.0000
# 4 0.0000 0.0000 0.0000 6.5028 0.0000 0.0000
# 5 0.0000 0.0000 0.0000 0.0000 13.3528 0.0000
# 6 0.0000 0.0000 0.0000 0.0000 0.0000 34.9886
#
#
#
# Elastic Compliance Matrix: (Units=1/GPa)
#
#
# Indices 1 2 3 4 5 6 
#
# 1 0.009935 -0.002276 -0.002336 0.000000 0.000000 0.000000
# 2 -0.002276 0.009807 -0.003434 0.000000 0.000000 0.000000
# 3 -0.002336 -0.003434 0.021386 0.000000 0.000000 0.000000
# 4 0.000000 0.000000 0.000000 0.153780 0.000000 0.000000
# 5 0.000000 0.000000 0.000000 0.000000 0.074890 0.000000
# 6 0.000000 0.000000 0.000000 0.000000 0.000000 0.028581
#
#
# Mechanical properties :
#
#
# Convention : Reuss Voigt Hill
#
# Bulk Modulus (GPa) = 39.94385 47.25577 43.59981
# Shear Modulus (GPa) = 15.48871 24.95212 20.22042
#
# Velocity S-wave (km/s) = 2.86071 3.63095 3.26860
# Velocity P-wave (km/s) = 5.65830 6.52277 6.10586
#
# Compressibility (1/GPa) = 0.02503514
#
# Stress axis : x y z
#
# Youngs Moduli (GPa) = 100.65680 101.97094 46.75996
#
# Poissons Ratio (x) = 0.23212 0.10921
# Poissons Ratio (y) = 0.22913 0.16058
# Poissons Ratio (z) = 0.23509 0.35019
#
# Static dielectric constant tensor:
#      x y z
#    x 1.692580 0.000000 0.000000 
#    y 0.000000 1.726290 0.000000 
#    z 0.000000 0.000000 1.599770 
# 
# From -- ./inp_files/62606.got.cif
#   From: 2010.05.17/outbox.cif.g08.bks.cpg/sg66_32_cif.got.tgz:62606.got - 2010.06.03 17:51:23.
