data_PCOD9498290
_publ_section_title
;
Structure prediction by ZEFSAII (Michael W. Deem and Ramdas Pophale) SiO2 
 PCOD9498290
Probable space group: C C C M
;
_chemical_formula_sum "Si O2"
_cell_formula_units_Z 104
_cell_length_a 10.284357
_cell_length_b 18.031310
_cell_length_c 28.040971
_cell_angle_alpha 90.000000
_cell_angle_beta 90.000000
_cell_angle_gamma 90.000000
_cell_volume 5199.929698
_symmetry_space_group_name_H-M "C C C M"
_symmetry_group_IT_number 66
_symmetry_cell_setting 'orthorhombic'
loop_
_space_group_symop_operation_xyz
x,y,z
-x,-y,z
x,-y,1/2-z
-x,y,1/2-z
-x,-y,-z
x,y,-z
-x,y,1/2+z
x,-y,1/2+z
1/2+x,1/2+y,z
1/2-x,1/2-y,z
1/2+x,1/2-y,1/2-z
1/2-x,1/2+y,1/2-z
1/2-x,1/2-y,-z
1/2+x,1/2+y,-z
1/2-x,1/2+y,1/2+z
1/2+x,1/2-y,1/2+z
loop_
_atom_site_type_symbol
_atom_site_label
_atom_site_fract_x
_atom_site_fract_y
_atom_site_fract_z
Si Si1 0.302874 0.920918 0.667735
Si Si2 0.860393 0.192451 0.602784
Si Si3 0.052875 0.915769 0.053269
Si Si4 0.348091 0.400640 0.256385
Si Si5 0.762709 0.580772 0.636480
Si Si6 0.750000 0.750000 0.268312
Si Si7 0.968381 0.690455 0.339297
O O1 0.210407 0.868881 0.635721
O O2 0.231643 0.944257 0.716480
O O3 0.429012 0.871102 0.678900
O O4 0.323429 0.998439 0.640275
O O5 0.750000 0.250000 0.584567
O O6 0.942022 0.144941 0.564888
O O7 0.957507 0.243635 0.634049
O O8 0.157108 0.912547 0.095432
O O9 0.105292 0.902638 0.000000
O O10 0.000000 0.000000 0.054592
O O11 0.500000 0.414436 0.250000
O O12 0.304645 0.404029 0.311583
O O13 0.310246 0.317276 0.239605
O O14 0.871721 0.642614 0.627899
O O15 0.872505 0.722333 0.299275
#
# Coordination Sequence:
#
# PCOD9498290 Si02
#       7
#    16  16  16  16  16   8  16
#     4  11  22  38  62  90 127 175 212 253 311 385
#     4  10  21  39  65  94 127 165 211 261 315 382
#     4  11  23  42  70  95 124 165 214 272 334 391
#     4  11  24  34  58  88 125 168 214 256 306 368
#     4  11  23  41  61  91 125 166 213 265 314 382
#     4  10  22  34  52  82 123 168 207 262 294 376
#     4  10  22  40  61  89 131 166 209 259 322 367
#
# _framework density 20.000271000000001
#
# number of rings (size 3 to 8) (size 9 to 14) (size 15 to 20)
#    0.000    1.385    1.538    4.615    5.385    2.769 
#    0.000    4.615    0.000    2.769    0.000    0.000 
#    0.000    0.000    0.000    0.000    0.000    0.000 
#
# Total GULP energy -290373.981808 kJ/mol
# GULP energy per Si atom -5584.115035 kJ/mol
# Density = 1.995475 g / cm^3
# Si number density = 20.000271 Si / 1000 Ang^3
#
#
#
# Elastic Constant Matrix: (Units=GPa)
#
#
# Indices 1 2 3 4 5 6 
#
# 1 77.6160 9.3138 12.2740 0.0000 0.0000 0.0000
# 2 9.3138 98.8505 2.2183 0.0000 0.0000 0.0000
# 3 12.2740 2.2183 64.9442 0.0000 0.0000 0.0000
# 4 0.0000 0.0000 0.0000 13.6515 0.0000 0.0000
# 5 0.0000 0.0000 0.0000 0.0000 166.9865 0.0000
# 6 0.0000 0.0000 0.0000 0.0000 0.0000 12.9184
#
#
#
# Elastic Compliance Matrix: (Units=1/GPa)
#
#
# Indices 1 2 3 4 5 6 
#
# 1 0.013424 -0.001209 -0.002496 0.000000 0.000000 0.000000
# 2 -0.001209 0.010233 -0.000121 0.000000 0.000000 0.000000
# 3 -0.002496 -0.000121 0.015874 0.000000 0.000000 0.000000
# 4 0.000000 0.000000 0.000000 0.073252 0.000000 0.000000
# 5 0.000000 0.000000 0.000000 0.000000 0.005989 0.000000
# 6 0.000000 0.000000 0.000000 0.000000 0.000000 0.077409
#
#
# Mechanical properties :
#
#
# Convention : Reuss Voigt Hill
#
# Bulk Modulus (GPa) = 31.36851 32.11364 31.74108
# Shear Modulus (GPa) = 23.31465 53.21824 38.26644
#
# Velocity S-wave (km/s) = 3.41796 5.16396 4.37887
# Velocity P-wave (km/s) = 5.59417 7.18657 6.43978
#
# Compressibility (1/GPa) = 0.03187910
#
# Stress axis : x y z
#
# Youngs Moduli (GPa) = 74.49532 97.72403 62.99758
#
# Poissons Ratio (x) = 0.11813 0.15722
# Poissons Ratio (y) = 0.09005 0.00763
# Poissons Ratio (z) = 0.18592 0.01183
#
# Static dielectric constant tensor:
#      x y z
#    x 1.710000 0.000000 0.000000 
#    y 0.000000 1.657320 0.000000 
#    z 0.000000 0.000000 1.680420 
# 
# From -- ./inp_files/62690.got.cif
#   From: 2010.05.17/outbox.cif.g08.bks.cpg/sg66_32_cif.got.tgz:62690.got - 2010.06.03 17:51:23.
