data_PCOD9498059
_publ_section_title
;
Structure prediction by ZEFSAII (Michael W. Deem and Ramdas Pophale) SiO2 
 PCOD9498059
Probable space group: C C C M
;
_chemical_formula_sum "Si O2"
_cell_formula_units_Z 80
_cell_length_a 27.367079
_cell_length_b 18.161512
_cell_length_c 8.482461
_cell_angle_alpha 90.000000
_cell_angle_beta 90.000000
_cell_angle_gamma 90.000000
_cell_volume 4216.016670
_symmetry_space_group_name_H-M "C C C M"
_symmetry_group_IT_number 66
_symmetry_cell_setting 'orthorhombic'
loop_
_space_group_symop_operation_xyz
x,y,z
-x,-y,z
x,-y,1/2-z
-x,y,1/2-z
-x,-y,-z
x,y,-z
-x,y,1/2+z
x,-y,1/2+z
1/2+x,1/2+y,z
1/2-x,1/2-y,z
1/2+x,1/2-y,1/2-z
1/2-x,1/2+y,1/2-z
1/2-x,1/2-y,-z
1/2+x,1/2+y,-z
1/2-x,1/2+y,1/2+z
1/2+x,1/2-y,1/2+z
loop_
_atom_site_type_symbol
_atom_site_label
_atom_site_fract_x
_atom_site_fract_y
_atom_site_fract_z
Si Si1 0.818898 0.619579 0.815314
Si Si2 0.948007 0.264290 0.686053
Si Si3 0.421685 0.921466 0.184826
Si Si4 0.844467 0.224560 0.187265
Si Si5 0.713703 0.422793 0.811360
O O1 0.863368 0.585411 0.715697
O O2 0.820413 0.706833 0.778275
O O3 0.766851 0.588432 0.765239
O O4 0.828358 0.606761 0.000000
O O5 0.944158 0.253620 0.500000
O O6 0.943521 0.351439 0.724685
O O7 0.901686 0.227374 0.770772
O O8 0.000000 0.238058 0.750000
O O9 0.438291 0.000000 0.250000
O O10 0.431984 0.914580 0.000000
O O11 0.819499 0.147540 0.229073
O O12 0.838129 0.237189 0.000000
O O13 0.693067 0.500000 0.750000
O O14 0.719003 0.425077 0.000000
#
# Coordination Sequence:
#
# PCOD9498059 Si02
#       5
#    16  16  16  16  16
#     4  11  21  34  54  80 111 148 187 222 261 313
#     4  11  22  38  59  82 106 137 178 222 271 323
#     4  11  21  35  53  77 111 147 184 224 267 314
#     4  10  21  38  58  81 109 142 180 223 269 317
#     4  11  23  37  55  80 112 146 181 222 268 318
#
# _framework density 18.975256999999999
#
# number of rings (size 3 to 8) (size 9 to 14) (size 15 to 20)
#    0.000    1.200    0.000   10.200    0.000    6.000 
#    0.000    2.000    0.000    0.600    0.000    4.200 
#    0.000    0.000    0.000    0.000    0.000    0.000 
#
# Total GULP energy -223790.123937 kJ/mol
# GULP energy per Si atom -5594.753098 kJ/mol
# Density = 1.893207 g / cm^3
# Si number density = 18.975257 Si / 1000 Ang^3
#
#
#
# Elastic Constant Matrix: (Units=GPa)
#
#
# Indices 1 2 3 4 5 6 
#
# 1 58.9962 13.2871 -14.0485 0.0000 0.0000 0.0000
# 2 13.2871 66.9492 -3.3268 0.0000 0.0000 0.0000
# 3 -14.0485 -3.3268 53.0389 0.0000 0.0000 0.0000
# 4 0.0000 0.0000 0.0000 -41.0255 0.0000 0.0000
# 5 0.0000 0.0000 0.0000 0.0000 104.1398 0.0000
# 6 0.0000 0.0000 0.0000 0.0000 0.0000 -5.0575
#
#
#
# Elastic Compliance Matrix: (Units=1/GPa)
#
#
# Indices 1 2 3 4 5 6 
#
# 1 0.018879 -0.003509 0.004780 0.000000 0.000000 0.000000
# 2 -0.003509 0.015636 0.000051 0.000000 0.000000 0.000000
# 3 0.004780 0.000051 0.020123 0.000000 0.000000 0.000000
# 4 0.000000 0.000000 0.000000 -0.024375 0.000000 0.000000
# 5 0.000000 0.000000 0.000000 0.000000 0.009602 0.000000
# 6 0.000000 0.000000 0.000000 0.000000 0.000000 -0.197728
#
#
# Mechanical properties :
#
#
# Convention : Reuss Voigt Hill
#
# Bulk Modulus (GPa) = 17.45727 18.97867 18.21797
# Shear Modulus (GPa) = -35.35758 23.81620 -5.77069
#
# Velocity S-wave (km/s) = -4.32134 3.54661 -1.74579
# Velocity P-wave (km/s) = 3.95963 5.17636 2.35755
#
# Compressibility (1/GPa) = 0.05728273
#
# Stress axis : x y z
#
# Youngs Moduli (GPa) = 52.96912 63.95614 49.69322
#
# Poissons Ratio (x) = 0.22444 -0.23755
# Poissons Ratio (y) = 0.18588 -0.00255
# Poissons Ratio (z) = -0.25321 -0.00328
#
# Static dielectric constant tensor:
#      x y z
#    x 1.665180 0.000000 0.000000 
#    y 0.000000 1.657350 0.000000 
#    z 0.000000 0.000000 1.634880 
# 
# From -- ./inp_files/6689.got.cif
#   From: 2010.05.17/outbox.cif.g08.bks.cpg/sg66_4_cif.got.tgz:6689.got - 2010.06.03 17:51:23.
