data_PCOD9498065
_publ_section_title
;
Structure prediction by ZEFSAII (Michael W. Deem and Ramdas Pophale) SiO2 
 PCOD9498065
Probable space group: C C C M
;
_chemical_formula_sum "Si O2"
_cell_formula_units_Z 88
_cell_length_a 12.113157
_cell_length_b 11.053906
_cell_length_c 32.831158
_cell_angle_alpha 90.000000
_cell_angle_beta 90.000000
_cell_angle_gamma 90.000000
_cell_volume 4396.016506
_symmetry_space_group_name_H-M "C C C M"
_symmetry_group_IT_number 66
_symmetry_cell_setting 'orthorhombic'
loop_
_space_group_symop_operation_xyz
x,y,z
-x,-y,z
x,-y,1/2-z
-x,y,1/2-z
-x,-y,-z
x,y,-z
-x,y,1/2+z
x,-y,1/2+z
1/2+x,1/2+y,z
1/2-x,1/2-y,z
1/2+x,1/2-y,1/2-z
1/2-x,1/2+y,1/2-z
1/2-x,1/2-y,-z
1/2+x,1/2+y,-z
1/2-x,1/2+y,1/2+z
1/2+x,1/2-y,1/2+z
loop_
_atom_site_type_symbol
_atom_site_label
_atom_site_fract_x
_atom_site_fract_y
_atom_site_fract_z
Si Si1 0.430713 0.810175 0.629788
Si Si2 0.178931 0.070093 0.545032
Si Si3 0.518398 0.356949 0.798364
Si Si4 0.554241 0.687158 0.954233
Si Si5 0.665895 0.943434 0.621280
Si Si6 0.250000 0.250000 0.319752
O O1 0.447254 0.719020 0.667777
O O2 0.403161 0.752972 0.585941
O O3 0.547675 0.877689 0.622110
O O4 0.345869 0.919321 0.636381
O O5 0.223897 0.093934 0.500000
O O6 0.273830 0.068185 0.578209
O O7 0.076611 0.161382 0.552458
O O8 0.118107 0.940302 0.544755
O O9 0.500000 0.500000 0.809885
O O10 0.500000 0.353836 0.750000
O O11 0.636439 0.286200 0.798685
O O12 0.568067 0.741601 0.000000
O O13 0.736167 0.867103 0.652457
#
# Coordination Sequence:
#
# PCOD9498065 Si02
#       6
#    16  16  16  16  16   8
#     4  10  22  38  60  88 124 157 204 256 312 367
#     4   9  18  33  54  81 116 161 207 250 304 368
#     4  10  23  46  68  96 129 164 208 259 314 386
#     4   9  19  34  54  83 119 159 203 255 306 362
#     4  10  21  38  58  88 118 163 203 252 315 371
#     4  10  22  44  67  90 128 164 205 262 320 378
#
# _framework density 20.018122999999999
#
# number of rings (size 3 to 8) (size 9 to 14) (size 15 to 20)
#    0.000    2.364    0.000    3.273    5.091    2.182 
#    6.545   12.273    0.000    0.000    0.000    0.000 
#    0.000    0.000    0.000    0.000    0.000    0.000 
#
# Total GULP energy -245012.702165 kJ/mol
# GULP energy per Si atom -5568.470504 kJ/mol
# Density = 1.997256 g / cm^3
# Si number density = 20.018123 Si / 1000 Ang^3
#
#
#
# Elastic Constant Matrix: (Units=GPa)
#
#
# Indices 1 2 3 4 5 6 
#
# 1 25.3739 15.8310 27.5775 0.0000 0.0000 0.0000
# 2 15.8310 124.0820 85.9154 0.0000 0.0000 0.0000
# 3 27.5775 85.9154 130.7060 0.0000 0.0000 0.0000
# 4 0.0000 0.0000 0.0000 -229.6077 0.0000 0.0000
# 5 0.0000 0.0000 0.0000 0.0000 16.2084 0.0000
# 6 0.0000 0.0000 0.0000 0.0000 0.0000 11.7345
#
#
#
# Elastic Compliance Matrix: (Units=1/GPa)
#
#
# Indices 1 2 3 4 5 6 
#
# 1 0.051342 0.001744 -0.011979 0.000000 0.000000 0.000000
# 2 0.001744 0.014850 -0.010129 0.000000 0.000000 0.000000
# 3 -0.011979 -0.010129 0.016836 0.000000 0.000000 0.000000
# 4 0.000000 0.000000 0.000000 -0.004355 0.000000 0.000000
# 5 0.000000 0.000000 0.000000 0.000000 0.061696 0.000000
# 6 0.000000 0.000000 0.000000 0.000000 0.000000 0.085219
#
#
# Mechanical properties :
#
#
# Convention : Reuss Voigt Hill
#
# Bulk Modulus (GPa) = 23.64081 59.86773 41.75427
# Shear Modulus (GPa) = 17.83061 -30.27710 -6.22325
#
# Velocity S-wave (km/s) = 2.98774 -3.89329 -1.76509
# Velocity P-wave (km/s) = 4.87211 3.12433 4.09261
#
# Compressibility (1/GPa) = 0.04229973
#
# Stress axis : x y z
#
# Youngs Moduli (GPa) = 19.47737 67.33871 59.39559
#
# Poissons Ratio (x) = -0.11742 0.71148
# Poissons Ratio (y) = -0.03396 0.60163
# Poissons Ratio (z) = 0.23331 0.68209
#
# Static dielectric constant tensor:
#      x y z
#    x 1.812020 0.000000 0.000000 
#    y 0.000000 1.727590 0.000000 
#    z 0.000000 0.000000 1.695720 
# 
# From -- ./inp_files/68873.got.cif
#   From: 2010.05.17/outbox.cif.g08.bks.cpg/sg66_35_cif.got.tgz:68873.got - 2010.06.03 17:51:23.
