data_PCOD9498259
_publ_section_title
;
Structure prediction by ZEFSAII (Michael W. Deem and Ramdas Pophale) SiO2 
 PCOD9498259
Probable space group: C C C M
;
_chemical_formula_sum "Si O2"
_cell_formula_units_Z 80
_cell_length_a 14.289685
_cell_length_b 14.514777
_cell_length_c 15.716118
_cell_angle_alpha 90.000000
_cell_angle_beta 90.000000
_cell_angle_gamma 90.000000
_cell_volume 3259.705041
_symmetry_space_group_name_H-M "C C C M"
_symmetry_group_IT_number 66
_symmetry_cell_setting 'orthorhombic'
loop_
_space_group_symop_operation_xyz
x,y,z
-x,-y,z
x,-y,1/2-z
-x,y,1/2-z
-x,-y,-z
x,y,-z
-x,y,1/2+z
x,-y,1/2+z
1/2+x,1/2+y,z
1/2-x,1/2-y,z
1/2+x,1/2-y,1/2-z
1/2-x,1/2+y,1/2-z
1/2-x,1/2-y,-z
1/2+x,1/2+y,-z
1/2-x,1/2+y,1/2+z
1/2+x,1/2-y,1/2+z
loop_
_atom_site_type_symbol
_atom_site_label
_atom_site_fract_x
_atom_site_fract_y
_atom_site_fract_z
Si Si1 0.553287 0.404699 0.098255
Si Si2 0.636249 0.700369 0.096734
Si Si3 0.089974 0.406492 0.907366
Si Si4 0.284867 0.390682 0.266517
Si Si5 0.082794 0.597393 0.180415
O O1 0.500000 0.500000 0.123415
O O2 0.472119 0.329141 0.101574
O O3 0.637121 0.379038 0.160615
O O4 0.584821 0.416590 0.000000
O O5 0.641956 0.810427 0.103692
O O6 0.683200 0.654188 0.178135
O O7 0.666718 0.672977 0.000000
O O8 0.105806 0.488896 0.840222
O O9 0.979616 0.381485 0.902155
O O10 0.114372 0.443035 0.000000
O O11 0.282274 0.500000 0.250000
O O12 0.181721 0.358418 0.297841
O O13 0.000000 0.618070 0.250000
#
# Coordination Sequence:
#
# PCOD9498259 Si02
#       5
#    16  16  16  16  16
#     4  10  21  39  63  97 141 178 226 294 360 434
#     4  10  23  43  70 104 142 184 237 296 354 427
#     4  10  21  44  73  97 136 184 231 299 363 419
#     4  12  23  38  70 101 134 189 237 285 362 433
#     4  11  24  44  66  99 140 181 233 295 357 428
#
# _framework density 24.542096999999998
#
# number of rings (size 3 to 8) (size 9 to 14) (size 15 to 20)
#    0.000    1.400    2.000    5.400    0.000    4.800 
#    0.000   15.000    0.000   13.200    0.000    1.400 
#    0.000    0.000    0.000    0.000    0.000    0.000 
#
# Total GULP energy -223501.313209 kJ/mol
# GULP energy per Si atom -5587.532830 kJ/mol
# Density = 2.448624 g / cm^3
# Si number density = 24.542097 Si / 1000 Ang^3
#
#
#
# Elastic Constant Matrix: (Units=GPa)
#
#
# Indices 1 2 3 4 5 6 
#
# 1 188.6609 25.2616 118.7158 0.0000 0.0000 0.0000
# 2 25.2616 83.6425 48.5060 0.0000 0.0000 0.0000
# 3 118.7158 48.5060 190.2510 0.0000 0.0000 0.0000
# 4 0.0000 0.0000 0.0000 32.7162 0.0000 0.0000
# 5 0.0000 0.0000 0.0000 0.0000 29.7286 0.0000
# 6 0.0000 0.0000 0.0000 0.0000 0.0000 17.2000
#
#
#
# Elastic Compliance Matrix: (Units=1/GPa)
#
#
# Indices 1 2 3 4 5 6 
#
# 1 0.008754 0.000615 -0.005619 0.000000 0.000000 0.000000
# 2 0.000615 0.014073 -0.003972 0.000000 0.000000 0.000000
# 3 -0.005619 -0.003972 0.009775 0.000000 0.000000 0.000000
# 4 0.000000 0.000000 0.000000 0.030566 0.000000 0.000000
# 5 0.000000 0.000000 0.000000 0.000000 0.033638 0.000000
# 6 0.000000 0.000000 0.000000 0.000000 0.000000 0.058140
#
#
# Mechanical properties :
#
#
# Convention : Reuss Voigt Hill
#
# Bulk Modulus (GPa) = 68.25827 94.16901 81.21364
# Shear Modulus (GPa) = 28.12436 33.93367 31.02902
#
# Velocity S-wave (km/s) = 3.38888 3.72246 3.55958
# Velocity P-wave (km/s) = 6.57159 7.54515 7.07514
#
# Compressibility (1/GPa) = 0.01465024
#
# Stress axis : x y z
#
# Youngs Moduli (GPa) = 114.23115 71.05680 102.29883
#
# Poissons Ratio (x) = -0.04369 0.57485
# Poissons Ratio (y) = -0.07023 0.40631
# Poissons Ratio (z) = 0.64190 0.28222
#
# Static dielectric constant tensor:
#      x y z
#    x 1.991080 0.000000 0.000000 
#    y 0.000000 2.009330 0.000000 
#    z 0.000000 0.000000 1.995290 
# 
# From -- ./inp_files/40411.got.cif
#   From: 2010.05.17/outbox.cif.g08.bks.cpg/sg66_21_cif.got.tgz:40411.got - 2010.06.03 17:51:23.
