data_PCOD9498937
_publ_section_title
;
Structure prediction by ZEFSAII (Michael W. Deem and Ramdas Pophale) SiO2 
 PCOD9498937
Probable space group: C C C M
;
_chemical_formula_sum "Si O2"
_cell_formula_units_Z 40
_cell_length_a 8.311062
_cell_length_b 20.879990
_cell_length_c 9.069054
_cell_angle_alpha 90.000000
_cell_angle_beta 90.000000
_cell_angle_gamma 90.000000
_cell_volume 1573.797301
_symmetry_space_group_name_H-M "C C C M"
_symmetry_group_IT_number 66
_symmetry_cell_setting 'orthorhombic'
loop_
_space_group_symop_operation_xyz
x,y,z
-x,-y,z
x,-y,1/2-z
-x,y,1/2-z
-x,-y,-z
x,y,-z
-x,y,1/2+z
x,-y,1/2+z
1/2+x,1/2+y,z
1/2-x,1/2-y,z
1/2+x,1/2-y,1/2-z
1/2-x,1/2+y,1/2-z
1/2-x,1/2-y,-z
1/2+x,1/2+y,-z
1/2-x,1/2+y,1/2+z
1/2+x,1/2-y,1/2+z
loop_
_atom_site_type_symbol
_atom_site_label
_atom_site_fract_x
_atom_site_fract_y
_atom_site_fract_z
Si Si1 0.500000 0.000000 0.500000
Si Si2 0.500000 0.800272 0.250000
Si Si3 0.052074 0.797652 0.000000
Si Si4 0.500000 0.500000 0.250000
Si Si5 0.200651 0.370273 0.000000
Si Si6 0.305561 0.572444 0.000000
O O1 0.335494 0.947120 0.500000
O O2 0.618739 0.942136 0.500000
O O3 0.569636 0.749398 0.364370
O O4 0.380900 0.842885 0.350173
O O5 0.881725 0.839122 0.000000
O O6 0.181328 0.852402 0.000000
O O7 0.391814 0.456085 0.355576
#
# Coordination Sequence:
#
# PCOD9498937 Si02
#       6
#     4   8   8   4   8   8
#     4  12  30  46  70 110 154 194 246 308 362 432
#     4  10  23  45  74 103 139 186 244 310 368 428
#     4  11  24  47  76 105 144 191 244 302 366 441
#     4  10  22  44  68  98 142 192 240 288 356 436
#     4  11  26  46  70 106 146 187 242 305 367 437
#     4  11  25  44  71 104 143 191 240 296 364 432
#
# _framework density 25.416236000000001
#
# number of rings (size 3 to 8) (size 9 to 14) (size 15 to 20)
#    0.000    1.200    0.000    6.000    0.000   14.400 
#    0.000   10.000    0.000    0.000    0.000    0.000 
#    0.000    0.000    0.000    0.000    0.000    0.000 
#
# Total GULP energy -111564.303701 kJ/mol
# GULP energy per Si atom -5578.215185 kJ/mol
# Density = 2.535839 g / cm^3
# Si number density = 25.416236 Si / 1000 Ang^3
#
#
#
# Elastic Constant Matrix: (Units=GPa)
#
#
# Indices 1 2 3 4 5 6 
#
# 1 151.2821 44.3055 32.9781 0.0000 0.0000 0.0000
# 2 44.3055 176.0872 52.7117 0.0000 0.0000 0.0000
# 3 32.9781 52.7117 169.3622 0.0000 0.0000 0.0000
# 4 0.0000 0.0000 0.0000 20.2448 0.0000 0.0000
# 5 0.0000 0.0000 0.0000 0.0000 -22.4408 0.0000
# 6 0.0000 0.0000 0.0000 0.0000 0.0000 62.1684
#
#
#
# Elastic Compliance Matrix: (Units=1/GPa)
#
#
# Indices 1 2 3 4 5 6 
#
# 1 0.007267 -0.001549 -0.000933 0.000000 0.000000 0.000000
# 2 -0.001549 0.006593 -0.001750 0.000000 0.000000 0.000000
# 3 -0.000933 -0.001750 0.006631 0.000000 0.000000 0.000000
# 4 0.000000 0.000000 0.000000 0.049395 0.000000 0.000000
# 5 0.000000 0.000000 0.000000 0.000000 -0.044562 0.000000
# 6 0.000000 0.000000 0.000000 0.000000 0.000000 0.016085
#
#
# Mechanical properties :
#
#
# Convention : Reuss Voigt Hill
#
# Bulk Modulus (GPa) = 83.15227 84.08023 83.61625
# Shear Modulus (GPa) = 92.79294 36.44355 64.61825
#
# Velocity S-wave (km/s) = 6.04885 3.79075 5.04769
# Velocity P-wave (km/s) = 9.03172 7.23276 8.18184
#
# Compressibility (1/GPa) = 0.01202613
#
# Stress axis : x y z
#
# Youngs Moduli (GPa) = 137.60350 151.68178 150.80931
#
# Poissons Ratio (x) = 0.23500 0.14069
# Poissons Ratio (y) = 0.21318 0.26395
# Poissons Ratio (z) = 0.12837 0.26548
#
# Static dielectric constant tensor:
#      x y z
#    x 2.125410 0.000000 0.000000 
#    y 0.000000 1.936160 0.000000 
#    z 0.000000 0.000000 1.924810 
# 
# From -- ./inp_files/2520.got.cif
#   From: 2010.05.17/outbox.cif.g08.bks.cpg/sg66_2_cif.got.tgz:2520.got - 2010.06.03 17:51:23.
