data_PCOD9498995
_publ_section_title
;
Structure prediction by ZEFSAII (Michael W. Deem and Ramdas Pophale) SiO2 
 PCOD9498995
Probable space group: C C C M
;
_chemical_formula_sum "Si O2"
_cell_formula_units_Z 112
_cell_length_a 16.934103
_cell_length_b 24.183007
_cell_length_c 13.834662
_cell_angle_alpha 90.000000
_cell_angle_beta 90.000000
_cell_angle_gamma 90.000000
_cell_volume 5665.536630
_symmetry_space_group_name_H-M "C C C M"
_symmetry_group_IT_number 66
_symmetry_cell_setting 'orthorhombic'
loop_
_space_group_symop_operation_xyz
x,y,z
-x,-y,z
x,-y,1/2-z
-x,y,1/2-z
-x,-y,-z
x,y,-z
-x,y,1/2+z
x,-y,1/2+z
1/2+x,1/2+y,z
1/2-x,1/2-y,z
1/2+x,1/2-y,1/2-z
1/2-x,1/2+y,1/2-z
1/2-x,1/2-y,-z
1/2+x,1/2+y,-z
1/2-x,1/2+y,1/2+z
1/2+x,1/2-y,1/2+z
loop_
_atom_site_type_symbol
_atom_site_label
_atom_site_fract_x
_atom_site_fract_y
_atom_site_fract_z
Si Si1 0.363405 0.709046 0.385347
Si Si2 0.025027 0.896469 0.616110
Si Si3 0.279486 0.128513 0.884667
Si Si4 0.721261 0.188393 0.115176
Si Si5 0.165329 0.028768 0.117882
Si Si6 0.592244 0.818409 0.232919
Si Si7 0.153691 0.903972 0.881884
O O1 0.364467 0.723836 0.500000
O O2 0.426160 0.659672 0.369833
O O3 0.278012 0.681356 0.365164
O O4 0.388418 0.760423 0.320494
O O5 0.017991 0.903376 0.500000
O O6 0.080109 0.947231 0.648379
O O7 0.935784 0.893275 0.652645
O O8 0.231435 0.073640 0.855431
O O9 0.362264 0.136635 0.832347
O O10 0.289707 0.126779 0.000000
O O11 0.750000 0.250000 0.138415
O O12 0.638210 0.180071 0.166081
O O13 0.785264 0.143119 0.148985
O O14 0.714353 0.183997 0.000000
O O15 0.177423 0.965821 0.148387
O O16 0.164478 0.028553 0.000000
O O17 0.500000 0.825615 0.250000
O O18 0.153341 0.902506 0.000000
#
# Coordination Sequence:
#
# PCOD9498995 Si02
#       7
#    16  16  16  16  16  16  16
#     4   9  18  34  57  85 116 148 182 224 280 341
#     4   8  14  25  49  88 124 146 172 213 269 346
#     4   9  18  36  60  85 113 143 182 234 285 337
#     4  10  23  40  56  77 111 153 193 230 273 333
#     4   8  14  27  53  87 116 145 180 220 273 338
#     4  12  25  37  55  79 106 147 195 243 288 328
#     4   9  16  29  53  82 116 154 183 216 270 337
#
# _framework density 19.768647999999999
#
# number of rings (size 3 to 8) (size 9 to 14) (size 15 to 20)
#    0.000    2.714    0.000    3.857    2.000    4.000 
#    0.000    0.714    0.000    1.714    0.000    6.000 
#    0.000    0.000    0.000    0.000    0.000    0.286 
#
# Total GULP energy -313044.473802 kJ/mol
# GULP energy per Si atom -5590.079889 kJ/mol
# Density = 1.972365 g / cm^3
# Si number density = 19.768648 Si / 1000 Ang^3
#
#
#
# Elastic Constant Matrix: (Units=GPa)
#
#
# Indices 1 2 3 4 5 6 
#
# 1 194.7409 85.9522 46.5058 0.0000 0.0000 0.0000
# 2 85.9522 118.9617 26.9275 0.0000 0.0000 0.0000
# 3 46.5058 26.9275 72.5831 0.0000 0.0000 0.0000
# 4 0.0000 0.0000 0.0000 21.9443 0.0000 0.0000
# 5 0.0000 0.0000 0.0000 0.0000 30.2532 0.0000
# 6 0.0000 0.0000 0.0000 0.0000 0.0000 9.7078
#
#
#
# Elastic Compliance Matrix: (Units=1/GPa)
#
#
# Indices 1 2 3 4 5 6 
#
# 1 0.008221 -0.005183 -0.003345 0.000000 0.000000 0.000000
# 2 -0.005183 0.012444 -0.001296 0.000000 0.000000 0.000000
# 3 -0.003345 -0.001296 0.016401 0.000000 0.000000 0.000000
# 4 0.000000 0.000000 0.000000 0.045570 0.000000 0.000000
# 5 0.000000 0.000000 0.000000 0.000000 0.033054 0.000000
# 6 0.000000 0.000000 0.000000 0.000000 0.000000 0.103009
#
#
# Mechanical properties :
#
#
# Convention : Reuss Voigt Hill
#
# Bulk Modulus (GPa) = 57.40681 78.33964 67.87322
# Shear Modulus (GPa) = 20.47886 27.50775 23.99331
#
# Velocity S-wave (km/s) = 3.22207 3.73431 3.48761
# Velocity P-wave (km/s) = 6.55322 7.63594 7.11521
#
# Compressibility (1/GPa) = 0.01741954
#
# Stress axis : x y z
#
# Youngs Moduli (GPa) = 121.63362 80.35874 60.97135
#
# Poissons Ratio (x) = 0.41650 0.20394
# Poissons Ratio (y) = 0.63043 0.07900
# Poissons Ratio (z) = 0.40684 0.10413
#
# Static dielectric constant tensor:
#      x y z
#    x 1.654380 0.000000 0.000000 
#    y 0.000000 1.684930 0.000000 
#    z 0.000000 0.000000 1.776820 
# 
# From -- ./inp_files/28673.got.cif
#   From: 2010.05.17/outbox.cif.g08.bks.cpg/sg66_15_cif.got.tgz:28673.got - 2010.06.03 17:51:23.
