data_PCOD9498639
_publ_section_title
;
Structure prediction by ZEFSAII (Michael W. Deem and Ramdas Pophale) SiO2 
 PCOD9498639
Probable space group: C C C M
;
_chemical_formula_sum "Si O2"
_cell_formula_units_Z 64
_cell_length_a 5.179598
_cell_length_b 14.435225
_cell_length_c 37.583916
_cell_angle_alpha 90.000000
_cell_angle_beta 90.000000
_cell_angle_gamma 90.000000
_cell_volume 2810.099132
_symmetry_space_group_name_H-M "C C C M"
_symmetry_group_IT_number 66
_symmetry_cell_setting 'orthorhombic'
loop_
_space_group_symop_operation_xyz
x,y,z
-x,-y,z
x,-y,1/2-z
-x,y,1/2-z
-x,-y,-z
x,y,-z
-x,y,1/2+z
x,-y,1/2+z
1/2+x,1/2+y,z
1/2-x,1/2-y,z
1/2+x,1/2-y,1/2-z
1/2-x,1/2+y,1/2-z
1/2-x,1/2-y,-z
1/2+x,1/2+y,-z
1/2-x,1/2+y,1/2+z
1/2+x,1/2-y,1/2+z
loop_
_atom_site_type_symbol
_atom_site_label
_atom_site_fract_x
_atom_site_fract_y
_atom_site_fract_z
Si Si1 0.975800 0.112645 0.920651
Si Si2 0.479564 0.112904 0.040069
Si Si3 0.246385 0.638688 0.228529
Si Si4 0.250486 0.436535 0.350122
O O1 0.765410 0.143663 0.949294
O O2 0.843472 0.129662 0.882365
O O3 0.261406 0.143355 0.931772
O O4 0.000000 0.000000 0.921713
O O5 0.500000 0.000000 0.040919
O O6 0.407098 0.139238 0.000000
O O7 0.500000 0.607198 0.250000
O O8 0.250000 0.750000 0.229456
O O9 0.211512 0.611131 0.187623
O O10 0.000000 0.605231 0.250000
O O11 0.500000 0.500000 0.344416
O O12 0.000000 0.500000 0.359779
#
# Coordination Sequence:
#
# PCOD9498639 Si02
#       4
#    16  16  16  16
#     4   9  16  26  38  60  93 124 156 196 240 281
#     4   9  15  23  37  57  87 128 163 190 231 287
#     4  10  22  39  56  75 101 131 164 205 249 294
#     4  11  21  33  52  76 103 133 164 204 250 296
#
# _framework density 22.774996999999999
#
# number of rings (size 3 to 8) (size 9 to 14) (size 15 to 20)
#    0.000    2.250    0.000    6.000    0.000    6.000 
#    0.000    0.000    0.000    0.000    0.000    0.000 
#    0.000    6.000    0.000    0.000    0.000   21.500 
#
# Total GULP energy -178677.400596 kJ/mol
# GULP energy per Si atom -5583.668769 kJ/mol
# Density = 2.272316 g / cm^3
# Si number density = 22.774997 Si / 1000 Ang^3
#
#
#
# Elastic Constant Matrix: (Units=GPa)
#
#
# Indices 1 2 3 4 5 6 
#
# 1 169.5635 0.6713 61.3746 0.0000 0.0000 0.0000
# 2 0.6713 64.5702 9.2441 0.0000 0.0000 0.0000
# 3 61.3746 9.2441 170.3543 0.0000 0.0000 0.0000
# 4 0.0000 0.0000 0.0000 -40.6892 0.0000 0.0000
# 5 0.0000 0.0000 0.0000 0.0000 46.2082 0.0000
# 6 0.0000 0.0000 0.0000 0.0000 0.0000 -52.9829
#
#
#
# Elastic Compliance Matrix: (Units=1/GPa)
#
#
# Indices 1 2 3 4 5 6 
#
# 1 0.006787 0.000282 -0.002460 0.000000 0.000000 0.000000
# 2 0.000282 0.015620 -0.000949 0.000000 0.000000 0.000000
# 3 -0.002460 -0.000949 0.006808 0.000000 0.000000 0.000000
# 4 0.000000 0.000000 0.000000 -0.024577 0.000000 0.000000
# 5 0.000000 0.000000 0.000000 0.000000 0.021641 0.000000
# 6 0.000000 0.000000 0.000000 0.000000 0.000000 -0.018874
#
#
# Mechanical properties :
#
#
# Convention : Reuss Voigt Hill
#
# Bulk Modulus (GPa) = 43.55540 60.78535 52.17038
# Shear Modulus (GPa) = 234.58249 12.72041 123.65145
#
# Velocity S-wave (km/s) = 10.15990 2.36588 7.37635
# Velocity P-wave (km/s) = 12.52187 5.84898 9.77261
#
# Compressibility (1/GPa) = 0.02295927
#
# Stress axis : x y z
#
# Youngs Moduli (GPa) = 147.34131 64.02060 146.88455
#
# Poissons Ratio (x) = -0.01803 0.36140
# Poissons Ratio (y) = -0.04150 0.13941
# Poissons Ratio (z) = 0.36253 0.06076
#
# Static dielectric constant tensor:
#      x y z
#    x 1.807670 0.000000 0.000000 
#    y 0.000000 1.729920 0.000000 
#    z 0.000000 0.000000 1.908980 
# 
# From -- ./inp_files/66961.got.cif
#   From: 2010.05.17/outbox.cif.g08.bks.cpg/sg66_34_cif.got.tgz:66961.got - 2010.06.03 17:51:23.
