data_PCOD9498888
_publ_section_title
;
Structure prediction by ZEFSAII (Michael W. Deem and Ramdas Pophale) SiO2 
 PCOD9498888
Probable space group: C C C M
;
_chemical_formula_sum "Si O2"
_cell_formula_units_Z 68
_cell_length_a 12.335874
_cell_length_b 14.733392
_cell_length_c 18.776461
_cell_angle_alpha 90.000000
_cell_angle_beta 90.000000
_cell_angle_gamma 90.000000
_cell_volume 3412.608029
_symmetry_space_group_name_H-M "C C C M"
_symmetry_group_IT_number 66
_symmetry_cell_setting 'orthorhombic'
loop_
_space_group_symop_operation_xyz
x,y,z
-x,-y,z
x,-y,1/2-z
-x,y,1/2-z
-x,-y,-z
x,y,-z
-x,y,1/2+z
x,-y,1/2+z
1/2+x,1/2+y,z
1/2-x,1/2-y,z
1/2+x,1/2-y,1/2-z
1/2-x,1/2+y,1/2-z
1/2-x,1/2-y,-z
1/2+x,1/2+y,-z
1/2-x,1/2+y,1/2+z
1/2+x,1/2-y,1/2+z
loop_
_atom_site_type_symbol
_atom_site_label
_atom_site_fract_x
_atom_site_fract_y
_atom_site_fract_z
Si Si1 0.382218 0.854414 0.346408
Si Si2 0.544966 0.101847 0.500000
Si Si3 0.969614 0.824533 0.350442
Si Si4 0.500000 0.000000 0.750000
Si Si5 0.338276 0.398374 0.777197
Si Si6 0.378878 0.732017 0.000000
O O1 0.385853 0.879014 0.429533
O O2 0.461508 0.768017 0.338371
O O3 0.432331 0.935856 0.301258
O O4 0.261288 0.850766 0.316422
O O5 0.444154 0.172368 0.500000
O O6 0.500000 0.000000 0.500000
O O7 0.877640 0.840724 0.291268
O O8 0.918049 0.819519 0.428540
O O9 0.060337 0.899844 0.331928
O O10 0.313411 0.500000 0.750000
O O11 0.250000 0.750000 0.000000
#
# Coordination Sequence:
#
# PCOD9498888 Si02
#       6
#    16   8  16   4  16   8
#     4  11  23  39  65  94 129 168 213 266 324 385
#     4  10  22  43  61  94 133 166 208 270 317 386
#     4  10  23  41  63  91 130 164 219 263 320 385
#     4  12  20  34  60  98 122 158 216 260 312 380
#     4  11  23  43  65  94 128 170 214 271 324 380
#     4  10  24  41  64  92 129 173 218 259 330 396
#
# _framework density 19.926107999999999
#
# number of rings (size 3 to 8) (size 9 to 14) (size 15 to 20)
#    0.000    1.412    2.353    3.529    0.000   10.353 
#    0.000    5.882    0.000    0.000    0.000    0.000 
#    0.000    0.000    0.000    0.000    0.000    0.000 
#
# Total GULP energy -189857.072214 kJ/mol
# GULP energy per Si atom -5584.031536 kJ/mol
# Density = 1.988076 g / cm^3
# Si number density = 19.926108 Si / 1000 Ang^3
#
#
#
# Elastic Constant Matrix: (Units=GPa)
#
#
# Indices 1 2 3 4 5 6 
#
# 1 148.6292 36.7781 100.7756 0.0000 0.0000 0.0000
# 2 36.7781 92.4665 59.2684 0.0000 0.0000 0.0000
# 3 100.7756 59.2684 205.1144 0.0000 0.0000 0.0000
# 4 0.0000 0.0000 0.0000 54.5987 0.0000 0.0000
# 5 0.0000 0.0000 0.0000 0.0000 41.3467 0.0000
# 6 0.0000 0.0000 0.0000 0.0000 0.0000 24.5466
#
#
#
# Elastic Compliance Matrix: (Units=1/GPa)
#
#
# Indices 1 2 3 4 5 6 
#
# 1 0.010169 -0.001034 -0.004697 0.000000 0.000000 0.000000
# 2 -0.001034 0.013378 -0.003358 0.000000 0.000000 0.000000
# 3 -0.004697 -0.003358 0.008154 0.000000 0.000000 0.000000
# 4 0.000000 0.000000 0.000000 0.018315 0.000000 0.000000
# 5 0.000000 0.000000 0.000000 0.000000 0.024186 0.000000
# 6 0.000000 0.000000 0.000000 0.000000 0.000000 0.040739
#
#
# Mechanical properties :
#
#
# Convention : Reuss Voigt Hill
#
# Bulk Modulus (GPa) = 73.94975 93.31714 83.63344
# Shear Modulus (GPa) = 36.33031 40.72426 38.52728
#
# Velocity S-wave (km/s) = 4.27459 4.52571 4.40194
# Velocity P-wave (km/s) = 7.84572 8.61641 8.24008
#
# Compressibility (1/GPa) = 0.01352270
#
# Stress axis : x y z
#
# Youngs Moduli (GPa) = 98.33816 74.74894 122.64669
#
# Poissons Ratio (x) = 0.07727 0.57613
# Poissons Ratio (y) = 0.10165 0.41182
# Poissons Ratio (z) = 0.46194 0.25099
#
# Static dielectric constant tensor:
#      x y z
#    x 1.737090 0.000000 0.000000 
#    y 0.000000 1.723130 0.000000 
#    z 0.000000 0.000000 1.678400 
# 
# From -- ./inp_files/48272.got.cif
#   From: 2010.05.17/outbox.cif.g08.bks.cpg/sg66_25_cif.got.tgz:48272.got - 2010.06.03 17:51:23.
