data_PCOD9498766
_publ_section_title
;
Structure prediction by ZEFSAII (Michael W. Deem and Ramdas Pophale) SiO2 
 PCOD9498766
Probable space group: C C C M
;
_chemical_formula_sum "Si O2"
_cell_formula_units_Z 56
_cell_length_a 16.706308
_cell_length_b 12.052912
_cell_length_c 14.659469
_cell_angle_alpha 90.000000
_cell_angle_beta 90.000000
_cell_angle_gamma 90.000000
_cell_volume 2951.825696
_symmetry_space_group_name_H-M "C C C M"
_symmetry_group_IT_number 66
_symmetry_cell_setting 'orthorhombic'
loop_
_space_group_symop_operation_xyz
x,y,z
-x,-y,z
x,-y,1/2-z
-x,y,1/2-z
-x,-y,-z
x,y,-z
-x,y,1/2+z
x,-y,1/2+z
1/2+x,1/2+y,z
1/2-x,1/2-y,z
1/2+x,1/2-y,1/2-z
1/2-x,1/2+y,1/2-z
1/2-x,1/2-y,-z
1/2+x,1/2+y,-z
1/2-x,1/2+y,1/2+z
1/2+x,1/2-y,1/2+z
loop_
_atom_site_type_symbol
_atom_site_label
_atom_site_fract_x
_atom_site_fract_y
_atom_site_fract_z
Si Si1 0.384403 0.576329 0.500000
Si Si2 0.082933 0.716590 0.193893
Si Si3 0.818312 0.107436 0.696694
Si Si4 0.564159 0.667843 0.500000
Si Si5 0.661210 0.000000 0.250000
O O1 0.346675 0.617549 0.593733
O O2 0.475052 0.618684 0.500000
O O3 0.380606 0.442016 0.500000
O O4 0.151199 0.789411 0.244449
O O5 0.108035 0.587696 0.195642
O O6 0.000000 0.731471 0.250000
O O7 0.075803 0.762075 0.091644
O O8 0.724477 0.075780 0.694252
O O9 0.855340 0.000000 0.750000
#
# Coordination Sequence:
#
# PCOD9498766 Si02
#       5
#     8  16  16   8   8
#     4  11  20  37  64 108 121 164 217 281 314 381
#     4  12  23  43  66  95 131 172 214 270 316 389
#     4  10  22  40  66  93 130 164 214 271 324 368
#     4  11  22  35  68 100 131 158 224 265 331 366
#     4  10  25  44  61  90 136 176 208 256 333 384
#
# _framework density 18.971309999999999
#
# number of rings (size 3 to 8) (size 9 to 14) (size 15 to 20)
#    0.857    0.286    5.714    1.286    0.000    1.714 
#    0.000   11.429    0.000    0.000    0.000    0.000 
#    0.000    0.000    0.000    0.000    0.000    0.000 
#
# Total GULP energy -156065.382407 kJ/mol
# GULP energy per Si atom -5573.763657 kJ/mol
# Density = 1.892813 g / cm^3
# Si number density = 18.971310 Si / 1000 Ang^3
#
#
#
# Elastic Constant Matrix: (Units=GPa)
#
#
# Indices 1 2 3 4 5 6 
#
# 1 37.3994 38.4792 35.2720 0.0000 0.0000 0.0000
# 2 38.4792 136.4589 61.5639 0.0000 0.0000 0.0000
# 3 35.2720 61.5639 179.4326 0.0000 0.0000 0.0000
# 4 0.0000 0.0000 0.0000 7.0005 0.0000 0.0000
# 5 0.0000 0.0000 0.0000 0.0000 15.8510 0.0000
# 6 0.0000 0.0000 0.0000 0.0000 0.0000 27.5936
#
#
#
# Elastic Compliance Matrix: (Units=1/GPa)
#
#
# Indices 1 2 3 4 5 6 
#
# 1 0.040928 -0.009360 -0.004834 0.000000 0.000000 0.000000
# 2 -0.009360 0.010811 -0.001869 0.000000 0.000000 0.000000
# 3 -0.004834 -0.001869 0.007165 0.000000 0.000000 0.000000
# 4 0.000000 0.000000 0.000000 0.142846 0.000000 0.000000
# 5 0.000000 0.000000 0.000000 0.000000 0.063087 0.000000
# 6 0.000000 0.000000 0.000000 0.000000 0.000000 0.036240
#
#
# Mechanical properties :
#
#
# Convention : Reuss Voigt Hill
#
# Bulk Modulus (GPa) = 37.34581 69.32455 53.33518
# Shear Modulus (GPa) = 14.61433 24.62074 19.61754
#
# Velocity S-wave (km/s) = 2.77851 3.60639 3.21917
# Velocity P-wave (km/s) = 5.47920 7.34592 6.48013
#
# Compressibility (1/GPa) = 0.02677676
#
# Stress axis : x y z
#
# Youngs Moduli (GPa) = 24.43332 92.49876 139.57292
#
# Poissons Ratio (x) = 0.86580 0.67468
# Poissons Ratio (y) = 0.22870 0.26091
# Poissons Ratio (z) = 0.11811 0.17291
#
# Static dielectric constant tensor:
#      x y z
#    x 1.683290 0.000000 0.000000 
#    y 0.000000 1.681340 0.000000 
#    z 0.000000 0.000000 1.594430 
# 
# From -- ./inp_files/29539.got.cif
#   From: 2010.05.17/outbox.cif.g08.bks.cpg/sg66_15_cif.got.tgz:29539.got - 2010.06.03 17:51:23.
