data_PCOD9498420
_publ_section_title
;
Structure prediction by ZEFSAII (Michael W. Deem and Ramdas Pophale) SiO2 
 PCOD9498420
Probable space group: C C C M
;
_chemical_formula_sum "Si O2"
_cell_formula_units_Z 116
_cell_length_a 11.854577
_cell_length_b 27.672588
_cell_length_c 17.302684
_cell_angle_alpha 90.000000
_cell_angle_beta 90.000000
_cell_angle_gamma 90.000000
_cell_volume 5676.090554
_symmetry_space_group_name_H-M "C C C M"
_symmetry_group_IT_number 66
_symmetry_cell_setting 'orthorhombic'
loop_
_space_group_symop_operation_xyz
x,y,z
-x,-y,z
x,-y,1/2-z
-x,y,1/2-z
-x,-y,-z
x,y,-z
-x,y,1/2+z
x,-y,1/2+z
1/2+x,1/2+y,z
1/2-x,1/2-y,z
1/2+x,1/2-y,1/2-z
1/2-x,1/2+y,1/2-z
1/2-x,1/2-y,-z
1/2+x,1/2+y,-z
1/2-x,1/2+y,1/2+z
1/2+x,1/2-y,1/2+z
loop_
_atom_site_type_symbol
_atom_site_label
_atom_site_fract_x
_atom_site_fract_y
_atom_site_fract_z
Si Si1 0.049962 0.293098 0.833540
Si Si2 0.756174 0.134181 0.665416
Si Si3 0.402797 0.460646 0.408748
Si Si4 0.872017 0.861062 0.330136
Si Si5 0.000000 0.500000 0.000000
Si Si6 0.190583 0.300097 0.591703
Si Si7 0.284396 0.964825 0.414539
Si Si8 0.069041 0.196078 0.089197
O O1 0.140780 0.335643 0.825130
O O2 0.105213 0.247080 0.874921
O O3 0.000000 0.280092 0.750000
O O4 0.938810 0.304498 0.883475
O O5 0.834575 0.138915 0.741312
O O6 0.730500 0.079201 0.643356
O O7 0.829041 0.158824 0.597846
O O8 0.500000 0.500000 0.395434
O O9 0.404575 0.447055 0.500000
O O10 0.414364 0.413228 0.357549
O O11 0.285906 0.487958 0.391235
O O12 0.760092 0.845032 0.375770
O O13 0.965611 0.823102 0.358748
O O14 0.088104 0.479171 0.933844
O O15 0.198261 0.299472 0.500000
O O16 0.250000 0.250000 0.620698
O O17 0.235065 0.950602 0.500000
O O18 0.033000 0.201003 0.000000
#
# Coordination Sequence:
#
# PCOD9498420 Si02
#       8
#    16  16  16  16   4  16  16  16
#     4  12  25  44  64  98 143 182 230 289 348 416
#     4  12  26  43  67 101 139 187 226 288 357 415
#     4  10  21  40  70 103 133 171 223 285 344 408
#     4  12  24  43  69 103 140 180 224 288 359 420
#     4   8  20  44  70  94 126 182 222 284 346 392
#     4  11  23  42  69  97 134 185 237 284 340 418
#     4   9  21  43  66  95 133 174 231 280 334 411
#     4  12  26  43  68  99 138 185 236 286 342 419
#
# _framework density 20.436599999999999
#
# number of rings (size 3 to 8) (size 9 to 14) (size 15 to 20)
#    0.414    0.552    2.759    4.552    0.000    5.517 
#    2.483    0.690    0.000    0.000    0.000    0.000 
#    0.000    0.000    0.000    0.000    0.000    0.000 
#
# Total GULP energy -323584.162328 kJ/mol
# GULP energy per Si atom -5579.037282 kJ/mol
# Density = 2.039009 g / cm^3
# Si number density = 20.436600 Si / 1000 Ang^3
#
#
#
# Elastic Constant Matrix: (Units=GPa)
#
#
# Indices 1 2 3 4 5 6 
#
# 1 47.1244 -0.4017 7.5583 0.0000 0.0000 0.0000
# 2 -0.4017 49.9555 20.6694 0.0000 0.0000 0.0000
# 3 7.5583 20.6694 85.1365 0.0000 0.0000 0.0000
# 4 0.0000 0.0000 0.0000 25.1322 0.0000 0.0000
# 5 0.0000 0.0000 0.0000 0.0000 29.0599 0.0000
# 6 0.0000 0.0000 0.0000 0.0000 0.0000 37.6819
#
#
#
# Elastic Compliance Matrix: (Units=1/GPa)
#
#
# Indices 1 2 3 4 5 6 
#
# 1 0.021579 0.001074 -0.002176 0.000000 0.000000 0.000000
# 2 0.001074 0.022307 -0.005511 0.000000 0.000000 0.000000
# 3 -0.002176 -0.005511 0.013277 0.000000 0.000000 0.000000
# 4 0.000000 0.000000 0.000000 0.039790 0.000000 0.000000
# 5 0.000000 0.000000 0.000000 0.000000 0.034412 0.000000
# 6 0.000000 0.000000 0.000000 0.000000 0.000000 0.026538
#
#
# Mechanical properties :
#
#
# Convention : Reuss Voigt Hill
#
# Bulk Modulus (GPa) = 22.76060 26.42982 24.59521
# Shear Modulus (GPa) = 26.91450 28.66750 27.79100
#
# Velocity S-wave (km/s) = 3.63295 3.74940 3.69163
# Velocity P-wave (km/s) = 5.36276 5.63069 5.49835
#
# Compressibility (1/GPa) = 0.04393557
#
# Stress axis : x y z
#
# Youngs Moduli (GPa) = 46.34208 44.82972 75.31812
#
# Poissons Ratio (x) = -0.04815 0.16393
# Poissons Ratio (y) = -0.04977 0.41507
# Poissons Ratio (z) = 0.10086 0.24705
#
# Static dielectric constant tensor:
#      x y z
#    x 1.736370 0.000000 0.000000 
#    y 0.000000 1.593030 0.000000 
#    z 0.000000 0.000000 1.728400 
# 
# From -- ./inp_files/39147.got.cif
#   From: 2010.05.17/outbox.cif.g08.bks.cpg/sg66_20_cif.got.tgz:39147.got - 2010.06.03 17:51:23.
