data_PCOD9498698
_publ_section_title
;
Structure prediction by ZEFSAII (Michael W. Deem and Ramdas Pophale) SiO2 
 PCOD9498698
Probable space group: C C C M
;
_chemical_formula_sum "Si O2"
_cell_formula_units_Z 80
_cell_length_a 11.819011
_cell_length_b 14.679484
_cell_length_c 23.684156
_cell_angle_alpha 90.000000
_cell_angle_beta 90.000000
_cell_angle_gamma 90.000000
_cell_volume 4109.129608
_symmetry_space_group_name_H-M "C C C M"
_symmetry_group_IT_number 66
_symmetry_cell_setting 'orthorhombic'
loop_
_space_group_symop_operation_xyz
x,y,z
-x,-y,z
x,-y,1/2-z
-x,y,1/2-z
-x,-y,-z
x,y,-z
-x,y,1/2+z
x,-y,1/2+z
1/2+x,1/2+y,z
1/2-x,1/2-y,z
1/2+x,1/2-y,1/2-z
1/2-x,1/2+y,1/2-z
1/2-x,1/2-y,-z
1/2+x,1/2+y,-z
1/2-x,1/2+y,1/2+z
1/2+x,1/2-y,1/2+z
loop_
_atom_site_type_symbol
_atom_site_label
_atom_site_fract_x
_atom_site_fract_y
_atom_site_fract_z
Si Si1 0.326724 0.158062 0.000000
Si Si2 0.572043 0.905129 0.500000
Si Si3 0.723070 0.144441 0.378975
Si Si4 0.135548 0.996949 0.817243
Si Si5 0.003897 0.390350 0.313298
Si Si6 0.285498 0.145722 0.388404
O O1 0.250000 0.250000 0.000000
O O2 0.291729 0.108517 0.057402
O O3 0.464469 0.166692 0.000000
O O4 0.652476 0.893125 0.445049
O O5 0.500000 0.000000 0.500000
O O6 0.750000 0.250000 0.381512
O O7 0.604094 0.136850 0.348509
O O8 0.813906 0.087697 0.344825
O O9 0.189230 0.916072 0.856692
O O10 0.168552 0.000000 0.750000
O O11 0.000000 0.000000 0.819921
O O12 0.000000 0.500000 0.312396
O O13 0.000000 0.355517 0.250000
O O14 0.115425 0.355205 0.342532
O O15 0.250000 0.250000 0.399693
#
# Coordination Sequence:
#
# PCOD9498698 Si02
#       6
#     8   8  16  16  16  16
#     4  10  22  39  67  96 129 167 212 270 324 393
#     4  12  23  45  73 100 136 180 227 288 347 400
#     4  11  23  42  67  97 127 171 228 271 331 405
#     4  11  26  46  65  93 138 181 219 277 345 406
#     4  11  22  40  66  95 131 173 226 283 332 397
#     4  12  26  43  66 103 137 175 227 286 343 404
#
# _framework density 19.468843
#
# number of rings (size 3 to 8) (size 9 to 14) (size 15 to 20)
#    0.000    0.800    4.000    3.300    2.800    3.200 
#    0.000    2.000    0.000    0.000    0.000    0.000 
#    0.000    0.000    0.000    0.000    0.000    0.000 
#
# Total GULP energy -223172.526588 kJ/mol
# GULP energy per Si atom -5579.313165 kJ/mol
# Density = 1.942453 g / cm^3
# Si number density = 19.468843 Si / 1000 Ang^3
#
#
#
# Elastic Constant Matrix: (Units=GPa)
#
#
# Indices 1 2 3 4 5 6 
#
# 1 125.2463 48.4829 73.8293 0.0000 0.0000 0.0000
# 2 48.4829 116.0033 53.3285 0.0000 0.0000 0.0000
# 3 73.8293 53.3285 203.0632 0.0000 0.0000 0.0000
# 4 0.0000 0.0000 0.0000 31.7107 0.0000 0.0000
# 5 0.0000 0.0000 0.0000 0.0000 61.7035 0.0000
# 6 0.0000 0.0000 0.0000 0.0000 0.0000 24.2253
#
#
#
# Elastic Compliance Matrix: (Units=1/GPa)
#
#
# Indices 1 2 3 4 5 6 
#
# 1 0.011098 -0.003166 -0.003204 0.000000 0.000000 0.000000
# 2 -0.003166 0.010707 -0.001661 0.000000 0.000000 0.000000
# 3 -0.003204 -0.001661 0.006526 0.000000 0.000000 0.000000
# 4 0.000000 0.000000 0.000000 0.031535 0.000000 0.000000
# 5 0.000000 0.000000 0.000000 0.000000 0.016207 0.000000
# 6 0.000000 0.000000 0.000000 0.000000 0.000000 0.041279
#
#
# Mechanical properties :
#
#
# Convention : Reuss Voigt Hill
#
# Bulk Modulus (GPa) = 81.49777 88.39938 84.94858
# Shear Modulus (GPa) = 36.36306 41.43938 38.90122
#
# Velocity S-wave (km/s) = 4.32644 4.61857 4.47489
# Velocity P-wave (km/s) = 8.17979 8.59917 8.39210
#
# Compressibility (1/GPa) = 0.01227027
#
# Stress axis : x y z
#
# Youngs Moduli (GPa) = 90.10490 93.39631 153.24348
#
# Poissons Ratio (x) = 0.29566 0.49095
# Poissons Ratio (y) = 0.28524 0.25453
# Poissons Ratio (z) = 0.28867 0.15513
#
# Static dielectric constant tensor:
#      x y z
#    x 1.662730 0.000000 0.000000 
#    y 0.000000 1.651910 0.000000 
#    z 0.000000 0.000000 1.706540 
# 
# From -- ./inp_files/56673.got.cif
#   From: 2010.05.17/outbox.cif.g08.bks.cpg/sg66_29_cif.got.tgz:56673.got - 2010.06.03 17:51:23.
