data_PCOD9498753
_publ_section_title
;
Structure prediction by ZEFSAII (Michael W. Deem and Ramdas Pophale) SiO2 
 PCOD9498753
Probable space group: C C C M
;
_chemical_formula_sum "Si O2"
_cell_formula_units_Z 100
_cell_length_a 8.172860
_cell_length_b 19.620040
_cell_length_c 28.422607
_cell_angle_alpha 90.000000
_cell_angle_beta 90.000000
_cell_angle_gamma 90.000000
_cell_volume 4557.617333
_symmetry_space_group_name_H-M "C C C M"
_symmetry_group_IT_number 66
_symmetry_cell_setting 'orthorhombic'
loop_
_space_group_symop_operation_xyz
x,y,z
-x,-y,z
x,-y,1/2-z
-x,y,1/2-z
-x,-y,-z
x,y,-z
-x,y,1/2+z
x,-y,1/2+z
1/2+x,1/2+y,z
1/2-x,1/2-y,z
1/2+x,1/2-y,1/2-z
1/2-x,1/2+y,1/2-z
1/2-x,1/2-y,-z
1/2+x,1/2+y,-z
1/2-x,1/2+y,1/2+z
1/2+x,1/2-y,1/2+z
loop_
_atom_site_type_symbol
_atom_site_label
_atom_site_fract_x
_atom_site_fract_y
_atom_site_fract_z
Si Si1 0.437162 0.218580 0.444701
Si Si2 0.958776 0.167900 0.372135
Si Si3 0.000000 0.000000 0.750000
Si Si4 0.733641 0.401186 0.187803
Si Si5 0.398902 0.930824 0.909687
Si Si6 0.500000 0.177452 0.250000
Si Si7 0.250000 0.250000 0.813480
Si Si8 0.957043 0.922850 0.549239
O O1 0.484428 0.217871 0.500000
O O2 0.250000 0.250000 0.443695
O O3 0.521213 0.270227 0.408483
O O4 0.472231 0.143547 0.422573
O O5 0.114714 0.153702 0.338413
O O6 0.947305 0.104091 0.406104
O O7 0.801653 0.183741 0.342176
O O8 0.116184 0.047027 0.716645
O O9 0.836327 0.433519 0.144482
O O10 0.863383 0.366787 0.222966
O O11 0.234602 0.922972 0.940563
O O12 0.500000 0.000000 0.920204
O O13 0.405665 0.227219 0.215230
O O14 0.991470 0.885444 0.500000
O O15 0.000000 0.000000 0.544678
#
# Coordination Sequence:
#
# PCOD9498753 Si02
#       8
#    16  16   4  16  16   8   8  16
#     4  11  21  41  72 102 141 189 238 289 357 437
#     4  11  24  44  68 105 132 190 233 298 347 445
#     4  12  28  48  68 104 136 198 230 320 372 452
#     4  11  26  45  72  96 143 176 250 289 381 431
#     4  11  25  41  68 104 137 182 237 296 355 433
#     4  12  26  46  68 104 132 184 232 308 356 451
#     4  12  26  42  73  98 146 174 243 298 380 414
#     4  10  22  40  64  94 137 182 224 279 347 422
#
# _framework density 21.941289000000001
#
# number of rings (size 3 to 8) (size 9 to 14) (size 15 to 20)
#    0.000    0.960    3.200    3.840    6.720    3.840 
#    0.000    3.200    0.000    0.000    0.000    0.000 
#    0.000    0.000    0.000    0.000    0.000    0.000 
#
# Total GULP energy -279080.940801 kJ/mol
# GULP energy per Si atom -5581.618816 kJ/mol
# Density = 2.189135 g / cm^3
# Si number density = 21.941289 Si / 1000 Ang^3
#
#
#
# Elastic Constant Matrix: (Units=GPa)
#
#
# Indices 1 2 3 4 5 6 
#
# 1 41.0979 27.1594 46.8871 0.0000 0.0000 0.0000
# 2 27.1594 128.6039 57.9789 0.0000 0.0000 0.0000
# 3 46.8871 57.9789 140.9444 0.0000 0.0000 0.0000
# 4 0.0000 0.0000 0.0000 -40.0208 0.0000 0.0000
# 5 0.0000 0.0000 0.0000 0.0000 27.2176 0.0000
# 6 0.0000 0.0000 0.0000 0.0000 0.0000 48.8255
#
#
#
# Elastic Compliance Matrix: (Units=1/GPa)
#
#
# Indices 1 2 3 4 5 6 
#
# 1 0.040147 -0.003017 -0.012114 0.000000 0.000000 0.000000
# 2 -0.003017 0.009773 -0.003017 0.000000 0.000000 0.000000
# 3 -0.012114 -0.003017 0.012366 0.000000 0.000000 0.000000
# 4 0.000000 0.000000 0.000000 -0.024987 0.000000 0.000000
# 5 0.000000 0.000000 0.000000 0.000000 0.036741 0.000000
# 6 0.000000 0.000000 0.000000 0.000000 0.000000 0.020481
#
#
# Mechanical properties :
#
#
# Convention : Reuss Voigt Hill
#
# Bulk Modulus (GPa) = 38.47654 63.85521 51.16588
# Shear Modulus (GPa) = 35.84765 19.11250 27.48007
#
# Velocity S-wave (km/s) = 4.04641 2.95460 3.54282
# Velocity P-wave (km/s) = 6.27738 6.38792 6.33289
#
# Compressibility (1/GPa) = 0.02598987
#
# Stress axis : x y z
#
# Youngs Moduli (GPa) = 24.90874 102.32366 80.86766
#
# Poissons Ratio (x) = 0.30870 0.97965
# Poissons Ratio (y) = 0.07515 0.24394
# Poissons Ratio (z) = 0.30175 0.30867
#
# Static dielectric constant tensor:
#      x y z
#    x 1.514790 0.000000 0.000000 
#    y 0.000000 2.051060 0.000000 
#    z 0.000000 0.000000 1.836020 
# 
# From -- ./inp_files/62721.got.cif
#   From: 2010.05.17/outbox.cif.g08.bks.cpg/sg66_32_cif.got.tgz:62721.got - 2010.06.03 17:51:23.
