data_PCOD9498560
_publ_section_title
;
Structure prediction by ZEFSAII (Michael W. Deem and Ramdas Pophale) SiO2 
 PCOD9498560
Probable space group: C C C M
;
_chemical_formula_sum "Si O2"
_cell_formula_units_Z 60
_cell_length_a 16.676283
_cell_length_b 8.802720
_cell_length_c 18.444135
_cell_angle_alpha 90.000000
_cell_angle_beta 90.000000
_cell_angle_gamma 90.000000
_cell_volume 2707.537228
_symmetry_space_group_name_H-M "C C C M"
_symmetry_group_IT_number 66
_symmetry_cell_setting 'orthorhombic'
loop_
_space_group_symop_operation_xyz
x,y,z
-x,-y,z
x,-y,1/2-z
-x,y,1/2-z
-x,-y,-z
x,y,-z
-x,y,1/2+z
x,-y,1/2+z
1/2+x,1/2+y,z
1/2-x,1/2-y,z
1/2+x,1/2-y,1/2-z
1/2-x,1/2+y,1/2-z
1/2-x,1/2-y,-z
1/2+x,1/2+y,-z
1/2-x,1/2+y,1/2+z
1/2+x,1/2-y,1/2+z
loop_
_atom_site_type_symbol
_atom_site_label
_atom_site_fract_x
_atom_site_fract_y
_atom_site_fract_z
Si Si1 0.319589 0.650145 0.872899
Si Si2 0.885766 0.834502 0.136412
Si Si3 0.750000 0.250000 0.269768
Si Si4 0.028677 0.339638 0.582763
Si Si5 0.500000 0.500000 0.750000
O O1 0.250000 0.750000 0.910528
O O2 0.339491 0.479757 0.896946
O O3 0.285651 0.635265 0.790697
O O4 0.400550 0.750029 0.876530
O O5 0.823605 0.721149 0.175780
O O6 0.947775 0.758487 0.082604
O O7 0.943247 0.900968 0.199004
O O8 0.056465 0.364866 0.500000
O O9 0.000000 0.500000 0.615398
#
# Coordination Sequence:
#
# PCOD9498560 Si02
#       5
#    16  16   8  16   4
#     4  10  22  40  64  98 124 168 211 262 330 382
#     4  12  21  39  68  93 134 167 211 267 324 392
#     4  10  22  36  66 100 130 160 208 268 332 388
#     4  11  26  45  64  92 130 175 226 268 317 383
#     4  12  16  40  64 100 120 166 210 262 324 400
#
# _framework density 22.160361000000002
#
# number of rings (size 3 to 8) (size 9 to 14) (size 15 to 20)
#    0.800    0.267    5.333    0.000    3.733    2.667 
#    0.000    5.333    0.000    0.000    0.000    0.000 
#    0.000    0.000    0.000    0.000    0.000    0.000 
#
# Total GULP energy -167083.013259 kJ/mol
# GULP energy per Si atom -5569.433775 kJ/mol
# Density = 2.210992 g / cm^3
# Si number density = 22.160361 Si / 1000 Ang^3
#
#
#
# Elastic Constant Matrix: (Units=GPa)
#
#
# Indices 1 2 3 4 5 6 
#
# 1 143.5815 48.9451 20.0402 0.0000 0.0000 0.0000
# 2 48.9451 109.5679 10.4566 0.0000 0.0000 0.0000
# 3 20.0402 10.4566 47.1981 0.0000 0.0000 0.0000
# 4 0.0000 0.0000 0.0000 11.6635 0.0000 0.0000
# 5 0.0000 0.0000 0.0000 0.0000 28.1877 0.0000
# 6 0.0000 0.0000 0.0000 0.0000 0.0000 40.4629
#
#
#
# Elastic Compliance Matrix: (Units=1/GPa)
#
#
# Indices 1 2 3 4 5 6 
#
# 1 0.008576 -0.003559 -0.002853 0.000000 0.000000 0.000000
# 2 -0.003559 0.010801 -0.000882 0.000000 0.000000 0.000000
# 3 -0.002853 -0.000882 0.022594 0.000000 0.000000 0.000000
# 4 0.000000 0.000000 0.000000 0.085738 0.000000 0.000000
# 5 0.000000 0.000000 0.000000 0.000000 0.035477 0.000000
# 6 0.000000 0.000000 0.000000 0.000000 0.000000 0.024714
#
#
# Mechanical properties :
#
#
# Convention : Reuss Voigt Hill
#
# Bulk Modulus (GPa) = 36.51805 51.02569 43.77187
# Shear Modulus (GPa) = 23.62797 30.78986 27.20891
#
# Velocity S-wave (km/s) = 3.26886 3.73152 3.50783
# Velocity P-wave (km/s) = 5.54635 6.45301 6.01678
#
# Compressibility (1/GPa) = 0.02738372
#
# Stress axis : x y z
#
# Youngs Moduli (GPa) = 116.60453 92.58715 44.25949
#
# Poissons Ratio (x) = 0.32949 0.12627
# Poissons Ratio (y) = 0.41496 0.03903
# Poissons Ratio (z) = 0.33266 0.08165
#
# Static dielectric constant tensor:
#      x y z
#    x 1.817980 0.000000 0.000000 
#    y 0.000000 1.897960 0.000000 
#    z 0.000000 0.000000 1.803950 
# 
# From -- ./inp_files/57620.got.cif
#   From: 2010.05.17/outbox.cif.g08.bks.cpg/sg66_29_cif.got.tgz:57620.got - 2010.06.03 17:51:23.
