data_PCOD9498082
_publ_section_title
;
Structure prediction by ZEFSAII (Michael W. Deem and Ramdas Pophale) SiO2 
 PCOD9498082
Probable space group: C C C M
;
_chemical_formula_sum "Si O2"
_cell_formula_units_Z 56
_cell_length_a 5.312024
_cell_length_b 23.288668
_cell_length_c 22.781158
_cell_angle_alpha 90.000000
_cell_angle_beta 90.000000
_cell_angle_gamma 90.000000
_cell_volume 2818.256221
_symmetry_space_group_name_H-M "C C C M"
_symmetry_group_IT_number 66
_symmetry_cell_setting 'orthorhombic'
loop_
_space_group_symop_operation_xyz
x,y,z
-x,-y,z
x,-y,1/2-z
-x,y,1/2-z
-x,-y,-z
x,y,-z
-x,y,1/2+z
x,-y,1/2+z
1/2+x,1/2+y,z
1/2-x,1/2-y,z
1/2+x,1/2-y,1/2-z
1/2-x,1/2+y,1/2-z
1/2-x,1/2-y,-z
1/2+x,1/2+y,-z
1/2-x,1/2+y,1/2+z
1/2+x,1/2-y,1/2+z
loop_
_atom_site_type_symbol
_atom_site_label
_atom_site_fract_x
_atom_site_fract_y
_atom_site_fract_z
Si Si1 0.745036 0.935438 0.723640
Si Si2 0.174043 0.683319 0.430694
Si Si3 0.163755 0.854540 0.133136
Si Si4 0.000000 0.784888 0.750000
O O1 0.500000 0.905649 0.750000
O O2 0.764546 0.919013 0.655914
O O3 0.000000 0.912602 0.750000
O O4 0.737952 0.000000 0.750000
O O5 0.146278 0.672348 0.500000
O O6 0.250000 0.750000 0.423128
O O7 0.409391 0.647623 0.404695
O O8 0.909061 0.670247 0.399212
O O9 0.101885 0.817224 0.191365
O O10 0.250000 0.750000 0.730465
#
# Coordination Sequence:
#
# PCOD9498082 Si02
#       4
#    16  16  16   8
#     4  10  21  38  59  89 121 149 197 244 313 375
#     4  11  24  41  59  85 124 175 220 248 286 352
#     4  12  22  38  61  88 124 162 200 250 308 366
#     4  12  24  34  53  88 131 158 188 244 316 378
#
# _framework density 19.870441
#
# number of rings (size 3 to 8) (size 9 to 14) (size 15 to 20)
#    0.000    0.857    1.429    7.714    2.000    2.286 
#    0.000    0.000    0.000    0.000    0.000   80.000 
#    0.000    0.000    0.000    0.000    0.000    0.000 
#
# Total GULP energy -155999.118359 kJ/mol
# GULP energy per Si atom -5571.397084 kJ/mol
# Density = 1.982522 g / cm^3
# Si number density = 19.870441 Si / 1000 Ang^3
#
#
#
# Elastic Constant Matrix: (Units=GPa)
#
#
# Indices 1 2 3 4 5 6 
#
# 1 215.4896 36.9444 82.2295 0.0000 0.0000 0.0000
# 2 36.9444 64.1543 56.7772 0.0000 0.0000 0.0000
# 3 82.2295 56.7772 147.4715 0.0000 0.0000 0.0000
# 4 0.0000 0.0000 0.0000 24.7826 0.0000 0.0000
# 5 0.0000 0.0000 0.0000 0.0000 45.5550 0.0000
# 6 0.0000 0.0000 0.0000 0.0000 0.0000 -159.8004
#
#
#
# Elastic Compliance Matrix: (Units=1/GPa)
#
#
# Indices 1 2 3 4 5 6 
#
# 1 0.005918 -0.000740 -0.003015 0.000000 0.000000 0.000000
# 2 -0.000740 0.023736 -0.008726 0.000000 0.000000 0.000000
# 3 -0.003015 -0.008726 0.011822 0.000000 0.000000 0.000000
# 4 0.000000 0.000000 0.000000 0.040351 0.000000 0.000000
# 5 0.000000 0.000000 0.000000 0.000000 0.021951 0.000000
# 6 0.000000 0.000000 0.000000 0.000000 0.000000 -0.006258
#
#
# Mechanical properties :
#
#
# Convention : Reuss Voigt Hill
#
# Bulk Modulus (GPa) = 60.55391 86.55750 73.55571
# Shear Modulus (GPa) = 39.06666 -1.14825 18.95920
#
# Velocity S-wave (km/s) = 4.43885 -0.76100 3.09227
# Velocity P-wave (km/s) = 7.53735 6.54854 7.06028
#
# Compressibility (1/GPa) = 0.01651421
#
# Stress axis : x y z
#
# Youngs Moduli (GPa) = 168.97827 42.13010 84.58991
#
# Poissons Ratio (x) = 0.03116 0.25504
# Poissons Ratio (y) = 0.12497 0.73814
# Poissons Ratio (z) = 0.50948 0.36763
#
# Static dielectric constant tensor:
#      x y z
#    x 1.714680 0.000000 0.000000 
#    y 0.000000 1.522640 0.000000 
#    z 0.000000 0.000000 1.716500 
# 
# From -- ./inp_files/45451.got.cif
#   From: 2010.05.17/outbox.cif.g08.bks.cpg/sg66_23_cif.got.tgz:45451.got - 2010.06.03 17:51:23.
