data_PCOD9498786
_publ_section_title
;
Structure prediction by ZEFSAII (Michael W. Deem and Ramdas Pophale) SiO2 
 PCOD9498786
Probable space group: C C C M
;
_chemical_formula_sum "Si O2"
_cell_formula_units_Z 56
_cell_length_a 20.488862
_cell_length_b 5.157310
_cell_length_c 26.565753
_cell_angle_alpha 90.000000
_cell_angle_beta 90.000000
_cell_angle_gamma 90.000000
_cell_volume 2807.134391
_symmetry_space_group_name_H-M "C C C M"
_symmetry_group_IT_number 66
_symmetry_cell_setting 'orthorhombic'
loop_
_space_group_symop_operation_xyz
x,y,z
-x,-y,z
x,-y,1/2-z
-x,y,1/2-z
-x,-y,-z
x,y,-z
-x,y,1/2+z
x,-y,1/2+z
1/2+x,1/2+y,z
1/2-x,1/2-y,z
1/2+x,1/2-y,1/2-z
1/2-x,1/2+y,1/2-z
1/2-x,1/2-y,-z
1/2+x,1/2+y,-z
1/2-x,1/2+y,1/2+z
1/2+x,1/2-y,1/2+z
loop_
_atom_site_type_symbol
_atom_site_label
_atom_site_fract_x
_atom_site_fract_y
_atom_site_fract_z
Si Si1 0.376435 0.614849 0.349435
Si Si2 0.679929 0.616051 0.444171
Si Si3 0.794867 0.000000 0.250000
Si Si4 0.931557 0.381485 0.109883
O O1 0.328928 0.580475 0.397913
O O2 0.338847 0.555111 0.298656
O O3 0.430498 0.393328 0.361080
O O4 0.404193 0.901789 0.352310
O O5 0.672402 0.502350 0.500000
O O6 0.750000 0.750000 0.440933
O O7 0.621451 0.822442 0.433667
O O8 0.750000 0.250000 0.240346
O O9 0.000000 0.500000 0.091727
#
# Coordination Sequence:
#
# PCOD9498786 Si02
#       4
#    16  16   8  16
#     4  10  23  39  63  92 123 160 208 261 299 376
#     4   9  21  39  63  94 125 163 207 261 317 366
#     4  12  24  40  67  96 127 164 206 256 320 372
#     4  10  22  41  62  88 127 167 208 252 310 375
#
# _framework density 19.949168
#
# number of rings (size 3 to 8) (size 9 to 14) (size 15 to 20)
#    1.714    0.286    0.000    3.429    4.000    1.714 
#    0.000    8.571    0.000    0.000    0.000    0.000 
#    0.000    0.000    0.000    0.000    0.000    0.000 
#
# Total GULP energy -155929.625693 kJ/mol
# GULP energy per Si atom -5568.915203 kJ/mol
# Density = 1.990376 g / cm^3
# Si number density = 19.949168 Si / 1000 Ang^3
#
#
#
# Elastic Constant Matrix: (Units=GPa)
#
#
# Indices 1 2 3 4 5 6 
#
# 1 95.9847 -7.1020 31.3582 0.0000 0.0000 0.0000
# 2 -7.1020 58.5350 6.1695 0.0000 0.0000 0.0000
# 3 31.3582 6.1695 119.1645 0.0000 0.0000 0.0000
# 4 0.0000 0.0000 0.0000 59.3023 0.0000 0.0000
# 5 0.0000 0.0000 0.0000 0.0000 3.4598 0.0000
# 6 0.0000 0.0000 0.0000 0.0000 0.0000 23.4283
#
#
#
# Elastic Compliance Matrix: (Units=1/GPa)
#
#
# Indices 1 2 3 4 5 6 
#
# 1 0.011571 0.001734 -0.003135 0.000000 0.000000 0.000000
# 2 0.001734 0.017437 -0.001359 0.000000 0.000000 0.000000
# 3 -0.003135 -0.001359 0.009287 0.000000 0.000000 0.000000
# 4 0.000000 0.000000 0.000000 0.016863 0.000000 0.000000
# 5 0.000000 0.000000 0.000000 0.000000 0.289036 0.000000
# 6 0.000000 0.000000 0.000000 0.000000 0.000000 0.042683
#
#
# Mechanical properties :
#
#
# Convention : Reuss Voigt Hill
#
# Bulk Modulus (GPa) = 30.50999 37.17060 33.84029
# Shear Modulus (GPa) = 12.39705 33.45531 22.92618
#
# Velocity S-wave (km/s) = 2.49556 4.09960 3.39371
# Velocity P-wave (km/s) = 4.86115 6.40953 5.68827
#
# Compressibility (1/GPa) = 0.03277615
#
# Stress axis : x y z
#
# Youngs Moduli (GPa) = 86.42494 57.34777 107.67731
#
# Poissons Ratio (x) = -0.09946 0.33753
# Poissons Ratio (y) = -0.14988 0.14635
# Poissons Ratio (z) = 0.27091 0.07794
#
# Static dielectric constant tensor:
#      x y z
#    x 1.736620 0.000000 0.000000 
#    y 0.000000 1.712980 0.000000 
#    z 0.000000 0.000000 1.677100 
# 
# From -- ./inp_files/59113.got.cif
#   From: 2010.05.17/outbox.cif.g08.bks.cpg/sg66_30_cif.got.tgz:59113.got - 2010.06.03 17:51:23.
