data_PCOD9498261
_publ_section_title
;
Structure prediction by ZEFSAII (Michael W. Deem and Ramdas Pophale) SiO2 
 PCOD9498261
Probable space group: C C C M
;
_chemical_formula_sum "Si O2"
_cell_formula_units_Z 48
_cell_length_a 17.444571
_cell_length_b 4.929508
_cell_length_c 26.478762
_cell_angle_alpha 90.000000
_cell_angle_beta 90.000000
_cell_angle_gamma 90.000000
_cell_volume 2276.992213
_symmetry_space_group_name_H-M "C C C M"
_symmetry_group_IT_number 66
_symmetry_cell_setting 'orthorhombic'
loop_
_space_group_symop_operation_xyz
x,y,z
-x,-y,z
x,-y,1/2-z
-x,y,1/2-z
-x,-y,-z
x,y,-z
-x,y,1/2+z
x,-y,1/2+z
1/2+x,1/2+y,z
1/2-x,1/2-y,z
1/2+x,1/2-y,1/2-z
1/2-x,1/2+y,1/2-z
1/2-x,1/2-y,-z
1/2+x,1/2+y,-z
1/2-x,1/2+y,1/2+z
1/2+x,1/2-y,1/2+z
loop_
_atom_site_type_symbol
_atom_site_label
_atom_site_fract_x
_atom_site_fract_y
_atom_site_fract_z
Si Si1 0.806179 0.995611 0.942833
Si Si2 0.828417 0.610139 0.694511
Si Si3 0.910855 0.927565 0.848358
O O1 0.750000 0.750000 0.929660
O O2 0.871260 0.013306 0.901059
O O3 0.750000 0.250000 0.943679
O O4 0.836440 0.954306 0.000000
O O5 0.809857 0.500000 0.750000
O O6 0.750000 0.750000 0.673145
O O7 0.874171 0.368171 0.665356
O O8 0.883718 0.866407 0.694929
O O9 0.000000 0.000000 0.853562
#
# Coordination Sequence:
#
# PCOD9498261 Si02
#       3
#    16  16  16
#     4  10  21  39  64  90 119 161 210 256 304 369
#     4  12  25  43  66  91 122 167 219 262 307 373
#     4  12  25  40  63  95 131 165 201 260 327 381
#
# _framework density 21.080441
#
# number of rings (size 3 to 8) (size 9 to 14) (size 15 to 20)
#    0.000    0.667    0.000   10.000    0.000    4.667 
#    0.000    0.000    0.000   10.000    0.000    0.000 
#    0.000    0.000    0.000    0.000    0.000    0.000 
#
# Total GULP energy -133889.215318 kJ/mol
# GULP energy per Si atom -5578.717305 kJ/mol
# Density = 2.103246 g / cm^3
# Si number density = 21.080441 Si / 1000 Ang^3
#
#
#
# Elastic Constant Matrix: (Units=GPa)
#
#
# Indices 1 2 3 4 5 6 
#
# 1 177.3770 69.9992 66.8282 0.0000 0.0000 0.0000
# 2 69.9992 146.7665 11.6311 0.0000 0.0000 0.0000
# 3 66.8282 11.6311 86.1429 0.0000 0.0000 0.0000
# 4 0.0000 0.0000 0.0000 25.8046 0.0000 0.0000
# 5 0.0000 0.0000 0.0000 0.0000 14.0854 0.0000
# 6 0.0000 0.0000 0.0000 0.0000 0.0000 26.1438
#
#
#
# Elastic Compliance Matrix: (Units=1/GPa)
#
#
# Indices 1 2 3 4 5 6 
#
# 1 0.010007 -0.004203 -0.007196 0.000000 0.000000 0.000000
# 2 -0.004203 0.008652 0.002092 0.000000 0.000000 0.000000
# 3 -0.007196 0.002092 0.016909 0.000000 0.000000 0.000000
# 4 0.000000 0.000000 0.000000 0.038753 0.000000 0.000000
# 5 0.000000 0.000000 0.000000 0.000000 0.070995 0.000000
# 6 0.000000 0.000000 0.000000 0.000000 0.000000 0.038250
#
#
# Mechanical properties :
#
#
# Convention : Reuss Voigt Hill
#
# Bulk Modulus (GPa) = 58.97953 78.57817 68.77885
# Shear Modulus (GPa) = 24.05792 30.66194 27.35993
#
# Velocity S-wave (km/s) = 3.38189 3.81796 3.60652
# Velocity P-wave (km/s) = 6.57941 7.53605 7.07392
#
# Compressibility (1/GPa) = 0.01695503
#
# Stress axis : x y z
#
# Youngs Moduli (GPa) = 99.92548 115.57769 59.14076
#
# Poissons Ratio (x) = 0.48574 0.42559
# Poissons Ratio (y) = 0.41996 -0.12373
# Poissons Ratio (z) = 0.71908 -0.24181
#
# Static dielectric constant tensor:
#      x y z
#    x 1.844190 0.000000 0.000000 
#    y 0.000000 1.764610 0.000000 
#    z 0.000000 0.000000 1.775240 
# 
# From -- ./inp_files/60808.got.cif
#   From: 2010.05.17/outbox.cif.g08.bks.cpg/sg66_31_cif.got.tgz:60808.got - 2010.06.03 17:51:23.
