data_PCOD9498121
_publ_section_title
;
Structure prediction by ZEFSAII (Michael W. Deem and Ramdas Pophale) SiO2 
 PCOD9498121
Probable space group: C C C M
;
_chemical_formula_sum "Si O2"
_cell_formula_units_Z 64
_cell_length_a 35.921581
_cell_length_b 5.071828
_cell_length_c 16.932375
_cell_angle_alpha 90.000000
_cell_angle_beta 90.000000
_cell_angle_gamma 90.000000
_cell_volume 3084.876897
_symmetry_space_group_name_H-M "C C C M"
_symmetry_group_IT_number 66
_symmetry_cell_setting 'orthorhombic'
loop_
_space_group_symop_operation_xyz
x,y,z
-x,-y,z
x,-y,1/2-z
-x,y,1/2-z
-x,-y,-z
x,y,-z
-x,y,1/2+z
x,-y,1/2+z
1/2+x,1/2+y,z
1/2-x,1/2-y,z
1/2+x,1/2-y,1/2-z
1/2-x,1/2+y,1/2-z
1/2-x,1/2-y,-z
1/2+x,1/2+y,-z
1/2-x,1/2+y,1/2+z
1/2+x,1/2-y,1/2+z
loop_
_atom_site_type_symbol
_atom_site_label
_atom_site_fract_x
_atom_site_fract_y
_atom_site_fract_z
Si Si1 0.025156 0.759021 0.909587
Si Si2 0.356764 0.590333 0.408983
Si Si3 0.723793 0.502746 0.156902
Si Si4 0.604210 0.102014 0.161139
O O1 0.937580 0.327586 0.865544
O O2 0.000000 0.500000 0.912056
O O3 0.035351 0.835874 0.000000
O O4 0.000000 0.000000 0.876821
O O5 0.365621 0.528335 0.500000
O O6 0.312841 0.554065 0.394318
O O7 0.374556 0.374631 0.351612
O O8 0.374430 0.875207 0.388837
O O9 0.712688 0.500000 0.250000
O O10 0.750000 0.750000 0.145385
O O11 0.750000 0.250000 0.140546
O O12 0.604429 0.000000 0.250000
#
# Coordination Sequence:
#
# PCOD9498121 Si02
#       4
#    16  16  16  16
#     4  10  21  39  64  92 124 161 201 251 312 375
#     4  12  25  42  66  95 130 171 218 271 326 387
#     4  10  21  38  61  90 126 167 211 263 325 388
#     4  12  25  43  66  95 131 171 218 268 323 388
#
# _framework density 20.746369999999999
#
# number of rings (size 3 to 8) (size 9 to 14) (size 15 to 20)
#    0.000    1.000    0.000    7.500    0.000    5.500 
#    0.000    1.250    0.000    0.000    0.000    0.000 
#    0.000    0.000    0.000    0.000    0.000    0.000 
#
# Total GULP energy -178846.549753 kJ/mol
# GULP energy per Si atom -5588.954680 kJ/mol
# Density = 2.069915 g / cm^3
# Si number density = 20.746370 Si / 1000 Ang^3
#
#
#
# Elastic Constant Matrix: (Units=GPa)
#
#
# Indices 1 2 3 4 5 6 
#
# 1 105.4698 27.5760 25.9221 0.0000 0.0000 0.0000
# 2 27.5760 127.5432 -4.7337 0.0000 0.0000 0.0000
# 3 25.9221 -4.7337 57.4172 0.0000 0.0000 0.0000
# 4 0.0000 0.0000 0.0000 13.4899 0.0000 0.0000
# 5 0.0000 0.0000 0.0000 0.0000 36.4856 0.0000
# 6 0.0000 0.0000 0.0000 0.0000 0.0000 93.1750
#
#
#
# Elastic Compliance Matrix: (Units=1/GPa)
#
#
# Indices 1 2 3 4 5 6 
#
# 1 0.011518 -0.002691 -0.005422 0.000000 0.000000 0.000000
# 2 -0.002691 0.008493 0.001915 0.000000 0.000000 0.000000
# 3 -0.005422 0.001915 0.020022 0.000000 0.000000 0.000000
# 4 0.000000 0.000000 0.000000 0.074130 0.000000 0.000000
# 5 0.000000 0.000000 0.000000 0.000000 0.027408 0.000000
# 6 0.000000 0.000000 0.000000 0.000000 0.000000 0.010732
#
#
# Mechanical properties :
#
#
# Convention : Reuss Voigt Hill
#
# Bulk Modulus (GPa) = 36.18279 43.10657 39.64468
# Shear Modulus (GPa) = 28.75025 44.74115 36.74570
#
# Velocity S-wave (km/s) = 3.72667 4.64893 4.21311
# Velocity P-wave (km/s) = 5.99965 7.04555 6.54353
#
# Compressibility (1/GPa) = 0.02763745
#
# Stress axis : x y z
#
# Youngs Moduli (GPa) = 86.82343 117.73736 49.94493
#
# Poissons Ratio (x) = 0.31688 0.27079
# Poissons Ratio (y) = 0.23368 -0.09566
# Poissons Ratio (z) = 0.47073 -0.22551
#
# Static dielectric constant tensor:
#      x y z
#    x 1.746220 0.000000 0.000000 
#    y 0.000000 1.701570 0.000000 
#    z 0.000000 0.000000 1.079390 
# 
# From -- ./inp_files/44487.got.cif
#   From: 2010.05.17/outbox.cif.g08.bks.cpg/sg66_23_cif.got.tgz:44487.got - 2010.06.03 17:51:23.
