data_PCOD9498229
_publ_section_title
;
Structure prediction by ZEFSAII (Michael W. Deem and Ramdas Pophale) SiO2 
 PCOD9498229
Probable space group: C C C M
;
_chemical_formula_sum "Si O2"
_cell_formula_units_Z 64
_cell_length_a 15.771986
_cell_length_b 7.592370
_cell_length_c 23.709200
_cell_angle_alpha 90.000000
_cell_angle_beta 90.000000
_cell_angle_gamma 90.000000
_cell_volume 2839.099724
_symmetry_space_group_name_H-M "C C C M"
_symmetry_group_IT_number 66
_symmetry_cell_setting 'orthorhombic'
loop_
_space_group_symop_operation_xyz
x,y,z
-x,-y,z
x,-y,1/2-z
-x,y,1/2-z
-x,-y,-z
x,y,-z
-x,y,1/2+z
x,-y,1/2+z
1/2+x,1/2+y,z
1/2-x,1/2-y,z
1/2+x,1/2-y,1/2-z
1/2-x,1/2+y,1/2-z
1/2-x,1/2-y,-z
1/2+x,1/2+y,-z
1/2-x,1/2+y,1/2+z
1/2+x,1/2-y,1/2+z
loop_
_atom_site_type_symbol
_atom_site_label
_atom_site_fract_x
_atom_site_fract_y
_atom_site_fract_z
Si Si1 0.982007 0.287752 0.000000
Si Si2 0.265061 0.038827 0.394675
Si Si3 0.907634 0.557556 0.314727
Si Si4 0.415587 0.605174 0.886424
Si Si5 0.663728 0.854817 0.000000
O O1 0.081243 0.232304 0.000000
O O2 0.000000 0.500000 0.000000
O O3 0.936362 0.212267 0.055627
O O4 0.250000 0.250000 0.398741
O O5 0.321380 0.982834 0.341680
O O6 0.167096 0.981018 0.394004
O O7 0.323717 0.976512 0.445653
O O8 0.908552 0.500000 0.250000
O O9 0.901509 0.761070 0.334139
O O10 0.000000 0.500000 0.338748
O O11 0.500000 0.500000 0.873974
O O12 0.750000 0.750000 0.000000
#
# Coordination Sequence:
#
# PCOD9498229 Si02
#       5
#     8  16  16  16   8
#     4  12  22  36  64  94 133 175 204 241 312 393
#     4  10  21  39  62  87 120 159 201 248 304 368
#     4  10  22  43  65  84 115 159 208 255 307 376
#     4  11  22  40  63  96 129 161 204 263 316 367
#     4  12  22  34  56  92 126 161 200 247 302 365
#
# _framework density 22.542358
#
# number of rings (size 3 to 8) (size 9 to 14) (size 15 to 20)
#    0.000    1.250    0.000    8.250    0.000    0.000 
#    0.000   21.250    0.000    0.000    0.000    0.000 
#    0.000    0.000    0.000    0.000    0.000    0.000 
#
# Total GULP energy -178510.792245 kJ/mol
# GULP energy per Si atom -5578.462258 kJ/mol
# Density = 2.249105 g / cm^3
# Si number density = 22.542358 Si / 1000 Ang^3
#
#
#
# Elastic Constant Matrix: (Units=GPa)
#
#
# Indices 1 2 3 4 5 6 
#
# 1 218.1706 12.2292 58.1539 0.0000 0.0000 0.0000
# 2 12.2292 35.3198 33.1170 0.0000 0.0000 0.0000
# 3 58.1539 33.1170 140.0358 0.0000 0.0000 0.0000
# 4 0.0000 0.0000 0.0000 27.0519 0.0000 0.0000
# 5 0.0000 0.0000 0.0000 0.0000 31.6447 0.0000
# 6 0.0000 0.0000 0.0000 0.0000 0.0000 37.0449
#
#
#
# Elastic Compliance Matrix: (Units=1/GPa)
#
#
# Indices 1 2 3 4 5 6 
#
# 1 0.005156 0.000286 -0.002209 0.000000 0.000000 0.000000
# 2 0.000286 0.036395 -0.008726 0.000000 0.000000 0.000000
# 3 -0.002209 -0.008726 0.010122 0.000000 0.000000 0.000000
# 4 0.000000 0.000000 0.000000 0.036966 0.000000 0.000000
# 5 0.000000 0.000000 0.000000 0.000000 0.031601 0.000000
# 6 0.000000 0.000000 0.000000 0.000000 0.000000 0.026994
#
#
# Mechanical properties :
#
#
# Convention : Reuss Voigt Hill
#
# Bulk Modulus (GPa) = 32.92098 66.72515 49.82306
# Shear Modulus (GPa) = 27.98647 38.48337 33.23492
#
# Velocity S-wave (km/s) = 3.52732 4.13626 3.84387
# Velocity P-wave (km/s) = 5.58794 7.24401 6.46919
#
# Compressibility (1/GPa) = 0.03037577
#
# Stress axis : x y z
#
# Youngs Moduli (GPa) = 193.93603 27.47605 98.79571
#
# Poissons Ratio (x) = -0.00785 0.21823
# Poissons Ratio (y) = -0.05543 0.86207
# Poissons Ratio (z) = 0.42839 0.23975
#
# Static dielectric constant tensor:
#      x y z
#    x 2.000640 0.000000 0.000000 
#    y 0.000000 1.962730 0.000000 
#    z 0.000000 0.000000 1.894640 
# 
# From -- ./inp_files/57705.got.cif
#   From: 2010.05.17/outbox.cif.g08.bks.cpg/sg66_29_cif.got.tgz:57705.got - 2010.06.03 17:51:23.
