data_PCOD9498158
_publ_section_title
;
Structure prediction by ZEFSAII (Michael W. Deem and Ramdas Pophale) SiO2 
 PCOD9498158
Probable space group: C C C M
;
_chemical_formula_sum "Si O2"
_cell_formula_units_Z 52
_cell_length_a 30.778927
_cell_length_b 4.991922
_cell_length_c 15.073835
_cell_angle_alpha 90.000000
_cell_angle_beta 90.000000
_cell_angle_gamma 90.000000
_cell_volume 2316.034495
_symmetry_space_group_name_H-M "C C C M"
_symmetry_group_IT_number 66
_symmetry_cell_setting 'orthorhombic'
loop_
_space_group_symop_operation_xyz
x,y,z
-x,-y,z
x,-y,1/2-z
-x,y,1/2-z
-x,-y,-z
x,y,-z
-x,y,1/2+z
x,-y,1/2+z
1/2+x,1/2+y,z
1/2-x,1/2-y,z
1/2+x,1/2-y,1/2-z
1/2-x,1/2+y,1/2-z
1/2-x,1/2-y,-z
1/2+x,1/2+y,-z
1/2-x,1/2+y,1/2+z
1/2+x,1/2-y,1/2+z
loop_
_atom_site_type_symbol
_atom_site_label
_atom_site_fract_x
_atom_site_fract_y
_atom_site_fract_z
Si Si1 0.061326 0.916415 0.651303
Si Si2 0.000000 0.000000 0.000000
Si Si3 0.797003 0.251805 0.815328
Si Si4 0.114569 0.568183 0.100374
O O1 0.097219 0.680816 0.658042
O O2 0.047716 0.000000 0.750000
O O3 0.081645 0.184124 0.608293
O O4 0.025285 0.831219 0.580076
O O5 0.792964 0.500000 0.750000
O O6 0.750000 0.250000 0.863399
O O7 0.838839 0.311917 0.873842
O O8 0.803669 0.000000 0.750000
O O9 0.116093 0.467032 0.000000
#
# Coordination Sequence:
#
# PCOD9498158 Si02
#       4
#    16   4  16  16
#     4  12  26  45  71  96 134 178 218 275 342 401
#     4  12  26  50  68 104 130 166 230 286 328 416
#     4  10  21  38  63  95 133 178 228 275 327 395
#     4  12  23  43  66  99 136 174 224 278 327 402
#
# _framework density 22.452169999999999
#
# number of rings (size 3 to 8) (size 9 to 14) (size 15 to 20)
#    0.000    0.615    3.077    6.000    0.000    3.077 
#    0.000    3.077    0.000    9.231    0.000    0.000 
#    0.000    0.000    0.000    0.000    0.000    0.000 
#
# Total GULP energy -144811.175236 kJ/mol
# GULP energy per Si atom -5569.660586 kJ/mol
# Density = 2.240107 g / cm^3
# Si number density = 22.452170 Si / 1000 Ang^3
#
#
#
# Elastic Constant Matrix: (Units=GPa)
#
#
# Indices 1 2 3 4 5 6 
#
# 1 107.9292 20.2168 35.2154 0.0000 0.0000 0.0000
# 2 20.2168 119.6063 13.4784 0.0000 0.0000 0.0000
# 3 35.2154 13.4784 145.0411 0.0000 0.0000 0.0000
# 4 0.0000 0.0000 0.0000 19.6640 0.0000 0.0000
# 5 0.0000 0.0000 0.0000 0.0000 52.2792 0.0000
# 6 0.0000 0.0000 0.0000 0.0000 0.0000 30.2466
#
#
#
# Elastic Compliance Matrix: (Units=1/GPa)
#
#
# Indices 1 2 3 4 5 6 
#
# 1 0.010314 -0.001477 -0.002367 0.000000 0.000000 0.000000
# 2 -0.001477 0.008661 -0.000446 0.000000 0.000000 0.000000
# 3 -0.002367 -0.000446 0.007511 0.000000 0.000000 0.000000
# 4 0.000000 0.000000 0.000000 0.050854 0.000000 0.000000
# 5 0.000000 0.000000 0.000000 0.000000 0.019128 0.000000
# 6 0.000000 0.000000 0.000000 0.000000 0.000000 0.033062
#
#
# Mechanical properties :
#
#
# Convention : Reuss Voigt Hill
#
# Bulk Modulus (GPa) = 55.84809 56.71086 56.27947
# Shear Modulus (GPa) = 34.70340 40.68238 37.69289
#
# Velocity S-wave (km/s) = 3.93575 4.26133 4.10177
# Velocity P-wave (km/s) = 6.75143 7.03742 6.89591
#
# Compressibility (1/GPa) = 0.01790572
#
# Stress axis : x y z
#
# Youngs Moduli (GPa) = 96.95317 115.46479 133.14204
#
# Poissons Ratio (x) = 0.17050 0.31515
# Poissons Ratio (y) = 0.14317 0.05942
# Poissons Ratio (z) = 0.22949 0.05153
#
# Static dielectric constant tensor:
#      x y z
#    x 2.022900 0.000000 0.000000 
#    y 0.000000 1.818140 0.000000 
#    z 0.000000 0.000000 1.792830 
# 
# From -- ./inp_files/22466.got.cif
#   From: 2010.05.17/outbox.cif.g08.bks.cpg/sg66_12_cif.got.tgz:22466.got - 2010.06.03 17:51:23.
