data_PCOD9498410
_publ_section_title
;
Structure prediction by ZEFSAII (Michael W. Deem and Ramdas Pophale) SiO2 
 PCOD9498410
Probable space group: C C C M
;
_chemical_formula_sum "Si O2"
_cell_formula_units_Z 108
_cell_length_a 11.755821
_cell_length_b 19.682361
_cell_length_c 23.280192
_cell_angle_alpha 90.000000
_cell_angle_beta 90.000000
_cell_angle_gamma 90.000000
_cell_volume 5386.624667
_symmetry_space_group_name_H-M "C C C M"
_symmetry_group_IT_number 66
_symmetry_cell_setting 'orthorhombic'
loop_
_space_group_symop_operation_xyz
x,y,z
-x,-y,z
x,-y,1/2-z
-x,y,1/2-z
-x,-y,-z
x,y,-z
-x,y,1/2+z
x,-y,1/2+z
1/2+x,1/2+y,z
1/2-x,1/2-y,z
1/2+x,1/2-y,1/2-z
1/2-x,1/2+y,1/2-z
1/2-x,1/2-y,-z
1/2+x,1/2+y,-z
1/2-x,1/2+y,1/2+z
1/2+x,1/2-y,1/2+z
loop_
_atom_site_type_symbol
_atom_site_label
_atom_site_fract_x
_atom_site_fract_y
_atom_site_fract_z
Si Si1 0.883872 0.967104 0.135146
Si Si2 0.405547 0.862661 0.000000
Si Si3 0.034276 0.835820 0.567008
Si Si4 0.683972 0.179282 0.808723
Si Si5 0.500000 0.000000 0.750000
Si Si6 0.675485 0.099765 0.691816
Si Si7 0.293719 0.603789 0.090572
Si Si8 0.961526 0.689677 0.112068
O O1 0.915783 0.902425 0.096665
O O2 0.791377 0.941019 0.180435
O O3 0.832968 0.026208 0.094687
O O4 0.000000 0.000000 0.159912
O O5 0.311959 0.885312 0.950696
O O6 0.491001 0.836785 0.948578
O O7 0.064323 0.830639 0.500000
O O8 0.897220 0.847249 0.571456
O O9 0.068383 0.768263 0.601227
O O10 0.750000 0.250000 0.812329
O O11 0.679744 0.152425 0.744287
O O12 0.754805 0.125378 0.846063
O O13 0.561536 0.186352 0.839550
O O14 0.421209 0.953851 0.709777
O O15 0.637738 0.141625 0.635702
#
# Coordination Sequence:
#
# PCOD9498410 Si02
#       8
#    16   8  16  16   4  16  16  16
#     4  10  26  46  68  99 133 185 234 278 349 420
#     4  10  22  37  68  99 134 172 229 292 339 414
#     4  11  22  41  67  97 141 182 227 283 345 408
#     4  11  22  40  69 101 133 176 228 282 344 409
#     4  12  24  48  74  98 132 188 222 282 362 408
#     4  12  26  47  70  96 143 183 227 289 348 421
#     4  10  21  40  68 100 130 172 232 293 336 410
#     4  11  23  42  63 105 134 180 231 278 353 407
#
# _framework density 20.049661
#
# number of rings (size 3 to 8) (size 9 to 14) (size 15 to 20)
#    0.000    1.185    4.444    0.889    5.185    1.481 
#    1.333   10.000    0.000    0.000    0.000    0.000 
#    0.000    0.000    0.000    0.000    0.000    0.000 
#
# Total GULP energy -300716.667812 kJ/mol
# GULP energy per Si atom -5568.827182 kJ/mol
# Density = 2.000403 g / cm^3
# Si number density = 20.049661 Si / 1000 Ang^3
#
#
#
# Elastic Constant Matrix: (Units=GPa)
#
#
# Indices 1 2 3 4 5 6 
#
# 1 78.3507 57.5065 34.3094 0.0000 0.0000 0.0000
# 2 57.5065 115.5285 45.2600 0.0000 0.0000 0.0000
# 3 34.3094 45.2600 92.5379 0.0000 0.0000 0.0000
# 4 0.0000 0.0000 0.0000 52.3001 0.0000 0.0000
# 5 0.0000 0.0000 0.0000 0.0000 19.6488 0.0000
# 6 0.0000 0.0000 0.0000 0.0000 0.0000 21.8533
#
#
#
# Elastic Compliance Matrix: (Units=1/GPa)
#
#
# Indices 1 2 3 4 5 6 
#
# 1 0.020890 -0.009109 -0.003290 0.000000 0.000000 0.000000
# 2 -0.009109 0.014680 -0.003803 0.000000 0.000000 0.000000
# 3 -0.003290 -0.003803 0.013886 0.000000 0.000000 0.000000
# 4 0.000000 0.000000 0.000000 0.019120 0.000000 0.000000
# 5 0.000000 0.000000 0.000000 0.000000 0.050894 0.000000
# 6 0.000000 0.000000 0.000000 0.000000 0.000000 0.045760
#
#
# Mechanical properties :
#
#
# Convention : Reuss Voigt Hill
#
# Bulk Modulus (GPa) = 58.64331 62.28546 60.46438
# Shear Modulus (GPa) = 24.59219 28.71651 26.65435
#
# Velocity S-wave (km/s) = 3.50603 3.78864 3.65007
# Velocity P-wave (km/s) = 6.76034 7.09023 6.92725
#
# Compressibility (1/GPa) = 0.01705224
#
# Stress axis : x y z
#
# Youngs Moduli (GPa) = 47.87058 68.12002 72.01576
#
# Poissons Ratio (x) = 0.62054 0.23691
# Poissons Ratio (y) = 0.43608 0.27384
# Poissons Ratio (z) = 0.15748 0.25903
#
# Static dielectric constant tensor:
#      x y z
#    x 1.728260 0.000000 0.000000 
#    y 0.000000 1.702710 0.000000 
#    z 0.000000 0.000000 1.678920 
# 
# From -- ./inp_files/57194.got.cif
#   From: 2010.05.17/outbox.cif.g08.bks.cpg/sg66_29_cif.got.tgz:57194.got - 2010.06.03 17:51:23.
