data_PCOD9498077
_publ_section_title
;
Structure prediction by ZEFSAII (Michael W. Deem and Ramdas Pophale) SiO2 
 PCOD9498077
Probable space group: C C C M
;
_chemical_formula_sum "Si O2"
_cell_formula_units_Z 80
_cell_length_a 14.421334
_cell_length_b 11.496416
_cell_length_c 24.909309
_cell_angle_alpha 90.000000
_cell_angle_beta 90.000000
_cell_angle_gamma 90.000000
_cell_volume 4129.805381
_symmetry_space_group_name_H-M "C C C M"
_symmetry_group_IT_number 66
_symmetry_cell_setting 'orthorhombic'
loop_
_space_group_symop_operation_xyz
x,y,z
-x,-y,z
x,-y,1/2-z
-x,y,1/2-z
-x,-y,-z
x,y,-z
-x,y,1/2+z
x,-y,1/2+z
1/2+x,1/2+y,z
1/2-x,1/2-y,z
1/2+x,1/2-y,1/2-z
1/2-x,1/2+y,1/2-z
1/2-x,1/2-y,-z
1/2+x,1/2+y,-z
1/2-x,1/2+y,1/2+z
1/2+x,1/2-y,1/2+z
loop_
_atom_site_type_symbol
_atom_site_label
_atom_site_fract_x
_atom_site_fract_y
_atom_site_fract_z
Si Si1 0.154723 0.791656 0.163594
Si Si2 0.806585 0.944272 0.155816
Si Si3 0.142539 0.370129 0.768333
Si Si4 0.688637 0.868820 0.060726
Si Si5 0.546230 0.754934 0.134450
O O1 0.250000 0.750000 0.136571
O O2 0.148010 0.715487 0.217898
O O3 0.061841 0.769456 0.130279
O O4 0.163795 0.928786 0.174970
O O5 0.740347 0.882557 0.199562
O O6 0.742215 0.951242 0.102565
O O7 0.894007 0.863366 0.141823
O O8 0.119932 0.500000 0.750000
O O9 0.068277 0.324623 0.810992
O O10 0.750000 0.750000 0.060463
O O11 0.591511 0.829089 0.086544
O O12 0.681599 0.911624 0.000000
#
# Coordination Sequence:
#
# PCOD9498077 Si02
#       5
#    16  16  16  16  16
#     4  12  23  37  54  81 122 159 190 236 292 341
#     4  10  21  38  59  86 117 149 195 243 291 352
#     4  11  22  37  55  81 114 156 195 230 279 352
#     4   8  16  37  66  90 112 145 194 252 298 345
#     4  10  22  36  59  88 113 146 199 241 288 351
#
# _framework density 19.371373999999999
#
# number of rings (size 3 to 8) (size 9 to 14) (size 15 to 20)
#    0.000    1.800    2.000    4.200    0.000    1.600 
#    0.000    3.000    0.000    8.400    0.000    0.000 
#    0.000    0.000    0.000    0.000    0.000    0.000 
#
# Total GULP energy -223441.336171 kJ/mol
# GULP energy per Si atom -5586.033404 kJ/mol
# Density = 1.932728 g / cm^3
# Si number density = 19.371374 Si / 1000 Ang^3
#
#
#
# Elastic Constant Matrix: (Units=GPa)
#
#
# Indices 1 2 3 4 5 6 
#
# 1 156.1701 22.9993 35.4074 0.0000 0.0000 0.0000
# 2 22.9993 109.5188 44.8056 0.0000 0.0000 0.0000
# 3 35.4074 44.8056 98.3579 0.0000 0.0000 0.0000
# 4 0.0000 0.0000 0.0000 11.1304 0.0000 0.0000
# 5 0.0000 0.0000 0.0000 0.0000 11.6112 0.0000
# 6 0.0000 0.0000 0.0000 0.0000 0.0000 18.2622
#
#
#
# Elastic Compliance Matrix: (Units=1/GPa)
#
#
# Indices 1 2 3 4 5 6 
#
# 1 0.006998 -0.000540 -0.002273 0.000000 0.000000 0.000000
# 2 -0.000540 0.011264 -0.004937 0.000000 0.000000 0.000000
# 3 -0.002273 -0.004937 0.013234 0.000000 0.000000 0.000000
# 4 0.000000 0.000000 0.000000 0.089844 0.000000 0.000000
# 5 0.000000 0.000000 0.000000 0.000000 0.086123 0.000000
# 6 0.000000 0.000000 0.000000 0.000000 0.000000 0.054758
#
#
# Mechanical properties :
#
#
# Convention : Reuss Voigt Hill
#
# Bulk Modulus (GPa) = 62.51328 63.38571 62.94950
# Shear Modulus (GPa) = 17.66449 25.58973 21.62711
#
# Velocity S-wave (km/s) = 3.02302 3.63851 3.34495
# Velocity P-wave (km/s) = 6.67277 7.10240 6.89093
#
# Compressibility (1/GPa) = 0.01599660
#
# Stress axis : x y z
#
# Youngs Moduli (GPa) = 142.89426 88.77911 75.56119
#
# Poissons Ratio (x) = 0.04790 0.17179
# Poissons Ratio (y) = 0.07710 0.37304
# Poissons Ratio (z) = 0.32487 0.43829
#
# Static dielectric constant tensor:
#      x y z
#    x 1.718460 0.000000 0.000000 
#    y 0.000000 1.681780 0.000000 
#    z 0.000000 0.000000 1.665390 
# 
# From -- ./inp_files/56605.got.cif
#   From: 2010.05.17/outbox.cif.g08.bks.cpg/sg66_29_cif.got.tgz:56605.got - 2010.06.03 17:51:23.
