data_PCOD9498394
_publ_section_title
;
Structure prediction by ZEFSAII (Michael W. Deem and Ramdas Pophale) SiO2 
 PCOD9498394
Probable space group: C C C M
;
_chemical_formula_sum "Si O2"
_cell_formula_units_Z 68
_cell_length_a 22.394794
_cell_length_b 8.059840
_cell_length_c 16.766920
_cell_angle_alpha 90.000000
_cell_angle_beta 90.000000
_cell_angle_gamma 90.000000
_cell_volume 3026.403180
_symmetry_space_group_name_H-M "C C C M"
_symmetry_group_IT_number 66
_symmetry_cell_setting 'orthorhombic'
loop_
_space_group_symop_operation_xyz
x,y,z
-x,-y,z
x,-y,1/2-z
-x,y,1/2-z
-x,-y,-z
x,y,-z
-x,y,1/2+z
x,-y,1/2+z
1/2+x,1/2+y,z
1/2-x,1/2-y,z
1/2+x,1/2-y,1/2-z
1/2-x,1/2+y,1/2-z
1/2-x,1/2-y,-z
1/2+x,1/2+y,-z
1/2-x,1/2+y,1/2+z
1/2+x,1/2-y,1/2+z
loop_
_atom_site_type_symbol
_atom_site_label
_atom_site_fract_x
_atom_site_fract_y
_atom_site_fract_z
Si Si1 0.476001 0.317716 0.904269
Si Si2 0.899308 0.692004 0.405872
Si Si3 0.250000 0.750000 0.500000
Si Si4 0.190738 0.823375 0.791919
Si Si5 0.850817 0.328398 0.366511
O O1 0.500000 0.500000 0.883712
O O2 0.530932 0.196268 0.883602
O O3 0.412839 0.272658 0.867812
O O4 0.467615 0.309953 0.000000
O O5 0.895518 0.728188 0.500000
O O6 0.862376 0.825362 0.355369
O O7 0.869295 0.515774 0.387988
O O8 0.197657 0.732989 0.430243
O O9 0.250000 0.750000 0.832687
O O10 0.175414 0.696146 0.721140
O O11 0.199346 0.000000 0.750000
#
# Coordination Sequence:
#
# PCOD9498394 Si02
#       5
#    16  16   4  16  16
#     4  10  21  40  67 101 140 180 228 285 342 408
#     4  11  24  45  70 104 135 179 233 284 347 410
#     4  12  24  40  72 110 136 188 222 288 338 424
#     4  12  27  46  67  99 141 184 229 286 343 408
#     4  12  23  44  72 102 141 180 233 281 347 409
#
# _framework density 22.468917000000001
#
# number of rings (size 3 to 8) (size 9 to 14) (size 15 to 20)
#    0.000    0.706    3.529    4.235    0.000    3.294 
#    2.118    4.706    0.000    0.000    0.000    0.000 
#    0.000    0.000    0.000    0.000    0.000    0.000 
#
# Total GULP energy -189823.837004 kJ/mol
# GULP energy per Si atom -5583.054030 kJ/mol
# Density = 2.241778 g / cm^3
# Si number density = 22.468917 Si / 1000 Ang^3
#
#
#
# Elastic Constant Matrix: (Units=GPa)
#
#
# Indices 1 2 3 4 5 6 
#
# 1 166.7604 34.2645 30.3221 0.0000 0.0000 0.0000
# 2 34.2645 57.7492 1.9273 0.0000 0.0000 0.0000
# 3 30.3221 1.9273 61.5198 0.0000 0.0000 0.0000
# 4 0.0000 0.0000 0.0000 10.3518 0.0000 0.0000
# 5 0.0000 0.0000 0.0000 0.0000 19.1382 0.0000
# 6 0.0000 0.0000 0.0000 0.0000 0.0000 27.8068
#
#
#
# Elastic Compliance Matrix: (Units=1/GPa)
#
#
# Indices 1 2 3 4 5 6 
#
# 1 0.007543 -0.004356 -0.003581 0.000000 0.000000 0.000000
# 2 -0.004356 0.019850 0.001525 0.000000 0.000000 0.000000
# 3 -0.003581 0.001525 0.017972 0.000000 0.000000 0.000000
# 4 0.000000 0.000000 0.000000 0.096602 0.000000 0.000000
# 5 0.000000 0.000000 0.000000 0.000000 0.052252 0.000000
# 6 0.000000 0.000000 0.000000 0.000000 0.000000 0.035962
#
#
# Mechanical properties :
#
#
# Convention : Reuss Voigt Hill
#
# Bulk Modulus (GPa) = 30.73061 46.56191 38.64626
# Shear Modulus (GPa) = 19.69652 26.09371 22.89512
#
# Velocity S-wave (km/s) = 2.96398 3.41152 3.19559
# Velocity P-wave (km/s) = 5.04184 6.02376 5.55454
#
# Compressibility (1/GPa) = 0.03254085
#
# Stress axis : x y z
#
# Youngs Moduli (GPa) = 132.57641 50.37818 55.64117
#
# Poissons Ratio (x) = 0.21944 0.19927
# Poissons Ratio (y) = 0.57749 -0.08486
# Poissons Ratio (z) = 0.47479 -0.07683
#
# Static dielectric constant tensor:
#      x y z
#    x 1.812740 0.000000 0.000000 
#    y 0.000000 1.886510 0.000000 
#    z 0.000000 0.000000 1.778210 
# 
# From -- ./inp_files/36473.got.cif
#   From: 2010.05.17/outbox.cif.g08.bks.cpg/sg66_19_cif.got.tgz:36473.got - 2010.06.03 17:51:23.
