data_PCOD9498912
_publ_section_title
;
Structure prediction by ZEFSAII (Michael W. Deem and Ramdas Pophale) SiO2 
 PCOD9498912
Probable space group: C C C M
;
_chemical_formula_sum "Si O2"
_cell_formula_units_Z 112
_cell_length_a 11.613041
_cell_length_b 28.844827
_cell_length_c 14.478119
_cell_angle_alpha 90.000000
_cell_angle_beta 90.000000
_cell_angle_gamma 90.000000
_cell_volume 4849.824686
_symmetry_space_group_name_H-M "C C C M"
_symmetry_group_IT_number 66
_symmetry_cell_setting 'orthorhombic'
loop_
_space_group_symop_operation_xyz
x,y,z
-x,-y,z
x,-y,1/2-z
-x,y,1/2-z
-x,-y,-z
x,y,-z
-x,y,1/2+z
x,-y,1/2+z
1/2+x,1/2+y,z
1/2-x,1/2-y,z
1/2+x,1/2-y,1/2-z
1/2-x,1/2+y,1/2-z
1/2-x,1/2-y,-z
1/2+x,1/2+y,-z
1/2-x,1/2+y,1/2+z
1/2+x,1/2-y,1/2+z
loop_
_atom_site_type_symbol
_atom_site_label
_atom_site_fract_x
_atom_site_fract_y
_atom_site_fract_z
Si Si1 0.696305 0.596599 0.598083
Si Si2 0.172192 0.687728 0.103539
Si Si3 0.775944 0.801435 0.204947
Si Si4 0.562496 0.369829 0.392276
Si Si5 0.686728 0.546781 0.212275
Si Si6 0.441827 0.954362 0.648969
Si Si7 0.568866 0.847722 0.105712
O O1 0.690203 0.570125 0.500000
O O2 0.794747 0.634255 0.591716
O O3 0.574594 0.623411 0.608410
O O4 0.718995 0.570080 0.690988
O O5 0.258822 0.702505 0.184609
O O6 0.038986 0.684885 0.132978
O O7 0.180765 0.708370 0.000000
O O8 0.750000 0.750000 0.166992
O O9 0.890379 0.826187 0.166457
O O10 0.675903 0.836091 0.170479
O O11 0.598710 0.365512 0.500000
O O12 0.612735 0.416904 0.346612
O O13 0.628770 0.500000 0.250000
O O14 0.805297 0.536578 0.159066
O O15 0.500000 0.951157 0.750000
O O16 0.455714 0.902739 0.609035
O O17 0.500000 0.000000 0.605009
O O18 0.597916 0.836026 0.000000
#
# Coordination Sequence:
#
# PCOD9498912 Si02
#       7
#    16  16  16  16  16  16  16
#     4  10  22  43  69  96 131 179 230 279 339 412
#     4  10  22  43  69  98 131 172 221 284 348 409
#     4  12  25  44  73 102 138 183 233 291 352 422
#     4  11  25  45  68  97 137 183 234 290 345 415
#     4  12  23  39  66  98 132 179 227 282 342 412
#     4  11  21  37  63  95 135 176 225 280 342 411
#     4  11  23  42  68  98 137 180 227 282 351 420
#
# _framework density 23.093616999999998
#
# number of rings (size 3 to 8) (size 9 to 14) (size 15 to 20)
#    0.000    1.000    4.286    3.000    0.000    3.429 
#    5.143    1.429    0.000    0.429    0.000    0.000 
#    0.000    0.000    0.000    0.000    0.000    0.000 
#
# Total GULP energy -312698.062964 kJ/mol
# GULP energy per Si atom -5583.893982 kJ/mol
# Density = 2.304106 g / cm^3
# Si number density = 23.093617 Si / 1000 Ang^3
#
#
#
# Elastic Constant Matrix: (Units=GPa)
#
#
# Indices 1 2 3 4 5 6 
#
# 1 79.4505 3.1415 0.4362 0.0000 0.0000 0.0000
# 2 3.1415 98.2951 12.2237 0.0000 0.0000 0.0000
# 3 0.4362 12.2237 105.0113 0.0000 0.0000 0.0000
# 4 0.0000 0.0000 0.0000 -1.3807 0.0000 0.0000
# 5 0.0000 0.0000 0.0000 0.0000 762.2753 0.0000
# 6 0.0000 0.0000 0.0000 0.0000 0.0000 -5.1216
#
#
#
# Elastic Compliance Matrix: (Units=1/GPa)
#
#
# Indices 1 2 3 4 5 6 
#
# 1 0.012602 -0.000402 -0.000006 0.000000 0.000000 0.000000
# 2 -0.000402 0.010336 -0.001201 0.000000 0.000000 0.000000
# 3 -0.000006 -0.001201 0.009663 0.000000 0.000000 0.000000
# 4 0.000000 0.000000 0.000000 -0.724274 0.000000 0.000000
# 5 0.000000 0.000000 0.000000 0.000000 0.001312 0.000000
# 6 0.000000 0.000000 0.000000 0.000000 0.000000 -0.195251
#
#
# Mechanical properties :
#
#
# Convention : Reuss Voigt Hill
#
# Bulk Modulus (GPa) = 34.03373 34.92885 34.48129
# Shear Modulus (GPa) = -5.73000 168.95164 81.61082
#
# Velocity S-wave (km/s) = -1.57689 8.56261 5.95112
# Velocity P-wave (km/s) = 3.38435 10.62617 7.88572
#
# Compressibility (1/GPa) = 0.02938261
#
# Stress axis : x y z
#
# Youngs Moduli (GPa) = 79.35007 96.75194 103.49115
#
# Poissons Ratio (x) = 0.03890 0.00057
# Poissons Ratio (y) = 0.03191 0.12434
# Poissons Ratio (z) = 0.00044 0.11624
#
# Static dielectric constant tensor:
#      x y z
#    x 1.856910 0.000000 0.000000 
#    y 0.000000 1.903110 0.000000 
#    z 0.000000 0.000000 1.900290 
# 
# From -- ./inp_files/26999.got.cif
#   From: 2010.05.17/outbox.cif.g08.bks.cpg/sg66_14_cif.got.tgz:26999.got - 2010.06.03 17:51:23.
