data_PCOD9498211
_publ_section_title
;
Structure prediction by ZEFSAII (Michael W. Deem and Ramdas Pophale) SiO2 
 PCOD9498211
Probable space group: C C C M
;
_chemical_formula_sum "Si O2"
_cell_formula_units_Z 96
_cell_length_a 26.670312
_cell_length_b 21.135994
_cell_length_c 8.722461
_cell_angle_alpha 90.000000
_cell_angle_beta 90.000000
_cell_angle_gamma 90.000000
_cell_volume 4916.882269
_symmetry_space_group_name_H-M "C C C M"
_symmetry_group_IT_number 66
_symmetry_cell_setting 'orthorhombic'
loop_
_space_group_symop_operation_xyz
x,y,z
-x,-y,z
x,-y,1/2-z
-x,y,1/2-z
-x,-y,-z
x,y,-z
-x,y,1/2+z
x,-y,1/2+z
1/2+x,1/2+y,z
1/2-x,1/2-y,z
1/2+x,1/2-y,1/2-z
1/2-x,1/2+y,1/2-z
1/2-x,1/2-y,-z
1/2+x,1/2+y,-z
1/2-x,1/2+y,1/2+z
1/2+x,1/2-y,1/2+z
loop_
_atom_site_type_symbol
_atom_site_label
_atom_site_fract_x
_atom_site_fract_y
_atom_site_fract_z
Si Si1 0.199801 0.211798 0.330807
Si Si2 0.723115 0.588363 0.822576
Si Si3 0.382888 0.201010 0.184088
Si Si4 0.118101 0.064952 0.319998
Si Si5 0.945512 0.819804 0.182670
Si Si6 0.660653 0.067209 0.315638
O O1 0.186835 0.183814 0.500000
O O2 0.250000 0.250000 0.350089
O O3 0.212069 0.162322 0.197953
O O4 0.158614 0.260317 0.275481
O O5 0.677380 0.563148 0.720676
O O6 0.780385 0.576519 0.769200
O O7 0.718263 0.568587 0.000000
O O8 0.430899 0.246057 0.214679
O O9 0.374107 0.127432 0.227850
O O10 0.374405 0.203794 0.000000
O O11 0.110148 0.064477 0.500000
O O12 0.093845 0.128988 0.250532
O O13 0.096101 0.000000 0.250000
O O14 0.000000 0.833375 0.250000
O O15 0.945157 0.827739 0.000000
O O16 0.661052 0.064207 0.500000
O O17 0.643576 0.000000 0.250000
#
# Coordination Sequence:
#
# PCOD9498211 Si02
#       6
#    16  16  16  16  16  16
#     4  11  21  31  51  85 118 153 198 244 287 340
#     4  11  21  35  56  83 120 165 205 240 285 341
#     4  10  21  39  61  83 114 156 197 240 299 361
#     4  12  25  41  61  88 123 161 204 246 292 348
#     4  11  24  43  67  91 116 148 193 249 307 363
#     4  10  22  37  56  85 120 161 201 241 288 350
#
# _framework density 19.524567000000001
#
# number of rings (size 3 to 8) (size 9 to 14) (size 15 to 20)
#    0.000    1.167    3.333    3.500    0.000    5.000 
#    0.000    1.667    0.000    0.500    0.000    3.500 
#    0.000    0.000    0.000    0.000    0.000    0.000 
#
# Total GULP energy -267584.674988 kJ/mol
# GULP energy per Si atom -5574.680729 kJ/mol
# Density = 1.948013 g / cm^3
# Si number density = 19.524567 Si / 1000 Ang^3
#
#
#
# Elastic Constant Matrix: (Units=GPa)
#
#
# Indices 1 2 3 4 5 6 
#
# 1 52.0297 32.7181 21.3532 0.0000 0.0000 0.0000
# 2 32.7181 149.3374 38.4853 0.0000 0.0000 0.0000
# 3 21.3532 38.4853 45.6074 0.0000 0.0000 0.0000
# 4 0.0000 0.0000 0.0000 31.0412 0.0000 0.0000
# 5 0.0000 0.0000 0.0000 0.0000 7.4090 0.0000
# 6 0.0000 0.0000 0.0000 0.0000 0.0000 8.0098
#
#
#
# Elastic Compliance Matrix: (Units=1/GPa)
#
#
# Indices 1 2 3 4 5 6 
#
# 1 0.024886 -0.003130 -0.009010 0.000000 0.000000 0.000000
# 2 -0.003130 0.008951 -0.006087 0.000000 0.000000 0.000000
# 3 -0.009010 -0.006087 0.031282 0.000000 0.000000 0.000000
# 4 0.000000 0.000000 0.000000 0.032215 0.000000 0.000000
# 5 0.000000 0.000000 0.000000 0.000000 0.134971 0.000000
# 6 0.000000 0.000000 0.000000 0.000000 0.000000 0.124847
#
#
# Mechanical properties :
#
#
# Convention : Reuss Voigt Hill
#
# Bulk Modulus (GPa) = 34.88847 48.00975 41.44911
# Shear Modulus (GPa) = 12.40197 19.58653 15.99425
#
# Velocity S-wave (km/s) = 2.52305 3.17073 2.86525
# Velocity P-wave (km/s) = 5.13765 6.16826 5.67640
#
# Compressibility (1/GPa) = 0.02866277
#
# Stress axis : x y z
#
# Youngs Moduli (GPa) = 40.18326 111.72137 31.96764
#
# Poissons Ratio (x) = 0.34972 0.28803
# Poissons Ratio (y) = 0.12578 0.19460
# Poissons Ratio (z) = 0.36205 0.68010
#
# Static dielectric constant tensor:
#      x y z
#    x 1.668250 0.000000 0.000000 
#    y 0.000000 1.748640 0.000000 
#    z 0.000000 0.000000 1.687060 
# 
# From -- ./inp_files/10267.got.cif
#   From: 2010.05.17/outbox.cif.g08.bks.cpg/sg66_6_cif.got.tgz:10267.got - 2010.06.03 17:51:23.
