data_PCOD9498785
_publ_section_title
;
Structure prediction by ZEFSAII (Michael W. Deem and Ramdas Pophale) SiO2 
 PCOD9498785
Probable space group: C C C M
;
_chemical_formula_sum "Si O2"
_cell_formula_units_Z 116
_cell_length_a 9.606162
_cell_length_b 22.166818
_cell_length_c 29.691694
_cell_angle_alpha 90.000000
_cell_angle_beta 90.000000
_cell_angle_gamma 90.000000
_cell_volume 6322.491265
_symmetry_space_group_name_H-M "C C C M"
_symmetry_group_IT_number 66
_symmetry_cell_setting 'orthorhombic'
loop_
_space_group_symop_operation_xyz
x,y,z
-x,-y,z
x,-y,1/2-z
-x,y,1/2-z
-x,-y,-z
x,y,-z
-x,y,1/2+z
x,-y,1/2+z
1/2+x,1/2+y,z
1/2-x,1/2-y,z
1/2+x,1/2-y,1/2-z
1/2-x,1/2+y,1/2-z
1/2-x,1/2-y,-z
1/2+x,1/2+y,-z
1/2-x,1/2+y,1/2+z
1/2+x,1/2-y,1/2+z
loop_
_atom_site_type_symbol
_atom_site_label
_atom_site_fract_x
_atom_site_fract_y
_atom_site_fract_z
Si Si1 0.761504 0.121452 0.698715
Si Si2 0.014450 0.786947 0.801081
Si Si3 0.500000 0.500000 0.000000
Si Si4 0.277728 0.867179 0.201999
Si Si5 0.664506 0.507592 0.668928
Si Si6 0.472934 0.171319 0.140626
Si Si7 0.768913 0.497207 0.067157
Si Si8 0.505150 0.897924 0.050856
O O1 0.686096 0.136984 0.745465
O O2 0.781921 0.050445 0.695644
O O3 0.672869 0.144366 0.656860
O O4 0.906406 0.157527 0.698624
O O5 0.167595 0.814016 0.807415
O O6 0.000000 0.760954 0.750000
O O7 0.980033 0.739362 0.840174
O O8 0.625901 0.498493 0.038937
O O9 0.407202 0.862033 0.169120
O O10 0.202100 0.930450 0.193277
O O11 0.500000 0.500000 0.664190
O O12 0.733398 0.506690 0.619769
O O13 0.493988 0.154069 0.088658
O O14 0.864278 0.556372 0.058056
O O15 0.867660 0.440037 0.055432
O O16 0.511484 0.874151 0.000000
#
# Coordination Sequence:
#
# PCOD9498785 Si02
#       8
#    16  16   4  16  16  16  16  16
#     4  11  23  38  60  89 124 166 207 251 302 362
#     4  10  22  41  62  86 121 173 220 249 289 354
#     4  12  20  34  68  88 114 158 200 256 288 372
#     4  11  23  38  60  89 124 166 207 251 302 362
#     4  12  22  36  59  92 128 160 196 249 317 369
#     4  12  23  38  62  90 121 160 209 259 299 352
#     4  11  21  37  59  91 123 156 197 246 308 367
#     4  11  22  40  61  89 122 155 195 252 317 370
#
# _framework density 18.347197999999999
#
# number of rings (size 3 to 8) (size 9 to 14) (size 15 to 20)
#    0.000    0.828    6.207    2.897    0.000    3.310 
#    0.000    1.379    0.000    3.310    3.586    0.000 
#    0.000    0.000    0.000    0.000    0.000    0.000 
#
# Total GULP energy -323455.591176 kJ/mol
# GULP energy per Si atom -5576.820538 kJ/mol
# Density = 1.830544 g / cm^3
# Si number density = 18.347198 Si / 1000 Ang^3
#
#
#
# Elastic Constant Matrix: (Units=GPa)
#
#
# Indices 1 2 3 4 5 6 
#
# 1 76.3306 6.1196 8.5760 0.0000 0.0000 0.0000
# 2 6.1196 91.4952 24.0425 0.0000 0.0000 0.0000
# 3 8.5760 24.0425 111.2531 0.0000 0.0000 0.0000
# 4 0.0000 0.0000 0.0000 18.3001 0.0000 0.0000
# 5 0.0000 0.0000 0.0000 0.0000 26.8866 0.0000
# 6 0.0000 0.0000 0.0000 0.0000 0.0000 24.5417
#
#
#
# Elastic Compliance Matrix: (Units=1/GPa)
#
#
# Indices 1 2 3 4 5 6 
#
# 1 0.013252 -0.000655 -0.000880 0.000000 0.000000 0.000000
# 2 -0.000655 0.011620 -0.002461 0.000000 0.000000 0.000000
# 3 -0.000880 -0.002461 0.009588 0.000000 0.000000 0.000000
# 4 0.000000 0.000000 0.000000 0.054644 0.000000 0.000000
# 5 0.000000 0.000000 0.000000 0.000000 0.037193 0.000000
# 6 0.000000 0.000000 0.000000 0.000000 0.000000 0.040747
#
#
# Mechanical properties :
#
#
# Convention : Reuss Voigt Hill
#
# Bulk Modulus (GPa) = 37.78028 39.61723 38.69876
# Shear Modulus (GPa) = 27.19468 29.96841 28.58155
#
# Velocity S-wave (km/s) = 3.85414 4.04593 3.95120
# Velocity P-wave (km/s) = 6.35944 6.59287 6.47721
#
# Compressibility (1/GPa) = 0.02646883
#
# Stress axis : x y z
#
# Youngs Moduli (GPa) = 75.45865 86.05899 104.29592
#
# Poissons Ratio (x) = 0.05638 0.09178
# Poissons Ratio (y) = 0.04944 0.25663
# Poissons Ratio (z) = 0.06640 0.21176
#
# Static dielectric constant tensor:
#      x y z
#    x 1.623490 0.000000 0.000000 
#    y 0.000000 1.634990 0.000000 
#    z 0.000000 0.000000 1.625110 
# 
# From -- ./inp_files/68343.got.cif
#   From: 2010.05.17/outbox.cif.g08.bks.cpg/sg66_35_cif.got.tgz:68343.got - 2010.06.03 17:51:23.
