data_PCOD9498567
_publ_section_title
;
Structure prediction by ZEFSAII (Michael W. Deem and Ramdas Pophale) SiO2 
 PCOD9498567
Probable space group: C C C M
;
_chemical_formula_sum "Si O2"
_cell_formula_units_Z 80
_cell_length_a 14.267542
_cell_length_b 11.303355
_cell_length_c 25.086556
_cell_angle_alpha 90.000000
_cell_angle_beta 90.000000
_cell_angle_gamma 90.000000
_cell_volume 4045.736286
_symmetry_space_group_name_H-M "C C C M"
_symmetry_group_IT_number 66
_symmetry_cell_setting 'orthorhombic'
loop_
_space_group_symop_operation_xyz
x,y,z
-x,-y,z
x,-y,1/2-z
-x,y,1/2-z
-x,-y,-z
x,y,-z
-x,y,1/2+z
x,-y,1/2+z
1/2+x,1/2+y,z
1/2-x,1/2-y,z
1/2+x,1/2-y,1/2-z
1/2-x,1/2+y,1/2-z
1/2-x,1/2-y,-z
1/2+x,1/2+y,-z
1/2-x,1/2+y,1/2+z
1/2+x,1/2-y,1/2+z
loop_
_atom_site_type_symbol
_atom_site_label
_atom_site_fract_x
_atom_site_fract_y
_atom_site_fract_z
Si Si1 0.898910 0.954964 0.116635
Si Si2 0.267609 0.388454 0.787763
Si Si3 0.239600 0.609695 0.062571
Si Si4 0.862634 0.265034 0.559188
Si Si5 0.896499 0.529327 0.861877
O O1 0.844119 0.889254 0.164622
O O2 0.909870 0.859933 0.069719
O O3 0.829440 0.052639 0.092062
O O4 0.000000 0.000000 0.133806
O O5 0.296495 0.500000 0.750000
O O6 0.250000 0.250000 0.769345
O O7 0.172058 0.436477 0.814091
O O8 0.250000 0.750000 0.062773
O O9 0.152645 0.567273 0.099271
O O10 0.232632 0.570761 0.000000
O O11 0.879355 0.308327 0.500000
O O12 0.750000 0.250000 0.566145
O O13 0.901018 0.356210 0.601049
O O14 0.000000 0.500000 0.843440
#
# Coordination Sequence:
#
# PCOD9498567 Si02
#       5
#    16  16  16  16  16
#     4  11  23  41  64  92 127 167 214 260 315 384
#     4  11  24  48  71  95 124 166 217 277 336 394
#     4  10  22  37  55  89 134 170 208 256 307 366
#     4  11  20  38  66  90 128 176 216 253 304 373
#     4  11  23  41  64  92 127 167 214 260 315 384
#
# _framework density 19.773903000000001
#
# number of rings (size 3 to 8) (size 9 to 14) (size 15 to 20)
#    0.000    1.200    6.000    1.200    2.800    7.200 
#    0.000    2.000    0.000    0.000    0.000    0.000 
#    0.000    0.000    0.000    0.000    0.000    0.000 
#
# Total GULP energy -223100.254832 kJ/mol
# GULP energy per Si atom -5577.506371 kJ/mol
# Density = 1.972890 g / cm^3
# Si number density = 19.773903 Si / 1000 Ang^3
#
#
#
# Elastic Constant Matrix: (Units=GPa)
#
#
# Indices 1 2 3 4 5 6 
#
# 1 81.4377 -3.5737 -1.9278 0.0000 0.0000 0.0000
# 2 -3.5737 96.1182 18.2040 0.0000 0.0000 0.0000
# 3 -1.9278 18.2040 45.6686 0.0000 0.0000 0.0000
# 4 0.0000 0.0000 0.0000 47.8335 0.0000 0.0000
# 5 0.0000 0.0000 0.0000 0.0000 -59.1012 0.0000
# 6 0.0000 0.0000 0.0000 0.0000 0.0000 10.1172
#
#
#
# Elastic Compliance Matrix: (Units=1/GPa)
#
#
# Indices 1 2 3 4 5 6 
#
# 1 0.012305 0.000388 0.000365 0.000000 0.000000 0.000000
# 2 0.000388 0.011266 -0.004474 0.000000 0.000000 0.000000
# 3 0.000365 -0.004474 0.023696 0.000000 0.000000 0.000000
# 4 0.000000 0.000000 0.000000 0.020906 0.000000 0.000000
# 5 0.000000 0.000000 0.000000 0.000000 -0.016920 0.000000
# 6 0.000000 0.000000 0.000000 0.000000 0.000000 0.098842
#
#
# Mechanical properties :
#
#
# Convention : Reuss Voigt Hill
#
# Bulk Modulus (GPa) = 25.11044 27.62550 26.36797
# Shear Modulus (GPa) = 29.27215 13.80471 21.53843
#
# Velocity S-wave (km/s) = 3.85170 2.64508 3.30394
# Velocity P-wave (km/s) = 5.70150 4.83007 5.28378
#
# Compressibility (1/GPa) = 0.03982407
#
# Stress axis : x y z
#
# Youngs Moduli (GPa) = 81.26780 88.76514 42.20160
#
# Poissons Ratio (x) = -0.03448 -0.01539
# Poissons Ratio (y) = -0.03157 0.18882
# Poissons Ratio (z) = -0.02963 0.39716
#
# Static dielectric constant tensor:
#      x y z
#    x 1.657760 0.000000 0.000000 
#    y 0.000000 1.730210 0.000000 
#    z 0.000000 0.000000 1.693330 
# 
# From -- ./inp_files/57892.got.cif
#   From: 2010.05.17/outbox.cif.g08.bks.cpg/sg66_29_cif.got.tgz:57892.got - 2010.06.03 17:51:23.
