data_PCOD9498502
_publ_section_title
;
Structure prediction by ZEFSAII (Michael W. Deem and Ramdas Pophale) SiO2 
 PCOD9498502
Probable space group: C C C M
;
_chemical_formula_sum "Si O2"
_cell_formula_units_Z 48
_cell_length_a 9.220259
_cell_length_b 11.165221
_cell_length_c 18.459458
_cell_angle_alpha 90.000000
_cell_angle_beta 90.000000
_cell_angle_gamma 90.000000
_cell_volume 1900.331598
_symmetry_space_group_name_H-M "C C C M"
_symmetry_group_IT_number 66
_symmetry_cell_setting 'orthorhombic'
loop_
_space_group_symop_operation_xyz
x,y,z
-x,-y,z
x,-y,1/2-z
-x,y,1/2-z
-x,-y,-z
x,y,-z
-x,y,1/2+z
x,-y,1/2+z
1/2+x,1/2+y,z
1/2-x,1/2-y,z
1/2+x,1/2-y,1/2-z
1/2-x,1/2+y,1/2-z
1/2-x,1/2-y,-z
1/2+x,1/2+y,-z
1/2-x,1/2+y,1/2+z
1/2+x,1/2-y,1/2+z
loop_
_atom_site_type_symbol
_atom_site_label
_atom_site_fract_x
_atom_site_fract_y
_atom_site_fract_z
Si Si1 0.673390 0.007064 0.079706
Si Si2 0.886807 0.693140 0.693865
Si Si3 0.938326 0.862989 0.916808
O O1 0.695519 0.100111 0.142867
O O2 0.500000 0.000000 0.077800
O O3 0.765741 0.887523 0.092723
O O4 0.719995 0.050958 0.000000
O O5 0.750000 0.750000 0.735018
O O6 0.000000 0.639780 0.750000
O O7 0.980929 0.780510 0.641484
O O8 0.961312 0.819416 0.000000
O O9 0.000000 0.000000 0.911560
#
# Coordination Sequence:
#
# PCOD9498502 Si02
#       3
#    16  16  16
#     4  10  23  44  71 101 132 175 229 287 345 406
#     4  12  27  44  64  99 141 183 227 281 352 421
#     4  10  21  42  73 101 126 170 232 287 339 404
#
# _framework density 25.258752000000001
#
# number of rings (size 3 to 8) (size 9 to 14) (size 15 to 20)
#    0.000    1.333    3.333    1.000    4.667    2.667 
#    0.000    5.000    0.000    0.000    0.000    0.000 
#    0.000    0.000    0.000    0.000    0.000    0.000 
#
# Total GULP energy -134201.101434 kJ/mol
# GULP energy per Si atom -5591.712560 kJ/mol
# Density = 2.520126 g / cm^3
# Si number density = 25.258752 Si / 1000 Ang^3
#
#
#
# Elastic Constant Matrix: (Units=GPa)
#
#
# Indices 1 2 3 4 5 6 
#
# 1 173.5425 30.5892 41.8787 0.0000 0.0000 0.0000
# 2 30.5892 76.4839 50.3286 0.0000 0.0000 0.0000
# 3 41.8787 50.3286 111.3715 0.0000 0.0000 0.0000
# 4 0.0000 0.0000 0.0000 39.3346 0.0000 0.0000
# 5 0.0000 0.0000 0.0000 0.0000 -0.7502 0.0000
# 6 0.0000 0.0000 0.0000 0.0000 0.0000 32.7688
#
#
#
# Elastic Compliance Matrix: (Units=1/GPa)
#
#
# Indices 1 2 3 4 5 6 
#
# 1 0.006441 -0.001398 -0.001790 0.000000 0.000000 0.000000
# 2 -0.001398 0.018911 -0.008020 0.000000 0.000000 0.000000
# 3 -0.001790 -0.008020 0.013276 0.000000 0.000000 0.000000
# 4 0.000000 0.000000 0.000000 0.025423 0.000000 0.000000
# 5 0.000000 0.000000 0.000000 0.000000 -1.333017 0.000000
# 6 0.000000 0.000000 0.000000 0.000000 0.000000 0.030517
#
#
# Mechanical properties :
#
#
# Convention : Reuss Voigt Hill
#
# Bulk Modulus (GPa) = 61.68399 67.44343 64.56371
# Shear Modulus (GPa) = -4.13009 30.17741 13.02366
#
# Velocity S-wave (km/s) = -1.28010 3.46024 2.27317
# Velocity P-wave (km/s) = 4.72112 6.53631 5.70142
#
# Compressibility (1/GPa) = 0.01621166
#
# Stress axis : x y z
#
# Youngs Moduli (GPa) = 155.26324 52.87822 75.32113
#
# Poissons Ratio (x) = 0.07392 0.13484
# Poissons Ratio (y) = 0.21705 0.60410
# Poissons Ratio (z) = 0.27794 0.42410
#
# Static dielectric constant tensor:
#      x y z
#    x 2.206170 0.000000 0.000000 
#    y 0.000000 2.070970 0.000000 
#    z 0.000000 0.000000 1.963820 
# 
# From -- ./inp_files/35617.got.cif
#   From: 2010.05.17/outbox.cif.g08.bks.cpg/sg66_18_cif.got.tgz:35617.got - 2010.06.03 17:51:23.
