data_PCOD9498521
_publ_section_title
;
Structure prediction by ZEFSAII (Michael W. Deem and Ramdas Pophale) SiO2 
 PCOD9498521
Probable space group: C C C M
;
_chemical_formula_sum "Si O2"
_cell_formula_units_Z 60
_cell_length_a 10.619752
_cell_length_b 11.582701
_cell_length_c 19.541249
_cell_angle_alpha 90.000000
_cell_angle_beta 90.000000
_cell_angle_gamma 90.000000
_cell_volume 2403.679386
_symmetry_space_group_name_H-M "C C C M"
_symmetry_group_IT_number 66
_symmetry_cell_setting 'orthorhombic'
loop_
_space_group_symop_operation_xyz
x,y,z
-x,-y,z
x,-y,1/2-z
-x,y,1/2-z
-x,-y,-z
x,y,-z
-x,y,1/2+z
x,-y,1/2+z
1/2+x,1/2+y,z
1/2-x,1/2-y,z
1/2+x,1/2-y,1/2-z
1/2-x,1/2+y,1/2-z
1/2-x,1/2-y,-z
1/2+x,1/2+y,-z
1/2-x,1/2+y,1/2+z
1/2+x,1/2-y,1/2+z
loop_
_atom_site_type_symbol
_atom_site_label
_atom_site_fract_x
_atom_site_fract_y
_atom_site_fract_z
Si Si1 0.570032 0.347101 0.354421
Si Si2 0.880963 0.821814 0.000000
Si Si3 0.632305 0.836506 0.500000
Si Si4 0.250000 0.250000 0.249963
Si Si5 0.500000 0.500000 0.250000
Si Si6 0.429692 0.114045 0.352856
O O1 0.606723 0.391542 0.428975
O O2 0.683972 0.342163 0.301297
O O3 0.460062 0.409366 0.310657
O O4 0.532988 0.214289 0.362433
O O5 0.750000 0.750000 0.000000
O O6 0.004425 0.739619 0.000000
O O7 0.750000 0.750000 0.500000
O O8 0.631558 0.904668 0.428195
O O9 0.337164 0.171413 0.298250
O O10 0.500000 0.000000 0.330254
#
# Coordination Sequence:
#
# PCOD9498521 Si02
#       6
#    16   8   8   8   4  16
#     4  11  25  44  70 105 146 198 255 324 402 487
#     4  10  22  46  73 102 148 200 264 323 398 495
#     4  10  21  43  75 111 160 209 268 335 414 500
#     4  12  22  44  72 106 146 200 260 324 406 484
#     4  12  24  46  66 100 150 190 256 330 384 476
#     4  11  24  45  73 113 157 205 269 336 412 495
#
# _framework density 24.961732000000001
#
# number of rings (size 3 to 8) (size 9 to 14) (size 15 to 20)
#    0.000    1.067    5.333    0.400    0.000    4.800 
#    0.000    0.000   17.600    0.000    0.000    0.933 
#    0.000    0.000    0.000    0.000    0.000    0.000 
#
# Total GULP energy -167244.276606 kJ/mol
# GULP energy per Si atom -5574.809220 kJ/mol
# Density = 2.490492 g / cm^3
# Si number density = 24.961732 Si / 1000 Ang^3
#
#
#
# Elastic Constant Matrix: (Units=GPa)
#
#
# Indices 1 2 3 4 5 6 
#
# 1 111.9222 17.7777 58.1801 0.0000 0.0000 0.0000
# 2 17.7777 105.8299 44.7759 0.0000 0.0000 0.0000
# 3 58.1801 44.7759 289.9462 0.0000 0.0000 0.0000
# 4 0.0000 0.0000 0.0000 10.3800 0.0000 0.0000
# 5 0.0000 0.0000 0.0000 0.0000 26.8106 0.0000
# 6 0.0000 0.0000 0.0000 0.0000 0.0000 27.5204
#
#
#
# Elastic Compliance Matrix: (Units=1/GPa)
#
#
# Indices 1 2 3 4 5 6 
#
# 1 0.010054 -0.000894 -0.001879 0.000000 0.000000 0.000000
# 2 -0.000894 0.010189 -0.001394 0.000000 0.000000 0.000000
# 3 -0.001879 -0.001394 0.004041 0.000000 0.000000 0.000000
# 4 0.000000 0.000000 0.000000 0.096339 0.000000 0.000000
# 5 0.000000 0.000000 0.000000 0.000000 0.037299 0.000000
# 6 0.000000 0.000000 0.000000 0.000000 0.000000 0.036337
#
#
# Mechanical properties :
#
#
# Convention : Reuss Voigt Hill
#
# Bulk Modulus (GPa) = 62.69721 83.24064 72.96892
# Shear Modulus (GPa) = 24.04891 38.73986 31.39439
#
# Velocity S-wave (km/s) = 3.10729 3.94378 3.55025
# Velocity P-wave (km/s) = 6.16810 7.35918 6.78981
#
# Compressibility (1/GPa) = 0.01594967
#
# Stress axis : x y z
#
# Youngs Moduli (GPa) = 99.46627 98.14399 247.44414
#
# Poissons Ratio (x) = 0.08771 0.46503
# Poissons Ratio (y) = 0.08889 0.34498
# Poissons Ratio (z) = 0.18693 0.13683
#
# Static dielectric constant tensor:
#      x y z
#    x 1.535040 0.000000 0.000000 
#    y 0.000000 2.011480 0.000000 
#    z 0.000000 0.000000 2.071880 
# 
# From -- ./inp_files/48052.got.cif
#   From: 2010.05.17/outbox.cif.g08.bks.cpg/sg66_25_cif.got.tgz:48052.got - 2010.06.03 17:51:23.
