data_PCOD9498144
_publ_section_title
;
Structure prediction by ZEFSAII (Michael W. Deem and Ramdas Pophale) SiO2 
 PCOD9498144
Probable space group: C C C M
;
_chemical_formula_sum "Si O2"
_cell_formula_units_Z 64
_cell_length_a 5.288192
_cell_length_b 23.795254
_cell_length_c 25.367724
_cell_angle_alpha 90.000000
_cell_angle_beta 90.000000
_cell_angle_gamma 90.000000
_cell_volume 3192.118931
_symmetry_space_group_name_H-M "C C C M"
_symmetry_group_IT_number 66
_symmetry_cell_setting 'orthorhombic'
loop_
_space_group_symop_operation_xyz
x,y,z
-x,-y,z
x,-y,1/2-z
-x,y,1/2-z
-x,-y,-z
x,y,-z
-x,y,1/2+z
x,-y,1/2+z
1/2+x,1/2+y,z
1/2-x,1/2-y,z
1/2+x,1/2-y,1/2-z
1/2-x,1/2+y,1/2-z
1/2-x,1/2-y,-z
1/2+x,1/2+y,-z
1/2-x,1/2+y,1/2+z
1/2+x,1/2-y,1/2+z
loop_
_atom_site_type_symbol
_atom_site_label
_atom_site_fract_x
_atom_site_fract_y
_atom_site_fract_z
Si Si1 0.498674 0.712474 0.560281
Si Si2 0.649233 0.600807 0.609006
Si Si3 0.251782 0.435492 0.726741
Si Si4 0.865290 0.442286 0.437815
O O1 0.472487 0.688266 0.500000
O O2 0.250000 0.750000 0.569564
O O3 0.538656 0.663569 0.602995
O O4 0.750000 0.750000 0.560499
O O5 0.728143 0.573762 0.664723
O O6 0.407456 0.565819 0.588089
O O7 0.910923 0.601388 0.575752
O O8 0.251607 0.500000 0.750000
O O9 0.500000 0.407792 0.750000
O O10 0.000000 0.409377 0.750000
O O11 0.824244 0.443814 0.500000
O O12 0.000000 0.500000 0.421008
#
# Coordination Sequence:
#
# PCOD9498144 Si02
#       4
#    16  16  16  16
#     4  10  21  38  62  93 127 164 213 262 309 380
#     4  12  23  39  66  88 128 176 209 265 330 378
#     4  10  23  39  60  89 120 159 215 267 311 377
#     4  11  24  37  56  92 133 170 208 248 313 408
#
# _framework density 20.049379999999999
#
# number of rings (size 3 to 8) (size 9 to 14) (size 15 to 20)
#    0.000    1.250    0.000    6.000   10.500    4.000 
#    0.000    0.000    0.000    3.000    0.000    0.000 
#    0.000    0.000    0.000    0.000    0.000    0.000 
#
# Total GULP energy -178449.003081 kJ/mol
# GULP energy per Si atom -5576.531346 kJ/mol
# Density = 2.000375 g / cm^3
# Si number density = 20.049380 Si / 1000 Ang^3
#
#
#
# Elastic Constant Matrix: (Units=GPa)
#
#
# Indices 1 2 3 4 5 6 
#
# 1 186.7812 17.4436 58.7716 0.0000 0.0000 0.0000
# 2 17.4436 69.5774 39.1571 0.0000 0.0000 0.0000
# 3 58.7716 39.1571 122.2538 0.0000 0.0000 0.0000
# 4 0.0000 0.0000 0.0000 30.6811 0.0000 0.0000
# 5 0.0000 0.0000 0.0000 0.0000 32.8477 0.0000
# 6 0.0000 0.0000 0.0000 0.0000 0.0000 17.5653
#
#
#
# Elastic Compliance Matrix: (Units=1/GPa)
#
#
# Indices 1 2 3 4 5 6 
#
# 1 0.006309 0.000153 -0.003082 0.000000 0.000000 0.000000
# 2 0.000153 0.017537 -0.005690 0.000000 0.000000 0.000000
# 3 -0.003082 -0.005690 0.011484 0.000000 0.000000 0.000000
# 4 0.000000 0.000000 0.000000 0.032593 0.000000 0.000000
# 5 0.000000 0.000000 0.000000 0.000000 0.030444 0.000000
# 6 0.000000 0.000000 0.000000 0.000000 0.000000 0.056930
#
#
# Mechanical properties :
#
#
# Convention : Reuss Voigt Hill
#
# Bulk Modulus (GPa) = 55.27710 67.70633 61.49171
# Shear Modulus (GPa) = 28.00078 33.76818 30.88448
#
# Velocity S-wave (km/s) = 3.74115 4.10841 3.92908
# Velocity P-wave (km/s) = 6.80382 7.50657 7.16382
#
# Compressibility (1/GPa) = 0.01809067
#
# Stress axis : x y z
#
# Youngs Moduli (GPa) = 158.49429 57.02361 87.07839
#
# Poissons Ratio (x) = -0.00871 0.26838
# Poissons Ratio (y) = -0.02421 0.49550
# Poissons Ratio (z) = 0.48849 0.32448
#
# Static dielectric constant tensor:
#      x y z
#    x 1.763520 0.000000 0.000000 
#    y 0.000000 1.764690 0.000000 
#    z 0.000000 0.000000 1.746610 
# 
# From -- ./inp_files/45525.got.cif
#   From: 2010.05.17/outbox.cif.g08.bks.cpg/sg66_23_cif.got.tgz:45525.got - 2010.06.03 17:51:23.
