data_PCOD9498756
_publ_section_title
;
Structure prediction by ZEFSAII (Michael W. Deem and Ramdas Pophale) SiO2 
 PCOD9498756
Probable space group: C C C M
;
_chemical_formula_sum "Si O2"
_cell_formula_units_Z 56
_cell_length_a 5.269768
_cell_length_b 18.552820
_cell_length_c 25.183590
_cell_angle_alpha 90.000000
_cell_angle_beta 90.000000
_cell_angle_gamma 90.000000
_cell_volume 2462.175850
_symmetry_space_group_name_H-M "C C C M"
_symmetry_group_IT_number 66
_symmetry_cell_setting 'orthorhombic'
loop_
_space_group_symop_operation_xyz
x,y,z
-x,-y,z
x,-y,1/2-z
-x,y,1/2-z
-x,-y,-z
x,y,-z
-x,y,1/2+z
x,-y,1/2+z
1/2+x,1/2+y,z
1/2-x,1/2-y,z
1/2+x,1/2-y,1/2-z
1/2-x,1/2+y,1/2-z
1/2-x,1/2-y,-z
1/2+x,1/2+y,-z
1/2-x,1/2+y,1/2+z
1/2+x,1/2-y,1/2+z
loop_
_atom_site_type_symbol
_atom_site_label
_atom_site_fract_x
_atom_site_fract_y
_atom_site_fract_z
Si Si1 0.247238 0.832872 0.285879
Si Si2 0.996352 0.298249 0.940320
Si Si3 0.744095 0.450740 0.500000
Si Si4 0.129512 0.422852 0.117174
O O1 0.500000 0.842831 0.250000
O O2 0.250000 0.750000 0.307156
O O3 0.230687 0.893272 0.331417
O O4 0.000000 0.838382 0.250000
O O5 0.250000 0.250000 0.932264
O O6 0.938174 0.357589 0.895879
O O7 0.750000 0.250000 0.941970
O O8 0.018329 0.331644 0.000000
O O9 0.500000 0.500000 0.500000
O O10 0.723776 0.419580 0.439302
O O11 0.000000 0.500000 0.500000
O O12 0.000000 0.500000 0.124243
#
# Coordination Sequence:
#
# PCOD9498756 Si02
#       4
#    16  16   8  16
#     4  10  24  47  74 101 135 180 236 297 353 410
#     4  10  22  40  64  98 139 185 232 277 332 408
#     4  10  24  42  62  98 144 182 213 268 347 410
#     4  11  24  45  72 105 142 186 230 289 348 424
#
# _framework density 22.744109999999999
#
# number of rings (size 3 to 8) (size 9 to 14) (size 15 to 20)
#    0.000    1.714    1.429    0.857    0.000   15.429 
#    0.000    1.429    0.000    0.000    0.000    0.000 
#    0.000    0.000    0.000    0.000    0.000    0.000 
#
# Total GULP energy -156158.547428 kJ/mol
# GULP energy per Si atom -5577.090980 kJ/mol
# Density = 2.269234 g / cm^3
# Si number density = 22.744110 Si / 1000 Ang^3
#
#
#
# Elastic Constant Matrix: (Units=GPa)
#
#
# Indices 1 2 3 4 5 6 
#
# 1 109.6731 18.3894 41.6478 0.0000 0.0000 0.0000
# 2 18.3894 120.6758 71.8230 0.0000 0.0000 0.0000
# 3 41.6478 71.8230 141.2445 0.0000 0.0000 0.0000
# 4 0.0000 0.0000 0.0000 40.4434 0.0000 0.0000
# 5 0.0000 0.0000 0.0000 0.0000 11.7991 0.0000
# 6 0.0000 0.0000 0.0000 0.0000 0.0000 -208.5181
#
#
#
# Elastic Compliance Matrix: (Units=1/GPa)
#
#
# Indices 1 2 3 4 5 6 
#
# 1 0.010277 0.000341 -0.003204 0.000000 0.000000 0.000000
# 2 0.000341 0.011894 -0.006149 0.000000 0.000000 0.000000
# 3 -0.003204 -0.006149 0.011151 0.000000 0.000000 0.000000
# 4 0.000000 0.000000 0.000000 0.024726 0.000000 0.000000
# 5 0.000000 0.000000 0.000000 0.000000 0.084752 0.000000
# 6 0.000000 0.000000 0.000000 0.000000 0.000000 -0.004796
#
#
# Mechanical properties :
#
#
# Convention : Reuss Voigt Hill
#
# Bulk Modulus (GPa) = 65.36190 70.59043 67.97616
# Shear Modulus (GPa) = 31.03109 -15.27290 7.87909
#
# Velocity S-wave (km/s) = 3.69773 -2.59416 1.86326
# Velocity P-wave (km/s) = 6.85793 4.70439 5.88058
#
# Compressibility (1/GPa) = 0.01529943
#
# Stress axis : x y z
#
# Youngs Moduli (GPa) = 97.30033 84.07385 89.67672
#
# Poissons Ratio (x) = -0.02863 0.28729
# Poissons Ratio (y) = -0.03314 0.55139
# Poissons Ratio (z) = 0.31171 0.51694
#
# Static dielectric constant tensor:
#      x y z
#    x 1.776110 0.000000 0.000000 
#    y 0.000000 1.615940 0.000000 
#    z 0.000000 0.000000 0.828210 
# 
# From -- ./inp_files/61083.got.cif
#   From: 2010.05.17/outbox.cif.g08.bks.cpg/sg66_31_cif.got.tgz:61083.got - 2010.06.03 17:51:23.
