data_PCOD9498863
_publ_section_title
;
Structure prediction by ZEFSAII (Michael W. Deem and Ramdas Pophale) SiO2 
 PCOD9498863
Probable space group: C C C M
;
_chemical_formula_sum "Si O2"
_cell_formula_units_Z 96
_cell_length_a 23.737097
_cell_length_b 10.785310
_cell_length_c 15.979374
_cell_angle_alpha 90.000000
_cell_angle_beta 90.000000
_cell_angle_gamma 90.000000
_cell_volume 4090.910692
_symmetry_space_group_name_H-M "C C C M"
_symmetry_group_IT_number 66
_symmetry_cell_setting 'orthorhombic'
loop_
_space_group_symop_operation_xyz
x,y,z
-x,-y,z
x,-y,1/2-z
-x,y,1/2-z
-x,-y,-z
x,y,-z
-x,y,1/2+z
x,-y,1/2+z
1/2+x,1/2+y,z
1/2-x,1/2-y,z
1/2+x,1/2-y,1/2-z
1/2-x,1/2+y,1/2-z
1/2-x,1/2-y,-z
1/2+x,1/2+y,-z
1/2-x,1/2+y,1/2+z
1/2+x,1/2-y,1/2+z
loop_
_atom_site_type_symbol
_atom_site_label
_atom_site_fract_x
_atom_site_fract_y
_atom_site_fract_z
Si Si1 0.936371 0.466904 0.652036
Si Si2 0.277672 0.555731 0.659711
Si Si3 0.940205 0.030120 0.097847
Si Si4 0.660682 0.323130 0.902021
Si Si5 0.822834 0.438163 0.903354
Si Si6 0.870541 0.774916 0.902858
O O1 0.933513 0.500000 0.750000
O O2 0.889608 0.547557 0.604964
O O3 0.911562 0.328754 0.636513
O O4 0.000000 0.500000 0.624158
O O5 0.291141 0.500000 0.750000
O O6 0.300933 0.444537 0.601219
O O7 0.210838 0.545340 0.645045
O O8 0.312176 0.679690 0.640281
O O9 0.899338 0.134657 0.135840
O O10 0.905754 0.902743 0.097157
O O11 0.949949 0.066192 0.000000
O O12 0.000000 0.000000 0.137696
O O13 0.688014 0.198910 0.866216
O O14 0.652095 0.294356 0.000000
O O15 0.806699 0.447908 0.000000
O O16 0.859009 0.739534 0.000000
#
# Coordination Sequence:
#
# PCOD9498863 Si02
#       6
#    16  16  16  16  16  16
#     4  11  27  47  65  93 135 179 229 285 353 423
#     4  11  23  40  65 101 137 177 218 278 348 414
#     4   8  15  30  57  94 126 160 208 267 327 384
#     4   9  19  36  61  94 131 167 215 273 330 402
#     4  11  23  41  69  98 131 176 226 276 332 410
#     4  10  22  42  67  94 133 176 226 285 336 406
#
# _framework density 23.466659
#
# number of rings (size 3 to 8) (size 9 to 14) (size 15 to 20)
#    0.000    2.000    0.000    4.000    4.667    3.333 
#    3.000    1.667    0.000    4.500    0.000    0.000 
#    0.000    0.000    0.000    0.000    0.000    0.000 
#
# Total GULP energy -267847.746078 kJ/mol
# GULP energy per Si atom -5580.161377 kJ/mol
# Density = 2.341325 g / cm^3
# Si number density = 23.466659 Si / 1000 Ang^3
#
#
#
# Elastic Constant Matrix: (Units=GPa)
#
#
# Indices 1 2 3 4 5 6 
#
# 1 174.3492 52.0688 31.9241 0.0000 0.0000 0.0000
# 2 52.0688 141.7461 26.1893 0.0000 0.0000 0.0000
# 3 31.9241 26.1893 75.9838 0.0000 0.0000 0.0000
# 4 0.0000 0.0000 0.0000 21.6612 0.0000 0.0000
# 5 0.0000 0.0000 0.0000 0.0000 22.4335 0.0000
# 6 0.0000 0.0000 0.0000 0.0000 0.0000 33.0341
#
#
#
# Elastic Compliance Matrix: (Units=1/GPa)
#
#
# Indices 1 2 3 4 5 6 
#
# 1 0.006746 -0.002087 -0.002115 0.000000 0.000000 0.000000
# 2 -0.002087 0.008181 -0.001943 0.000000 0.000000 0.000000
# 3 -0.002115 -0.001943 0.014719 0.000000 0.000000 0.000000
# 4 0.000000 0.000000 0.000000 0.046166 0.000000 0.000000
# 5 0.000000 0.000000 0.000000 0.000000 0.044576 0.000000
# 6 0.000000 0.000000 0.000000 0.000000 0.000000 0.030272
#
#
# Mechanical properties :
#
#
# Convention : Reuss Voigt Hill
#
# Bulk Modulus (GPa) = 57.61757 68.04927 62.83342
# Shear Modulus (GPa) = 29.63241 34.21888 31.92565
#
# Velocity S-wave (km/s) = 3.55737 3.82277 3.69245
# Velocity P-wave (km/s) = 6.44045 6.96750 6.70915
#
# Compressibility (1/GPa) = 0.01735582
#
# Stress axis : x y z
#
# Youngs Moduli (GPa) = 148.23012 122.24087 67.94020
#
# Poissons Ratio (x) = 0.25517 0.14369
# Poissons Ratio (y) = 0.30942 0.13198
# Poissons Ratio (z) = 0.31350 0.23746
#
# Static dielectric constant tensor:
#      x y z
#    x 1.964350 0.000000 0.000000 
#    y 0.000000 1.957090 0.000000 
#    z 0.000000 0.000000 1.953730 
# 
# From -- ./inp_files/43579.got.cif
#   From: 2010.05.17/outbox.cif.g08.bks.cpg/sg66_22_cif.got.tgz:43579.got - 2010.06.03 17:51:23.
