data_PCOD9498066
_publ_section_title
;
Structure prediction by ZEFSAII (Michael W. Deem and Ramdas Pophale) SiO2 
 PCOD9498066
Probable space group: C C C M
;
_chemical_formula_sum "Si O2"
_cell_formula_units_Z 96
_cell_length_a 11.247066
_cell_length_b 16.244513
_cell_length_c 21.832154
_cell_angle_alpha 90.000000
_cell_angle_beta 90.000000
_cell_angle_gamma 90.000000
_cell_volume 3988.802430
_symmetry_space_group_name_H-M "C C C M"
_symmetry_group_IT_number 66
_symmetry_cell_setting 'orthorhombic'
loop_
_space_group_symop_operation_xyz
x,y,z
-x,-y,z
x,-y,1/2-z
-x,y,1/2-z
-x,-y,-z
x,y,-z
-x,y,1/2+z
x,-y,1/2+z
1/2+x,1/2+y,z
1/2-x,1/2-y,z
1/2+x,1/2-y,1/2-z
1/2-x,1/2+y,1/2-z
1/2-x,1/2-y,-z
1/2+x,1/2+y,-z
1/2-x,1/2+y,1/2+z
1/2+x,1/2-y,1/2+z
loop_
_atom_site_type_symbol
_atom_site_label
_atom_site_fract_x
_atom_site_fract_y
_atom_site_fract_z
Si Si1 0.728737 0.658773 0.866843
Si Si2 0.530011 0.616543 0.681337
Si Si3 0.144857 0.415608 0.248530
Si Si4 0.250138 0.983967 0.868750
Si Si5 0.133241 0.715257 0.146543
Si Si6 0.046017 0.587942 0.070254
O O1 0.750000 0.750000 0.891608
O O2 0.592132 0.635947 0.853013
O O3 0.801110 0.647579 0.803504
O O4 0.763001 0.573783 0.900911
O O5 0.500000 0.589152 0.750000
O O6 0.620933 0.551365 0.650090
O O7 0.587587 0.706584 0.683398
O O8 0.183417 0.499860 0.300576
O O9 0.173099 0.355526 0.307210
O O10 0.000000 0.415706 0.250000
O O11 0.313500 0.924527 0.916906
O O12 0.250000 0.750000 0.111907
O O13 0.028937 0.672761 0.106341
O O14 0.000000 0.500000 0.096037
O O15 0.013632 0.593894 0.000000
#
# Coordination Sequence:
#
# PCOD9498066 Si02
#       6
#    16  16  16  16  16  16
#     4  11  22  33  55  84 123 168 212 250 310 383
#     4  12  21  35  59  89 131 178 210 253 318 389
#     4   9  17  33  53  76 122 163 201 249 301 376
#     4  10  21  38  58  88 121 160 218 261 313 395
#     4  11  20  38  60  94 128 157 216 274 320 392
#     4  10  23  44  69  91 122 165 213 279 346 387
#
# _framework density 24.067373
#
# number of rings (size 3 to 8) (size 9 to 14) (size 15 to 20)
#    0.000    1.500    5.000    2.000    2.333    1.000 
#    3.000    0.000    0.000    3.500    0.000    0.000 
#    0.000    0.000    0.000    0.000    0.000    0.000 
#
# Total GULP energy -267315.109910 kJ/mol
# GULP energy per Si atom -5569.064790 kJ/mol
# Density = 2.401260 g / cm^3
# Si number density = 24.067373 Si / 1000 Ang^3
#
#
#
# Elastic Constant Matrix: (Units=GPa)
#
#
# Indices 1 2 3 4 5 6 
#
# 1 120.0198 26.9081 -1.3100 0.0000 0.0000 0.0000
# 2 26.9081 194.0412 17.8342 0.0000 0.0000 0.0000
# 3 -1.3100 17.8342 36.0812 0.0000 0.0000 0.0000
# 4 0.0000 0.0000 0.0000 78.6018 0.0000 0.0000
# 5 0.0000 0.0000 0.0000 0.0000 16.1884 0.0000
# 6 0.0000 0.0000 0.0000 0.0000 0.0000 8.1204
#
#
#
# Elastic Compliance Matrix: (Units=1/GPa)
#
#
# Indices 1 2 3 4 5 6 
#
# 1 0.008630 -0.001284 0.000948 0.000000 0.000000 0.000000
# 2 -0.001284 0.005590 -0.002810 0.000000 0.000000 0.000000
# 3 0.000948 -0.002810 0.029138 0.000000 0.000000 0.000000
# 4 0.000000 0.000000 0.000000 0.012722 0.000000 0.000000
# 5 0.000000 0.000000 0.000000 0.000000 0.061773 0.000000
# 6 0.000000 0.000000 0.000000 0.000000 0.000000 0.123147
#
#
# Mechanical properties :
#
#
# Convention : Reuss Voigt Hill
#
# Bulk Modulus (GPa) = 26.97790 48.55631 37.76711
# Shear Modulus (GPa) = 19.25689 41.02943 30.14316
#
# Velocity S-wave (km/s) = 2.83172 4.13337 3.54283
# Velocity P-wave (km/s) = 4.68243 6.55733 5.69753
#
# Compressibility (1/GPa) = 0.03706738
#
# Stress axis : x y z
#
# Youngs Moduli (GPa) = 115.87286 178.89696 34.31896
#
# Poissons Ratio (x) = 0.22968 -0.03253
# Poissons Ratio (y) = 0.14877 0.09642
# Poissons Ratio (z) = -0.10984 0.50262
#
# Static dielectric constant tensor:
#      x y z
#    x 2.144670 0.000000 0.000000 
#    y 0.000000 2.103580 0.000000 
#    z 0.000000 0.000000 1.908410 
# 
# From -- ./inp_files/63710.got.cif
#   From: 2010.05.17/outbox.cif.g08.bks.cpg/sg66_32_cif.got.tgz:63710.got - 2010.06.03 17:51:23.
