data_PCOD9498858
_publ_section_title
;
Structure prediction by ZEFSAII (Michael W. Deem and Ramdas Pophale) SiO2 
 PCOD9498858
Probable space group: C C C M
;
_chemical_formula_sum "Si O2"
_cell_formula_units_Z 64
_cell_length_a 21.895180
_cell_length_b 8.661061
_cell_length_c 15.959500
_cell_angle_alpha 90.000000
_cell_angle_beta 90.000000
_cell_angle_gamma 90.000000
_cell_volume 3026.487596
_symmetry_space_group_name_H-M "C C C M"
_symmetry_group_IT_number 66
_symmetry_cell_setting 'orthorhombic'
loop_
_space_group_symop_operation_xyz
x,y,z
-x,-y,z
x,-y,1/2-z
-x,y,1/2-z
-x,-y,-z
x,y,-z
-x,y,1/2+z
x,-y,1/2+z
1/2+x,1/2+y,z
1/2-x,1/2-y,z
1/2+x,1/2-y,1/2-z
1/2-x,1/2+y,1/2-z
1/2-x,1/2-y,-z
1/2+x,1/2+y,-z
1/2-x,1/2+y,1/2+z
1/2+x,1/2-y,1/2+z
loop_
_atom_site_type_symbol
_atom_site_label
_atom_site_fract_x
_atom_site_fract_y
_atom_site_fract_z
Si Si1 0.861495 0.791960 0.000000
Si Si2 0.430311 0.836736 0.801011
Si Si3 0.295286 0.877544 0.175437
Si Si4 0.536075 0.662552 0.140215
Si Si5 0.264423 0.979704 0.500000
O O1 0.907329 0.817300 0.922234
O O2 0.802376 0.901821 0.000000
O O3 0.825130 0.629572 0.000000
O O4 0.364355 0.825897 0.841124
O O5 0.484467 0.797799 0.865659
O O6 0.436713 0.700192 0.732101
O O7 0.435218 0.000000 0.750000
O O8 0.250000 0.750000 0.209791
O O9 0.299566 0.000000 0.250000
O O10 0.268500 0.932688 0.087609
O O11 0.500000 0.500000 0.130764
#
# Coordination Sequence:
#
# PCOD9498858 Si02
#       5
#     8  16  16  16   8
#     4  11  25  43  69  97 143 178 236 282 370 405
#     4  10  22  42  66  98 134 171 233 282 352 418
#     4  11  26  44  74 104 139 190 236 289 361 418
#     4  11  23  40  67  99 132 177 222 293 347 421
#     4  11  27  47  69 103 149 184 240 300 335 424
#
# _framework density 21.146625
#
# number of rings (size 3 to 8) (size 9 to 14) (size 15 to 20)
#    0.000    1.250    0.000    6.750   10.500    1.000 
#    0.000    3.750    0.000    0.000    0.000    0.000 
#    0.000    0.000    0.000    0.000    0.000    0.000 
#
# Total GULP energy -178437.402541 kJ/mol
# GULP energy per Si atom -5576.168829 kJ/mol
# Density = 2.109849 g / cm^3
# Si number density = 21.146625 Si / 1000 Ang^3
#
#
#
# Elastic Constant Matrix: (Units=GPa)
#
#
# Indices 1 2 3 4 5 6 
#
# 1 153.5343 58.3383 25.3125 0.0000 0.0000 0.0000
# 2 58.3383 83.3123 6.3270 0.0000 0.0000 0.0000
# 3 25.3125 6.3270 69.9948 0.0000 0.0000 0.0000
# 4 0.0000 0.0000 0.0000 6.2113 0.0000 0.0000
# 5 0.0000 0.0000 0.0000 0.0000 56.3456 0.0000
# 6 0.0000 0.0000 0.0000 0.0000 0.0000 22.8633
#
#
#
# Elastic Compliance Matrix: (Units=1/GPa)
#
#
# Indices 1 2 3 4 5 6 
#
# 1 0.009398 -0.006366 -0.002823 0.000000 0.000000 0.000000
# 2 -0.006366 0.016399 0.000820 0.000000 0.000000 0.000000
# 3 -0.002823 0.000820 0.015234 0.000000 0.000000 0.000000
# 4 0.000000 0.000000 0.000000 0.160996 0.000000 0.000000
# 5 0.000000 0.000000 0.000000 0.000000 0.017748 0.000000
# 6 0.000000 0.000000 0.000000 0.000000 0.000000 0.043738
#
#
# Mechanical properties :
#
#
# Convention : Reuss Voigt Hill
#
# Bulk Modulus (GPa) = 41.16722 54.08855 47.62789
# Shear Modulus (GPa) = 17.34023 31.54162 24.44093
#
# Velocity S-wave (km/s) = 2.86667 3.86627 3.40337
# Velocity P-wave (km/s) = 5.51968 6.75012 6.16567
#
# Compressibility (1/GPa) = 0.02429117
#
# Stress axis : x y z
#
# Youngs Moduli (GPa) = 106.41071 60.98103 65.64454
#
# Poissons Ratio (x) = 0.38821 0.18532
# Poissons Ratio (y) = 0.67742 -0.05382
# Poissons Ratio (z) = 0.30040 -0.05000
#
# Static dielectric constant tensor:
#      x y z
#    x 1.797170 0.000000 0.000000 
#    y 0.000000 1.839210 0.000000 
#    z 0.000000 0.000000 1.931730 
# 
# From -- ./inp_files/42429.got.cif
#   From: 2010.05.17/outbox.cif.g08.bks.cpg/sg66_22_cif.got.tgz:42429.got - 2010.06.03 17:51:23.
