data_PCOD9498868
_publ_section_title
;
Structure prediction by ZEFSAII (Michael W. Deem and Ramdas Pophale) SiO2 
 PCOD9498868
Probable space group: C C C M
;
_chemical_formula_sum "Si O2"
_cell_formula_units_Z 48
_cell_length_a 13.145730
_cell_length_b 5.577402
_cell_length_c 27.223428
_cell_angle_alpha 90.000000
_cell_angle_beta 90.000000
_cell_angle_gamma 90.000000
_cell_volume 1995.995084
_symmetry_space_group_name_H-M "C C C M"
_symmetry_group_IT_number 66
_symmetry_cell_setting 'orthorhombic'
loop_
_space_group_symop_operation_xyz
x,y,z
-x,-y,z
x,-y,1/2-z
-x,y,1/2-z
-x,-y,-z
x,y,-z
-x,y,1/2+z
x,-y,1/2+z
1/2+x,1/2+y,z
1/2-x,1/2-y,z
1/2+x,1/2-y,1/2-z
1/2-x,1/2+y,1/2-z
1/2-x,1/2-y,-z
1/2+x,1/2+y,-z
1/2-x,1/2+y,1/2+z
1/2+x,1/2-y,1/2+z
loop_
_atom_site_type_symbol
_atom_site_label
_atom_site_fract_x
_atom_site_fract_y
_atom_site_fract_z
Si Si1 0.357995 0.375713 0.604048
Si Si2 0.315006 0.502532 0.500000
Si Si3 0.612699 0.380657 0.702166
Si Si4 0.500000 0.000000 0.842886
O O1 0.250000 0.250000 0.599094
O O2 0.376434 0.495626 0.551263
O O3 0.341183 0.548656 0.650260
O O4 0.446064 0.193859 0.621858
O O5 0.250000 0.250000 0.500000
O O6 0.250000 0.750000 0.500000
O O7 0.500000 0.500000 0.702158
O O8 0.663640 0.500000 0.750000
O O9 0.586071 0.103515 0.694033
#
# Coordination Sequence:
#
# PCOD9498868 Si02
#       4
#    16   8  16   8
#     4  10  23  41  65  98 131 177 228 285 343 419
#     4  10  24  43  69  97 138 185 227 295 353 410
#     4   9  20  39  63  97 128 172 213 274 340 404
#     4  10  22  42  68  94 136 175 226 283 350 420
#
# _framework density 24.048155000000001
#
# number of rings (size 3 to 8) (size 9 to 14) (size 15 to 20)
#    0.000    2.333    0.000    0.000    9.333   11.333 
#    6.000    7.500    0.000    0.000    0.000    0.000 
#    0.000    0.000    0.000    0.000    0.000    0.000 
#
# Total GULP energy -133728.235206 kJ/mol
# GULP energy per Si atom -5572.009800 kJ/mol
# Density = 2.399342 g / cm^3
# Si number density = 24.048155 Si / 1000 Ang^3
#
#
#
# Elastic Constant Matrix: (Units=GPa)
#
#
# Indices 1 2 3 4 5 6 
#
# 1 63.1450 19.6444 36.4088 0.0000 0.0000 0.0000
# 2 19.6444 109.1985 78.4958 0.0000 0.0000 0.0000
# 3 36.4088 78.4958 292.9234 0.0000 0.0000 0.0000
# 4 0.0000 0.0000 0.0000 -14.4438 0.0000 0.0000
# 5 0.0000 0.0000 0.0000 0.0000 33.5951 0.0000
# 6 0.0000 0.0000 0.0000 0.0000 0.0000 36.6295
#
#
#
# Elastic Compliance Matrix: (Units=1/GPa)
#
#
# Indices 1 2 3 4 5 6 
#
# 1 0.017388 -0.001950 -0.001639 0.000000 0.000000 0.000000
# 2 -0.001950 0.011561 -0.002856 0.000000 0.000000 0.000000
# 3 -0.001639 -0.002856 0.004383 0.000000 0.000000 0.000000
# 4 0.000000 0.000000 0.000000 -0.069234 0.000000 0.000000
# 5 0.000000 0.000000 0.000000 0.000000 0.029766 0.000000
# 6 0.000000 0.000000 0.000000 0.000000 0.000000 0.027300
#
#
# Mechanical properties :
#
#
# Convention : Reuss Voigt Hill
#
# Bulk Modulus (GPa) = 48.91621 81.59610 65.25616
# Shear Modulus (GPa) = 122.34371 33.20401 77.77386
#
# Velocity S-wave (km/s) = 7.14037 3.71985 5.69307
# Velocity P-wave (km/s) = 9.40027 7.24249 8.39103
#
# Compressibility (1/GPa) = 0.02044312
#
# Stress axis : x y z
#
# Youngs Moduli (GPa) = 57.51060 86.49581 228.16482
#
# Poissons Ratio (x) = 0.16868 0.37389
# Poissons Ratio (y) = 0.11215 0.65158
# Poissons Ratio (z) = 0.09424 0.24701
#
# Static dielectric constant tensor:
#      x y z
#    x 1.982950 0.000000 0.000000 
#    y 0.000000 2.088210 0.000000 
#    z 0.000000 0.000000 1.990050 
# 
# From -- ./inp_files/60913.got.cif
#   From: 2010.05.17/outbox.cif.g08.bks.cpg/sg66_31_cif.got.tgz:60913.got - 2010.06.03 17:51:23.
