data_PCOD9498917
_publ_section_title
;
Structure prediction by ZEFSAII (Michael W. Deem and Ramdas Pophale) SiO2 
 PCOD9498917
Probable space group: C C C M
;
_chemical_formula_sum "Si O2"
_cell_formula_units_Z 44
_cell_length_a 23.611903
_cell_length_b 6.227118
_cell_length_c 14.368499
_cell_angle_alpha 90.000000
_cell_angle_beta 90.000000
_cell_angle_gamma 90.000000
_cell_volume 2112.659408
_symmetry_space_group_name_H-M "C C C M"
_symmetry_group_IT_number 66
_symmetry_cell_setting 'orthorhombic'
loop_
_space_group_symop_operation_xyz
x,y,z
-x,-y,z
x,-y,1/2-z
-x,y,1/2-z
-x,-y,-z
x,y,-z
-x,y,1/2+z
x,-y,1/2+z
1/2+x,1/2+y,z
1/2-x,1/2-y,z
1/2+x,1/2-y,1/2-z
1/2-x,1/2+y,1/2-z
1/2-x,1/2-y,-z
1/2+x,1/2+y,-z
1/2-x,1/2+y,1/2+z
1/2+x,1/2-y,1/2+z
loop_
_atom_site_type_symbol
_atom_site_label
_atom_site_fract_x
_atom_site_fract_y
_atom_site_fract_z
Si Si1 0.750000 0.750000 0.500000
Si Si2 0.160020 0.119196 0.657699
Si Si3 0.948853 0.162377 0.393049
Si Si4 0.091048 0.500000 0.250000
O O1 0.793306 0.839247 0.581198
O O2 0.130503 0.339965 0.690438
O O3 0.182952 0.000000 0.750000
O O4 0.109433 0.969347 0.619070
O O5 0.954884 0.234791 0.500000
O O6 0.944711 0.355693 0.320888
O O7 0.000000 0.000000 0.371764
#
# Coordination Sequence:
#
# PCOD9498917 Si02
#       4
#     4  16  16   8
#     4  12  24  44  68  92 142 180 226 292 340 398
#     4  10  24  44  66 100 134 179 232 283 343 407
#     4  10  22  43  70 102 138 173 224 284 343 414
#     4  10  24  43  70 100 132 180 227 272 348 408
#
# _framework density 20.826832
#
# number of rings (size 3 to 8) (size 9 to 14) (size 15 to 20)
#    0.000    1.818    1.818    0.000    5.091    9.455 
#    0.000   10.909    0.000    1.091    0.000    0.000 
#    0.000    0.000    0.000    0.000    0.000    0.000 
#
# Total GULP energy -122597.294289 kJ/mol
# GULP energy per Si atom -5572.604286 kJ/mol
# Density = 2.077943 g / cm^3
# Si number density = 20.826832 Si / 1000 Ang^3
#
#
#
# Elastic Constant Matrix: (Units=GPa)
#
#
# Indices 1 2 3 4 5 6 
#
# 1 139.7479 66.0396 107.2792 0.0000 0.0000 0.0000
# 2 66.0396 129.9050 103.2010 0.0000 0.0000 0.0000
# 3 107.2792 103.2010 231.0727 0.0000 0.0000 0.0000
# 4 0.0000 0.0000 0.0000 20.5638 0.0000 0.0000
# 5 0.0000 0.0000 0.0000 0.0000 52.9474 0.0000
# 6 0.0000 0.0000 0.0000 0.0000 0.0000 24.6446
#
#
#
# Elastic Compliance Matrix: (Units=1/GPa)
#
#
# Indices 1 2 3 4 5 6 
#
# 1 0.011625 -0.002514 -0.004274 0.000000 0.000000 0.000000
# 2 -0.002514 0.012475 -0.004404 0.000000 0.000000 0.000000
# 3 -0.004274 -0.004404 0.008279 0.000000 0.000000 0.000000
# 4 0.000000 0.000000 0.000000 0.048629 0.000000 0.000000
# 5 0.000000 0.000000 0.000000 0.000000 0.018887 0.000000
# 6 0.000000 0.000000 0.000000 0.000000 0.000000 0.040577
#
#
# Mechanical properties :
#
#
# Convention : Reuss Voigt Hill
#
# Bulk Modulus (GPa) = 100.06362 117.08502 108.57432
# Shear Modulus (GPa) = 30.08637 34.57822 32.33230
#
# Velocity S-wave (km/s) = 3.80491 4.07907 3.94437
# Velocity P-wave (km/s) = 8.21297 8.86146 8.54337
#
# Compressibility (1/GPa) = 0.00999364
#
# Stress axis : x y z
#
# Youngs Moduli (GPa) = 86.02143 80.16038 120.78695
#
# Poissons Ratio (x) = 0.20154 0.51627
# Poissons Ratio (y) = 0.21628 0.53198
# Poissons Ratio (z) = 0.36767 0.35305
#
# Static dielectric constant tensor:
#      x y z
#    x 1.713950 0.000000 0.000000 
#    y 0.000000 1.738470 0.000000 
#    z 0.000000 0.000000 1.735620 
# 
# From -- ./inp_files/22271.got.cif
#   From: 2010.05.17/outbox.cif.g08.bks.cpg/sg66_12_cif.got.tgz:22271.got - 2010.06.03 17:51:23.
