data_PCOD9498811
_publ_section_title
;
Structure prediction by ZEFSAII (Michael W. Deem and Ramdas Pophale) SiO2 
 PCOD9498811
Probable space group: C C C M
;
_chemical_formula_sum "Si O2"
_cell_formula_units_Z 100
_cell_length_a 27.182552
_cell_length_b 9.219342
_cell_length_c 20.774022
_cell_angle_alpha 90.000000
_cell_angle_beta 90.000000
_cell_angle_gamma 90.000000
_cell_volume 5206.078838
_symmetry_space_group_name_H-M "C C C M"
_symmetry_group_IT_number 66
_symmetry_cell_setting 'orthorhombic'
loop_
_space_group_symop_operation_xyz
x,y,z
-x,-y,z
x,-y,1/2-z
-x,y,1/2-z
-x,-y,-z
x,y,-z
-x,y,1/2+z
x,-y,1/2+z
1/2+x,1/2+y,z
1/2-x,1/2-y,z
1/2+x,1/2-y,1/2-z
1/2-x,1/2+y,1/2-z
1/2-x,1/2-y,-z
1/2+x,1/2+y,-z
1/2-x,1/2+y,1/2+z
1/2+x,1/2-y,1/2+z
loop_
_atom_site_type_symbol
_atom_site_label
_atom_site_fract_x
_atom_site_fract_y
_atom_site_fract_z
Si Si1 0.471133 0.737037 0.500000
Si Si2 0.446915 0.489140 0.823983
Si Si3 0.765241 0.919723 0.315438
Si Si4 0.435187 0.832007 0.638902
Si Si5 0.157854 0.511065 0.171999
Si Si6 0.422744 0.416382 0.500000
Si Si7 0.000000 0.500000 0.750000
Si Si8 0.863171 0.166708 0.874975
O O1 0.459486 0.825419 0.566803
O O2 0.438925 0.586290 0.500000
O O3 0.527621 0.680937 0.500000
O O4 0.500000 0.500000 0.859243
O O5 0.456089 0.500000 0.750000
O O6 0.426623 0.334905 0.843711
O O7 0.407459 0.613586 0.831112
O O8 0.750000 0.750000 0.302983
O O9 0.716435 0.003305 0.339461
O O10 0.811762 0.913671 0.362188
O O11 0.780586 0.000000 0.250000
O O12 0.382044 0.906977 0.640152
O O13 0.467540 0.904058 0.698199
O O14 0.152029 0.500000 0.250000
O O15 0.145546 0.667659 0.142860
O O16 0.387850 0.373736 0.558457
#
# Coordination Sequence:
#
# PCOD9498811 Si02
#       8
#     8  16  16  16  16   8   4  16
#     4  11  26  46  68  93 141 187 220 278 334 418
#     4  11  22  35  61  92 125 166 218 271 327 390
#     4   9  20  40  64  97 130 169 222 280 345 397
#     4  12  25  43  65  97 139 178 221 279 341 402
#     4  10  22  41  65  97 139 169 215 285 344 400
#     4  11  24  45  66  92 131 178 235 271 323 406
#     4  12  28  42  66 100 140 174 226 280 334 410
#     4  11  22  40  66  92 124 175 226 269 326 399
#
# _framework density 19.208314999999999
#
# number of rings (size 3 to 8) (size 9 to 14) (size 15 to 20)
#    0.000    1.280    2.400    3.360    4.480    3.520 
#    0.000    4.400    0.000    0.960    0.000    0.000 
#    0.000    0.000    0.000    0.000    0.000    0.000 
#
# Total GULP energy -278432.220335 kJ/mol
# GULP energy per Si atom -5568.644407 kJ/mol
# Density = 1.916460 g / cm^3
# Si number density = 19.208315 Si / 1000 Ang^3
#
#
#
# Elastic Constant Matrix: (Units=GPa)
#
#
# Indices 1 2 3 4 5 6 
#
# 1 158.4271 47.6770 64.5079 0.0000 0.0000 0.0000
# 2 47.6770 35.6652 18.2017 0.0000 0.0000 0.0000
# 3 64.5079 18.2017 128.8786 0.0000 0.0000 0.0000
# 4 0.0000 0.0000 0.0000 22.4716 0.0000 0.0000
# 5 0.0000 0.0000 0.0000 0.0000 38.7584 0.0000
# 6 0.0000 0.0000 0.0000 0.0000 0.0000 43.9447
#
#
#
# Elastic Compliance Matrix: (Units=1/GPa)
#
#
# Indices 1 2 3 4 5 6 
#
# 1 0.012316 -0.014352 -0.004138 0.000000 0.000000 0.000000
# 2 -0.014352 0.046942 0.000554 0.000000 0.000000 0.000000
# 3 -0.004138 0.000554 0.009752 0.000000 0.000000 0.000000
# 4 0.000000 0.000000 0.000000 0.044501 0.000000 0.000000
# 5 0.000000 0.000000 0.000000 0.000000 0.025801 0.000000
# 6 0.000000 0.000000 0.000000 0.000000 0.000000 0.022756
#
#
# Mechanical properties :
#
#
# Convention : Reuss Voigt Hill
#
# Bulk Modulus (GPa) = 30.17655 64.86044 47.51849
# Shear Modulus (GPa) = 23.92522 33.87389 28.89956
#
# Velocity S-wave (km/s) = 3.53309 4.20396 3.88304
# Velocity P-wave (km/s) = 5.69103 7.57658 6.70046
#
# Compressibility (1/GPa) = 0.03313832
#
# Stress axis : x y z
#
# Youngs Moduli (GPa) = 81.19566 21.30297 102.54366
#
# Poissons Ratio (x) = 0.30575 0.42428
# Poissons Ratio (y) = 1.16534 -0.05682
# Poissons Ratio (z) = 0.33595 -0.01180
#
# Static dielectric constant tensor:
#      x y z
#    x 1.581520 0.000000 0.000000 
#    y 0.000000 1.669850 0.000000 
#    z 0.000000 0.000000 1.884900 
# 
# From -- ./inp_files/53093.got.cif
#   From: 2010.05.17/outbox.cif.g08.bks.cpg/sg66_27_cif.got.tgz:53093.got - 2010.06.03 17:51:23.
