data_PCOD9498847
_publ_section_title
;
Structure prediction by ZEFSAII (Michael W. Deem and Ramdas Pophale) SiO2 
 PCOD9498847
Probable space group: C C C M
;
_chemical_formula_sum "Si O2"
_cell_formula_units_Z 56
_cell_length_a 10.664661
_cell_length_b 10.554999
_cell_length_c 20.827498
_cell_angle_alpha 90.000000
_cell_angle_beta 90.000000
_cell_angle_gamma 90.000000
_cell_volume 2344.457438
_symmetry_space_group_name_H-M "C C C M"
_symmetry_group_IT_number 66
_symmetry_cell_setting 'orthorhombic'
loop_
_space_group_symop_operation_xyz
x,y,z
-x,-y,z
x,-y,1/2-z
-x,y,1/2-z
-x,-y,-z
x,y,-z
-x,y,1/2+z
x,-y,1/2+z
1/2+x,1/2+y,z
1/2-x,1/2-y,z
1/2+x,1/2-y,1/2-z
1/2-x,1/2+y,1/2-z
1/2-x,1/2-y,-z
1/2+x,1/2+y,-z
1/2-x,1/2+y,1/2+z
1/2+x,1/2-y,1/2+z
loop_
_atom_site_type_symbol
_atom_site_label
_atom_site_fract_x
_atom_site_fract_y
_atom_site_fract_z
Si Si1 0.612591 0.235509 0.707206
Si Si2 0.423674 0.131689 0.070605
Si Si3 0.856240 0.164012 0.928317
Si Si4 0.000000 0.000000 0.159273
O O1 0.500000 0.175520 0.750000
O O2 0.750000 0.250000 0.738628
O O3 0.636428 0.159507 0.640190
O O4 0.556649 0.375929 0.692690
O O5 0.522634 0.247187 0.067195
O O6 0.500000 0.000000 0.073969
O O7 0.356899 0.131447 0.000000
O O8 0.750000 0.250000 0.898237
O O9 0.888013 0.045819 0.886104
O O10 0.815825 0.127601 0.000000
#
# Coordination Sequence:
#
# PCOD9498847 Si02
#       4
#    16  16  16   8
#     4  11  26  47  69 101 139 188 235 293 354 418
#     4   9  20  40  65 101 137 172 227 290 350 421
#     4   9  18  33  60  95 133 175 215 273 345 408
#     4  10  22  42  64  90 131 176 231 284 331 410
#
# _framework density 23.886122
#
# number of rings (size 3 to 8) (size 9 to 14) (size 15 to 20)
#    0.000    2.286    0.000    0.857    4.000    6.857 
#    5.143    0.000    0.000    0.000    0.000    0.000 
#    0.000    0.000    0.000    0.000    0.000    0.000 
#
# Total GULP energy -156160.651831 kJ/mol
# GULP energy per Si atom -5577.166137 kJ/mol
# Density = 2.383176 g / cm^3
# Si number density = 23.886122 Si / 1000 Ang^3
#
#
#
# Elastic Constant Matrix: (Units=GPa)
#
#
# Indices 1 2 3 4 5 6 
#
# 1 83.6883 -7.4192 53.6496 0.0000 0.0000 0.0000
# 2 -7.4192 88.1610 46.5479 0.0000 0.0000 0.0000
# 3 53.6496 46.5479 134.7117 0.0000 0.0000 0.0000
# 4 0.0000 0.0000 0.0000 -11.3557 0.0000 0.0000
# 5 0.0000 0.0000 0.0000 0.0000 19.1570 0.0000
# 6 0.0000 0.0000 0.0000 0.0000 0.0000 35.6862
#
#
#
# Elastic Compliance Matrix: (Units=1/GPa)
#
#
# Indices 1 2 3 4 5 6 
#
# 1 0.018877 0.006798 -0.009867 0.000000 0.000000 0.000000
# 2 0.006798 0.016322 -0.008347 0.000000 0.000000 0.000000
# 3 -0.009867 -0.008347 0.014237 0.000000 0.000000 0.000000
# 4 0.000000 0.000000 0.000000 -0.088061 0.000000 0.000000
# 5 0.000000 0.000000 0.000000 0.000000 0.052200 0.000000
# 6 0.000000 0.000000 0.000000 0.000000 0.000000 0.028022
#
#
# Mechanical properties :
#
#
# Convention : Reuss Voigt Hill
#
# Bulk Modulus (GPa) = 37.58782 54.67975 46.13378
# Shear Modulus (GPa) = 68.21476 22.94967 45.58222
#
# Velocity S-wave (km/s) = 5.34980 3.10303 4.37316
# Velocity P-wave (km/s) = 7.34376 5.98164 6.69742
#
# Compressibility (1/GPa) = 0.02660436
#
# Stress axis : x y z
#
# Youngs Moduli (GPa) = 52.97417 61.26581 70.23870
#
# Poissons Ratio (x) = -0.41650 0.69304
# Poissons Ratio (y) = -0.36013 0.58631
# Poissons Ratio (z) = 0.52269 0.51141
#
# Static dielectric constant tensor:
#      x y z
#    x 1.970490 0.000000 0.000000 
#    y 0.000000 1.854000 0.000000 
#    z 0.000000 0.000000 2.049020 
# 
# From -- ./inp_files/47905.got.cif
#   From: 2010.05.17/outbox.cif.g08.bks.cpg/sg66_24_cif.got.tgz:47905.got - 2010.06.03 17:51:23.
