data_PCOD9498609
_publ_section_title
;
Structure prediction by ZEFSAII (Michael W. Deem and Ramdas Pophale) SiO2 
 PCOD9498609
Probable space group: C C C M
;
_chemical_formula_sum "Si O2"
_cell_formula_units_Z 112
_cell_length_a 11.462639
_cell_length_b 14.871621
_cell_length_c 29.985962
_cell_angle_alpha 90.000000
_cell_angle_beta 90.000000
_cell_angle_gamma 90.000000
_cell_volume 5111.647656
_symmetry_space_group_name_H-M "C C C M"
_symmetry_group_IT_number 66
_symmetry_cell_setting 'orthorhombic'
loop_
_space_group_symop_operation_xyz
x,y,z
-x,-y,z
x,-y,1/2-z
-x,y,1/2-z
-x,-y,-z
x,y,-z
-x,y,1/2+z
x,-y,1/2+z
1/2+x,1/2+y,z
1/2-x,1/2-y,z
1/2+x,1/2-y,1/2-z
1/2-x,1/2+y,1/2-z
1/2-x,1/2-y,-z
1/2+x,1/2+y,-z
1/2-x,1/2+y,1/2+z
1/2+x,1/2-y,1/2+z
loop_
_atom_site_type_symbol
_atom_site_label
_atom_site_fract_x
_atom_site_fract_y
_atom_site_fract_z
Si Si1 0.227465 0.434465 0.449940
Si Si2 0.873435 0.454753 0.793330
Si Si3 0.229431 0.439445 0.874219
Si Si4 0.455937 0.661329 0.950455
Si Si5 0.028893 0.102682 0.148157
Si Si6 0.001918 0.347398 0.413085
Si Si7 0.386022 0.766488 0.824245
O O1 0.225943 0.469211 0.500000
O O2 0.279997 0.506139 0.416016
O O3 0.314585 0.349091 0.448763
O O4 0.095805 0.414406 0.434680
O O5 0.816563 0.500000 0.750000
O O6 0.807960 0.486104 0.837825
O O7 0.891231 0.348007 0.788920
O O8 0.000000 0.500000 0.797699
O O9 0.331594 0.381726 0.851718
O O10 0.119366 0.387073 0.895049
O O11 0.495214 0.616968 0.903983
O O12 0.503922 0.762623 0.946114
O O13 0.489035 0.625237 0.000000
O O14 0.957656 0.173621 0.178491
O O15 0.000000 0.000000 0.160655
O O16 0.063423 0.310213 0.368899
O O17 0.250000 0.750000 0.830280
#
# Coordination Sequence:
#
# PCOD9498609 Si02
#       7
#    16  16  16  16  16  16  16
#     4  11  21  36  62  95 137 188 242 288 338 407
#     4  11  23  46  74 104 137 178 227 291 351 418
#     4  12  23  41  65  99 143 175 229 292 358 414
#     4  10  22  38  59  91 134 186 245 289 335 407
#     4  11  23  41  68 100 136 191 230 289 346 414
#     4  11  21  36  60  96 133 185 225 295 338 409
#     4  11  22  42  73 101 134 183 233 273 342 423
#
# _framework density 21.910744000000001
#
# number of rings (size 3 to 8) (size 9 to 14) (size 15 to 20)
#    0.000    1.000    4.286    3.857    0.000    6.000 
#    0.000    3.571    0.000    3.000    0.000    0.000 
#    0.000    0.000    0.000    0.000    0.000    0.000 
#
# Total GULP energy -312434.259972 kJ/mol
# GULP energy per Si atom -5579.183214 kJ/mol
# Density = 2.186087 g / cm^3
# Si number density = 21.910744 Si / 1000 Ang^3
#
#
#
# Elastic Constant Matrix: (Units=GPa)
#
#
# Indices 1 2 3 4 5 6 
#
# 1 119.6279 54.2614 0.9194 0.0000 0.0000 0.0000
# 2 54.2614 132.6513 33.4170 0.0000 0.0000 0.0000
# 3 0.9194 33.4170 63.8595 0.0000 0.0000 0.0000
# 4 0.0000 0.0000 0.0000 -22.1835 0.0000 0.0000
# 5 0.0000 0.0000 0.0000 0.0000 0.7591 0.0000
# 6 0.0000 0.0000 0.0000 0.0000 0.0000 27.7923
#
#
#
# Elastic Compliance Matrix: (Units=1/GPa)
#
#
# Indices 1 2 3 4 5 6 
#
# 1 0.010582 -0.004942 0.002434 0.000000 0.000000 0.000000
# 2 -0.004942 0.010991 -0.005680 0.000000 0.000000 0.000000
# 3 0.002434 -0.005680 0.018597 0.000000 0.000000 0.000000
# 4 0.000000 0.000000 0.000000 -0.045078 0.000000 0.000000
# 5 0.000000 0.000000 0.000000 0.000000 1.317370 0.000000
# 6 0.000000 0.000000 0.000000 0.000000 0.000000 0.035981
#
#
# Mechanical properties :
#
#
# Convention : Reuss Voigt Hill
#
# Bulk Modulus (GPa) = 42.02929 54.81493 48.42211
# Shear Modulus (GPa) = 3.64232 16.44296 10.04264
#
# Velocity S-wave (km/s) = 1.29072 2.74241 2.14322
# Velocity P-wave (km/s) = 4.63087 5.92448 5.31716
#
# Compressibility (1/GPa) = 0.02379293
#
# Stress axis : x y z
#
# Youngs Moduli (GPa) = 94.49998 90.98430 53.77283
#
# Poissons Ratio (x) = 0.44961 -0.13086
# Poissons Ratio (y) = 0.46699 0.30544
# Poissons Ratio (z) = -0.22997 0.51682
#
# Static dielectric constant tensor:
#      x y z
#    x 1.823580 0.000000 0.000000 
#    y 0.000000 1.901270 0.000000 
#    z 0.000000 0.000000 1.840330 
# 
# From -- ./inp_files/69104.got.cif
#   From: 2010.05.17/outbox.cif.g08.bks.cpg/sg66_35_cif.got.tgz:69104.got - 2010.06.03 17:51:23.
