data_PCOD9498180
_publ_section_title
;
Structure prediction by ZEFSAII (Michael W. Deem and Ramdas Pophale) SiO2 
 PCOD9498180
Probable space group: C C C M
;
_chemical_formula_sum "Si O2"
_cell_formula_units_Z 88
_cell_length_a 16.192580
_cell_length_b 12.088939
_cell_length_c 20.613904
_cell_angle_alpha 90.000000
_cell_angle_beta 90.000000
_cell_angle_gamma 90.000000
_cell_volume 4035.194628
_symmetry_space_group_name_H-M "C C C M"
_symmetry_group_IT_number 66
_symmetry_cell_setting 'orthorhombic'
loop_
_space_group_symop_operation_xyz
x,y,z
-x,-y,z
x,-y,1/2-z
-x,y,1/2-z
-x,-y,-z
x,y,-z
-x,y,1/2+z
x,-y,1/2+z
1/2+x,1/2+y,z
1/2-x,1/2-y,z
1/2+x,1/2-y,1/2-z
1/2-x,1/2+y,1/2-z
1/2-x,1/2-y,-z
1/2+x,1/2+y,-z
1/2-x,1/2+y,1/2+z
1/2+x,1/2-y,1/2+z
loop_
_atom_site_type_symbol
_atom_site_label
_atom_site_fract_x
_atom_site_fract_y
_atom_site_fract_z
Si Si1 0.077805 0.929333 0.926821
Si Si2 0.190471 0.000000 0.750000
Si Si3 0.517530 0.870440 0.320697
Si Si4 0.618364 0.200477 0.424001
Si Si5 0.723577 0.583806 0.888921
Si Si6 0.154683 0.221431 0.325469
O O1 0.101789 0.825046 0.885117
O O2 0.162398 0.998931 0.923995
O O3 0.055621 0.900703 0.000000
O O4 0.000000 0.000000 0.900080
O O5 0.234507 0.043463 0.814984
O O6 0.147251 0.115994 0.724806
O O7 0.500000 0.818007 0.250000
O O8 0.458802 0.824168 0.377642
O O9 0.613762 0.841979 0.320520
O O10 0.500000 0.000000 0.319634
O O11 0.598253 0.219693 0.500000
O O12 0.669083 0.304331 0.394811
O O13 0.687325 0.103856 0.419819
O O14 0.250000 0.250000 0.333876
#
# Coordination Sequence:
#
# PCOD9498180 Si02
#       6
#    16   8  16  16  16  16
#     4  10  21  40  66  95 137 184 236 300 367 435
#     4  10  24  40  71  97 144 184 240 302 370 437
#     4  11  27  45  69  98 141 188 238 297 374 451
#     4  11  23  41  68 100 139 185 243 304 372 451
#     4  10  21  38  66 100 133 183 239 296 359 440
#     4  11  26  43  68 104 138 184 239 297 370 445
#
# _framework density 21.808118
#
# number of rings (size 3 to 8) (size 9 to 14) (size 15 to 20)
#    0.000    1.455    0.000    4.364   10.182    4.364 
#    0.000    5.000    0.000    0.000    0.000    0.000 
#    0.000    0.000    0.000    0.000    0.000    0.000 
#
# Total GULP energy -244979.278791 kJ/mol
# GULP energy per Si atom -5567.710882 kJ/mol
# Density = 2.175848 g / cm^3
# Si number density = 21.808118 Si / 1000 Ang^3
#
#
#
# Elastic Constant Matrix: (Units=GPa)
#
#
# Indices 1 2 3 4 5 6 
#
# 1 153.9157 35.2789 42.9695 0.0000 0.0000 0.0000
# 2 35.2789 69.6363 23.1418 0.0000 0.0000 0.0000
# 3 42.9695 23.1418 137.5598 0.0000 0.0000 0.0000
# 4 0.0000 0.0000 0.0000 15.2137 0.0000 0.0000
# 5 0.0000 0.0000 0.0000 0.0000 32.2305 0.0000
# 6 0.0000 0.0000 0.0000 0.0000 0.0000 39.2222
#
#
#
# Elastic Compliance Matrix: (Units=1/GPa)
#
#
# Indices 1 2 3 4 5 6 
#
# 1 0.007781 -0.003320 -0.001872 0.000000 0.000000 0.000000
# 2 -0.003320 0.016627 -0.001760 0.000000 0.000000 0.000000
# 3 -0.001872 -0.001760 0.008150 0.000000 0.000000 0.000000
# 4 0.000000 0.000000 0.000000 0.065730 0.000000 0.000000
# 5 0.000000 0.000000 0.000000 0.000000 0.031026 0.000000
# 6 0.000000 0.000000 0.000000 0.000000 0.000000 0.025496
#
#
# Mechanical properties :
#
#
# Convention : Reuss Voigt Hill
#
# Bulk Modulus (GPa) = 53.60663 62.65468 58.13065
# Shear Modulus (GPa) = 28.58252 34.64808 31.61530
#
# Velocity S-wave (km/s) = 3.62420 3.99026 3.81163
# Velocity P-wave (km/s) = 6.49211 7.07262 6.78857
#
# Compressibility (1/GPa) = 0.01865441
#
# Stress axis : x y z
#
# Youngs Moduli (GPa) = 128.52550 60.14286 122.69295
#
# Poissons Ratio (x) = 0.19965 0.22967
# Poissons Ratio (y) = 0.42666 0.21597
# Poissons Ratio (z) = 0.24059 0.10586
#
# Static dielectric constant tensor:
#      x y z
#    x 1.096030 0.000000 0.000000 
#    y 0.000000 1.912700 0.000000 
#    z 0.000000 0.000000 1.918010 
# 
# From -- ./inp_files/50946.got.cif
#   From: 2010.05.17/outbox.cif.g08.bks.cpg/sg66_26_cif.got.tgz:50946.got - 2010.06.03 17:51:23.
