data_PCOD9498515
_publ_section_title
;
Structure prediction by ZEFSAII (Michael W. Deem and Ramdas Pophale) SiO2 
 PCOD9498515
Probable space group: C C C M
;
_chemical_formula_sum "Si O2"
_cell_formula_units_Z 96
_cell_length_a 11.278877
_cell_length_b 14.893071
_cell_length_c 30.940328
_cell_angle_alpha 90.000000
_cell_angle_beta 90.000000
_cell_angle_gamma 90.000000
_cell_volume 5197.267064
_symmetry_space_group_name_H-M "C C C M"
_symmetry_group_IT_number 66
_symmetry_cell_setting 'orthorhombic'
loop_
_space_group_symop_operation_xyz
x,y,z
-x,-y,z
x,-y,1/2-z
-x,y,1/2-z
-x,-y,-z
x,y,-z
-x,y,1/2+z
x,-y,1/2+z
1/2+x,1/2+y,z
1/2-x,1/2-y,z
1/2+x,1/2-y,1/2-z
1/2-x,1/2+y,1/2-z
1/2-x,1/2-y,-z
1/2+x,1/2+y,-z
1/2-x,1/2+y,1/2+z
1/2+x,1/2-y,1/2+z
loop_
_atom_site_type_symbol
_atom_site_label
_atom_site_fract_x
_atom_site_fract_y
_atom_site_fract_z
Si Si1 0.694400 0.848396 0.871416
Si Si2 0.390399 0.239594 0.500000
Si Si3 0.880795 0.944933 0.500000
Si Si4 0.996149 0.391768 0.199710
Si Si5 0.141293 0.009027 0.597175
Si Si6 0.209307 0.351132 0.638351
Si Si7 0.982250 0.601358 0.430932
O O1 0.750000 0.750000 0.870768
O O2 0.609625 0.861056 0.829128
O O3 0.603643 0.863806 0.910719
O O4 0.795397 0.922169 0.881959
O O5 0.250000 0.250000 0.500000
O O6 0.426236 0.342516 0.500000
O O7 0.434700 0.179522 0.461029
O O8 0.819697 0.967433 0.546744
O O9 0.000000 0.000000 0.500000
O O10 0.870263 0.355320 0.181353
O O11 0.000000 0.500000 0.196300
O O12 0.000000 0.366906 0.250000
O O13 0.175519 0.089140 0.629849
O O14 0.000000 0.000000 0.595403
O O15 0.250000 0.250000 0.628319
O O16 0.115845 0.400378 0.606475
O O17 0.000000 0.500000 0.448011
#
# Coordination Sequence:
#
# PCOD9498515 Si02
#       7
#    16   8   8  16  16  16  16
#     4  11  24  40  65  93 123 163 212 254 313 380
#     4  12  25  38  60  92 121 165 218 281 318 368
#     4  10  24  38  56  80 127 168 211 248 313 356
#     4  10  21  43  70  93 123 161 204 257 314 380
#     4  11  23  40  60  87 127 169 210 259 311 371
#     4  11  21  38  65  92 120 163 209 249 314 379
#     4  11  22  41  61  87 122 165 218 264 317 366
#
# _framework density 18.471245
#
# number of rings (size 3 to 8) (size 9 to 14) (size 15 to 20)
#    0.000    1.167    3.333    3.750    9.333    1.333 
#    0.000    0.833    0.000    1.000    0.000    0.000 
#    0.000    0.000    0.000    0.000    0.000    0.000 
#
# Total GULP energy -267378.507824 kJ/mol
# GULP energy per Si atom -5570.385580 kJ/mol
# Density = 1.842920 g / cm^3
# Si number density = 18.471245 Si / 1000 Ang^3
#
#
#
# Elastic Constant Matrix: (Units=GPa)
#
#
# Indices 1 2 3 4 5 6 
#
# 1 112.7653 57.1499 47.4922 0.0000 0.0000 0.0000
# 2 57.1499 173.8321 52.4807 0.0000 0.0000 0.0000
# 3 47.4922 52.4807 108.4620 0.0000 0.0000 0.0000
# 4 0.0000 0.0000 0.0000 -0.5238 0.0000 0.0000
# 5 0.0000 0.0000 0.0000 0.0000 9.4609 0.0000
# 6 0.0000 0.0000 0.0000 0.0000 0.0000 36.2188
#
#
#
# Elastic Compliance Matrix: (Units=1/GPa)
#
#
# Indices 1 2 3 4 5 6 
#
# 1 0.011890 -0.002737 -0.003882 0.000000 0.000000 0.000000
# 2 -0.002737 0.007367 -0.002366 0.000000 0.000000 0.000000
# 3 -0.003882 -0.002366 0.012064 0.000000 0.000000 0.000000
# 4 0.000000 0.000000 0.000000 -1.909022 0.000000 0.000000
# 5 0.000000 0.000000 0.000000 0.000000 0.105698 0.000000
# 6 0.000000 0.000000 0.000000 0.000000 0.000000 0.027610
#
#
# Mechanical properties :
#
#
# Convention : Reuss Voigt Hill
#
# Bulk Modulus (GPa) = 74.89947 78.81169 76.85558
# Shear Modulus (GPa) = -2.90365 24.89360 10.99498
#
# Velocity S-wave (km/s) = -1.25515 3.67508 2.44242
# Velocity P-wave (km/s) = 6.20780 7.79539 7.04645
#
# Compressibility (1/GPa) = 0.01335123
#
# Stress axis : x y z
#
# Youngs Moduli (GPa) = 84.10399 135.74316 82.88815
#
# Poissons Ratio (x) = 0.37154 0.32177
# Poissons Ratio (y) = 0.23020 0.19612
# Poissons Ratio (z) = 0.32649 0.32118
#
# Static dielectric constant tensor:
#      x y z
#    x 1.699510 0.000000 0.000000 
#    y 0.000000 1.681570 0.000000 
#    z 0.000000 0.000000 1.705620 
# 
# From -- ./inp_files/69018.got.cif
#   From: 2010.05.17/outbox.cif.g08.bks.cpg/sg66_35_cif.got.tgz:69018.got - 2010.06.03 17:51:23.
