data_PCOD9498026
_publ_section_title
;
Structure prediction by ZEFSAII (Michael W. Deem and Ramdas Pophale) SiO2 
 PCOD9498026
Probable space group: C C C M
;
_chemical_formula_sum "Si O2"
_cell_formula_units_Z 56
_cell_length_a 7.693660
_cell_length_b 17.734745
_cell_length_c 20.797090
_cell_angle_alpha 90.000000
_cell_angle_beta 90.000000
_cell_angle_gamma 90.000000
_cell_volume 2837.660988
_symmetry_space_group_name_H-M "C C C M"
_symmetry_group_IT_number 66
_symmetry_cell_setting 'orthorhombic'
loop_
_space_group_symop_operation_xyz
x,y,z
-x,-y,z
x,-y,1/2-z
-x,y,1/2-z
-x,-y,-z
x,y,-z
-x,y,1/2+z
x,-y,1/2+z
1/2+x,1/2+y,z
1/2-x,1/2-y,z
1/2+x,1/2-y,1/2-z
1/2-x,1/2+y,1/2-z
1/2-x,1/2-y,-z
1/2+x,1/2+y,-z
1/2-x,1/2+y,1/2+z
1/2+x,1/2-y,1/2+z
loop_
_atom_site_type_symbol
_atom_site_label
_atom_site_fract_x
_atom_site_fract_y
_atom_site_fract_z
Si Si1 0.000000 0.000000 0.393962
Si Si2 0.361759 0.066977 0.070688
Si Si3 0.482105 0.179993 0.672514
Si Si4 0.429167 0.345321 0.677318
O O1 0.175855 0.974652 0.429001
O O2 0.967798 0.925225 0.353080
O O3 0.401170 0.124289 0.129439
O O4 0.500000 0.000000 0.077467
O O5 0.385684 0.103520 0.000000
O O6 0.500000 0.172348 0.750000
O O7 0.514128 0.267093 0.652643
O O8 0.276677 0.164569 0.665696
O O9 0.500000 0.348749 0.750000
#
# Coordination Sequence:
#
# PCOD9498026 Si02
#       4
#     8  16  16  16
#     4  12  22  40  64  94 126 167 215 260 317 376
#     4  11  24  43  64  93 129 169 213 265 317 378
#     4  10  21  41  64  91 131 168 208 264 323 373
#     4  10  21  37  62  97 129 163 209 265 317 381
#
# _framework density 19.734563000000001
#
# number of rings (size 3 to 8) (size 9 to 14) (size 15 to 20)
#    0.000    1.429    2.857    2.571    0.000    4.000 
#    0.000    7.143    0.000    0.000    0.000    0.000 
#    0.000    0.000    0.000    0.000    0.000    0.000 
#
# Total GULP energy -155970.187751 kJ/mol
# GULP energy per Si atom -5570.363848 kJ/mol
# Density = 1.968965 g / cm^3
# Si number density = 19.734563 Si / 1000 Ang^3
#
#
#
# Elastic Constant Matrix: (Units=GPa)
#
#
# Indices 1 2 3 4 5 6 
#
# 1 104.1204 57.9061 31.5283 0.0000 0.0000 0.0000
# 2 57.9061 155.8241 84.2419 0.0000 0.0000 0.0000
# 3 31.5283 84.2419 98.5867 0.0000 0.0000 0.0000
# 4 0.0000 0.0000 0.0000 -1.3176 0.0000 0.0000
# 5 0.0000 0.0000 0.0000 0.0000 22.4764 0.0000
# 6 0.0000 0.0000 0.0000 0.0000 0.0000 32.1820
#
#
#
# Elastic Compliance Matrix: (Units=1/GPa)
#
#
# Indices 1 2 3 4 5 6 
#
# 1 0.012106 -0.004471 -0.000051 0.000000 0.000000 0.000000
# 2 -0.004471 0.013579 -0.010173 0.000000 0.000000 0.000000
# 3 -0.000051 -0.010173 0.018853 0.000000 0.000000 0.000000
# 4 0.000000 0.000000 0.000000 -0.758936 0.000000 0.000000
# 5 0.000000 0.000000 0.000000 0.000000 0.044491 0.000000
# 6 0.000000 0.000000 0.000000 0.000000 0.000000 0.031073
#
#
# Mechanical properties :
#
#
# Convention : Reuss Voigt Hill
#
# Bulk Modulus (GPa) = 66.01958 78.43154 72.22556
# Shear Modulus (GPa) = -8.27276 22.99182 7.35953
#
# Velocity S-wave (km/s) = -2.04966 3.41699 1.93322
# Velocity P-wave (km/s) = 5.28440 7.44294 6.45454
#
# Compressibility (1/GPa) = 0.01514702
#
# Stress axis : x y z
#
# Youngs Moduli (GPa) = 82.60083 73.64335 53.04313
#
# Poissons Ratio (x) = 0.32929 0.00270
# Poissons Ratio (y) = 0.36934 0.53962
# Poissons Ratio (z) = 0.00420 0.74919
#
# Static dielectric constant tensor:
#      x y z
#    x 1.665920 0.000000 0.000000 
#    y 0.000000 1.810290 0.000000 
#    z 0.000000 0.000000 1.707120 
# 
# From -- ./inp_files/36059.got.cif
#   From: 2010.05.17/outbox.cif.g08.bks.cpg/sg66_19_cif.got.tgz:36059.got - 2010.06.03 17:51:23.
