data_PCOD9498255
_publ_section_title
;
Structure prediction by ZEFSAII (Michael W. Deem and Ramdas Pophale) SiO2 
 PCOD9498255
Probable space group: C C C M
;
_chemical_formula_sum "Si O2"
_cell_formula_units_Z 96
_cell_length_a 8.914648
_cell_length_b 19.672169
_cell_length_c 29.907742
_cell_angle_alpha 90.000000
_cell_angle_beta 90.000000
_cell_angle_gamma 90.000000
_cell_volume 5244.934533
_symmetry_space_group_name_H-M "C C C M"
_symmetry_group_IT_number 66
_symmetry_cell_setting 'orthorhombic'
loop_
_space_group_symop_operation_xyz
x,y,z
-x,-y,z
x,-y,1/2-z
-x,y,1/2-z
-x,-y,-z
x,y,-z
-x,y,1/2+z
x,-y,1/2+z
1/2+x,1/2+y,z
1/2-x,1/2-y,z
1/2+x,1/2-y,1/2-z
1/2-x,1/2+y,1/2-z
1/2-x,1/2-y,-z
1/2+x,1/2+y,-z
1/2-x,1/2+y,1/2+z
1/2+x,1/2-y,1/2+z
loop_
_atom_site_type_symbol
_atom_site_label
_atom_site_fract_x
_atom_site_fract_y
_atom_site_fract_z
Si Si1 0.398413 0.100303 0.133083
Si Si2 0.737700 0.047672 0.868418
Si Si3 0.848476 0.684005 0.223840
Si Si4 0.746229 0.331876 0.448780
Si Si5 0.164366 0.069318 0.271085
Si Si6 0.946846 0.078901 0.949362
O O1 0.571369 0.078286 0.135016
O O2 0.370445 0.144682 0.177210
O O3 0.359902 0.140538 0.088103
O O4 0.292681 0.033367 0.131033
O O5 0.834132 0.062969 0.824252
O O6 0.821081 0.078491 0.911277
O O7 0.750000 0.750000 0.215540
O O8 0.762058 0.632393 0.256185
O O9 0.000000 0.702507 0.250000
O O10 0.786276 0.350788 0.500000
O O11 0.750000 0.250000 0.446101
O O12 0.584567 0.368802 0.440446
O O13 0.000000 0.076074 0.250000
O O14 0.231406 0.000000 0.250000
O O15 0.892397 0.093399 0.000000
O O16 0.000000 0.000000 0.949121
#
# Coordination Sequence:
#
# PCOD9498255 Si02
#       6
#    16  16  16  16  16  16
#     4  11  23  40  64  94 127 165 204 264 322 379
#     4  11  23  39  64  96 126 161 210 261 323 380
#     4  12  25  45  63  88 130 168 214 259 317 381
#     4  10  22  42  66  93 127 170 212 255 317 382
#     4  11  24  39  63  92 122 166 208 260 312 375
#     4  10  21  39  63  93 129 164 210 266 312 373
#
# _framework density 18.303374000000002
#
# number of rings (size 3 to 8) (size 9 to 14) (size 15 to 20)
#    0.000    1.167    5.000    1.000    4.667    1.000 
#    3.000    2.500    0.000    3.000    0.000    0.000 
#    0.000    0.000    0.000    0.000    0.000    0.000 
#
# Total GULP energy -267972.691981 kJ/mol
# GULP energy per Si atom -5582.764416 kJ/mol
# Density = 1.826171 g / cm^3
# Si number density = 18.303374 Si / 1000 Ang^3
#
#
#
# Elastic Constant Matrix: (Units=GPa)
#
#
# Indices 1 2 3 4 5 6 
#
# 1 79.2695 43.4179 59.0008 0.0000 0.0000 0.0000
# 2 43.4179 103.5377 44.7150 0.0000 0.0000 0.0000
# 3 59.0008 44.7150 139.7478 0.0000 0.0000 0.0000
# 4 0.0000 0.0000 0.0000 85.4681 0.0000 0.0000
# 5 0.0000 0.0000 0.0000 0.0000 26.6268 0.0000
# 6 0.0000 0.0000 0.0000 0.0000 0.0000 30.4757
#
#
#
# Elastic Compliance Matrix: (Units=1/GPa)
#
#
# Indices 1 2 3 4 5 6 
#
# 1 0.021004 -0.005776 -0.007019 0.000000 0.000000 0.000000
# 2 -0.005776 0.012796 -0.001655 0.000000 0.000000 0.000000
# 3 -0.007019 -0.001655 0.010649 0.000000 0.000000 0.000000
# 4 0.000000 0.000000 0.000000 0.011700 0.000000 0.000000
# 5 0.000000 0.000000 0.000000 0.000000 0.037556 0.000000
# 6 0.000000 0.000000 0.000000 0.000000 0.000000 0.032813
#
#
# Mechanical properties :
#
#
# Convention : Reuss Voigt Hill
#
# Bulk Modulus (GPa) = 64.32571 68.53580 66.43075
# Shear Modulus (GPa) = 31.13294 40.20887 35.67090
#
# Velocity S-wave (km/s) = 4.12872 4.69209 4.41939
# Velocity P-wave (km/s) = 7.61242 8.17801 7.90028
#
# Compressibility (1/GPa) = 0.01554588
#
# Stress axis : x y z
#
# Youngs Moduli (GPa) = 47.61097 78.15244 93.90566
#
# Poissons Ratio (x) = 0.45143 0.65916
# Poissons Ratio (y) = 0.27501 0.15546
# Poissons Ratio (z) = 0.33420 0.12938
#
# Static dielectric constant tensor:
#      x y z
#    x 1.531800 0.000000 0.000000 
#    y 0.000000 1.629450 0.000000 
#    z 0.000000 0.000000 1.621380 
# 
# From -- ./inp_files/62590.got.cif
#   From: 2010.05.17/outbox.cif.g08.bks.cpg/sg66_32_cif.got.tgz:62590.got - 2010.06.03 17:51:23.
