data_PCOD9498284
_publ_section_title
;
Structure prediction by ZEFSAII (Michael W. Deem and Ramdas Pophale) SiO2 
 PCOD9498284
Probable space group: C C C M
;
_chemical_formula_sum "Si O2"
_cell_formula_units_Z 120
_cell_length_a 24.603975
_cell_length_b 9.172023
_cell_length_c 25.945675
_cell_angle_alpha 90.000000
_cell_angle_beta 90.000000
_cell_angle_gamma 90.000000
_cell_volume 5855.114413
_symmetry_space_group_name_H-M "C C C M"
_symmetry_group_IT_number 66
_symmetry_cell_setting 'orthorhombic'
loop_
_space_group_symop_operation_xyz
x,y,z
-x,-y,z
x,-y,1/2-z
-x,y,1/2-z
-x,-y,-z
x,y,-z
-x,y,1/2+z
x,-y,1/2+z
1/2+x,1/2+y,z
1/2-x,1/2-y,z
1/2+x,1/2-y,1/2-z
1/2-x,1/2+y,1/2-z
1/2-x,1/2-y,-z
1/2+x,1/2+y,-z
1/2-x,1/2+y,1/2+z
1/2+x,1/2-y,1/2+z
loop_
_atom_site_type_symbol
_atom_site_label
_atom_site_fract_x
_atom_site_fract_y
_atom_site_fract_z
Si Si1 0.439140 0.173665 0.256056
Si Si2 0.514279 0.174013 0.560350
Si Si3 0.666324 0.779004 0.807638
Si Si4 0.223042 0.595931 0.406218
Si Si5 0.683542 0.457169 0.854857
Si Si6 0.915875 0.754900 0.373666
Si Si7 0.614592 0.018333 0.442558
Si Si8 0.750000 0.750000 0.721459
O O1 0.500000 0.234575 0.250000
O O2 0.394835 0.217095 0.213427
O O3 0.421670 0.215657 0.313646
O O4 0.442148 0.000000 0.250000
O O5 0.507959 0.215599 0.500000
O O6 0.475013 0.265786 0.597873
O O7 0.578443 0.160050 0.573127
O O8 0.500000 0.000000 0.566862
O O9 0.687648 0.882730 0.853315
O O10 0.675792 0.614564 0.828018
O O11 0.705622 0.818159 0.759988
O O12 0.250000 0.750000 0.417689
O O13 0.271515 0.482897 0.398792
O O14 0.177183 0.554431 0.445374
O O15 0.627466 0.386609 0.874781
O O16 0.713837 0.354883 0.813700
O O17 0.891953 0.615721 0.403914
O O18 0.595114 0.976418 0.500000
#
# Coordination Sequence:
#
# PCOD9498284 Si02
#       8
#    16  16  16  16  16  16  16   8
#     4  11  26  37  55  90 123 160 197 256 304 351
#     4   8  17  34  60  87 111 146 192 246 303 360
#     4  11  23  38  59  83 125 164 209 242 298 368
#     4  10  22  38  59  84 117 159 206 251 303 367
#     4  11  23  38  56  92 120 167 206 249 301 364
#     4  11  21  36  59  86 122 153 193 248 306 367
#     4  10  21  39  65  90 116 152 201 261 316 368
#     4  12  20  34  60  80 118 158 212 248 278 354
#
# _framework density 20.494903000000001
#
# number of rings (size 3 to 8) (size 9 to 14) (size 15 to 20)
#    0.000    1.600    3.333    3.200    9.333    0.267 
#    0.000    3.333    0.000    1.600    0.000    7.467 
#    0.000    0.000    0.000    0.000    0.000    0.000 
#
# Total GULP energy -334573.694084 kJ/mol
# GULP energy per Si atom -5576.228235 kJ/mol
# Density = 2.044826 g / cm^3
# Si number density = 20.494903 Si / 1000 Ang^3
#
#
#
# Elastic Constant Matrix: (Units=GPa)
#
#
# Indices 1 2 3 4 5 6 
#
# 1 130.4711 31.4783 25.6518 0.0000 0.0000 0.0000
# 2 31.4783 34.2554 28.9820 0.0000 0.0000 0.0000
# 3 25.6518 28.9820 54.4424 0.0000 0.0000 0.0000
# 4 0.0000 0.0000 0.0000 3.5665 0.0000 0.0000
# 5 0.0000 0.0000 0.0000 0.0000 41.5020 0.0000
# 6 0.0000 0.0000 0.0000 0.0000 0.0000 32.1108
#
#
#
# Elastic Compliance Matrix: (Units=1/GPa)
#
#
# Indices 1 2 3 4 5 6 
#
# 1 0.009851 -0.009325 0.000323 0.000000 0.000000 0.000000
# 2 -0.009325 0.061943 -0.028581 0.000000 0.000000 0.000000
# 3 0.000323 -0.028581 0.033431 0.000000 0.000000 0.000000
# 4 0.000000 0.000000 0.000000 0.280387 0.000000 0.000000
# 5 0.000000 0.000000 0.000000 0.000000 0.024095 0.000000
# 6 0.000000 0.000000 0.000000 0.000000 0.000000 0.031142
#
#
# Mechanical properties :
#
#
# Convention : Reuss Voigt Hill
#
# Bulk Modulus (GPa) = 33.26953 43.48812 38.37883
# Shear Modulus (GPa) = 9.50506 24.30632 16.90569
#
# Velocity S-wave (km/s) = 2.15588 3.44753 2.87518
# Velocity P-wave (km/s) = 4.73977 6.09199 5.45792
#
# Compressibility (1/GPa) = 0.03005753
#
# Stress axis : x y z
#
# Youngs Moduli (GPa) = 101.51267 16.14386 29.91253
#
# Poissons Ratio (x) = 0.15055 -0.00966
# Poissons Ratio (y) = 0.94665 0.85493
# Poissons Ratio (z) = -0.03277 0.46141
#
# Static dielectric constant tensor:
#      x y z
#    x 1.829980 0.000000 0.000000 
#    y 0.000000 1.713730 0.000000 
#    z 0.000000 0.000000 1.761280 
# 
# From -- ./inp_files/66327.got.cif
#   From: 2010.05.17/outbox.cif.g08.bks.cpg/sg66_34_cif.got.tgz:66327.got - 2010.06.03 17:51:23.
