data_PCOD9498545
_publ_section_title
;
Structure prediction by ZEFSAII (Michael W. Deem and Ramdas Pophale) SiO2 
 PCOD9498545
Probable space group: C C C M
;
_chemical_formula_sum "Si O2"
_cell_formula_units_Z 116
_cell_length_a 24.049316
_cell_length_b 9.211805
_cell_length_c 25.524598
_cell_angle_alpha 90.000000
_cell_angle_beta 90.000000
_cell_angle_gamma 90.000000
_cell_volume 5654.658421
_symmetry_space_group_name_H-M "C C C M"
_symmetry_group_IT_number 66
_symmetry_cell_setting 'orthorhombic'
loop_
_space_group_symop_operation_xyz
x,y,z
-x,-y,z
x,-y,1/2-z
-x,y,1/2-z
-x,-y,-z
x,y,-z
-x,y,1/2+z
x,-y,1/2+z
1/2+x,1/2+y,z
1/2-x,1/2-y,z
1/2+x,1/2-y,1/2-z
1/2-x,1/2+y,1/2-z
1/2-x,1/2-y,-z
1/2+x,1/2+y,-z
1/2-x,1/2+y,1/2+z
1/2+x,1/2-y,1/2+z
loop_
_atom_site_type_symbol
_atom_site_label
_atom_site_fract_x
_atom_site_fract_y
_atom_site_fract_z
Si Si1 0.000000 0.500000 0.000000
Si Si2 0.876822 0.812407 0.440216
Si Si3 0.005385 0.764076 0.419829
Si Si4 0.875259 0.136552 0.560830
Si Si5 0.186330 0.307621 0.148598
Si Si6 0.351667 0.863322 0.159401
Si Si7 0.478666 0.162861 0.694316
Si Si8 0.307995 0.671947 0.750687
O O1 0.015506 0.381208 0.953650
O O2 0.861225 0.779922 0.500000
O O3 0.856821 0.691437 0.399907
O O4 0.943976 0.812977 0.437116
O O5 0.855762 0.973130 0.425645
O O6 0.058195 0.861873 0.432336
O O7 0.001643 0.742219 0.357246
O O8 0.862238 0.163605 0.500000
O O9 0.848531 0.256176 0.598376
O O10 0.250000 0.250000 0.139303
O O11 0.178510 0.479962 0.159982
O O12 0.159198 0.227496 0.199469
O O13 0.412810 0.859549 0.185655
O O14 0.323379 0.738416 0.193761
O O15 0.500000 0.226256 0.750000
O O16 0.500000 0.000000 0.692717
O O17 0.305117 0.500000 0.750000
O O18 0.250000 0.750000 0.740067
#
# Coordination Sequence:
#
# PCOD9498545 Si02
#       8
#     4  16  16  16  16  16  16  16
#     4  12  20  32  56 100 122 162 230 262 322 384
#     4  10  22  40  60  92 131 168 217 260 322 394
#     4  11  21  35  60  88 131 166 217 264 315 392
#     4  11  23  39  64  90 125 176 214 271 329 378
#     4  11  25  42  65  94 125 163 216 272 323 382
#     4  11  24  40  67  96 125 172 212 265 330 378
#     4  10  22  35  55  91 127 168 201 257 317 380
#     4  11  23  43  68  94 125 163 215 268 320 383
#
# _framework density 20.514060000000001
#
# number of rings (size 3 to 8) (size 9 to 14) (size 15 to 20)
#    0.000    1.241    2.069    4.138    7.724    1.931 
#    0.000    0.000    0.000    2.069    0.000    0.000 
#    0.000    0.000    0.000    0.000    0.000    0.000 
#
# Total GULP energy -322953.525421 kJ/mol
# GULP energy per Si atom -5568.164231 kJ/mol
# Density = 2.046737 g / cm^3
# Si number density = 20.514060 Si / 1000 Ang^3
#
#
#
# Elastic Constant Matrix: (Units=GPa)
#
#
# Indices 1 2 3 4 5 6 
#
# 1 28.4269 19.1712 18.2389 0.0000 0.0000 0.0000
# 2 19.1712 139.9182 57.4709 0.0000 0.0000 0.0000
# 3 18.2389 57.4709 126.3395 0.0000 0.0000 0.0000
# 4 0.0000 0.0000 0.0000 36.1068 0.0000 0.0000
# 5 0.0000 0.0000 0.0000 0.0000 11.1012 0.0000
# 6 0.0000 0.0000 0.0000 0.0000 0.0000 14.9747
#
#
#
# Elastic Compliance Matrix: (Units=1/GPa)
#
#
# Indices 1 2 3 4 5 6 
#
# 1 0.040397 -0.003861 -0.004075 0.000000 0.000000 0.000000
# 2 -0.003861 0.009158 -0.003609 0.000000 0.000000 0.000000
# 3 -0.004075 -0.003609 0.010145 0.000000 0.000000 0.000000
# 4 0.000000 0.000000 0.000000 0.027696 0.000000 0.000000
# 5 0.000000 0.000000 0.000000 0.000000 0.090080 0.000000
# 6 0.000000 0.000000 0.000000 0.000000 0.000000 0.066779
#
#
# Mechanical properties :
#
#
# Convention : Reuss Voigt Hill
#
# Bulk Modulus (GPa) = 27.31516 53.82738 40.57127
# Shear Modulus (GPa) = 17.88600 25.75681 21.82140
#
# Velocity S-wave (km/s) = 2.95598 3.54724 3.26502
# Velocity P-wave (km/s) = 4.99947 6.56304 5.83387
#
# Compressibility (1/GPa) = 0.03660971
#
# Stress axis : x y z
#
# Youngs Moduli (GPa) = 24.75455 109.19058 98.56996
#
# Poissons Ratio (x) = 0.42159 0.40172
# Poissons Ratio (y) = 0.09558 0.35570
# Poissons Ratio (z) = 0.10089 0.39403
#
# Static dielectric constant tensor:
#      x y z
#    x 1.492680 0.000000 0.000000 
#    y 0.000000 1.736940 0.000000 
#    z 0.000000 0.000000 1.800410 
# 
# From -- ./inp_files/60219.got.cif
#   From: 2010.05.17/outbox.cif.g08.bks.cpg/sg66_31_cif.got.tgz:60219.got - 2010.06.03 17:51:23.
