data_PCOD9498877
_publ_section_title
;
Structure prediction by ZEFSAII (Michael W. Deem and Ramdas Pophale) SiO2 
 PCOD9498877
Probable space group: C C C M
;
_chemical_formula_sum "Si O2"
_cell_formula_units_Z 80
_cell_length_a 4.946663
_cell_length_b 25.240765
_cell_length_c 30.555877
_cell_angle_alpha 90.000000
_cell_angle_beta 90.000000
_cell_angle_gamma 90.000000
_cell_volume 3815.132194
_symmetry_space_group_name_H-M "C C C M"
_symmetry_group_IT_number 66
_symmetry_cell_setting 'orthorhombic'
loop_
_space_group_symop_operation_xyz
x,y,z
-x,-y,z
x,-y,1/2-z
-x,y,1/2-z
-x,-y,-z
x,y,-z
-x,y,1/2+z
x,-y,1/2+z
1/2+x,1/2+y,z
1/2-x,1/2-y,z
1/2+x,1/2-y,1/2-z
1/2-x,1/2+y,1/2-z
1/2-x,1/2-y,-z
1/2+x,1/2+y,-z
1/2-x,1/2+y,1/2+z
1/2+x,1/2-y,1/2+z
loop_
_atom_site_type_symbol
_atom_site_label
_atom_site_fract_x
_atom_site_fract_y
_atom_site_fract_z
Si Si1 0.983624 0.716691 0.915355
Si Si2 0.878245 0.942932 0.400565
Si Si3 0.872819 0.342560 0.500000
Si Si4 0.389282 0.883077 0.635365
Si Si5 0.371614 0.585719 0.000000
Si Si6 0.249027 0.311943 0.782274
O O1 0.750000 0.750000 0.892391
O O2 0.048439 0.665590 0.887075
O O3 0.250000 0.750000 0.924700
O O4 0.838691 0.693300 0.957968
O O5 0.613926 0.929016 0.371526
O O6 0.815980 0.941948 0.453139
O O7 0.120744 0.901467 0.390533
O O8 0.000000 0.000000 0.389525
O O9 0.677793 0.393004 0.500000
O O10 0.179292 0.363077 0.500000
O O11 0.287130 0.856945 0.680628
O O12 0.500000 0.320491 0.750000
O O13 0.250000 0.250000 0.797786
O O14 0.000000 0.316303 0.750000
#
# Coordination Sequence:
#
# PCOD9498877 Si02
#       6
#    16  16   8  16   8  16
#     4  12  23  37  58  88 129 177 215 262 327 392
#     4  12  25  43  67  93 128 176 229 285 330 375
#     4  12  22  39  57  83 132 175 221 271 316 388
#     4  12  24  43  66  96 132 165 219 276 326 390
#     4  12  21  43  62  87 126 179 234 283 331 364
#     4  10  22  42  70 102 134 168 205 251 322 407
#
# _framework density 20.96913
#
# number of rings (size 3 to 8) (size 9 to 14) (size 15 to 20)
#    0.000    0.400    4.000    5.700    0.000    2.400 
#    0.000    3.000    0.000    9.000    0.000    0.000 
#    0.000    0.000    0.000    0.000    0.000    0.000 
#
# Total GULP energy -223284.991275 kJ/mol
# GULP energy per Si atom -5582.124782 kJ/mol
# Density = 2.092140 g / cm^3
# Si number density = 20.969130 Si / 1000 Ang^3
#
#
#
# Elastic Constant Matrix: (Units=GPa)
#
#
# Indices 1 2 3 4 5 6 
#
# 1 116.0301 23.1006 34.9349 0.0000 0.0000 0.0000
# 2 23.1006 81.3493 41.3315 0.0000 0.0000 0.0000
# 3 34.9349 41.3315 130.1319 0.0000 0.0000 0.0000
# 4 0.0000 0.0000 0.0000 -1.0777 0.0000 0.0000
# 5 0.0000 0.0000 0.0000 0.0000 165.5619 0.0000
# 6 0.0000 0.0000 0.0000 0.0000 0.0000 38.9501
#
#
#
# Elastic Compliance Matrix: (Units=1/GPa)
#
#
# Indices 1 2 3 4 5 6 
#
# 1 0.009566 -0.001683 -0.002033 0.000000 0.000000 0.000000
# 2 -0.001683 0.014954 -0.004298 0.000000 0.000000 0.000000
# 3 -0.002033 -0.004298 0.009595 0.000000 0.000000 0.000000
# 4 0.000000 0.000000 0.000000 -0.927931 0.000000 0.000000
# 5 0.000000 0.000000 0.000000 0.000000 0.006040 0.000000
# 6 0.000000 0.000000 0.000000 0.000000 0.000000 0.025674
#
#
# Mechanical properties :
#
#
# Convention : Reuss Voigt Hill
#
# Bulk Modulus (GPa) = 55.28949 58.47168 56.88059
# Shear Modulus (GPa) = -5.95207 55.89650 24.97222
#
# Velocity S-wave (km/s) = -1.68661 5.16860 3.45469
# Velocity P-wave (km/s) = 4.75725 7.97273 6.56490
#
# Compressibility (1/GPa) = 0.01808662
#
# Stress axis : x y z
#
# Youngs Moduli (GPa) = 104.53915 66.87069 104.21648
#
# Poissons Ratio (x) = 0.11256 0.21191
# Poissons Ratio (y) = 0.17597 0.44790
# Poissons Ratio (z) = 0.21257 0.28739
#
# Static dielectric constant tensor:
#      x y z
#    x 1.754100 0.000000 0.000000 
#    y 0.000000 1.753760 0.000000 
#    z 0.000000 0.000000 1.774960 
# 
# From -- ./inp_files/67238.got.cif
#   From: 2010.05.17/outbox.cif.g08.bks.cpg/sg66_34_cif.got.tgz:67238.got - 2010.06.03 17:51:23.
