data_PCOD9498956
_publ_section_title
;
Structure prediction by ZEFSAII (Michael W. Deem and Ramdas Pophale) SiO2 
 PCOD9498956
Probable space group: C C C M
;
_chemical_formula_sum "Si O2"
_cell_formula_units_Z 108
_cell_length_a 27.416796
_cell_length_b 14.088957
_cell_length_c 14.272086
_cell_angle_alpha 90.000000
_cell_angle_beta 90.000000
_cell_angle_gamma 90.000000
_cell_volume 5512.936603
_symmetry_space_group_name_H-M "C C C M"
_symmetry_group_IT_number 66
_symmetry_cell_setting 'orthorhombic'
loop_
_space_group_symop_operation_xyz
x,y,z
-x,-y,z
x,-y,1/2-z
-x,y,1/2-z
-x,-y,-z
x,y,-z
-x,y,1/2+z
x,-y,1/2+z
1/2+x,1/2+y,z
1/2-x,1/2-y,z
1/2+x,1/2-y,1/2-z
1/2-x,1/2+y,1/2-z
1/2-x,1/2-y,-z
1/2+x,1/2+y,-z
1/2-x,1/2+y,1/2+z
1/2+x,1/2-y,1/2+z
loop_
_atom_site_type_symbol
_atom_site_label
_atom_site_fract_x
_atom_site_fract_y
_atom_site_fract_z
Si Si1 0.960017 0.847138 0.108255
Si Si2 0.063453 0.471656 0.500000
Si Si3 0.500000 0.500000 0.250000
Si Si4 0.120919 0.250493 0.777320
Si Si5 0.218296 0.844939 0.226287
Si Si6 0.969525 0.327256 0.839401
Si Si7 0.138749 0.548811 0.348842
Si Si8 0.750880 0.481203 0.393200
O O1 0.909553 0.802658 0.142978
O O2 0.000483 0.764371 0.123375
O O3 0.959712 0.876071 0.000000
O O4 0.970485 0.931827 0.180346
O O5 0.036793 0.405688 0.581445
O O6 0.095065 0.527894 0.418933
O O7 0.162131 0.185398 0.732451
O O8 0.082263 0.289586 0.700503
O O9 0.145169 0.340832 0.826580
O O10 0.250000 0.750000 0.214117
O O11 0.233843 0.899377 0.321640
O O12 0.228664 0.920506 0.144649
O O13 0.000000 0.363673 0.750000
O O14 0.127950 0.500000 0.250000
O O15 0.190392 0.509988 0.385500
O O16 0.737332 0.461424 0.500000
#
# Coordination Sequence:
#
# PCOD9498956 Si02
#       8
#    16   8   4  16  16  16  16  16
#     4  11  24  44  70  99 130 176 231 285 356 416
#     4  12  24  40  77 101 132 185 231 268 345 424
#     4  12  22  44  72  94 130 180 218 296 344 406
#     4  11  23  44  67  95 139 179 230 285 346 412
#     4  11  23  43  69  93 137 187 223 287 352 408
#     4  10  22  46  69  99 143 174 219 289 350 413
#     4  12  22  40  67 102 138 182 224 278 346 414
#     4  11  24  43  65 101 140 174 237 288 343 421
#
# _framework density 19.590284
#
# number of rings (size 3 to 8) (size 9 to 14) (size 15 to 20)
#    0.000    0.889    8.148    0.222    1.037    2.370 
#    1.333    8.148    0.000    0.000    0.000    0.000 
#    0.000    0.000    0.000    0.000    0.000    0.000 
#
# Total GULP energy -300817.858090 kJ/mol
# GULP energy per Si atom -5570.701076 kJ/mol
# Density = 1.954570 g / cm^3
# Si number density = 19.590284 Si / 1000 Ang^3
#
#
#
# Elastic Constant Matrix: (Units=GPa)
#
#
# Indices 1 2 3 4 5 6 
#
# 1 68.1543 9.7024 -5.3906 0.0000 0.0000 0.0000
# 2 9.7024 69.1818 -1.9890 0.0000 0.0000 0.0000
# 3 -5.3906 -1.9890 104.9587 0.0000 0.0000 0.0000
# 4 0.0000 0.0000 0.0000 193.7027 0.0000 0.0000
# 5 0.0000 0.0000 0.0000 0.0000 31.4890 0.0000
# 6 0.0000 0.0000 0.0000 0.0000 0.0000 -3.7337
#
#
#
# Elastic Compliance Matrix: (Units=1/GPa)
#
#
# Indices 1 2 3 4 5 6 
#
# 1 0.015028 -0.002086 0.000732 0.000000 0.000000 0.000000
# 2 -0.002086 0.014752 0.000172 0.000000 0.000000 0.000000
# 3 0.000732 0.000172 0.009568 0.000000 0.000000 0.000000
# 4 0.000000 0.000000 0.000000 0.005163 0.000000 0.000000
# 5 0.000000 0.000000 0.000000 0.000000 0.031757 0.000000
# 6 0.000000 0.000000 0.000000 0.000000 0.000000 -0.267830
#
#
# Mechanical properties :
#
#
# Convention : Reuss Voigt Hill
#
# Bulk Modulus (GPa) = 27.03832 27.43784 27.23808
# Shear Modulus (GPa) = -28.26923 60.28973 16.01025
#
# Velocity S-wave (km/s) = -3.80284 5.55357 2.86187
# Velocity P-wave (km/s) = 2.33457 7.42692 4.98542
#
# Compressibility (1/GPa) = 0.03698455
#
# Stress axis : x y z
#
# Youngs Moduli (GPa) = 66.54449 67.78625 104.51036
#
# Poissons Ratio (x) = 0.14144 -0.07653
# Poissons Ratio (y) = 0.13884 -0.01802
# Poissons Ratio (z) = -0.04873 -0.01169
#
# Static dielectric constant tensor:
#      x y z
#    x 1.718990 0.000000 0.000000 
#    y 0.000000 1.720810 0.000000 
#    z 0.000000 0.000000 1.656540 
# 
# From -- ./inp_files/32547.got.cif
#   From: 2010.05.17/outbox.cif.g08.bks.cpg/sg66_17_cif.got.tgz:32547.got - 2010.06.03 17:51:23.
