data_PCOD9498072
_publ_section_title
;
Structure prediction by ZEFSAII (Michael W. Deem and Ramdas Pophale) SiO2 
 PCOD9498072
Probable space group: C C C M
;
_chemical_formula_sum "Si O2"
_cell_formula_units_Z 96
_cell_length_a 29.548772
_cell_length_b 20.660503
_cell_length_c 8.646784
_cell_angle_alpha 90.000000
_cell_angle_beta 90.000000
_cell_angle_gamma 90.000000
_cell_volume 5278.796717
_symmetry_space_group_name_H-M "C C C M"
_symmetry_group_IT_number 66
_symmetry_cell_setting 'orthorhombic'
loop_
_space_group_symop_operation_xyz
x,y,z
-x,-y,z
x,-y,1/2-z
-x,y,1/2-z
-x,-y,-z
x,y,-z
-x,y,1/2+z
x,-y,1/2+z
1/2+x,1/2+y,z
1/2-x,1/2-y,z
1/2+x,1/2-y,1/2-z
1/2-x,1/2+y,1/2-z
1/2-x,1/2-y,-z
1/2+x,1/2+y,-z
1/2-x,1/2+y,1/2+z
1/2+x,1/2-y,1/2+z
loop_
_atom_site_type_symbol
_atom_site_label
_atom_site_fract_x
_atom_site_fract_y
_atom_site_fract_z
Si Si1 0.550308 0.329295 0.813965
Si Si2 0.311980 0.198990 0.683320
Si Si3 0.590185 0.195617 0.318280
Si Si4 0.718237 0.348843 0.181855
Si Si5 0.050504 0.565032 0.183258
Si Si6 0.131089 0.072547 0.687761
O O1 0.500000 0.342692 0.750000
O O2 0.567750 0.259886 0.753459
O O3 0.588126 0.382658 0.767851
O O4 0.548548 0.327526 0.000000
O O5 0.320766 0.185212 0.500000
O O6 0.356610 0.194316 0.783469
O O7 0.298069 0.274502 0.690198
O O8 0.269932 0.154926 0.740323
O O9 0.580497 0.194420 0.500000
O O10 0.572025 0.131376 0.237856
O O11 0.678262 0.394389 0.244416
O O12 0.722292 0.364824 0.000000
O O13 0.073217 0.500000 0.250000
O O14 0.000000 0.566218 0.250000
O O15 0.049299 0.560785 0.000000
O O16 0.132133 0.071750 0.500000
O O17 0.126850 0.000000 0.750000
#
# Coordination Sequence:
#
# PCOD9498072 Si02
#       6
#    16  16  16  16  16  16
#     4  11  23  40  60  83 114 150 197 248 298 349
#     4   9  16  32  59  84 109 144 187 232 282 337
#     4  12  23  36  56  87 121 153 191 236 289 342
#     4   8  15  32  58  83 107 143 189 231 280 343
#     4  11  22  39  60  83 113 150 191 232 281 340
#     4  10  21  38  59  83 114 153 195 240 295 355
#
# _framework density 18.185962
#
# number of rings (size 3 to 8) (size 9 to 14) (size 15 to 20)
#    0.000    1.833    1.667    5.500    0.000    1.667 
#    0.000    5.000    0.000    2.000    0.000    0.000 
#    0.000    0.000    0.000    0.000    0.000    0.000 
#
# Total GULP energy -267714.759637 kJ/mol
# GULP energy per Si atom -5577.390826 kJ/mol
# Density = 1.814457 g / cm^3
# Si number density = 18.185962 Si / 1000 Ang^3
#
#
#
# Elastic Constant Matrix: (Units=GPa)
#
#
# Indices 1 2 3 4 5 6 
#
# 1 85.2917 40.8843 17.7162 0.0000 0.0000 0.0000
# 2 40.8843 119.1773 30.1681 0.0000 0.0000 0.0000
# 3 17.7162 30.1681 75.9538 0.0000 0.0000 0.0000
# 4 0.0000 0.0000 0.0000 28.8347 0.0000 0.0000
# 5 0.0000 0.0000 0.0000 0.0000 30.2332 0.0000
# 6 0.0000 0.0000 0.0000 0.0000 0.0000 -55.6587
#
#
#
# Elastic Compliance Matrix: (Units=1/GPa)
#
#
# Indices 1 2 3 4 5 6 
#
# 1 0.014190 -0.004481 -0.001530 0.000000 0.000000 0.000000
# 2 -0.004481 0.010744 -0.003222 0.000000 0.000000 0.000000
# 3 -0.001530 -0.003222 0.014803 0.000000 0.000000 0.000000
# 4 0.000000 0.000000 0.000000 0.034680 0.000000 0.000000
# 5 0.000000 0.000000 0.000000 0.000000 0.033076 0.000000
# 6 0.000000 0.000000 0.000000 0.000000 0.000000 -0.017967
#
#
# Mechanical properties :
#
#
# Convention : Reuss Voigt Hill
#
# Bulk Modulus (GPa) = 47.01365 50.88441 48.94903
# Shear Modulus (GPa) = 43.44714 13.45879 28.45296
#
# Velocity S-wave (km/s) = 4.89309 2.72336 3.95974
# Velocity P-wave (km/s) = 7.60466 6.15871 6.91956
#
# Compressibility (1/GPa) = 0.02127042
#
# Stress axis : x y z
#
# Youngs Moduli (GPa) = 70.47180 93.07867 67.55563
#
# Poissons Ratio (x) = 0.41705 0.10337
# Poissons Ratio (y) = 0.31576 0.21767
# Poissons Ratio (z) = 0.10783 0.29991
#
# Static dielectric constant tensor:
#      x y z
#    x 1.627070 0.000000 0.000000 
#    y 0.000000 1.648100 0.000000 
#    z 0.000000 0.000000 1.620290 
# 
# From -- ./inp_files/10252.got.cif
#   From: 2010.05.17/outbox.cif.g08.bks.cpg/sg66_6_cif.got.tgz:10252.got - 2010.06.03 17:51:23.
