data_PCOD9498415
_publ_section_title
;
Structure prediction by ZEFSAII (Michael W. Deem and Ramdas Pophale) SiO2 
 PCOD9498415
Probable space group: C C C M
;
_chemical_formula_sum "Si O2"
_cell_formula_units_Z 104
_cell_length_a 25.467767
_cell_length_b 9.520426
_cell_length_c 19.728010
_cell_angle_alpha 90.000000
_cell_angle_beta 90.000000
_cell_angle_gamma 90.000000
_cell_volume 4783.332041
_symmetry_space_group_name_H-M "C C C M"
_symmetry_group_IT_number 66
_symmetry_cell_setting 'orthorhombic'
loop_
_space_group_symop_operation_xyz
x,y,z
-x,-y,z
x,-y,1/2-z
-x,y,1/2-z
-x,-y,-z
x,y,-z
-x,y,1/2+z
x,-y,1/2+z
1/2+x,1/2+y,z
1/2-x,1/2-y,z
1/2+x,1/2-y,1/2-z
1/2-x,1/2+y,1/2-z
1/2-x,1/2-y,-z
1/2+x,1/2+y,-z
1/2-x,1/2+y,1/2+z
1/2+x,1/2-y,1/2+z
loop_
_atom_site_type_symbol
_atom_site_label
_atom_site_fract_x
_atom_site_fract_y
_atom_site_fract_z
Si Si1 0.439175 0.483428 0.330946
Si Si2 0.706895 0.371586 0.924763
Si Si3 0.619567 0.213800 0.840814
Si Si4 0.441777 0.013136 0.920940
Si Si5 0.779174 0.619551 0.871532
Si Si6 0.379747 0.707661 0.422504
Si Si7 0.159656 0.500000 0.750000
O O1 0.500000 0.500000 0.350174
O O2 0.432515 0.500000 0.250000
O O3 0.427412 0.321480 0.343854
O O4 0.398129 0.584249 0.371459
O O5 0.750000 0.250000 0.928374
O O6 0.667472 0.308808 0.868589
O O7 0.737506 0.518311 0.909788
O O8 0.682017 0.380229 0.000000
O O9 0.602368 0.084032 0.887513
O O10 0.628365 0.141962 0.767482
O O11 0.500000 0.000000 0.890812
O O12 0.423773 0.172893 0.915437
O O13 0.444167 0.973553 0.000000
O O14 0.750000 0.750000 0.836653
O O15 0.825521 0.702913 0.911291
O O16 0.805103 0.522908 0.815355
O O17 0.379373 0.656132 0.500000
#
# Coordination Sequence:
#
# PCOD9498415 Si02
#       7
#    16  16  16  16  16  16   8
#     4  11  26  46  68  99 140 182 227 285 352 415
#     4  11  23  43  69 100 134 174 222 276 343 403
#     4  12  24  43  69  96 133 176 225 282 328 412
#     4  10  21  40  68  99 131 169 218 279 340 398
#     4  12  26  42  65  95 136 180 223 284 333 406
#     4  11  23  45  70 101 140 178 230 288 344 408
#     4  12  26  44  65  96 134 182 237 266 340 400
#
# _framework density 21.742166000000001
#
# number of rings (size 3 to 8) (size 9 to 14) (size 15 to 20)
#    0.000    0.769    3.077    3.692    2.154    6.462 
#    1.385    0.000    0.000    0.000    0.000    0.000 
#    0.000    0.000    0.000    0.000    0.000    0.000 
#
# Total GULP energy -290106.747432 kJ/mol
# GULP energy per Si atom -5578.975912 kJ/mol
# Density = 2.169268 g / cm^3
# Si number density = 21.742166 Si / 1000 Ang^3
#
#
#
# Elastic Constant Matrix: (Units=GPa)
#
#
# Indices 1 2 3 4 5 6 
#
# 1 80.6278 34.5580 14.0808 0.0000 0.0000 0.0000
# 2 34.5580 112.7810 23.0707 0.0000 0.0000 0.0000
# 3 14.0808 23.0707 67.8889 0.0000 0.0000 0.0000
# 4 0.0000 0.0000 0.0000 26.0927 0.0000 0.0000
# 5 0.0000 0.0000 0.0000 0.0000 -513.6661 0.0000
# 6 0.0000 0.0000 0.0000 0.0000 0.0000 47.2356
#
#
#
# Elastic Compliance Matrix: (Units=1/GPa)
#
#
# Indices 1 2 3 4 5 6 
#
# 1 0.014438 -0.004096 -0.001603 0.000000 0.000000 0.000000
# 2 -0.004096 0.010691 -0.002784 0.000000 0.000000 0.000000
# 3 -0.001603 -0.002784 0.016008 0.000000 0.000000 0.000000
# 4 0.000000 0.000000 0.000000 0.038325 0.000000 0.000000
# 5 0.000000 0.000000 0.000000 0.000000 -0.001947 0.000000
# 6 0.000000 0.000000 0.000000 0.000000 0.000000 0.021170
#
#
# Mechanical properties :
#
#
# Convention : Reuss Voigt Hill
#
# Bulk Modulus (GPa) = 41.36868 44.96853 43.16861
# Shear Modulus (GPa) = 40.41739 -75.42835 -17.50548
#
# Velocity S-wave (km/s) = 4.31622 -5.89640 -2.84058
# Velocity P-wave (km/s) = 6.62631 5.06252 3.02314
#
# Compressibility (1/GPa) = 0.02417288
#
# Stress axis : x y z
#
# Youngs Moduli (GPa) = 69.26038 93.53362 62.46761
#
# Poissons Ratio (x) = 0.38314 0.10011
# Poissons Ratio (y) = 0.28371 0.17389
# Poissons Ratio (z) = 0.11100 0.26036
#
# Static dielectric constant tensor:
#      x y z
#    x 1.847170 0.000000 0.000000 
#    y 0.000000 1.942450 0.000000 
#    z 0.000000 0.000000 1.842200 
# 
# From -- ./inp_files/53041.got.cif
#   From: 2010.05.17/outbox.cif.g08.bks.cpg/sg66_27_cif.got.tgz:53041.got - 2010.06.03 17:51:23.
