data_PCOD9498035
_publ_section_title
;
Structure prediction by ZEFSAII (Michael W. Deem and Ramdas Pophale) SiO2 
 PCOD9498035
Probable space group: C C C M
;
_chemical_formula_sum "Si O2"
_cell_formula_units_Z 80
_cell_length_a 8.466700
_cell_length_b 17.555674
_cell_length_c 26.747805
_cell_angle_alpha 90.000000
_cell_angle_beta 90.000000
_cell_angle_gamma 90.000000
_cell_volume 3975.756958
_symmetry_space_group_name_H-M "C C C M"
_symmetry_group_IT_number 66
_symmetry_cell_setting 'orthorhombic'
loop_
_space_group_symop_operation_xyz
x,y,z
-x,-y,z
x,-y,1/2-z
-x,y,1/2-z
-x,-y,-z
x,y,-z
-x,y,1/2+z
x,-y,1/2+z
1/2+x,1/2+y,z
1/2-x,1/2-y,z
1/2+x,1/2-y,1/2-z
1/2-x,1/2+y,1/2-z
1/2-x,1/2-y,-z
1/2+x,1/2+y,-z
1/2-x,1/2+y,1/2+z
1/2+x,1/2-y,1/2+z
loop_
_atom_site_type_symbol
_atom_site_label
_atom_site_fract_x
_atom_site_fract_y
_atom_site_fract_z
Si Si1 0.812685 0.990115 0.394544
Si Si2 0.590458 0.791944 0.202896
Si Si3 0.830351 0.541992 0.794608
Si Si4 0.311948 0.007761 0.500000
Si Si5 0.361307 0.175557 0.390233
Si Si6 0.863450 0.322975 0.000000
O O1 0.751702 0.021859 0.447603
O O2 0.739757 0.903802 0.387299
O O3 0.748950 0.037577 0.347982
O O4 0.000000 0.000000 0.394804
O O5 0.500000 0.753475 0.250000
O O6 0.750000 0.750000 0.187093
O O7 0.647893 0.872896 0.223285
O O8 0.478385 0.812502 0.156168
O O9 0.740104 0.500000 0.750000
O O10 0.000000 0.500000 0.800366
O O11 0.267215 0.097687 0.500000
O O12 0.500000 0.000000 0.500000
O O13 0.250000 0.250000 0.389563
O O14 0.444550 0.175387 0.445368
O O15 0.750000 0.250000 0.000000
#
# Coordination Sequence:
#
# PCOD9498035 Si02
#       6
#    16  16  16   8  16   8
#     4  11  23  38  64  95 129 167 214 265 321 385
#     4  12  25  42  65  92 126 166 219 270 326 387
#     4  11  21  43  65  87 124 169 210 266 328 384
#     4  10  21  37  64  95 126 167 215 266 313 372
#     4  10  21  40  62  89 127 167 209 261 319 384
#     4   8  18  37  61  85 122 169 204 250 314 370
#
# _framework density 20.121953999999999
#
# number of rings (size 3 to 8) (size 9 to 14) (size 15 to 20)
#    0.000    1.400    4.000    1.500    5.600    0.400 
#    0.000    0.500    0.000    0.000    0.000    0.000 
#    0.000    0.000    0.000    0.000    0.000    0.000 
#
# Total GULP energy -222876.269311 kJ/mol
# GULP energy per Si atom -5571.906733 kJ/mol
# Density = 2.007616 g / cm^3
# Si number density = 20.121954 Si / 1000 Ang^3
#
#
#
# Elastic Constant Matrix: (Units=GPa)
#
#
# Indices 1 2 3 4 5 6 
#
# 1 104.3599 7.7382 52.1223 0.0000 0.0000 0.0000
# 2 7.7382 54.3545 -11.6622 0.0000 0.0000 0.0000
# 3 52.1223 -11.6622 173.0291 0.0000 0.0000 0.0000
# 4 0.0000 0.0000 0.0000 23.7708 0.0000 0.0000
# 5 0.0000 0.0000 0.0000 0.0000 84.9785 0.0000
# 6 0.0000 0.0000 0.0000 0.0000 0.0000 22.7945
#
#
#
# Elastic Compliance Matrix: (Units=1/GPa)
#
#
# Indices 1 2 3 4 5 6 
#
# 1 0.011588 -0.002434 -0.003655 0.000000 0.000000 0.000000
# 2 -0.002434 0.019179 0.002026 0.000000 0.000000 0.000000
# 3 -0.003655 0.002026 0.007017 0.000000 0.000000 0.000000
# 4 0.000000 0.000000 0.000000 0.042068 0.000000 0.000000
# 5 0.000000 0.000000 0.000000 0.000000 0.011768 0.000000
# 6 0.000000 0.000000 0.000000 0.000000 0.000000 0.043870
#
#
# Mechanical properties :
#
#
# Convention : Reuss Voigt Hill
#
# Bulk Modulus (GPa) = 33.71754 47.57112 40.64433
# Shear Modulus (GPa) = 32.57289 45.21177 38.89233
#
# Velocity S-wave (km/s) = 4.02776 4.74528 4.40117
# Velocity P-wave (km/s) = 6.19867 7.32914 6.78748
#
# Compressibility (1/GPa) = 0.02965815
#
# Stress axis : x y z
#
# Youngs Moduli (GPa) = 86.29569 52.14067 142.51392
#
# Poissons Ratio (x) = 0.12690 0.52086
# Poissons Ratio (y) = 0.21003 -0.28871
# Poissons Ratio (z) = 0.31539 -0.10563
#
# Static dielectric constant tensor:
#      x y z
#    x 1.740740 0.000000 0.000000 
#    y 0.000000 1.747260 0.000000 
#    z 0.000000 0.000000 1.785620 
# 
# From -- ./inp_files/62476.got.cif
#   From: 2010.05.17/outbox.cif.g08.bks.cpg/sg66_32_cif.got.tgz:62476.got - 2010.06.03 17:51:23.
