data_PCOD9498487
_publ_section_title
;
Structure prediction by ZEFSAII (Michael W. Deem and Ramdas Pophale) SiO2 
 PCOD9498487
Probable space group: C C C M
;
_chemical_formula_sum "Si O2"
_cell_formula_units_Z 68
_cell_length_a 12.614928
_cell_length_b 27.648410
_cell_length_c 9.990573
_cell_angle_alpha 90.000000
_cell_angle_beta 90.000000
_cell_angle_gamma 90.000000
_cell_volume 3484.539040
_symmetry_space_group_name_H-M "C C C M"
_symmetry_group_IT_number 66
_symmetry_cell_setting 'orthorhombic'
loop_
_space_group_symop_operation_xyz
x,y,z
-x,-y,z
x,-y,1/2-z
-x,y,1/2-z
-x,-y,-z
x,y,-z
-x,y,1/2+z
x,-y,1/2+z
1/2+x,1/2+y,z
1/2-x,1/2-y,z
1/2+x,1/2-y,1/2-z
1/2-x,1/2+y,1/2-z
1/2-x,1/2-y,-z
1/2+x,1/2+y,-z
1/2-x,1/2+y,1/2+z
1/2+x,1/2-y,1/2+z
loop_
_atom_site_type_symbol
_atom_site_label
_atom_site_fract_x
_atom_site_fract_y
_atom_site_fract_z
Si Si1 0.633071 0.960065 0.000000
Si Si2 0.595757 0.146441 0.000000
Si Si3 0.000000 0.500000 0.750000
Si Si4 0.091195 0.883300 0.851192
Si Si5 0.253994 0.058651 0.500000
Si Si6 0.342856 0.850312 0.500000
Si Si7 0.738083 0.192856 0.773677
O O1 0.567720 0.968363 0.859009
O O2 0.683408 0.907254 0.000000
O O3 0.717132 0.003395 0.000000
O O4 0.639554 0.091241 0.000000
O O5 0.470604 0.149994 0.000000
O O6 0.648998 0.172542 0.126152
O O7 0.153255 0.834920 0.809770
O O8 0.000000 0.896681 0.750000
O O9 0.045259 0.876002 0.000000
O O10 0.182781 0.923551 0.874730
O O11 0.297060 0.823525 0.627937
O O12 0.750000 0.250000 0.786735
#
# Coordination Sequence:
#
# PCOD9498487 Si02
#       7
#     8   8   4  16   8   8  16
#     4  11  24  39  66  95 142 166 212 253 328 401
#     4  10  21  42  66  95 133 178 210 266 332 394
#     4  10  24  38  64 102 130 178 212 246 328 422
#     4   9  21  40  68  93 125 170 226 274 320 377
#     4   8  20  41  62  95 129 165 213 261 329 385
#     4  12  27  37  68 102 137 171 214 270 324 411
#     4  11  24  44  62  96 136 173 224 274 331 390
#
# _framework density 19.514776000000001
#
# number of rings (size 3 to 8) (size 9 to 14) (size 15 to 20)
#    0.706    1.176    1.176    2.824   11.529    1.882 
#    0.000    0.000    0.000    4.235    0.000    0.000 
#    0.000    0.000    0.000    0.000    0.000    0.000 
#
# Total GULP energy -189733.241770 kJ/mol
# GULP energy per Si atom -5580.389464 kJ/mol
# Density = 1.947036 g / cm^3
# Si number density = 19.514776 Si / 1000 Ang^3
#
#
#
# Elastic Constant Matrix: (Units=GPa)
#
#
# Indices 1 2 3 4 5 6 
#
# 1 60.1599 23.1829 30.5337 0.0000 0.0000 0.0000
# 2 23.1829 91.5654 2.2673 0.0000 0.0000 0.0000
# 3 30.5337 2.2673 134.6614 0.0000 0.0000 0.0000
# 4 0.0000 0.0000 0.0000 27.9595 0.0000 0.0000
# 5 0.0000 0.0000 0.0000 0.0000 21.5954 0.0000
# 6 0.0000 0.0000 0.0000 0.0000 0.0000 13.3582
#
#
#
# Elastic Compliance Matrix: (Units=1/GPa)
#
#
# Indices 1 2 3 4 5 6 
#
# 1 0.020999 -0.005201 -0.004674 0.000000 0.000000 0.000000
# 2 -0.005201 0.012214 0.000974 0.000000 0.000000 0.000000
# 3 -0.004674 0.000974 0.008469 0.000000 0.000000 0.000000
# 4 0.000000 0.000000 0.000000 0.035766 0.000000 0.000000
# 5 0.000000 0.000000 0.000000 0.000000 0.046306 0.000000
# 6 0.000000 0.000000 0.000000 0.000000 0.000000 0.074861
#
#
# Mechanical properties :
#
#
# Convention : Reuss Voigt Hill
#
# Bulk Modulus (GPa) = 41.87612 44.26159 43.06886
# Shear Modulus (GPa) = 22.28399 27.94281 25.11340
#
# Velocity S-wave (km/s) = 3.38287 3.78812 3.59122
# Velocity P-wave (km/s) = 6.06331 6.47020 6.27005
#
# Compressibility (1/GPa) = 0.02387996
#
# Stress axis : x y z
#
# Youngs Moduli (GPa) = 47.62219 81.87464 118.07231
#
# Poissons Ratio (x) = 0.42581 0.55184
# Poissons Ratio (y) = 0.24767 -0.11496
# Poissons Ratio (z) = 0.22257 -0.07971
#
# Static dielectric constant tensor:
#      x y z
#    x 1.679160 0.000000 0.000000 
#    y 0.000000 1.652950 0.000000 
#    z 0.000000 0.000000 1.687620 
# 
# From -- ./inp_files/5315.got.cif
#   From: 2010.05.17/outbox.cif.g08.bks.cpg/sg66_3_cif.got.tgz:5315.got - 2010.06.03 17:51:23.
