data_PCOD9498385
_publ_section_title
;
Structure prediction by ZEFSAII (Michael W. Deem and Ramdas Pophale) SiO2 
 PCOD9498385
Probable space group: C C C M
;
_chemical_formula_sum "Si O2"
_cell_formula_units_Z 68
_cell_length_a 26.714699
_cell_length_b 6.336138
_cell_length_c 19.790074
_cell_angle_alpha 90.000000
_cell_angle_beta 90.000000
_cell_angle_gamma 90.000000
_cell_volume 3349.826632
_symmetry_space_group_name_H-M "C C C M"
_symmetry_group_IT_number 66
_symmetry_cell_setting 'orthorhombic'
loop_
_space_group_symop_operation_xyz
x,y,z
-x,-y,z
x,-y,1/2-z
-x,y,1/2-z
-x,-y,-z
x,y,-z
-x,y,1/2+z
x,-y,1/2+z
1/2+x,1/2+y,z
1/2-x,1/2-y,z
1/2+x,1/2-y,1/2-z
1/2-x,1/2+y,1/2-z
1/2-x,1/2-y,-z
1/2+x,1/2+y,-z
1/2-x,1/2+y,1/2+z
1/2+x,1/2-y,1/2+z
loop_
_atom_site_type_symbol
_atom_site_label
_atom_site_fract_x
_atom_site_fract_y
_atom_site_fract_z
Si Si1 0.379816 0.650325 0.925371
Si Si2 0.000000 0.500000 0.000000
Si Si3 0.883559 0.464316 0.672752
Si Si4 0.463110 0.675826 0.385029
Si Si5 0.308545 0.710865 0.577781
O O1 0.419576 0.461704 0.920738
O O2 0.326468 0.532915 0.917236
O O3 0.390213 0.818400 0.867805
O O4 0.383957 0.750860 0.000000
O O5 0.989657 0.679502 0.059284
O O6 0.870059 0.500000 0.750000
O O7 0.933991 0.326243 0.666797
O O8 0.840524 0.341691 0.631437
O O9 0.500000 0.500000 0.355266
O O10 0.320640 0.774542 0.500000
O O11 0.250000 0.750000 0.587924
#
# Coordination Sequence:
#
# PCOD9498385 Si02
#       5
#    16   4  16  16  16
#     4  10  21  40  66  95 127 171 216 274 325 382
#     4  12  22  40  66 102 122 152 228 282 342 384
#     4  11  25  43  62  95 138 182 217 266 335 403
#     4  11  24  39  64  94 128 166 218 277 328 393
#     4   9  20  41  68 101 133 170 227 278 326 391
#
# _framework density 20.299558999999999
#
# number of rings (size 3 to 8) (size 9 to 14) (size 15 to 20)
#    0.000    1.647    1.176    2.471    6.588    4.706 
#    4.235   12.353    0.000    0.000    0.000    0.000 
#    0.000    0.000    0.000    0.000    0.000    0.000 
#
# Total GULP energy -189434.125304 kJ/mol
# GULP energy per Si atom -5571.591921 kJ/mol
# Density = 2.025336 g / cm^3
# Si number density = 20.299559 Si / 1000 Ang^3
#
#
#
# Elastic Constant Matrix: (Units=GPa)
#
#
# Indices 1 2 3 4 5 6 
#
# 1 89.7375 44.1117 36.5393 0.0000 0.0000 0.0000
# 2 44.1117 119.9608 64.8709 0.0000 0.0000 0.0000
# 3 36.5393 64.8709 145.8246 0.0000 0.0000 0.0000
# 4 0.0000 0.0000 0.0000 7.8285 0.0000 0.0000
# 5 0.0000 0.0000 0.0000 0.0000 0.3146 0.0000
# 6 0.0000 0.0000 0.0000 0.0000 0.0000 28.4765
#
#
#
# Elastic Compliance Matrix: (Units=1/GPa)
#
#
# Indices 1 2 3 4 5 6 
#
# 1 0.013877 -0.004243 -0.001589 0.000000 0.000000 0.000000
# 2 -0.004243 0.012274 -0.004397 0.000000 0.000000 0.000000
# 3 -0.001589 -0.004397 0.009212 0.000000 0.000000 0.000000
# 4 0.000000 0.000000 0.000000 0.127739 0.000000 0.000000
# 5 0.000000 0.000000 0.000000 0.000000 3.178949 0.000000
# 6 0.000000 0.000000 0.000000 0.000000 0.000000 0.035117
#
#
# Mechanical properties :
#
#
# Convention : Reuss Voigt Hill
#
# Bulk Modulus (GPa) = 67.09912 71.84075 69.46994
# Shear Modulus (GPa) = 1.46947 21.32397 11.39672
#
# Velocity S-wave (km/s) = 0.85174 3.24460 2.37202
# Velocity P-wave (km/s) = 5.83897 7.03589 6.46519
#
# Compressibility (1/GPa) = 0.01490333
#
# Stress axis : x y z
#
# Youngs Moduli (GPa) = 72.06378 81.47241 108.55576
#
# Poissons Ratio (x) = 0.34570 0.17255
# Poissons Ratio (y) = 0.30578 0.47732
# Poissons Ratio (z) = 0.11454 0.35823
#
# Static dielectric constant tensor:
#      x y z
#    x 1.785210 0.000000 0.000000 
#    y 0.000000 1.732920 0.000000 
#    z 0.000000 0.000000 1.668020 
# 
# From -- ./inp_files/45752.got.cif
#   From: 2010.05.17/outbox.cif.g08.bks.cpg/sg66_23_cif.got.tgz:45752.got - 2010.06.03 17:51:23.
