data_PCOD9498845
_publ_section_title
;
Structure prediction by ZEFSAII (Michael W. Deem and Ramdas Pophale) SiO2 
 PCOD9498845
Probable space group: C C C M
;
_chemical_formula_sum "Si O2"
_cell_formula_units_Z 60
_cell_length_a 5.079281
_cell_length_b 24.744983
_cell_length_c 21.341197
_cell_angle_alpha 90.000000
_cell_angle_beta 90.000000
_cell_angle_gamma 90.000000
_cell_volume 2682.305094
_symmetry_space_group_name_H-M "C C C M"
_symmetry_group_IT_number 66
_symmetry_cell_setting 'orthorhombic'
loop_
_space_group_symop_operation_xyz
x,y,z
-x,-y,z
x,-y,1/2-z
-x,y,1/2-z
-x,-y,-z
x,y,-z
-x,y,1/2+z
x,-y,1/2+z
1/2+x,1/2+y,z
1/2-x,1/2-y,z
1/2+x,1/2-y,1/2-z
1/2-x,1/2+y,1/2-z
1/2-x,1/2-y,-z
1/2+x,1/2+y,-z
1/2-x,1/2+y,1/2+z
1/2+x,1/2-y,1/2+z
loop_
_atom_site_type_symbol
_atom_site_label
_atom_site_fract_x
_atom_site_fract_y
_atom_site_fract_z
Si Si1 0.750000 0.750000 0.790447
Si Si2 0.337084 0.437946 0.500000
Si Si3 0.000000 0.000000 0.750000
Si Si4 0.742824 0.357396 0.365489
Si Si5 0.661287 0.130954 0.500000
Si Si6 0.258208 0.068321 0.640745
O O1 0.500000 0.735892 0.750000
O O2 0.809960 0.695068 0.826729
O O3 0.644644 0.421849 0.500000
O O4 0.274060 0.459527 0.570954
O O5 0.141985 0.386402 0.500000
O O6 0.816801 0.967086 0.700999
O O7 0.769761 0.339451 0.437163
O O8 0.454961 0.382969 0.357234
O O9 0.952857 0.405680 0.355054
#
# Coordination Sequence:
#
# PCOD9498845 Si02
#       6
#     8   8   4  16   8  16
#     4  12  26  39  62  95 126 176 208 240 318 386
#     4   8  16  37  60  87 118 163 201 254 321 364
#     4  12  28  40  64  98 120 176 216 254 328 370
#     4  10  22  42  64  90 127 161 206 263 306 372
#     4   8  16  35  64  89 114 159 203 253 316 353
#     4  10  23  40  64  90 128 162 209 264 311 372
#
# _framework density 22.368819999999999
#
# number of rings (size 3 to 8) (size 9 to 14) (size 15 to 20)
#    0.000    2.133    0.000    1.600    5.600    3.200 
#    0.000    0.000    0.000   20.800    0.000    0.000 
#    0.000    0.000    0.000    0.000    0.000    0.000 
#
# Total GULP energy -167456.483574 kJ/mol
# GULP energy per Si atom -5581.882786 kJ/mol
# Density = 2.231791 g / cm^3
# Si number density = 22.368820 Si / 1000 Ang^3
#
#
#
# Elastic Constant Matrix: (Units=GPa)
#
#
# Indices 1 2 3 4 5 6 
#
# 1 83.3451 4.3590 -0.0398 0.0000 0.0000 0.0000
# 2 4.3590 51.9878 49.8353 0.0000 0.0000 0.0000
# 3 -0.0398 49.8353 180.5571 0.0000 0.0000 0.0000
# 4 0.0000 0.0000 0.0000 43.7213 0.0000 0.0000
# 5 0.0000 0.0000 0.0000 0.0000 14.2130 0.0000
# 6 0.0000 0.0000 0.0000 0.0000 0.0000 21.6921
#
#
#
# Elastic Compliance Matrix: (Units=1/GPa)
#
#
# Indices 1 2 3 4 5 6 
#
# 1 0.012071 -0.001380 0.000383 0.000000 0.000000 0.000000
# 2 -0.001380 0.026313 -0.007263 0.000000 0.000000 0.000000
# 3 0.000383 -0.007263 0.007543 0.000000 0.000000 0.000000
# 4 0.000000 0.000000 0.000000 0.022872 0.000000 0.000000
# 5 0.000000 0.000000 0.000000 0.000000 0.070358 0.000000
# 6 0.000000 0.000000 0.000000 0.000000 0.000000 0.046100
#
#
# Mechanical properties :
#
#
# Convention : Reuss Voigt Hill
#
# Bulk Modulus (GPa) = 34.00359 47.13323 40.56841
# Shear Modulus (GPa) = 23.63188 33.37428 28.50308
#
# Velocity S-wave (km/s) = 3.25386 3.86683 3.57351
# Velocity P-wave (km/s) = 5.41767 6.40728 5.93314
#
# Compressibility (1/GPa) = 0.02940866
#
# Stress axis : x y z
#
# Youngs Moduli (GPa) = 82.84559 38.00363 132.57058
#
# Poissons Ratio (x) = 0.05243 -0.05084
# Poissons Ratio (y) = 0.11430 0.96286
# Poissons Ratio (z) = -0.03177 0.27602
#
# Static dielectric constant tensor:
#      x y z
#    x 1.789020 0.000000 0.000000 
#    y 0.000000 1.761730 0.000000 
#    z 0.000000 0.000000 1.864590 
# 
# From -- ./inp_files/45581.got.cif
#   From: 2010.05.17/outbox.cif.g08.bks.cpg/sg66_23_cif.got.tgz:45581.got - 2010.06.03 17:51:23.
