data_PCOD9498505
_publ_section_title
;
Structure prediction by ZEFSAII (Michael W. Deem and Ramdas Pophale) SiO2 
 PCOD9498505
Probable space group: C C C M
;
_chemical_formula_sum "Si O2"
_cell_formula_units_Z 52
_cell_length_a 8.434841
_cell_length_b 15.048384
_cell_length_c 18.886679
_cell_angle_alpha 90.000000
_cell_angle_beta 90.000000
_cell_angle_gamma 90.000000
_cell_volume 2397.299884
_symmetry_space_group_name_H-M "C C C M"
_symmetry_group_IT_number 66
_symmetry_cell_setting 'orthorhombic'
loop_
_space_group_symop_operation_xyz
x,y,z
-x,-y,z
x,-y,1/2-z
-x,y,1/2-z
-x,-y,-z
x,y,-z
-x,y,1/2+z
x,-y,1/2+z
1/2+x,1/2+y,z
1/2-x,1/2-y,z
1/2+x,1/2-y,1/2-z
1/2-x,1/2+y,1/2-z
1/2-x,1/2-y,-z
1/2+x,1/2+y,-z
1/2-x,1/2+y,1/2+z
1/2+x,1/2-y,1/2+z
loop_
_atom_site_type_symbol
_atom_site_label
_atom_site_fract_x
_atom_site_fract_y
_atom_site_fract_z
Si Si1 0.848734 0.840577 0.582791
Si Si2 0.624977 0.670612 0.813900
Si Si3 0.170657 0.509486 0.358087
Si Si4 0.500000 0.000000 0.000000
O O1 0.849551 0.867190 0.500000
O O2 0.750000 0.750000 0.588399
O O3 0.761520 0.917464 0.627197
O O4 0.021046 0.824041 0.614655
O O5 0.500000 0.673824 0.750000
O O6 0.750000 0.750000 0.807683
O O7 0.719384 0.578542 0.818211
O O8 0.000000 0.500000 0.322533
O O9 0.115051 0.540904 0.436831
#
# Coordination Sequence:
#
# PCOD9498505 Si02
#       4
#    16  16  16   4
#     4  11  23  41  71 107 143 180 230 289 349 418
#     4  12  28  47  67  96 141 190 242 293 350 427
#     4  10  21  42  73 104 142 180 225 291 359 417
#     4   8  20  40  74 110 152 162 232 296 368 416
#
# _framework density 21.69107
#
# number of rings (size 3 to 8) (size 9 to 14) (size 15 to 20)
#    0.923    0.308    1.538    3.692    2.154    4.308 
#    0.000    1.538    0.000    0.000    0.000    0.000 
#    0.000    0.000    0.000    0.000    0.000    0.000 
#
# Total GULP energy -144779.516087 kJ/mol
# GULP energy per Si atom -5568.442926 kJ/mol
# Density = 2.164170 g / cm^3
# Si number density = 21.691070 Si / 1000 Ang^3
#
#
#
# Elastic Constant Matrix: (Units=GPa)
#
#
# Indices 1 2 3 4 5 6 
#
# 1 180.6570 92.0751 62.8620 0.0000 0.0000 0.0000
# 2 92.0751 147.5975 67.5266 0.0000 0.0000 0.0000
# 3 62.8620 67.5266 100.5275 0.0000 0.0000 0.0000
# 4 0.0000 0.0000 0.0000 11.5146 0.0000 0.0000
# 5 0.0000 0.0000 0.0000 0.0000 45.5490 0.0000
# 6 0.0000 0.0000 0.0000 0.0000 0.0000 45.7613
#
#
#
# Elastic Compliance Matrix: (Units=1/GPa)
#
#
# Indices 1 2 3 4 5 6 
#
# 1 0.008544 -0.004166 -0.002544 0.000000 0.000000 0.000000
# 2 -0.004166 0.011812 -0.005330 0.000000 0.000000 0.000000
# 3 -0.002544 -0.005330 0.015119 0.000000 0.000000 0.000000
# 4 0.000000 0.000000 0.000000 0.086846 0.000000 0.000000
# 5 0.000000 0.000000 0.000000 0.000000 0.021954 0.000000
# 6 0.000000 0.000000 0.000000 0.000000 0.000000 0.021853
#
#
# Mechanical properties :
#
#
# Convention : Reuss Voigt Hill
#
# Bulk Modulus (GPa) = 87.75678 97.07882 92.41780
# Shear Modulus (GPa) = 25.77244 34.31954 30.04599
#
# Velocity S-wave (km/s) = 3.45071 3.98200 3.72584
# Velocity P-wave (km/s) = 7.51145 8.12368 7.82355
#
# Compressibility (1/GPa) = 0.01139513
#
# Stress axis : x y z
#
# Youngs Moduli (GPa) = 117.04257 84.65801 66.14370
#
# Poissons Ratio (x) = 0.35267 0.16830
# Poissons Ratio (y) = 0.48758 0.35252
# Poissons Ratio (z) = 0.29780 0.45119
#
# Static dielectric constant tensor:
#      x y z
#    x 1.862240 0.000000 0.000000 
#    y 0.000000 1.847960 0.000000 
#    z 0.000000 0.000000 1.796790 
# 
# From -- ./inp_files/46317.got.cif
#   From: 2010.05.17/outbox.cif.g08.bks.cpg/sg66_24_cif.got.tgz:46317.got - 2010.06.03 17:51:23.
