data_PCOD9498829
_publ_section_title
;
Structure prediction by ZEFSAII (Michael W. Deem and Ramdas Pophale) SiO2 
 PCOD9498829
Probable space group: C C C M
;
_chemical_formula_sum "Si O2"
_cell_formula_units_Z 88
_cell_length_a 16.664165
_cell_length_b 15.999613
_cell_length_c 15.854757
_cell_angle_alpha 90.000000
_cell_angle_beta 90.000000
_cell_angle_gamma 90.000000
_cell_volume 4227.198339
_symmetry_space_group_name_H-M "C C C M"
_symmetry_group_IT_number 66
_symmetry_cell_setting 'orthorhombic'
loop_
_space_group_symop_operation_xyz
x,y,z
-x,-y,z
x,-y,1/2-z
-x,y,1/2-z
-x,-y,-z
x,y,-z
-x,y,1/2+z
x,-y,1/2+z
1/2+x,1/2+y,z
1/2-x,1/2-y,z
1/2+x,1/2-y,1/2-z
1/2-x,1/2+y,1/2-z
1/2-x,1/2-y,-z
1/2+x,1/2+y,-z
1/2-x,1/2+y,1/2+z
1/2+x,1/2-y,1/2+z
loop_
_atom_site_type_symbol
_atom_site_label
_atom_site_fract_x
_atom_site_fract_y
_atom_site_fract_z
Si Si1 0.776832 0.013371 0.000000
Si Si2 0.663714 0.700280 0.500000
Si Si3 0.908413 0.710328 0.659706
Si Si4 0.344329 0.757805 0.332184
Si Si5 0.941118 0.599598 0.898924
Si Si6 0.323727 0.679395 0.500000
Si Si7 0.833475 0.535832 0.338781
O O1 0.722835 0.019035 0.083110
O O2 0.808862 0.919083 0.000000
O O3 0.826978 0.099971 0.000000
O O4 0.750000 0.750000 0.500000
O O5 0.615832 0.731906 0.582124
O O6 0.897927 0.755544 0.749259
O O7 0.844889 0.634538 0.667389
O O8 0.989592 0.658505 0.639859
O O9 0.250000 0.750000 0.311749
O O10 0.361758 0.849223 0.370959
O O11 0.366102 0.699513 0.411473
O O12 0.918367 0.509047 0.861759
O O13 0.950722 0.594870 0.000000
O O14 0.250000 0.750000 0.500000
O O15 0.805211 0.500000 0.250000
#
# Coordination Sequence:
#
# PCOD9498829 Si02
#       7
#     8   8  16  16  16   8  16
#     4  12  26  43  67 101 142 186 240 296 351 420
#     4  12  24  44  63  94 140 193 236 277 348 431
#     4  12  25  41  64  97 145 190 225 282 350 439
#     4  11  23  40  66  95 132 174 232 291 347 411
#     4  12  24  42  66 100 138 188 233 284 356 424
#     4  10  22  41  68  97 126 172 232 301 356 401
#     4  12  24  37  64 100 146 188 230 280 350 436
#
# _framework density 20.81757
#
# number of rings (size 3 to 8) (size 9 to 14) (size 15 to 20)
#    0.000    0.364    6.364    3.818    0.000    1.455 
#    0.000    0.000    0.000    2.182    0.000    2.545 
#    0.000    0.000    0.000    0.000    0.000    0.000 
#
# Total GULP energy -245689.459024 kJ/mol
# GULP energy per Si atom -5583.851341 kJ/mol
# Density = 2.077019 g / cm^3
# Si number density = 20.817570 Si / 1000 Ang^3
#
#
#
# Elastic Constant Matrix: (Units=GPa)
#
#
# Indices 1 2 3 4 5 6 
#
# 1 50.7244 30.7693 38.7263 0.0000 0.0000 0.0000
# 2 30.7693 141.8791 58.3788 0.0000 0.0000 0.0000
# 3 38.7263 58.3788 215.7101 0.0000 0.0000 0.0000
# 4 0.0000 0.0000 0.0000 5.5282 0.0000 0.0000
# 5 0.0000 0.0000 0.0000 0.0000 30.5760 0.0000
# 6 0.0000 0.0000 0.0000 0.0000 0.0000 34.3075
#
#
#
# Elastic Compliance Matrix: (Units=1/GPa)
#
#
# Indices 1 2 3 4 5 6 
#
# 1 0.024687 -0.003973 -0.003357 0.000000 0.000000 0.000000
# 2 -0.003973 0.008571 -0.001606 0.000000 0.000000 0.000000
# 3 -0.003357 -0.001606 0.005673 0.000000 0.000000 0.000000
# 4 0.000000 0.000000 0.000000 0.180891 0.000000 0.000000
# 5 0.000000 0.000000 0.000000 0.000000 0.032705 0.000000
# 6 0.000000 0.000000 0.000000 0.000000 0.000000 0.029148
#
#
# Mechanical properties :
#
#
# Convention : Reuss Voigt Hill
#
# Bulk Modulus (GPa) = 47.48497 73.78471 60.63484
# Shear Modulus (GPa) = 16.30966 32.77830 24.54398
#
# Velocity S-wave (km/s) = 2.80207 3.97236 3.43739
# Velocity P-wave (km/s) = 5.77307 7.52064 6.70404
#
# Compressibility (1/GPa) = 0.02105930
#
# Stress axis : x y z
#
# Youngs Moduli (GPa) = 40.50710 116.67582 176.26574
#
# Poissons Ratio (x) = 0.46351 0.59171
# Poissons Ratio (y) = 0.16092 0.28315
# Poissons Ratio (z) = 0.13598 0.18742
#
# Static dielectric constant tensor:
#      x y z
#    x 1.860250 0.000000 0.000000 
#    y 0.000000 1.835920 0.000000 
#    z 0.000000 0.000000 1.786190 
# 
# From -- ./inp_files/31118.got.cif
#   From: 2010.05.17/outbox.cif.g08.bks.cpg/sg66_16_cif.got.tgz:31118.got - 2010.06.03 17:51:23.
