data_PCOD9498748
_publ_section_title
;
Structure prediction by ZEFSAII (Michael W. Deem and Ramdas Pophale) SiO2 
 PCOD9498748
Probable space group: C C C M
;
_chemical_formula_sum "Si O2"
_cell_formula_units_Z 48
_cell_length_a 11.066495
_cell_length_b 8.567455
_cell_length_c 22.947715
_cell_angle_alpha 90.000000
_cell_angle_beta 90.000000
_cell_angle_gamma 90.000000
_cell_volume 2175.711823
_symmetry_space_group_name_H-M "C C C M"
_symmetry_group_IT_number 66
_symmetry_cell_setting 'orthorhombic'
loop_
_space_group_symop_operation_xyz
x,y,z
-x,-y,z
x,-y,1/2-z
-x,y,1/2-z
-x,-y,-z
x,y,-z
-x,y,1/2+z
x,-y,1/2+z
1/2+x,1/2+y,z
1/2-x,1/2-y,z
1/2+x,1/2-y,1/2-z
1/2-x,1/2+y,1/2-z
1/2-x,1/2-y,-z
1/2+x,1/2+y,-z
1/2-x,1/2+y,1/2+z
1/2+x,1/2-y,1/2+z
loop_
_atom_site_type_symbol
_atom_site_label
_atom_site_fract_x
_atom_site_fract_y
_atom_site_fract_z
Si Si1 0.625940 0.678035 0.770601
Si Si2 0.137432 0.641312 0.067744
Si Si3 0.374811 0.797786 0.400133
O O1 0.625175 0.500000 0.750000
O O2 0.500000 0.752978 0.750000
O O3 0.750000 0.750000 0.747259
O O4 0.626121 0.702619 0.839958
O O5 0.250000 0.750000 0.082936
O O6 0.135186 0.485433 0.106428
O O7 0.007080 0.724752 0.072368
O O8 0.151021 0.591758 0.000000
O O9 0.250000 0.750000 0.431450
#
# Coordination Sequence:
#
# PCOD9498748 Si02
#       3
#    16  16  16
#     4  10  24  42  62  91 124 163 210 256 305 363
#     4  10  23  42  65  94 126 161 204 254 309 369
#     4  10  22  40  64  92 124 164 206 252 306 366
#
# _framework density 22.061744999999998
#
# number of rings (size 3 to 8) (size 9 to 14) (size 15 to 20)
#    0.000    2.000    0.000    2.000    0.000   27.333 
#    0.000    3.333    0.000    0.000    0.000    0.000 
#    0.000    0.000    0.000    0.000    0.000    0.000 
#
# Total GULP energy -133888.551010 kJ/mol
# GULP energy per Si atom -5578.689625 kJ/mol
# Density = 2.201153 g / cm^3
# Si number density = 22.061745 Si / 1000 Ang^3
#
#
#
# Elastic Constant Matrix: (Units=GPa)
#
#
# Indices 1 2 3 4 5 6 
#
# 1 259.2840 63.5224 11.9616 0.0000 0.0000 0.0000
# 2 63.5224 84.0556 42.3637 0.0000 0.0000 0.0000
# 3 11.9616 42.3637 81.4001 0.0000 0.0000 0.0000
# 4 0.0000 0.0000 0.0000 -12.9967 0.0000 0.0000
# 5 0.0000 0.0000 0.0000 0.0000 52.7210 0.0000
# 6 0.0000 0.0000 0.0000 0.0000 0.0000 44.1809
#
#
#
# Elastic Compliance Matrix: (Units=1/GPa)
#
#
# Indices 1 2 3 4 5 6 
#
# 1 0.004888 -0.004517 0.001632 0.000000 0.000000 0.000000
# 2 -0.004517 0.020300 -0.009901 0.000000 0.000000 0.000000
# 3 0.001632 -0.009901 0.017198 0.000000 0.000000 0.000000
# 4 0.000000 0.000000 0.000000 -0.076942 0.000000 0.000000
# 5 0.000000 0.000000 0.000000 0.000000 0.018968 0.000000
# 6 0.000000 0.000000 0.000000 0.000000 0.000000 0.022634
#
#
# Mechanical properties :
#
#
# Convention : Reuss Voigt Hill
#
# Bulk Modulus (GPa) = 59.46986 73.38168 66.42577
# Shear Modulus (GPa) = 130.81163 37.24051 84.02607
#
# Velocity S-wave (km/s) = 7.70858 4.11300 6.17814
# Velocity P-wave (km/s) = 10.30748 7.47595 9.00372
#
# Compressibility (1/GPa) = 0.01681524
#
# Stress axis : x y z
#
# Youngs Moduli (GPa) = 204.58209 49.25989 58.14558
#
# Poissons Ratio (x) = 0.22249 -0.09491
# Poissons Ratio (y) = 0.92403 0.57572
# Poissons Ratio (z) = -0.33395 0.48774
#
# Static dielectric constant tensor:
#      x y z
#    x 1.895680 0.000000 0.000000 
#    y 0.000000 1.786060 0.000000 
#    z 0.000000 0.000000 1.835930 
# 
# From -- ./inp_files/54724.got.cif
#   From: 2010.05.17/outbox.cif.g08.bks.cpg/sg66_28_cif.got.tgz:54724.got - 2010.06.03 17:51:23.
