data_PCOD9498359
_publ_section_title
;
Structure prediction by ZEFSAII (Michael W. Deem and Ramdas Pophale) SiO2 
 PCOD9498359
Probable space group: C C C M
;
_chemical_formula_sum "Si O2"
_cell_formula_units_Z 112
_cell_length_a 24.365568
_cell_length_b 14.421206
_cell_length_c 14.597097
_cell_angle_alpha 90.000000
_cell_angle_beta 90.000000
_cell_angle_gamma 90.000000
_cell_volume 5129.140723
_symmetry_space_group_name_H-M "C C C M"
_symmetry_group_IT_number 66
_symmetry_cell_setting 'orthorhombic'
loop_
_space_group_symop_operation_xyz
x,y,z
-x,-y,z
x,-y,1/2-z
-x,y,1/2-z
-x,-y,-z
x,y,-z
-x,y,1/2+z
x,-y,1/2+z
1/2+x,1/2+y,z
1/2-x,1/2-y,z
1/2+x,1/2-y,1/2-z
1/2-x,1/2+y,1/2-z
1/2-x,1/2-y,-z
1/2+x,1/2+y,-z
1/2-x,1/2+y,1/2+z
1/2+x,1/2-y,1/2+z
loop_
_atom_site_type_symbol
_atom_site_label
_atom_site_fract_x
_atom_site_fract_y
_atom_site_fract_z
Si Si1 0.632105 0.608618 0.238002
Si Si2 0.471137 0.598835 0.605676
Si Si3 0.187941 0.780583 0.603647
Si Si4 0.684479 0.257421 0.111013
Si Si5 0.110866 0.378663 0.105451
Si Si6 0.386602 0.914459 0.108650
Si Si7 0.493726 0.206852 0.357781
O O1 0.630201 0.500000 0.250000
O O2 0.575352 0.626553 0.180502
O O3 0.679693 0.631499 0.165930
O O4 0.649867 0.667311 0.328398
O O5 0.500000 0.500000 0.627920
O O6 0.450329 0.590663 0.500000
O O7 0.511574 0.687737 0.606790
O O8 0.169350 0.799440 0.500000
O O9 0.250000 0.750000 0.601817
O O10 0.150274 0.699451 0.646421
O O11 0.750000 0.250000 0.128938
O O12 0.660062 0.157000 0.137446
O O13 0.677106 0.272600 0.000000
O O14 0.113192 0.481188 0.146707
O O15 0.049415 0.339501 0.105636
O O16 0.129733 0.384944 0.000000
O O17 0.443403 0.860398 0.122571
O O18 0.380416 0.925194 0.000000
O O19 0.500000 0.211993 0.250000
#
# Coordination Sequence:
#
# PCOD9498359 Si02
#       7
#    16  16  16  16  16  16  16
#     4  12  26  43  68 100 139 182 236 292 346 416
#     4  11  26  44  68  98 137 190 238 290 357 422
#     4  10  22  43  71 102 135 176 228 284 350 416
#     4  10  24  48  72  99 140 186 234 288 354 425
#     4  10  21  40  64  92 130 170 214 279 346 410
#     4  10  22  39  64  95 126 171 224 276 340 417
#     4  12  24  39  63  94 135 171 221 281 345 420
#
# _framework density 21.836016999999998
#
# number of rings (size 3 to 8) (size 9 to 14) (size 15 to 20)
#    0.000    1.286    1.429    3.429    4.000    4.571 
#    0.000    2.857    0.000    0.429    0.000    0.000 
#    0.000    0.000    0.000    0.000    0.000    0.000 
#
# Total GULP energy -312659.588375 kJ/mol
# GULP energy per Si atom -5583.206935 kJ/mol
# Density = 2.178632 g / cm^3
# Si number density = 21.836017 Si / 1000 Ang^3
#
#
#
# Elastic Constant Matrix: (Units=GPa)
#
#
# Indices 1 2 3 4 5 6 
#
# 1 96.7941 20.1054 4.3799 0.0000 0.0000 0.0000
# 2 20.1054 107.3437 13.7073 0.0000 0.0000 0.0000
# 3 4.3799 13.7073 109.9884 0.0000 0.0000 0.0000
# 4 0.0000 0.0000 0.0000 26.5197 0.0000 0.0000
# 5 0.0000 0.0000 0.0000 0.0000 44.4964 0.0000
# 6 0.0000 0.0000 0.0000 0.0000 0.0000 26.7212
#
#
#
# Elastic Compliance Matrix: (Units=1/GPa)
#
#
# Indices 1 2 3 4 5 6 
#
# 1 0.010753 -0.001991 -0.000180 0.000000 0.000000 0.000000
# 2 -0.001991 0.009835 -0.001146 0.000000 0.000000 0.000000
# 3 -0.000180 -0.001146 0.009242 0.000000 0.000000 0.000000
# 4 0.000000 0.000000 0.000000 0.037708 0.000000 0.000000
# 5 0.000000 0.000000 0.000000 0.000000 0.022474 0.000000
# 6 0.000000 0.000000 0.000000 0.000000 0.000000 0.037423
#
#
# Mechanical properties :
#
#
# Convention : Reuss Voigt Hill
#
# Bulk Modulus (GPa) = 43.11278 43.39018 43.25148
# Shear Modulus (GPa) = 35.26052 37.94304 36.60178
#
# Velocity S-wave (km/s) = 4.02280 4.17302 4.09860
# Velocity P-wave (km/s) = 6.43148 6.56756 6.49988
#
# Compressibility (1/GPa) = 0.02319498
#
# Stress axis : x y z
#
# Youngs Moduli (GPa) = 92.99806 101.67584 108.20268
#
# Poissons Ratio (x) = 0.20244 0.01948
# Poissons Ratio (y) = 0.18516 0.12405
# Poissons Ratio (z) = 0.01675 0.11656
#
# Static dielectric constant tensor:
#      x y z
#    x 1.774080 0.000000 0.000000 
#    y 0.000000 1.772550 0.000000 
#    z 0.000000 0.000000 1.853820 
# 
# From -- ./inp_files/32434.got.cif
#   From: 2010.05.17/outbox.cif.g08.bks.cpg/sg66_17_cif.got.tgz:32434.got - 2010.06.03 17:51:23.
