data_PCOD9498507
_publ_section_title
;
Structure prediction by ZEFSAII (Michael W. Deem and Ramdas Pophale) SiO2 
 PCOD9498507
Probable space group: C C C M
;
_chemical_formula_sum "Si O2"
_cell_formula_units_Z 96
_cell_length_a 21.983163
_cell_length_b 13.475597
_cell_length_c 14.422939
_cell_angle_alpha 90.000000
_cell_angle_beta 90.000000
_cell_angle_gamma 90.000000
_cell_volume 4272.597297
_symmetry_space_group_name_H-M "C C C M"
_symmetry_group_IT_number 66
_symmetry_cell_setting 'orthorhombic'
loop_
_space_group_symop_operation_xyz
x,y,z
-x,-y,z
x,-y,1/2-z
-x,y,1/2-z
-x,-y,-z
x,y,-z
-x,y,1/2+z
x,-y,1/2+z
1/2+x,1/2+y,z
1/2-x,1/2-y,z
1/2+x,1/2-y,1/2-z
1/2-x,1/2+y,1/2-z
1/2-x,1/2-y,-z
1/2+x,1/2+y,-z
1/2-x,1/2+y,1/2+z
1/2+x,1/2-y,1/2+z
loop_
_atom_site_type_symbol
_atom_site_label
_atom_site_fract_x
_atom_site_fract_y
_atom_site_fract_z
Si Si1 0.714542 0.093933 0.190755
Si Si2 0.098512 0.750785 0.000000
Si Si3 0.507166 0.226163 0.642451
Si Si4 0.159392 0.195314 0.310906
Si Si5 0.150625 0.913879 0.500000
Si Si6 0.710297 0.990437 0.000000
Si Si7 0.888678 0.684667 0.000000
Si Si8 0.572196 0.413790 0.677073
O O1 0.785766 0.117776 0.201497
O O2 0.682040 0.195413 0.215747
O O3 0.696412 0.000000 0.250000
O O4 0.701170 0.062400 0.086559
O O5 0.140075 0.800572 0.082623
O O6 0.052389 0.706192 0.081679
O O7 0.500000 0.197065 0.750000
O O8 0.565773 0.182386 0.588658
O O9 0.516895 0.347471 0.637734
O O10 0.108345 0.165046 0.239011
O O11 0.220765 0.946962 0.500000
O O12 0.143470 0.793399 0.500000
O O13 0.113779 0.948376 0.591368
O O14 0.661599 0.901183 0.000000
O O15 0.560437 0.500000 0.750000
#
# Coordination Sequence:
#
# PCOD9498507 Si02
#       8
#    16   8  16  16   8   8   8  16
#     4  11  26  42  66 103 137 175 229 277 340 426
#     4  11  22  41  72  95 130 189 226 280 348 402
#     4  10  21  43  63 100 132 175 229 283 337 404
#     4  11  23  44  68  97 137 183 221 282 349 408
#     4  10  22  39  64  96 135 176 216 267 336 400
#     4  12  22  40  64  97 135 171 221 280 327 414
#     4   9  23  38  67  99 130 180 220 277 341 395
#     4  11  23  42  67  98 136 177 227 277 337 413
#
# _framework density 22.468768000000001
#
# number of rings (size 3 to 8) (size 9 to 14) (size 15 to 20)
#    0.000    1.333    1.667    4.250    4.667    2.333 
#    0.000    0.833    0.000    8.000    8.667    0.000 
#    0.000    0.000    0.000    0.000    0.000    0.000 
#
# Total GULP energy -267557.654987 kJ/mol
# GULP energy per Si atom -5574.117812 kJ/mol
# Density = 2.241763 g / cm^3
# Si number density = 22.468768 Si / 1000 Ang^3
#
#
#
# Elastic Constant Matrix: (Units=GPa)
#
#
# Indices 1 2 3 4 5 6 
#
# 1 66.8408 8.4344 12.9700 0.0000 0.0000 0.0000
# 2 8.4344 73.5778 14.2902 0.0000 0.0000 0.0000
# 3 12.9700 14.2902 138.5440 0.0000 0.0000 0.0000
# 4 0.0000 0.0000 0.0000 26.9366 0.0000 0.0000
# 5 0.0000 0.0000 0.0000 0.0000 22.6358 0.0000
# 6 0.0000 0.0000 0.0000 0.0000 0.0000 6.7197
#
#
#
# Elastic Compliance Matrix: (Units=1/GPa)
#
#
# Indices 1 2 3 4 5 6 
#
# 1 0.015402 -0.001516 -0.001285 0.000000 0.000000 0.000000
# 2 -0.001516 0.014018 -0.001304 0.000000 0.000000 0.000000
# 3 -0.001285 -0.001304 0.007473 0.000000 0.000000 0.000000
# 4 0.000000 0.000000 0.000000 0.037124 0.000000 0.000000
# 5 0.000000 0.000000 0.000000 0.000000 0.044178 0.000000
# 6 0.000000 0.000000 0.000000 0.000000 0.000000 0.148816
#
#
# Mechanical properties :
#
#
# Convention : Reuss Voigt Hill
#
# Bulk Modulus (GPa) = 34.86533 38.92800 36.89667
# Shear Modulus (GPa) = 17.55731 27.47629 22.51680
#
# Velocity S-wave (km/s) = 2.79840 3.50074 3.16909
# Velocity P-wave (km/s) = 5.09827 5.80545 5.46331
#
# Compressibility (1/GPa) = 0.02868178
#
# Stress axis : x y z
#
# Youngs Moduli (GPa) = 64.92813 71.33644 133.81915
#
# Poissons Ratio (x) = 0.10814 0.17202
# Poissons Ratio (y) = 0.09842 0.17450
# Poissons Ratio (z) = 0.08346 0.09302
#
# Static dielectric constant tensor:
#      x y z
#    x 1.890450 0.000000 0.000000 
#    y 0.000000 1.859870 0.000000 
#    z 0.000000 0.000000 1.796710 
# 
# From -- ./inp_files/32417.got.cif
#   From: 2010.05.17/outbox.cif.g08.bks.cpg/sg66_17_cif.got.tgz:32417.got - 2010.06.03 17:51:23.
