data_PCOD9498124
_publ_section_title
;
Structure prediction by ZEFSAII (Michael W. Deem and Ramdas Pophale) SiO2 
 PCOD9498124
Probable space group: C C C M
;
_chemical_formula_sum "Si O2"
_cell_formula_units_Z 64
_cell_length_a 9.646015
_cell_length_b 19.490553
_cell_length_c 15.850970
_cell_angle_alpha 90.000000
_cell_angle_beta 90.000000
_cell_angle_gamma 90.000000
_cell_volume 2980.080107
_symmetry_space_group_name_H-M "C C C M"
_symmetry_group_IT_number 66
_symmetry_cell_setting 'orthorhombic'
loop_
_space_group_symop_operation_xyz
x,y,z
-x,-y,z
x,-y,1/2-z
-x,y,1/2-z
-x,-y,-z
x,y,-z
-x,y,1/2+z
x,-y,1/2+z
1/2+x,1/2+y,z
1/2-x,1/2-y,z
1/2+x,1/2-y,1/2-z
1/2-x,1/2+y,1/2-z
1/2-x,1/2-y,-z
1/2+x,1/2+y,-z
1/2-x,1/2+y,1/2+z
1/2+x,1/2-y,1/2+z
loop_
_atom_site_type_symbol
_atom_site_label
_atom_site_fract_x
_atom_site_fract_y
_atom_site_fract_z
Si Si1 0.153831 0.310386 0.356802
Si Si2 0.342742 0.186908 0.155522
Si Si3 0.339891 0.447306 0.831339
Si Si4 0.879014 0.083085 0.093795
O O1 0.250000 0.250000 0.392493
O O2 0.144079 0.299951 0.256106
O O3 0.244093 0.377401 0.374525
O O4 0.995100 0.313156 0.385489
O O5 0.250000 0.250000 0.121722
O O6 0.271719 0.111883 0.155269
O O7 0.326088 0.500000 0.750000
O O8 0.489869 0.410257 0.843142
O O9 0.341826 0.502946 0.905432
O O10 0.916552 0.106390 0.000000
#
# Coordination Sequence:
#
# PCOD9498124 Si02
#       4
#    16  16  16  16
#     4  10  21  38  61  91 122 158 201 252 307 357
#     4  10  21  38  63  92 120 151 205 261 301 352
#     4  11  21  38  63  92 119 159 207 249 296 356
#     4  11  23  39  60  90 128 165 201 246 302 362
#
# _framework density 21.475933000000001
#
# number of rings (size 3 to 8) (size 9 to 14) (size 15 to 20)
#    0.000    1.500    2.500    4.500    0.000    3.500 
#    0.000    3.750    0.000    5.250    0.000    0.000 
#    0.000    0.000    0.000    0.000    0.000    0.000 
#
# Total GULP energy -178277.957276 kJ/mol
# GULP energy per Si atom -5571.186165 kJ/mol
# Density = 2.142705 g / cm^3
# Si number density = 21.475933 Si / 1000 Ang^3
#
#
#
# Elastic Constant Matrix: (Units=GPa)
#
#
# Indices 1 2 3 4 5 6 
#
# 1 224.5696 108.2130 24.9349 0.0000 0.0000 0.0000
# 2 108.2130 103.2844 6.0218 0.0000 0.0000 0.0000
# 3 24.9349 6.0218 70.8045 0.0000 0.0000 0.0000
# 4 0.0000 0.0000 0.0000 7.5160 0.0000 0.0000
# 5 0.0000 0.0000 0.0000 0.0000 -52.7083 0.0000
# 6 0.0000 0.0000 0.0000 0.0000 0.0000 17.7398
#
#
#
# Elastic Compliance Matrix: (Units=1/GPa)
#
#
# Indices 1 2 3 4 5 6 
#
# 1 0.009410 -0.009714 -0.002488 0.000000 0.000000 0.000000
# 2 -0.009714 0.019758 0.001741 0.000000 0.000000 0.000000
# 3 -0.002488 0.001741 0.014851 0.000000 0.000000 0.000000
# 4 0.000000 0.000000 0.000000 0.133049 0.000000 0.000000
# 5 0.000000 0.000000 0.000000 0.000000 -0.018972 0.000000
# 6 0.000000 0.000000 0.000000 0.000000 0.000000 0.056370
#
#
# Mechanical properties :
#
#
# Convention : Reuss Voigt Hill
#
# Bulk Modulus (GPa) = 43.29535 75.22200 59.25867
# Shear Modulus (GPa) = 20.56868 11.80878 16.18873
#
# Velocity S-wave (km/s) = 3.09812 2.34746 2.74853
# Velocity P-wave (km/s) = 5.74469 6.51534 6.14211
#
# Compressibility (1/GPa) = 0.02309717
#
# Stress axis : x y z
#
# Youngs Moduli (GPa) = 106.26880 50.61200 67.33349
#
# Poissons Ratio (x) = 0.49165 0.16751
# Poissons Ratio (y) = 1.03231 -0.11720
# Poissons Ratio (z) = 0.26437 -0.08809
#
# Static dielectric constant tensor:
#      x y z
#    x 1.817630 0.000000 0.000000 
#    y 0.000000 1.812290 0.000000 
#    z 0.000000 0.000000 1.819310 
# 
# From -- ./inp_files/36291.got.cif
#   From: 2010.05.17/outbox.cif.g08.bks.cpg/sg66_19_cif.got.tgz:36291.got - 2010.06.03 17:51:23.
