data_PCOD9498363
_publ_section_title
;
Structure prediction by ZEFSAII (Michael W. Deem and Ramdas Pophale) SiO2 
 PCOD9498363
Probable space group: C C C M
;
_chemical_formula_sum "Si O2"
_cell_formula_units_Z 88
_cell_length_a 15.576362
_cell_length_b 12.892732
_cell_length_c 21.459501
_cell_angle_alpha 90.000000
_cell_angle_beta 90.000000
_cell_angle_gamma 90.000000
_cell_volume 4309.536923
_symmetry_space_group_name_H-M "C C C M"
_symmetry_group_IT_number 66
_symmetry_cell_setting 'orthorhombic'
loop_
_space_group_symop_operation_xyz
x,y,z
-x,-y,z
x,-y,1/2-z
-x,y,1/2-z
-x,-y,-z
x,y,-z
-x,y,1/2+z
x,-y,1/2+z
1/2+x,1/2+y,z
1/2-x,1/2-y,z
1/2+x,1/2-y,1/2-z
1/2-x,1/2+y,1/2-z
1/2-x,1/2-y,-z
1/2+x,1/2+y,-z
1/2-x,1/2+y,1/2+z
1/2+x,1/2-y,1/2+z
loop_
_atom_site_type_symbol
_atom_site_label
_atom_site_fract_x
_atom_site_fract_y
_atom_site_fract_z
Si Si1 0.646653 0.217652 0.500000
Si Si2 0.185706 0.000000 0.750000
Si Si3 0.563354 0.898882 0.119362
Si Si4 0.809841 0.660304 0.780158
Si Si5 0.947179 0.232371 0.807260
Si Si6 0.401338 0.531241 0.128263
Si Si7 0.097599 0.955236 0.500000
O O1 0.750000 0.250000 0.500000
O O2 0.611104 0.150740 0.440933
O O3 0.600525 0.330820 0.500000
O O4 0.245585 0.903567 0.762433
O O5 0.135911 0.026682 0.812205
O O6 0.640449 0.911437 0.169962
O O7 0.505665 0.809002 0.151936
O O8 0.500000 0.000000 0.110228
O O9 0.750000 0.750000 0.810577
O O10 0.879127 0.705265 0.733123
O O11 0.903334 0.151092 0.853169
O O12 0.000000 0.178277 0.750000
O O13 0.500000 0.500000 0.124334
O O14 0.360086 0.498410 0.063201
O O15 0.000000 0.000000 0.500000
#
# Coordination Sequence:
#
# PCOD9498363 Si02
#       7
#     8   8  16  16  16  16   8
#     4  12  27  45  72 101 130 173 237 302 334 402
#     4  12  23  36  65  90 132 162 220 274 343 390
#     4  11  24  43  68  92 135 182 225 269 345 427
#     4  11  23  39  62 101 131 169 216 285 336 392
#     4  10  21  40  64  94 133 170 217 266 335 413
#     4  11  22  37  62  92 123 169 215 270 333 409
#     4  10  24  43  64  94 131 171 218 278 352 406
#
# _framework density 20.419827000000002
#
# number of rings (size 3 to 8) (size 9 to 14) (size 15 to 20)
#    0.000    1.091    1.818    5.455    7.636    2.545 
#    0.000    0.000    0.000    2.182    0.000    0.000 
#    0.000    0.000    0.000    0.000    0.000    0.000 
#
# Total GULP energy -245150.170806 kJ/mol
# GULP energy per Si atom -5571.594791 kJ/mol
# Density = 2.037335 g / cm^3
# Si number density = 20.419827 Si / 1000 Ang^3
#
#
#
# Elastic Constant Matrix: (Units=GPa)
#
#
# Indices 1 2 3 4 5 6 
#
# 1 82.9089 22.3214 48.5339 0.0000 0.0000 0.0000
# 2 22.3214 79.2924 44.1478 0.0000 0.0000 0.0000
# 3 48.5339 44.1478 166.5189 0.0000 0.0000 0.0000
# 4 0.0000 0.0000 0.0000 59.0527 0.0000 0.0000
# 5 0.0000 0.0000 0.0000 0.0000 34.1818 0.0000
# 6 0.0000 0.0000 0.0000 0.0000 0.0000 29.6734
#
#
#
# Elastic Compliance Matrix: (Units=1/GPa)
#
#
# Indices 1 2 3 4 5 6 
#
# 1 0.014828 -0.002074 -0.003772 0.000000 0.000000 0.000000
# 2 -0.002074 0.015086 -0.003395 0.000000 0.000000 0.000000
# 3 -0.003772 -0.003395 0.008005 0.000000 0.000000 0.000000
# 4 0.000000 0.000000 0.000000 0.016934 0.000000 0.000000
# 5 0.000000 0.000000 0.000000 0.000000 0.029255 0.000000
# 6 0.000000 0.000000 0.000000 0.000000 0.000000 0.033700
#
#
# Mechanical properties :
#
#
# Convention : Reuss Voigt Hill
#
# Bulk Modulus (GPa) = 51.45000 62.08070 56.76535
# Shear Modulus (GPa) = 35.02170 38.82937 36.92554
#
# Velocity S-wave (km/s) = 4.14585 4.36541 4.25705
# Velocity P-wave (km/s) = 6.94033 7.47511 7.21268
#
# Compressibility (1/GPa) = 0.01943635
#
# Stress axis : x y z
#
# Youngs Moduli (GPa) = 67.44074 66.28802 124.92546
#
# Poissons Ratio (x) = 0.13749 0.47120
# Poissons Ratio (y) = 0.13988 0.42413
# Poissons Ratio (z) = 0.25438 0.22505
#
# Static dielectric constant tensor:
#      x y z
#    x 1.707440 0.000000 0.000000 
#    y 0.000000 1.777480 0.000000 
#    z 0.000000 0.000000 1.835180 
# 
# From -- ./inp_files/50973.got.cif
#   From: 2010.05.17/outbox.cif.g08.bks.cpg/sg66_26_cif.got.tgz:50973.got - 2010.06.03 17:51:23.
