data_PCOD9498540
_publ_section_title
;
Structure prediction by ZEFSAII (Michael W. Deem and Ramdas Pophale) SiO2 
 PCOD9498540
Probable space group: C C C M
;
_chemical_formula_sum "Si O2"
_cell_formula_units_Z 96
_cell_length_a 18.028731
_cell_length_b 18.978216
_cell_length_c 14.509743
_cell_angle_alpha 90.000000
_cell_angle_beta 90.000000
_cell_angle_gamma 90.000000
_cell_volume 4964.554289
_symmetry_space_group_name_H-M "C C C M"
_symmetry_group_IT_number 66
_symmetry_cell_setting 'orthorhombic'
loop_
_space_group_symop_operation_xyz
x,y,z
-x,-y,z
x,-y,1/2-z
-x,y,1/2-z
-x,-y,-z
x,y,-z
-x,y,1/2+z
x,-y,1/2+z
1/2+x,1/2+y,z
1/2-x,1/2-y,z
1/2+x,1/2-y,1/2-z
1/2-x,1/2+y,1/2-z
1/2-x,1/2-y,-z
1/2+x,1/2+y,-z
1/2-x,1/2+y,1/2+z
1/2+x,1/2-y,1/2+z
loop_
_atom_site_type_symbol
_atom_site_label
_atom_site_fract_x
_atom_site_fract_y
_atom_site_fract_z
Si Si1 0.418093 0.016166 0.641663
Si Si2 0.759976 0.461681 0.393345
Si Si3 0.141760 0.326983 0.607706
Si Si4 0.801342 0.888261 0.611578
Si Si5 0.414283 0.301456 0.728065
Si Si6 0.693989 0.685252 0.108397
O O1 0.395714 0.096455 0.620503
O O2 0.500000 0.000000 0.604785
O O3 0.420348 0.000000 0.750000
O O4 0.348671 0.969659 0.608790
O O5 0.738045 0.461707 0.500000
O O6 0.723836 0.533619 0.355826
O O7 0.732159 0.387195 0.356753
O O8 0.135644 0.306205 0.500000
O O9 0.229337 0.338440 0.628327
O O10 0.102932 0.270905 0.673550
O O11 0.812338 0.888628 0.500000
O O12 0.872524 0.859787 0.665257
O O13 0.500000 0.313240 0.750000
O O14 0.374588 0.299932 0.826599
O O15 0.750000 0.750000 0.117377
O O16 0.674929 0.679221 0.000000
#
# Coordination Sequence:
#
# PCOD9498540 Si02
#       6
#    16  16  16  16  16  16
#     4  10  22  34  58  93 130 158 189 237 299 373
#     4   9  20  38  62  87 114 157 208 253 299 358
#     4  10  22  41  65  91 120 162 208 247 297 363
#     4   9  19  40  66  91 114 151 207 258 303 354
#     4  12  26  38  60  88 123 159 201 257 315 363
#     4  10  23  41  61  87 121 162 204 245 301 372
#
# _framework density 19.337084000000001
#
# number of rings (size 3 to 8) (size 9 to 14) (size 15 to 20)
#    0.000    2.000    0.000    3.500    9.333    4.000 
#    0.000    3.333    0.000    3.000    0.000    0.000 
#    0.000    0.000    0.000    0.000    0.000    0.000 
#
# Total GULP energy -267968.856425 kJ/mol
# GULP energy per Si atom -5582.684509 kJ/mol
# Density = 1.929307 g / cm^3
# Si number density = 19.337084 Si / 1000 Ang^3
#
#
#
# Elastic Constant Matrix: (Units=GPa)
#
#
# Indices 1 2 3 4 5 6 
#
# 1 165.4258 60.2138 72.2602 0.0000 0.0000 0.0000
# 2 60.2138 86.3703 41.3505 0.0000 0.0000 0.0000
# 3 72.2602 41.3505 87.2228 0.0000 0.0000 0.0000
# 4 0.0000 0.0000 0.0000 173.1930 0.0000 0.0000
# 5 0.0000 0.0000 0.0000 0.0000 -48.2616 0.0000
# 6 0.0000 0.0000 0.0000 0.0000 0.0000 18.8382
#
#
#
# Elastic Compliance Matrix: (Units=1/GPa)
#
#
# Indices 1 2 3 4 5 6 
#
# 1 0.010474 -0.004072 -0.006747 0.000000 0.000000 0.000000
# 2 -0.004072 0.016561 -0.004477 0.000000 0.000000 0.000000
# 3 -0.006747 -0.004477 0.019177 0.000000 0.000000 0.000000
# 4 0.000000 0.000000 0.000000 0.005774 0.000000 0.000000
# 5 0.000000 0.000000 0.000000 0.000000 -0.020720 0.000000
# 6 0.000000 0.000000 0.000000 0.000000 0.000000 0.053084
#
#
# Mechanical properties :
#
#
# Convention : Reuss Voigt Hill
#
# Bulk Modulus (GPa) = 64.02499 76.29643 70.16071
# Shear Modulus (GPa) = 41.61500 39.76691 40.69095
#
# Velocity S-wave (km/s) = 4.64409 4.53980 4.59224
# Velocity P-wave (km/s) = 7.87011 8.18666 8.02994
#
# Compressibility (1/GPa) = 0.01561890
#
# Stress axis : x y z
#
# Youngs Moduli (GPa) = 95.47038 60.38430 52.14517
#
# Poissons Ratio (x) = 0.24589 0.35183
# Poissons Ratio (y) = 0.38877 0.23348
# Poissons Ratio (z) = 0.64415 0.27037
#
# Static dielectric constant tensor:
#      x y z
#    x 1.598840 0.000000 0.000000 
#    y 0.000000 1.697150 0.000000 
#    z 0.000000 0.000000 1.715790 
# 
# From -- ./inp_files/28339.got.cif
#   From: 2010.05.17/outbox.cif.g08.bks.cpg/sg66_15_cif.got.tgz:28339.got - 2010.06.03 17:51:23.
