data_PCOD9498216
_publ_section_title
;
Structure prediction by ZEFSAII (Michael W. Deem and Ramdas Pophale) SiO2 
 PCOD9498216
Probable space group: C C C M
;
_chemical_formula_sum "Si O2"
_cell_formula_units_Z 68
_cell_length_a 7.761255
_cell_length_b 30.979847
_cell_length_c 14.460352
_cell_angle_alpha 90.000000
_cell_angle_beta 90.000000
_cell_angle_gamma 90.000000
_cell_volume 3476.883076
_symmetry_space_group_name_H-M "C C C M"
_symmetry_group_IT_number 66
_symmetry_cell_setting 'orthorhombic'
loop_
_space_group_symop_operation_xyz
x,y,z
-x,-y,z
x,-y,1/2-z
-x,y,1/2-z
-x,-y,-z
x,y,-z
-x,y,1/2+z
x,-y,1/2+z
1/2+x,1/2+y,z
1/2-x,1/2-y,z
1/2+x,1/2-y,1/2-z
1/2-x,1/2+y,1/2-z
1/2-x,1/2-y,-z
1/2+x,1/2+y,-z
1/2-x,1/2+y,1/2+z
1/2+x,1/2-y,1/2+z
loop_
_atom_site_type_symbol
_atom_site_label
_atom_site_fract_x
_atom_site_fract_y
_atom_site_fract_z
Si Si1 0.500000 0.000000 0.750000
Si Si2 0.830108 0.141740 0.107915
Si Si3 0.203133 0.700810 0.734909
Si Si4 0.540775 0.930428 0.609253
Si Si5 0.707893 0.621488 0.109811
O O1 0.403977 0.031451 0.677642
O O2 0.802952 0.182148 0.175291
O O3 0.668229 0.110048 0.119609
O O4 0.005693 0.115820 0.130726
O O5 0.839392 0.154673 0.000000
O O6 0.250000 0.750000 0.715287
O O7 0.246980 0.667257 0.654474
O O8 0.000000 0.698271 0.750000
O O9 0.540767 0.942588 0.500000
O O10 0.349065 0.914133 0.638110
O O11 0.726751 0.624133 0.000000
#
# Coordination Sequence:
#
# PCOD9498216 Si02
#       5
#     4  16  16  16  16
#     4  12  22  36  62  90 120 154 186 244 302 342
#     4  10  21  40  63  84 113 157 200 240 291 349
#     4  12  23  36  56  86 122 155 195 248 293 340
#     4  10  21  39  61  86 117 153 198 239 291 358
#     4  10  21  40  63  84 113 157 200 240 291 349
#
# _framework density 19.557748
#
# number of rings (size 3 to 8) (size 9 to 14) (size 15 to 20)
#    0.000    1.412    2.353    3.882    0.000    0.941 
#    0.000    2.353    0.000    5.647    0.000    0.000 
#    0.000    0.000    0.000    0.000    0.000    0.000 
#
# Total GULP energy -189751.247522 kJ/mol
# GULP energy per Si atom -5580.919045 kJ/mol
# Density = 1.951323 g / cm^3
# Si number density = 19.557748 Si / 1000 Ang^3
#
#
#
# Elastic Constant Matrix: (Units=GPa)
#
#
# Indices 1 2 3 4 5 6 
#
# 1 99.5477 -3.0662 12.3166 0.0000 0.0000 0.0000
# 2 -3.0662 67.1250 36.1559 0.0000 0.0000 0.0000
# 3 12.3166 36.1559 63.5944 0.0000 0.0000 0.0000
# 4 0.0000 0.0000 0.0000 1.3693 0.0000 0.0000
# 5 0.0000 0.0000 0.0000 0.0000 16.1242 0.0000
# 6 0.0000 0.0000 0.0000 0.0000 0.0000 -5.4954
#
#
#
# Elastic Compliance Matrix: (Units=1/GPa)
#
#
# Indices 1 2 3 4 5 6 
#
# 1 0.010528 0.002276 -0.003333 0.000000 0.000000 0.000000
# 2 0.002276 0.021966 -0.012929 0.000000 0.000000 0.000000
# 3 -0.003333 -0.012929 0.023721 0.000000 0.000000 0.000000
# 4 0.000000 0.000000 0.000000 0.730291 0.000000 0.000000
# 5 0.000000 0.000000 0.000000 0.000000 0.062019 0.000000
# 6 0.000000 0.000000 0.000000 0.000000 0.000000 -0.181971
#
#
# Mechanical properties :
#
#
# Convention : Reuss Voigt Hill
#
# Bulk Modulus (GPa) = 35.40773 35.67551 35.54162
# Shear Modulus (GPa) = 7.10289 14.72369 10.91329
#
# Velocity S-wave (km/s) = 1.90778 2.74675 2.36477
# Velocity P-wave (km/s) = 4.79545 5.32356 5.06639
#
# Compressibility (1/GPa) = 0.02824242
#
# Stress axis : x y z
#
# Youngs Moduli (GPa) = 94.98534 45.52564 42.15687
#
# Poissons Ratio (x) = -0.10363 0.14051
# Poissons Ratio (y) = -0.21621 0.54505
# Poissons Ratio (z) = 0.31660 0.58861
#
# Static dielectric constant tensor:
#      x y z
#    x 1.721880 0.000000 0.000000 
#    y 0.000000 1.671550 0.000000 
#    z 0.000000 0.000000 1.708410 
# 
# From -- ./inp_files/24380.got.cif
#   From: 2010.05.17/outbox.cif.g08.bks.cpg/sg66_13_cif.got.tgz:24380.got - 2010.06.03 17:51:23.
