data_PCOD9498007
_publ_section_title
;
Structure prediction by ZEFSAII (Michael W. Deem and Ramdas Pophale) SiO2 
 PCOD9498007
Probable space group: C C C M
;
_chemical_formula_sum "Si O2"
_cell_formula_units_Z 64
_cell_length_a 9.637140
_cell_length_b 25.023608
_cell_length_c 14.288625
_cell_angle_alpha 90.000000
_cell_angle_beta 90.000000
_cell_angle_gamma 90.000000
_cell_volume 3445.787845
_symmetry_space_group_name_H-M "C C C M"
_symmetry_group_IT_number 66
_symmetry_cell_setting 'orthorhombic'
loop_
_space_group_symop_operation_xyz
x,y,z
-x,-y,z
x,-y,1/2-z
-x,y,1/2-z
-x,-y,-z
x,y,-z
-x,y,1/2+z
x,-y,1/2+z
1/2+x,1/2+y,z
1/2-x,1/2-y,z
1/2+x,1/2-y,1/2-z
1/2-x,1/2+y,1/2-z
1/2-x,1/2-y,-z
1/2+x,1/2+y,-z
1/2-x,1/2+y,1/2+z
1/2+x,1/2-y,1/2+z
loop_
_atom_site_type_symbol
_atom_site_label
_atom_site_fract_x
_atom_site_fract_y
_atom_site_fract_z
Si Si1 0.666416 0.496804 0.139793
Si Si2 0.218498 0.904103 0.000000
Si Si3 0.721541 0.917815 0.000000
Si Si4 0.008074 0.341549 0.500000
Si Si5 0.416742 0.243885 0.153261
Si Si6 0.047516 0.832098 0.500000
O O1 0.500000 0.500000 0.122826
O O2 0.690141 0.500000 0.250000
O O3 0.723777 0.443470 0.089771
O O4 0.735951 0.546867 0.088521
O O5 0.069386 0.876529 0.000000
O O6 0.330375 0.856653 0.000000
O O7 0.807548 0.863000 0.000000
O O8 0.564374 0.899320 0.000000
O O9 0.958621 0.307345 0.410042
O O10 0.500000 0.242496 0.250000
O O11 0.250000 0.250000 0.166043
O O12 0.461815 0.294499 0.090462
#
# Coordination Sequence:
#
# PCOD9498007 Si02
#       6
#    16   8   8   8  16   8
#     4  10  21  37  61  93 122 153 207 258 299 363
#     4  11  23  39  61  95 117 163 211 249 296 364
#     4  11  19  41  63  82 119 169 193 244 309 367
#     4  11  25  43  61  87 133 161 201 255 310 366
#     4  11  25  42  63  93 123 160 206 256 307 367
#     4  11  21  41  67  84 125 167 203 242 313 367
#
# _framework density 18.573399999999999
#
# number of rings (size 3 to 8) (size 9 to 14) (size 15 to 20)
#    0.000    1.250    5.000    1.500    3.500    7.000 
#    0.000    1.250    0.000    0.000    0.000    0.000 
#    0.000    0.000    0.000    0.000    0.000    0.000 
#
# Total GULP energy -178680.600336 kJ/mol
# GULP energy per Si atom -5583.768760 kJ/mol
# Density = 1.853113 g / cm^3
# Si number density = 18.573400 Si / 1000 Ang^3
#
#
#
# Elastic Constant Matrix: (Units=GPa)
#
#
# Indices 1 2 3 4 5 6 
#
# 1 41.2730 3.3149 32.4920 0.0000 0.0000 0.0000
# 2 3.3149 82.0178 50.2324 0.0000 0.0000 0.0000
# 3 32.4920 50.2324 166.2962 0.0000 0.0000 0.0000
# 4 0.0000 0.0000 0.0000 -1.9505 0.0000 0.0000
# 5 0.0000 0.0000 0.0000 0.0000 -26.6493 0.0000
# 6 0.0000 0.0000 0.0000 0.0000 0.0000 32.3413
#
#
#
# Elastic Compliance Matrix: (Units=1/GPa)
#
#
# Indices 1 2 3 4 5 6 
#
# 1 0.029161 0.002836 -0.006554 0.000000 0.000000 0.000000
# 2 0.002836 0.015236 -0.005156 0.000000 0.000000 0.000000
# 3 -0.006554 -0.005156 0.008851 0.000000 0.000000 0.000000
# 4 0.000000 0.000000 0.000000 -0.512693 0.000000 0.000000
# 5 0.000000 0.000000 0.000000 0.000000 -0.037524 0.000000
# 6 0.000000 0.000000 0.000000 0.000000 0.000000 0.030920
#
#
# Mechanical properties :
#
#
# Convention : Reuss Voigt Hill
#
# Bulk Modulus (GPa) = 28.17021 51.29618 39.73320
# Shear Modulus (GPa) = -11.45563 14.31814 1.43125
#
# Velocity S-wave (km/s) = -2.48619 2.77951 0.87879
# Velocity P-wave (km/s) = 2.63787 6.16271 4.74011
#
# Compressibility (1/GPa) = 0.03549849
#
# Stress axis : x y z
#
# Youngs Moduli (GPa) = 34.29248 65.63469 112.97542
#
# Poissons Ratio (x) = -0.18611 0.74046
# Poissons Ratio (y) = -0.09724 0.58253
# Poissons Ratio (z) = 0.22476 0.33843
#
# Static dielectric constant tensor:
#      x y z
#    x 1.620830 0.000000 0.000000 
#    y 0.000000 1.620160 0.000000 
#    z 0.000000 0.000000 1.621080 
# 
# From -- ./inp_files/24231.got.cif
#   From: 2010.05.17/outbox.cif.g08.bks.cpg/sg66_13_cif.got.tgz:24231.got - 2010.06.03 17:51:23.
