data_PCOD9498652
_publ_section_title
;
Structure prediction by ZEFSAII (Michael W. Deem and Ramdas Pophale) SiO2 
 PCOD9498652
Probable space group: C C C M
;
_chemical_formula_sum "Si O2"
_cell_formula_units_Z 72
_cell_length_a 22.096087
_cell_length_b 16.606689
_cell_length_c 9.933488
_cell_angle_alpha 90.000000
_cell_angle_beta 90.000000
_cell_angle_gamma 90.000000
_cell_volume 3645.022347
_symmetry_space_group_name_H-M "C C C M"
_symmetry_group_IT_number 66
_symmetry_cell_setting 'orthorhombic'
loop_
_space_group_symop_operation_xyz
x,y,z
-x,-y,z
x,-y,1/2-z
-x,y,1/2-z
-x,-y,-z
x,y,-z
-x,y,1/2+z
x,-y,1/2+z
1/2+x,1/2+y,z
1/2-x,1/2-y,z
1/2+x,1/2-y,1/2-z
1/2-x,1/2+y,1/2-z
1/2-x,1/2-y,-z
1/2+x,1/2+y,-z
1/2-x,1/2+y,1/2+z
1/2+x,1/2-y,1/2+z
loop_
_atom_site_type_symbol
_atom_site_label
_atom_site_fract_x
_atom_site_fract_y
_atom_site_fract_z
Si Si1 0.661257 0.500000 0.750000
Si Si2 0.932846 0.855205 0.252877
Si Si3 0.447580 0.233424 0.500000
Si Si4 0.291363 0.147396 0.000000
Si Si5 0.418177 0.759918 0.500000
Si Si6 0.820246 0.308918 0.000000
Si Si7 0.250000 0.750000 0.748433
Si Si8 0.749204 0.523001 0.500000
O O1 0.617783 0.577224 0.744773
O O2 0.705415 0.510111 0.625135
O O3 0.938162 0.793350 0.375493
O O4 0.918845 0.799040 0.126572
O O5 0.000000 0.893605 0.250000
O O6 0.515401 0.198373 0.500000
O O7 0.391315 0.173182 0.500000
O O8 0.357830 0.187140 0.000000
O O9 0.257120 0.177849 0.137647
O O10 0.295250 0.051648 0.000000
O O11 0.803391 0.260715 0.860997
O O12 0.780684 0.390098 0.000000
#
# Coordination Sequence:
#
# PCOD9498652 Si02
#       8
#     8  16   8   8   8   8   8   8
#     4  12  25  38  58  88 129 172 192 248 308 370
#     4  10  22  39  60  89 120 161 207 249 296 365
#     4  10  22  39  65  88 115 158 211 256 298 356
#     4  11  24  42  60  91 125 156 209 251 302 363
#     4  10  22  39  65  88 115 158 211 256 298 356
#     4  11  24  42  60  91 125 156 209 251 302 363
#     4  10  24  36  68  84 118 168 200 244 308 352
#     4  12  28  38  58  94 128 160 206 244 310 368
#
# _framework density 19.752965
#
# number of rings (size 3 to 8) (size 9 to 14) (size 15 to 20)
#    0.000    1.333    0.000    4.333   18.667    0.000 
#    0.000    5.000    0.000    0.000    0.000    9.333 
#    0.000    0.000    0.000    0.000    0.000    0.000 
#
# Total GULP energy -200812.667184 kJ/mol
# GULP energy per Si atom -5578.129644 kJ/mol
# Density = 1.970801 g / cm^3
# Si number density = 19.752965 Si / 1000 Ang^3
#
#
#
# Elastic Constant Matrix: (Units=GPa)
#
#
# Indices 1 2 3 4 5 6 
#
# 1 133.0911 74.6377 35.6235 0.0000 0.0000 0.0000
# 2 74.6377 74.2264 28.7698 0.0000 0.0000 0.0000
# 3 35.6235 28.7698 166.4237 0.0000 0.0000 0.0000
# 4 0.0000 0.0000 0.0000 4.3484 0.0000 0.0000
# 5 0.0000 0.0000 0.0000 0.0000 17.9989 0.0000
# 6 0.0000 0.0000 0.0000 0.0000 0.0000 49.4721
#
#
#
# Elastic Compliance Matrix: (Units=1/GPa)
#
#
# Indices 1 2 3 4 5 6 
#
# 1 0.017316 -0.017122 -0.000747 0.000000 0.000000 0.000000
# 2 -0.017122 0.031371 -0.001758 0.000000 0.000000 0.000000
# 3 -0.000747 -0.001758 0.006472 0.000000 0.000000 0.000000
# 4 0.000000 0.000000 0.000000 0.229969 0.000000 0.000000
# 5 0.000000 0.000000 0.000000 0.000000 0.055559 0.000000
# 6 0.000000 0.000000 0.000000 0.000000 0.000000 0.020213
#
#
# Mechanical properties :
#
#
# Convention : Reuss Voigt Hill
#
# Bulk Modulus (GPa) = 62.87202 72.42260 67.64731
# Shear Modulus (GPa) = 12.33180 30.01122 21.17151
#
# Velocity S-wave (km/s) = 2.50131 3.90208 3.27741
# Velocity P-wave (km/s) = 6.34353 7.55284 6.97445
#
# Compressibility (1/GPa) = 0.01590533
#
# Stress axis : x y z
#
# Youngs Moduli (GPa) = 57.75118 31.87672 154.50057
#
# Poissons Ratio (x) = 0.54580 0.11534
# Poissons Ratio (y) = 0.98883 0.27162
# Poissons Ratio (z) = 0.04311 0.05604
#
# Static dielectric constant tensor:
#      x y z
#    x 1.766790 0.000000 0.000000 
#    y 0.000000 1.671450 0.000000 
#    z 0.000000 0.000000 1.679400 
# 
# From -- ./inp_files/8863.got.cif
#   From: 2010.05.17/outbox.cif.g08.bks.cpg/sg66_5_cif.got.tgz:8863.got - 2010.06.03 17:51:23.
