data_PCOD9498113
_publ_section_title
;
Structure prediction by ZEFSAII (Michael W. Deem and Ramdas Pophale) SiO2 
 PCOD9498113
Probable space group: C C C M
;
_chemical_formula_sum "Si O2"
_cell_formula_units_Z 72
_cell_length_a 9.903767
_cell_length_b 17.394642
_cell_length_c 14.495281
_cell_angle_alpha 90.000000
_cell_angle_beta 90.000000
_cell_angle_gamma 90.000000
_cell_volume 2497.138027
_symmetry_space_group_name_H-M "C C C M"
_symmetry_group_IT_number 66
_symmetry_cell_setting 'orthorhombic'
loop_
_space_group_symop_operation_xyz
x,y,z
-x,-y,z
x,-y,1/2-z
-x,y,1/2-z
-x,-y,-z
x,y,-z
-x,y,1/2+z
x,-y,1/2+z
1/2+x,1/2+y,z
1/2-x,1/2-y,z
1/2+x,1/2-y,1/2-z
1/2-x,1/2+y,1/2-z
1/2-x,1/2-y,-z
1/2+x,1/2+y,-z
1/2-x,1/2+y,1/2+z
1/2+x,1/2-y,1/2+z
loop_
_atom_site_type_symbol
_atom_site_label
_atom_site_fract_x
_atom_site_fract_y
_atom_site_fract_z
Si Si1 0.729445 0.902807 0.895375
Si Si2 0.677768 0.935336 0.607722
Si Si3 0.750000 0.250000 0.723999
Si Si4 0.014273 0.119484 0.358777
Si Si5 0.563092 0.777855 0.607198
O O1 0.715375 0.827004 0.832630
O O2 0.887960 0.927751 0.898749
O O3 0.664792 0.979465 0.852230
O O4 0.682955 0.883879 0.000000
O O5 0.657926 0.950928 0.500000
O O6 0.830866 0.900674 0.616476
O O7 0.572738 0.867694 0.631612
O O8 0.634257 0.257425 0.801266
O O9 0.965549 0.204416 0.396557
O O10 0.000000 0.107304 0.250000
O O11 0.615210 0.779024 0.500000
#
# Coordination Sequence:
#
# PCOD9498113 Si02
#       5
#    16  16   8  16  16
#     4  11  24  39  58  89 126 160 196 250 311 368
#     4  10  21  38  61  89 121 160 203 246 303 368
#     4  12  22  38  58  84 120 162 202 248 308 370
#     4  12  21  35  59  91 126 156 199 249 305 361
#     4  11  21  38  61  85 119 163 207 248 296 365
#
# _framework density 28.833006999999998
#
# number of rings (size 3 to 8) (size 9 to 14) (size 15 to 20)
#    0.000    0.889    4.444    3.333    0.000    6.222 
#    0.000    0.000    0.000    1.333    0.000    6.222 
#    0.000    0.000    0.000    0.000    0.000    0.000 
#
# Total GULP energy -200695.748660 kJ/mol
# GULP energy per Si atom -5574.881907 kJ/mol
# Density = 2.876738 g / cm^3
# Si number density = 28.833007 Si / 1000 Ang^3
#
#
#
# Elastic Constant Matrix: (Units=GPa)
#
#
# Indices 1 2 3 4 5 6 
#
# 1 97.6433 31.8584 -0.1174 0.0000 0.0000 0.0000
# 2 31.8584 263.1859 52.3287 0.0000 0.0000 0.0000
# 3 -0.1174 52.3287 197.4945 0.0000 0.0000 0.0000
# 4 0.0000 0.0000 0.0000 6.4414 0.0000 0.0000
# 5 0.0000 0.0000 0.0000 0.0000 -11.5060 0.0000
# 6 0.0000 0.0000 0.0000 0.0000 0.0000 43.9829
#
#
#
# Elastic Compliance Matrix: (Units=1/GPa)
#
#
# Indices 1 2 3 4 5 6 
#
# 1 0.010688 -0.001367 0.000369 0.000000 0.000000 0.000000
# 2 -0.001367 0.004186 -0.001110 0.000000 0.000000 0.000000
# 3 0.000369 -0.001110 0.005358 0.000000 0.000000 0.000000
# 4 0.000000 0.000000 0.000000 0.155246 0.000000 0.000000
# 5 0.000000 0.000000 0.000000 0.000000 -0.086911 0.000000
# 6 0.000000 0.000000 0.000000 0.000000 0.000000 0.022736
#
#
# Mechanical properties :
#
#
# Convention : Reuss Voigt Hill
#
# Bulk Modulus (GPa) = 62.44298 80.71813 71.58055
# Shear Modulus (GPa) = 41.37124 39.40058 40.38591
#
# Velocity S-wave (km/s) = 3.79206 3.70064 3.74663
# Velocity P-wave (km/s) = 6.39349 6.80555 6.60274
#
# Compressibility (1/GPa) = 0.01601461
#
# Stress axis : x y z
#
# Youngs Moduli (GPa) = 93.56438 238.90580 186.64628
#
# Poissons Ratio (x) = 0.32659 -0.06879
# Poissons Ratio (y) = 0.12791 0.20716
# Poissons Ratio (z) = -0.03448 0.26516
#
# Static dielectric constant tensor:
#      x y z
#    x 2.635720 0.000000 0.000000 
#    y 0.000000 2.543120 0.000000 
#    z 0.000000 0.000000 2.163170 
# 
# From -- ./inp_files/27970.got.cif
#   From: 2010.05.17/outbox.cif.g08.bks.cpg/sg66_14_cif.got.tgz:27970.got - 2010.06.03 17:51:23.
