data_PCOD9498233
_publ_section_title
;
Structure prediction by ZEFSAII (Michael W. Deem and Ramdas Pophale) SiO2 
 PCOD9498233
Probable space group: C C C M
;
_chemical_formula_sum "Si O2"
_cell_formula_units_Z 80
_cell_length_a 12.585052
_cell_length_b 12.069999
_cell_length_c 27.157896
_cell_angle_alpha 90.000000
_cell_angle_beta 90.000000
_cell_angle_gamma 90.000000
_cell_volume 4125.326906
_symmetry_space_group_name_H-M "C C C M"
_symmetry_group_IT_number 66
_symmetry_cell_setting 'orthorhombic'
loop_
_space_group_symop_operation_xyz
x,y,z
-x,-y,z
x,-y,1/2-z
-x,y,1/2-z
-x,-y,-z
x,y,-z
-x,y,1/2+z
x,-y,1/2+z
1/2+x,1/2+y,z
1/2-x,1/2-y,z
1/2+x,1/2-y,1/2-z
1/2-x,1/2+y,1/2-z
1/2-x,1/2-y,-z
1/2+x,1/2+y,-z
1/2-x,1/2+y,1/2+z
1/2+x,1/2-y,1/2+z
loop_
_atom_site_type_symbol
_atom_site_label
_atom_site_fract_x
_atom_site_fract_y
_atom_site_fract_z
Si Si1 0.206218 0.514416 0.396642
Si Si2 0.476116 0.751287 0.695813
Si Si3 0.411273 0.685270 0.000000
Si Si4 0.750000 0.750000 0.853364
Si Si5 0.324890 0.922525 0.000000
Si Si6 0.428755 0.607493 0.890586
Si Si7 0.500000 0.000000 0.829862
O O1 0.240724 0.640027 0.386170
O O2 0.166731 0.495207 0.451704
O O3 0.306084 0.432038 0.388542
O O4 0.106994 0.491930 0.361754
O O5 0.500000 0.703919 0.750000
O O6 0.353979 0.735895 0.680093
O O7 0.544407 0.697187 0.651378
O O8 0.494585 0.883048 0.697313
O O9 0.456104 0.647372 0.053319
O O10 0.402923 0.817802 0.000000
O O11 0.293006 0.632197 0.000000
O O12 0.500000 0.500000 0.880277
#
# Coordination Sequence:
#
# PCOD9498233 Si02
#       7
#    16  16   8   8   8  16   8
#     4  10  21  39  62  89 129 162 213 257 313 371
#     4  11  24  42  65  91 125 163 211 255 316 369
#     4   9  19  34  60  90 128 157 209 255 310 368
#     4  10  22  43  58  88 128 163 200 262 316 378
#     4   9  18  34  58  91 120 166 208 260 304 370
#     4  11  21  39  64  94 122 165 208 259 309 372
#     4  10  23  41  62  88 126 169 202 260 317 376
#
# _framework density 19.392403000000002
#
# number of rings (size 3 to 8) (size 9 to 14) (size 15 to 20)
#    0.000    1.800    2.000    1.800    0.000    5.200 
#    0.000    6.000    0.000    0.000    0.000    0.000 
#    0.000    0.000    0.000    0.000    0.000    0.000 
#
# Total GULP energy -223206.915891 kJ/mol
# GULP energy per Si atom -5580.172897 kJ/mol
# Density = 1.934827 g / cm^3
# Si number density = 19.392403 Si / 1000 Ang^3
#
#
#
# Elastic Constant Matrix: (Units=GPa)
#
#
# Indices 1 2 3 4 5 6 
#
# 1 71.0822 36.0326 31.6651 0.0000 0.0000 0.0000
# 2 36.0326 95.9606 66.0216 0.0000 0.0000 0.0000
# 3 31.6651 66.0216 142.9656 0.0000 0.0000 0.0000
# 4 0.0000 0.0000 0.0000 -7.1950 0.0000 0.0000
# 5 0.0000 0.0000 0.0000 0.0000 9.9421 0.0000
# 6 0.0000 0.0000 0.0000 0.0000 0.0000 24.1747
#
#
#
# Elastic Compliance Matrix: (Units=1/GPa)
#
#
# Indices 1 2 3 4 5 6 
#
# 1 0.017523 -0.005730 -0.001235 0.000000 0.000000 0.000000
# 2 -0.005730 0.017148 -0.006650 0.000000 0.000000 0.000000
# 3 -0.001235 -0.006650 0.010339 0.000000 0.000000 0.000000
# 4 0.000000 0.000000 0.000000 -0.138986 0.000000 0.000000
# 5 0.000000 0.000000 0.000000 0.000000 0.100582 0.000000
# 6 0.000000 0.000000 0.000000 0.000000 0.000000 0.041366
#
#
# Mechanical properties :
#
#
# Convention : Reuss Voigt Hill
#
# Bulk Modulus (GPa) = 56.24225 64.16078 60.20151
# Shear Modulus (GPa) = 61.63142 17.13697 39.38420
#
# Velocity S-wave (km/s) = 5.64360 2.97593 4.51145
# Velocity P-wave (km/s) = 8.45767 6.70563 7.63209
#
# Compressibility (1/GPa) = 0.01778023
#
# Stress axis : x y z
#
# Youngs Moduli (GPa) = 57.06767 58.31740 96.72110
#
# Poissons Ratio (x) = 0.33417 0.11945
# Poissons Ratio (y) = 0.32701 0.64316
# Poissons Ratio (z) = 0.07048 0.38779
#
# Static dielectric constant tensor:
#      x y z
#    x 1.710180 0.000000 0.000000 
#    y 0.000000 1.677480 0.000000 
#    z 0.000000 0.000000 1.664660 
# 
# From -- ./inp_files/57973.got.cif
#   From: 2010.05.17/outbox.cif.g08.bks.cpg/sg66_29_cif.got.tgz:57973.got - 2010.06.03 17:51:23.
