data_PCOD9498221
_publ_section_title
;
Structure prediction by ZEFSAII (Michael W. Deem and Ramdas Pophale) SiO2 
 PCOD9498221
Probable space group: C C C M
;
_chemical_formula_sum "Si O2"
_cell_formula_units_Z 96
_cell_length_a 14.951764
_cell_length_b 20.665811
_cell_length_c 14.913395
_cell_angle_alpha 90.000000
_cell_angle_beta 90.000000
_cell_angle_gamma 90.000000
_cell_volume 4608.094827
_symmetry_space_group_name_H-M "C C C M"
_symmetry_group_IT_number 66
_symmetry_cell_setting 'orthorhombic'
loop_
_space_group_symop_operation_xyz
x,y,z
-x,-y,z
x,-y,1/2-z
-x,y,1/2-z
-x,-y,-z
x,y,-z
-x,y,1/2+z
x,-y,1/2+z
1/2+x,1/2+y,z
1/2-x,1/2-y,z
1/2+x,1/2-y,1/2-z
1/2-x,1/2+y,1/2-z
1/2-x,1/2-y,-z
1/2+x,1/2+y,-z
1/2-x,1/2+y,1/2+z
1/2+x,1/2-y,1/2+z
loop_
_atom_site_type_symbol
_atom_site_label
_atom_site_fract_x
_atom_site_fract_y
_atom_site_fract_z
Si Si1 0.918222 0.329543 0.104400
Si Si2 0.747244 0.326460 0.780101
Si Si3 0.552273 0.317286 0.841339
Si Si4 0.945983 0.561561 0.108436
Si Si5 0.442276 0.557845 0.605104
Si Si6 0.750602 0.402640 0.392087
O O1 0.833427 0.350101 0.164643
O O2 0.936527 0.252400 0.111552
O O3 0.004119 0.371795 0.133433
O O4 0.898702 0.343981 0.000000
O O5 0.750000 0.250000 0.791477
O O6 0.650843 0.345851 0.820346
O O7 0.753128 0.342014 0.674900
O O8 0.500000 0.301979 0.750000
O O9 0.492735 0.373573 0.885284
O O10 0.841567 0.559849 0.129913
O O11 0.000000 0.500000 0.142829
O O12 0.949395 0.559791 0.000000
O O13 0.500000 0.500000 0.646067
O O14 0.433364 0.544396 0.500000
O O15 0.340306 0.561802 0.636441
O O16 0.748456 0.388788 0.500000
#
# Coordination Sequence:
#
# PCOD9498221 Si02
#       6
#    16  16  16  16  16  16
#     4  10  23  41  64  91 124 169 215 261 316 376
#     4  10  23  39  61  91 125 162 209 263 311 367
#     4  11  22  39  60  89 127 166 208 263 311 377
#     4   9  20  39  63  91 123 160 204 257 312 370
#     4  10  22  40  63  91 123 164 211 260 316 381
#     4  10  21  39  61  89 123 161 206 256 317 378
#
# _framework density 20.832905
#
# number of rings (size 3 to 8) (size 9 to 14) (size 15 to 20)
#    0.000    2.000    1.667    0.500    4.667    5.667 
#    0.000    6.667    0.000    0.000    0.000    0.000 
#    0.000    0.000    0.000    0.000    0.000    0.000 
#
# Total GULP energy -267662.894715 kJ/mol
# GULP energy per Si atom -5576.310307 kJ/mol
# Density = 2.078549 g / cm^3
# Si number density = 20.832905 Si / 1000 Ang^3
#
#
#
# Elastic Constant Matrix: (Units=GPa)
#
#
# Indices 1 2 3 4 5 6 
#
# 1 198.4298 53.8834 21.4732 0.0000 0.0000 0.0000
# 2 53.8834 66.7110 -4.5537 0.0000 0.0000 0.0000
# 3 21.4732 -4.5537 45.3077 0.0000 0.0000 0.0000
# 4 0.0000 0.0000 0.0000 -40.9741 0.0000 0.0000
# 5 0.0000 0.0000 0.0000 0.0000 29.2800 0.0000
# 6 0.0000 0.0000 0.0000 0.0000 0.0000 16.1919
#
#
#
# Elastic Compliance Matrix: (Units=1/GPa)
#
#
# Indices 1 2 3 4 5 6 
#
# 1 0.007100 -0.006005 -0.003968 0.000000 0.000000 0.000000
# 2 -0.006005 0.020173 0.004874 0.000000 0.000000 0.000000
# 3 -0.003968 0.004874 0.024442 0.000000 0.000000 0.000000
# 4 0.000000 0.000000 0.000000 -0.024406 0.000000 0.000000
# 5 0.000000 0.000000 0.000000 0.000000 0.034153 0.000000
# 6 0.000000 0.000000 0.000000 0.000000 0.000000 0.061759
#
#
# Mechanical properties :
#
#
# Convention : Reuss Voigt Hill
#
# Bulk Modulus (GPa) = 24.08778 50.22827 37.15802
# Shear Modulus (GPa) = 33.95348 16.87594 25.41471
#
# Velocity S-wave (km/s) = 4.04146 2.84925 3.49654
# Velocity P-wave (km/s) = 5.77627 5.91495 5.84602
#
# Compressibility (1/GPa) = 0.04151483
#
# Stress axis : x y z
#
# Youngs Moduli (GPa) = 140.84903 49.57016 40.91327
#
# Poissons Ratio (x) = 0.29769 0.16236
# Poissons Ratio (y) = 0.84587 -0.19940
# Poissons Ratio (z) = 0.55896 -0.24159
#
# Static dielectric constant tensor:
#      x y z
#    x 1.792240 0.000000 0.000000 
#    y 0.000000 1.735360 0.000000 
#    z 0.000000 0.000000 1.750130 
# 
# From -- ./inp_files/28412.got.cif
#   From: 2010.05.17/outbox.cif.g08.bks.cpg/sg66_15_cif.got.tgz:28412.got - 2010.06.03 17:51:23.
