data_PCOD9498943
_publ_section_title
;
Structure prediction by ZEFSAII (Michael W. Deem and Ramdas Pophale) SiO2 
 PCOD9498943
Probable space group: C C C M
;
_chemical_formula_sum "Si O2"
_cell_formula_units_Z 88
_cell_length_a 14.296587
_cell_length_b 26.228162
_cell_length_c 13.391945
_cell_angle_alpha 90.000000
_cell_angle_beta 90.000000
_cell_angle_gamma 90.000000
_cell_volume 5021.620469
_symmetry_space_group_name_H-M "C C C M"
_symmetry_group_IT_number 66
_symmetry_cell_setting 'orthorhombic'
loop_
_space_group_symop_operation_xyz
x,y,z
-x,-y,z
x,-y,1/2-z
-x,y,1/2-z
-x,-y,-z
x,y,-z
-x,y,1/2+z
x,-y,1/2+z
1/2+x,1/2+y,z
1/2-x,1/2-y,z
1/2+x,1/2-y,1/2-z
1/2-x,1/2+y,1/2-z
1/2-x,1/2-y,-z
1/2+x,1/2+y,-z
1/2-x,1/2+y,1/2+z
1/2+x,1/2-y,1/2+z
loop_
_atom_site_type_symbol
_atom_site_label
_atom_site_fract_x
_atom_site_fract_y
_atom_site_fract_z
Si Si1 0.917504 0.120699 0.170509
Si Si2 0.625386 0.698962 0.500000
Si Si3 0.073604 0.385648 0.327312
Si Si4 0.416889 0.539134 0.000000
Si Si5 0.242382 0.042612 0.000000
Si Si6 0.535453 0.056020 0.500000
Si Si7 0.748164 0.438567 0.273419
Si Si8 0.651911 0.185316 0.000000
O O1 0.909329 0.169981 0.099421
O O2 0.933171 0.074026 0.095345
O O3 0.822250 0.101316 0.221821
O O4 0.000000 0.125982 0.250000
O O5 0.605183 0.758945 0.500000
O O6 0.737094 0.691949 0.500000
O O7 0.149859 0.420305 0.267756
O O8 0.124078 0.345930 0.400846
O O9 0.000000 0.361485 0.250000
O O10 0.008190 0.417606 0.402752
O O11 0.500000 0.500000 0.000000
O O12 0.315243 0.511170 0.000000
O O13 0.222824 0.066089 0.108926
O O14 0.354217 0.047625 0.000000
O O15 0.500000 0.000000 0.500000
O O16 0.737753 0.500000 0.250000
#
# Coordination Sequence:
#
# PCOD9498943 Si02
#       8
#    16   8  16   8   8   8  16   8
#     4  11  24  39  61  91 121 160 210 260 313 368
#     4  10  22  44  70  91 115 158 217 275 321 367
#     4  11  23  38  60  92 124 166 206 253 314 385
#     4  11  23  38  57  85 122 171 213 241 290 377
#     4  12  22  35  54  84 123 170 204 240 293 364
#     4  11  23  33  53  83 124 164 210 239 292 367
#     4  12  23  37  58  85 130 170 206 246 304 366
#     4  10  22  44  70  91 117 158 217 270 314 383
#
# _framework density 17.524222999999999
#
# number of rings (size 3 to 8) (size 9 to 14) (size 15 to 20)
#    0.000    0.909    5.455    2.182    0.000    2.182 
#    0.000    0.000    0.000    0.000    0.000    2.545 
#    0.000    0.000    0.000    0.000    0.000    0.000 
#
# Total GULP energy -245064.305811 kJ/mol
# GULP energy per Si atom -5569.643314 kJ/mol
# Density = 1.748434 g / cm^3
# Si number density = 17.524223 Si / 1000 Ang^3
#
#
#
# Elastic Constant Matrix: (Units=GPa)
#
#
# Indices 1 2 3 4 5 6 
#
# 1 76.5342 27.1243 32.9741 0.0000 0.0000 0.0000
# 2 27.1243 91.6707 46.5691 0.0000 0.0000 0.0000
# 3 32.9741 46.5691 138.9487 0.0000 0.0000 0.0000
# 4 0.0000 0.0000 0.0000 6.3945 0.0000 0.0000
# 5 0.0000 0.0000 0.0000 0.0000 37.8320 0.0000
# 6 0.0000 0.0000 0.0000 0.0000 0.0000 21.4915
#
#
#
# Elastic Compliance Matrix: (Units=1/GPa)
#
#
# Indices 1 2 3 4 5 6 
#
# 1 0.015311 -0.003235 -0.002549 0.000000 0.000000 0.000000
# 2 -0.003235 0.013831 -0.003868 0.000000 0.000000 0.000000
# 3 -0.002549 -0.003868 0.009098 0.000000 0.000000 0.000000
# 4 0.000000 0.000000 0.000000 0.156385 0.000000 0.000000
# 5 0.000000 0.000000 0.000000 0.000000 0.026433 0.000000
# 6 0.000000 0.000000 0.000000 0.000000 0.000000 0.046530
#
#
# Mechanical properties :
#
#
# Convention : Reuss Voigt Hill
#
# Bulk Modulus (GPa) = 52.81083 57.83209 55.32146
# Shear Modulus (GPa) = 17.05300 26.50934 21.78117
#
# Velocity S-wave (km/s) = 3.12286 3.89360 3.52933
# Velocity P-wave (km/s) = 6.57300 7.29975 6.94588
#
# Compressibility (1/GPa) = 0.01893551
#
# Stress axis : x y z
#
# Youngs Moduli (GPa) = 65.31271 72.30301 109.91337
#
# Poissons Ratio (x) = 0.23393 0.28018
# Poissons Ratio (y) = 0.21131 0.42510
# Poissons Ratio (z) = 0.16649 0.27964
#
# Static dielectric constant tensor:
#      x y z
#    x 1.600010 0.000000 0.000000 
#    y 0.000000 1.504490 0.000000 
#    z 0.000000 0.000000 1.648170 
# 
# From -- ./inp_files/16513.got.cif
#   From: 2010.05.17/outbox.cif.g08.bks.cpg/sg66_9_cif.got.tgz:16513.got - 2010.06.03 17:51:23.
