data_PCOD9498309
_publ_section_title
;
Structure prediction by ZEFSAII (Michael W. Deem and Ramdas Pophale) SiO2 
 PCOD9498309
Probable space group: C C C M
;
_chemical_formula_sum "Si O2"
_cell_formula_units_Z 64
_cell_length_a 10.262109
_cell_length_b 9.068578
_cell_length_c 27.188859
_cell_angle_alpha 90.000000
_cell_angle_beta 90.000000
_cell_angle_gamma 90.000000
_cell_volume 2530.269605
_symmetry_space_group_name_H-M "C C C M"
_symmetry_group_IT_number 66
_symmetry_cell_setting 'orthorhombic'
loop_
_space_group_symop_operation_xyz
x,y,z
-x,-y,z
x,-y,1/2-z
-x,y,1/2-z
-x,-y,-z
x,y,-z
-x,y,1/2+z
x,-y,1/2+z
1/2+x,1/2+y,z
1/2-x,1/2-y,z
1/2+x,1/2-y,1/2-z
1/2-x,1/2+y,1/2-z
1/2-x,1/2-y,-z
1/2+x,1/2+y,-z
1/2-x,1/2+y,1/2+z
1/2+x,1/2-y,1/2+z
loop_
_atom_site_type_symbol
_atom_site_label
_atom_site_fract_x
_atom_site_fract_y
_atom_site_fract_z
Si Si1 0.306448 0.104132 0.138171
Si Si2 0.360375 0.126922 0.718777
Si Si3 0.983782 0.673780 0.946715
Si Si4 0.852483 0.064086 0.945399
O O1 0.250000 0.250000 0.167353
O O2 0.400473 0.193937 0.101591
O O3 0.215874 0.014536 0.099892
O O4 0.371444 0.970480 0.168850
O O5 0.500000 0.160156 0.750000
O O6 0.250000 0.250000 0.711390
O O7 0.291197 0.000000 0.750000
O O8 0.116632 0.762506 0.940491
O O9 0.000000 0.500000 0.948928
O O10 0.927862 0.720509 0.000000
O O11 0.794330 0.036579 0.000000
O O12 0.000000 0.000000 0.946105
#
# Coordination Sequence:
#
# PCOD9498309 Si02
#       4
#    16  16  16  16
#     4  12  25  44  76 113 149 206 260 322 387 474
#     4  11  29  56  83 114 149 195 256 334 413 483
#     4  10  23  40  64 105 159 209 253 308 372 453
#     4  10  21  39  66 109 161 213 260 303 369 461
#
# _framework density 25.293745999999999
#
# number of rings (size 3 to 8) (size 9 to 14) (size 15 to 20)
#    0.000    1.250    2.500    1.500    7.000    1.500 
#    4.500    5.000    0.000    0.000    0.000    0.000 
#    0.000    3.000    0.000    0.000    0.000    0.000 
#
# Total GULP energy -178192.135880 kJ/mol
# GULP energy per Si atom -5568.504246 kJ/mol
# Density = 2.523618 g / cm^3
# Si number density = 25.293746 Si / 1000 Ang^3
#
#
#
# Elastic Constant Matrix: (Units=GPa)
#
#
# Indices 1 2 3 4 5 6 
#
# 1 135.8539 78.7191 68.4410 0.0000 0.0000 0.0000
# 2 78.7191 205.2265 53.9659 0.0000 0.0000 0.0000
# 3 68.4410 53.9659 132.9138 0.0000 0.0000 0.0000
# 4 0.0000 0.0000 0.0000 1773.7010 0.0000 0.0000
# 5 0.0000 0.0000 0.0000 0.0000 38.0842 0.0000
# 6 0.0000 0.0000 0.0000 0.0000 0.0000 39.2492
#
#
#
# Elastic Compliance Matrix: (Units=1/GPa)
#
#
# Indices 1 2 3 4 5 6 
#
# 1 0.011566 -0.003213 -0.004651 0.000000 0.000000 0.000000
# 2 -0.003213 0.006348 -0.000923 0.000000 0.000000 0.000000
# 3 -0.004651 -0.000923 0.010293 0.000000 0.000000 0.000000
# 4 0.000000 0.000000 0.000000 0.000564 0.000000 0.000000
# 5 0.000000 0.000000 0.000000 0.000000 0.026258 0.000000
# 6 0.000000 0.000000 0.000000 0.000000 0.000000 0.025478
#
#
# Mechanical properties :
#
#
# Convention : Reuss Voigt Hill
#
# Bulk Modulus (GPa) = 94.04710 97.36069 95.70390
# Shear Modulus (GPa) = 49.20064 388.39810 218.79937
#
# Velocity S-wave (km/s) = 4.41519 12.40517 9.31081
# Velocity P-wave (km/s) = 7.95328 15.61282 12.38981
#
# Compressibility (1/GPa) = 0.01063297
#
# Stress axis : x y z
#
# Youngs Moduli (GPa) = 86.46165 157.53360 97.15161
#
# Poissons Ratio (x) = 0.50621 0.45184
# Poissons Ratio (y) = 0.27783 0.08964
# Poissons Ratio (z) = 0.40212 0.14536
#
# Static dielectric constant tensor:
#      x y z
#    x 2.191870 0.000000 0.000000 
#    y 0.000000 2.110560 0.000000 
#    z 0.000000 0.000000 2.236920 
# 
# From -- ./inp_files/68567.got.cif
#   From: 2010.05.17/outbox.cif.g08.bks.cpg/sg66_35_cif.got.tgz:68567.got - 2010.06.03 17:51:23.
