data_PCOD9498015
_publ_section_title
;
Structure prediction by ZEFSAII (Michael W. Deem and Ramdas Pophale) SiO2 
 PCOD9498015
Probable space group: C C C M
;
_chemical_formula_sum "Si O2"
_cell_formula_units_Z 72
_cell_length_a 21.503029
_cell_length_b 8.338874
_cell_length_c 21.911254
_cell_angle_alpha 90.000000
_cell_angle_beta 90.000000
_cell_angle_gamma 90.000000
_cell_volume 3928.929949
_symmetry_space_group_name_H-M "C C C M"
_symmetry_group_IT_number 66
_symmetry_cell_setting 'orthorhombic'
loop_
_space_group_symop_operation_xyz
x,y,z
-x,-y,z
x,-y,1/2-z
-x,y,1/2-z
-x,-y,-z
x,y,-z
-x,y,1/2+z
x,-y,1/2+z
1/2+x,1/2+y,z
1/2-x,1/2-y,z
1/2+x,1/2-y,1/2-z
1/2-x,1/2+y,1/2-z
1/2-x,1/2-y,-z
1/2+x,1/2+y,-z
1/2-x,1/2+y,1/2+z
1/2+x,1/2-y,1/2+z
loop_
_atom_site_type_symbol
_atom_site_label
_atom_site_fract_x
_atom_site_fract_y
_atom_site_fract_z
Si Si1 0.435903 0.817805 0.726727
Si Si2 0.657082 0.609196 0.699701
Si Si3 0.063967 0.100327 0.880453
Si Si4 0.720583 0.001281 0.000000
Si Si5 0.250000 0.750000 0.898017
Si Si6 0.854609 0.824985 0.000000
O O1 0.500000 0.738609 0.750000
O O2 0.376774 0.744349 0.760782
O O3 0.439290 0.771766 0.655264
O O4 0.437050 0.000000 0.750000
O O5 0.691554 0.500000 0.750000
O O6 0.603462 0.506177 0.667071
O O7 0.700217 0.670918 0.646454
O O8 0.103896 0.129829 0.941323
O O9 0.000000 0.000000 0.891533
O O10 0.718288 0.117052 0.941293
O O11 0.789955 0.924468 0.000000
O O12 0.669639 0.859833 0.000000
#
# Coordination Sequence:
#
# PCOD9498015 Si02
#       6
#    16  16  16   8   8   8
#     4  10  21  37  62  91 123 158 197 250 314 369
#     4  10  22  38  61  92 121 162 199 252 314 366
#     4  11  21  40  65  91 125 161 205 252 309 377
#     4  10  24  42  65  80 123 172 210 262 300 364
#     4  11  22  44  62  88 124 163 214 256 306 365
#     4  11  23  42  61  92 117 166 219 254 307 355
#
# _framework density 18.325600000000001
#
# number of rings (size 3 to 8) (size 9 to 14) (size 15 to 20)
#    0.000    1.556    4.444    0.333    3.111    0.889 
#    4.000    0.000    0.000    4.000    0.000    0.000 
#    0.000    0.000    0.000    0.000    0.000    0.000 
#
# Total GULP energy -200524.652833 kJ/mol
# GULP energy per Si atom -5570.129245 kJ/mol
# Density = 1.828389 g / cm^3
# Si number density = 18.325600 Si / 1000 Ang^3
#
#
#
# Elastic Constant Matrix: (Units=GPa)
#
#
# Indices 1 2 3 4 5 6 
#
# 1 66.0700 36.1552 44.7145 0.0000 0.0000 0.0000
# 2 36.1552 102.8984 53.8607 0.0000 0.0000 0.0000
# 3 44.7145 53.8607 135.1660 0.0000 0.0000 0.0000
# 4 0.0000 0.0000 0.0000 24.2852 0.0000 0.0000
# 5 0.0000 0.0000 0.0000 0.0000 31.7382 0.0000
# 6 0.0000 0.0000 0.0000 0.0000 0.0000 21.8562
#
#
#
# Elastic Compliance Matrix: (Units=1/GPa)
#
#
# Indices 1 2 3 4 5 6 
#
# 1 0.021209 -0.004776 -0.005113 0.000000 0.000000 0.000000
# 2 -0.004776 0.013355 -0.003742 0.000000 0.000000 0.000000
# 3 -0.005113 -0.003742 0.010581 0.000000 0.000000 0.000000
# 4 0.000000 0.000000 0.000000 0.041177 0.000000 0.000000
# 5 0.000000 0.000000 0.000000 0.000000 0.031508 0.000000
# 6 0.000000 0.000000 0.000000 0.000000 0.000000 0.045754
#
#
# Mechanical properties :
#
#
# Convention : Reuss Voigt Hill
#
# Bulk Modulus (GPa) = 55.91737 63.73278 59.82508
# Shear Modulus (GPa) = 25.40560 26.86952 26.13756
#
# Velocity S-wave (km/s) = 3.72740 3.83329 3.78072
# Velocity P-wave (km/s) = 7.00744 7.37873 7.19548
#
# Compressibility (1/GPa) = 0.01788353
#
# Stress axis : x y z
#
# Youngs Moduli (GPa) = 47.14874 74.87843 94.51043
#
# Poissons Ratio (x) = 0.35761 0.48326
# Poissons Ratio (y) = 0.22518 0.35363
# Poissons Ratio (z) = 0.24108 0.28018
#
# Static dielectric constant tensor:
#      x y z
#    x 1.631440 0.000000 0.000000 
#    y 0.000000 1.710420 0.000000 
#    z 0.000000 0.000000 1.623350 
# 
# From -- ./inp_files/43471.got.cif
#   From: 2010.05.17/outbox.cif.g08.bks.cpg/sg66_22_cif.got.tgz:43471.got - 2010.06.03 17:51:23.
