data_PCOD9498094
_publ_section_title
;
Structure prediction by ZEFSAII (Michael W. Deem and Ramdas Pophale) SiO2 
 PCOD9498094
Probable space group: C C C M
;
_chemical_formula_sum "Si O2"
_cell_formula_units_Z 64
_cell_length_a 26.714894
_cell_length_b 7.518093
_cell_length_c 17.092851
_cell_angle_alpha 90.000000
_cell_angle_beta 90.000000
_cell_angle_gamma 90.000000
_cell_volume 3433.014643
_symmetry_space_group_name_H-M "C C C M"
_symmetry_group_IT_number 66
_symmetry_cell_setting 'orthorhombic'
loop_
_space_group_symop_operation_xyz
x,y,z
-x,-y,z
x,-y,1/2-z
-x,y,1/2-z
-x,-y,-z
x,y,-z
-x,y,1/2+z
x,-y,1/2+z
1/2+x,1/2+y,z
1/2-x,1/2-y,z
1/2+x,1/2-y,1/2-z
1/2-x,1/2+y,1/2-z
1/2-x,1/2-y,-z
1/2+x,1/2+y,-z
1/2-x,1/2+y,1/2+z
1/2+x,1/2-y,1/2+z
loop_
_atom_site_type_symbol
_atom_site_label
_atom_site_fract_x
_atom_site_fract_y
_atom_site_fract_z
Si Si1 0.192570 0.791171 0.240896
Si Si2 0.366641 0.768460 0.909818
Si Si3 0.943041 0.056108 0.592628
Si Si4 0.100643 0.605247 0.325113
O O1 0.250000 0.750000 0.258937
O O2 0.178437 0.743923 0.151713
O O3 0.154190 0.681962 0.295224
O O4 0.183413 0.000000 0.250000
O O5 0.405549 0.608710 0.891509
O O6 0.392219 0.957779 0.891878
O O7 0.351828 0.754107 0.000000
O O8 0.937837 0.098715 0.500000
O O9 0.929452 0.226403 0.644148
O O10 0.000000 0.000000 0.606821
O O11 0.078964 0.500000 0.250000
#
# Coordination Sequence:
#
# PCOD9498094 Si02
#       4
#    16  16  16  16
#     4  11  21  39  61  85 118 158 199 247 307 359
#     4  10  21  38  61  88 120 157 200 251 299 356
#     4  10  21  39  63  88 123 165 201 248 306 358
#     4  10  21  38  60  87 120 160 198 253 300 356
#
# _framework density 18.642506999999998
#
# number of rings (size 3 to 8) (size 9 to 14) (size 15 to 20)
#    0.000    1.750    2.500    3.000    0.000    1.500 
#    0.000   17.500    0.000    3.750    0.000    0.000 
#    0.000    0.000    0.000    0.000    0.000    0.000 
#
# Total GULP energy -178658.986246 kJ/mol
# GULP energy per Si atom -5583.093320 kJ/mol
# Density = 1.860008 g / cm^3
# Si number density = 18.642507 Si / 1000 Ang^3
#
#
#
# Elastic Constant Matrix: (Units=GPa)
#
#
# Indices 1 2 3 4 5 6 
#
# 1 76.5092 40.5115 47.6840 0.0000 0.0000 0.0000
# 2 40.5115 152.4581 52.2452 0.0000 0.0000 0.0000
# 3 47.6840 52.2452 72.1178 0.0000 0.0000 0.0000
# 4 0.0000 0.0000 0.0000 33.1734 0.0000 0.0000
# 5 0.0000 0.0000 0.0000 0.0000 22.6131 0.0000
# 6 0.0000 0.0000 0.0000 0.0000 0.0000 21.6641
#
#
#
# Elastic Compliance Matrix: (Units=1/GPa)
#
#
# Indices 1 2 3 4 5 6 
#
# 1 0.022386 -0.001166 -0.013957 0.000000 0.000000 0.000000
# 2 -0.001166 0.008786 -0.005594 0.000000 0.000000 0.000000
# 3 -0.013957 -0.005594 0.027147 0.000000 0.000000 0.000000
# 4 0.000000 0.000000 0.000000 0.030145 0.000000 0.000000
# 5 0.000000 0.000000 0.000000 0.000000 0.044222 0.000000
# 6 0.000000 0.000000 0.000000 0.000000 0.000000 0.046159
#
#
# Mechanical properties :
#
#
# Convention : Reuss Voigt Hill
#
# Bulk Modulus (GPa) = 59.22278 64.66294 61.94286
# Shear Modulus (GPa) = 22.13285 26.19976 24.16630
#
# Velocity S-wave (km/s) = 3.44935 3.75290 3.60432
# Velocity P-wave (km/s) = 6.90656 7.31711 7.11480
#
# Compressibility (1/GPa) = 0.01688539
#
# Stress axis : x y z
#
# Youngs Moduli (GPa) = 44.67013 113.81784 36.83587
#
# Poissons Ratio (x) = 0.13266 0.51413
# Poissons Ratio (y) = 0.05207 0.20607
# Poissons Ratio (z) = 0.62348 0.63673
#
# Static dielectric constant tensor:
#      x y z
#    x 1.625120 0.000000 0.000000 
#    y 0.000000 1.644700 0.000000 
#    z 0.000000 0.000000 1.640260 
# 
# From -- ./inp_files/24167.got.cif
#   From: 2010.05.17/outbox.cif.g08.bks.cpg/sg66_13_cif.got.tgz:24167.got - 2010.06.03 17:51:23.
