data_PCOD9498406
_publ_section_title
;
Structure prediction by ZEFSAII (Michael W. Deem and Ramdas Pophale) SiO2 
 PCOD9498406
Probable space group: C C C M
;
_chemical_formula_sum "Si O2"
_cell_formula_units_Z 80
_cell_length_a 11.485163
_cell_length_b 21.482088
_cell_length_c 14.471658
_cell_angle_alpha 90.000000
_cell_angle_beta 90.000000
_cell_angle_gamma 90.000000
_cell_volume 3570.523905
_symmetry_space_group_name_H-M "C C C M"
_symmetry_group_IT_number 66
_symmetry_cell_setting 'orthorhombic'
loop_
_space_group_symop_operation_xyz
x,y,z
-x,-y,z
x,-y,1/2-z
-x,y,1/2-z
-x,-y,-z
x,y,-z
-x,y,1/2+z
x,-y,1/2+z
1/2+x,1/2+y,z
1/2-x,1/2-y,z
1/2+x,1/2-y,1/2-z
1/2-x,1/2+y,1/2-z
1/2-x,1/2-y,-z
1/2+x,1/2+y,-z
1/2-x,1/2+y,1/2+z
1/2+x,1/2-y,1/2+z
loop_
_atom_site_type_symbol
_atom_site_label
_atom_site_fract_x
_atom_site_fract_y
_atom_site_fract_z
Si Si1 0.610830 0.241588 0.398519
Si Si2 0.950301 0.402630 0.608942
Si Si3 0.187700 0.577683 0.208057
Si Si4 0.862974 0.985870 0.105086
Si Si5 0.884400 0.862851 0.794284
O O1 0.562016 0.255585 0.500000
O O2 0.750000 0.250000 0.402468
O O3 0.577902 0.170724 0.378020
O O4 0.577111 0.296222 0.330552
O O5 0.926946 0.418628 0.500000
O O6 0.879303 0.435269 0.693489
O O7 0.651125 0.412474 0.626931
O O8 0.283483 0.529808 0.168380
O O9 0.085308 0.586760 0.134285
O O10 0.271233 0.637256 0.228807
O O11 0.829785 0.998343 0.000000
O O12 0.000000 0.000000 0.115288
O O13 0.000000 0.890954 0.750000
#
# Coordination Sequence:
#
# PCOD9498406 Si02
#       5
#    16  16  16  16  16
#     4  10  21  40  67  98 135 184 241 296 360 440
#     4  10  23  45  73 107 147 191 243 304 377 448
#     4  11  23  42  72 105 144 187 241 302 365 436
#     4  11  24  44  68  98 143 192 241 301 363 434
#     4  12  24  39  67 100 141 184 244 297 364 434
#
# _framework density 22.405676
#
# number of rings (size 3 to 8) (size 9 to 14) (size 15 to 20)
#    0.000    1.200    4.000    1.800    2.800    0.800 
#    0.000    8.000    0.000   12.600    0.000    0.000 
#    0.000    0.000    0.000    0.000    0.000    0.000 
#
# Total GULP energy -223227.671977 kJ/mol
# GULP energy per Si atom -5580.691799 kJ/mol
# Density = 2.235468 g / cm^3
# Si number density = 22.405676 Si / 1000 Ang^3
#
#
#
# Elastic Constant Matrix: (Units=GPa)
#
#
# Indices 1 2 3 4 5 6 
#
# 1 137.7774 29.0871 58.7634 0.0000 0.0000 0.0000
# 2 29.0871 91.8719 60.3121 0.0000 0.0000 0.0000
# 3 58.7634 60.3121 164.7544 0.0000 0.0000 0.0000
# 4 0.0000 0.0000 0.0000 30.3699 0.0000 0.0000
# 5 0.0000 0.0000 0.0000 0.0000 23.2187 0.0000
# 6 0.0000 0.0000 0.0000 0.0000 0.0000 21.1965
#
#
#
# Elastic Compliance Matrix: (Units=1/GPa)
#
#
# Indices 1 2 3 4 5 6 
#
# 1 0.008621 -0.000936 -0.002732 0.000000 0.000000 0.000000
# 2 -0.000936 0.014430 -0.004949 0.000000 0.000000 0.000000
# 3 -0.002732 -0.004949 0.008856 0.000000 0.000000 0.000000
# 4 0.000000 0.000000 0.000000 0.032927 0.000000 0.000000
# 5 0.000000 0.000000 0.000000 0.000000 0.043069 0.000000
# 6 0.000000 0.000000 0.000000 0.000000 0.000000 0.047178
#
#
# Mechanical properties :
#
#
# Convention : Reuss Voigt Hill
#
# Bulk Modulus (GPa) = 68.15182 76.74764 72.44973
# Shear Modulus (GPa) = 28.21604 31.37310 29.79457
#
# Velocity S-wave (km/s) = 3.55255 3.74602 3.65057
# Velocity P-wave (km/s) = 6.87828 7.28274 7.08340
#
# Compressibility (1/GPa) = 0.01467312
#
# Stress axis : x y z
#
# Youngs Moduli (GPa) = 115.99592 69.30199 112.92142
#
# Poissons Ratio (x) = 0.06485 0.30854
# Poissons Ratio (y) = 0.10854 0.55880
# Poissons Ratio (z) = 0.31694 0.34294
#
# Static dielectric constant tensor:
#      x y z
#    x 1.872970 0.000000 0.000000 
#    y 0.000000 1.898860 0.000000 
#    z 0.000000 0.000000 1.866990 
# 
# From -- ./inp_files/28080.got.cif
#   From: 2010.05.17/outbox.cif.g08.bks.cpg/sg66_15_cif.got.tgz:28080.got - 2010.06.03 17:51:23.
