data_PCOD9498076
_publ_section_title
;
Structure prediction by ZEFSAII (Michael W. Deem and Ramdas Pophale) SiO2 
 PCOD9498076
Probable space group: C C C M
;
_chemical_formula_sum "Si O2"
_cell_formula_units_Z 116
_cell_length_a 25.466154
_cell_length_b 7.912371
_cell_length_c 26.683124
_cell_angle_alpha 90.000000
_cell_angle_beta 90.000000
_cell_angle_gamma 90.000000
_cell_volume 5376.587005
_symmetry_space_group_name_H-M "C C C M"
_symmetry_group_IT_number 66
_symmetry_cell_setting 'orthorhombic'
loop_
_space_group_symop_operation_xyz
x,y,z
-x,-y,z
x,-y,1/2-z
-x,y,1/2-z
-x,-y,-z
x,y,-z
-x,y,1/2+z
x,-y,1/2+z
1/2+x,1/2+y,z
1/2-x,1/2-y,z
1/2+x,1/2-y,1/2-z
1/2-x,1/2+y,1/2-z
1/2-x,1/2-y,-z
1/2+x,1/2+y,-z
1/2-x,1/2+y,1/2+z
1/2+x,1/2-y,1/2+z
loop_
_atom_site_type_symbol
_atom_site_label
_atom_site_fract_x
_atom_site_fract_y
_atom_site_fract_z
Si Si1 0.000000 0.500000 0.000000
Si Si2 0.808957 0.800717 0.410445
Si Si3 0.477704 0.763045 0.410177
Si Si4 0.771482 0.929645 0.169940
Si Si5 0.080375 0.059273 0.442161
Si Si6 0.836301 0.421488 0.179106
Si Si7 0.975818 0.182462 0.302402
Si Si8 0.136071 0.768235 0.274058
O O1 0.031512 0.397057 0.954397
O O2 0.750000 0.750000 0.431518
O O3 0.860313 0.868905 0.439430
O O4 0.831346 0.644402 0.377278
O O5 0.795845 0.952159 0.372178
O O6 0.535854 0.689228 0.423090
O O7 0.433436 0.615886 0.414568
O O8 0.479890 0.801895 0.350934
O O9 0.750000 0.750000 0.148853
O O10 0.813870 0.872221 0.209605
O O11 0.723946 0.036388 0.193010
O O12 0.067628 0.029455 0.500000
O O13 0.859837 0.283233 0.216242
O O14 0.864501 0.595515 0.192806
O O15 0.916262 0.141347 0.289098
O O16 0.000000 0.248781 0.250000
O O17 0.000000 0.000000 0.315300
#
# Coordination Sequence:
#
# PCOD9498076 Si02
#       8
#     4  16  16  16  16  16  16  16
#     4  12  24  46  74 104 130 170 230 310 354 386
#     4  10  22  37  63  96 130 177 216 276 349 417
#     4  11  23  44  70 104 132 169 237 286 345 408
#     4   9  19  35  59  91 123 169 223 274 320 391
#     4  11  21  42  71  94 131 170 227 290 342 407
#     4   9  21  37  56  91 130 166 231 271 330 403
#     4  11  25  42  65  99 139 186 227 269 344 433
#     4  10  21  38  59  85 130 181 219 279 331 394
#
# _framework density 21.575026000000001
#
# number of rings (size 3 to 8) (size 9 to 14) (size 15 to 20)
#    0.000    1.793    2.759    1.241    1.931   12.414 
#    2.483    1.379    0.000    0.414    0.000    0.000 
#    0.000    0.000    0.000    0.000    0.000    0.000 
#
# Total GULP energy -322956.566688 kJ/mol
# GULP energy per Si atom -5568.216667 kJ/mol
# Density = 2.152592 g / cm^3
# Si number density = 21.575026 Si / 1000 Ang^3
#
#
#
# Elastic Constant Matrix: (Units=GPa)
#
#
# Indices 1 2 3 4 5 6 
#
# 1 92.0845 16.5522 9.8890 0.0000 0.0000 0.0000
# 2 16.5522 53.9486 13.7965 0.0000 0.0000 0.0000
# 3 9.8890 13.7965 121.2393 0.0000 0.0000 0.0000
# 4 0.0000 0.0000 0.0000 0.5538 0.0000 0.0000
# 5 0.0000 0.0000 0.0000 0.0000 -1.7184 0.0000
# 6 0.0000 0.0000 0.0000 0.0000 0.0000 13.9188
#
#
#
# Elastic Compliance Matrix: (Units=1/GPa)
#
#
# Indices 1 2 3 4 5 6 
#
# 1 0.011529 -0.003396 -0.000554 0.000000 0.000000 0.000000
# 2 -0.003396 0.020092 -0.002009 0.000000 0.000000 0.000000
# 3 -0.000554 -0.002009 0.008522 0.000000 0.000000 0.000000
# 4 0.000000 0.000000 0.000000 1.805712 0.000000 0.000000
# 5 0.000000 0.000000 0.000000 0.000000 -0.581931 0.000000
# 6 0.000000 0.000000 0.000000 0.000000 0.000000 0.071846
#
#
# Mechanical properties :
#
#
# Convention : Reuss Voigt Hill
#
# Bulk Modulus (GPa) = 35.42940 38.63862 37.03401
# Shear Modulus (GPa) = 3.68434 17.68647 10.68540
#
# Velocity S-wave (km/s) = 1.30820 2.86626 2.22787
# Velocity P-wave (km/s) = 4.32886 5.37604 4.88061
#
# Compressibility (1/GPa) = 0.02822515
#
# Stress axis : x y z
#
# Youngs Moduli (GPa) = 86.73426 49.77128 117.34340
#
# Poissons Ratio (x) = 0.16901 0.06501
# Poissons Ratio (y) = 0.29453 0.23579
# Poissons Ratio (z) = 0.04805 0.10001
#
# Static dielectric constant tensor:
#      x y z
#    x 1.805690 0.000000 0.000000 
#    y 0.000000 1.838840 0.000000 
#    z 0.000000 0.000000 1.772910 
# 
# From -- ./inp_files/66114.got.cif
#   From: 2010.05.17/outbox.cif.g08.bks.cpg/sg66_34_cif.got.tgz:66114.got - 2010.06.03 17:51:23.
