data_PCOD9498317
_publ_section_title
;
Structure prediction by ZEFSAII (Michael W. Deem and Ramdas Pophale) SiO2 
 PCOD9498317
Probable space group: C C C M
;
_chemical_formula_sum "Si O2"
_cell_formula_units_Z 112
_cell_length_a 22.882443
_cell_length_b 14.905215
_cell_length_c 15.008311
_cell_angle_alpha 90.000000
_cell_angle_beta 90.000000
_cell_angle_gamma 90.000000
_cell_volume 5118.850604
_symmetry_space_group_name_H-M "C C C M"
_symmetry_group_IT_number 66
_symmetry_cell_setting 'orthorhombic'
loop_
_space_group_symop_operation_xyz
x,y,z
-x,-y,z
x,-y,1/2-z
-x,y,1/2-z
-x,-y,-z
x,y,-z
-x,y,1/2+z
x,-y,1/2+z
1/2+x,1/2+y,z
1/2-x,1/2-y,z
1/2+x,1/2-y,1/2-z
1/2-x,1/2+y,1/2-z
1/2-x,1/2-y,-z
1/2+x,1/2+y,-z
1/2-x,1/2+y,1/2+z
1/2+x,1/2-y,1/2+z
loop_
_atom_site_type_symbol
_atom_site_label
_atom_site_fract_x
_atom_site_fract_y
_atom_site_fract_z
Si Si1 0.562039 0.292284 0.107362
Si Si2 0.246771 0.353134 0.728753
Si Si3 0.343942 0.562083 0.104336
Si Si4 0.824038 0.143873 0.396086
Si Si5 0.065255 0.756303 0.400130
Si Si6 0.116302 0.390679 0.321702
Si Si7 0.440183 0.945859 0.360534
O O1 0.599841 0.379300 0.131613
O O2 0.495374 0.289393 0.141799
O O3 0.595933 0.202332 0.136204
O O4 0.557871 0.289849 0.000000
O O5 0.250000 0.250000 0.698161
O O6 0.290925 0.409750 0.667932
O O7 0.269023 0.355438 0.830430
O O8 0.181162 0.385677 0.715718
O O9 0.351742 0.455485 0.109492
O O10 0.331015 0.583448 0.000000
O O11 0.808937 0.162209 0.500000
O O12 0.873186 0.212881 0.359372
O O13 0.068474 0.795729 0.500000
O O14 0.061021 0.649357 0.407705
O O15 0.108466 0.479168 0.382408
O O16 0.072362 0.411726 0.240227
O O17 0.500000 0.000000 0.374516
#
# Coordination Sequence:
#
# PCOD9498317 Si02
#       7
#    16  16  16  16  16  16  16
#     4  10  21  39  66  98 129 168 217 273 340 403
#     4  12  24  42  70  95 131 179 227 275 335 400
#     4  10  23  43  66  98 137 174 220 278 335 398
#     4  10  24  46  67  94 138 181 225 282 332 397
#     4  10  22  41  66  96 130 172 222 272 336 402
#     4  11  23  38  60  94 128 172 215 267 330 396
#     4  11  23  39  63  92 134 173 212 269 334 394
#
# _framework density 21.879911
#
# number of rings (size 3 to 8) (size 9 to 14) (size 15 to 20)
#    0.000    1.429    2.857    2.143    4.000    2.571 
#    0.000    3.571    0.000    1.714    0.000    0.000 
#    0.000    0.000    0.000    0.000    0.000    0.000 
#
# Total GULP energy -312807.031019 kJ/mol
# GULP energy per Si atom -5585.839840 kJ/mol
# Density = 2.183011 g / cm^3
# Si number density = 21.879911 Si / 1000 Ang^3
#
#
#
# Elastic Constant Matrix: (Units=GPa)
#
#
# Indices 1 2 3 4 5 6 
#
# 1 150.2602 40.0748 31.7333 0.0000 0.0000 0.0000
# 2 40.0748 101.2103 6.7597 0.0000 0.0000 0.0000
# 3 31.7333 6.7597 56.7757 0.0000 0.0000 0.0000
# 4 0.0000 0.0000 0.0000 30.0180 0.0000 0.0000
# 5 0.0000 0.0000 0.0000 0.0000 0.9084 0.0000
# 6 0.0000 0.0000 0.0000 0.0000 0.0000 41.0490
#
#
#
# Elastic Compliance Matrix: (Units=1/GPa)
#
#
# Indices 1 2 3 4 5 6 
#
# 1 0.008375 -0.003028 -0.004321 0.000000 0.000000 0.000000
# 2 -0.003028 0.011054 0.000376 0.000000 0.000000 0.000000
# 3 -0.004321 0.000376 0.019983 0.000000 0.000000 0.000000
# 4 0.000000 0.000000 0.000000 0.033313 0.000000 0.000000
# 5 0.000000 0.000000 0.000000 0.000000 1.100889 0.000000
# 6 0.000000 0.000000 0.000000 0.000000 0.000000 0.024361
#
#
# Mechanical properties :
#
#
# Convention : Reuss Voigt Hill
#
# Bulk Modulus (GPa) = 39.26452 51.70909 45.48680
# Shear Modulus (GPa) = 4.09699 29.70698 16.90198
#
# Velocity S-wave (km/s) = 1.36987 3.68873 2.78238
# Velocity P-wave (km/s) = 4.52620 6.46736 5.58181
#
# Compressibility (1/GPa) = 0.02546828
#
# Stress axis : x y z
#
# Youngs Moduli (GPa) = 119.40248 90.46427 50.04197
#
# Poissons Ratio (x) = 0.27389 0.21621
# Poissons Ratio (y) = 0.36150 -0.01882
# Poissons Ratio (z) = 0.51588 -0.03402
#
# Static dielectric constant tensor:
#      x y z
#    x 1.802240 0.000000 0.000000 
#    y 0.000000 1.816340 0.000000 
#    z 0.000000 0.000000 1.889580 
# 
# From -- ./inp_files/32495.got.cif
#   From: 2010.05.17/outbox.cif.g08.bks.cpg/sg66_17_cif.got.tgz:32495.got - 2010.06.03 17:51:23.
