data_PCOD9498951
_publ_section_title
;
Structure prediction by ZEFSAII (Michael W. Deem and Ramdas Pophale) SiO2 
 PCOD9498951
Probable space group: C C C M
;
_chemical_formula_sum "Si O2"
_cell_formula_units_Z 88
_cell_length_a 29.163439
_cell_length_b 5.271445
_cell_length_c 23.561724
_cell_angle_alpha 90.000000
_cell_angle_beta 90.000000
_cell_angle_gamma 90.000000
_cell_volume 3622.225465
_symmetry_space_group_name_H-M "C C C M"
_symmetry_group_IT_number 66
_symmetry_cell_setting 'orthorhombic'
loop_
_space_group_symop_operation_xyz
x,y,z
-x,-y,z
x,-y,1/2-z
-x,y,1/2-z
-x,-y,-z
x,y,-z
-x,y,1/2+z
x,-y,1/2+z
1/2+x,1/2+y,z
1/2-x,1/2-y,z
1/2+x,1/2-y,1/2-z
1/2-x,1/2+y,1/2-z
1/2-x,1/2-y,-z
1/2+x,1/2+y,-z
1/2-x,1/2+y,1/2+z
1/2+x,1/2-y,1/2+z
loop_
_atom_site_type_symbol
_atom_site_label
_atom_site_fract_x
_atom_site_fract_y
_atom_site_fract_z
Si Si1 0.613044 0.622353 0.697864
Si Si2 0.702238 0.119485 0.500000
Si Si3 0.750000 0.750000 0.656874
Si Si4 0.167831 0.062127 0.100752
Si Si5 0.456581 0.179656 0.500000
Si Si6 0.971054 0.240614 0.873504
Si Si7 0.138087 0.247000 0.500000
Si Si8 0.189079 0.500000 0.750000
O O1 0.586549 0.500000 0.750000
O O2 0.638071 0.414767 0.657466
O O3 0.576692 0.771205 0.659939
O O4 0.653374 0.783555 0.728261
O O5 0.750000 0.250000 0.500000
O O6 0.680624 0.203082 0.439277
O O7 0.691543 0.827310 0.500000
O O8 0.787361 0.902484 0.619800
O O9 0.775091 0.538777 0.697132
O O10 0.136267 0.907596 0.057283
O O11 0.460652 0.317846 0.560090
O O12 0.404831 0.062382 0.500000
O O13 0.500000 0.000000 0.500000
O O14 0.000000 0.500000 0.870231
O O15 0.000000 0.000000 0.851705
#
# Coordination Sequence:
#
# PCOD9498951 Si02
#       8
#    16   8   8  16   8  16   8   8
#     4  11  26  46  69 101 143 193 243 304 371 445
#     4  11  24  39  68 101 135 188 235 298 383 449
#     4  10  22  45  64  92 140 185 240 312 346 450
#     4  10  23  41  64  97 137 177 238 297 365 432
#     4  10  22  45  73 109 147 195 246 308 386 465
#     4  11  26  49  79 113 149 196 248 315 382 461
#     4  11  21  43  65 100 144 181 236 302 378 447
#     4  10  26  44  67  98 140 192 255 296 370 438
#
# _framework density 24.294454999999999
#
# number of rings (size 3 to 8) (size 9 to 14) (size 15 to 20)
#    0.000    1.455    1.818    1.364    7.636    9.091 
#    0.000    0.000    0.000    0.000    0.000    0.000 
#    0.000    0.000    0.000    0.000    0.000    0.000 
#
# Total GULP energy -245123.633738 kJ/mol
# GULP energy per Si atom -5570.991676 kJ/mol
# Density = 2.423916 g / cm^3
# Si number density = 24.294455 Si / 1000 Ang^3
#
#
#
# Elastic Constant Matrix: (Units=GPa)
#
#
# Indices 1 2 3 4 5 6 
#
# 1 109.4318 12.4575 40.4345 0.0000 0.0000 0.0000
# 2 12.4575 40.7228 23.5121 0.0000 0.0000 0.0000
# 3 40.4345 23.5121 179.7003 0.0000 0.0000 0.0000
# 4 0.0000 0.0000 0.0000 1.2748 0.0000 0.0000
# 5 0.0000 0.0000 0.0000 0.0000 -8.1600 0.0000
# 6 0.0000 0.0000 0.0000 0.0000 0.0000 25.6275
#
#
#
# Elastic Compliance Matrix: (Units=1/GPa)
#
#
# Indices 1 2 3 4 5 6 
#
# 1 0.010104 -0.001924 -0.002022 0.000000 0.000000 0.000000
# 2 -0.001924 0.026929 -0.003091 0.000000 0.000000 0.000000
# 3 -0.002022 -0.003091 0.006424 0.000000 0.000000 0.000000
# 4 0.000000 0.000000 0.000000 0.784428 0.000000 0.000000
# 5 0.000000 0.000000 0.000000 0.000000 -0.122549 0.000000
# 6 0.000000 0.000000 0.000000 0.000000 0.000000 0.039021
#
#
# Mechanical properties :
#
#
# Convention : Reuss Voigt Hill
#
# Bulk Modulus (GPa) = 34.03064 53.62925 43.82994
# Shear Modulus (GPa) = 6.50852 20.64518 13.57685
#
# Velocity S-wave (km/s) = 1.63854 2.91828 2.36656
# Velocity P-wave (km/s) = 4.19735 5.78600 5.05448
#
# Compressibility (1/GPa) = 0.02938529
#
# Stress axis : x y z
#
# Youngs Moduli (GPa) = 98.96919 37.13454 155.66297
#
# Poissons Ratio (x) = 0.07143 0.31473
# Poissons Ratio (y) = 0.19038 0.48109
# Poissons Ratio (z) = 0.20010 0.11477
#
# Static dielectric constant tensor:
#      x y z
#    x 2.006460 0.000000 0.000000 
#    y 0.000000 1.879180 0.000000 
#    z 0.000000 0.000000 1.946280 
# 
# From -- ./inp_files/60457.got.cif
#   From: 2010.05.17/outbox.cif.g08.bks.cpg/sg66_31_cif.got.tgz:60457.got - 2010.06.03 17:51:23.
