data_PCOD9498922
_publ_section_title
;
Structure prediction by ZEFSAII (Michael W. Deem and Ramdas Pophale) SiO2 
 PCOD9498922
Probable space group: C C C M
;
_chemical_formula_sum "Si O2"
_cell_formula_units_Z 112
_cell_length_a 13.631552
_cell_length_b 17.892347
_cell_length_c 22.627624
_cell_angle_alpha 90.000000
_cell_angle_beta 90.000000
_cell_angle_gamma 90.000000
_cell_volume 5518.887869
_symmetry_space_group_name_H-M "C C C M"
_symmetry_group_IT_number 66
_symmetry_cell_setting 'orthorhombic'
loop_
_space_group_symop_operation_xyz
x,y,z
-x,-y,z
x,-y,1/2-z
-x,y,1/2-z
-x,-y,-z
x,y,-z
-x,y,1/2+z
x,-y,1/2+z
1/2+x,1/2+y,z
1/2-x,1/2-y,z
1/2+x,1/2-y,1/2-z
1/2-x,1/2+y,1/2-z
1/2-x,1/2-y,-z
1/2+x,1/2+y,-z
1/2-x,1/2+y,1/2+z
1/2+x,1/2-y,1/2+z
loop_
_atom_site_type_symbol
_atom_site_label
_atom_site_fract_x
_atom_site_fract_y
_atom_site_fract_z
Si Si1 0.232301 0.923271 0.431461
Si Si2 0.481536 0.272495 0.681071
Si Si3 0.403488 0.045309 0.569261
Si Si4 0.194348 0.679950 0.861693
Si Si5 0.672348 0.186123 0.655264
Si Si6 0.937888 0.925715 0.835951
Si Si7 0.739256 0.412083 0.751394
O O1 0.206885 0.913697 0.500000
O O2 0.289069 0.852207 0.404285
O O3 0.137361 0.935831 0.390489
O O4 0.309694 0.990717 0.425867
O O5 0.500000 0.278893 0.750000
O O6 0.381090 0.229217 0.675589
O O7 0.566664 0.222370 0.651915
O O8 0.492324 0.354793 0.653723
O O9 0.423044 0.060049 0.500000
O O10 0.369224 0.122013 0.599734
O O11 0.500000 0.000000 0.592469
O O12 0.250000 0.750000 0.893691
O O13 0.254534 0.628215 0.814884
O O14 0.750000 0.250000 0.671634
O O15 0.682775 0.126259 0.707524
O O16 0.866746 0.906181 0.780565
O O17 0.000000 0.000000 0.825858
O O18 0.760631 0.500000 0.750000
#
# Coordination Sequence:
#
# PCOD9498922 Si02
#       7
#    16  16  16  16  16  16  16
#     4  10  22  43  72  96 131 177 224 282 334 392
#     4  12  24  40  63  94 136 176 208 271 342 396
#     4  10  23  47  72  94 129 178 231 281 336 405
#     4  12  25  40  66  98 136 170 221 281 343 399
#     4  11  20  41  61  94 135 163 214 271 324 388
#     4  11  26  41  64  98 135 178 224 265 333 411
#     4  11  23  40  62  92 132 174 217 264 322 404
#
# _framework density 20.293942999999999
#
# number of rings (size 3 to 8) (size 9 to 14) (size 15 to 20)
#    0.000    1.000    4.286    3.857    6.000    0.857 
#    0.000    1.429    0.000    0.000    0.000    0.000 
#    0.000    0.000    0.000    0.000    0.000    0.000 
#
# Total GULP energy -312751.021550 kJ/mol
# GULP energy per Si atom -5584.839671 kJ/mol
# Density = 2.024775 g / cm^3
# Si number density = 20.293943 Si / 1000 Ang^3
#
#
#
# Elastic Constant Matrix: (Units=GPa)
#
#
# Indices 1 2 3 4 5 6 
#
# 1 65.6451 37.9685 25.8774 0.0000 0.0000 0.0000
# 2 37.9685 154.5345 37.8449 0.0000 0.0000 0.0000
# 3 25.8774 37.8449 78.7008 0.0000 0.0000 0.0000
# 4 0.0000 0.0000 0.0000 12.7896 0.0000 0.0000
# 5 0.0000 0.0000 0.0000 0.0000 -6.8872 0.0000
# 6 0.0000 0.0000 0.0000 0.0000 0.0000 37.5954
#
#
#
# Elastic Compliance Matrix: (Units=1/GPa)
#
#
# Indices 1 2 3 4 5 6 
#
# 1 0.019099 -0.003576 -0.004561 0.000000 0.000000 0.000000
# 2 -0.003576 0.008004 -0.002673 0.000000 0.000000 0.000000
# 3 -0.004561 -0.002673 0.015491 0.000000 0.000000 0.000000
# 4 0.000000 0.000000 0.000000 0.078189 0.000000 0.000000
# 5 0.000000 0.000000 0.000000 0.000000 -0.145198 0.000000
# 6 0.000000 0.000000 0.000000 0.000000 0.000000 0.026599
#
#
# Mechanical properties :
#
#
# Convention : Reuss Voigt Hill
#
# Bulk Modulus (GPa) = 47.67383 55.80688 51.74036
# Shear Modulus (GPa) = 162.35628 21.84553 92.10090
#
# Velocity S-wave (km/s) = 8.95411 3.28450 6.74403
# Velocity P-wave (km/s) = 11.42121 6.47633 9.28404
#
# Compressibility (1/GPa) = 0.02097587
#
# Stress axis : x y z
#
# Youngs Moduli (GPa) = 52.35764 124.93323 64.55195
#
# Poissons Ratio (x) = 0.44673 0.29439
# Poissons Ratio (y) = 0.18722 0.17256
# Poissons Ratio (z) = 0.23878 0.33398
#
# Static dielectric constant tensor:
#      x y z
#    x 1.767780 0.000000 0.000000 
#    y 0.000000 1.741030 0.000000 
#    z 0.000000 0.000000 1.709660 
# 
# From -- ./inp_files/58242.got.cif
#   From: 2010.05.17/outbox.cif.g08.bks.cpg/sg66_30_cif.got.tgz:58242.got - 2010.06.03 17:51:23.
