data_PCOD9498408
_publ_section_title
;
Structure prediction by ZEFSAII (Michael W. Deem and Ramdas Pophale) SiO2 
 PCOD9498408
Probable space group: C C C M
;
_chemical_formula_sum "Si O2"
_cell_formula_units_Z 64
_cell_length_a 13.834942
_cell_length_b 13.138275
_cell_length_c 14.724034
_cell_angle_alpha 90.000000
_cell_angle_beta 90.000000
_cell_angle_gamma 90.000000
_cell_volume 2676.347502
_symmetry_space_group_name_H-M "C C C M"
_symmetry_group_IT_number 66
_symmetry_cell_setting 'orthorhombic'
loop_
_space_group_symop_operation_xyz
x,y,z
-x,-y,z
x,-y,1/2-z
-x,y,1/2-z
-x,-y,-z
x,y,-z
-x,y,1/2+z
x,-y,1/2+z
1/2+x,1/2+y,z
1/2-x,1/2-y,z
1/2+x,1/2-y,1/2-z
1/2-x,1/2+y,1/2-z
1/2-x,1/2-y,-z
1/2+x,1/2+y,-z
1/2-x,1/2+y,1/2+z
1/2+x,1/2-y,1/2+z
loop_
_atom_site_type_symbol
_atom_site_label
_atom_site_fract_x
_atom_site_fract_y
_atom_site_fract_z
Si Si1 0.176556 0.316280 0.830990
Si Si2 0.975327 0.259638 0.889466
Si Si3 0.832038 0.094399 0.810878
Si Si4 0.143116 0.462252 0.396950
O O1 0.250000 0.250000 0.893969
O O2 0.256809 0.345751 0.754601
O O3 0.133673 0.428766 0.850850
O O4 0.076565 0.254771 0.836608
O O5 0.910026 0.166186 0.856578
O O6 0.917058 0.363923 0.864824
O O7 0.988271 0.258689 0.000000
O O8 0.757387 0.058358 0.888210
O O9 0.868482 0.000000 0.750000
O O10 0.114108 0.477155 0.500000
#
# Coordination Sequence:
#
# PCOD9498408 Si02
#       4
#    16  16  16  16
#     4  11  24  41  65  98 140 180 224 282 345 405
#     4  11  23  43  72 101 133 178 231 283 339 409
#     4  10  23  43  66  96 135 178 226 283 345 410
#     4  10  21  40  67  99 134 174 224 283 346 411
#
# _framework density 23.913188999999999
#
# number of rings (size 3 to 8) (size 9 to 14) (size 15 to 20)
#    0.000    1.500    0.000    4.500    0.000   10.000 
#    0.000   17.500    0.000    7.500    0.000    3.500 
#    0.000    0.000    0.000    0.000    0.000    0.000 
#
# Total GULP energy -178418.357022 kJ/mol
# GULP energy per Si atom -5575.573657 kJ/mol
# Density = 2.385876 g / cm^3
# Si number density = 23.913189 Si / 1000 Ang^3
#
#
#
# Elastic Constant Matrix: (Units=GPa)
#
#
# Indices 1 2 3 4 5 6 
#
# 1 174.2866 46.0031 25.3460 0.0000 0.0000 0.0000
# 2 46.0031 114.9954 13.7975 0.0000 0.0000 0.0000
# 3 25.3460 13.7975 82.3420 0.0000 0.0000 0.0000
# 4 0.0000 0.0000 0.0000 10.7921 0.0000 0.0000
# 5 0.0000 0.0000 0.0000 0.0000 -3.7417 0.0000
# 6 0.0000 0.0000 0.0000 0.0000 0.0000 -63.8742
#
#
#
# Elastic Compliance Matrix: (Units=1/GPa)
#
#
# Indices 1 2 3 4 5 6 
#
# 1 0.006622 -0.002454 -0.001627 0.000000 0.000000 0.000000
# 2 -0.002454 0.009784 -0.000884 0.000000 0.000000 0.000000
# 3 -0.001627 -0.000884 0.012793 0.000000 0.000000 0.000000
# 4 0.000000 0.000000 0.000000 0.092660 0.000000 0.000000
# 5 0.000000 0.000000 0.000000 0.000000 -0.267262 0.000000
# 6 0.000000 0.000000 0.000000 0.000000 0.000000 -0.015656
#
#
# Mechanical properties :
#
#
# Convention : Reuss Voigt Hill
#
# Bulk Modulus (GPa) = 51.89674 60.21302 56.05488
# Shear Modulus (GPa) = -34.55311 7.73374 -13.40968
#
# Velocity S-wave (km/s) = -3.80536 1.80031 -2.37062
# Velocity P-wave (km/s) = 1.56255 5.43654 3.99985
#
# Compressibility (1/GPa) = 0.01926903
#
# Stress axis : x y z
#
# Youngs Moduli (GPa) = 151.01154 102.21058 78.16482
#
# Poissons Ratio (x) = 0.25081 0.12719
# Poissons Ratio (y) = 0.37056 0.06910
# Poissons Ratio (z) = 0.24572 0.09036
#
# Static dielectric constant tensor:
#      x y z
#    x 1.910590 0.000000 0.000000 
#    y 0.000000 2.153240 0.000000 
#    z 0.000000 0.000000 2.127510 
# 
# From -- ./inp_files/37975.got.cif
#   From: 2010.05.17/outbox.cif.g08.bks.cpg/sg66_19_cif.got.tgz:37975.got - 2010.06.03 17:51:23.
