data_PCOD9498269
_publ_section_title
;
Structure prediction by ZEFSAII (Michael W. Deem and Ramdas Pophale) SiO2 
 PCOD9498269
Probable space group: C C C M
;
_chemical_formula_sum "Si O2"
_cell_formula_units_Z 56
_cell_length_a 16.560923
_cell_length_b 4.992984
_cell_length_c 30.465568
_cell_angle_alpha 90.000000
_cell_angle_beta 90.000000
_cell_angle_gamma 90.000000
_cell_volume 2519.149791
_symmetry_space_group_name_H-M "C C C M"
_symmetry_group_IT_number 66
_symmetry_cell_setting 'orthorhombic'
loop_
_space_group_symop_operation_xyz
x,y,z
-x,-y,z
x,-y,1/2-z
-x,y,1/2-z
-x,-y,-z
x,y,-z
-x,y,1/2+z
x,-y,1/2+z
1/2+x,1/2+y,z
1/2-x,1/2-y,z
1/2+x,1/2-y,1/2-z
1/2-x,1/2+y,1/2-z
1/2-x,1/2-y,-z
1/2+x,1/2+y,-z
1/2-x,1/2+y,1/2+z
1/2+x,1/2-y,1/2+z
loop_
_atom_site_type_symbol
_atom_site_label
_atom_site_fract_x
_atom_site_fract_y
_atom_site_fract_z
Si Si1 0.941994 0.750027 0.500000
Si Si2 0.156746 0.749295 0.281731
Si Si3 0.410875 0.614232 0.370766
Si Si4 0.160368 0.352550 0.586424
O O1 0.889883 0.735846 0.543939
O O2 0.000000 0.500000 0.500000
O O3 0.000000 0.000000 0.500000
O O4 0.145580 0.500000 0.250000
O O5 0.250000 0.750000 0.299178
O O6 0.095748 0.766039 0.322250
O O7 0.147753 0.000000 0.250000
O O8 0.500000 0.500000 0.382412
O O9 0.360501 0.340039 0.372793
O O10 0.368587 0.843996 0.401490
O O11 0.250000 0.250000 0.575751
#
# Coordination Sequence:
#
# PCOD9498269 Si02
#       4
#     8  16  16  16
#     4  12  25  44  69  98 135 170 213 272 335 394
#     4  10  21  39  64  93 127 170 220 272 328 394
#     4  12  25  43  67  98 135 175 222 280 340 396
#     4  12  25  44  69  98 132 175 224 271 330 404
#
# _framework density 22.229723
#
# number of rings (size 3 to 8) (size 9 to 14) (size 15 to 20)
#    0.000    0.571    0.000    9.857    0.000    2.857 
#    0.000    5.714    0.000    0.000    0.000    0.000 
#    0.000    0.000    0.000    0.000    0.000    0.000 
#
# Total GULP energy -156353.529313 kJ/mol
# GULP energy per Si atom -5584.054618 kJ/mol
# Density = 2.217913 g / cm^3
# Si number density = 22.229723 Si / 1000 Ang^3
#
#
#
# Elastic Constant Matrix: (Units=GPa)
#
#
# Indices 1 2 3 4 5 6 
#
# 1 148.2693 59.6812 37.3469 0.0000 0.0000 0.0000
# 2 59.6812 178.7047 20.6669 0.0000 0.0000 0.0000
# 3 37.3469 20.6669 75.6660 0.0000 0.0000 0.0000
# 4 0.0000 0.0000 0.0000 8.9287 0.0000 0.0000
# 5 0.0000 0.0000 0.0000 0.0000 28.1017 0.0000
# 6 0.0000 0.0000 0.0000 0.0000 0.0000 33.2722
#
#
#
# Elastic Compliance Matrix: (Units=1/GPa)
#
#
# Indices 1 2 3 4 5 6 
#
# 1 0.008644 -0.002471 -0.003591 0.000000 0.000000 0.000000
# 2 -0.002471 0.006485 -0.000551 0.000000 0.000000 0.000000
# 3 -0.003591 -0.000551 0.015139 0.000000 0.000000 0.000000
# 4 0.000000 0.000000 0.000000 0.111998 0.000000 0.000000
# 5 0.000000 0.000000 0.000000 0.000000 0.035585 0.000000
# 6 0.000000 0.000000 0.000000 0.000000 0.000000 0.030055
#
#
# Mechanical properties :
#
#
# Convention : Reuss Voigt Hill
#
# Bulk Modulus (GPa) = 58.68682 70.89220 64.78951
# Shear Modulus (GPa) = 22.04441 33.05686 27.55064
#
# Velocity S-wave (km/s) = 3.15249 3.86042 3.52427
# Velocity P-wave (km/s) = 6.30146 7.19934 6.76531
#
# Compressibility (1/GPa) = 0.01703960
#
# Stress axis : x y z
#
# Youngs Moduli (GPa) = 115.68854 154.20282 66.05366
#
# Poissons Ratio (x) = 0.38110 0.23722
# Poissons Ratio (y) = 0.28592 0.03642
# Poissons Ratio (z) = 0.41548 0.08503
#
# Static dielectric constant tensor:
#      x y z
#    x 2.018210 0.000000 0.000000 
#    y 0.000000 1.803350 0.000000 
#    z 0.000000 0.000000 1.694730 
# 
# From -- ./inp_files/66781.got.cif
#   From: 2010.05.17/outbox.cif.g08.bks.cpg/sg66_34_cif.got.tgz:66781.got - 2010.06.03 17:51:23.
