data_PCOD9498826
_publ_section_title
;
Structure prediction by ZEFSAII (Michael W. Deem and Ramdas Pophale) SiO2 
 PCOD9498826
Probable space group: C C C M
;
_chemical_formula_sum "Si O2"
_cell_formula_units_Z 68
_cell_length_a 25.759821
_cell_length_b 5.292673
_cell_length_c 22.510997
_cell_angle_alpha 90.000000
_cell_angle_beta 90.000000
_cell_angle_gamma 90.000000
_cell_volume 3069.111267
_symmetry_space_group_name_H-M "C C C M"
_symmetry_group_IT_number 66
_symmetry_cell_setting 'orthorhombic'
loop_
_space_group_symop_operation_xyz
x,y,z
-x,-y,z
x,-y,1/2-z
-x,y,1/2-z
-x,-y,-z
x,y,-z
-x,y,1/2+z
x,-y,1/2+z
1/2+x,1/2+y,z
1/2-x,1/2-y,z
1/2+x,1/2-y,1/2-z
1/2-x,1/2+y,1/2-z
1/2-x,1/2-y,-z
1/2+x,1/2+y,-z
1/2-x,1/2+y,1/2+z
1/2+x,1/2-y,1/2+z
loop_
_atom_site_type_symbol
_atom_site_label
_atom_site_fract_x
_atom_site_fract_y
_atom_site_fract_z
Si Si1 0.338355 0.722549 0.567719
Si Si2 0.910348 0.308583 0.194653
Si Si3 0.437672 0.992812 0.565101
Si Si4 0.191215 0.732104 0.861488
Si Si5 0.000000 0.000000 0.750000
O O1 0.321369 0.763802 0.500000
O O2 0.401926 0.738951 0.567670
O O3 0.318776 0.454940 0.591028
O O4 0.318257 0.955683 0.608524
O O5 0.911064 0.500000 0.250000
O O6 0.921045 0.389799 0.127162
O O7 0.851477 0.213717 0.189398
O O8 0.959956 0.141650 0.208306
O O9 0.422577 0.105715 0.500000
O O10 0.500000 0.000000 0.565264
O O11 0.250000 0.750000 0.840187
#
# Coordination Sequence:
#
# PCOD9498826 Si02
#       5
#    16  16  16  16   4
#     4  10  22  41  68 104 145 194 246 295 364 438
#     4  11  26  45  70 102 141 188 240 298 360 441
#     4   9  19  39  67 100 141 182 229 295 363 427
#     4  11  25  44  68 103 145 192 243 303 360 432
#     4  12  26  44  78 102 136 188 250 300 370 452
#
# _framework density 22.156251000000001
#
# number of rings (size 3 to 8) (size 9 to 14) (size 15 to 20)
#    0.000    1.647    0.000    3.176    9.882    3.765 
#    2.118    0.588    0.000    0.000    0.000    0.000 
#    0.000    0.000    0.000    0.000    0.000    0.000 
#
# Total GULP energy -189330.245902 kJ/mol
# GULP energy per Si atom -5568.536644 kJ/mol
# Density = 2.210582 g / cm^3
# Si number density = 22.156251 Si / 1000 Ang^3
#
#
#
# Elastic Constant Matrix: (Units=GPa)
#
#
# Indices 1 2 3 4 5 6 
#
# 1 199.8898 26.3641 47.5004 0.0000 0.0000 0.0000
# 2 26.3641 59.5496 21.8344 0.0000 0.0000 0.0000
# 3 47.5004 21.8344 131.8960 0.0000 0.0000 0.0000
# 4 0.0000 0.0000 0.0000 71.8767 0.0000 0.0000
# 5 0.0000 0.0000 0.0000 0.0000 15.6536 0.0000
# 6 0.0000 0.0000 0.0000 0.0000 0.0000 11.5998
#
#
#
# Elastic Compliance Matrix: (Units=1/GPa)
#
#
# Indices 1 2 3 4 5 6 
#
# 1 0.005660 -0.001872 -0.001729 0.000000 0.000000 0.000000
# 2 -0.001872 0.018497 -0.002388 0.000000 0.000000 0.000000
# 3 -0.001729 -0.002388 0.008600 0.000000 0.000000 0.000000
# 4 0.000000 0.000000 0.000000 0.013913 0.000000 0.000000
# 5 0.000000 0.000000 0.000000 0.000000 0.063883 0.000000
# 6 0.000000 0.000000 0.000000 0.000000 0.000000 0.086209
#
#
# Mechanical properties :
#
#
# Convention : Reuss Voigt Hill
#
# Bulk Modulus (GPa) = 48.12352 64.74813 56.43582
# Shear Modulus (GPa) = 23.18406 39.53513 31.35959
#
# Velocity S-wave (km/s) = 3.23830 4.22877 3.76624
# Velocity P-wave (km/s) = 5.97908 7.28905 6.66632
#
# Compressibility (1/GPa) = 0.02077986
#
# Stress axis : x y z
#
# Youngs Moduli (GPa) = 176.66399 54.06252 116.28531
#
# Poissons Ratio (x) = 0.10122 0.20101
# Poissons Ratio (y) = 0.33075 0.27767
# Poissons Ratio (z) = 0.30538 0.12909
#
# Static dielectric constant tensor:
#      x y z
#    x 1.861350 0.000000 0.000000 
#    y 0.000000 1.888590 0.000000 
#    z 0.000000 0.000000 2.101790 
# 
# From -- ./inp_files/52830.got.cif
#   From: 2010.05.17/outbox.cif.g08.bks.cpg/sg66_27_cif.got.tgz:52830.got - 2010.06.03 17:51:23.
