data_PCOD9498638
_publ_section_title
;
Structure prediction by ZEFSAII (Michael W. Deem and Ramdas Pophale) SiO2 
 PCOD9498638
Probable space group: C C C M
;
_chemical_formula_sum "Si O2"
_cell_formula_units_Z 116
_cell_length_a 26.562680
_cell_length_b 26.382371
_cell_length_c 9.989425
_cell_angle_alpha 90.000000
_cell_angle_beta 90.000000
_cell_angle_gamma 90.000000
_cell_volume 7000.453968
_symmetry_space_group_name_H-M "C C C M"
_symmetry_group_IT_number 66
_symmetry_cell_setting 'orthorhombic'
loop_
_space_group_symop_operation_xyz
x,y,z
-x,-y,z
x,-y,1/2-z
-x,y,1/2-z
-x,-y,-z
x,y,-z
-x,y,1/2+z
x,-y,1/2+z
1/2+x,1/2+y,z
1/2-x,1/2-y,z
1/2+x,1/2-y,1/2-z
1/2-x,1/2+y,1/2-z
1/2-x,1/2-y,-z
1/2+x,1/2+y,-z
1/2-x,1/2+y,1/2+z
1/2+x,1/2-y,1/2+z
loop_
_atom_site_type_symbol
_atom_site_label
_atom_site_fract_x
_atom_site_fract_y
_atom_site_fract_z
Si Si1 0.926354 0.324533 0.347369
Si Si2 0.500000 0.000000 0.250000
Si Si3 0.810980 0.707099 0.149739
Si Si4 0.257647 0.644132 0.157759
Si Si5 0.186206 0.452938 0.656162
Si Si6 0.657954 0.675173 0.154345
Si Si7 0.045537 0.208134 0.158486
Si Si8 0.573455 0.915013 0.347120
O O1 0.941181 0.336653 0.500000
O O2 0.865651 0.319098 0.342918
O O3 0.946058 0.268288 0.314685
O O4 0.941568 0.368915 0.248404
O O5 0.536217 0.962516 0.332182
O O6 0.776363 0.686028 0.266739
O O7 0.821318 0.766920 0.159406
O O8 0.789868 0.696639 0.000000
O O9 0.226330 0.592144 0.171188
O O10 0.309843 0.643831 0.239240
O O11 0.264217 0.654926 0.000000
O O12 0.198160 0.500000 0.750000
O O13 0.185276 0.468255 0.500000
O O14 0.130057 0.432806 0.688955
O O15 0.598615 0.680364 0.184546
O O16 0.663778 0.657790 0.000000
O O17 0.000000 0.189958 0.250000
O O18 0.034900 0.203390 0.000000
O O19 0.574400 0.897276 0.500000
#
# Coordination Sequence:
#
# PCOD9498638 Si02
#       8
#    16   4  16  16  16  16  16  16
#     4   9  19  34  52  72  95 127 167 208 252 307
#     4  12  26  40  52  70  90 124 176 226 276 320
#     4   9  17  31  50  71  98 134 168 198 243 306
#     4  11  21  32  49  76 103 127 163 211 259 303
#     4  10  22  39  55  73  97 128 166 213 266 319
#     4   9  19  34  50  72 104 137 171 202 239 302
#     4   9  19  35  52  74 103 136 171 206 243 291
#     4  11  23  39  54  69  92 123 165 222 273 312
#
# _framework density 16.570354999999999
#
# number of rings (size 3 to 8) (size 9 to 14) (size 15 to 20)
#    0.000    2.207    2.069    2.690    0.966    6.069 
#    0.000    2.759    0.000    0.000    0.000    0.000 
#    0.000    0.552    0.000    6.069    0.000    4.414 
#
# Total GULP energy -323673.817395 kJ/mol
# GULP energy per Si atom -5580.583059 kJ/mol
# Density = 1.653264 g / cm^3
# Si number density = 16.570355 Si / 1000 Ang^3
#
#
#
# Elastic Constant Matrix: (Units=GPa)
#
#
# Indices 1 2 3 4 5 6 
#
# 1 113.7532 29.4860 68.0693 0.0000 0.0000 0.0000
# 2 29.4860 34.7439 32.0565 0.0000 0.0000 0.0000
# 3 68.0693 32.0565 85.8211 0.0000 0.0000 0.0000
# 4 0.0000 0.0000 0.0000 22.8941 0.0000 0.0000
# 5 0.0000 0.0000 0.0000 0.0000 37.6274 0.0000
# 6 0.0000 0.0000 0.0000 0.0000 0.0000 19.0670
#
#
#
# Elastic Compliance Matrix: (Units=1/GPa)
#
#
# Indices 1 2 3 4 5 6 
#
# 1 0.016938 -0.003020 -0.012306 0.000000 0.000000 0.000000
# 2 -0.003020 0.044456 -0.014210 0.000000 0.000000 0.000000
# 3 -0.012306 -0.014210 0.026721 0.000000 0.000000 0.000000
# 4 0.000000 0.000000 0.000000 0.043679 0.000000 0.000000
# 5 0.000000 0.000000 0.000000 0.000000 0.026576 0.000000
# 6 0.000000 0.000000 0.000000 0.000000 0.000000 0.052447
#
#
# Mechanical properties :
#
#
# Convention : Reuss Voigt Hill
#
# Bulk Modulus (GPa) = 34.43323 54.83798 44.63561
# Shear Modulus (GPa) = 17.88459 22.89812 20.39136
#
# Velocity S-wave (km/s) = 3.28885 3.72139 3.51179
# Velocity P-wave (km/s) = 5.93694 7.18546 6.59083
#
# Compressibility (1/GPa) = 0.02904171
#
# Stress axis : x y z
#
# Youngs Moduli (GPa) = 59.03973 22.49406 37.42433
#
# Poissons Ratio (x) = 0.06794 0.46055
# Poissons Ratio (y) = 0.17832 0.53180
# Poissons Ratio (z) = 0.72655 0.31964
#
# Static dielectric constant tensor:
#      x y z
#    x 1.595770 0.000000 0.000000 
#    y 0.000000 1.530810 0.000000 
#    z 0.000000 0.000000 1.559340 
# 
# From -- ./inp_files/9635.got.cif
#   From: 2010.05.17/outbox.cif.g08.bks.cpg/sg66_5_cif.got.tgz:9635.got - 2010.06.03 17:51:23.
