data_PCOD9498667
_publ_section_title
;
Structure prediction by ZEFSAII (Michael W. Deem and Ramdas Pophale) SiO2 
 PCOD9498667
Probable space group: C C C M
;
_chemical_formula_sum "Si O2"
_cell_formula_units_Z 64
_cell_length_a 9.944084
_cell_length_b 14.026140
_cell_length_c 25.480262
_cell_angle_alpha 90.000000
_cell_angle_beta 90.000000
_cell_angle_gamma 90.000000
_cell_volume 3553.913417
_symmetry_space_group_name_H-M "C C C M"
_symmetry_group_IT_number 66
_symmetry_cell_setting 'orthorhombic'
loop_
_space_group_symop_operation_xyz
x,y,z
-x,-y,z
x,-y,1/2-z
-x,y,1/2-z
-x,-y,-z
x,y,-z
-x,y,1/2+z
x,-y,1/2+z
1/2+x,1/2+y,z
1/2-x,1/2-y,z
1/2+x,1/2-y,1/2-z
1/2-x,1/2+y,1/2-z
1/2-x,1/2-y,-z
1/2+x,1/2+y,-z
1/2-x,1/2+y,1/2+z
1/2+x,1/2-y,1/2+z
loop_
_atom_site_type_symbol
_atom_site_label
_atom_site_fract_x
_atom_site_fract_y
_atom_site_fract_z
Si Si1 0.403389 0.908483 0.500000
Si Si2 0.750000 0.250000 0.849973
Si Si3 0.158339 0.886958 0.242430
Si Si4 0.581596 0.597723 0.000000
Si Si5 0.978526 0.255532 0.413029
Si Si6 0.250000 0.250000 0.172520
O O1 0.241952 0.923215 0.500000
O O2 0.438694 0.844074 0.449619
O O3 0.500000 0.000000 0.500000
O O4 0.788327 0.161299 0.811390
O O5 0.624564 0.232696 0.888096
O O6 0.242820 0.839498 0.288980
O O7 0.000000 0.861351 0.250000
O O8 0.168830 0.000000 0.250000
O O9 0.500000 0.500000 0.000000
O O10 0.541687 0.662330 0.050364
O O11 0.877622 0.249442 0.364702
#
# Coordination Sequence:
#
# PCOD9498667 Si02
#       6
#     8   8  16   8  16   8
#     4  11  25  42  63  95 127 160 206 262 310 362
#     4  11  24  39  64  98 120 167 212 253 306 366
#     4  10  22  39  62  92 124 159 208 258 306 366
#     4  11  25  42  65  93 123 166 208 254 310 372
#     4  11  23  43  64  86 130 166 206 249 313 369
#     4  11  20  41  64  84 122 169 196 253 306 372
#
# _framework density 18.008317000000002
#
# number of rings (size 3 to 8) (size 9 to 14) (size 15 to 20)
#    0.000    1.250    5.000    0.750    3.500    5.000 
#    0.000    1.250    0.000    0.000    0.000    0.000 
#    0.000    0.000    0.000    0.000    0.000    0.000 
#
# Total GULP energy -178631.168941 kJ/mol
# GULP energy per Si atom -5582.224029 kJ/mol
# Density = 1.796733 g / cm^3
# Si number density = 18.008317 Si / 1000 Ang^3
#
#
#
# Elastic Constant Matrix: (Units=GPa)
#
#
# Indices 1 2 3 4 5 6 
#
# 1 168.3084 56.7273 66.8364 0.0000 0.0000 0.0000
# 2 56.7273 128.3744 47.4875 0.0000 0.0000 0.0000
# 3 66.8364 47.4875 115.6102 0.0000 0.0000 0.0000
# 4 0.0000 0.0000 0.0000 3.0011 0.0000 0.0000
# 5 0.0000 0.0000 0.0000 0.0000 51.6697 0.0000
# 6 0.0000 0.0000 0.0000 0.0000 0.0000 29.0887
#
#
#
# Elastic Compliance Matrix: (Units=1/GPa)
#
#
# Indices 1 2 3 4 5 6 
#
# 1 0.008210 -0.002208 -0.003840 0.000000 0.000000 0.000000
# 2 -0.002208 0.009779 -0.002740 0.000000 0.000000 0.000000
# 3 -0.003840 -0.002740 0.011995 0.000000 0.000000 0.000000
# 4 0.000000 0.000000 0.000000 0.333207 0.000000 0.000000
# 5 0.000000 0.000000 0.000000 0.000000 0.019354 0.000000
# 6 0.000000 0.000000 0.000000 0.000000 0.000000 0.034378
#
#
# Mechanical properties :
#
#
# Convention : Reuss Voigt Hill
#
# Bulk Modulus (GPa) = 80.58794 83.82170 82.20482
# Shear Modulus (GPa) = 11.39899 32.83468 22.11684
#
# Velocity S-wave (km/s) = 2.51865 4.27465 3.50829
# Velocity P-wave (km/s) = 7.30107 8.42678 7.88405
#
# Compressibility (1/GPa) = 0.01240880
#
# Stress axis : x y z
#
# Youngs Moduli (GPa) = 121.79752 102.25976 83.36641
#
# Poissons Ratio (x) = 0.22576 0.32010
# Poissons Ratio (y) = 0.26889 0.22846
# Poissons Ratio (z) = 0.46767 0.28024
#
# Static dielectric constant tensor:
#      x y z
#    x 1.465650 0.000000 0.000000 
#    y 0.000000 1.644940 0.000000 
#    z 0.000000 0.000000 1.619070 
# 
# From -- ./inp_files/55086.got.cif
#   From: 2010.05.17/outbox.cif.g08.bks.cpg/sg66_28_cif.got.tgz:55086.got - 2010.06.03 17:51:23.
