data_PCOD9498740
_publ_section_title
;
Structure prediction by ZEFSAII (Michael W. Deem and Ramdas Pophale) SiO2 
 PCOD9498740
Probable space group: C C C M
;
_chemical_formula_sum "Si O2"
_cell_formula_units_Z 92
_cell_length_a 12.078072
_cell_length_b 20.339012
_cell_length_c 19.072631
_cell_angle_alpha 90.000000
_cell_angle_beta 90.000000
_cell_angle_gamma 90.000000
_cell_volume 4685.307220
_symmetry_space_group_name_H-M "C C C M"
_symmetry_group_IT_number 66
_symmetry_cell_setting 'orthorhombic'
loop_
_space_group_symop_operation_xyz
x,y,z
-x,-y,z
x,-y,1/2-z
-x,y,1/2-z
-x,-y,-z
x,y,-z
-x,y,1/2+z
x,-y,1/2+z
1/2+x,1/2+y,z
1/2-x,1/2-y,z
1/2+x,1/2-y,1/2-z
1/2-x,1/2+y,1/2-z
1/2-x,1/2-y,-z
1/2+x,1/2+y,-z
1/2-x,1/2+y,1/2+z
1/2+x,1/2-y,1/2+z
loop_
_atom_site_type_symbol
_atom_site_label
_atom_site_fract_x
_atom_site_fract_y
_atom_site_fract_z
Si Si1 0.000000 0.500000 0.250000
Si Si2 0.161587 0.064338 0.583601
Si Si3 0.600038 0.582572 0.082762
Si Si4 0.125652 0.715448 0.500000
Si Si5 0.631308 0.280960 0.363460
Si Si6 0.997436 0.418258 0.500000
Si Si7 0.383824 0.104042 0.350049
Si Si8 0.500000 0.790534 0.750000
O O1 0.076350 0.456816 0.301742
O O2 0.184111 0.074363 0.500000
O O3 0.253449 0.099549 0.630876
O O4 0.032451 0.081152 0.595558
O O5 0.160816 0.985877 0.597265
O O6 0.645564 0.642291 0.126313
O O7 0.613726 0.595176 0.000000
O O8 0.250000 0.750000 0.500000
O O9 0.072684 0.747744 0.431045
O O10 0.107459 0.635628 0.500000
O O11 0.750000 0.250000 0.360256
O O12 0.572447 0.257678 0.295317
O O13 0.000000 0.500000 0.500000
O O14 0.057283 0.400466 0.426506
O O15 0.427337 0.164748 0.303186
#
# Coordination Sequence:
#
# PCOD9498740 Si02
#       8
#     4  16  16   8  16   8  16   8
#     4  10  24  38  52  90 132 172 192 270 320 386
#     4   9  19  37  64  98 127 158 204 268 331 385
#     4   9  19  37  64  97 127 154 207 273 322 381
#     4  10  22  40  63  92 127 165 220 274 326 380
#     4  11  23  41  65  89 124 171 216 263 317 384
#     4  12  22  38  67  96 125 169 227 271 322 400
#     4  11  22  39  60  89 129 166 209 259 325 383
#     4  11  26  41  58  85 134 167 210 260 316 385
#
# _framework density 19.635853000000001
#
# number of rings (size 3 to 8) (size 9 to 14) (size 15 to 20)
#    0.000    1.739    4.348    1.043    0.000    6.957 
#    0.000    0.000    0.000    5.217    0.000    0.000 
#    0.000    0.000    0.000    0.000    0.000    0.000 
#
# Total GULP energy -256219.992919 kJ/mol
# GULP energy per Si atom -5569.999846 kJ/mol
# Density = 1.959116 g / cm^3
# Si number density = 19.635853 Si / 1000 Ang^3
#
#
#
# Elastic Constant Matrix: (Units=GPa)
#
#
# Indices 1 2 3 4 5 6 
#
# 1 50.1597 3.4667 22.6561 0.0000 0.0000 0.0000
# 2 3.4667 53.4922 -0.8814 0.0000 0.0000 0.0000
# 3 22.6561 -0.8814 95.3941 0.0000 0.0000 0.0000
# 4 0.0000 0.0000 0.0000 31.8033 0.0000 0.0000
# 5 0.0000 0.0000 0.0000 0.0000 29.0707 0.0000
# 6 0.0000 0.0000 0.0000 0.0000 0.0000 9.4443
#
#
#
# Elastic Compliance Matrix: (Units=1/GPa)
#
#
# Indices 1 2 3 4 5 6 
#
# 1 0.022459 -0.001544 -0.005348 0.000000 0.000000 0.000000
# 2 -0.001544 0.018803 0.000540 0.000000 0.000000 0.000000
# 3 -0.005348 0.000540 0.011758 0.000000 0.000000 0.000000
# 4 0.000000 0.000000 0.000000 0.031443 0.000000 0.000000
# 5 0.000000 0.000000 0.000000 0.000000 0.034399 0.000000
# 6 0.000000 0.000000 0.000000 0.000000 0.000000 0.105884
#
#
# Mechanical properties :
#
#
# Convention : Reuss Voigt Hill
#
# Bulk Modulus (GPa) = 24.80342 27.72542 26.26442
# Shear Modulus (GPa) = 19.92923 25.65065 22.78994
#
# Velocity S-wave (km/s) = 3.18927 3.61822 3.41050
# Velocity P-wave (km/s) = 5.12065 5.62190 5.37712
#
# Compressibility (1/GPa) = 0.04031702
#
# Stress axis : x y z
#
# Youngs Moduli (GPa) = 44.52624 53.18231 85.04834
#
# Poissons Ratio (x) = 0.08209 0.45486
# Poissons Ratio (y) = 0.06873 -0.04596
# Poissons Ratio (z) = 0.23814 -0.02874
#
# Static dielectric constant tensor:
#      x y z
#    x 1.759680 0.000000 0.000000 
#    y 0.000000 1.707230 0.000000 
#    z 0.000000 0.000000 1.612980 
# 
# From -- ./inp_files/38733.got.cif
#   From: 2010.05.17/outbox.cif.g08.bks.cpg/sg66_20_cif.got.tgz:38733.got - 2010.06.03 17:51:23.
