data_PCOD9498312
_publ_section_title
;
Structure prediction by ZEFSAII (Michael W. Deem and Ramdas Pophale) SiO2 
 PCOD9498312
Probable space group: C C C M
;
_chemical_formula_sum "Si O2"
_cell_formula_units_Z 112
_cell_length_a 18.264995
_cell_length_b 22.375781
_cell_length_c 15.050454
_cell_angle_alpha 90.000000
_cell_angle_beta 90.000000
_cell_angle_gamma 90.000000
_cell_volume 6151.023145
_symmetry_space_group_name_H-M "C C C M"
_symmetry_group_IT_number 66
_symmetry_cell_setting 'orthorhombic'
loop_
_space_group_symop_operation_xyz
x,y,z
-x,-y,z
x,-y,1/2-z
-x,y,1/2-z
-x,-y,-z
x,y,-z
-x,y,1/2+z
x,-y,1/2+z
1/2+x,1/2+y,z
1/2-x,1/2-y,z
1/2+x,1/2-y,1/2-z
1/2-x,1/2+y,1/2-z
1/2-x,1/2-y,-z
1/2+x,1/2+y,-z
1/2-x,1/2+y,1/2+z
1/2+x,1/2-y,1/2+z
loop_
_atom_site_type_symbol
_atom_site_label
_atom_site_fract_x
_atom_site_fract_y
_atom_site_fract_z
Si Si1 0.084515 0.500000 0.357217
Si Si2 0.337245 0.242779 0.604648
Si Si3 0.662755 0.242779 0.395352
Si Si4 0.587342 0.675195 0.750000
Si Si5 0.314419 0.110083 0.101731
Si Si6 0.685581 0.110083 0.898269
Si Si7 0.300735 0.428362 0.750000
O O1 0.090289 0.500000 0.250000
O O2 0.126268 0.558038 0.391735
O O3 0.126268 0.441962 0.391735
O O4 0.000000 0.500000 0.382371
O O5 0.351840 0.252256 0.500000
O O6 0.250000 0.250000 0.619664
O O7 0.382174 0.287750 0.665477
O O8 0.350160 0.173303 0.627912
O O9 0.648160 0.252256 0.500000
O O10 0.750000 0.250000 0.380336
O O11 0.617826 0.287750 0.334523
O O12 0.649840 0.173303 0.372088
O O13 0.500000 0.672218 0.750000
O O14 0.625471 0.610244 0.750000
O O15 0.248073 0.091770 0.165553
O O16 0.288621 0.116866 0.000000
O O17 0.751927 0.091770 0.834447
O O18 0.711379 0.116866 0.000000
O O19 0.309965 0.500000 0.750000
#
# Coordination Sequence:
#
# PCOD9498312 Si02
#       7
#    16  16  16  16  16  16  16
#     4  11  23  37  55  88 131 164 194 242 300 359
#     4  10  21  39  66  94 118 153 205 252 294 362
#     4  10  21  39  66  94 118 153 205 252 294 362
#     4  12  26  41  63  90 126 164 194 254 324 362
#     4  11  21  37  64  91 116 159 204 245 297 354
#     4  11  21  37  64  91 116 159 204 245 297 354
#     4  12  23  40  62  90 118 152 213 262 291 358
#
# _framework density 18.208352000000001
#
# number of rings (size 3 to 8) (size 9 to 14) (size 15 to 20)
#    0.000    1.000    5.714    1.714    0.000    3.143 
#    0.000    2.857    0.000    0.000    0.000    4.000 
#    0.000    0.000    0.000    0.000    0.000    0.000 
#
# Total GULP energy -313000.997293 kJ/mol
# GULP energy per Si atom -5589.303523 kJ/mol
# Density = 1.816691 g / cm^3
# Si number density = 18.208352 Si / 1000 Ang^3
#
#
#
# Elastic Constant Matrix: (Units=GPa)
#
#
# Indices 1 2 3 4 5 6 
#
# 1 118.3480 49.7661 48.7166 0.0000 0.0000 0.0000
# 2 49.7661 129.4121 44.2462 0.0000 0.0000 0.0000
# 3 48.7166 44.2462 100.7927 0.0000 0.0000 0.0000
# 4 0.0000 0.0000 0.0000 52.8434 0.0000 0.0000
# 5 0.0000 0.0000 0.0000 0.0000 7.7342 0.0000
# 6 0.0000 0.0000 0.0000 0.0000 0.0000 25.2300
#
#
#
# Elastic Compliance Matrix: (Units=1/GPa)
#
#
# Indices 1 2 3 4 5 6 
#
# 1 0.011431 -0.002950 -0.004230 0.000000 0.000000 0.000000
# 2 -0.002950 0.009853 -0.002900 0.000000 0.000000 0.000000
# 3 -0.004230 -0.002900 0.013239 0.000000 0.000000 0.000000
# 4 0.000000 0.000000 0.000000 0.018924 0.000000 0.000000
# 5 0.000000 0.000000 0.000000 0.000000 0.129296 0.000000
# 6 0.000000 0.000000 0.000000 0.000000 0.000000 0.039635
#
#
# Mechanical properties :
#
#
# Convention : Reuss Voigt Hill
#
# Bulk Modulus (GPa) = 69.61826 70.44562 70.03194
# Shear Modulus (GPa) = 20.21624 30.88310 25.54967
#
# Velocity S-wave (km/s) = 3.33569 4.12284 3.74997
# Velocity P-wave (km/s) = 7.29061 7.83813 7.56932
#
# Compressibility (1/GPa) = 0.01436405
#
# Stress axis : x y z
#
# Youngs Moduli (GPa) = 87.47858 101.49268 75.53496
#
# Poissons Ratio (x) = 0.29937 0.31954
# Poissons Ratio (y) = 0.25803 0.21902
# Poissons Ratio (z) = 0.37006 0.29429
#
# Static dielectric constant tensor:
#      x y z
#    x 1.584740 0.000000 0.000000 
#    y 0.000000 1.636360 0.000000 
#    z 0.000000 0.000000 1.657300 
# 
# From -- ./inp_files/28721.got.cif
#   From: 2010.05.17/outbox.cif.g08.bks.cpg/sg66_15_cif.got.tgz:28721.got - 2010.06.03 17:51:23.
