data_PCOD9498105
_publ_section_title
;
Structure prediction by ZEFSAII (Michael W. Deem and Ramdas Pophale) SiO2 
 PCOD9498105
Probable space group: C C C M
;
_chemical_formula_sum "Si O2"
_cell_formula_units_Z 56
_cell_length_a 8.240435
_cell_length_b 10.548574
_cell_length_c 29.656730
_cell_angle_alpha 90.000000
_cell_angle_beta 90.000000
_cell_angle_gamma 90.000000
_cell_volume 2577.906462
_symmetry_space_group_name_H-M "C C C M"
_symmetry_group_IT_number 66
_symmetry_cell_setting 'orthorhombic'
loop_
_space_group_symop_operation_xyz
x,y,z
-x,-y,z
x,-y,1/2-z
-x,y,1/2-z
-x,-y,-z
x,y,-z
-x,y,1/2+z
x,-y,1/2+z
1/2+x,1/2+y,z
1/2-x,1/2-y,z
1/2+x,1/2-y,1/2-z
1/2-x,1/2+y,1/2-z
1/2-x,1/2-y,-z
1/2+x,1/2+y,-z
1/2-x,1/2+y,1/2+z
1/2+x,1/2-y,1/2+z
loop_
_atom_site_type_symbol
_atom_site_label
_atom_site_fract_x
_atom_site_fract_y
_atom_site_fract_z
Si Si1 0.682445 0.106764 0.119840
Si Si2 0.000000 0.000000 0.577921
Si Si3 0.563671 0.777161 0.948829
Si Si4 0.831699 0.386263 0.223706
O O1 0.750000 0.250000 0.121002
O O2 0.532268 0.131435 0.085467
O O3 0.642899 0.078222 0.171572
O O4 0.829698 0.013844 0.105105
O O5 0.004940 0.133116 0.551657
O O6 0.750000 0.750000 0.936418
O O7 0.555790 0.827435 0.000000
O O8 0.740949 0.500000 0.250000
O O9 0.750000 0.250000 0.225813
O O10 0.000000 0.372564 0.250000
#
# Coordination Sequence:
#
# PCOD9498105 Si02
#       4
#    16   8  16  16
#     4   9  21  40  60  87 121 158 203 253 309 372
#     4  10  21  38  61  84 120 162 197 246 305 364
#     4  10  22  38  59  89 121 157 202 249 303 369
#     4  10  23  40  61  90 120 157 204 253 310 371
#
# _framework density 21.723053
#
# number of rings (size 3 to 8) (size 9 to 14) (size 15 to 20)
#    0.000    2.286    0.000    0.429    0.000   20.571 
#    0.000    2.857    0.000    0.000    0.000    0.000 
#    0.000    0.000    0.000    0.000    0.000    0.000 
#
# Total GULP energy -155997.008797 kJ/mol
# GULP energy per Si atom -5571.321743 kJ/mol
# Density = 2.167361 g / cm^3
# Si number density = 21.723053 Si / 1000 Ang^3
#
#
#
# Elastic Constant Matrix: (Units=GPa)
#
#
# Indices 1 2 3 4 5 6 
#
# 1 129.1118 29.8403 96.2842 0.0000 0.0000 0.0000
# 2 29.8403 136.2889 58.7027 0.0000 0.0000 0.0000
# 3 96.2842 58.7027 182.3650 0.0000 0.0000 0.0000
# 4 0.0000 0.0000 0.0000 35.8964 0.0000 0.0000
# 5 0.0000 0.0000 0.0000 0.0000 24.1596 0.0000
# 6 0.0000 0.0000 0.0000 0.0000 0.0000 41.6809
#
#
#
# Elastic Compliance Matrix: (Units=1/GPa)
#
#
# Indices 1 2 3 4 5 6 
#
# 1 0.012777 0.000126 -0.006786 0.000000 0.000000 0.000000
# 2 0.000126 0.008520 -0.002809 0.000000 0.000000 0.000000
# 3 -0.006786 -0.002809 0.009971 0.000000 0.000000 0.000000
# 4 0.000000 0.000000 0.000000 0.027858 0.000000 0.000000
# 5 0.000000 0.000000 0.000000 0.000000 0.041391 0.000000
# 6 0.000000 0.000000 0.000000 0.000000 0.000000 0.023992
#
#
# Mechanical properties :
#
#
# Convention : Reuss Voigt Hill
#
# Bulk Modulus (GPa) = 81.11456 90.82444 85.96950
# Shear Modulus (GPa) = 33.88513 37.87660 35.88087
#
# Velocity S-wave (km/s) = 3.95380 4.18019 4.06857
# Velocity P-wave (km/s) = 7.63314 8.07463 7.85698
#
# Compressibility (1/GPa) = 0.01232824
#
# Stress axis : x y z
#
# Youngs Moduli (GPa) = 78.26481 117.37576 100.29407
#
# Poissons Ratio (x) = -0.01473 0.68064
# Poissons Ratio (y) = -0.00982 0.28170
# Poissons Ratio (z) = 0.53114 0.32968
#
# Static dielectric constant tensor:
#      x y z
#    x 1.640540 0.000000 0.000000 
#    y 0.000000 1.913060 0.000000 
#    z 0.000000 0.000000 1.774230 
# 
# From -- ./inp_files/61950.got.cif
#   From: 2010.05.17/outbox.cif.g08.bks.cpg/sg66_31_cif.got.tgz:61950.got - 2010.06.03 17:51:23.
