data_PCOD9498840
_publ_section_title
;
Structure prediction by ZEFSAII (Michael W. Deem and Ramdas Pophale) SiO2 
 PCOD9498840
Probable space group: C C C M
;
_chemical_formula_sum "Si O2"
_cell_formula_units_Z 120
_cell_length_a 11.681937
_cell_length_b 24.132539
_cell_length_c 21.466539
_cell_angle_alpha 90.000000
_cell_angle_beta 90.000000
_cell_angle_gamma 90.000000
_cell_volume 6051.735054
_symmetry_space_group_name_H-M "C C C M"
_symmetry_group_IT_number 66
_symmetry_cell_setting 'orthorhombic'
loop_
_space_group_symop_operation_xyz
x,y,z
-x,-y,z
x,-y,1/2-z
-x,y,1/2-z
-x,-y,-z
x,y,-z
-x,y,1/2+z
x,-y,1/2+z
1/2+x,1/2+y,z
1/2-x,1/2-y,z
1/2+x,1/2-y,1/2-z
1/2-x,1/2+y,1/2-z
1/2-x,1/2-y,-z
1/2+x,1/2+y,-z
1/2-x,1/2+y,1/2+z
1/2+x,1/2-y,1/2+z
loop_
_atom_site_type_symbol
_atom_site_label
_atom_site_fract_x
_atom_site_fract_y
_atom_site_fract_z
Si Si1 0.741630 0.408168 0.255304
Si Si2 0.115985 0.880124 0.573099
Si Si3 0.437968 0.121425 0.336963
Si Si4 0.298157 0.056258 0.573393
Si Si5 0.000000 0.277483 0.750000
Si Si6 0.830925 0.557404 0.125748
Si Si7 0.429607 0.446680 0.652686
Si Si8 0.168138 0.797413 0.327348
O O1 0.857795 0.407907 0.215026
O O2 0.760137 0.452429 0.310043
O O3 0.632339 0.417701 0.211437
O O4 0.725800 0.349206 0.290754
O O5 0.091344 0.876971 0.500000
O O6 0.241596 0.908221 0.583120
O O7 0.112574 0.822947 0.611145
O O8 0.023327 0.914335 0.612168
O O9 0.359015 0.110435 0.397470
O O10 0.459876 0.181566 0.306167
O O11 0.558593 0.092906 0.353712
O O12 0.290770 0.060124 0.500000
O O13 0.174588 0.045716 0.604220
O O14 0.363693 0.000251 0.594154
O O15 0.092948 0.236013 0.777936
O O16 0.500000 0.500000 0.673669
O O17 0.250000 0.750000 0.351565
#
# Coordination Sequence:
#
# PCOD9498840 Si02
#       8
#    16  16  16  16   8  16  16  16
#     4  10  22  42  61  99 130 163 212 271 329 389
#     4  11  24  42  62  93 130 168 215 264 320 388
#     4  11  22  40  64  91 129 167 209 270 315 385
#     4  11  25  42  62  92 133 185 222 251 309 386
#     4  12  20  42  67  90 125 158 210 274 340 374
#     4  11  21  39  61  93 129 174 208 259 316 382
#     4  11  23  42  66  94 132 175 212 267 322 383
#     4  11  22  41  66  93 122 160 209 271 330 388
#
# _framework density 19.829024
#
# number of rings (size 3 to 8) (size 9 to 14) (size 15 to 20)
#    0.000    1.067    4.000    2.800    0.000    6.133 
#    7.200    0.667    0.000    0.000    0.000    4.667 
#    0.000    0.000    0.000    0.000    0.000    0.000 
#
# Total GULP energy -334766.010431 kJ/mol
# GULP energy per Si atom -5579.433507 kJ/mol
# Density = 1.978389 g / cm^3
# Si number density = 19.829024 Si / 1000 Ang^3
#
#
#
# Elastic Constant Matrix: (Units=GPa)
#
#
# Indices 1 2 3 4 5 6 
#
# 1 103.6465 28.5404 22.5027 0.0000 0.0000 0.0000
# 2 28.5404 80.7824 33.4467 0.0000 0.0000 0.0000
# 3 22.5027 33.4467 118.6305 0.0000 0.0000 0.0000
# 4 0.0000 0.0000 0.0000 25.4581 0.0000 0.0000
# 5 0.0000 0.0000 0.0000 0.0000 9.7289 0.0000
# 6 0.0000 0.0000 0.0000 0.0000 0.0000 22.9342
#
#
#
# Elastic Compliance Matrix: (Units=1/GPa)
#
#
# Indices 1 2 3 4 5 6 
#
# 1 0.010814 -0.003364 -0.001103 0.000000 0.000000 0.000000
# 2 -0.003364 0.015061 -0.003608 0.000000 0.000000 0.000000
# 3 -0.001103 -0.003608 0.009656 0.000000 0.000000 0.000000
# 4 0.000000 0.000000 0.000000 0.039280 0.000000 0.000000
# 5 0.000000 0.000000 0.000000 0.000000 0.102786 0.000000
# 6 0.000000 0.000000 0.000000 0.000000 0.000000 0.043603
#
#
# Mechanical properties :
#
#
# Convention : Reuss Voigt Hill
#
# Bulk Modulus (GPa) = 51.59645 52.44879 52.02262
# Shear Modulus (GPa) = 20.50766 26.19556 23.35161
#
# Velocity S-wave (km/s) = 3.21942 3.63860 3.43541
# Velocity P-wave (km/s) = 6.31639 6.64533 6.48295
#
# Compressibility (1/GPa) = 0.01938118
#
# Stress axis : x y z
#
# Youngs Moduli (GPa) = 92.47342 66.39500 103.56196
#
# Poissons Ratio (x) = 0.22335 0.11421
# Poissons Ratio (y) = 0.31107 0.37368
# Poissons Ratio (z) = 0.10198 0.23957
#
# Static dielectric constant tensor:
#      x y z
#    x 1.747970 0.000000 0.000000 
#    y 0.000000 1.764900 0.000000 
#    z 0.000000 0.000000 1.704480 
# 
# From -- ./inp_files/49090.got.cif
#   From: 2010.05.17/outbox.cif.g08.bks.cpg/sg66_25_cif.got.tgz:49090.got - 2010.06.03 17:51:23.
