data_PCOD9498157
_publ_section_title
;
Structure prediction by ZEFSAII (Michael W. Deem and Ramdas Pophale) SiO2 
 PCOD9498157
Probable space group: C C C M
;
_chemical_formula_sum "Si O2"
_cell_formula_units_Z 92
_cell_length_a 21.744556
_cell_length_b 13.625833
_cell_length_c 15.415125
_cell_angle_alpha 90.000000
_cell_angle_beta 90.000000
_cell_angle_gamma 90.000000
_cell_volume 4567.311758
_symmetry_space_group_name_H-M "C C C M"
_symmetry_group_IT_number 66
_symmetry_cell_setting 'orthorhombic'
loop_
_space_group_symop_operation_xyz
x,y,z
-x,-y,z
x,-y,1/2-z
-x,y,1/2-z
-x,-y,-z
x,y,-z
-x,y,1/2+z
x,-y,1/2+z
1/2+x,1/2+y,z
1/2-x,1/2-y,z
1/2+x,1/2-y,1/2-z
1/2-x,1/2+y,1/2-z
1/2-x,1/2-y,-z
1/2+x,1/2+y,-z
1/2-x,1/2+y,1/2+z
1/2+x,1/2-y,1/2+z
loop_
_atom_site_type_symbol
_atom_site_label
_atom_site_fract_x
_atom_site_fract_y
_atom_site_fract_z
Si Si1 0.589201 0.000000 0.250000
Si Si2 0.500000 0.500000 0.750000
Si Si3 0.826413 0.562261 0.407459
Si Si4 0.693740 0.513759 0.353725
Si Si5 0.936016 0.715015 0.792918
Si Si6 0.577533 0.608710 0.098515
Si Si7 0.318526 0.736047 0.172891
O O1 0.630978 0.962973 0.327993
O O2 0.558688 0.903024 0.208530
O O3 0.457871 0.440579 0.819246
O O4 0.853436 0.536376 0.500000
O O5 0.761255 0.509314 0.394218
O O6 0.817232 0.679317 0.399237
O O7 0.698520 0.500000 0.250000
O O8 0.645695 0.437029 0.392247
O O9 0.673244 0.627132 0.364333
O O10 0.926996 0.775200 0.881497
O O11 0.875582 0.743775 0.736762
O O12 0.000000 0.749009 0.750000
O O13 0.555398 0.588313 0.000000
O O14 0.250000 0.750000 0.215340
#
# Coordination Sequence:
#
# PCOD9498157 Si02
#       7
#     8   4  16  16  16  16  16
#     4  10  23  41  68  88 125 171 216 274 345 392
#     4  12  22  46  60  84 134 176 214 256 310 396
#     4  10  21  38  63  95 127 167 220 272 320 389
#     4  11  19  37  62  94 132 171 209 262 329 390
#     4  11  22  42  65  92 125 172 215 274 334 398
#     4  12  25  39  65  96 129 173 217 267 329 394
#     4   9  20  37  63  89 126 176 216 260 324 384
#
# _framework density 20.143139999999999
#
# number of rings (size 3 to 8) (size 9 to 14) (size 15 to 20)
#    0.000    1.391    4.348    1.043    0.000    4.522 
#    0.000    3.478    0.000    7.826    0.000    0.000 
#    0.000    0.000    0.000    0.000    0.000    0.000 
#
# Total GULP energy -256290.643656 kJ/mol
# GULP energy per Si atom -5571.535732 kJ/mol
# Density = 2.009729 g / cm^3
# Si number density = 20.143140 Si / 1000 Ang^3
#
#
#
# Elastic Constant Matrix: (Units=GPa)
#
#
# Indices 1 2 3 4 5 6 
#
# 1 68.5621 22.5053 19.8863 0.0000 0.0000 0.0000
# 2 22.5053 108.5040 28.5606 0.0000 0.0000 0.0000
# 3 19.8863 28.5606 139.0492 0.0000 0.0000 0.0000
# 4 0.0000 0.0000 0.0000 -21.5625 0.0000 0.0000
# 5 0.0000 0.0000 0.0000 0.0000 5.9091 0.0000
# 6 0.0000 0.0000 0.0000 0.0000 0.0000 18.1860
#
#
#
# Elastic Compliance Matrix: (Units=1/GPa)
#
#
# Indices 1 2 3 4 5 6 
#
# 1 0.016023 -0.002876 -0.001701 0.000000 0.000000 0.000000
# 2 -0.002876 0.010259 -0.001696 0.000000 0.000000 0.000000
# 3 -0.001701 -0.001696 0.007783 0.000000 0.000000 0.000000
# 4 0.000000 0.000000 0.000000 -0.046377 0.000000 0.000000
# 5 0.000000 0.000000 0.000000 0.000000 0.169232 0.000000
# 6 0.000000 0.000000 0.000000 0.000000 0.000000 0.054987
#
#
# Mechanical properties :
#
#
# Convention : Reuss Voigt Hill
#
# Bulk Modulus (GPa) = 46.46808 50.89109 48.67958
# Shear Modulus (GPa) = 21.58658 16.85072 19.21865
#
# Velocity S-wave (km/s) = 3.27717 2.89545 3.09221
# Velocity P-wave (km/s) = 6.11873 6.04134 6.08016
#
# Compressibility (1/GPa) = 0.02152015
#
# Stress axis : x y z
#
# Youngs Moduli (GPa) = 62.41200 97.47437 128.48033
#
# Poissons Ratio (x) = 0.28030 0.21852
# Poissons Ratio (y) = 0.17947 0.21790
# Poissons Ratio (z) = 0.10615 0.16531
#
# Static dielectric constant tensor:
#      x y z
#    x 1.739740 0.000000 0.000000 
#    y 0.000000 1.794640 0.000000 
#    z 0.000000 0.000000 1.862560 
# 
# From -- ./inp_files/31232.got.cif
#   From: 2010.05.17/outbox.cif.g08.bks.cpg/sg66_16_cif.got.tgz:31232.got - 2010.06.03 17:51:23.
