data_PCOD9498389
_publ_section_title
;
Structure prediction by ZEFSAII (Michael W. Deem and Ramdas Pophale) SiO2 
 PCOD9498389
Probable space group: C C C M
;
_chemical_formula_sum "Si O2"
_cell_formula_units_Z 68
_cell_length_a 16.558408
_cell_length_b 9.916635
_cell_length_c 20.889866
_cell_angle_alpha 90.000000
_cell_angle_beta 90.000000
_cell_angle_gamma 90.000000
_cell_volume 3430.193046
_symmetry_space_group_name_H-M "C C C M"
_symmetry_group_IT_number 66
_symmetry_cell_setting 'orthorhombic'
loop_
_space_group_symop_operation_xyz
x,y,z
-x,-y,z
x,-y,1/2-z
-x,y,1/2-z
-x,-y,-z
x,y,-z
-x,y,1/2+z
x,-y,1/2+z
1/2+x,1/2+y,z
1/2-x,1/2-y,z
1/2+x,1/2-y,1/2-z
1/2-x,1/2+y,1/2-z
1/2-x,1/2-y,-z
1/2+x,1/2+y,-z
1/2-x,1/2+y,1/2+z
1/2+x,1/2-y,1/2+z
loop_
_atom_site_type_symbol
_atom_site_label
_atom_site_fract_x
_atom_site_fract_y
_atom_site_fract_z
Si Si1 0.166216 0.668374 0.575489
Si Si2 0.989211 0.841806 0.075535
Si Si3 0.120517 0.184701 0.333214
Si Si4 0.500000 0.500000 0.750000
Si Si5 0.284395 0.949462 0.178848
O O1 0.153869 0.626163 0.500000
O O2 0.250000 0.750000 0.576993
O O3 0.093845 0.770106 0.595074
O O4 0.174513 0.551095 0.628460
O O5 0.066045 0.773074 0.106991
O O6 0.992288 0.832675 0.000000
O O7 0.000000 0.000000 0.091890
O O8 0.060484 0.100126 0.288026
O O9 0.198585 0.095862 0.351085
O O10 0.158725 0.321357 0.306946
O O11 0.264222 0.000000 0.250000
#
# Coordination Sequence:
#
# PCOD9498389 Si02
#       5
#    16  16  16   4  16
#     4  10  23  42  69  98 136 182 221 274 337 401
#     4  10  21  40  66  97 126 166 222 270 320 391
#     4  11  25  42  66  94 125 177 213 274 331 391
#     4  12  24  44  64  92 128 170 230 254 344 404
#     4  11  26  43  63  98 136 172 220 276 336 397
#
# _framework density 19.823958000000001
#
# number of rings (size 3 to 8) (size 9 to 14) (size 15 to 20)
#    0.000    1.412    2.353    1.412    6.588    4.706 
#    0.000    4.706    0.000    0.000    0.000    0.000 
#    0.000    0.000    0.000    0.000    0.000    0.000 
#
# Total GULP energy -189552.591830 kJ/mol
# GULP energy per Si atom -5575.076230 kJ/mol
# Density = 1.977884 g / cm^3
# Si number density = 19.823958 Si / 1000 Ang^3
#
#
#
# Elastic Constant Matrix: (Units=GPa)
#
#
# Indices 1 2 3 4 5 6 
#
# 1 151.8835 59.7849 38.3924 0.0000 0.0000 0.0000
# 2 59.7849 78.5986 42.2563 0.0000 0.0000 0.0000
# 3 38.3924 42.2563 57.3167 0.0000 0.0000 0.0000
# 4 0.0000 0.0000 0.0000 23.6349 0.0000 0.0000
# 5 0.0000 0.0000 0.0000 0.0000 25.0190 0.0000
# 6 0.0000 0.0000 0.0000 0.0000 0.0000 35.7009
#
#
#
# Elastic Compliance Matrix: (Units=1/GPa)
#
#
# Indices 1 2 3 4 5 6 
#
# 1 0.009499 -0.006302 -0.001716 0.000000 0.000000 0.000000
# 2 -0.006302 0.025258 -0.014400 0.000000 0.000000 0.000000
# 3 -0.001716 -0.014400 0.029213 0.000000 0.000000 0.000000
# 4 0.000000 0.000000 0.000000 0.042310 0.000000 0.000000
# 5 0.000000 0.000000 0.000000 0.000000 0.039970 0.000000
# 6 0.000000 0.000000 0.000000 0.000000 0.000000 0.028011
#
#
# Mechanical properties :
#
#
# Convention : Reuss Voigt Hill
#
# Bulk Modulus (GPa) = 52.26639 63.18511 57.72575
# Shear Modulus (GPa) = 22.17542 26.69529 24.43535
#
# Velocity S-wave (km/s) = 3.34820 3.67361 3.51467
# Velocity P-wave (km/s) = 6.43193 7.06655 6.75670
#
# Compressibility (1/GPa) = 0.01913275
#
# Stress axis : x y z
#
# Youngs Moduli (GPa) = 105.27960 39.59066 34.23161
#
# Poissons Ratio (x) = 0.24951 0.05874
# Poissons Ratio (y) = 0.66351 0.49294
# Poissons Ratio (z) = 0.18066 0.57011
#
# Static dielectric constant tensor:
#      x y z
#    x 1.724270 0.000000 0.000000 
#    y 0.000000 1.671800 0.000000 
#    z 0.000000 0.000000 1.716250 
# 
# From -- ./inp_files/46728.got.cif
#   From: 2010.05.17/outbox.cif.g08.bks.cpg/sg66_24_cif.got.tgz:46728.got - 2010.06.03 17:51:23.
