data_PCOD9498030
_publ_section_title
;
Structure prediction by ZEFSAII (Michael W. Deem and Ramdas Pophale) SiO2 
 PCOD9498030
Probable space group: C C C M
;
_chemical_formula_sum "Si O2"
_cell_formula_units_Z 112
_cell_length_a 14.756523
_cell_length_b 14.596544
_cell_length_c 30.475313
_cell_angle_alpha 90.000000
_cell_angle_beta 90.000000
_cell_angle_gamma 90.000000
_cell_volume 6564.206799
_symmetry_space_group_name_H-M "C C C M"
_symmetry_group_IT_number 66
_symmetry_cell_setting 'orthorhombic'
loop_
_space_group_symop_operation_xyz
x,y,z
-x,-y,z
x,-y,1/2-z
-x,y,1/2-z
-x,-y,-z
x,y,-z
-x,y,1/2+z
x,-y,1/2+z
1/2+x,1/2+y,z
1/2-x,1/2-y,z
1/2+x,1/2-y,1/2-z
1/2-x,1/2+y,1/2-z
1/2-x,1/2-y,-z
1/2+x,1/2+y,-z
1/2-x,1/2+y,1/2+z
1/2+x,1/2-y,1/2+z
loop_
_atom_site_type_symbol
_atom_site_label
_atom_site_fract_x
_atom_site_fract_y
_atom_site_fract_z
Si Si1 0.857745 0.641253 0.500000
Si Si2 0.979510 0.743115 0.352006
Si Si3 0.071281 0.579219 0.090394
Si Si4 0.081294 0.072297 0.598131
Si Si5 0.859134 0.859268 0.500000
Si Si6 0.676348 0.830775 0.286880
Si Si7 0.763488 0.484752 0.148659
Si Si8 0.668964 0.177492 0.686186
O O1 0.901898 0.593148 0.458959
O O2 0.876807 0.750075 0.500000
O O3 0.749509 0.629024 0.500000
O O4 0.968864 0.673076 0.391891
O O5 0.951583 0.841299 0.371997
O O6 0.908286 0.706593 0.315374
O O7 0.080322 0.727013 0.333599
O O8 0.162538 0.555935 0.115774
O O9 0.000000 0.500000 0.098486
O O10 0.105799 0.101293 0.547383
O O11 0.167212 0.028485 0.624322
O O12 0.000000 0.000000 0.595973
O O13 0.750000 0.750000 0.287504
O O14 0.723371 0.919367 0.308888
O O15 0.648966 0.849150 0.236742
O O16 0.794967 0.587247 0.160986
O O17 0.750000 0.250000 0.686082
#
# Coordination Sequence:
#
# PCOD9498030 Si02
#       8
#     8  16  16  16   8  16  16  16
#     4  11  21  36  64  88 121 153 198 268 312 368
#     4  11  22  39  61  91 117 161 209 246 318 368
#     4  11  21  37  62  87 120 154 194 265 309 370
#     4  12  24  41  64  87 131 171 207 258 307 385
#     4  11  23  38  62  96 117 161 218 254 318 369
#     4  10  21  37  64  86 120 155 200 268 302 364
#     4  11  22  39  61  91 117 161 209 246 318 368
#     4  11  23  40  59  86 125 161 204 251 302 374
#
# _framework density 17.062228999999999
#
# number of rings (size 3 to 8) (size 9 to 14) (size 15 to 20)
#    0.000    1.000    5.714    2.143    0.000    0.000 
#    0.000    1.429    0.000    0.000    0.000    6.000 
#    0.000    0.000    0.000    0.000    0.000    0.000 
#
# Total GULP energy -312297.967828 kJ/mol
# GULP energy per Si atom -5576.749426 kJ/mol
# Density = 1.702339 g / cm^3
# Si number density = 17.062229 Si / 1000 Ang^3
#
#
#
# Elastic Constant Matrix: (Units=GPa)
#
#
# Indices 1 2 3 4 5 6 
#
# 1 110.7867 25.8902 33.4692 0.0000 0.0000 0.0000
# 2 25.8902 44.3126 10.5030 0.0000 0.0000 0.0000
# 3 33.4692 10.5030 103.0925 0.0000 0.0000 0.0000
# 4 0.0000 0.0000 0.0000 19.9264 0.0000 0.0000
# 5 0.0000 0.0000 0.0000 0.0000 22.0727 0.0000
# 6 0.0000 0.0000 0.0000 0.0000 0.0000 29.3973
#
#
#
# Elastic Compliance Matrix: (Units=1/GPa)
#
#
# Indices 1 2 3 4 5 6 
#
# 1 0.011333 -0.005892 -0.003079 0.000000 0.000000 0.000000
# 2 -0.005892 0.026188 -0.000755 0.000000 0.000000 0.000000
# 3 -0.003079 -0.000755 0.010777 0.000000 0.000000 0.000000
# 4 0.000000 0.000000 0.000000 0.050185 0.000000 0.000000
# 5 0.000000 0.000000 0.000000 0.000000 0.045305 0.000000
# 6 0.000000 0.000000 0.000000 0.000000 0.000000 0.034017
#
#
# Mechanical properties :
#
#
# Convention : Reuss Voigt Hill
#
# Bulk Modulus (GPa) = 34.66700 44.21293 39.43997
# Shear Modulus (GPa) = 24.16947 26.83458 25.50202
#
# Velocity S-wave (km/s) = 3.76779 3.97009 3.87026
# Velocity P-wave (km/s) = 6.26821 6.85452 6.56791
#
# Compressibility (1/GPa) = 0.02884587
#
# Stress axis : x y z
#
# Youngs Moduli (GPa) = 88.23412 38.18490 92.79337
#
# Poissons Ratio (x) = 0.22498 0.28573
# Poissons Ratio (y) = 0.51987 0.07008
# Poissons Ratio (z) = 0.27169 0.02884
#
# Static dielectric constant tensor:
#      x y z
#    x 1.545650 0.000000 0.000000 
#    y 0.000000 1.560630 0.000000 
#    z 0.000000 0.000000 1.600040 
# 
# From -- ./inp_files/64696.got.cif
#   From: 2010.05.17/outbox.cif.g08.bks.cpg/sg66_33_cif.got.tgz:64696.got - 2010.06.03 17:51:23.
