data_PCOD9498491
_publ_section_title
;
Structure prediction by ZEFSAII (Michael W. Deem and Ramdas Pophale) SiO2 
 PCOD9498491
Probable space group: C C C M
;
_chemical_formula_sum "Si O2"
_cell_formula_units_Z 44
_cell_length_a 7.126435
_cell_length_b 7.675495
_cell_length_c 31.957263
_cell_angle_alpha 90.000000
_cell_angle_beta 90.000000
_cell_angle_gamma 90.000000
_cell_volume 1748.027651
_symmetry_space_group_name_H-M "C C C M"
_symmetry_group_IT_number 66
_symmetry_cell_setting 'orthorhombic'
loop_
_space_group_symop_operation_xyz
x,y,z
-x,-y,z
x,-y,1/2-z
-x,y,1/2-z
-x,-y,-z
x,y,-z
-x,y,1/2+z
x,-y,1/2+z
1/2+x,1/2+y,z
1/2-x,1/2-y,z
1/2+x,1/2-y,1/2-z
1/2-x,1/2+y,1/2-z
1/2-x,1/2-y,-z
1/2+x,1/2+y,-z
1/2-x,1/2+y,1/2+z
1/2+x,1/2-y,1/2+z
loop_
_atom_site_type_symbol
_atom_site_label
_atom_site_fract_x
_atom_site_fract_y
_atom_site_fract_z
Si Si1 0.781321 0.952038 0.091066
Si Si2 0.500000 0.000000 0.750000
Si Si3 0.220139 0.952325 0.000000
Si Si4 0.721266 0.463114 0.317688
O O1 0.750000 0.750000 0.096748
O O2 0.717366 0.026962 0.135665
O O3 0.702366 0.988625 0.044906
O O4 0.000000 0.000000 0.088772
O O5 0.347404 0.064652 0.715898
O O6 0.250000 0.750000 0.000000
O O7 0.000000 0.000000 0.000000
O O8 0.500000 0.500000 0.312657
O O9 0.750000 0.250000 0.312622
#
# Coordination Sequence:
#
# PCOD9498491 Si02
#       4
#    16   4   8  16
#     4   9  19  42  67  98 139 185 234 287 349 421
#     4  12  26  40  70 104 136 188 242 298 368 424
#     4  10  21  42  68 104 140 186 228 284 346 421
#     4  10  24  45  69 101 142 186 241 296 361 426
#
# _framework density 25.171225
#
# number of rings (size 3 to 8) (size 9 to 14) (size 15 to 20)
#    0.000    2.182    0.000    1.091    5.091    0.000 
#   32.727    7.273    0.000    0.000    0.000    0.000 
#    0.000    0.000    0.000    0.000    0.000    0.000 
#
# Total GULP energy -122592.186922 kJ/mol
# GULP energy per Si atom -5572.372133 kJ/mol
# Density = 2.511393 g / cm^3
# Si number density = 25.171225 Si / 1000 Ang^3
#
#
#
# Elastic Constant Matrix: (Units=GPa)
#
#
# Indices 1 2 3 4 5 6 
#
# 1 196.8730 28.8966 57.7200 0.0000 0.0000 0.0000
# 2 28.8966 94.9972 4.2347 0.0000 0.0000 0.0000
# 3 57.7200 4.2347 309.2829 0.0000 0.0000 0.0000
# 4 0.0000 0.0000 0.0000 67.9013 0.0000 0.0000
# 5 0.0000 0.0000 0.0000 0.0000 136.9613 0.0000
# 6 0.0000 0.0000 0.0000 0.0000 0.0000 42.1328
#
#
#
# Elastic Compliance Matrix: (Units=1/GPa)
#
#
# Indices 1 2 3 4 5 6 
#
# 1 0.005625 -0.001665 -0.001027 0.000000 0.000000 0.000000
# 2 -0.001665 0.011026 0.000160 0.000000 0.000000 0.000000
# 3 -0.001027 0.000160 0.003423 0.000000 0.000000 0.000000
# 4 0.000000 0.000000 0.000000 0.014727 0.000000 0.000000
# 5 0.000000 0.000000 0.000000 0.000000 0.007301 0.000000
# 6 0.000000 0.000000 0.000000 0.000000 0.000000 0.023734
#
#
# Mechanical properties :
#
#
# Convention : Reuss Voigt Hill
#
# Bulk Modulus (GPa) = 66.62688 86.98397 76.80543
# Shear Modulus (GPa) = 65.87223 83.41920 74.64571
#
# Velocity S-wave (km/s) = 5.12118 5.76304 5.45156
# Velocity P-wave (km/s) = 7.84191 8.88344 8.37887
#
# Compressibility (1/GPa) = 0.01500896
#
# Stress axis : x y z
#
# Youngs Moduli (GPa) = 177.78025 90.69440 292.16241
#
# Poissons Ratio (x) = 0.15103 0.30004
# Poissons Ratio (y) = 0.29605 -0.04669
# Poissons Ratio (z) = 0.18257 -0.01449
#
# Static dielectric constant tensor:
#      x y z
#    x 1.899550 0.000000 0.000000 
#    y 0.000000 2.045120 0.000000 
#    z 0.000000 0.000000 1.655480 
# 
# From -- ./inp_files/67694.got.cif
#   From: 2010.05.17/outbox.cif.g08.bks.cpg/sg66_34_cif.got.tgz:67694.got - 2010.06.03 17:51:23.
