data_PCOD9498009
_publ_section_title
;
Structure prediction by ZEFSAII (Michael W. Deem and Ramdas Pophale) SiO2 
 PCOD9498009
Probable space group: C C C M
;
_chemical_formula_sum "Si O2"
_cell_formula_units_Z 96
_cell_length_a 15.585988
_cell_length_b 19.562533
_cell_length_c 16.239558
_cell_angle_alpha 90.000000
_cell_angle_beta 90.000000
_cell_angle_gamma 90.000000
_cell_volume 4951.464044
_symmetry_space_group_name_H-M "C C C M"
_symmetry_group_IT_number 66
_symmetry_cell_setting 'orthorhombic'
loop_
_space_group_symop_operation_xyz
x,y,z
-x,-y,z
x,-y,1/2-z
-x,y,1/2-z
-x,-y,-z
x,y,-z
-x,y,1/2+z
x,-y,1/2+z
1/2+x,1/2+y,z
1/2-x,1/2-y,z
1/2+x,1/2-y,1/2-z
1/2-x,1/2+y,1/2-z
1/2-x,1/2-y,-z
1/2+x,1/2+y,-z
1/2-x,1/2+y,1/2+z
1/2+x,1/2-y,1/2+z
loop_
_atom_site_type_symbol
_atom_site_label
_atom_site_fract_x
_atom_site_fract_y
_atom_site_fract_z
Si Si1 0.047962 0.304252 0.828148
Si Si2 0.625768 0.672439 0.096569
Si Si3 0.589377 0.524695 0.154140
Si Si4 0.760359 0.455400 0.168915
Si Si5 0.765387 0.675721 0.232284
Si Si6 0.947691 0.433097 0.901958
O O1 0.073768 0.242466 0.888157
O O2 0.136069 0.335518 0.791898
O O3 0.000000 0.272229 0.750000
O O4 0.989526 0.364610 0.864227
O O5 0.586739 0.605513 0.139754
O O6 0.714193 0.678269 0.146650
O O7 0.637169 0.660824 0.000000
O O8 0.500000 0.500000 0.116153
O O9 0.589525 0.500000 0.250000
O O10 0.680444 0.492962 0.124182
O O11 0.782013 0.500000 0.250000
O O12 0.732608 0.382719 0.207137
O O13 0.847602 0.443628 0.119195
O O14 0.750000 0.750000 0.271254
O O15 0.000000 0.500000 0.872415
O O16 0.957620 0.428629 0.000000
#
# Coordination Sequence:
#
# PCOD9498009 Si02
#       6
#    16  16  16  16  16  16
#     4  11  23  39  66  93 129 175 214 258 320 398
#     4  11  24  41  64  96 131 164 213 276 333 377
#     4  10  22  39  66  91 122 164 215 270 316 386
#     4  11  20  40  63  92 127 165 217 263 315 396
#     4  10  21  37  61  94 123 169 212 259 319 391
#     4  11  25  40  62  95 132 169 211 267 326 386
#
# _framework density 19.388204999999999
#
# number of rings (size 3 to 8) (size 9 to 14) (size 15 to 20)
#    0.000    1.333    5.000    1.500    2.333    4.667 
#    0.000    0.000    0.000    0.500    0.000    0.000 
#    0.000    0.000    0.000    0.000    0.000    0.000 
#
# Total GULP energy -267681.678891 kJ/mol
# GULP energy per Si atom -5576.701644 kJ/mol
# Density = 1.934408 g / cm^3
# Si number density = 19.388205 Si / 1000 Ang^3
#
#
#
# Elastic Constant Matrix: (Units=GPa)
#
#
# Indices 1 2 3 4 5 6 
#
# 1 126.2228 32.8192 8.2563 0.0000 0.0000 0.0000
# 2 32.8192 120.6487 20.8612 0.0000 0.0000 0.0000
# 3 8.2563 20.8612 44.3563 0.0000 0.0000 0.0000
# 4 0.0000 0.0000 0.0000 20.7240 0.0000 0.0000
# 5 0.0000 0.0000 0.0000 0.0000 17.2719 0.0000
# 6 0.0000 0.0000 0.0000 0.0000 0.0000 20.0617
#
#
#
# Elastic Compliance Matrix: (Units=1/GPa)
#
#
# Indices 1 2 3 4 5 6 
#
# 1 0.008537 -0.002229 -0.000541 0.000000 0.000000 0.000000
# 2 -0.002229 0.009604 -0.004102 0.000000 0.000000 0.000000
# 3 -0.000541 -0.004102 0.024575 0.000000 0.000000 0.000000
# 4 0.000000 0.000000 0.000000 0.048253 0.000000 0.000000
# 5 0.000000 0.000000 0.000000 0.000000 0.057898 0.000000
# 6 0.000000 0.000000 0.000000 0.000000 0.000000 0.049846
#
#
# Mechanical properties :
#
#
# Convention : Reuss Voigt Hill
#
# Bulk Modulus (GPa) = 34.51534 46.12235 40.31885
# Shear Modulus (GPa) = 22.51095 26.89760 24.70428
#
# Velocity S-wave (km/s) = 3.41114 3.72871 3.57345
# Velocity P-wave (km/s) = 5.77541 6.50986 6.15360
#
# Compressibility (1/GPa) = 0.02897262
#
# Stress axis : x y z
#
# Youngs Moduli (GPa) = 117.13168 104.12226 40.69239
#
# Poissons Ratio (x) = 0.23207 0.02201
# Poissons Ratio (y) = 0.26107 0.16692
# Poissons Ratio (z) = 0.06335 0.42711
#
# Static dielectric constant tensor:
#      x y z
#    x 1.737730 0.000000 0.000000 
#    y 0.000000 1.806430 0.000000 
#    z 0.000000 0.000000 1.659400 
# 
# From -- ./inp_files/28394.got.cif
#   From: 2010.05.17/outbox.cif.g08.bks.cpg/sg66_15_cif.got.tgz:28394.got - 2010.06.03 17:51:23.
