data_PCOD9498135
_publ_section_title
;
Structure prediction by ZEFSAII (Michael W. Deem and Ramdas Pophale) SiO2 
 PCOD9498135
Probable space group: C C C M
;
_chemical_formula_sum "Si O2"
_cell_formula_units_Z 104
_cell_length_a 21.672109
_cell_length_b 24.957228
_cell_length_c 9.672934
_cell_angle_alpha 90.000000
_cell_angle_beta 90.000000
_cell_angle_gamma 90.000000
_cell_volume 5231.855582
_symmetry_space_group_name_H-M "C C C M"
_symmetry_group_IT_number 66
_symmetry_cell_setting 'orthorhombic'
loop_
_space_group_symop_operation_xyz
x,y,z
-x,-y,z
x,-y,1/2-z
-x,y,1/2-z
-x,-y,-z
x,y,-z
-x,y,1/2+z
x,-y,1/2+z
1/2+x,1/2+y,z
1/2-x,1/2-y,z
1/2+x,1/2-y,1/2-z
1/2-x,1/2+y,1/2-z
1/2-x,1/2-y,-z
1/2+x,1/2+y,-z
1/2-x,1/2+y,1/2+z
1/2+x,1/2-y,1/2+z
loop_
_atom_site_type_symbol
_atom_site_label
_atom_site_fract_x
_atom_site_fract_y
_atom_site_fract_z
Si Si1 0.620895 0.120678 0.767778
Si Si2 0.062244 0.268303 0.340983
Si Si3 0.057883 0.577920 0.500000
Si Si4 0.061320 0.927361 0.336434
Si Si5 0.326232 0.500000 0.750000
Si Si6 0.414809 0.956613 0.000000
Si Si7 0.872450 0.181705 0.340618
Si Si8 0.756509 0.893506 0.164279
O O1 0.593846 0.173473 0.838169
O O2 0.579252 0.110069 0.633399
O O3 0.692460 0.124396 0.730146
O O4 0.614360 0.069568 0.865833
O O5 0.049188 0.253016 0.500000
O O6 0.108498 0.227356 0.265214
O O7 0.000000 0.269274 0.250000
O O8 0.090570 0.520091 0.500000
O O9 0.986024 0.563020 0.500000
O O10 0.060904 0.945114 0.500000
O O11 0.118338 0.954270 0.255681
O O12 0.074709 0.864041 0.339410
O O13 0.000000 0.938586 0.250000
O O14 0.276375 0.454679 0.800777
O O15 0.866660 0.201205 0.500000
O O16 0.810302 0.149379 0.302090
O O17 0.749670 0.892094 0.000000
#
# Coordination Sequence:
#
# PCOD9498135 Si02
#       8
#    16  16   8  16   8   8  16  16
#     4  12  25  42  66  99 129 170 212 266 316 387
#     4  12  26  44  68  98 130 165 213 268 327 383
#     4  11  24  42  70  91 132 170 218 264 325 389
#     4  10  21  38  61  95 131 167 215 267 322 376
#     4  10  21  38  62  90 127 168 214 266 312 374
#     4  11  24  44  62  99 132 170 210 272 329 377
#     4   9  21  43  67  93 128 173 217 266 318 379
#     4  10  23  43  64  93 130 172 222 262 315 388
#
# _framework density 19.878225
#
# number of rings (size 3 to 8) (size 9 to 14) (size 15 to 20)
#    0.000    1.385    1.538    4.385    4.308    5.538 
#    2.769    5.385    0.000    0.000    0.000    0.000 
#    0.000    0.000    0.000    0.000    0.000    0.000 
#
# Total GULP energy -289502.913775 kJ/mol
# GULP energy per Si atom -5567.363726 kJ/mol
# Density = 1.983298 g / cm^3
# Si number density = 19.878225 Si / 1000 Ang^3
#
#
#
# Elastic Constant Matrix: (Units=GPa)
#
#
# Indices 1 2 3 4 5 6 
#
# 1 89.1551 13.7501 34.2114 0.0000 0.0000 0.0000
# 2 13.7501 85.8068 45.1727 0.0000 0.0000 0.0000
# 3 34.2114 45.1727 81.8082 0.0000 0.0000 0.0000
# 4 0.0000 0.0000 0.0000 30.4070 0.0000 0.0000
# 5 0.0000 0.0000 0.0000 0.0000 29.2971 0.0000
# 6 0.0000 0.0000 0.0000 0.0000 0.0000 22.8778
#
#
#
# Elastic Compliance Matrix: (Units=1/GPa)
#
#
# Indices 1 2 3 4 5 6 
#
# 1 0.013438 0.001135 -0.006247 0.000000 0.000000 0.000000
# 2 0.001135 0.016526 -0.009600 0.000000 0.000000 0.000000
# 3 -0.006247 -0.009600 0.020137 0.000000 0.000000 0.000000
# 4 0.000000 0.000000 0.000000 0.032887 0.000000 0.000000
# 5 0.000000 0.000000 0.000000 0.000000 0.034133 0.000000
# 6 0.000000 0.000000 0.000000 0.000000 0.000000 0.043710
#
#
# Mechanical properties :
#
#
# Convention : Reuss Voigt Hill
#
# Bulk Modulus (GPa) = 48.35989 49.22651 48.79320
# Shear Modulus (GPa) = 25.36169 27.42543 26.39356
#
# Velocity S-wave (km/s) = 3.57578 3.71842 3.64780
# Velocity P-wave (km/s) = 6.43655 6.57673 6.50702
#
# Compressibility (1/GPa) = 0.02067829
#
# Stress axis : x y z
#
# Youngs Moduli (GPa) = 74.41400 60.51041 49.66019
#
# Poissons Ratio (x) = -0.06868 0.31020
# Poissons Ratio (y) = -0.08446 0.47674
# Poissons Ratio (z) = 0.46483 0.58090
#
# Static dielectric constant tensor:
#      x y z
#    x 1.690590 0.000000 0.000000 
#    y 0.000000 1.694300 0.000000 
#    z 0.000000 0.000000 1.623340 
# 
# From -- ./inp_files/8194.got.cif
#   From: 2010.05.17/outbox.cif.g08.bks.cpg/sg66_5_cif.got.tgz:8194.got - 2010.06.03 17:51:23.
