data_PCOD9498818
_publ_section_title
;
Structure prediction by ZEFSAII (Michael W. Deem and Ramdas Pophale) SiO2 
 PCOD9498818
Probable space group: C C C M
;
_chemical_formula_sum "Si O2"
_cell_formula_units_Z 96
_cell_length_a 8.205393
_cell_length_b 27.545228
_cell_length_c 19.363841
_cell_angle_alpha 90.000000
_cell_angle_beta 90.000000
_cell_angle_gamma 90.000000
_cell_volume 4376.604131
_symmetry_space_group_name_H-M "C C C M"
_symmetry_group_IT_number 66
_symmetry_cell_setting 'orthorhombic'
loop_
_space_group_symop_operation_xyz
x,y,z
-x,-y,z
x,-y,1/2-z
-x,y,1/2-z
-x,-y,-z
x,y,-z
-x,y,1/2+z
x,-y,1/2+z
1/2+x,1/2+y,z
1/2-x,1/2-y,z
1/2+x,1/2-y,1/2-z
1/2-x,1/2+y,1/2-z
1/2-x,1/2-y,-z
1/2+x,1/2+y,-z
1/2-x,1/2+y,1/2+z
1/2+x,1/2-y,1/2+z
loop_
_atom_site_type_symbol
_atom_site_label
_atom_site_fract_x
_atom_site_fract_y
_atom_site_fract_z
Si Si1 0.667464 0.609335 0.154982
Si Si2 0.166202 0.529143 0.575127
Si Si3 0.208456 0.299411 0.077498
Si Si4 0.819342 0.695023 0.420352
Si Si5 0.877649 0.040264 0.853473
Si Si6 0.173222 0.381379 0.707636
O O1 0.800866 0.568195 0.134367
O O2 0.707715 0.655384 0.110849
O O3 0.497102 0.585200 0.135645
O O4 0.690638 0.624950 0.233410
O O5 0.171755 0.553675 0.500000
O O6 0.307136 0.489022 0.582136
O O7 0.000000 0.500000 0.580943
O O8 0.250000 0.250000 0.116212
O O9 0.014948 0.302996 0.075480
O O10 0.275092 0.296621 0.000000
O O11 0.763234 0.681606 0.500000
O O12 0.750000 0.750000 0.406435
O O13 0.800076 0.655882 0.356990
O O14 0.718940 0.063596 0.816857
O O15 0.000000 0.000000 0.820101
O O16 0.000000 0.375910 0.750000
#
# Coordination Sequence:
#
# PCOD9498818 Si02
#       6
#    16  16  16  16  16  16
#     4  11  23  41  64  97 138 178 229 286 349 418
#     4  10  22  41  67  99 137 184 236 289 348 419
#     4  10  22  41  66  97 135 180 224 275 344 414
#     4  10  24  47  72 101 138 183 236 290 351 425
#     4  10  25  44  65  95 137 184 234 285 349 421
#     4  12  24  44  69 103 136 179 234 291 359 418
#
# _framework density 21.934815
#
# number of rings (size 3 to 8) (size 9 to 14) (size 15 to 20)
#    0.000    1.500    1.667    2.000    2.333    9.667 
#    0.000    4.167    0.000    0.000    0.000    0.000 
#    0.000    0.000    0.000    0.000    0.000    0.000 
#
# Total GULP energy -267355.018380 kJ/mol
# GULP energy per Si atom -5569.896216 kJ/mol
# Density = 2.188489 g / cm^3
# Si number density = 21.934815 Si / 1000 Ang^3
#
#
#
# Elastic Constant Matrix: (Units=GPa)
#
#
# Indices 1 2 3 4 5 6 
#
# 1 83.5209 51.0250 29.8233 0.0000 0.0000 0.0000
# 2 51.0250 136.0650 63.4635 0.0000 0.0000 0.0000
# 3 29.8233 63.4635 124.7874 0.0000 0.0000 0.0000
# 4 0.0000 0.0000 0.0000 36.3751 0.0000 0.0000
# 5 0.0000 0.0000 0.0000 0.0000 53.3026 0.0000
# 6 0.0000 0.0000 0.0000 0.0000 0.0000 43.0758
#
#
#
# Elastic Compliance Matrix: (Units=1/GPa)
#
#
# Indices 1 2 3 4 5 6 
#
# 1 0.015624 -0.005398 -0.000989 0.000000 0.000000 0.000000
# 2 -0.005398 0.011500 -0.004558 0.000000 0.000000 0.000000
# 3 -0.000989 -0.004558 0.010568 0.000000 0.000000 0.000000
# 4 0.000000 0.000000 0.000000 0.027491 0.000000 0.000000
# 5 0.000000 0.000000 0.000000 0.000000 0.018761 0.000000
# 6 0.000000 0.000000 0.000000 0.000000 0.000000 0.023215
#
#
# Mechanical properties :
#
#
# Convention : Reuss Voigt Hill
#
# Bulk Modulus (GPa) = 63.28421 70.33298 66.80860
# Shear Modulus (GPa) = 37.22562 39.88814 38.55688
#
# Velocity S-wave (km/s) = 4.12406 4.26900 4.19715
# Velocity P-wave (km/s) = 7.18267 7.51221 7.34929
#
# Compressibility (1/GPa) = 0.01580173
#
# Stress axis : x y z
#
# Youngs Moduli (GPa) = 64.00508 86.95828 94.62304
#
# Poissons Ratio (x) = 0.46938 0.09356
# Poissons Ratio (y) = 0.34549 0.43133
# Poissons Ratio (z) = 0.06329 0.39639
#
# Static dielectric constant tensor:
#      x y z
#    x 1.872770 0.000000 0.000000 
#    y 0.000000 1.641550 0.000000 
#    z 0.000000 0.000000 1.866880 
# 
# From -- ./inp_files/47269.got.cif
#   From: 2010.05.17/outbox.cif.g08.bks.cpg/sg66_24_cif.got.tgz:47269.got - 2010.06.03 17:51:23.
