data_PCOD9498038
_publ_section_title
;
Structure prediction by ZEFSAII (Michael W. Deem and Ramdas Pophale) SiO2 
 PCOD9498038
Probable space group: C C C M
;
_chemical_formula_sum "Si O2"
_cell_formula_units_Z 56
_cell_length_a 15.133409
_cell_length_b 16.444133
_cell_length_c 9.966476
_cell_angle_alpha 90.000000
_cell_angle_beta 90.000000
_cell_angle_gamma 90.000000
_cell_volume 2480.215262
_symmetry_space_group_name_H-M "C C C M"
_symmetry_group_IT_number 66
_symmetry_cell_setting 'orthorhombic'
loop_
_space_group_symop_operation_xyz
x,y,z
-x,-y,z
x,-y,1/2-z
-x,y,1/2-z
-x,-y,-z
x,y,-z
-x,y,1/2+z
x,-y,1/2+z
1/2+x,1/2+y,z
1/2-x,1/2-y,z
1/2+x,1/2-y,1/2-z
1/2-x,1/2+y,1/2-z
1/2-x,1/2-y,-z
1/2+x,1/2+y,-z
1/2-x,1/2+y,1/2+z
1/2+x,1/2-y,1/2+z
loop_
_atom_site_type_symbol
_atom_site_label
_atom_site_fract_x
_atom_site_fract_y
_atom_site_fract_z
Si Si1 0.714532 0.018429 0.500000
Si Si2 0.622567 0.570699 0.847980
Si Si3 0.149721 0.748676 0.279220
Si Si4 0.440055 0.860671 0.500000
Si Si5 0.355948 0.843130 0.000000
O O1 0.707937 0.921296 0.500000
O O2 0.773320 0.051801 0.623109
O O3 0.619332 0.058973 0.500000
O O4 0.592040 0.500000 0.750000
O O5 0.614469 0.659410 0.784783
O O6 0.584085 0.569712 0.000000
O O7 0.250000 0.750000 0.335356
O O8 0.088960 0.692561 0.371845
O O9 0.155281 0.711088 0.131874
O O10 0.543592 0.875047 0.500000
#
# Coordination Sequence:
#
# PCOD9498038 Si02
#       5
#     8  16  16   8   8
#     4  10  22  41  61  99 138 177 220 253 340 396
#     4  10  21  37  66  98 124 171 231 276 317 377
#     4  12  22  44  65  96 130 186 228 269 323 399
#     4  12  23  43  65  96 141 187 210 267 347 406
#     4  12  28  37  67 104 142 169 219 282 337 401
#
# _framework density 22.578686000000001
#
# number of rings (size 3 to 8) (size 9 to 14) (size 15 to 20)
#    0.857    0.000    4.286    3.857    2.000    0.000 
#    0.000    2.857    0.000    5.143    0.000    0.000 
#    0.000    0.000    0.000    0.000    0.000    0.000 
#
# Total GULP energy -156655.712486 kJ/mol
# GULP energy per Si atom -5594.846875 kJ/mol
# Density = 2.252730 g / cm^3
# Si number density = 22.578686 Si / 1000 Ang^3
#
#
#
# Elastic Constant Matrix: (Units=GPa)
#
#
# Indices 1 2 3 4 5 6 
#
# 1 85.4144 -4.5269 -9.2721 0.0000 0.0000 0.0000
# 2 -4.5269 194.1717 82.2886 0.0000 0.0000 0.0000
# 3 -9.2721 82.2886 116.4730 0.0000 0.0000 0.0000
# 4 0.0000 0.0000 0.0000 29.7057 0.0000 0.0000
# 5 0.0000 0.0000 0.0000 0.0000 18.5109 0.0000
# 6 0.0000 0.0000 0.0000 0.0000 0.0000 18.5134
#
#
#
# Elastic Compliance Matrix: (Units=1/GPa)
#
#
# Indices 1 2 3 4 5 6 
#
# 1 0.011814 -0.000176 0.001065 0.000000 0.000000 0.000000
# 2 -0.000176 0.007354 -0.005209 0.000000 0.000000 0.000000
# 3 0.001065 -0.005209 0.012351 0.000000 0.000000 0.000000
# 4 0.000000 0.000000 0.000000 0.033664 0.000000 0.000000
# 5 0.000000 0.000000 0.000000 0.000000 0.054022 0.000000
# 6 0.000000 0.000000 0.000000 0.000000 0.000000 0.054015
#
#
# Mechanical properties :
#
#
# Convention : Reuss Voigt Hill
#
# Bulk Modulus (GPa) = 43.71118 59.22647 51.46883
# Shear Modulus (GPa) = 26.38716 35.18397 30.78557
#
# Velocity S-wave (km/s) = 3.42230 3.95179 3.69654
# Velocity P-wave (km/s) = 5.91757 6.86369 6.40812
#
# Compressibility (1/GPa) = 0.02287744
#
# Stress axis : x y z
#
# Youngs Moduli (GPa) = 84.64616 135.98605 80.96578
#
# Poissons Ratio (x) = 0.02390 -0.08620
# Poissons Ratio (y) = 0.01488 0.42178
# Poissons Ratio (z) = -0.09012 0.70841
#
# Static dielectric constant tensor:
#      x y z
#    x 1.853310 0.000000 0.000000 
#    y 0.000000 1.784280 0.000000 
#    z 0.000000 0.000000 1.831530 
# 
# From -- ./inp_files/6040.got.cif
#   From: 2010.05.17/outbox.cif.g08.bks.cpg/sg66_4_cif.got.tgz:6040.got - 2010.06.03 17:51:23.
