data_PCOD9498750
_publ_section_title
;
Structure prediction by ZEFSAII (Michael W. Deem and Ramdas Pophale) SiO2 
 PCOD9498750
Probable space group: C C C M
;
_chemical_formula_sum "Si O2"
_cell_formula_units_Z 56
_cell_length_a 11.767954
_cell_length_b 13.925279
_cell_length_c 15.751592
_cell_angle_alpha 90.000000
_cell_angle_beta 90.000000
_cell_angle_gamma 90.000000
_cell_volume 2581.245557
_symmetry_space_group_name_H-M "C C C M"
_symmetry_group_IT_number 66
_symmetry_cell_setting 'orthorhombic'
loop_
_space_group_symop_operation_xyz
x,y,z
-x,-y,z
x,-y,1/2-z
-x,y,1/2-z
-x,-y,-z
x,y,-z
-x,y,1/2+z
x,-y,1/2+z
1/2+x,1/2+y,z
1/2-x,1/2-y,z
1/2+x,1/2-y,1/2-z
1/2-x,1/2+y,1/2-z
1/2-x,1/2-y,-z
1/2+x,1/2+y,-z
1/2-x,1/2+y,1/2+z
1/2+x,1/2-y,1/2+z
loop_
_atom_site_type_symbol
_atom_site_label
_atom_site_fract_x
_atom_site_fract_y
_atom_site_fract_z
Si Si1 0.250000 0.750000 0.730672
Si Si2 0.682352 0.427695 0.828856
Si Si3 0.521634 0.715652 0.157822
Si Si4 0.699429 0.002175 0.000000
Si Si5 0.990416 0.649632 0.000000
O O1 0.236647 0.659837 0.795681
O O2 0.344004 0.705648 0.667389
O O3 0.673524 0.500000 0.750000
O O4 0.559802 0.376801 0.845071
O O5 0.728955 0.476314 0.914570
O O6 0.500000 0.762768 0.250000
O O7 0.496016 0.784093 0.081381
O O8 0.592906 0.074860 0.000000
O O9 0.633338 0.900790 0.000000
#
# Coordination Sequence:
#
# PCOD9498750 Si02
#       5
#     8  16  16   8   8
#     4  10  22  40  66  94 134 180 220 274 334 394
#     4  11  23  42  68  99 136 176 225 278 336 402
#     4  10  22  40  64  93 129 173 221 271 330 392
#     4  11  23  39  66  99 134 175 222 275 332 399
#     4  11  23  40  64  97 132 176 226 272 332 401
#
# _framework density 21.694953999999999
#
# number of rings (size 3 to 8) (size 9 to 14) (size 15 to 20)
#    0.000    1.429    0.000    6.000    0.000    7.429 
#    0.000    8.571    0.000   24.000    0.000    0.000 
#    0.000    0.000    0.000    0.000    0.000    0.000 
#
# Total GULP energy -156117.630448 kJ/mol
# GULP energy per Si atom -5575.629659 kJ/mol
# Density = 2.164558 g / cm^3
# Si number density = 21.694954 Si / 1000 Ang^3
#
#
#
# Elastic Constant Matrix: (Units=GPa)
#
#
# Indices 1 2 3 4 5 6 
#
# 1 135.5334 53.9933 64.6141 0.0000 0.0000 0.0000
# 2 53.9933 140.4680 88.9413 0.0000 0.0000 0.0000
# 3 64.6141 88.9413 185.2221 0.0000 0.0000 0.0000
# 4 0.0000 0.0000 0.0000 42.9385 0.0000 0.0000
# 5 0.0000 0.0000 0.0000 0.0000 15.3199 0.0000
# 6 0.0000 0.0000 0.0000 0.0000 0.0000 49.3963
#
#
#
# Elastic Compliance Matrix: (Units=1/GPa)
#
#
# Indices 1 2 3 4 5 6 
#
# 1 0.009294 -0.002183 -0.002194 0.000000 0.000000 0.000000
# 2 -0.002183 0.010742 -0.004397 0.000000 0.000000 0.000000
# 3 -0.002194 -0.004397 0.008275 0.000000 0.000000 0.000000
# 4 0.000000 0.000000 0.000000 0.023289 0.000000 0.000000
# 5 0.000000 0.000000 0.000000 0.000000 0.065275 0.000000
# 6 0.000000 0.000000 0.000000 0.000000 0.000000 0.020244
#
#
# Mechanical properties :
#
#
# Convention : Reuss Voigt Hill
#
# Bulk Modulus (GPa) = 92.90178 97.36899 95.13539
# Shear Modulus (GPa) = 31.59460 38.44259 35.01860
#
# Velocity S-wave (km/s) = 3.82030 4.21403 4.02199
# Velocity P-wave (km/s) = 7.89775 8.28588 8.09414
#
# Compressibility (1/GPa) = 0.01076406
#
# Stress axis : x y z
#
# Youngs Moduli (GPa) = 107.59756 93.09148 120.84061
#
# Poissons Ratio (x) = 0.20326 0.26509
# Poissons Ratio (y) = 0.23493 0.53128
# Poissons Ratio (z) = 0.23604 0.40928
#
# Static dielectric constant tensor:
#      x y z
#    x 2.091610 0.000000 0.000000 
#    y 0.000000 1.810000 0.000000 
#    z 0.000000 0.000000 1.744810 
# 
# From -- ./inp_files/25453.got.cif
#   From: 2010.05.17/outbox.cif.g08.bks.cpg/sg66_13_cif.got.tgz:25453.got - 2010.06.03 17:51:23.
