data_PCOD9498891
_publ_section_title
;
Structure prediction by ZEFSAII (Michael W. Deem and Ramdas Pophale) SiO2 
 PCOD9498891
Probable space group: C C C M
;
_chemical_formula_sum "Si O2"
_cell_formula_units_Z 56
_cell_length_a 12.265140
_cell_length_b 15.946914
_cell_length_c 13.618550
_cell_angle_alpha 90.000000
_cell_angle_beta 90.000000
_cell_angle_gamma 90.000000
_cell_volume 2663.667621
_symmetry_space_group_name_H-M "C C C M"
_symmetry_group_IT_number 66
_symmetry_cell_setting 'orthorhombic'
loop_
_space_group_symop_operation_xyz
x,y,z
-x,-y,z
x,-y,1/2-z
-x,y,1/2-z
-x,-y,-z
x,y,-z
-x,y,1/2+z
x,-y,1/2+z
1/2+x,1/2+y,z
1/2-x,1/2-y,z
1/2+x,1/2-y,1/2-z
1/2-x,1/2+y,1/2-z
1/2-x,1/2-y,-z
1/2+x,1/2+y,-z
1/2-x,1/2+y,1/2+z
1/2+x,1/2-y,1/2+z
loop_
_atom_site_type_symbol
_atom_site_label
_atom_site_fract_x
_atom_site_fract_y
_atom_site_fract_z
Si Si1 0.165363 0.967308 0.881732
Si Si2 0.000000 0.718521 0.750000
Si Si3 0.589083 0.926765 0.382448
Si Si4 0.548298 0.363372 0.382302
O O1 0.289056 0.952660 0.852830
O O2 0.075655 0.895494 0.862553
O O3 0.121465 0.057899 0.849188
O O4 0.165298 0.973103 0.000000
O O5 0.937513 0.656973 0.676649
O O6 0.931313 0.780154 0.820508
O O7 0.586802 0.911563 0.500000
O O8 0.500000 0.000000 0.363174
O O9 0.560260 0.350684 0.500000
#
# Coordination Sequence:
#
# PCOD9498891 Si02
#       4
#    16   8  16  16
#     4   8  17  39  67  87 116 165 207 246 304 373
#     4  12  23  37  56 102 126 156 200 261 311 352
#     4  10  22  43  63  83 123 172 209 243 302 375
#     4   9  19  39  65  94 122 155 204 257 309 359
#
# _framework density 21.023644000000001
#
# number of rings (size 3 to 8) (size 9 to 14) (size 15 to 20)
#    0.000    2.571    0.000    3.000    0.000    3.429 
#   15.429    4.286    0.000    6.857    0.000    0.000 
#    0.000    0.000    0.000    0.000    0.000    0.000 
#
# Total GULP energy -156399.452706 kJ/mol
# GULP energy per Si atom -5585.694740 kJ/mol
# Density = 2.097579 g / cm^3
# Si number density = 21.023644 Si / 1000 Ang^3
#
#
#
# Elastic Constant Matrix: (Units=GPa)
#
#
# Indices 1 2 3 4 5 6 
#
# 1 126.9412 65.3675 17.7027 0.0000 0.0000 0.0000
# 2 65.3675 151.0326 64.3275 0.0000 0.0000 0.0000
# 3 17.7027 64.3275 122.3300 0.0000 0.0000 0.0000
# 4 0.0000 0.0000 0.0000 40.1691 0.0000 0.0000
# 5 0.0000 0.0000 0.0000 0.0000 -5.5631 0.0000
# 6 0.0000 0.0000 0.0000 0.0000 0.0000 7.8939
#
#
#
# Elastic Compliance Matrix: (Units=1/GPa)
#
#
# Indices 1 2 3 4 5 6 
#
# 1 0.010249 -0.004902 0.001095 0.000000 0.000000 0.000000
# 2 -0.004902 0.010877 -0.005010 0.000000 0.000000 0.000000
# 3 0.001095 -0.005010 0.010651 0.000000 0.000000 0.000000
# 4 0.000000 0.000000 0.000000 0.024895 0.000000 0.000000
# 5 0.000000 0.000000 0.000000 0.000000 -0.179757 0.000000
# 6 0.000000 0.000000 0.000000 0.000000 0.000000 0.126680
#
#
# Mechanical properties :
#
#
# Convention : Reuss Voigt Hill
#
# Bulk Modulus (GPa) = 70.71408 77.23323 73.97365
# Shear Modulus (GPa) = 192.72422 25.36040 109.04231
#
# Velocity S-wave (km/s) = 9.58484 3.47692 7.20965
# Velocity P-wave (km/s) = 12.49803 7.27563 10.22584
#
# Compressibility (1/GPa) = 0.01414146
#
# Stress axis : x y z
#
# Youngs Moduli (GPa) = 97.56704 91.93989 93.88974
#
# Poissons Ratio (x) = 0.45071 -0.10277
# Poissons Ratio (y) = 0.47829 0.47040
# Poissons Ratio (z) = -0.10680 0.46063
#
# Static dielectric constant tensor:
#      x y z
#    x 1.747480 0.000000 0.000000 
#    y 0.000000 1.721480 0.000000 
#    z 0.000000 0.000000 1.823600 
# 
# From -- ./inp_files/25394.got.cif
#   From: 2010.05.17/outbox.cif.g08.bks.cpg/sg66_13_cif.got.tgz:25394.got - 2010.06.03 17:51:23.
