data_PCOD9498790
_publ_section_title
;
Structure prediction by ZEFSAII (Michael W. Deem and Ramdas Pophale) SiO2 
 PCOD9498790
Probable space group: C C C M
;
_chemical_formula_sum "Si O2"
_cell_formula_units_Z 88
_cell_length_a 25.094445
_cell_length_b 6.880082
_cell_length_c 24.846347
_cell_angle_alpha 90.000000
_cell_angle_beta 90.000000
_cell_angle_gamma 90.000000
_cell_volume 4289.767511
_symmetry_space_group_name_H-M "C C C M"
_symmetry_group_IT_number 66
_symmetry_cell_setting 'orthorhombic'
loop_
_space_group_symop_operation_xyz
x,y,z
-x,-y,z
x,-y,1/2-z
-x,y,1/2-z
-x,-y,-z
x,y,-z
-x,y,1/2+z
x,-y,1/2+z
1/2+x,1/2+y,z
1/2-x,1/2-y,z
1/2+x,1/2-y,1/2-z
1/2-x,1/2+y,1/2-z
1/2-x,1/2-y,-z
1/2+x,1/2+y,-z
1/2-x,1/2+y,1/2+z
1/2+x,1/2-y,1/2+z
loop_
_atom_site_type_symbol
_atom_site_label
_atom_site_fract_x
_atom_site_fract_y
_atom_site_fract_z
Si Si1 0.054853 0.605309 0.151743
Si Si2 0.868127 0.500000 0.750000
Si Si3 0.806819 0.672284 0.564575
Si Si4 0.385197 0.464779 0.622947
Si Si5 0.610949 0.133460 0.564187
Si Si6 0.199078 0.851553 0.705061
O O1 0.096633 0.544329 0.197633
O O2 0.064909 0.837414 0.144839
O O3 0.070594 0.508086 0.094932
O O4 0.000000 0.500000 0.167376
O O5 0.832961 0.315302 0.735795
O O6 0.804486 0.680398 0.500000
O O7 0.750000 0.750000 0.585747
O O8 0.850902 0.819753 0.586149
O O9 0.830226 0.457887 0.577848
O O10 0.398637 0.654967 0.588682
O O11 0.343972 0.538585 0.668341
O O12 0.605237 0.132380 0.500000
O O13 0.250000 0.750000 0.677131
O O14 0.220002 0.000000 0.750000
#
# Coordination Sequence:
#
# PCOD9498790 Si02
#       6
#    16   8  16  16  16  16
#     4  11  25  44  69  93 124 170 224 283 340 390
#     4  12  23  46  64  94 134 162 219 280 330 402
#     4   9  20  36  57  90 130 172 218 266 320 388
#     4  11  23  39  64  93 127 169 221 268 326 401
#     4  10  22  41  63  93 133 172 217 277 336 399
#     4  12  25  40  65  98 132 174 212 265 335 411
#
# _framework density 20.513932
#
# number of rings (size 3 to 8) (size 9 to 14) (size 15 to 20)
#    0.000    1.273    4.545    0.818    2.545    2.545 
#    0.000    3.636    0.000    0.000    0.000    0.000 
#    0.000    0.000    0.000    0.000    0.000    0.000 
#
# Total GULP energy -245446.100603 kJ/mol
# GULP energy per Si atom -5578.320468 kJ/mol
# Density = 2.046724 g / cm^3
# Si number density = 20.513932 Si / 1000 Ang^3
#
#
#
# Elastic Constant Matrix: (Units=GPa)
#
#
# Indices 1 2 3 4 5 6 
#
# 1 89.9439 45.4363 14.3270 0.0000 0.0000 0.0000
# 2 45.4363 143.7035 31.7180 0.0000 0.0000 0.0000
# 3 14.3270 31.7180 55.3359 0.0000 0.0000 0.0000
# 4 0.0000 0.0000 0.0000 25.0000 0.0000 0.0000
# 5 0.0000 0.0000 0.0000 0.0000 -27.5776 0.0000
# 6 0.0000 0.0000 0.0000 0.0000 0.0000 32.0600
#
#
#
# Elastic Compliance Matrix: (Units=1/GPa)
#
#
# Indices 1 2 3 4 5 6 
#
# 1 0.013299 -0.003944 -0.001183 0.000000 0.000000 0.000000
# 2 -0.003944 0.009136 -0.004216 0.000000 0.000000 0.000000
# 3 -0.001183 -0.004216 0.020794 0.000000 0.000000 0.000000
# 4 0.000000 0.000000 0.000000 0.040000 0.000000 0.000000
# 5 0.000000 0.000000 0.000000 0.000000 -0.036261 0.000000
# 6 0.000000 0.000000 0.000000 0.000000 0.000000 0.031192
#
#
# Mechanical properties :
#
#
# Convention : Reuss Voigt Hill
#
# Bulk Modulus (GPa) = 40.74195 52.43844 46.59019
# Shear Modulus (GPa) = 47.60778 19.06328 33.33553
#
# Velocity S-wave (km/s) = 4.82265 3.05172 4.03553
# Velocity P-wave (km/s) = 7.13543 6.16727 6.66894
#
# Compressibility (1/GPa) = 0.02454473
#
# Stress axis : x y z
#
# Youngs Moduli (GPa) = 75.19559 109.45472 48.09070
#
# Poissons Ratio (x) = 0.43166 0.05687
# Poissons Ratio (y) = 0.29655 0.20274
# Poissons Ratio (z) = 0.08893 0.46143
#
# Static dielectric constant tensor:
#      x y z
#    x 1.766840 0.000000 0.000000 
#    y 0.000000 1.794850 0.000000 
#    z 0.000000 0.000000 1.706040 
# 
# From -- ./inp_files/60424.got.cif
#   From: 2010.05.17/outbox.cif.g08.bks.cpg/sg66_31_cif.got.tgz:60424.got - 2010.06.03 17:51:23.
