data_PCOD9498763
_publ_section_title
;
Structure prediction by ZEFSAII (Michael W. Deem and Ramdas Pophale) SiO2 
 PCOD9498763
Probable space group: C C C M
;
_chemical_formula_sum "Si O2"
_cell_formula_units_Z 72
_cell_length_a 9.985997
_cell_length_b 15.255526
_cell_length_c 25.358560
_cell_angle_alpha 90.000000
_cell_angle_beta 90.000000
_cell_angle_gamma 90.000000
_cell_volume 3863.164539
_symmetry_space_group_name_H-M "C C C M"
_symmetry_group_IT_number 66
_symmetry_cell_setting 'orthorhombic'
loop_
_space_group_symop_operation_xyz
x,y,z
-x,-y,z
x,-y,1/2-z
-x,y,1/2-z
-x,-y,-z
x,y,-z
-x,y,1/2+z
x,-y,1/2+z
1/2+x,1/2+y,z
1/2-x,1/2-y,z
1/2+x,1/2-y,1/2-z
1/2-x,1/2+y,1/2-z
1/2-x,1/2-y,-z
1/2+x,1/2+y,-z
1/2-x,1/2+y,1/2+z
1/2+x,1/2-y,1/2+z
loop_
_atom_site_type_symbol
_atom_site_label
_atom_site_fract_x
_atom_site_fract_y
_atom_site_fract_z
Si Si1 0.750000 0.250000 0.914378
Si Si2 0.381168 0.901659 0.850227
Si Si3 0.250000 0.250000 0.183886
Si Si4 0.320053 0.914056 0.385921
Si Si5 0.500000 0.813607 0.250000
Si Si6 0.802562 0.055196 0.500000
Si Si7 0.406919 0.643683 0.000000
O O1 0.701067 0.174293 0.876618
O O2 0.637488 0.295665 0.951004
O O3 0.520139 0.902467 0.882813
O O4 0.423880 0.875553 0.791615
O O5 0.303836 0.992850 0.856372
O O6 0.251382 0.164473 0.146303
O O7 0.384895 0.241105 0.219284
O O8 0.272427 0.921268 0.445906
O O9 0.940805 0.110520 0.500000
O O10 0.827375 0.949592 0.500000
#
# Coordination Sequence:
#
# PCOD9498763 Si02
#       7
#     8  16   8  16   8   8   8
#     4  11  21  42  61  94 121 168 209 247 316 380
#     4  10  22  40  66  91 122 164 206 267 303 377
#     4  10  23  41  63  98 123 165 211 266 316 374
#     4  10  23  40  64  92 125 162 212 250 309 371
#     4  10  22  43  66  91 124 162 216 265 322 359
#     4  11  22  42  58  94 131 171 196 257 314 380
#     4  10  24  36  62  88 131 167 200 253 317 375
#
# _framework density 18.63757
#
# number of rings (size 3 to 8) (size 9 to 14) (size 15 to 20)
#    0.000    1.778    2.222    0.667    6.222   11.111 
#    0.000    0.000    0.000    8.000    0.000    0.000 
#    0.000    0.000    0.000    0.000    0.000    0.000 
#
# Total GULP energy -200807.533210 kJ/mol
# GULP energy per Si atom -5577.987034 kJ/mol
# Density = 1.859515 g / cm^3
# Si number density = 18.637570 Si / 1000 Ang^3
#
#
#
# Elastic Constant Matrix: (Units=GPa)
#
#
# Indices 1 2 3 4 5 6 
#
# 1 33.7787 50.6503 45.8757 0.0000 0.0000 0.0000
# 2 50.6503 168.9527 73.0753 0.0000 0.0000 0.0000
# 3 45.8757 73.0753 144.8289 0.0000 0.0000 0.0000
# 4 0.0000 0.0000 0.0000 -22.4014 0.0000 0.0000
# 5 0.0000 0.0000 0.0000 0.0000 21.5480 0.0000
# 6 0.0000 0.0000 0.0000 0.0000 0.0000 33.9910
#
#
#
# Elastic Compliance Matrix: (Units=1/GPa)
#
#
# Indices 1 2 3 4 5 6 
#
# 1 0.073963 -0.015401 -0.015658 0.000000 0.000000 0.000000
# 2 -0.015401 0.010778 -0.000560 0.000000 0.000000 0.000000
# 3 -0.015658 -0.000560 0.012147 0.000000 0.000000 0.000000
# 4 0.000000 0.000000 0.000000 -0.044640 0.000000 0.000000
# 5 0.000000 0.000000 0.000000 0.000000 0.046408 0.000000
# 6 0.000000 0.000000 0.000000 0.000000 0.000000 0.029420
#
#
# Mechanical properties :
#
#
# Convention : Reuss Voigt Hill
#
# Bulk Modulus (GPa) = 29.71682 76.30700 53.01191
# Shear Modulus (GPa) = 24.68777 18.49145 21.58961
#
# Velocity S-wave (km/s) = 3.64349 3.15327 3.40721
# Velocity P-wave (km/s) = 5.80338 7.36810 6.63205
#
# Compressibility (1/GPa) = 0.03365098
#
# Stress axis : x y z
#
# Youngs Moduli (GPa) = 13.52025 92.78136 82.32632
#
# Poissons Ratio (x) = 1.42894 1.28903
# Poissons Ratio (y) = 0.20823 0.04608
# Poissons Ratio (z) = 0.21169 0.05193
#
# Static dielectric constant tensor:
#      x y z
#    x 1.638200 0.000000 0.000000 
#    y 0.000000 1.628050 0.000000 
#    z 0.000000 0.000000 1.689390 
# 
# From -- ./inp_files/62274.got.cif
#   From: 2010.05.17/outbox.cif.g08.bks.cpg/sg66_32_cif.got.tgz:62274.got - 2010.06.03 17:51:23.
