data_PCOD9498616
_publ_section_title
;
Structure prediction by ZEFSAII (Michael W. Deem and Ramdas Pophale) SiO2 
 PCOD9498616
Probable space group: C C C M
;
_chemical_formula_sum "Si O2"
_cell_formula_units_Z 88
_cell_length_a 23.876007
_cell_length_b 7.462036
_cell_length_c 21.685167
_cell_angle_alpha 90.000000
_cell_angle_beta 90.000000
_cell_angle_gamma 90.000000
_cell_volume 3863.507935
_symmetry_space_group_name_H-M "C C C M"
_symmetry_group_IT_number 66
_symmetry_cell_setting 'orthorhombic'
loop_
_space_group_symop_operation_xyz
x,y,z
-x,-y,z
x,-y,1/2-z
-x,y,1/2-z
-x,-y,-z
x,y,-z
-x,y,1/2+z
x,-y,1/2+z
1/2+x,1/2+y,z
1/2-x,1/2-y,z
1/2+x,1/2-y,1/2-z
1/2-x,1/2+y,1/2-z
1/2-x,1/2-y,-z
1/2+x,1/2+y,-z
1/2-x,1/2+y,1/2+z
1/2+x,1/2-y,1/2+z
loop_
_atom_site_type_symbol
_atom_site_label
_atom_site_fract_x
_atom_site_fract_y
_atom_site_fract_z
Si Si1 0.100823 0.665048 0.000000
Si Si2 0.685333 0.698932 0.599110
Si Si3 0.515175 0.691973 0.399706
Si Si4 0.405661 0.161480 0.836199
Si Si5 0.399105 0.253211 0.299989
Si Si6 0.183856 0.785385 0.431680
O O1 0.149530 0.674790 0.054307
O O2 0.052298 0.693287 0.053752
O O3 0.750000 0.750000 0.597740
O O4 0.659890 0.703338 0.667839
O O5 0.675717 0.498749 0.573616
O O6 0.500000 0.500000 0.428429
O O7 0.459263 0.787207 0.376643
O O8 0.553369 0.649284 0.339745
O O9 0.402051 0.275611 0.773017
O O10 0.351323 0.195475 0.877772
O O11 0.409679 0.956626 0.814934
O O12 0.163768 0.727044 0.500000
O O13 0.250000 0.750000 0.426772
#
# Coordination Sequence:
#
# PCOD9498616 Si02
#       6
#     8  16  16  16  16  16
#     4  10  22  38  60  94 129 166 214 252 316 382
#     4  11  22  42  69  95 130 171 212 266 323 382
#     4  11  23  38  64  96 132 171 215 265 323 382
#     4  11  23  44  67  90 138 168 219 267 317 379
#     4  10  24  43  65  98 125 177 217 265 318 383
#     4  11  25  42  65  98 129 169 213 265 325 385
#
# _framework density 22.777228000000001
#
# number of rings (size 3 to 8) (size 9 to 14) (size 15 to 20)
#    0.000    1.273    0.909    4.909    1.273    5.818 
#    9.818    3.636    0.000    0.000    0.000    0.000 
#    0.000    0.000    0.000    0.000    0.000    0.000 
#
# Total GULP energy -245392.336008 kJ/mol
# GULP energy per Si atom -5577.098546 kJ/mol
# Density = 2.272539 g / cm^3
# Si number density = 22.777228 Si / 1000 Ang^3
#
#
#
# Elastic Constant Matrix: (Units=GPa)
#
#
# Indices 1 2 3 4 5 6 
#
# 1 130.7270 -4.8341 69.6950 0.0000 0.0000 0.0000
# 2 -4.8341 57.8650 7.6956 0.0000 0.0000 0.0000
# 3 69.6950 7.6956 149.1591 0.0000 0.0000 0.0000
# 4 0.0000 0.0000 0.0000 6.8639 0.0000 0.0000
# 5 0.0000 0.0000 0.0000 0.0000 12.7595 0.0000
# 6 0.0000 0.0000 0.0000 0.0000 0.0000 20.3557
#
#
#
# Elastic Compliance Matrix: (Units=1/GPa)
#
#
# Indices 1 2 3 4 5 6 
#
# 1 0.010317 0.001513 -0.004899 0.000000 0.000000 0.000000
# 2 0.001513 0.017623 -0.001616 0.000000 0.000000 0.000000
# 3 -0.004899 -0.001616 0.009077 0.000000 0.000000 0.000000
# 4 0.000000 0.000000 0.000000 0.145690 0.000000 0.000000
# 5 0.000000 0.000000 0.000000 0.000000 0.078373 0.000000
# 6 0.000000 0.000000 0.000000 0.000000 0.000000 0.049126
#
#
# Mechanical properties :
#
#
# Convention : Reuss Voigt Hill
#
# Bulk Modulus (GPa) = 37.01882 53.65155 45.33519
# Shear Modulus (GPa) = 15.18766 25.67547 20.43157
#
# Velocity S-wave (km/s) = 2.58503 3.36109 2.99827
# Velocity P-wave (km/s) = 5.01973 6.21841 5.65094
#
# Compressibility (1/GPa) = 0.02701328
#
# Stress axis : x y z
#
# Youngs Moduli (GPa) = 96.92530 56.74405 110.17304
#
# Poissons Ratio (x) = -0.08588 0.53972
# Poissons Ratio (y) = -0.14669 0.17808
# Poissons Ratio (z) = 0.47482 0.09172
#
# Static dielectric constant tensor:
#      x y z
#    x 1.801760 0.000000 0.000000 
#    y 0.000000 1.974710 0.000000 
#    z 0.000000 0.000000 1.836710 
# 
# From -- ./inp_files/52433.got.cif
#   From: 2010.05.17/outbox.cif.g08.bks.cpg/sg66_27_cif.got.tgz:52433.got - 2010.06.03 17:51:23.
