data_PCOD9498079
_publ_section_title
;
Structure prediction by ZEFSAII (Michael W. Deem and Ramdas Pophale) SiO2 
 PCOD9498079
Probable space group: C C C M
;
_chemical_formula_sum "Si O2"
_cell_formula_units_Z 56
_cell_length_a 5.280165
_cell_length_b 24.725540
_cell_length_c 21.696262
_cell_angle_alpha 90.000000
_cell_angle_beta 90.000000
_cell_angle_gamma 90.000000
_cell_volume 2832.553987
_symmetry_space_group_name_H-M "C C C M"
_symmetry_group_IT_number 66
_symmetry_cell_setting 'orthorhombic'
loop_
_space_group_symop_operation_xyz
x,y,z
-x,-y,z
x,-y,1/2-z
-x,y,1/2-z
-x,-y,-z
x,y,-z
-x,y,1/2+z
x,-y,1/2+z
1/2+x,1/2+y,z
1/2-x,1/2-y,z
1/2+x,1/2-y,1/2-z
1/2-x,1/2+y,1/2-z
1/2-x,1/2-y,-z
1/2+x,1/2+y,-z
1/2-x,1/2+y,1/2+z
1/2+x,1/2-y,1/2+z
loop_
_atom_site_type_symbol
_atom_site_label
_atom_site_fract_x
_atom_site_fract_y
_atom_site_fract_z
Si Si1 0.749293 0.976143 0.320605
Si Si2 0.213986 0.185059 0.927462
Si Si3 0.294752 0.146828 0.641201
Si Si4 0.000000 0.279682 0.250000
O O1 0.740041 0.912135 0.328227
O O2 0.500000 0.000000 0.350796
O O3 0.749438 0.000000 0.250000
O O4 0.000000 0.000000 0.350149
O O5 0.250000 0.250000 0.919931
O O6 0.466154 0.153658 0.904708
O O7 0.966179 0.165525 0.890335
O O8 0.174224 0.175266 0.000000
O O9 0.372469 0.185842 0.696561
O O10 0.750000 0.250000 0.276386
#
# Coordination Sequence:
#
# PCOD9498079 Si02
#       4
#    16  16  16   8
#     4  10  21  38  59  87 119 157 205 250 305 371
#     4  11  24  43  66  93 127 169 215 257 305 373
#     4  12  23  40  65  92 126 166 209 258 316 378
#     4  12  24  36  57  94 135 162 194 252 324 390
#
# _framework density 19.770146
#
# number of rings (size 3 to 8) (size 9 to 14) (size 15 to 20)
#    0.000    0.857    0.000    9.429    0.000    6.857 
#    0.000    0.000    0.000   17.143    0.000    0.000 
#    0.000    0.000    0.000    0.000    0.000    0.000 
#
# Total GULP energy -156307.927983 kJ/mol
# GULP energy per Si atom -5582.425999 kJ/mol
# Density = 1.972515 g / cm^3
# Si number density = 19.770146 Si / 1000 Ang^3
#
#
#
# Elastic Constant Matrix: (Units=GPa)
#
#
# Indices 1 2 3 4 5 6 
#
# 1 213.9666 76.8356 46.2762 0.0000 0.0000 0.0000
# 2 76.8356 143.2254 53.2773 0.0000 0.0000 0.0000
# 3 46.2762 53.2773 109.5022 0.0000 0.0000 0.0000
# 4 0.0000 0.0000 0.0000 29.8332 0.0000 0.0000
# 5 0.0000 0.0000 0.0000 0.0000 26.4713 0.0000
# 6 0.0000 0.0000 0.0000 0.0000 0.0000 32.0296
#
#
#
# Elastic Compliance Matrix: (Units=1/GPa)
#
#
# Indices 1 2 3 4 5 6 
#
# 1 0.005908 -0.002736 -0.001166 0.000000 0.000000 0.000000
# 2 -0.002736 0.009792 -0.003608 0.000000 0.000000 0.000000
# 3 -0.001166 -0.003608 0.011380 0.000000 0.000000 0.000000
# 4 0.000000 0.000000 0.000000 0.033520 0.000000 0.000000
# 5 0.000000 0.000000 0.000000 0.000000 0.037777 0.000000
# 6 0.000000 0.000000 0.000000 0.000000 0.000000 0.031221
#
#
# Mechanical properties :
#
#
# Convention : Reuss Voigt Hill
#
# Bulk Modulus (GPa) = 82.91033 91.05249 86.98141
# Shear Modulus (GPa) = 33.63890 37.02048 35.32969
#
# Velocity S-wave (km/s) = 4.12940 4.33199 4.23190
# Velocity P-wave (km/s) = 8.04761 8.43665 8.24443
#
# Compressibility (1/GPa) = 0.01206122
#
# Stress axis : x y z
#
# Youngs Moduli (GPa) = 169.25570 102.12613 87.87150
#
# Poissons Ratio (x) = 0.27941 0.10243
# Poissons Ratio (y) = 0.46307 0.31703
# Poissons Ratio (z) = 0.19730 0.36846
#
# Static dielectric constant tensor:
#      x y z
#    x 1.778920 0.000000 0.000000 
#    y 0.000000 2.002190 0.000000 
#    z 0.000000 0.000000 1.677160 
# 
# From -- ./inp_files/45479.got.cif
#   From: 2010.05.17/outbox.cif.g08.bks.cpg/sg66_23_cif.got.tgz:45479.got - 2010.06.03 17:51:23.
