data_PCOD9498773
_publ_section_title
;
Structure prediction by ZEFSAII (Michael W. Deem and Ramdas Pophale) SiO2 
 PCOD9498773
Probable space group: C C C M
;
_chemical_formula_sum "Si O2"
_cell_formula_units_Z 64
_cell_length_a 12.031641
_cell_length_b 8.235057
_cell_length_c 27.407214
_cell_angle_alpha 90.000000
_cell_angle_beta 90.000000
_cell_angle_gamma 90.000000
_cell_volume 2715.541007
_symmetry_space_group_name_H-M "C C C M"
_symmetry_group_IT_number 66
_symmetry_cell_setting 'orthorhombic'
loop_
_space_group_symop_operation_xyz
x,y,z
-x,-y,z
x,-y,1/2-z
-x,y,1/2-z
-x,-y,-z
x,y,-z
-x,y,1/2+z
x,-y,1/2+z
1/2+x,1/2+y,z
1/2-x,1/2-y,z
1/2+x,1/2-y,1/2-z
1/2-x,1/2+y,1/2-z
1/2-x,1/2-y,-z
1/2+x,1/2+y,-z
1/2-x,1/2+y,1/2+z
1/2+x,1/2-y,1/2+z
loop_
_atom_site_type_symbol
_atom_site_label
_atom_site_fract_x
_atom_site_fract_y
_atom_site_fract_z
Si Si1 0.000000 0.000000 0.250000
Si Si2 0.313443 0.910445 0.429422
Si Si3 0.836299 0.388864 0.687194
Si Si4 0.590724 0.232671 0.184610
Si Si5 0.000000 0.500000 0.500000
Si Si6 0.750000 0.750000 0.594336
O O1 0.918533 0.105210 0.215898
O O2 0.250000 0.750000 0.444507
O O3 0.316799 0.908002 0.370865
O O4 0.428744 0.908237 0.457114
O O5 0.261468 0.089078 0.438225
O O6 0.750000 0.250000 0.703876
O O7 0.840661 0.577339 0.704877
O O8 0.962464 0.323490 0.688266
O O9 0.643816 0.264712 0.131353
#
# Coordination Sequence:
#
# PCOD9498773 Si02
#       6
#     4  16  16  16   4   8
#     4  12  28  38  60 108 146 176 216 306 376 406
#     4  10  22  40  67  97 131 182 225 275 336 404
#     4   9  20  44  72  90 127 192 241 275 328 428
#     4  10  23  42  63  99 131 171 233 289 347 415
#     4  12  22  42  62 104 152 166 212 288 352 396
#     4  10  22  47  72  94 130 182 240 272 326 431
#
# _framework density 23.568048999999998
#
# number of rings (size 3 to 8) (size 9 to 14) (size 15 to 20)
#    0.000    2.000    0.000    3.375   10.500    2.500 
#    2.250    1.250    0.000    0.000    0.000    0.000 
#    0.000    0.000    0.000    0.000    0.000    0.000 
#
# Total GULP energy -178178.524957 kJ/mol
# GULP energy per Si atom -5568.078905 kJ/mol
# Density = 2.351441 g / cm^3
# Si number density = 23.568049 Si / 1000 Ang^3
#
#
#
# Elastic Constant Matrix: (Units=GPa)
#
#
# Indices 1 2 3 4 5 6 
#
# 1 107.3580 47.5490 8.0248 0.0000 0.0000 0.0000
# 2 47.5490 173.5560 46.9167 0.0000 0.0000 0.0000
# 3 8.0248 46.9167 53.7512 0.0000 0.0000 0.0000
# 4 0.0000 0.0000 0.0000 -30.0964 0.0000 0.0000
# 5 0.0000 0.0000 0.0000 0.0000 -24.0272 0.0000
# 6 0.0000 0.0000 0.0000 0.0000 0.0000 50.0989
#
#
#
# Elastic Compliance Matrix: (Units=1/GPa)
#
#
# Indices 1 2 3 4 5 6 
#
# 1 0.010665 -0.003261 0.001254 0.000000 0.000000 0.000000
# 2 -0.003261 0.008538 -0.006966 0.000000 0.000000 0.000000
# 3 0.001254 -0.006966 0.024497 0.000000 0.000000 0.000000
# 4 0.000000 0.000000 0.000000 -0.033227 0.000000 0.000000
# 5 0.000000 0.000000 0.000000 0.000000 -0.041619 0.000000
# 6 0.000000 0.000000 0.000000 0.000000 0.000000 0.019961
#
#
# Mechanical properties :
#
#
# Convention : Reuss Voigt Hill
#
# Bulk Modulus (GPa) = 38.82715 59.96069 49.39392
# Shear Modulus (GPa) = 325.83190 14.67337 170.25263
#
# Velocity S-wave (km/s) = 11.77080 2.49789 8.50856
# Velocity P-wave (km/s) = 14.18611 5.81516 10.84117
#
# Compressibility (1/GPa) = 0.02575518
#
# Stress axis : x y z
#
# Youngs Moduli (GPa) = 93.76326 117.12009 40.82122
#
# Poissons Ratio (x) = 0.38192 -0.05119
# Poissons Ratio (y) = 0.30575 0.28435
# Poissons Ratio (z) = -0.11758 0.81583
#
# Static dielectric constant tensor:
#      x y z
#    x 1.858910 0.000000 0.000000 
#    y 0.000000 2.009680 0.000000 
#    z 0.000000 0.000000 1.953030 
# 
# From -- ./inp_files/68636.got.cif
#   From: 2010.05.17/outbox.cif.g08.bks.cpg/sg66_35_cif.got.tgz:68636.got - 2010.06.03 17:51:23.
