data_PCOD9498602
_publ_section_title
;
Structure prediction by ZEFSAII (Michael W. Deem and Ramdas Pophale) SiO2 
 PCOD9498602
Probable space group: C C C M
;
_chemical_formula_sum "Si O2"
_cell_formula_units_Z 96
_cell_length_a 24.427603
_cell_length_b 10.760365
_cell_length_c 14.393177
_cell_angle_alpha 90.000000
_cell_angle_beta 90.000000
_cell_angle_gamma 90.000000
_cell_volume 3783.245486
_symmetry_space_group_name_H-M "C C C M"
_symmetry_group_IT_number 66
_symmetry_cell_setting 'orthorhombic'
loop_
_space_group_symop_operation_xyz
x,y,z
-x,-y,z
x,-y,1/2-z
-x,y,1/2-z
-x,-y,-z
x,y,-z
-x,y,1/2+z
x,-y,1/2+z
1/2+x,1/2+y,z
1/2-x,1/2-y,z
1/2+x,1/2-y,1/2-z
1/2-x,1/2+y,1/2-z
1/2-x,1/2-y,-z
1/2+x,1/2+y,-z
1/2-x,1/2+y,1/2+z
1/2+x,1/2-y,1/2+z
loop_
_atom_site_type_symbol
_atom_site_label
_atom_site_fract_x
_atom_site_fract_y
_atom_site_fract_z
Si Si1 0.027542 0.173516 0.387956
Si Si2 0.809737 0.218630 0.395381
Si Si3 0.576972 0.195523 0.614449
Si Si4 0.090245 0.577469 0.113578
Si Si5 0.307356 0.209813 0.607483
Si Si6 0.132984 0.966952 0.856150
O O1 0.024313 0.172706 0.500000
O O2 0.056888 0.301573 0.357364
O O3 0.067645 0.058389 0.367557
O O4 0.965893 0.200408 0.353625
O O5 0.807125 0.271703 0.500000
O O6 0.750000 0.250000 0.356090
O O7 0.862327 0.279900 0.347914
O O8 0.831502 0.076923 0.402523
O O9 0.578013 0.202090 0.500000
O O10 0.564675 0.053862 0.640117
O O11 0.153178 0.600731 0.143393
O O12 0.090143 0.579429 0.000000
O O13 0.296069 0.175493 0.500000
O O14 0.250000 0.250000 0.651116
O O15 0.342311 0.336337 0.611167
O O16 0.142234 0.000000 0.750000
#
# Coordination Sequence:
#
# PCOD9498602 Si02
#       6
#    16  16  16  16  16  16
#     4   9  17  33  57  84 115 146 189 246 298 351
#     4  10  22  38  58  83 114 149 191 242 290 347
#     4   9  17  30  54  86 114 145 184 237 299 350
#     4   8  14  26  49  85 116 138 177 235 297 348
#     4   9  18  32  57  86 115 154 201 254 304 360
#     4  11  23  38  55  79 117 159 200 243 294 358
#
# _framework density 25.375038
#
# number of rings (size 3 to 8) (size 9 to 14) (size 15 to 20)
#    0.000    2.667    0.000    3.000    2.333    3.333 
#    0.000    4.167    0.000    0.000    0.000    4.667 
#    0.000    0.000    0.000    0.000    0.000   10.667 
#
# Total GULP energy -267775.385457 kJ/mol
# GULP energy per Si atom -5578.653864 kJ/mol
# Density = 2.531728 g / cm^3
# Si number density = 25.375038 Si / 1000 Ang^3
#
#
#
# Elastic Constant Matrix: (Units=GPa)
#
#
# Indices 1 2 3 4 5 6 
#
# 1 202.6886 74.3380 15.4551 0.0000 0.0000 0.0000
# 2 74.3380 137.4544 -19.4789 0.0000 0.0000 0.0000
# 3 15.4551 -19.4789 76.7726 0.0000 0.0000 0.0000
# 4 0.0000 0.0000 0.0000 -3.0292 0.0000 0.0000
# 5 0.0000 0.0000 0.0000 0.0000 69.2278 0.0000
# 6 0.0000 0.0000 0.0000 0.0000 0.0000 29.5167
#
#
#
# Elastic Compliance Matrix: (Units=1/GPa)
#
#
# Indices 1 2 3 4 5 6 
#
# 1 0.006521 -0.003851 -0.002290 0.000000 0.000000 0.000000
# 2 -0.003851 0.009821 0.003267 0.000000 0.000000 0.000000
# 3 -0.002290 0.003267 0.014315 0.000000 0.000000 0.000000
# 4 0.000000 0.000000 0.000000 -0.330125 0.000000 0.000000
# 5 0.000000 0.000000 0.000000 0.000000 0.014445 0.000000
# 6 0.000000 0.000000 0.000000 0.000000 0.000000 0.033879
#
#
# Mechanical properties :
#
#
# Convention : Reuss Voigt Hill
#
# Bulk Modulus (GPa) = 40.14564 61.94932 51.04748
# Shear Modulus (GPa) = -21.08875 42.24983 10.58054
#
# Velocity S-wave (km/s) = -2.88598 4.08489 2.04419
# Velocity P-wave (km/s) = 2.17947 6.83483 5.07272
#
# Compressibility (1/GPa) = 0.02490931
#
# Stress axis : x y z
#
# Youngs Moduli (GPa) = 153.35889 101.82483 69.85514
#
# Poissons Ratio (x) = 0.39212 0.15995
# Poissons Ratio (y) = 0.59058 -0.22822
# Poissons Ratio (z) = 0.35115 -0.33266
#
# Static dielectric constant tensor:
#      x y z
#    x 2.103400 0.000000 0.000000 
#    y 0.000000 1.996790 0.000000 
#    z 0.000000 0.000000 2.035190 
# 
# From -- ./inp_files/43567.got.cif
#   From: 2010.05.17/outbox.cif.g08.bks.cpg/sg66_22_cif.got.tgz:43567.got - 2010.06.03 17:51:23.
