data_PCOD9498885
_publ_section_title
;
Structure prediction by ZEFSAII (Michael W. Deem and Ramdas Pophale) SiO2 
 PCOD9498885
Probable space group: C C C M
;
_chemical_formula_sum "Si O2"
_cell_formula_units_Z 88
_cell_length_a 14.141833
_cell_length_b 17.511394
_cell_length_c 14.226901
_cell_angle_alpha 90.000000
_cell_angle_beta 90.000000
_cell_angle_gamma 90.000000
_cell_volume 3523.195426
_symmetry_space_group_name_H-M "C C C M"
_symmetry_group_IT_number 66
_symmetry_cell_setting 'orthorhombic'
loop_
_space_group_symop_operation_xyz
x,y,z
-x,-y,z
x,-y,1/2-z
-x,y,1/2-z
-x,-y,-z
x,y,-z
-x,y,1/2+z
x,-y,1/2+z
1/2+x,1/2+y,z
1/2-x,1/2-y,z
1/2+x,1/2-y,1/2-z
1/2-x,1/2+y,1/2-z
1/2-x,1/2-y,-z
1/2+x,1/2+y,-z
1/2-x,1/2+y,1/2+z
1/2+x,1/2-y,1/2+z
loop_
_atom_site_type_symbol
_atom_site_label
_atom_site_fract_x
_atom_site_fract_y
_atom_site_fract_z
Si Si1 0.867138 0.680600 0.500000
Si Si2 0.492667 0.590220 0.863207
Si Si3 0.398146 0.780418 0.208581
Si Si4 0.829868 0.430358 0.682888
Si Si5 0.176811 0.897462 0.000000
Si Si6 0.322249 0.682766 0.363249
Si Si7 0.864036 0.508347 0.500000
O O1 0.897022 0.717028 0.402524
O O2 0.754233 0.668962 0.500000
O O3 0.906616 0.593251 0.500000
O O4 0.500000 0.500000 0.889437
O O5 0.500000 0.591960 0.750000
O O6 0.391802 0.608204 0.910496
O O7 0.574824 0.650629 0.896255
O O8 0.500000 0.765574 0.250000
O O9 0.371664 0.862960 0.252830
O O10 0.337697 0.714852 0.258177
O O11 0.806264 0.500000 0.750000
O O12 0.738679 0.392853 0.637196
O O13 0.888057 0.462525 0.594521
O O14 0.250104 0.969664 0.000000
O O15 0.250000 0.750000 0.402735
#
# Coordination Sequence:
#
# PCOD9498885 Si02
#       7
#     8  16  16  16   8  16   8
#     4  10  24  48  84 114 147 218 266 337 400 487
#     4  11  24  39  72 113 154 206 262 342 408 484
#     4  11  25  50  74 113 161 206 267 323 415 490
#     4  11  22  44  75 108 153 200 262 331 397 481
#     4  10  23  44  69 116 155 185 274 327 393 472
#     4  10  25  44  72 103 160 214 258 323 422 484
#     4  10  22  42  76 121 144 195 272 333 406 468
#
# _framework density 24.977325
#
# number of rings (size 3 to 8) (size 9 to 14) (size 15 to 20)
#    0.545    0.909    1.818    1.909   10.182    1.818 
#    0.000   18.636    0.000    0.000    0.000    0.000 
#    0.000    0.000    0.000    0.000    0.000    0.000 
#
# Total GULP energy -245631.753897 kJ/mol
# GULP energy per Si atom -5582.539861 kJ/mol
# Density = 2.492048 g / cm^3
# Si number density = 24.977325 Si / 1000 Ang^3
#
#
#
# Elastic Constant Matrix: (Units=GPa)
#
#
# Indices 1 2 3 4 5 6 
#
# 1 128.9560 24.0756 32.1435 0.0000 0.0000 0.0000
# 2 24.0756 172.9207 42.5371 0.0000 0.0000 0.0000
# 3 32.1435 42.5371 202.6309 0.0000 0.0000 0.0000
# 4 0.0000 0.0000 0.0000 -2.3081 0.0000 0.0000
# 5 0.0000 0.0000 0.0000 0.0000 14.7619 0.0000
# 6 0.0000 0.0000 0.0000 0.0000 0.0000 30.3630
#
#
#
# Elastic Compliance Matrix: (Units=1/GPa)
#
#
# Indices 1 2 3 4 5 6 
#
# 1 0.008195 -0.000866 -0.001118 0.000000 0.000000 0.000000
# 2 -0.000866 0.006189 -0.001162 0.000000 0.000000 0.000000
# 3 -0.001118 -0.001162 0.005356 0.000000 0.000000 0.000000
# 4 0.000000 0.000000 0.000000 -0.433253 0.000000 0.000000
# 5 0.000000 0.000000 0.000000 0.000000 0.067742 0.000000
# 6 0.000000 0.000000 0.000000 0.000000 0.000000 0.032935
#
#
# Mechanical properties :
#
#
# Convention : Reuss Voigt Hill
#
# Bulk Modulus (GPa) = 74.35701 78.00224 76.17962
# Shear Modulus (GPa) = -16.55295 35.61346 9.53026
#
# Velocity S-wave (km/s) = -2.57713 3.78012 1.95547
# Velocity P-wave (km/s) = 4.58028 7.09573 5.97195
#
# Compressibility (1/GPa) = 0.01344863
#
# Stress axis : x y z
#
# Youngs Moduli (GPa) = 122.02612 161.56694 186.69322
#
# Poissons Ratio (x) = 0.13990 0.20876
# Poissons Ratio (y) = 0.10566 0.21693
# Poissons Ratio (z) = 0.13645 0.18773
#
# Static dielectric constant tensor:
#      x y z
#    x 2.172570 0.000000 0.000000 
#    y 0.000000 1.982170 0.000000 
#    z 0.000000 0.000000 1.966790 
# 
# From -- ./inp_files/28246.got.cif
#   From: 2010.05.17/outbox.cif.g08.bks.cpg/sg66_15_cif.got.tgz:28246.got - 2010.06.03 17:51:23.
