data_PCOD9498767
_publ_section_title
;
Structure prediction by ZEFSAII (Michael W. Deem and Ramdas Pophale) SiO2 
 PCOD9498767
Probable space group: C C C M
;
_chemical_formula_sum "Si O2"
_cell_formula_units_Z 88
_cell_length_a 22.119168
_cell_length_b 7.992239
_cell_length_c 23.392149
_cell_angle_alpha 90.000000
_cell_angle_beta 90.000000
_cell_angle_gamma 90.000000
_cell_volume 4135.303332
_symmetry_space_group_name_H-M "C C C M"
_symmetry_group_IT_number 66
_symmetry_cell_setting 'orthorhombic'
loop_
_space_group_symop_operation_xyz
x,y,z
-x,-y,z
x,-y,1/2-z
-x,y,1/2-z
-x,-y,-z
x,y,-z
-x,y,1/2+z
x,-y,1/2+z
1/2+x,1/2+y,z
1/2-x,1/2-y,z
1/2+x,1/2-y,1/2-z
1/2-x,1/2+y,1/2-z
1/2-x,1/2-y,-z
1/2+x,1/2+y,-z
1/2-x,1/2+y,1/2+z
1/2+x,1/2-y,1/2+z
loop_
_atom_site_type_symbol
_atom_site_label
_atom_site_fract_x
_atom_site_fract_y
_atom_site_fract_z
Si Si1 0.394271 0.203668 0.000000
Si Si2 0.435572 0.086314 0.877952
Si Si3 0.935790 0.196121 0.271125
Si Si4 0.814327 0.179307 0.779450
Si Si5 0.655950 0.799924 0.398989
Si Si6 0.223311 0.515799 0.000000
Si Si7 0.367506 0.574822 0.000000
O O1 0.425650 0.134690 0.943615
O O2 0.400840 0.401227 0.000000
O O3 0.322958 0.143346 0.000000
O O4 0.430578 0.249363 0.837241
O O5 0.500000 0.000000 0.868745
O O6 0.383759 0.945667 0.870101
O O7 0.874940 0.267872 0.243198
O O8 0.000000 0.266123 0.250000
O O9 0.937114 0.000000 0.250000
O O10 0.750000 0.250000 0.761902
O O11 0.818193 0.186700 0.848116
O O12 0.816105 0.000000 0.750000
O O13 0.619547 0.684056 0.443645
O O14 0.703016 0.888305 0.442169
O O15 0.295834 0.521584 0.000000
#
# Coordination Sequence:
#
# PCOD9498767 Si02
#       7
#     8  16  16  16  16   8   8
#     4  10  24  39  68 101 132 167 223 278 347 400
#     4  11  24  46  71  96 132 175 220 280 343 409
#     4  10  24  46  72  96 133 176 238 278 326 402
#     4  11  25  41  63  98 140 174 225 285 346 400
#     4  10  22  40  66  94 131 175 222 275 340 407
#     4   9  19  42  62  95 127 175 225 271 334 415
#     4  11  21  39  67  98 133 175 222 271 341 401
#
# _framework density 21.280179
#
# number of rings (size 3 to 8) (size 9 to 14) (size 15 to 20)
#    0.000    1.636    0.000    4.364    7.636    1.818 
#    0.000    0.909    0.000    0.000    0.000    0.000 
#    0.000    0.000    0.000    0.000    0.000    0.000 
#
# Total GULP energy -245253.435307 kJ/mol
# GULP energy per Si atom -5573.941712 kJ/mol
# Density = 2.123174 g / cm^3
# Si number density = 21.280179 Si / 1000 Ang^3
#
#
#
# Elastic Constant Matrix: (Units=GPa)
#
#
# Indices 1 2 3 4 5 6 
#
# 1 113.0932 6.4570 32.3802 0.0000 0.0000 0.0000
# 2 6.4570 97.9049 51.2205 0.0000 0.0000 0.0000
# 3 32.3802 51.2205 151.6665 0.0000 0.0000 0.0000
# 4 0.0000 0.0000 0.0000 37.5656 0.0000 0.0000
# 5 0.0000 0.0000 0.0000 0.0000 11.9838 0.0000
# 6 0.0000 0.0000 0.0000 0.0000 0.0000 11.7328
#
#
#
# Elastic Compliance Matrix: (Units=1/GPa)
#
#
# Indices 1 2 3 4 5 6 
#
# 1 0.009440 0.000524 -0.002193 0.000000 0.000000 0.000000
# 2 0.000524 0.012435 -0.004312 0.000000 0.000000 0.000000
# 3 -0.002193 -0.004312 0.008518 0.000000 0.000000 0.000000
# 4 0.000000 0.000000 0.000000 0.026620 0.000000 0.000000
# 5 0.000000 0.000000 0.000000 0.000000 0.083446 0.000000
# 6 0.000000 0.000000 0.000000 0.000000 0.000000 0.085231
#
#
# Mechanical properties :
#
#
# Convention : Reuss Voigt Hill
#
# Bulk Modulus (GPa) = 54.24894 60.30890 57.27892
# Shear Modulus (GPa) = 20.50917 30.43024 25.46970
#
# Velocity S-wave (km/s) = 3.10783 3.78561 3.46334
# Velocity P-wave (km/s) = 6.19889 6.89273 6.55500
#
# Compressibility (1/GPa) = 0.01843354
#
# Stress axis : x y z
#
# Youngs Moduli (GPa) = 105.93129 80.41793 117.40407
#
# Poissons Ratio (x) = -0.04218 0.25741
# Poissons Ratio (y) = -0.05556 0.50619
# Poissons Ratio (z) = 0.23226 0.34672
#
# Static dielectric constant tensor:
#      x y z
#    x 1.825880 0.000000 0.000000 
#    y 0.000000 1.797760 0.000000 
#    z 0.000000 0.000000 1.767670 
# 
# From -- ./inp_files/52453.got.cif
#   From: 2010.05.17/outbox.cif.g08.bks.cpg/sg66_27_cif.got.tgz:52453.got - 2010.06.03 17:51:23.
