data_PCOD9498733
_publ_section_title
;
Structure prediction by ZEFSAII (Michael W. Deem and Ramdas Pophale) SiO2 
 PCOD9498733
Probable space group: C C C M
;
_chemical_formula_sum "Si O2"
_cell_formula_units_Z 72
_cell_length_a 20.072832
_cell_length_b 9.473443
_cell_length_c 17.988488
_cell_angle_alpha 90.000000
_cell_angle_beta 90.000000
_cell_angle_gamma 90.000000
_cell_volume 3420.669828
_symmetry_space_group_name_H-M "C C C M"
_symmetry_group_IT_number 66
_symmetry_cell_setting 'orthorhombic'
loop_
_space_group_symop_operation_xyz
x,y,z
-x,-y,z
x,-y,1/2-z
-x,y,1/2-z
-x,-y,-z
x,y,-z
-x,y,1/2+z
x,-y,1/2+z
1/2+x,1/2+y,z
1/2-x,1/2-y,z
1/2+x,1/2-y,1/2-z
1/2-x,1/2+y,1/2-z
1/2-x,1/2-y,-z
1/2+x,1/2+y,-z
1/2-x,1/2+y,1/2+z
1/2+x,1/2-y,1/2+z
loop_
_atom_site_type_symbol
_atom_site_label
_atom_site_fract_x
_atom_site_fract_y
_atom_site_fract_z
Si Si1 0.439517 0.321347 0.500000
Si Si2 0.500000 0.500000 0.124887
Si Si3 0.174163 0.722733 0.773159
Si Si4 0.803502 0.370740 0.000000
Si Si5 0.056564 0.616670 0.500000
Si Si6 0.593631 0.500000 0.250000
Si Si7 0.654362 0.961440 0.869155
O O1 0.447509 0.416015 0.426456
O O2 0.377337 0.209932 0.500000
O O3 0.513495 0.255219 0.500000
O O4 0.548896 0.572115 0.185152
O O5 0.250000 0.750000 0.797675
O O6 0.137754 0.871269 0.778497
O O7 0.137298 0.602249 0.821671
O O8 0.176651 0.655222 0.690083
O O9 0.750000 0.250000 0.000000
O O10 0.794880 0.471599 0.928796
O O11 0.098842 0.598394 0.574975
O O12 0.000000 0.500000 0.500000
#
# Coordination Sequence:
#
# PCOD9498733 Si02
#       7
#     8   8  16   8   8   8  16
#     4  11  21  41  61  89 123 161 202 253 325 359
#     4  10  24  38  60  86 124 164 202 254 308 390
#     4  11  23  41  64  91 129 169 208 264 316 381
#     4  11  22  39  66  96 126 165 214 260 320 394
#     4  11  21  39  65  88 125 156 207 273 310 366
#     4  11  22  40  60  88 124 161 212 250 314 373
#     4  10  22  40  62  98 121 160 217 257 320 369
#
# _framework density 21.048508999999999
#
# number of rings (size 3 to 8) (size 9 to 14) (size 15 to 20)
#    0.000    1.333    2.222    4.667    0.000    1.778 
#    0.000    3.333    0.000    0.000    0.000    0.000 
#    0.000    0.000    0.000    0.000    0.000    0.000 
#
# Total GULP energy -200410.373997 kJ/mol
# GULP energy per Si atom -5566.954833 kJ/mol
# Density = 2.100060 g / cm^3
# Si number density = 21.048509 Si / 1000 Ang^3
#
#
#
# Elastic Constant Matrix: (Units=GPa)
#
#
# Indices 1 2 3 4 5 6 
#
# 1 73.1993 9.8033 17.3487 0.0000 0.0000 0.0000
# 2 9.8033 64.8674 21.6393 0.0000 0.0000 0.0000
# 3 17.3487 21.6393 124.0436 0.0000 0.0000 0.0000
# 4 0.0000 0.0000 0.0000 66.1602 0.0000 0.0000
# 5 0.0000 0.0000 0.0000 0.0000 19.3359 0.0000
# 6 0.0000 0.0000 0.0000 0.0000 0.0000 43.2673
#
#
#
# Elastic Compliance Matrix: (Units=1/GPa)
#
#
# Indices 1 2 3 4 5 6 
#
# 1 0.014281 -0.001584 -0.001721 0.000000 0.000000 0.000000
# 2 -0.001584 0.016544 -0.002665 0.000000 0.000000 0.000000
# 3 -0.001721 -0.002665 0.008767 0.000000 0.000000 0.000000
# 4 0.000000 0.000000 0.000000 0.015115 0.000000 0.000000
# 5 0.000000 0.000000 0.000000 0.000000 0.051717 0.000000
# 6 0.000000 0.000000 0.000000 0.000000 0.000000 0.023112
#
#
# Mechanical properties :
#
#
# Convention : Reuss Voigt Hill
#
# Bulk Modulus (GPa) = 36.16199 39.96588 38.06393
# Shear Modulus (GPa) = 33.17970 39.97396 36.57683
#
# Velocity S-wave (km/s) = 3.97463 4.36263 4.17314
# Velocity P-wave (km/s) = 6.18718 6.66375 6.42988
#
# Compressibility (1/GPa) = 0.02765335
#
# Stress axis : x y z
#
# Youngs Moduli (GPa) = 70.02121 60.44350 114.06126
#
# Poissons Ratio (x) = 0.09575 0.19630
# Poissons Ratio (y) = 0.11093 0.30393
# Poissons Ratio (z) = 0.12051 0.16106
#
# Static dielectric constant tensor:
#      x y z
#    x 1.805340 0.000000 0.000000 
#    y 0.000000 1.826580 0.000000 
#    z 0.000000 0.000000 3.532280 
# 
# From -- ./inp_files/43495.got.cif
#   From: 2010.05.17/outbox.cif.g08.bks.cpg/sg66_22_cif.got.tgz:43495.got - 2010.06.03 17:51:23.
