data_PCOD9498293
_publ_section_title
;
Structure prediction by ZEFSAII (Michael W. Deem and Ramdas Pophale) SiO2 
 PCOD9498293
Probable space group: C C C M
;
_chemical_formula_sum "Si O2"
_cell_formula_units_Z 68
_cell_length_a 9.524734
_cell_length_b 16.149563
_cell_length_c 21.609631
_cell_angle_alpha 90.000000
_cell_angle_beta 90.000000
_cell_angle_gamma 90.000000
_cell_volume 3323.999746
_symmetry_space_group_name_H-M "C C C M"
_symmetry_group_IT_number 66
_symmetry_cell_setting 'orthorhombic'
loop_
_space_group_symop_operation_xyz
x,y,z
-x,-y,z
x,-y,1/2-z
-x,y,1/2-z
-x,-y,-z
x,y,-z
-x,y,1/2+z
x,-y,1/2+z
1/2+x,1/2+y,z
1/2-x,1/2-y,z
1/2+x,1/2-y,1/2-z
1/2-x,1/2+y,1/2-z
1/2-x,1/2-y,-z
1/2+x,1/2+y,-z
1/2-x,1/2+y,1/2+z
1/2+x,1/2-y,1/2+z
loop_
_atom_site_type_symbol
_atom_site_label
_atom_site_fract_x
_atom_site_fract_y
_atom_site_fract_z
Si Si1 0.420725 0.587520 0.932069
Si Si2 0.124553 0.143362 0.169733
Si Si3 0.500000 0.500000 0.750000
Si Si4 0.557637 0.170218 0.315903
Si Si5 0.908569 0.584400 0.426650
O O1 0.500000 0.500000 0.934316
O O2 0.517415 0.639985 0.887223
O O3 0.258308 0.572216 0.915583
O O4 0.420808 0.626055 0.000000
O O5 0.089540 0.062686 0.209405
O O6 0.290663 0.138688 0.160711
O O7 0.088836 0.233063 0.197222
O O8 0.500000 0.135306 0.250000
O O9 0.457197 0.148661 0.373612
O O10 0.926253 0.608441 0.500000
O O11 0.000000 0.500000 0.418638
#
# Coordination Sequence:
#
# PCOD9498293 Si02
#       5
#    16  16   4  16  16
#     4  10  21  39  65  95 126 172 229 276 326 396
#     4  11  25  42  67  97 130 176 219 276 337 396
#     4  12  24  44  68  92 126 180 226 254 328 416
#     4  11  26  43  64 101 138 170 218 283 340 394
#     4  10  23  42  66  96 136 182 226 277 338 403
#
# _framework density 20.457281999999999
#
# number of rings (size 3 to 8) (size 9 to 14) (size 15 to 20)
#    0.000    1.412    2.353    1.412    3.294    5.176 
#    0.000    4.706    0.000    0.000    0.000    0.000 
#    0.000    0.000    0.000    0.000    0.000    0.000 
#
# Total GULP energy -189427.870659 kJ/mol
# GULP energy per Si atom -5571.407961 kJ/mol
# Density = 2.041072 g / cm^3
# Si number density = 20.457282 Si / 1000 Ang^3
#
#
#
# Elastic Constant Matrix: (Units=GPa)
#
#
# Indices 1 2 3 4 5 6 
#
# 1 197.9765 32.9352 76.5463 0.0000 0.0000 0.0000
# 2 32.9352 62.1273 22.9864 0.0000 0.0000 0.0000
# 3 76.5463 22.9864 97.0364 0.0000 0.0000 0.0000
# 4 0.0000 0.0000 0.0000 35.3325 0.0000 0.0000
# 5 0.0000 0.0000 0.0000 0.0000 30.7588 0.0000
# 6 0.0000 0.0000 0.0000 0.0000 0.0000 31.7449
#
#
#
# Elastic Compliance Matrix: (Units=1/GPa)
#
#
# Indices 1 2 3 4 5 6 
#
# 1 0.007478 -0.001953 -0.005436 0.000000 0.000000 0.000000
# 2 -0.001953 0.018152 -0.002759 0.000000 0.000000 0.000000
# 3 -0.005436 -0.002759 0.015247 0.000000 0.000000 0.000000
# 4 0.000000 0.000000 0.000000 0.028303 0.000000 0.000000
# 5 0.000000 0.000000 0.000000 0.000000 0.032511 0.000000
# 6 0.000000 0.000000 0.000000 0.000000 0.000000 0.031501
#
#
# Mechanical properties :
#
#
# Convention : Reuss Voigt Hill
#
# Bulk Modulus (GPa) = 48.59005 69.11954 58.85479
# Shear Modulus (GPa) = 31.18190 34.54540 32.86365
#
# Velocity S-wave (km/s) = 3.90839 4.11379 4.01241
# Velocity P-wave (km/s) = 6.64612 7.51165 7.09210
#
# Compressibility (1/GPa) = 0.02058035
#
# Stress axis : x y z
#
# Youngs Moduli (GPa) = 133.72794 55.08970 65.58482
#
# Poissons Ratio (x) = 0.10758 0.35654
# Poissons Ratio (y) = 0.26115 0.18098
# Poissons Ratio (z) = 0.72698 0.15202
#
# Static dielectric constant tensor:
#      x y z
#    x 1.508990 0.000000 0.000000 
#    y 0.000000 1.797040 0.000000 
#    z 0.000000 0.000000 1.892530 
# 
# From -- ./inp_files/46744.got.cif
#   From: 2010.05.17/outbox.cif.g08.bks.cpg/sg66_24_cif.got.tgz:46744.got - 2010.06.03 17:51:23.
