data_PCOD9498517
_publ_section_title
;
Structure prediction by ZEFSAII (Michael W. Deem and Ramdas Pophale) SiO2 
 PCOD9498517
Probable space group: C C C M
;
_chemical_formula_sum "Si O2"
_cell_formula_units_Z 56
_cell_length_a 5.624367
_cell_length_b 13.836373
_cell_length_c 32.800997
_cell_angle_alpha 90.000000
_cell_angle_beta 90.000000
_cell_angle_gamma 90.000000
_cell_volume 2552.601130
_symmetry_space_group_name_H-M "C C C M"
_symmetry_group_IT_number 66
_symmetry_cell_setting 'orthorhombic'
loop_
_space_group_symop_operation_xyz
x,y,z
-x,-y,z
x,-y,1/2-z
-x,y,1/2-z
-x,-y,-z
x,y,-z
-x,y,1/2+z
x,-y,1/2+z
1/2+x,1/2+y,z
1/2-x,1/2-y,z
1/2+x,1/2-y,1/2-z
1/2-x,1/2+y,1/2-z
1/2-x,1/2-y,-z
1/2+x,1/2+y,-z
1/2-x,1/2+y,1/2+z
1/2+x,1/2-y,1/2+z
loop_
_atom_site_type_symbol
_atom_site_label
_atom_site_fract_x
_atom_site_fract_y
_atom_site_fract_z
Si Si1 0.250000 0.750000 0.274056
Si Si2 0.391850 0.600524 0.664403
Si Si3 0.855753 0.355284 0.586513
Si Si4 0.249696 0.556850 0.500000
Si Si5 0.250000 0.250000 0.376200
O O1 0.500000 0.741227 0.250000
O O2 0.232215 0.654743 0.302510
O O3 0.500000 0.500000 0.678990
O O4 0.245532 0.579410 0.622765
O O5 0.585656 0.682759 0.652304
O O6 0.750000 0.250000 0.594747
O O7 0.771278 0.385621 0.542263
O O8 0.130087 0.330616 0.594189
O O9 0.500000 0.500000 0.500000
O O10 0.000000 0.500000 0.500000
#
# Coordination Sequence:
#
# PCOD9498517 Si02
#       5
#     8  16  16   8   8
#     4  12  27  52  76 110 154 185 241 314 374 451
#     4  11  24  46  76 106 145 196 247 296 375 449
#     4  10  23  43  71  98 146 196 248 302 371 433
#     4  12  29  43  64 108 152 193 258 315 358 436
#     4  10  21  43  72 107 142 194 247 310 356 446
#
# _framework density 21.938407000000002
#
# number of rings (size 3 to 8) (size 9 to 14) (size 15 to 20)
#    0.000    1.143    4.286    2.143   12.000    1.143 
#    0.000    4.286    0.000    0.000    0.000    0.000 
#    0.000    0.000    0.000    0.000    0.000    0.000 
#
# Total GULP energy -156159.707793 kJ/mol
# GULP energy per Si atom -5577.132421 kJ/mol
# Density = 2.188847 g / cm^3
# Si number density = 21.938407 Si / 1000 Ang^3
#
#
#
# Elastic Constant Matrix: (Units=GPa)
#
#
# Indices 1 2 3 4 5 6 
#
# 1 85.2735 21.5143 22.0296 0.0000 0.0000 0.0000
# 2 21.5143 96.7271 23.3288 0.0000 0.0000 0.0000
# 3 22.0296 23.3288 102.2156 0.0000 0.0000 0.0000
# 4 0.0000 0.0000 0.0000 -15.4343 0.0000 0.0000
# 5 0.0000 0.0000 0.0000 0.0000 -112.6490 0.0000
# 6 0.0000 0.0000 0.0000 0.0000 0.0000 32.2084
#
#
#
# Elastic Compliance Matrix: (Units=1/GPa)
#
#
# Indices 1 2 3 4 5 6 
#
# 1 0.012895 -0.002326 -0.002248 0.000000 0.000000 0.000000
# 2 -0.002326 0.011360 -0.002091 0.000000 0.000000 0.000000
# 3 -0.002248 -0.002091 0.010745 0.000000 0.000000 0.000000
# 4 0.000000 0.000000 0.000000 -0.064791 0.000000 0.000000
# 5 0.000000 0.000000 0.000000 0.000000 -0.008877 0.000000
# 6 0.000000 0.000000 0.000000 0.000000 0.000000 0.031048
#
#
# Mechanical properties :
#
#
# Convention : Reuss Voigt Hill
#
# Bulk Modulus (GPa) = 46.14936 46.44019 46.29478
# Shear Modulus (GPa) = 386.58681 -4.68541 190.95070
#
# Velocity S-wave (km/s) = 13.28899 -1.46299 9.33962
# Velocity P-wave (km/s) = 16.01700 4.28493 11.72401
#
# Compressibility (1/GPa) = 0.02166877
#
# Stress axis : x y z
#
# Youngs Moduli (GPa) = 77.55195 88.02740 93.06552
#
# Poissons Ratio (x) = 0.20474 0.20923
# Poissons Ratio (y) = 0.18037 0.19464
# Poissons Ratio (z) = 0.17435 0.18411
#
# Static dielectric constant tensor:
#      x y z
#    x 1.557820 0.000000 0.000000 
#    y 0.000000 1.772570 0.000000 
#    z 0.000000 0.000000 1.575590 
# 
# From -- ./inp_files/66795.got.cif
#   From: 2010.05.17/outbox.cif.g08.bks.cpg/sg66_34_cif.got.tgz:66795.got - 2010.06.03 17:51:23.
