data_PCOD9498006
_publ_section_title
;
Structure prediction by ZEFSAII (Michael W. Deem and Ramdas Pophale) SiO2 
 PCOD9498006
Probable space group: C C C M
;
_chemical_formula_sum "Si O2"
_cell_formula_units_Z 72
_cell_length_a 19.421168
_cell_length_b 7.998305
_cell_length_c 21.638034
_cell_angle_alpha 90.000000
_cell_angle_beta 90.000000
_cell_angle_gamma 90.000000
_cell_volume 3361.174848
_symmetry_space_group_name_H-M "C C C M"
_symmetry_group_IT_number 66
_symmetry_cell_setting 'orthorhombic'
loop_
_space_group_symop_operation_xyz
x,y,z
-x,-y,z
x,-y,1/2-z
-x,y,1/2-z
-x,-y,-z
x,y,-z
-x,y,1/2+z
x,-y,1/2+z
1/2+x,1/2+y,z
1/2-x,1/2-y,z
1/2+x,1/2-y,1/2-z
1/2-x,1/2+y,1/2-z
1/2-x,1/2-y,-z
1/2+x,1/2+y,-z
1/2-x,1/2+y,1/2+z
1/2+x,1/2-y,1/2+z
loop_
_atom_site_type_symbol
_atom_site_label
_atom_site_fract_x
_atom_site_fract_y
_atom_site_fract_z
Si Si1 0.106433 0.658060 0.569778
Si Si2 0.250000 0.250000 0.338076
Si Si3 0.887947 0.412917 0.187231
Si Si4 0.468115 0.676837 0.108077
Si Si5 0.827856 0.978973 0.568339
O O1 0.119724 0.592819 0.500000
O O2 0.118296 0.532801 0.626714
O O3 0.026725 0.719043 0.573098
O O4 0.151073 0.827863 0.578518
O O5 0.184981 0.321235 0.301811
O O6 0.221496 0.101082 0.381274
O O7 0.908139 0.500000 0.250000
O O8 0.944290 0.279081 0.167065
O O9 0.500000 0.500000 0.125594
O O10 0.398628 0.629318 0.071382
O O11 0.797513 0.965028 0.500000
#
# Coordination Sequence:
#
# PCOD9498006 Si02
#       5
#    16   8  16  16  16
#     4  10  21  37  61  92 123 155 195 248 305 357
#     4  10  23  40  58  80 115 166 208 248 298 352
#     4  11  25  42  61  86 118 158 203 249 296 353
#     4   9  19  38  62  89 122 156 189 237 303 368
#     4   9  18  35  60  91 123 157 199 247 299 357
#
# _framework density 21.421081999999998
#
# number of rings (size 3 to 8) (size 9 to 14) (size 15 to 20)
#    0.000    2.222    0.000    1.667    0.000   13.333 
#    0.000   14.444    0.000    0.000    0.000    0.000 
#    0.000    0.000    0.000    0.000    0.000    0.000 
#
# Total GULP energy -201147.791164 kJ/mol
# GULP energy per Si atom -5587.438643 kJ/mol
# Density = 2.137233 g / cm^3
# Si number density = 21.421082 Si / 1000 Ang^3
#
#
#
# Elastic Constant Matrix: (Units=GPa)
#
#
# Indices 1 2 3 4 5 6 
#
# 1 63.4698 9.5326 13.8003 0.0000 0.0000 0.0000
# 2 9.5326 45.4868 39.6855 0.0000 0.0000 0.0000
# 3 13.8003 39.6855 107.4009 0.0000 0.0000 0.0000
# 4 0.0000 0.0000 0.0000 53.7825 0.0000 0.0000
# 5 0.0000 0.0000 0.0000 0.0000 -10.8564 0.0000
# 6 0.0000 0.0000 0.0000 0.0000 0.0000 22.2530
#
#
#
# Elastic Compliance Matrix: (Units=1/GPa)
#
#
# Indices 1 2 3 4 5 6 
#
# 1 0.016378 -0.002356 -0.001234 0.000000 0.000000 0.000000
# 2 -0.002356 0.032782 -0.011811 0.000000 0.000000 0.000000
# 3 -0.001234 -0.011811 0.013834 0.000000 0.000000 0.000000
# 4 0.000000 0.000000 0.000000 0.018593 0.000000 0.000000
# 5 0.000000 0.000000 0.000000 0.000000 -0.092111 0.000000
# 6 0.000000 0.000000 0.000000 0.000000 0.000000 0.044938
#
#
# Mechanical properties :
#
#
# Convention : Reuss Voigt Hill
#
# Bulk Modulus (GPa) = 31.06260 38.04383 34.55321
# Shear Modulus (GPa) = 65.83695 23.25842 44.54768
#
# Velocity S-wave (km/s) = 5.54990 3.29868 4.56523
# Velocity P-wave (km/s) = 7.45660 5.68392 6.62978
#
# Compressibility (1/GPa) = 0.03219306
#
# Stress axis : x y z
#
# Youngs Moduli (GPa) = 61.05893 30.50414 72.28766
#
# Poissons Ratio (x) = 0.07186 0.08920
# Poissons Ratio (y) = 0.14383 0.85377
# Poissons Ratio (z) = 0.07535 0.36028
#
# Static dielectric constant tensor:
#      x y z
#    x 1.793430 0.000000 0.000000 
#    y 0.000000 1.776160 0.000000 
#    z 0.000000 0.000000 1.721330 
# 
# From -- ./inp_files/51628.got.cif
#   From: 2010.05.17/outbox.cif.g08.bks.cpg/sg66_26_cif.got.tgz:51628.got - 2010.06.03 17:51:23.
