data_PCOD9498783
_publ_section_title
;
Structure prediction by ZEFSAII (Michael W. Deem and Ramdas Pophale) SiO2 
 PCOD9498783
Probable space group: C C C M
;
_chemical_formula_sum "Si O2"
_cell_formula_units_Z 60
_cell_length_a 12.740897
_cell_length_b 9.302034
_cell_length_c 26.568995
_cell_angle_alpha 90.000000
_cell_angle_beta 90.000000
_cell_angle_gamma 90.000000
_cell_volume 3148.857842
_symmetry_space_group_name_H-M "C C C M"
_symmetry_group_IT_number 66
_symmetry_cell_setting 'orthorhombic'
loop_
_space_group_symop_operation_xyz
x,y,z
-x,-y,z
x,-y,1/2-z
-x,y,1/2-z
-x,-y,-z
x,y,-z
-x,y,1/2+z
x,-y,1/2+z
1/2+x,1/2+y,z
1/2-x,1/2-y,z
1/2+x,1/2-y,1/2-z
1/2-x,1/2+y,1/2-z
1/2-x,1/2-y,-z
1/2+x,1/2+y,-z
1/2-x,1/2+y,1/2+z
1/2+x,1/2-y,1/2+z
loop_
_atom_site_type_symbol
_atom_site_label
_atom_site_fract_x
_atom_site_fract_y
_atom_site_fract_z
Si Si1 0.668308 0.537754 0.000000
Si Si2 0.532023 0.750134 0.500000
Si Si3 0.721313 0.912976 0.892562
Si Si4 0.788860 0.409893 0.203238
Si Si5 0.500000 0.000000 0.078170
Si Si6 0.500000 0.000000 0.250000
O O1 0.734162 0.554883 0.948531
O O2 0.614899 0.379982 0.000000
O O3 0.579754 0.664587 0.000000
O O4 0.540049 0.862946 0.545713
O O5 0.750000 0.750000 0.880084
O O6 0.752967 0.020205 0.848283
O O7 0.597102 0.934407 0.893163
O O8 0.744552 0.500000 0.250000
O O9 0.750000 0.250000 0.205756
O O10 0.915676 0.417410 0.214127
#
# Coordination Sequence:
#
# PCOD9498783 Si02
#       6
#     8   8  16  16   8   4
#     4  11  23  41  61  96 142 171 226 268 322 391
#     4  10  22  41  59  94 131 186 225 263 319 398
#     4  12  24  42  67  96 134 176 216 278 327 388
#     4  10  23  46  74  99 128 174 221 273 339 400
#     4  11  23  38  66  90 128 179 229 256 342 374
#     4   8  22  48  72  92 140 154 222 278 334 394
#
# _framework density 19.054528000000001
#
# number of rings (size 3 to 8) (size 9 to 14) (size 15 to 20)
#    0.800    0.533    2.667    3.600    3.733    1.067 
#    0.000    0.667    0.000    0.000    0.000    0.000 
#    0.000    0.000    0.000    0.000    0.000    0.000 
#
# Total GULP energy -167108.778780 kJ/mol
# GULP energy per Si atom -5570.292626 kJ/mol
# Density = 1.901116 g / cm^3
# Si number density = 19.054528 Si / 1000 Ang^3
#
#
#
# Elastic Constant Matrix: (Units=GPa)
#
#
# Indices 1 2 3 4 5 6 
#
# 1 88.0231 57.2992 25.4610 0.0000 0.0000 0.0000
# 2 57.2992 190.1673 61.3554 0.0000 0.0000 0.0000
# 3 25.4610 61.3554 108.8745 0.0000 0.0000 0.0000
# 4 0.0000 0.0000 0.0000 105.2333 0.0000 0.0000
# 5 0.0000 0.0000 0.0000 0.0000 -15.0429 0.0000
# 6 0.0000 0.0000 0.0000 0.0000 0.0000 37.5261
#
#
#
# Elastic Compliance Matrix: (Units=1/GPa)
#
#
# Indices 1 2 3 4 5 6 
#
# 1 0.014243 -0.003932 -0.001115 0.000000 0.000000 0.000000
# 2 -0.003932 0.007512 -0.003314 0.000000 0.000000 0.000000
# 3 -0.001115 -0.003314 0.011313 0.000000 0.000000 0.000000
# 4 0.000000 0.000000 0.000000 0.009503 0.000000 0.000000
# 5 0.000000 0.000000 0.000000 0.000000 -0.066476 0.000000
# 6 0.000000 0.000000 0.000000 0.000000 0.000000 0.026648
#
#
# Mechanical properties :
#
#
# Convention : Reuss Voigt Hill
#
# Bulk Modulus (GPa) = 61.17482 75.03288 68.10385
# Shear Modulus (GPa) = 200.69731 41.73992 121.21861
#
# Velocity S-wave (km/s) = 10.27407 4.68541 7.98466
# Velocity P-wave (km/s) = 13.14979 8.29061 10.99207
#
# Compressibility (1/GPa) = 0.01634659
#
# Stress axis : x y z
#
# Youngs Moduli (GPa) = 70.21227 133.11258 88.39153
#
# Poissons Ratio (x) = 0.52335 0.09856
# Poissons Ratio (y) = 0.27605 0.29294
# Poissons Ratio (z) = 0.07829 0.44115
#
# Static dielectric constant tensor:
#      x y z
#    x 1.713650 0.000000 0.000000 
#    y 0.000000 1.654800 0.000000 
#    z 0.000000 0.000000 1.731460 
# 
# From -- ./inp_files/68551.got.cif
#   From: 2010.05.17/outbox.cif.g08.bks.cpg/sg66_35_cif.got.tgz:68551.got - 2010.06.03 17:51:23.
