data_PCOD9498874
_publ_section_title
;
Structure prediction by ZEFSAII (Michael W. Deem and Ramdas Pophale) SiO2 
 PCOD9498874
Probable space group: C C C M
;
_chemical_formula_sum "Si O2"
_cell_formula_units_Z 104
_cell_length_a 11.253508
_cell_length_b 26.359618
_cell_length_c 17.058846
_cell_angle_alpha 90.000000
_cell_angle_beta 90.000000
_cell_angle_gamma 90.000000
_cell_volume 5060.304895
_symmetry_space_group_name_H-M "C C C M"
_symmetry_group_IT_number 66
_symmetry_cell_setting 'orthorhombic'
loop_
_space_group_symop_operation_xyz
x,y,z
-x,-y,z
x,-y,1/2-z
-x,y,1/2-z
-x,-y,-z
x,y,-z
-x,y,1/2+z
x,-y,1/2+z
1/2+x,1/2+y,z
1/2-x,1/2-y,z
1/2+x,1/2-y,1/2-z
1/2-x,1/2+y,1/2-z
1/2-x,1/2-y,-z
1/2+x,1/2+y,-z
1/2-x,1/2+y,1/2+z
1/2+x,1/2-y,1/2+z
loop_
_atom_site_type_symbol
_atom_site_label
_atom_site_fract_x
_atom_site_fract_y
_atom_site_fract_z
Si Si1 0.668448 0.407646 0.413158
Si Si2 0.916445 0.549743 0.090109
Si Si3 0.786594 0.324731 0.799134
Si Si4 0.955368 0.735895 0.591270
Si Si5 0.969004 0.155052 0.160996
Si Si6 0.500000 0.896782 0.750000
Si Si7 0.707364 0.197020 0.622944
O O1 0.623337 0.418280 0.500000
O O2 0.771713 0.449302 0.395932
O O3 0.552805 0.392299 0.362089
O O4 0.741295 0.354444 0.411587
O O5 0.000000 0.500000 0.086123
O O6 0.963212 0.575259 0.169846
O O7 0.927607 0.571886 0.000000
O O8 0.849061 0.283156 0.853859
O O9 0.673437 0.350898 0.839658
O O10 0.886620 0.364638 0.775911
O O11 0.752845 0.303385 0.713706
O O12 0.926888 0.730729 0.500000
O O13 0.990295 0.794190 0.609808
O O14 0.066246 0.700300 0.613825
O O15 0.000000 0.168502 0.250000
O O16 0.750000 0.250000 0.587048
#
# Coordination Sequence:
#
# PCOD9498874 Si02
#       7
#    16  16  16  16  16   8  16
#     4  11  22  37  60  91 121 158 215 268 328 407
#     4  10  22  42  68  97 127 159 205 275 350 413
#     4  12  23  38  58  82 123 171 221 271 333 390
#     4  12  24  35  51  79 120 171 230 282 326 380
#     4  12  22  37  56  80 118 170 219 269 325 391
#     4  12  21  40  66  96 122 160 216 274 336 409
#     4  12  20  36  59  81 116 166 217 265 317 378
#
# _framework density 20.552121
#
# number of rings (size 3 to 8) (size 9 to 14) (size 15 to 20)
#    0.000    0.462    6.154    3.462    0.000    4.308 
#    0.000    0.000    0.000    0.923    0.000    6.462 
#    0.000    0.000    0.000    0.000    0.000    0.000 
#
# Total GULP energy -289830.351806 kJ/mol
# GULP energy per Si atom -5573.660612 kJ/mol
# Density = 2.050534 g / cm^3
# Si number density = 20.552121 Si / 1000 Ang^3
#
#
#
# Elastic Constant Matrix: (Units=GPa)
#
#
# Indices 1 2 3 4 5 6 
#
# 1 123.4315 28.4384 25.9768 0.0000 0.0000 0.0000
# 2 28.4384 37.3780 18.8175 0.0000 0.0000 0.0000
# 3 25.9768 18.8175 123.6620 0.0000 0.0000 0.0000
# 4 0.0000 0.0000 0.0000 -80.2219 0.0000 0.0000
# 5 0.0000 0.0000 0.0000 0.0000 5.8407 0.0000
# 6 0.0000 0.0000 0.0000 0.0000 0.0000 36.4843
#
#
#
# Elastic Compliance Matrix: (Units=1/GPa)
#
#
# Indices 1 2 3 4 5 6 
#
# 1 0.009940 -0.007052 -0.001015 0.000000 0.000000 0.000000
# 2 -0.007052 0.033976 -0.003689 0.000000 0.000000 0.000000
# 3 -0.001015 -0.003689 0.008861 0.000000 0.000000 0.000000
# 4 0.000000 0.000000 0.000000 -0.012465 0.000000 0.000000
# 5 0.000000 0.000000 0.000000 0.000000 0.171213 0.000000
# 6 0.000000 0.000000 0.000000 0.000000 0.000000 0.027409
#
#
# Mechanical properties :
#
#
# Convention : Reuss Voigt Hill
#
# Bulk Modulus (GPa) = 34.16918 47.88188 41.02553
# Shear Modulus (GPa) = 18.36885 6.50320 12.43602
#
# Velocity S-wave (km/s) = 2.99284 1.78076 2.46254
# Velocity P-wave (km/s) = 5.34832 5.25133 5.30005
#
# Compressibility (1/GPa) = 0.02926614
#
# Stress axis : x y z
#
# Youngs Moduli (GPa) = 100.60398 29.43257 112.85297
#
# Poissons Ratio (x) = 0.20755 0.11454
# Poissons Ratio (y) = 0.70943 0.41629
# Poissons Ratio (z) = 0.10211 0.10857
#
# Static dielectric constant tensor:
#      x y z
#    x 1.807550 0.000000 0.000000 
#    y 0.000000 1.757460 0.000000 
#    z 0.000000 0.000000 1.747440 
# 
# From -- ./inp_files/39065.got.cif
#   From: 2010.05.17/outbox.cif.g08.bks.cpg/sg66_20_cif.got.tgz:39065.got - 2010.06.03 17:51:23.
