data_PCOD9498319
_publ_section_title
;
Structure prediction by ZEFSAII (Michael W. Deem and Ramdas Pophale) SiO2 
 PCOD9498319
Probable space group: C C C M
;
_chemical_formula_sum "Si O2"
_cell_formula_units_Z 64
_cell_length_a 8.657608
_cell_length_b 23.185143
_cell_length_c 13.586716
_cell_angle_alpha 90.000000
_cell_angle_beta 90.000000
_cell_angle_gamma 90.000000
_cell_volume 2727.232692
_symmetry_space_group_name_H-M "C C C M"
_symmetry_group_IT_number 66
_symmetry_cell_setting 'orthorhombic'
loop_
_space_group_symop_operation_xyz
x,y,z
-x,-y,z
x,-y,1/2-z
-x,y,1/2-z
-x,-y,-z
x,y,-z
-x,y,1/2+z
x,-y,1/2+z
1/2+x,1/2+y,z
1/2-x,1/2-y,z
1/2+x,1/2-y,1/2-z
1/2-x,1/2+y,1/2-z
1/2-x,1/2-y,-z
1/2+x,1/2+y,-z
1/2-x,1/2+y,1/2+z
1/2+x,1/2-y,1/2+z
loop_
_atom_site_type_symbol
_atom_site_label
_atom_site_fract_x
_atom_site_fract_y
_atom_site_fract_z
Si Si1 0.623369 0.358297 0.616590
Si Si2 0.715927 0.683346 0.672295
Si Si3 0.259973 0.976675 0.391983
Si Si4 0.072650 0.586618 0.851916
O O1 0.669029 0.349459 0.500000
O O2 0.451217 0.335271 0.632475
O O3 0.715594 0.329499 0.708571
O O4 0.639235 0.427280 0.636139
O O5 0.750000 0.750000 0.657027
O O6 0.838067 0.642853 0.615599
O O7 0.215533 0.998404 0.500000
O O8 0.423380 0.941972 0.401031
O O9 0.303744 0.035108 0.335793
O O10 0.000000 0.604197 0.750000
#
# Coordination Sequence:
#
# PCOD9498319 Si02
#       4
#    16  16  16  16
#     4  10  24  44  66  97 132 175 224 278 339 395
#     4  11  26  44  67  94 134 184 226 271 330 396
#     4  10  21  39  66  99 132 166 217 281 343 400
#     4  11  21  37  65  97 131 170 218 271 332 397
#
# _framework density 23.467009999999998
#
# number of rings (size 3 to 8) (size 9 to 14) (size 15 to 20)
#    0.000    1.500    2.500    3.000    3.500    4.000 
#    0.000    7.500    0.000    0.000    0.000    0.000 
#    0.000    0.000    0.000    0.000    0.000    0.000 
#
# Total GULP energy -178339.939546 kJ/mol
# GULP energy per Si atom -5573.123111 kJ/mol
# Density = 2.341360 g / cm^3
# Si number density = 23.467010 Si / 1000 Ang^3
#
#
#
# Elastic Constant Matrix: (Units=GPa)
#
#
# Indices 1 2 3 4 5 6 
#
# 1 80.0683 75.2993 24.7844 0.0000 0.0000 0.0000
# 2 75.2993 184.9589 10.8616 0.0000 0.0000 0.0000
# 3 24.7844 10.8616 74.5612 0.0000 0.0000 0.0000
# 4 0.0000 0.0000 0.0000 10.8885 0.0000 0.0000
# 5 0.0000 0.0000 0.0000 0.0000 -19.4493 0.0000
# 6 0.0000 0.0000 0.0000 0.0000 0.0000 89.1591
#
#
#
# Elastic Compliance Matrix: (Units=1/GPa)
#
#
# Indices 1 2 3 4 5 6 
#
# 1 0.022829 -0.008925 -0.006288 0.000000 0.000000 0.000000
# 2 -0.008925 0.008942 0.001664 0.000000 0.000000 0.000000
# 3 -0.006288 0.001664 0.015260 0.000000 0.000000 0.000000
# 4 0.000000 0.000000 0.000000 0.091840 0.000000 0.000000
# 5 0.000000 0.000000 0.000000 0.000000 -0.051416 0.000000
# 6 0.000000 0.000000 0.000000 0.000000 0.000000 0.011216
#
#
# Mechanical properties :
#
#
# Convention : Reuss Voigt Hill
#
# Bulk Modulus (GPa) = 50.16875 62.38656 56.27765
# Shear Modulus (GPa) = 37.76052 31.36254 34.56153
#
# Velocity S-wave (km/s) = 4.01570 3.65972 3.84183
# Velocity P-wave (km/s) = 6.55179 6.67087 6.61160
#
# Compressibility (1/GPa) = 0.01993273
#
# Stress axis : x y z
#
# Youngs Moduli (GPa) = 43.80397 111.82851 65.53216
#
# Poissons Ratio (x) = 0.99804 0.41209
# Poissons Ratio (y) = 0.39094 -0.10904
# Poissons Ratio (z) = 0.27545 -0.18608
#
# Static dielectric constant tensor:
#      x y z
#    x 1.909500 0.000000 0.000000 
#    y 0.000000 1.859200 0.000000 
#    z 0.000000 0.000000 2.013330 
# 
# From -- ./inp_files/24129.got.cif
#   From: 2010.05.17/outbox.cif.g08.bks.cpg/sg66_13_cif.got.tgz:24129.got - 2010.06.03 17:51:23.
