data_PCOD9498971
_publ_section_title
;
Structure prediction by ZEFSAII (Michael W. Deem and Ramdas Pophale) SiO2 
 PCOD9498971
Probable space group: C C C M
;
_chemical_formula_sum "Si O2"
_cell_formula_units_Z 96
_cell_length_a 14.715325
_cell_length_b 20.516468
_cell_length_c 15.346285
_cell_angle_alpha 90.000000
_cell_angle_beta 90.000000
_cell_angle_gamma 90.000000
_cell_volume 4633.143108
_symmetry_space_group_name_H-M "C C C M"
_symmetry_group_IT_number 66
_symmetry_cell_setting 'orthorhombic'
loop_
_space_group_symop_operation_xyz
x,y,z
-x,-y,z
x,-y,1/2-z
-x,y,1/2-z
-x,-y,-z
x,y,-z
-x,y,1/2+z
x,-y,1/2+z
1/2+x,1/2+y,z
1/2-x,1/2-y,z
1/2+x,1/2-y,1/2-z
1/2-x,1/2+y,1/2-z
1/2-x,1/2-y,-z
1/2+x,1/2+y,-z
1/2-x,1/2+y,1/2+z
1/2+x,1/2-y,1/2+z
loop_
_atom_site_type_symbol
_atom_site_label
_atom_site_fract_x
_atom_site_fract_y
_atom_site_fract_z
Si Si1 0.545013 0.436243 0.399520
Si Si2 0.940683 0.326162 0.161758
Si Si3 0.243071 0.819834 0.235582
Si Si4 0.910767 0.530927 0.601316
Si Si5 0.733372 0.457019 0.327861
Si Si6 0.070977 0.814396 0.896048
O O1 0.500000 0.500000 0.358021
O O2 0.516630 0.435404 0.500000
O O3 0.652534 0.445697 0.395035
O O4 0.504059 0.367952 0.367368
O O5 0.834405 0.316323 0.180282
O O6 0.934665 0.392866 0.108539
O O7 0.968822 0.258374 0.117078
O O8 0.000000 0.334586 0.250000
O O9 0.250000 0.750000 0.285021
O O10 0.253899 0.884647 0.292809
O O11 0.156793 0.824468 0.169819
O O12 0.904275 0.513074 0.500000
O O13 0.820155 0.499839 0.642892
O O14 0.000000 0.500000 0.643222
O O15 0.692451 0.500000 0.250000
O O16 0.095486 0.820925 0.000000
#
# Coordination Sequence:
#
# PCOD9498971 Si02
#       6
#    16  16  16  16  16  16
#     4  10  23  41  62  90 129 169 213 271 335 409
#     4  11  23  40  66  95 129 169 221 283 336 398
#     4  10  23  38  60  96 126 169 215 271 334 395
#     4  11  25  43  66  93 128 171 222 280 338 403
#     4  12  23  40  65  96 128 173 218 272 340 400
#     4  10  23  42  65  95 134 179 224 275 342 414
#
# _framework density 20.720275999999998
#
# number of rings (size 3 to 8) (size 9 to 14) (size 15 to 20)
#    0.000    1.333    1.667    3.000    4.667    5.333 
#    0.000    0.000    0.000    1.000    0.000    0.000 
#    0.000    0.000    0.000    0.000    0.000    0.000 
#
# Total GULP energy -267309.627064 kJ/mol
# GULP energy per Si atom -5568.950564 kJ/mol
# Density = 2.067312 g / cm^3
# Si number density = 20.720276 Si / 1000 Ang^3
#
#
#
# Elastic Constant Matrix: (Units=GPa)
#
#
# Indices 1 2 3 4 5 6 
#
# 1 102.9751 42.3295 17.6115 0.0000 0.0000 0.0000
# 2 42.3295 176.2464 20.6542 0.0000 0.0000 0.0000
# 3 17.6115 20.6542 63.3862 0.0000 0.0000 0.0000
# 4 0.0000 0.0000 0.0000 14.6501 0.0000 0.0000
# 5 0.0000 0.0000 0.0000 0.0000 -32.9624 0.0000
# 6 0.0000 0.0000 0.0000 0.0000 0.0000 36.4230
#
#
#
# Elastic Compliance Matrix: (Units=1/GPa)
#
#
# Indices 1 2 3 4 5 6 
#
# 1 0.011089 -0.002394 -0.002301 0.000000 0.000000 0.000000
# 2 -0.002394 0.006416 -0.001426 0.000000 0.000000 0.000000
# 3 -0.002301 -0.001426 0.016880 0.000000 0.000000 0.000000
# 4 0.000000 0.000000 0.000000 0.068259 0.000000 0.000000
# 5 0.000000 0.000000 0.000000 0.000000 -0.030338 0.000000
# 6 0.000000 0.000000 0.000000 0.000000 0.000000 0.027455
#
#
# Mechanical properties :
#
#
# Convention : Reuss Voigt Hill
#
# Bulk Modulus (GPa) = 45.15814 55.97755 50.56785
# Shear Modulus (GPa) = 41.88216 21.08963 31.48589
#
# Velocity S-wave (km/s) = 4.50078 3.19380 3.90239
# Velocity P-wave (km/s) = 6.98934 6.37769 6.69051
#
# Compressibility (1/GPa) = 0.02214440
#
# Stress axis : x y z
#
# Youngs Moduli (GPa) = 90.18351 155.86550 59.24127
#
# Poissons Ratio (x) = 0.37306 0.13631
# Poissons Ratio (y) = 0.21585 0.08445
# Poissons Ratio (z) = 0.20751 0.22219
#
# Static dielectric constant tensor:
#      x y z
#    x 1.808560 0.000000 0.000000 
#    y 0.000000 1.922740 0.000000 
#    z 0.000000 0.000000 1.751460 
# 
# From -- ./inp_files/28426.got.cif
#   From: 2010.05.17/outbox.cif.g08.bks.cpg/sg66_15_cif.got.tgz:28426.got - 2010.06.03 17:51:23.
