data_PCOD9498376
_publ_section_title
;
Structure prediction by ZEFSAII (Michael W. Deem and Ramdas Pophale) SiO2 
 PCOD9498376
Probable space group: C C C M
;
_chemical_formula_sum "Si O2"
_cell_formula_units_Z 88
_cell_length_a 29.785213
_cell_length_b 6.401504
_cell_length_c 21.102740
_cell_angle_alpha 90.000000
_cell_angle_beta 90.000000
_cell_angle_gamma 90.000000
_cell_volume 4023.662816
_symmetry_space_group_name_H-M "C C C M"
_symmetry_group_IT_number 66
_symmetry_cell_setting 'orthorhombic'
loop_
_space_group_symop_operation_xyz
x,y,z
-x,-y,z
x,-y,1/2-z
-x,y,1/2-z
-x,-y,-z
x,y,-z
-x,y,1/2+z
x,-y,1/2+z
1/2+x,1/2+y,z
1/2-x,1/2-y,z
1/2+x,1/2-y,1/2-z
1/2-x,1/2+y,1/2-z
1/2-x,1/2-y,-z
1/2+x,1/2+y,-z
1/2-x,1/2+y,1/2+z
1/2+x,1/2-y,1/2+z
loop_
_atom_site_type_symbol
_atom_site_label
_atom_site_fract_x
_atom_site_fract_y
_atom_site_fract_z
Si Si1 0.890560 0.880853 0.812081
Si Si2 0.950530 0.432624 0.623290
Si Si3 0.389502 0.305451 0.427428
Si Si4 0.708302 0.908286 0.428654
Si Si5 0.701725 0.831638 0.198348
Si Si6 0.518722 0.743613 0.000000
O O1 0.918751 0.671235 0.824443
O O2 0.837942 0.833133 0.804519
O O3 0.907159 0.000000 0.750000
O O4 0.893817 0.022333 0.874055
O O5 0.924621 0.625701 0.591371
O O6 0.957333 0.263821 0.567284
O O7 0.000000 0.500000 0.646074
O O8 0.397630 0.373212 0.500000
O O9 0.339068 0.212534 0.425151
O O10 0.711454 0.000488 0.500000
O O11 0.750000 0.750000 0.421001
O O12 0.708132 0.070514 0.371346
O O13 0.750000 0.750000 0.219845
O O14 0.686772 0.000000 0.250000
O O15 0.500000 0.500000 0.000000
O O16 0.500000 0.000000 0.000000
#
# Coordination Sequence:
#
# PCOD9498376 Si02
#       6
#    16  16  16  16  16   8
#     4  12  28  45  73 102 147 191 241 307 371 454
#     4  11  26  45  75 105 145 192 245 312 376 442
#     4  11  24  45  73 108 142 189 245 303 374 440
#     4  10  21  40  66 101 149 185 226 295 369 444
#     4  12  24  43  71 101 139 187 245 296 364 440
#     4  10  24  44  78 114 146 192 260 326 382 450
#
# _framework density 21.870619000000001
#
# number of rings (size 3 to 8) (size 9 to 14) (size 15 to 20)
#    0.000    0.909    2.727    3.273    6.364    1.091 
#    0.000    2.727    0.000    0.000    0.000    0.000 
#    0.000    0.000    0.000    0.000    0.000    0.000 
#
# Total GULP energy -245809.706961 kJ/mol
# GULP energy per Si atom -5586.584249 kJ/mol
# Density = 2.182084 g / cm^3
# Si number density = 21.870619 Si / 1000 Ang^3
#
#
#
# Elastic Constant Matrix: (Units=GPa)
#
#
# Indices 1 2 3 4 5 6 
#
# 1 138.6975 38.3312 17.9290 0.0000 0.0000 0.0000
# 2 38.3312 87.9795 54.2064 0.0000 0.0000 0.0000
# 3 17.9290 54.2064 115.2500 0.0000 0.0000 0.0000
# 4 0.0000 0.0000 0.0000 389.5257 0.0000 0.0000
# 5 0.0000 0.0000 0.0000 0.0000 -4.2212 0.0000
# 6 0.0000 0.0000 0.0000 0.0000 0.0000 33.2510
#
#
#
# Elastic Compliance Matrix: (Units=1/GPa)
#
#
# Indices 1 2 3 4 5 6 
#
# 1 0.008224 -0.003935 0.000571 0.000000 0.000000 0.000000
# 2 -0.003935 0.017887 -0.007801 0.000000 0.000000 0.000000
# 3 0.000571 -0.007801 0.012257 0.000000 0.000000 0.000000
# 4 0.000000 0.000000 0.000000 0.002567 0.000000 0.000000
# 5 0.000000 0.000000 0.000000 0.000000 -0.236901 0.000000
# 6 0.000000 0.000000 0.000000 0.000000 0.000000 0.030074
#
#
# Mechanical properties :
#
#
# Convention : Reuss Voigt Hill
#
# Bulk Modulus (GPa) = 62.34863 62.54005 62.44434
# Shear Modulus (GPa) = -36.17480 99.14179 31.48349
#
# Velocity S-wave (km/s) = -4.07140 6.74014 3.79823
# Velocity P-wave (km/s) = 2.54325 9.44617 6.91731
#
# Compressibility (1/GPa) = 0.01603885
#
# Stress axis : x y z
#
# Youngs Moduli (GPa) = 121.60200 55.90683 81.58693
#
# Poissons Ratio (x) = 0.21999 -0.04662
# Poissons Ratio (y) = 0.47850 0.63644
# Poissons Ratio (z) = -0.06949 0.43611
#
# Static dielectric constant tensor:
#      x y z
#    x 1.827130 0.000000 0.000000 
#    y 0.000000 1.807160 0.000000 
#    z 0.000000 0.000000 1.781280 
# 
# From -- ./inp_files/60412.got.cif
#   From: 2010.05.17/outbox.cif.g08.bks.cpg/sg66_31_cif.got.tgz:60412.got - 2010.06.03 17:51:23.
