data_PCOD9498186
_publ_section_title
;
Structure prediction by ZEFSAII (Michael W. Deem and Ramdas Pophale) SiO2 
 PCOD9498186
Probable space group: C C C M
;
_chemical_formula_sum "Si O2"
_cell_formula_units_Z 112
_cell_length_a 13.732068
_cell_length_b 11.836050
_cell_length_c 28.567441
_cell_angle_alpha 90.000000
_cell_angle_beta 90.000000
_cell_angle_gamma 90.000000
_cell_volume 4643.164556
_symmetry_space_group_name_H-M "C C C M"
_symmetry_group_IT_number 66
_symmetry_cell_setting 'orthorhombic'
loop_
_space_group_symop_operation_xyz
x,y,z
-x,-y,z
x,-y,1/2-z
-x,y,1/2-z
-x,-y,-z
x,y,-z
-x,y,1/2+z
x,-y,1/2+z
1/2+x,1/2+y,z
1/2-x,1/2-y,z
1/2+x,1/2-y,1/2-z
1/2-x,1/2+y,1/2-z
1/2-x,1/2-y,-z
1/2+x,1/2+y,-z
1/2-x,1/2+y,1/2+z
1/2+x,1/2-y,1/2+z
loop_
_atom_site_type_symbol
_atom_site_label
_atom_site_fract_x
_atom_site_fract_y
_atom_site_fract_z
Si Si1 0.539560 0.880007 0.814688
Si Si2 0.735641 0.953776 0.800877
Si Si3 0.344061 0.813819 0.840680
Si Si4 0.099158 0.066656 0.126617
Si Si5 0.912824 0.683536 0.084478
Si Si6 0.254293 0.530702 0.551240
Si Si7 0.381986 0.186579 0.449674
O O1 0.647560 0.863281 0.794684
O O2 0.446416 0.796946 0.813096
O O3 0.559047 0.887609 0.869924
O O4 0.500000 0.000000 0.797411
O O5 0.830574 0.916480 0.828964
O O6 0.760274 0.000000 0.750000
O O7 0.686917 0.055595 0.831869
O O8 0.250000 0.750000 0.822131
O O9 0.359802 0.776782 0.895380
O O10 0.086014 0.187818 0.102127
O O11 0.162645 0.000309 0.088000
O O12 0.000000 0.000000 0.136670
O O13 0.810054 0.638100 0.066781
O O14 0.002586 0.668076 0.050087
O O15 0.296858 0.551827 0.500000
O O16 0.177940 0.429015 0.548786
O O17 0.358973 0.248007 0.500000
#
# Coordination Sequence:
#
# PCOD9498186 Si02
#       7
#    16  16  16  16  16  16  16
#     4   9  19  38  69 101 128 167 221 280 345 406
#     4  11  24  47  73  94 133 178 237 296 359 421
#     4  10  21  39  68 105 143 178 220 286 349 404
#     4  12  28  45  65  92 142 189 227 286 357 420
#     4  11  21  39  68 102 137 177 224 281 345 410
#     4  11  22  41  69 102 139 180 230 281 343 424
#     4  10  21  38  70 108 140 181 234 281 339 413
#
# _framework density 24.121480999999999
#
# number of rings (size 3 to 8) (size 9 to 14) (size 15 to 20)
#    0.000    1.429    2.857    3.000    4.000    6.286 
#    2.571    1.429    0.000    0.000    0.000    0.000 
#    0.000    0.000    0.000    0.000    0.000    0.000 
#
# Total GULP energy -312573.421007 kJ/mol
# GULP energy per Si atom -5581.668232 kJ/mol
# Density = 2.406658 g / cm^3
# Si number density = 24.121481 Si / 1000 Ang^3
#
#
#
# Elastic Constant Matrix: (Units=GPa)
#
#
# Indices 1 2 3 4 5 6 
#
# 1 177.0507 35.0691 38.0464 0.0000 0.0000 0.0000
# 2 35.0691 62.4689 8.3874 0.0000 0.0000 0.0000
# 3 38.0464 8.3874 132.2177 0.0000 0.0000 0.0000
# 4 0.0000 0.0000 0.0000 -31.2874 0.0000 0.0000
# 5 0.0000 0.0000 0.0000 0.0000 17.6127 0.0000
# 6 0.0000 0.0000 0.0000 0.0000 0.0000 42.2528
#
#
#
# Elastic Compliance Matrix: (Units=1/GPa)
#
#
# Indices 1 2 3 4 5 6 
#
# 1 0.006717 -0.003541 -0.001708 0.000000 0.000000 0.000000
# 2 -0.003541 0.018013 -0.000124 0.000000 0.000000 0.000000
# 3 -0.001708 -0.000124 0.008063 0.000000 0.000000 0.000000
# 4 0.000000 0.000000 0.000000 -0.031962 0.000000 0.000000
# 5 0.000000 0.000000 0.000000 0.000000 0.056777 0.000000
# 6 0.000000 0.000000 0.000000 0.000000 0.000000 0.023667
#
#
# Mechanical properties :
#
#
# Convention : Reuss Voigt Hill
#
# Bulk Modulus (GPa) = 45.36004 59.41591 52.38797
# Shear Modulus (GPa) = 50.31754 25.06458 37.69106
#
# Velocity S-wave (km/s) = 4.57224 3.22700 3.95720
# Velocity P-wave (km/s) = 6.83516 6.21049 6.53030
#
# Compressibility (1/GPa) = 0.02204584
#
# Stress axis : x y z
#
# Youngs Moduli (GPa) = 148.88529 55.51676 124.02887
#
# Poissons Ratio (x) = 0.19660 0.21185
# Poissons Ratio (y) = 0.52724 0.01534
# Poissons Ratio (z) = 0.25431 0.00686
#
# Static dielectric constant tensor:
#      x y z
#    x 2.003250 0.000000 0.000000 
#    y 0.000000 1.993730 0.000000 
#    z 0.000000 0.000000 1.944830 
# 
# From -- ./inp_files/69098.got.cif
#   From: 2010.05.17/outbox.cif.g08.bks.cpg/sg66_35_cif.got.tgz:69098.got - 2010.06.03 17:51:23.
