data_PCOD9498401
_publ_section_title
;
Structure prediction by ZEFSAII (Michael W. Deem and Ramdas Pophale) SiO2 
 PCOD9498401
Probable space group: C C C M
;
_chemical_formula_sum "Si O2"
_cell_formula_units_Z 112
_cell_length_a 14.897942
_cell_length_b 12.475720
_cell_length_c 30.031454
_cell_angle_alpha 90.000000
_cell_angle_beta 90.000000
_cell_angle_gamma 90.000000
_cell_volume 5581.722710
_symmetry_space_group_name_H-M "C C C M"
_symmetry_group_IT_number 66
_symmetry_cell_setting 'orthorhombic'
loop_
_space_group_symop_operation_xyz
x,y,z
-x,-y,z
x,-y,1/2-z
-x,y,1/2-z
-x,-y,-z
x,y,-z
-x,y,1/2+z
x,-y,1/2+z
1/2+x,1/2+y,z
1/2-x,1/2-y,z
1/2+x,1/2-y,1/2-z
1/2-x,1/2+y,1/2-z
1/2-x,1/2-y,-z
1/2+x,1/2+y,-z
1/2-x,1/2+y,1/2+z
1/2+x,1/2-y,1/2+z
loop_
_atom_site_type_symbol
_atom_site_label
_atom_site_fract_x
_atom_site_fract_y
_atom_site_fract_z
Si Si1 0.762220 0.876631 0.948334
Si Si2 0.083734 0.944808 0.382071
Si Si3 0.557857 0.893683 0.951061
Si Si4 0.694168 0.137809 0.298798
Si Si5 0.911012 0.270836 0.779129
Si Si6 0.844759 0.043234 0.795310
Si Si7 0.964579 0.294265 0.641574
O O1 0.750000 0.750000 0.938467
O O2 0.833014 0.926106 0.914616
O O3 0.662188 0.922430 0.943953
O O4 0.790569 0.886756 0.000000
O O5 0.060613 0.830903 0.359665
O O6 0.104852 0.022654 0.341086
O O7 0.000000 0.000000 0.406458
O O8 0.523955 0.825626 0.909566
O O9 0.500000 0.000000 0.952406
O O10 0.553098 0.839594 0.000000
O O11 0.750000 0.250000 0.303554
O O12 0.641197 0.146205 0.252082
O O13 0.619189 0.141550 0.337230
O O14 0.757793 0.034377 0.299879
O O15 0.845377 0.170349 0.787654
O O16 0.000000 0.238400 0.750000
O O17 0.951186 0.311360 0.825761
O O18 0.889759 0.000000 0.750000
#
# Coordination Sequence:
#
# PCOD9498401 Si02
#       7
#    16  16  16  16  16  16  16
#     4  10  21  40  67  96 125 157 208 271 321 381
#     4  12  23  34  61  99 129 164 208 267 327 383
#     4  10  22  42  68  95 125 170 216 259 324 397
#     4  11  21  37  58  89 122 163 205 267 303 369
#     4  10  22  40  59  84 122 164 208 249 312 378
#     4  12  22  34  59  87 120 163 211 252 304 370
#     4  11  21  39  62  88 127 160 207 260 319 378
#
# _framework density 20.06549
#
# number of rings (size 3 to 8) (size 9 to 14) (size 15 to 20)
#    0.000    1.143    5.714    1.714    0.000    0.286 
#    5.143    0.000    0.000    0.000    0.000    3.000 
#    0.000    0.000    0.000    0.000    0.000    0.000 
#
# Total GULP energy -312725.906530 kJ/mol
# GULP energy per Si atom -5584.391188 kJ/mol
# Density = 2.001982 g / cm^3
# Si number density = 20.065490 Si / 1000 Ang^3
#
#
#
# Elastic Constant Matrix: (Units=GPa)
#
#
# Indices 1 2 3 4 5 6 
#
# 1 110.0601 41.6516 39.6037 0.0000 0.0000 0.0000
# 2 41.6516 50.7588 20.9964 0.0000 0.0000 0.0000
# 3 39.6037 20.9964 138.3372 0.0000 0.0000 0.0000
# 4 0.0000 0.0000 0.0000 15.1314 0.0000 0.0000
# 5 0.0000 0.0000 0.0000 0.0000 32.8731 0.0000
# 6 0.0000 0.0000 0.0000 0.0000 0.0000 33.6551
#
#
#
# Elastic Compliance Matrix: (Units=1/GPa)
#
#
# Indices 1 2 3 4 5 6 
#
# 1 0.013885 -0.010403 -0.002396 0.000000 0.000000 0.000000
# 2 -0.010403 0.028814 -0.001395 0.000000 0.000000 0.000000
# 3 -0.002396 -0.001395 0.008126 0.000000 0.000000 0.000000
# 4 0.000000 0.000000 0.000000 0.066088 0.000000 0.000000
# 5 0.000000 0.000000 0.000000 0.000000 0.030420 0.000000
# 6 0.000000 0.000000 0.000000 0.000000 0.000000 0.029713
#
#
# Mechanical properties :
#
#
# Convention : Reuss Voigt Hill
#
# Bulk Modulus (GPa) = 44.56775 55.96216 50.26496
# Shear Modulus (GPa) = 23.48370 29.45889 26.47129
#
# Velocity S-wave (km/s) = 3.42475 3.83578 3.63608
# Velocity P-wave (km/s) = 6.15613 6.89695 6.53704
#
# Compressibility (1/GPa) = 0.02243775
#
# Stress axis : x y z
#
# Youngs Moduli (GPa) = 72.02043 34.70505 123.05470
#
# Poissons Ratio (x) = 0.36102 0.29486
# Poissons Ratio (y) = 0.74919 0.17169
# Poissons Ratio (z) = 0.17257 0.04842
#
# Static dielectric constant tensor:
#      x y z
#    x 1.753230 0.000000 0.000000 
#    y 0.000000 1.684860 0.000000 
#    z 0.000000 0.000000 1.739590 
# 
# From -- ./inp_files/69554.got.cif
#   From: 2010.05.17/outbox.cif.g08.bks.cpg/sg66_35_cif.got.tgz:69554.got - 2010.06.03 17:51:23.
