data_PCOD9498835
_publ_section_title
;
Structure prediction by ZEFSAII (Michael W. Deem and Ramdas Pophale) SiO2 
 PCOD9498835
Probable space group: C C C M
;
_chemical_formula_sum "Si O2"
_cell_formula_units_Z 60
_cell_length_a 24.977078
_cell_length_b 6.953496
_cell_length_c 15.840204
_cell_angle_alpha 90.000000
_cell_angle_beta 90.000000
_cell_angle_gamma 90.000000
_cell_volume 2751.095140
_symmetry_space_group_name_H-M "C C C M"
_symmetry_group_IT_number 66
_symmetry_cell_setting 'orthorhombic'
loop_
_space_group_symop_operation_xyz
x,y,z
-x,-y,z
x,-y,1/2-z
-x,y,1/2-z
-x,-y,-z
x,y,-z
-x,y,1/2+z
x,-y,1/2+z
1/2+x,1/2+y,z
1/2-x,1/2-y,z
1/2+x,1/2-y,1/2-z
1/2-x,1/2+y,1/2-z
1/2-x,1/2-y,-z
1/2+x,1/2+y,-z
1/2-x,1/2+y,1/2+z
1/2+x,1/2-y,1/2+z
loop_
_atom_site_type_symbol
_atom_site_label
_atom_site_fract_x
_atom_site_fract_y
_atom_site_fract_z
Si Si1 0.500000 0.000000 0.250000
Si Si2 0.707600 0.429912 0.500000
Si Si3 0.914378 0.006440 0.000000
Si Si4 0.696828 0.650230 0.679144
Si Si5 0.409959 0.836083 0.863079
Si Si6 0.056558 0.608037 0.500000
O O1 0.540428 0.135487 0.198565
O O2 0.750000 0.250000 0.500000
O O3 0.643180 0.394363 0.500000
O O4 0.712002 0.553741 0.587666
O O5 0.917918 0.147797 0.079102
O O6 0.954822 0.831721 0.000000
O O7 0.678746 0.500000 0.750000
O O8 0.750000 0.750000 0.711948
O O9 0.649150 0.803456 0.671455
O O10 0.412123 0.027930 0.919522
O O11 0.000000 0.500000 0.500000
#
# Coordination Sequence:
#
# PCOD9498835 Si02
#       6
#     4   8   8  16  16   8
#     4  12  24  46  70  96 142 190 228 296 348 422
#     4  10  22  41  71 104 134 187 231 284 363 422
#     4   9  23  44  70  98 138 174 232 294 348 422
#     4  11  25  45  69 106 143 185 234 297 362 431
#     4  10  25  45  66 104 134 181 238 283 358 423
#     4  11  22  47  70  97 130 183 234 292 357 417
#
# _framework density 21.809495999999999
#
# number of rings (size 3 to 8) (size 9 to 14) (size 15 to 20)
#    0.000    1.600    1.333    2.000    5.600    6.400 
#    4.800    1.333    0.000    0.000    0.000    0.000 
#    0.000    0.000    0.000    0.000    0.000    0.000 
#
# Total GULP energy -167472.154107 kJ/mol
# GULP energy per Si atom -5582.405137 kJ/mol
# Density = 2.175986 g / cm^3
# Si number density = 21.809496 Si / 1000 Ang^3
#
#
#
# Elastic Constant Matrix: (Units=GPa)
#
#
# Indices 1 2 3 4 5 6 
#
# 1 152.5771 49.0155 34.6227 0.0000 0.0000 0.0000
# 2 49.0155 106.0165 22.1264 0.0000 0.0000 0.0000
# 3 34.6227 22.1264 76.0371 0.0000 0.0000 0.0000
# 4 0.0000 0.0000 0.0000 2.9680 0.0000 0.0000
# 5 0.0000 0.0000 0.0000 0.0000 -289.0351 0.0000
# 6 0.0000 0.0000 0.0000 0.0000 0.0000 52.2818
#
#
#
# Elastic Compliance Matrix: (Units=1/GPa)
#
#
# Indices 1 2 3 4 5 6 
#
# 1 0.008225 -0.003216 -0.002809 0.000000 0.000000 0.000000
# 2 -0.003216 0.011300 -0.001824 0.000000 0.000000 0.000000
# 3 -0.002809 -0.001824 0.014961 0.000000 0.000000 0.000000
# 4 0.000000 0.000000 0.000000 0.336924 0.000000 0.000000
# 5 0.000000 0.000000 0.000000 0.000000 -0.003460 0.000000
# 6 0.000000 0.000000 0.000000 0.000000 0.000000 0.019127
#
#
# Mechanical properties :
#
#
# Convention : Reuss Voigt Hill
#
# Bulk Modulus (GPa) = 53.22615 60.68443 56.95529
# Shear Modulus (GPa) = 12.22377 -31.49933 -9.63778
#
# Velocity S-wave (km/s) = 2.37001 -3.80451 -2.10444
# Velocity P-wave (km/s) = 5.65219 2.93021 4.50186
#
# Compressibility (1/GPa) = 0.01878776
#
# Stress axis : x y z
#
# Youngs Moduli (GPa) = 121.58418 88.49429 66.83921
#
# Poissons Ratio (x) = 0.28463 0.18776
# Poissons Ratio (y) = 0.39106 0.12190
# Poissons Ratio (z) = 0.34154 0.16139
#
# Static dielectric constant tensor:
#      x y z
#    x 1.334450 0.000000 0.000000 
#    y 0.000000 2.026770 0.000000 
#    z 0.000000 0.000000 1.866060 
# 
# From -- ./inp_files/34917.got.cif
#   From: 2010.05.17/outbox.cif.g08.bks.cpg/sg66_18_cif.got.tgz:34917.got - 2010.06.03 17:51:23.
