data_PCOD9498555
_publ_section_title
;
Structure prediction by ZEFSAII (Michael W. Deem and Ramdas Pophale) SiO2 
 PCOD9498555
Probable space group: C C C M
;
_chemical_formula_sum "Si O2"
_cell_formula_units_Z 116
_cell_length_a 27.815939
_cell_length_b 17.585565
_cell_length_c 14.767446
_cell_angle_alpha 90.000000
_cell_angle_beta 90.000000
_cell_angle_gamma 90.000000
_cell_volume 7223.629167
_symmetry_space_group_name_H-M "C C C M"
_symmetry_group_IT_number 66
_symmetry_cell_setting 'orthorhombic'
loop_
_space_group_symop_operation_xyz
x,y,z
-x,-y,z
x,-y,1/2-z
-x,y,1/2-z
-x,-y,-z
x,y,-z
-x,y,1/2+z
x,-y,1/2+z
1/2+x,1/2+y,z
1/2-x,1/2-y,z
1/2+x,1/2-y,1/2-z
1/2-x,1/2+y,1/2-z
1/2-x,1/2-y,-z
1/2+x,1/2+y,-z
1/2-x,1/2+y,1/2+z
1/2+x,1/2-y,1/2+z
loop_
_atom_site_type_symbol
_atom_site_label
_atom_site_fract_x
_atom_site_fract_y
_atom_site_fract_z
Si Si1 0.115243 0.320493 0.101491
Si Si2 0.856032 0.507455 0.858687
Si Si3 0.743421 0.483555 0.395388
Si Si4 0.906996 0.350392 0.897353
Si Si5 0.482427 0.879241 0.607547
Si Si6 0.671693 0.775766 0.271634
Si Si7 0.732224 0.374784 0.227543
Si Si8 0.500000 0.000000 0.750000
O O1 0.124501 0.411026 0.110699
O O2 0.058197 0.315435 0.119697
O O3 0.149748 0.280748 0.171744
O O4 0.125481 0.296012 0.000000
O O5 0.855455 0.500000 0.750000
O O6 0.801148 0.505790 0.891809
O O7 0.886843 0.436544 0.893267
O O8 0.728806 0.473379 0.500000
O O9 0.730781 0.414761 0.326524
O O10 0.724408 0.560106 0.347247
O O11 0.872098 0.300429 0.835720
O O12 0.963201 0.353375 0.871715
O O13 0.904066 0.322917 0.000000
O O14 0.480971 0.902311 0.500000
O O15 0.471886 0.946108 0.679824
O O16 0.694924 0.693567 0.285381
O O17 0.714649 0.837383 0.281862
#
# Coordination Sequence:
#
# PCOD9498555 Si02
#       8
#    16  16  16  16  16  16  16   4
#     4  11  21  34  49  69  99 134 172 210 246 287
#     4  12  19  31  47  68  99 135 177 212 240 273
#     4  11  19  35  55  71  95 133 169 203 249 291
#     4  11  21  34  49  69  99 134 172 210 246 287
#     4  10  23  33  43  68  97 129 173 214 239 280
#     4  11  21  35  51  72 100 130 164 208 252 292
#     4  10  22  36  50  74 101 123 166 215 245 289
#     4  12  18  28  48  58  92 136 174 206 248 266
#
# _framework density 16.058409000000001
#
# number of rings (size 3 to 8) (size 9 to 14) (size 15 to 20)
#    0.000    1.103    5.517    3.103    1.931    3.310 
#    0.000    2.759    0.000    0.000    0.000    0.000 
#    0.000    8.828    0.000   24.828    0.000    0.000 
#
# Total GULP energy -323752.939464 kJ/mol
# GULP energy per Si atom -5581.947232 kJ/mol
# Density = 1.602186 g / cm^3
# Si number density = 16.058409 Si / 1000 Ang^3
#
#
#
# Elastic Constant Matrix: (Units=GPa)
#
#
# Indices 1 2 3 4 5 6 
#
# 1 65.8291 23.9040 16.4808 0.0000 0.0000 0.0000
# 2 23.9040 61.7061 16.3374 0.0000 0.0000 0.0000
# 3 16.4808 16.3374 91.5118 0.0000 0.0000 0.0000
# 4 0.0000 0.0000 0.0000 3.9405 0.0000 0.0000
# 5 0.0000 0.0000 0.0000 0.0000 15.9611 0.0000
# 6 0.0000 0.0000 0.0000 0.0000 0.0000 14.5109
#
#
#
# Elastic Compliance Matrix: (Units=1/GPa)
#
#
# Indices 1 2 3 4 5 6 
#
# 1 0.018055 -0.006438 -0.002102 0.000000 0.000000 0.000000
# 2 -0.006438 0.019305 -0.002287 0.000000 0.000000 0.000000
# 3 -0.002102 -0.002287 0.011714 0.000000 0.000000 0.000000
# 4 0.000000 0.000000 0.000000 0.253776 0.000000 0.000000
# 5 0.000000 0.000000 0.000000 0.000000 0.062652 0.000000
# 6 0.000000 0.000000 0.000000 0.000000 0.000000 0.068913
#
#
# Mechanical properties :
#
#
# Convention : Reuss Voigt Hill
#
# Bulk Modulus (GPa) = 36.46906 36.94350 36.70628
# Shear Modulus (GPa) = 10.74783 17.70416 14.22599
#
# Velocity S-wave (km/s) = 2.58988 3.32397 2.97962
# Velocity P-wave (km/s) = 5.63053 6.14714 5.89450
#
# Compressibility (1/GPa) = 0.02742051
#
# Stress axis : x y z
#
# Youngs Moduli (GPa) = 55.38691 51.79946 85.36445
#
# Poissons Ratio (x) = 0.33346 0.17946
# Poissons Ratio (y) = 0.35656 0.19524
# Poissons Ratio (z) = 0.11644 0.11847
#
# Static dielectric constant tensor:
#      x y z
#    x 1.564870 0.000000 0.000000 
#    y 0.000000 1.513490 0.000000 
#    z 0.000000 0.000000 1.581910 
# 
# From -- ./inp_files/30453.got.cif
#   From: 2010.05.17/outbox.cif.g08.bks.cpg/sg66_16_cif.got.tgz:30453.got - 2010.06.03 17:51:23.
