data_PCOD9498204
_publ_section_title
;
Structure prediction by ZEFSAII (Michael W. Deem and Ramdas Pophale) SiO2 
 PCOD9498204
Probable space group: C C C M
;
_chemical_formula_sum "Si O2"
_cell_formula_units_Z 112
_cell_length_a 25.963804
_cell_length_b 12.810874
_cell_length_c 15.719759
_cell_angle_alpha 90.000000
_cell_angle_beta 90.000000
_cell_angle_gamma 90.000000
_cell_volume 5228.690858
_symmetry_space_group_name_H-M "C C C M"
_symmetry_group_IT_number 66
_symmetry_cell_setting 'orthorhombic'
loop_
_space_group_symop_operation_xyz
x,y,z
-x,-y,z
x,-y,1/2-z
-x,y,1/2-z
-x,-y,-z
x,y,-z
-x,y,1/2+z
x,-y,1/2+z
1/2+x,1/2+y,z
1/2-x,1/2-y,z
1/2+x,1/2-y,1/2-z
1/2-x,1/2+y,1/2-z
1/2-x,1/2-y,-z
1/2+x,1/2+y,-z
1/2-x,1/2+y,1/2+z
1/2+x,1/2-y,1/2+z
loop_
_atom_site_type_symbol
_atom_site_label
_atom_site_fract_x
_atom_site_fract_y
_atom_site_fract_z
Si Si1 0.652555 0.497951 0.096753
Si Si2 0.606672 0.132324 0.839203
Si Si3 0.692275 0.726146 0.874852
Si Si4 0.995525 0.297188 0.401014
Si Si5 0.694340 0.291571 0.829862
Si Si6 0.890300 0.600175 0.135592
Si Si7 0.953368 0.079193 0.399391
O O1 0.677801 0.611476 0.094556
O O2 0.684369 0.411304 0.146404
O O3 0.596861 0.523374 0.137207
O O4 0.645853 0.458450 0.000000
O O5 0.548047 0.164728 0.858841
O O6 0.647303 0.221367 0.864459
O O7 0.610106 0.115961 0.737583
O O8 0.621085 0.021162 0.881009
O O9 0.750000 0.750000 0.902600
O O10 0.692713 0.720257 0.772079
O O11 0.650480 0.814839 0.899024
O O12 0.008045 0.277565 0.500000
O O13 0.948216 0.377074 0.395000
O O14 0.971518 0.189997 0.363330
O O15 0.750000 0.250000 0.859218
O O16 0.941158 0.097965 0.500000
O O17 0.000000 0.000000 0.394226
#
# Coordination Sequence:
#
# PCOD9498204 Si02
#       7
#    16  16  16  16  16  16  16
#     4  11  22  39  62  89 126 160 195 248 305 360
#     4  10  22  38  60  87 119 160 200 247 302 351
#     4  10  22  40  66  90 117 158 206 254 300 358
#     4  11  21  36  58  86 120 157 199 242 297 363
#     4  10  23  41  64  90 119 159 205 252 298 357
#     4  10  21  39  60  87 120 155 201 252 299 354
#     4   9  18  33  55  81 113 156 194 231 286 352
#
# _framework density 21.420276999999999
#
# number of rings (size 3 to 8) (size 9 to 14) (size 15 to 20)
#    0.000    1.857    1.429    2.143    2.000    4.571 
#    0.000    0.000    0.000    0.000    0.000    0.000 
#    0.000    0.000    0.000    0.000    0.000    0.000 
#
# Total GULP energy -312875.304978 kJ/mol
# GULP energy per Si atom -5587.059017 kJ/mol
# Density = 2.137152 g / cm^3
# Si number density = 21.420277 Si / 1000 Ang^3
#
#
#
# Elastic Constant Matrix: (Units=GPa)
#
#
# Indices 1 2 3 4 5 6 
#
# 1 163.7907 69.5738 20.1029 0.0000 0.0000 0.0000
# 2 69.5738 123.0364 20.2701 0.0000 0.0000 0.0000
# 3 20.1029 20.2701 34.9146 0.0000 0.0000 0.0000
# 4 0.0000 0.0000 0.0000 22.7067 0.0000 0.0000
# 5 0.0000 0.0000 0.0000 0.0000 -5.4273 0.0000
# 6 0.0000 0.0000 0.0000 0.0000 0.0000 11.5457
#
#
#
# Elastic Compliance Matrix: (Units=1/GPa)
#
#
# Indices 1 2 3 4 5 6 
#
# 1 0.008191 -0.004263 -0.002242 0.000000 0.000000 0.000000
# 2 -0.004263 0.011205 -0.004051 0.000000 0.000000 0.000000
# 3 -0.002242 -0.004051 0.032284 0.000000 0.000000 0.000000
# 4 0.000000 0.000000 0.000000 0.044040 0.000000 0.000000
# 5 0.000000 0.000000 0.000000 0.000000 -0.184255 0.000000
# 6 0.000000 0.000000 0.000000 0.000000 0.000000 0.086612
#
#
# Mechanical properties :
#
#
# Convention : Reuss Voigt Hill
#
# Bulk Modulus (GPa) = 32.71196 60.18171 46.44683
# Shear Modulus (GPa) = 170.19374 19.88470 95.03922
#
# Velocity S-wave (km/s) = 8.92340 3.05013 6.66822
# Velocity P-wave (km/s) = 11.02152 6.36875 9.00097
#
# Compressibility (1/GPa) = 0.03056986
#
# Stress axis : x y z
#
# Youngs Moduli (GPa) = 122.08398 89.24219 30.97521
#
# Poissons Ratio (x) = 0.38040 0.06943
# Poissons Ratio (y) = 0.52039 0.12549
# Poissons Ratio (z) = 0.27366 0.36154
#
# Static dielectric constant tensor:
#      x y z
#    x 1.811070 0.000000 0.000000 
#    y 0.000000 1.775200 0.000000 
#    z 0.000000 0.000000 1.812450 
# 
# From -- ./inp_files/52617.got.cif
#   From: 2010.05.17/outbox.cif.g08.bks.cpg/sg66_27_cif.got.tgz:52617.got - 2010.06.03 17:51:23.
