data_PCOD9498730
_publ_section_title
;
Structure prediction by ZEFSAII (Michael W. Deem and Ramdas Pophale) SiO2 
 PCOD9498730
Probable space group: C C C M
;
_chemical_formula_sum "Si O2"
_cell_formula_units_Z 112
_cell_length_a 23.313747
_cell_length_b 15.341380
_cell_length_c 14.438637
_cell_angle_alpha 90.000000
_cell_angle_beta 90.000000
_cell_angle_gamma 90.000000
_cell_volume 5164.195853
_symmetry_space_group_name_H-M "C C C M"
_symmetry_group_IT_number 66
_symmetry_cell_setting 'orthorhombic'
loop_
_space_group_symop_operation_xyz
x,y,z
-x,-y,z
x,-y,1/2-z
-x,y,1/2-z
-x,-y,-z
x,y,-z
-x,y,1/2+z
x,-y,1/2+z
1/2+x,1/2+y,z
1/2-x,1/2-y,z
1/2+x,1/2-y,1/2-z
1/2-x,1/2+y,1/2-z
1/2-x,1/2-y,-z
1/2+x,1/2+y,-z
1/2-x,1/2+y,1/2+z
1/2+x,1/2-y,1/2+z
loop_
_atom_site_type_symbol
_atom_site_label
_atom_site_fract_x
_atom_site_fract_y
_atom_site_fract_z
Si Si1 0.175661 0.053522 0.106288
Si Si2 0.886209 0.714672 0.603255
Si Si3 0.278314 0.897850 0.723282
Si Si4 0.452992 0.428167 0.886495
Si Si5 0.213339 0.147151 0.394619
Si Si6 0.098318 0.400383 0.777806
Si Si7 0.477723 0.232840 0.892571
O O1 0.221771 0.110623 0.160697
O O2 0.111342 0.050676 0.143695
O O3 0.196180 0.953922 0.108844
O O4 0.173287 0.082984 0.000000
O O5 0.873021 0.681923 0.500000
O O6 0.843588 0.795217 0.621289
O O7 0.884740 0.641477 0.679957
O O8 0.953457 0.738388 0.605232
O O9 0.262036 0.844663 0.816425
O O10 0.339491 0.885424 0.672870
O O11 0.281989 0.000000 0.750000
O O12 0.500000 0.500000 0.857456
O O13 0.461047 0.328314 0.856424
O O14 0.455401 0.427975 0.000000
O O15 0.233326 0.163011 0.500000
O O16 0.083164 0.500000 0.750000
O O17 0.049834 0.344757 0.831151
O O18 0.458791 0.221473 0.000000
#
# Coordination Sequence:
#
# PCOD9498730 Si02
#       7
#    16  16  16  16  16  16  16
#     4   9  17  32  57  88 124 164 202 242 299 376
#     4  10  22  40  63  88 114 151 205 262 318 372
#     4   9  20  37  57  84 121 164 209 253 306 374
#     4   9  17  32  58  91 126 162 196 239 309 384
#     4   9  18  35  60  88 119 156 201 257 311 362
#     4  11  25  43  61  84 120 166 210 263 321 372
#     4  10  22  40  62  91 125 160 205 260 315 384
#
# _framework density 21.687792000000002
#
# number of rings (size 3 to 8) (size 9 to 14) (size 15 to 20)
#    0.000    2.429    0.000    1.286    2.000    6.857 
#    0.000    5.714    0.000    2.571    0.000    0.000 
#    0.000    0.000    0.000    0.000    0.000    0.000 
#
# Total GULP energy -312282.062431 kJ/mol
# GULP energy per Si atom -5576.465401 kJ/mol
# Density = 2.163843 g / cm^3
# Si number density = 21.687792 Si / 1000 Ang^3
#
#
#
# Elastic Constant Matrix: (Units=GPa)
#
#
# Indices 1 2 3 4 5 6 
#
# 1 124.6056 33.6798 25.5405 0.0000 0.0000 0.0000
# 2 33.6798 96.1167 39.9563 0.0000 0.0000 0.0000
# 3 25.5405 39.9563 68.2058 0.0000 0.0000 0.0000
# 4 0.0000 0.0000 0.0000 17.3551 0.0000 0.0000
# 5 0.0000 0.0000 0.0000 0.0000 25.4753 0.0000
# 6 0.0000 0.0000 0.0000 0.0000 0.0000 22.5620
#
#
#
# Elastic Compliance Matrix: (Units=1/GPa)
#
#
# Indices 1 2 3 4 5 6 
#
# 1 0.009073 -0.002336 -0.002029 0.000000 0.000000 0.000000
# 2 -0.002336 0.014355 -0.007535 0.000000 0.000000 0.000000
# 3 -0.002029 -0.007535 0.019835 0.000000 0.000000 0.000000
# 4 0.000000 0.000000 0.000000 0.057620 0.000000 0.000000
# 5 0.000000 0.000000 0.000000 0.000000 0.039254 0.000000
# 6 0.000000 0.000000 0.000000 0.000000 0.000000 0.044322
#
#
# Mechanical properties :
#
#
# Convention : Reuss Voigt Hill
#
# Bulk Modulus (GPa) = 51.37738 54.14236 52.75987
# Shear Modulus (GPa) = 23.28345 25.72859 24.50602
#
# Velocity S-wave (km/s) = 3.28010 3.44803 3.36511
# Velocity P-wave (km/s) = 6.17141 6.39301 6.28319
#
# Compressibility (1/GPa) = 0.01946382
#
# Stress axis : x y z
#
# Youngs Moduli (GPa) = 110.22314 69.66415 50.41522
#
# Poissons Ratio (x) = 0.16270 0.10230
# Poissons Ratio (y) = 0.25743 0.37986
# Poissons Ratio (z) = 0.22366 0.52489
#
# Static dielectric constant tensor:
#      x y z
#    x 1.919370 0.000000 0.000000 
#    y 0.000000 1.839430 0.000000 
#    z 0.000000 0.000000 1.851520 
# 
# From -- ./inp_files/32453.got.cif
#   From: 2010.05.17/outbox.cif.g08.bks.cpg/sg66_17_cif.got.tgz:32453.got - 2010.06.03 17:51:23.
