data_PCOD9498053
_publ_section_title
;
Structure prediction by ZEFSAII (Michael W. Deem and Ramdas Pophale) SiO2 
 PCOD9498053
Probable space group: C C C M
;
_chemical_formula_sum "Si O2"
_cell_formula_units_Z 64
_cell_length_a 28.980743
_cell_length_b 14.495095
_cell_length_c 8.724117
_cell_angle_alpha 90.000000
_cell_angle_beta 90.000000
_cell_angle_gamma 90.000000
_cell_volume 3664.815056
_symmetry_space_group_name_H-M "C C C M"
_symmetry_group_IT_number 66
_symmetry_cell_setting 'orthorhombic'
loop_
_space_group_symop_operation_xyz
x,y,z
-x,-y,z
x,-y,1/2-z
-x,y,1/2-z
-x,-y,-z
x,y,-z
-x,y,1/2+z
x,-y,1/2+z
1/2+x,1/2+y,z
1/2-x,1/2-y,z
1/2+x,1/2-y,1/2-z
1/2-x,1/2+y,1/2-z
1/2-x,1/2-y,-z
1/2+x,1/2+y,-z
1/2-x,1/2+y,1/2+z
1/2+x,1/2-y,1/2+z
loop_
_atom_site_type_symbol
_atom_site_label
_atom_site_fract_x
_atom_site_fract_y
_atom_site_fract_z
Si Si1 0.948746 0.256579 0.184482
Si Si2 0.876299 0.898138 0.683657
Si Si3 0.196380 0.744479 0.185196
Si Si4 0.375212 0.897513 0.316897
O O1 0.920597 0.163749 0.228084
O O2 0.918826 0.340966 0.250693
O O3 0.000000 0.256022 0.250000
O O4 0.949360 0.262709 0.000000
O O5 0.876209 0.904728 0.500000
O O6 0.831697 0.837074 0.728474
O O7 0.876533 0.000000 0.750000
O O8 0.250000 0.750000 0.226169
O O9 0.169558 0.659764 0.261792
O O10 0.192756 0.734469 0.000000
O O11 0.377318 0.899725 0.500000
O O12 0.374339 0.000000 0.250000
#
# Coordination Sequence:
#
# PCOD9498053 Si02
#       4
#    16  16  16  16
#     4  10  21  38  57  80 108 140 179 223 272 322
#     4   9  19  34  53  77 107 141 177 219 265 316
#     4   9  19  37  57  79 110 145 181 225 273 319
#     4  11  22  37  57  81 110 144 182 224 269 321
#
# _framework density 17.463363999999999
#
# number of rings (size 3 to 8) (size 9 to 14) (size 15 to 20)
#    0.000    2.250    0.000    4.500    0.000    7.500 
#    0.000    7.500    0.000    0.000    0.000    0.000 
#    0.000    0.000    0.000    0.000    0.000    0.000 
#
# Total GULP energy -178626.371639 kJ/mol
# GULP energy per Si atom -5582.074114 kJ/mol
# Density = 1.742362 g / cm^3
# Si number density = 17.463364 Si / 1000 Ang^3
#
#
#
# Elastic Constant Matrix: (Units=GPa)
#
#
# Indices 1 2 3 4 5 6 
#
# 1 195.0240 107.8521 68.1949 0.0000 0.0000 0.0000
# 2 107.8521 202.5518 66.2403 0.0000 0.0000 0.0000
# 3 68.1949 66.2403 74.3984 0.0000 0.0000 0.0000
# 4 0.0000 0.0000 0.0000 37.1646 0.0000 0.0000
# 5 0.0000 0.0000 0.0000 0.0000 29.0425 0.0000
# 6 0.0000 0.0000 0.0000 0.0000 0.0000 5.1414
#
#
#
# Elastic Compliance Matrix: (Units=1/GPa)
#
#
# Indices 1 2 3 4 5 6 
#
# 1 0.008544 -0.002805 -0.005334 0.000000 0.000000 0.000000
# 2 -0.002805 0.007886 -0.004450 0.000000 0.000000 0.000000
# 3 -0.005334 -0.004450 0.022293 0.000000 0.000000 0.000000
# 4 0.000000 0.000000 0.000000 0.026907 0.000000 0.000000
# 5 0.000000 0.000000 0.000000 0.000000 0.034432 0.000000
# 6 0.000000 0.000000 0.000000 0.000000 0.000000 0.194498
#
#
# Mechanical properties :
#
#
# Convention : Reuss Voigt Hill
#
# Bulk Modulus (GPa) = 73.83299 106.28318 90.05808
# Shear Modulus (GPa) = 15.42004 29.58217 22.50110
#
# Velocity S-wave (km/s) = 2.97474 4.12023 3.59343
# Velocity P-wave (km/s) = 7.35999 9.14483 8.30052
#
# Compressibility (1/GPa) = 0.01354408
#
# Stress axis : x y z
#
# Youngs Moduli (GPa) = 117.04115 126.80929 44.85781
#
# Poissons Ratio (x) = 0.35569 0.23928
# Poissons Ratio (y) = 0.32830 0.19962
# Poissons Ratio (z) = 0.62432 0.56431
#
# Static dielectric constant tensor:
#      x y z
#    x 1.578960 0.000000 0.000000 
#    y 0.000000 1.566430 0.000000 
#    z 0.000000 0.000000 1.587660 
# 
# From -- ./inp_files/3962.got.cif
#   From: 2010.05.17/outbox.cif.g08.bks.cpg/sg66_2_cif.got.tgz:3962.got - 2010.06.03 17:51:23.
