data_PCOD9498330
_publ_section_title
;
Structure prediction by ZEFSAII (Michael W. Deem and Ramdas Pophale) SiO2 
 PCOD9498330
Probable space group: C C C M
;
_chemical_formula_sum "Si O2"
_cell_formula_units_Z 116
_cell_length_a 25.764576
_cell_length_b 10.988783
_cell_length_c 18.390037
_cell_angle_alpha 90.000000
_cell_angle_beta 90.000000
_cell_angle_gamma 90.000000
_cell_volume 5206.611822
_symmetry_space_group_name_H-M "C C C M"
_symmetry_group_IT_number 66
_symmetry_cell_setting 'orthorhombic'
loop_
_space_group_symop_operation_xyz
x,y,z
-x,-y,z
x,-y,1/2-z
-x,y,1/2-z
-x,-y,-z
x,y,-z
-x,y,1/2+z
x,-y,1/2+z
1/2+x,1/2+y,z
1/2-x,1/2-y,z
1/2+x,1/2-y,1/2-z
1/2-x,1/2+y,1/2-z
1/2-x,1/2-y,-z
1/2+x,1/2+y,-z
1/2-x,1/2+y,1/2+z
1/2+x,1/2-y,1/2+z
loop_
_atom_site_type_symbol
_atom_site_label
_atom_site_fract_x
_atom_site_fract_y
_atom_site_fract_z
Si Si1 0.699521 0.473242 0.330705
Si Si2 0.718767 0.122539 0.086317
Si Si3 0.622068 0.977231 0.335457
Si Si4 0.343290 0.759952 0.386303
Si Si5 0.896170 0.077124 0.085059
Si Si6 0.453885 0.651241 0.417819
Si Si7 0.458086 0.823494 0.084480
Si Si8 0.750000 0.250000 0.500000
O O1 0.718564 0.500000 0.250000
O O2 0.743991 0.511569 0.387975
O O3 0.677340 0.336370 0.327070
O O4 0.650972 0.551947 0.360807
O O5 0.750000 0.250000 0.095591
O O6 0.640294 0.893484 0.134644
O O7 0.706296 0.110637 0.000000
O O8 0.667747 0.886903 0.363787
O O9 0.568021 0.930226 0.369431
O O10 0.618515 0.000000 0.250000
O O11 0.395451 0.701304 0.418358
O O12 0.295323 0.761818 0.439096
O O13 0.916604 0.213215 0.085049
O O14 0.942993 0.986225 0.108225
O O15 0.881706 0.048724 0.000000
O O16 0.474777 0.639422 0.500000
O O17 0.490736 0.755016 0.384483
O O18 0.466153 0.862087 0.000000
#
# Coordination Sequence:
#
# PCOD9498330 Si02
#       8
#    16  16  16  16  16  16  16   4
#     4  11  24  40  66  93 138 177 219 278 346 420
#     4  11  25  44  70  99 128 171 235 297 356 421
#     4  12  28  45  64  92 143 188 235 279 340 432
#     4  11  26  41  68  99 130 178 225 274 346 411
#     4   9  18  36  67 101 133 169 225 284 348 406
#     4   9  18  38  66 105 134 162 224 287 342 405
#     4  10  21  39  70  98 132 179 226 293 349 393
#     4  12  24  44  72  94 132 168 212 292 338 422
#
# _framework density 22.279364000000001
#
# number of rings (size 3 to 8) (size 9 to 14) (size 15 to 20)
#    0.000    1.517    0.690    3.310    9.655    4.414 
#    0.000    2.759    0.000    0.828    0.000    0.000 
#    0.000    0.000    0.000    0.000    0.000    1.103 
#
# Total GULP energy -323244.157419 kJ/mol
# GULP energy per Si atom -5573.175128 kJ/mol
# Density = 2.222866 g / cm^3
# Si number density = 22.279364 Si / 1000 Ang^3
#
#
#
# Elastic Constant Matrix: (Units=GPa)
#
#
# Indices 1 2 3 4 5 6 
#
# 1 85.1745 25.0055 21.7829 0.0000 0.0000 0.0000
# 2 25.0055 105.6897 23.0501 0.0000 0.0000 0.0000
# 3 21.7829 23.0501 83.1917 0.0000 0.0000 0.0000
# 4 0.0000 0.0000 0.0000 -9.7374 0.0000 0.0000
# 5 0.0000 0.0000 0.0000 0.0000 -9.8851 0.0000
# 6 0.0000 0.0000 0.0000 0.0000 0.0000 35.4911
#
#
#
# Elastic Compliance Matrix: (Units=1/GPa)
#
#
# Indices 1 2 3 4 5 6 
#
# 1 0.013184 -0.002519 -0.002754 0.000000 0.000000 0.000000
# 2 -0.002519 0.010551 -0.002264 0.000000 0.000000 0.000000
# 3 -0.002754 -0.002264 0.013369 0.000000 0.000000 0.000000
# 4 0.000000 0.000000 0.000000 -0.102697 0.000000 0.000000
# 5 0.000000 0.000000 0.000000 0.000000 -0.101163 0.000000
# 6 0.000000 0.000000 0.000000 0.000000 0.000000 0.028176
#
#
# Mechanical properties :
#
#
# Convention : Reuss Voigt Hill
#
# Bulk Modulus (GPa) = 45.39129 45.97033 45.68081
# Shear Modulus (GPa) = -43.04351 16.78823 -13.12764
#
# Velocity S-wave (km/s) = -4.40021 2.74803 -2.43004
# Velocity P-wave (km/s) = 2.32333 5.54502 3.56016
#
# Compressibility (1/GPa) = 0.02203066
#
# Stress axis : x y z
#
# Youngs Moduli (GPa) = 75.84701 94.77484 74.80038
#
# Poissons Ratio (x) = 0.23870 0.20603
# Poissons Ratio (y) = 0.19103 0.16935
# Poissons Ratio (z) = 0.20891 0.21457
#
# Static dielectric constant tensor:
#      x y z
#    x 1.847630 0.000000 0.000000 
#    y 0.000000 1.903210 0.000000 
#    z 0.000000 0.000000 1.725140 
# 
# From -- ./inp_files/44757.got.cif
#   From: 2010.05.17/outbox.cif.g08.bks.cpg/sg66_23_cif.got.tgz:44757.got - 2010.06.03 17:51:23.
