data_PCOD9498313
_publ_section_title
;
Structure prediction by ZEFSAII (Michael W. Deem and Ramdas Pophale) SiO2 
 PCOD9498313
Probable space group: C C C M
;
_chemical_formula_sum "Si O2"
_cell_formula_units_Z 64
_cell_length_a 15.471630
_cell_length_b 11.881201
_cell_length_c 14.097296
_cell_angle_alpha 90.000000
_cell_angle_beta 90.000000
_cell_angle_gamma 90.000000
_cell_volume 2591.386743
_symmetry_space_group_name_H-M "C C C M"
_symmetry_group_IT_number 66
_symmetry_cell_setting 'orthorhombic'
loop_
_space_group_symop_operation_xyz
x,y,z
-x,-y,z
x,-y,1/2-z
-x,y,1/2-z
-x,-y,-z
x,y,-z
-x,y,1/2+z
x,-y,1/2+z
1/2+x,1/2+y,z
1/2-x,1/2-y,z
1/2+x,1/2-y,1/2-z
1/2-x,1/2+y,1/2-z
1/2-x,1/2-y,-z
1/2+x,1/2+y,-z
1/2-x,1/2+y,1/2+z
1/2+x,1/2-y,1/2+z
loop_
_atom_site_type_symbol
_atom_site_label
_atom_site_fract_x
_atom_site_fract_y
_atom_site_fract_z
Si Si1 0.056867 0.335578 0.385442
Si Si2 0.287560 0.633956 0.717058
Si Si3 0.968329 0.874769 0.885979
Si Si4 0.872639 0.556838 0.112850
O O1 0.065894 0.334514 0.500000
O O2 0.123801 0.428045 0.348647
O O3 0.048082 0.206806 0.357445
O O4 0.962361 0.384495 0.359828
O O5 0.293827 0.500000 0.750000
O O6 0.250000 0.750000 0.770096
O O7 0.380222 0.653078 0.667792
O O8 0.211963 0.621130 0.640136
O O9 0.953913 0.861778 0.000000
O O10 0.000000 0.000000 0.867924
O O11 0.876752 0.550607 0.000000
#
# Coordination Sequence:
#
# PCOD9498313 Si02
#       4
#    16  16  16  16
#     4   8  15  31  60  95 119 140 187 253 308 350
#     4  12  26  42  60  88 128 169 208 247 298 367
#     4  10  21  39  66  94 119 154 202 257 315 366
#     4   9  17  34  64  93 115 146 198 260 303 344
#
# _framework density 24.697201
#
# number of rings (size 3 to 8) (size 9 to 14) (size 15 to 20)
#    0.000    2.250    2.500    2.250    0.000    3.500 
#    0.000    2.500    0.000    7.500    0.000    0.000 
#    0.000    0.000    0.000    0.000    0.000    0.000 
#
# Total GULP energy -178480.152300 kJ/mol
# GULP energy per Si atom -5577.504759 kJ/mol
# Density = 2.464099 g / cm^3
# Si number density = 24.697201 Si / 1000 Ang^3
#
#
#
# Elastic Constant Matrix: (Units=GPa)
#
#
# Indices 1 2 3 4 5 6 
#
# 1 65.2149 21.0221 23.9775 0.0000 0.0000 0.0000
# 2 21.0221 198.2644 21.6759 0.0000 0.0000 0.0000
# 3 23.9775 21.6759 70.5333 0.0000 0.0000 0.0000
# 4 0.0000 0.0000 0.0000 29.4172 0.0000 0.0000
# 5 0.0000 0.0000 0.0000 0.0000 21.9759 0.0000
# 6 0.0000 0.0000 0.0000 0.0000 0.0000 52.3416
#
#
#
# Elastic Compliance Matrix: (Units=1/GPa)
#
#
# Indices 1 2 3 4 5 6 
#
# 1 0.017828 -0.001270 -0.005670 0.000000 0.000000 0.000000
# 2 -0.001270 0.005310 -0.001200 0.000000 0.000000 0.000000
# 3 -0.005670 -0.001200 0.016474 0.000000 0.000000 0.000000
# 4 0.000000 0.000000 0.000000 0.033994 0.000000 0.000000
# 5 0.000000 0.000000 0.000000 0.000000 0.045504 0.000000
# 6 0.000000 0.000000 0.000000 0.000000 0.000000 0.019105
#
#
# Mechanical properties :
#
#
# Convention : Reuss Voigt Hill
#
# Bulk Modulus (GPa) = 42.86162 51.92927 47.39545
# Shear Modulus (GPa) = 30.81226 38.56942 34.69084
#
# Velocity S-wave (km/s) = 3.53597 3.95611 3.75193
# Velocity P-wave (km/s) = 5.83638 6.47609 6.16454
#
# Compressibility (1/GPa) = 0.02333089
#
# Stress axis : x y z
#
# Youngs Moduli (GPa) = 56.09094 188.33632 60.70174
#
# Poissons Ratio (x) = 0.23927 0.34419
# Poissons Ratio (y) = 0.07126 0.07283
# Poissons Ratio (z) = 0.31805 0.22598
#
# Static dielectric constant tensor:
#      x y z
#    x 1.860090 0.000000 0.000000 
#    y 0.000000 2.133820 0.000000 
#    z 0.000000 0.000000 1.960330 
# 
# From -- ./inp_files/25741.got.cif
#   From: 2010.05.17/outbox.cif.g08.bks.cpg/sg66_13_cif.got.tgz:25741.got - 2010.06.03 17:51:23.
