data_PCOD9498830
_publ_section_title
;
Structure prediction by ZEFSAII (Michael W. Deem and Ramdas Pophale) SiO2 
 PCOD9498830
Probable space group: C C C M
;
_chemical_formula_sum "Si O2"
_cell_formula_units_Z 64
_cell_length_a 9.766039
_cell_length_b 15.422097
_cell_length_c 20.844373
_cell_angle_alpha 90.000000
_cell_angle_beta 90.000000
_cell_angle_gamma 90.000000
_cell_volume 3139.429398
_symmetry_space_group_name_H-M "C C C M"
_symmetry_group_IT_number 66
_symmetry_cell_setting 'orthorhombic'
loop_
_space_group_symop_operation_xyz
x,y,z
-x,-y,z
x,-y,1/2-z
-x,y,1/2-z
-x,-y,-z
x,y,-z
-x,y,1/2+z
x,-y,1/2+z
1/2+x,1/2+y,z
1/2-x,1/2-y,z
1/2+x,1/2-y,1/2-z
1/2-x,1/2+y,1/2-z
1/2-x,1/2-y,-z
1/2+x,1/2+y,-z
1/2-x,1/2+y,1/2+z
1/2+x,1/2-y,1/2+z
loop_
_atom_site_type_symbol
_atom_site_label
_atom_site_fract_x
_atom_site_fract_y
_atom_site_fract_z
Si Si1 0.878291 0.939035 0.425926
Si Si2 0.500000 0.149991 0.750000
Si Si3 0.547100 0.730936 0.072251
Si Si4 0.250000 0.250000 0.182508
Si Si5 0.074244 0.416265 0.386016
O O1 0.856204 0.966963 0.500000
O O2 0.733686 0.936612 0.392072
O O3 0.929858 0.840673 0.425449
O O4 0.000000 0.000000 0.399857
O O5 0.363978 0.203685 0.772765
O O6 0.460622 0.095169 0.688407
O O7 0.652480 0.703880 0.128870
O O8 0.482259 0.826195 0.083963
O O9 0.604650 0.727097 0.000000
O O10 0.000000 0.500000 0.414335
#
# Coordination Sequence:
#
# PCOD9498830 Si02
#       5
#    16   8  16   8  16
#     4  10  23  41  66  98 132 168 213 268 328 389
#     4  10  25  42  66  90 131 168 231 260 322 382
#     4  10  22  41  68  99 130 169 216 268 334 389
#     4  10  23  40  68  96 121 172 212 278 312 386
#     4  11  24  42  65  94 134 174 216 268 318 385
#
# _framework density 20.385869
#
# number of rings (size 3 to 8) (size 9 to 14) (size 15 to 20)
#    0.000    1.750    0.000    2.250   14.000    4.000 
#    0.000    0.000    0.000    0.000    0.000    0.000 
#    0.000    0.000    0.000    0.000    0.000    0.000 
#
# Total GULP energy -178292.232270 kJ/mol
# GULP energy per Si atom -5571.632258 kJ/mol
# Density = 2.033947 g / cm^3
# Si number density = 20.385869 Si / 1000 Ang^3
#
#
#
# Elastic Constant Matrix: (Units=GPa)
#
#
# Indices 1 2 3 4 5 6 
#
# 1 168.8028 64.8467 25.6486 0.0000 0.0000 0.0000
# 2 64.8467 120.8944 23.5814 0.0000 0.0000 0.0000
# 3 25.6486 23.5814 55.9821 0.0000 0.0000 0.0000
# 4 0.0000 0.0000 0.0000 13.5739 0.0000 0.0000
# 5 0.0000 0.0000 0.0000 0.0000 20.9317 0.0000
# 6 0.0000 0.0000 0.0000 0.0000 0.0000 7.7877
#
#
#
# Elastic Compliance Matrix: (Units=1/GPa)
#
#
# Indices 1 2 3 4 5 6 
#
# 1 0.007649 -0.003726 -0.001935 0.000000 0.000000 0.000000
# 2 -0.003726 0.010827 -0.002854 0.000000 0.000000 0.000000
# 3 -0.001935 -0.002854 0.019952 0.000000 0.000000 0.000000
# 4 0.000000 0.000000 0.000000 0.073671 0.000000 0.000000
# 5 0.000000 0.000000 0.000000 0.000000 0.047774 0.000000
# 6 0.000000 0.000000 0.000000 0.000000 0.000000 0.128407
#
#
# Mechanical properties :
#
#
# Convention : Reuss Voigt Hill
#
# Bulk Modulus (GPa) = 46.73198 63.75917 55.24558
# Shear Modulus (GPa) = 16.00299 23.89885 19.95092
#
# Velocity S-wave (km/s) = 2.80483 3.42764 3.13175
# Velocity P-wave (km/s) = 5.78471 6.85631 6.34318
#
# Compressibility (1/GPa) = 0.02139862
#
# Stress axis : x y z
#
# Youngs Moduli (GPa) = 130.73070 92.36466 50.12138
#
# Poissons Ratio (x) = 0.34411 0.09700
# Poissons Ratio (y) = 0.48704 0.14303
# Poissons Ratio (z) = 0.25300 0.26358
#
# Static dielectric constant tensor:
#      x y z
#    x 1.785530 0.000000 0.000000 
#    y 0.000000 1.735410 0.000000 
#    z 0.000000 0.000000 1.736160 
# 
# From -- ./inp_files/55064.got.cif
#   From: 2010.05.17/outbox.cif.g08.bks.cpg/sg66_28_cif.got.tgz:55064.got - 2010.06.03 17:51:23.
