data_PCOD9498905
_publ_section_title
;
Structure prediction by ZEFSAII (Michael W. Deem and Ramdas Pophale) SiO2 
 PCOD9498905
Probable space group: C C C M
;
_chemical_formula_sum "Si O2"
_cell_formula_units_Z 88
_cell_length_a 26.126297
_cell_length_b 11.459068
_cell_length_c 14.220761
_cell_angle_alpha 90.000000
_cell_angle_beta 90.000000
_cell_angle_gamma 90.000000
_cell_volume 4257.454288
_symmetry_space_group_name_H-M "C C C M"
_symmetry_group_IT_number 66
_symmetry_cell_setting 'orthorhombic'
loop_
_space_group_symop_operation_xyz
x,y,z
-x,-y,z
x,-y,1/2-z
-x,y,1/2-z
-x,-y,-z
x,y,-z
-x,y,1/2+z
x,-y,1/2+z
1/2+x,1/2+y,z
1/2-x,1/2-y,z
1/2+x,1/2-y,1/2-z
1/2-x,1/2+y,1/2-z
1/2-x,1/2-y,-z
1/2+x,1/2+y,-z
1/2-x,1/2+y,1/2+z
1/2+x,1/2-y,1/2+z
loop_
_atom_site_type_symbol
_atom_site_label
_atom_site_fract_x
_atom_site_fract_y
_atom_site_fract_z
Si Si1 0.900110 0.188387 0.500000
Si Si2 0.509444 0.139077 0.500000
Si Si3 0.250000 0.250000 0.171813
Si Si4 0.418867 0.765342 0.898186
Si Si5 0.440225 0.497886 0.361313
Si Si6 0.712924 0.608349 0.000000
Si Si7 0.328061 0.121601 0.303715
Si Si8 0.767794 0.382147 0.000000
O O1 0.933392 0.307358 0.500000
O O2 0.915579 0.108787 0.410863
O O3 0.839086 0.184376 0.500000
O O4 0.477673 0.192320 0.589154
O O5 0.500000 0.000000 0.500000
O O6 0.261108 0.353510 0.097978
O O7 0.295959 0.212104 0.239994
O O8 0.417850 0.626305 0.891599
O O9 0.384482 0.826599 0.821441
O O10 0.396342 0.799200 0.000000
O O11 0.500000 0.500000 0.386929
O O12 0.435490 0.500000 0.250000
O O13 0.718450 0.468807 0.000000
O O14 0.299865 0.101307 0.403775
O O15 0.330941 0.000000 0.250000
O O16 0.750000 0.250000 0.000000
#
# Coordination Sequence:
#
# PCOD9498905 Si02
#       8
#     8   8   8  16  16   8  16   8
#     4  12  23  43  71 100 138 185 226 301 368 422
#     4  10  22  45  74  99 140 183 236 292 361 439
#     4  11  26  49  66  94 144 181 238 301 350 426
#     4  10  22  43  69 100 136 181 234 285 359 435
#     4  11  22  41  69 101 140 175 224 294 361 427
#     4  11  28  45  68 102 137 190 243 292 368 436
#     4  12  25  44  73 101 146 195 238 300 368 430
#     4  12  24  44  68 103 139 191 246 301 365 437
#
# _framework density 20.669627999999999
#
# number of rings (size 3 to 8) (size 9 to 14) (size 15 to 20)
#    0.545    0.364    6.364    0.273    5.091    1.455 
#    0.000    0.000    0.000    0.000    0.000    0.000 
#    0.000    0.000    0.000    0.000    0.000    0.000 
#
# Total GULP energy -245432.947736 kJ/mol
# GULP energy per Si atom -5578.021539 kJ/mol
# Density = 2.062258 g / cm^3
# Si number density = 20.669628 Si / 1000 Ang^3
#
#
#
# Elastic Constant Matrix: (Units=GPa)
#
#
# Indices 1 2 3 4 5 6 
#
# 1 73.8047 20.7195 20.8618 0.0000 0.0000 0.0000
# 2 20.7195 122.8755 13.4163 0.0000 0.0000 0.0000
# 3 20.8618 13.4163 108.3797 0.0000 0.0000 0.0000
# 4 0.0000 0.0000 0.0000 17.1038 0.0000 0.0000
# 5 0.0000 0.0000 0.0000 0.0000 45.4413 0.0000
# 6 0.0000 0.0000 0.0000 0.0000 0.0000 34.0318
#
#
#
# Elastic Compliance Matrix: (Units=1/GPa)
#
#
# Indices 1 2 3 4 5 6 
#
# 1 0.014909 -0.002231 -0.002594 0.000000 0.000000 0.000000
# 2 -0.002231 0.008584 -0.000633 0.000000 0.000000 0.000000
# 3 -0.002594 -0.000633 0.009804 0.000000 0.000000 0.000000
# 4 0.000000 0.000000 0.000000 0.058467 0.000000 0.000000
# 5 0.000000 0.000000 0.000000 0.000000 0.022006 0.000000
# 6 0.000000 0.000000 0.000000 0.000000 0.000000 0.029384
#
#
# Mechanical properties :
#
#
# Convention : Reuss Voigt Hill
#
# Bulk Modulus (GPa) = 44.67940 46.11721 45.39830
# Shear Modulus (GPa) = 30.95410 35.98620 33.47015
#
# Velocity S-wave (km/s) = 3.87404 4.17708 4.02841
# Velocity P-wave (km/s) = 6.45552 6.75455 6.60673
#
# Compressibility (1/GPa) = 0.02238168
#
# Stress axis : x y z
#
# Youngs Moduli (GPa) = 67.07528 116.50125 101.99465
#
# Poissons Ratio (x) = 0.25988 0.26453
# Poissons Ratio (y) = 0.14963 0.06458
# Poissons Ratio (z) = 0.17397 0.07377
#
# Static dielectric constant tensor:
#      x y z
#    x 1.791190 0.000000 0.000000 
#    y 0.000000 1.711950 0.000000 
#    z 0.000000 0.000000 1.735470 
# 
# From -- ./inp_files/33239.got.cif
#   From: 2010.05.17/outbox.cif.g08.bks.cpg/sg66_17_cif.got.tgz:33239.got - 2010.06.03 17:51:23.
