data_PCOD9498234
_publ_section_title
;
Structure prediction by ZEFSAII (Michael W. Deem and Ramdas Pophale) SiO2 
 PCOD9498234
Probable space group: C C C M
;
_chemical_formula_sum "Si O2"
_cell_formula_units_Z 96
_cell_length_a 28.727688
_cell_length_b 9.262755
_cell_length_c 19.061373
_cell_angle_alpha 90.000000
_cell_angle_beta 90.000000
_cell_angle_gamma 90.000000
_cell_volume 5072.184382
_symmetry_space_group_name_H-M "C C C M"
_symmetry_group_IT_number 66
_symmetry_cell_setting 'orthorhombic'
loop_
_space_group_symop_operation_xyz
x,y,z
-x,-y,z
x,-y,1/2-z
-x,y,1/2-z
-x,-y,-z
x,y,-z
-x,y,1/2+z
x,-y,1/2+z
1/2+x,1/2+y,z
1/2-x,1/2-y,z
1/2+x,1/2-y,1/2-z
1/2-x,1/2+y,1/2-z
1/2-x,1/2-y,-z
1/2+x,1/2+y,-z
1/2-x,1/2+y,1/2+z
1/2+x,1/2-y,1/2+z
loop_
_atom_site_type_symbol
_atom_site_label
_atom_site_fract_x
_atom_site_fract_y
_atom_site_fract_z
Si Si1 0.703162 0.656296 0.656249
Si Si2 0.384739 0.802680 0.084316
Si Si3 0.130032 0.422782 0.181087
Si Si4 0.799222 0.821749 0.824819
Si Si5 0.483017 0.656685 0.916319
Si Si6 0.973090 0.652265 0.812987
O O1 0.750000 0.750000 0.640571
O O2 0.660478 0.719700 0.612458
O O3 0.695362 0.670604 0.740098
O O4 0.703389 0.483444 0.644872
O O5 0.431796 0.715138 0.104757
O O6 0.381881 0.956975 0.123130
O O7 0.384276 0.817470 0.000000
O O8 0.152768 0.500000 0.250000
O O9 0.160905 0.291151 0.152916
O O10 0.080317 0.363836 0.206408
O O11 0.750000 0.750000 0.840175
O O12 0.500000 0.500000 0.891499
O O13 0.520167 0.767137 0.885287
O O14 0.483346 0.655826 0.000000
O O15 0.000000 0.500000 0.820083
O O16 0.000000 0.731758 0.750000
#
# Coordination Sequence:
#
# PCOD9498234 Si02
#       6
#    16  16  16  16  16  16
#     4  10  21  39  62  90 121 155 200 252 309 368
#     4  11  23  39  60  88 123 166 203 245 313 364
#     4  12  21  38  62  88 124 156 200 256 300 362
#     4  10  22  37  64  93 115 155 206 252 304 366
#     4  10  23  41  59  81 119 164 204 243 290 361
#     4  11  21  37  57  90 120 153 196 247 307 352
#
# _framework density 18.926756999999998
#
# number of rings (size 3 to 8) (size 9 to 14) (size 15 to 20)
#    0.000    1.333    5.000    1.000    4.667    1.667 
#    0.000    0.833    0.000    2.000    0.000    0.000 
#    0.000    0.000    0.000    0.000    0.000    0.000 
#
# Total GULP energy -267694.842490 kJ/mol
# GULP energy per Si atom -5576.975885 kJ/mol
# Density = 1.888368 g / cm^3
# Si number density = 18.926757 Si / 1000 Ang^3
#
#
#
# Elastic Constant Matrix: (Units=GPa)
#
#
# Indices 1 2 3 4 5 6 
#
# 1 95.0072 58.1674 25.7200 0.0000 0.0000 0.0000
# 2 58.1674 133.9184 30.8407 0.0000 0.0000 0.0000
# 3 25.7200 30.8407 33.3008 0.0000 0.0000 0.0000
# 4 0.0000 0.0000 0.0000 30.8632 0.0000 0.0000
# 5 0.0000 0.0000 0.0000 0.0000 20.1757 0.0000
# 6 0.0000 0.0000 0.0000 0.0000 0.0000 31.5142
#
#
#
# Elastic Compliance Matrix: (Units=1/GPa)
#
#
# Indices 1 2 3 4 5 6 
#
# 1 0.015639 -0.005098 -0.007357 0.000000 0.000000 0.000000
# 2 -0.005098 0.011154 -0.006392 0.000000 0.000000 0.000000
# 3 -0.007357 -0.006392 0.041631 0.000000 0.000000 0.000000
# 4 0.000000 0.000000 0.000000 0.032401 0.000000 0.000000
# 5 0.000000 0.000000 0.000000 0.000000 0.049565 0.000000
# 6 0.000000 0.000000 0.000000 0.000000 0.000000 0.031732
#
#
# Mechanical properties :
#
#
# Convention : Reuss Voigt Hill
#
# Bulk Modulus (GPa) = 32.54238 54.63140 43.58689
# Shear Modulus (GPa) = 21.73361 26.34384 24.03872
#
# Velocity S-wave (km/s) = 3.39234 3.73484 3.56770
# Velocity P-wave (km/s) = 5.70746 6.89391 6.32855
#
# Compressibility (1/GPa) = 0.03072916
#
# Stress axis : x y z
#
# Youngs Moduli (GPa) = 63.94448 89.65580 24.02042
#
# Poissons Ratio (x) = 0.45710 0.17671
# Poissons Ratio (y) = 0.32601 0.15354
# Poissons Ratio (z) = 0.47043 0.57308
#
# Static dielectric constant tensor:
#      x y z
#    x 1.659570 0.000000 0.000000 
#    y 0.000000 1.702370 0.000000 
#    z 0.000000 0.000000 1.664510 
# 
# From -- ./inp_files/52991.got.cif
#   From: 2010.05.17/outbox.cif.g08.bks.cpg/sg66_27_cif.got.tgz:52991.got - 2010.06.03 17:51:23.
