data_PCOD9498707
_publ_section_title
;
Structure prediction by ZEFSAII (Michael W. Deem and Ramdas Pophale) SiO2 
 PCOD9498707
Probable space group: C C C M
;
_chemical_formula_sum "Si O2"
_cell_formula_units_Z 104
_cell_length_a 21.102960
_cell_length_b 17.937558
_cell_length_c 14.477458
_cell_angle_alpha 90.000000
_cell_angle_beta 90.000000
_cell_angle_gamma 90.000000
_cell_volume 5480.232801
_symmetry_space_group_name_H-M "C C C M"
_symmetry_group_IT_number 66
_symmetry_cell_setting 'orthorhombic'
loop_
_space_group_symop_operation_xyz
x,y,z
-x,-y,z
x,-y,1/2-z
-x,y,1/2-z
-x,-y,-z
x,y,-z
-x,y,1/2+z
x,-y,1/2+z
1/2+x,1/2+y,z
1/2-x,1/2-y,z
1/2+x,1/2-y,1/2-z
1/2-x,1/2+y,1/2-z
1/2-x,1/2-y,-z
1/2+x,1/2+y,-z
1/2-x,1/2+y,1/2+z
1/2+x,1/2-y,1/2+z
loop_
_atom_site_type_symbol
_atom_site_label
_atom_site_fract_x
_atom_site_fract_y
_atom_site_fract_z
Si Si1 0.837499 0.285031 0.794396
Si Si2 0.559602 0.053934 0.000000
Si Si3 0.281101 0.623657 0.234389
Si Si4 0.276830 0.519626 0.394975
Si Si5 0.048466 0.674198 0.327498
Si Si6 0.171491 0.728040 0.000000
Si Si7 0.972695 0.725702 0.500000
Si Si8 0.868131 0.469355 0.353728
O O1 0.789284 0.343252 0.747279
O O2 0.815137 0.199280 0.795945
O O3 0.901229 0.283861 0.736995
O O4 0.835454 0.309863 0.900908
O O5 0.500000 0.000000 0.000000
O O6 0.598740 0.034124 0.910364
O O7 0.542919 0.138689 0.000000
O O8 0.305646 0.582131 0.326340
O O9 0.282570 0.560837 0.154987
O O10 0.300131 0.519110 0.500000
O O11 0.202188 0.538435 0.393319
O O12 0.088088 0.603835 0.366572
O O13 0.000000 0.643914 0.250000
O O14 0.015397 0.726681 0.405458
O O15 0.250000 0.750000 0.000000
O O16 0.097315 0.766756 0.000000
O O17 0.863575 0.500000 0.250000
#
# Coordination Sequence:
#
# PCOD9498707 Si02
#       8
#    16   8  16  16  16   8   8  16
#     4  11  23  39  62  88 121 164 210 267 314 369
#     4  12  24  34  48  77 113 165 220 234 282 357
#     4  10  22  40  57  89 120 161 211 263 316 362
#     4  11  22  37  59  84 121 160 206 259 313 370
#     4  12  23  39  55  81 125 164 213 253 306 373
#     4  12  24  38  64  90 114 154 213 266 326 356
#     4  12  26  38  58  84 124 173 209 264 311 375
#     4  12  22  33  51  78 116 165 208 253 289 342
#
# _framework density 18.977297
#
# number of rings (size 3 to 8) (size 9 to 14) (size 15 to 20)
#    0.000    0.615    8.462    0.923    4.308    0.000 
#    1.385    0.769    0.000    0.000    0.000    2.154 
#    0.000    6.154    0.000    0.000    0.000    0.000 
#
# Total GULP energy -289469.652685 kJ/mol
# GULP energy per Si atom -5566.724090 kJ/mol
# Density = 1.893410 g / cm^3
# Si number density = 18.977297 Si / 1000 Ang^3
#
#
#
# Elastic Constant Matrix: (Units=GPa)
#
#
# Indices 1 2 3 4 5 6 
#
# 1 64.8480 9.8428 20.6667 0.0000 0.0000 0.0000
# 2 9.8428 86.7652 28.0296 0.0000 0.0000 0.0000
# 3 20.6667 28.0296 132.6476 0.0000 0.0000 0.0000
# 4 0.0000 0.0000 0.0000 14.6264 0.0000 0.0000
# 5 0.0000 0.0000 0.0000 0.0000 24.7153 0.0000
# 6 0.0000 0.0000 0.0000 0.0000 0.0000 25.9387
#
#
#
# Elastic Compliance Matrix: (Units=1/GPa)
#
#
# Indices 1 2 3 4 5 6 
#
# 1 0.016325 -0.001106 -0.002310 0.000000 0.000000 0.000000
# 2 -0.001106 0.012445 -0.002457 0.000000 0.000000 0.000000
# 3 -0.002310 -0.002457 0.008418 0.000000 0.000000 0.000000
# 4 0.000000 0.000000 0.000000 0.068369 0.000000 0.000000
# 5 0.000000 0.000000 0.000000 0.000000 0.040461 0.000000
# 6 0.000000 0.000000 0.000000 0.000000 0.000000 0.038552
#
#
# Mechanical properties :
#
#
# Convention : Reuss Voigt Hill
#
# Bulk Modulus (GPa) = 39.30596 44.59323 41.94959
# Shear Modulus (GPa) = 24.41454 28.10419 26.25937
#
# Velocity S-wave (km/s) = 3.59069 3.85247 3.72388
# Velocity P-wave (km/s) = 6.16018 6.58315 6.37518
#
# Compressibility (1/GPa) = 0.02544143
#
# Stress axis : x y z
#
# Youngs Moduli (GPa) = 61.25723 80.35574 118.79437
#
# Poissons Ratio (x) = 0.08885 0.27439
# Poissons Ratio (y) = 0.06773 0.29192
# Poissons Ratio (z) = 0.14149 0.19747
#
# Static dielectric constant tensor:
#      x y z
#    x 1.753770 0.000000 0.000000 
#    y 0.000000 1.660910 0.000000 
#    z 0.000000 0.000000 1.636900 
# 
# From -- ./inp_files/31408.got.cif
#   From: 2010.05.17/outbox.cif.g08.bks.cpg/sg66_16_cif.got.tgz:31408.got - 2010.06.03 17:51:23.
