data_PCOD9498459
_publ_section_title
;
Structure prediction by ZEFSAII (Michael W. Deem and Ramdas Pophale) SiO2 
 PCOD9498459
Probable space group: C C C M
;
_chemical_formula_sum "Si O2"
_cell_formula_units_Z 88
_cell_length_a 13.681809
_cell_length_b 14.671848
_cell_length_c 24.338583
_cell_angle_alpha 90.000000
_cell_angle_beta 90.000000
_cell_angle_gamma 90.000000
_cell_volume 4885.664407
_symmetry_space_group_name_H-M "C C C M"
_symmetry_group_IT_number 66
_symmetry_cell_setting 'orthorhombic'
loop_
_space_group_symop_operation_xyz
x,y,z
-x,-y,z
x,-y,1/2-z
-x,y,1/2-z
-x,-y,-z
x,y,-z
-x,y,1/2+z
x,-y,1/2+z
1/2+x,1/2+y,z
1/2-x,1/2-y,z
1/2+x,1/2-y,1/2-z
1/2-x,1/2+y,1/2-z
1/2-x,1/2-y,-z
1/2+x,1/2+y,-z
1/2-x,1/2+y,1/2+z
1/2+x,1/2-y,1/2+z
loop_
_atom_site_type_symbol
_atom_site_label
_atom_site_fract_x
_atom_site_fract_y
_atom_site_fract_z
Si Si1 0.235749 0.645012 0.936069
Si Si2 0.459158 0.400532 0.563812
Si Si3 0.581770 0.926089 0.350341
Si Si4 0.288101 0.000000 0.250000
Si Si5 0.993020 0.222373 0.165169
Si Si6 0.164544 0.822713 0.747096
O O1 0.250000 0.750000 0.917413
O O2 0.341688 0.599199 0.932459
O O3 0.157010 0.595072 0.899092
O O4 0.205341 0.648081 0.000000
O O5 0.500000 0.500000 0.578418
O O6 0.484519 0.381134 0.500000
O O7 0.496320 0.323593 0.605514
O O8 0.643079 0.964407 0.298896
O O9 0.532372 0.829178 0.336072
O O10 0.500000 0.000000 0.364958
O O11 0.217607 0.083027 0.233907
O O12 0.905701 0.173809 0.199615
O O13 0.093047 0.207515 0.198141
O O14 0.250000 0.750000 0.757145
#
# Coordination Sequence:
#
# PCOD9498459 Si02
#       6
#    16  16  16   8  16  16
#     4  10  21  41  68  94 121 164 214 261 316 378
#     4  10  22  40  66  95 126 161 208 268 322 375
#     4  12  25  40  63  93 130 170 207 262 318 383
#     4  12  25  39  64  88 126 168 215 259 318 370
#     4  11  24  40  64  90 126 165 212 256 322 376
#     4  11  24  41  60  88 125 166 209 260 308 378
#
# _framework density 18.011879
#
# number of rings (size 3 to 8) (size 9 to 14) (size 15 to 20)
#    0.000    1.091    3.636    2.455    7.636    1.091 
#    0.000    0.000    0.000    0.545    0.000    0.000 
#    0.000    0.000    0.000    0.000    0.000    0.000 
#
# Total GULP energy -245957.263819 kJ/mol
# GULP energy per Si atom -5589.937814 kJ/mol
# Density = 1.797088 g / cm^3
# Si number density = 18.011879 Si / 1000 Ang^3
#
#
#
# Elastic Constant Matrix: (Units=GPa)
#
#
# Indices 1 2 3 4 5 6 
#
# 1 88.4897 49.2383 33.8929 0.0000 0.0000 0.0000
# 2 49.2383 130.0863 43.3775 0.0000 0.0000 0.0000
# 3 33.8929 43.3775 87.7248 0.0000 0.0000 0.0000
# 4 0.0000 0.0000 0.0000 30.6139 0.0000 0.0000
# 5 0.0000 0.0000 0.0000 0.0000 23.9077 0.0000
# 6 0.0000 0.0000 0.0000 0.0000 0.0000 48.8677
#
#
#
# Elastic Compliance Matrix: (Units=1/GPa)
#
#
# Indices 1 2 3 4 5 6 
#
# 1 0.015224 -0.004552 -0.003631 0.000000 0.000000 0.000000
# 2 -0.004552 0.010566 -0.003466 0.000000 0.000000 0.000000
# 3 -0.003631 -0.003466 0.014516 0.000000 0.000000 0.000000
# 4 0.000000 0.000000 0.000000 0.032665 0.000000 0.000000
# 5 0.000000 0.000000 0.000000 0.000000 0.041828 0.000000
# 6 0.000000 0.000000 0.000000 0.000000 0.000000 0.020463
#
#
# Mechanical properties :
#
#
# Convention : Reuss Voigt Hill
#
# Bulk Modulus (GPa) = 58.79464 62.14647 60.47056
# Shear Modulus (GPa) = 30.44528 32.66400 31.55464
#
# Velocity S-wave (km/s) = 4.11577 4.26311 4.19009
# Velocity P-wave (km/s) = 7.43634 7.66877 7.55345
#
# Compressibility (1/GPa) = 0.01700835
#
# Stress axis : x y z
#
# Youngs Moduli (GPa) = 65.68474 94.64577 68.88906
#
# Poissons Ratio (x) = 0.43079 0.25016
# Poissons Ratio (y) = 0.29897 0.23877
# Poissons Ratio (z) = 0.23852 0.32804
#
# Static dielectric constant tensor:
#      x y z
#    x 1.596920 0.000000 0.000000 
#    y 0.000000 1.620360 0.000000 
#    z 0.000000 0.000000 1.627850 
# 
# From -- ./inp_files/56721.got.cif
#   From: 2010.05.17/outbox.cif.g08.bks.cpg/sg66_29_cif.got.tgz:56721.got - 2010.06.03 17:51:23.
