data_PCOD9498684
_publ_section_title
;
Structure prediction by ZEFSAII (Michael W. Deem and Ramdas Pophale) SiO2 
 PCOD9498684
Probable space group: C C C M
;
_chemical_formula_sum "Si O2"
_cell_formula_units_Z 64
_cell_length_a 13.433658
_cell_length_b 5.477388
_cell_length_c 36.568855
_cell_angle_alpha 90.000000
_cell_angle_beta 90.000000
_cell_angle_gamma 90.000000
_cell_volume 2690.785979
_symmetry_space_group_name_H-M "C C C M"
_symmetry_group_IT_number 66
_symmetry_cell_setting 'orthorhombic'
loop_
_space_group_symop_operation_xyz
x,y,z
-x,-y,z
x,-y,1/2-z
-x,y,1/2-z
-x,-y,-z
x,y,-z
-x,y,1/2+z
x,-y,1/2+z
1/2+x,1/2+y,z
1/2-x,1/2-y,z
1/2+x,1/2-y,1/2-z
1/2-x,1/2+y,1/2-z
1/2-x,1/2-y,-z
1/2+x,1/2+y,-z
1/2-x,1/2+y,1/2+z
1/2+x,1/2-y,1/2+z
loop_
_atom_site_type_symbol
_atom_site_label
_atom_site_fract_x
_atom_site_fract_y
_atom_site_fract_z
Si Si1 0.860250 0.370784 0.150614
Si Si2 0.565368 0.247390 0.000000
Si Si3 0.893028 0.875806 0.577542
Si Si4 0.250000 0.250000 0.116563
Si Si5 0.870688 0.749606 0.729114
O O1 0.750000 0.250000 0.150795
O O2 0.906748 0.299246 0.112220
O O3 0.834453 0.653457 0.144673
O O4 0.910100 0.281273 0.187657
O O5 0.500000 0.500000 0.000000
O O6 0.625146 0.254215 0.038191
O O7 0.500000 0.000000 0.000000
O O8 0.804916 0.057466 0.590147
O O9 0.000000 0.000000 0.574225
O O10 0.895559 0.500000 0.750000
O O11 0.750000 0.750000 0.726758
O O12 0.896468 0.000000 0.750000
#
# Coordination Sequence:
#
# PCOD9498684 Si02
#       5
#    16   8  16   8  16
#     4   9  20  35  58  92 128 166 214 266 315 391
#     4  10  24  43  67  97 130 167 223 277 327 406
#     4  10  23  41  67  93 127 172 216 272 334 394
#     4  10  22  39  64  98 132 166 224 270 326 403
#     4   9  18  29  52  85 123 164 207 259 314 372
#
# _framework density 23.784872
#
# number of rings (size 3 to 8) (size 9 to 14) (size 15 to 20)
#    0.000    2.500    0.000    0.000   19.250    0.500 
#    0.000    5.625    0.000    0.750    0.000    0.000 
#    0.000    0.000    0.000    0.000    0.000    0.000 
#
# Total GULP energy -178481.955998 kJ/mol
# GULP energy per Si atom -5577.561125 kJ/mol
# Density = 2.373074 g / cm^3
# Si number density = 23.784872 Si / 1000 Ang^3
#
#
#
# Elastic Constant Matrix: (Units=GPa)
#
#
# Indices 1 2 3 4 5 6 
#
# 1 72.1185 13.5023 24.1912 0.0000 0.0000 0.0000
# 2 13.5023 136.6173 93.2208 0.0000 0.0000 0.0000
# 3 24.1912 93.2208 266.5502 0.0000 0.0000 0.0000
# 4 0.0000 0.0000 0.0000 -39.1304 0.0000 0.0000
# 5 0.0000 0.0000 0.0000 0.0000 50.3749 0.0000
# 6 0.0000 0.0000 0.0000 0.0000 0.0000 -2.5415
#
#
#
# Elastic Compliance Matrix: (Units=1/GPa)
#
#
# Indices 1 2 3 4 5 6 
#
# 1 0.014352 -0.000696 -0.001059 0.000000 0.000000 0.000000
# 2 -0.000696 0.009648 -0.003311 0.000000 0.000000 0.000000
# 3 -0.001059 -0.003311 0.005006 0.000000 0.000000 0.000000
# 4 0.000000 0.000000 0.000000 -0.025556 0.000000 0.000000
# 5 0.000000 0.000000 0.000000 0.000000 0.019851 0.000000
# 6 0.000000 0.000000 0.000000 0.000000 0.000000 -0.393468
#
#
# Mechanical properties :
#
#
# Convention : Reuss Voigt Hill
#
# Bulk Modulus (GPa) = 52.98476 81.90164 67.44320
# Shear Modulus (GPa) = -14.13448 24.69871 5.28212
#
# Velocity S-wave (km/s) = -2.44040 3.22595 1.49185
# Velocity P-wave (km/s) = 3.79267 6.95592 5.60219
#
# Compressibility (1/GPa) = 0.01887335
#
# Stress axis : x y z
#
# Youngs Moduli (GPa) = 69.67859 103.65164 199.77177
#
# Poissons Ratio (x) = 0.07211 0.21160
# Poissons Ratio (y) = 0.04847 0.66144
# Poissons Ratio (z) = 0.07380 0.34319
#
# Static dielectric constant tensor:
#      x y z
#    x 1.976120 0.000000 0.000000 
#    y 0.000000 2.143600 0.000000 
#    z 0.000000 0.000000 1.930570 
# 
# From -- ./inp_files/69785.got.cif
#   From: 2010.05.17/outbox.cif.g08.bks.cpg/sg66_35_cif.got.tgz:69785.got - 2010.06.03 17:51:23.
