data_PCOD9498970
_publ_section_title
;
Structure prediction by ZEFSAII (Michael W. Deem and Ramdas Pophale) SiO2 
 PCOD9498970
Probable space group: C C C M
;
_chemical_formula_sum "Si O2"
_cell_formula_units_Z 60
_cell_length_a 7.333923
_cell_length_b 19.472661
_cell_length_c 17.659390
_cell_angle_alpha 90.000000
_cell_angle_beta 90.000000
_cell_angle_gamma 90.000000
_cell_volume 2521.955081
_symmetry_space_group_name_H-M "C C C M"
_symmetry_group_IT_number 66
_symmetry_cell_setting 'orthorhombic'
loop_
_space_group_symop_operation_xyz
x,y,z
-x,-y,z
x,-y,1/2-z
-x,y,1/2-z
-x,-y,-z
x,y,-z
-x,y,1/2+z
x,-y,1/2+z
1/2+x,1/2+y,z
1/2-x,1/2-y,z
1/2+x,1/2-y,1/2-z
1/2-x,1/2+y,1/2-z
1/2-x,1/2-y,-z
1/2+x,1/2+y,-z
1/2-x,1/2+y,1/2+z
1/2+x,1/2-y,1/2+z
loop_
_atom_site_type_symbol
_atom_site_label
_atom_site_fract_x
_atom_site_fract_y
_atom_site_fract_z
Si Si1 0.786275 0.400291 0.742483
Si Si2 0.604700 0.928030 0.084831
Si Si3 0.548010 0.779160 0.584614
Si Si4 0.750000 0.750000 0.207302
Si Si5 0.500000 0.500000 0.250000
O O1 0.754592 0.415214 0.652817
O O2 0.758464 0.319929 0.754040
O O3 0.645093 0.447156 0.787273
O O4 0.000000 0.417616 0.750000
O O5 0.468593 0.862258 0.090308
O O6 0.500000 0.000000 0.094130
O O7 0.683728 0.926968 0.000000
O O8 0.476996 0.761505 0.500000
O O9 0.750000 0.750000 0.588507
O O10 0.422398 0.750192 0.651151
#
# Coordination Sequence:
#
# PCOD9498970 Si02
#       5
#    16  16  16   8   4
#     4  11  25  43  64  94 130 169 215 274 324 389
#     4   9  18  36  61  88 122 164 206 259 318 375
#     4   9  18  34  58  89 125 165 208 259 320 383
#     4  10  23  38  60  90 125 166 212 270 320 386
#     4  12  26  44  70  90 124 174 218 262 340 398
#
# _framework density 23.791067000000002
#
# number of rings (size 3 to 8) (size 9 to 14) (size 15 to 20)
#    0.000    2.133    0.000    2.400    1.867    7.467 
#    2.400    0.667    0.000    1.600    0.000    0.000 
#    0.000    0.000    0.000    0.000    0.000    0.000 
#
# Total GULP energy -167675.741205 kJ/mol
# GULP energy per Si atom -5589.191373 kJ/mol
# Density = 2.373692 g / cm^3
# Si number density = 23.791067 Si / 1000 Ang^3
#
#
#
# Elastic Constant Matrix: (Units=GPa)
#
#
# Indices 1 2 3 4 5 6 
#
# 1 143.4392 64.8936 11.3722 0.0000 0.0000 0.0000
# 2 64.8936 144.8863 26.2438 0.0000 0.0000 0.0000
# 3 11.3722 26.2438 93.4120 0.0000 0.0000 0.0000
# 4 0.0000 0.0000 0.0000 28.3625 0.0000 0.0000
# 5 0.0000 0.0000 0.0000 0.0000 27.9568 0.0000
# 6 0.0000 0.0000 0.0000 0.0000 0.0000 35.6259
#
#
#
# Elastic Compliance Matrix: (Units=1/GPa)
#
#
# Indices 1 2 3 4 5 6 
#
# 1 0.008743 -0.003923 0.000038 0.000000 0.000000 0.000000
# 2 -0.003923 0.009032 -0.002060 0.000000 0.000000 0.000000
# 3 0.000038 -0.002060 0.011279 0.000000 0.000000 0.000000
# 4 0.000000 0.000000 0.000000 0.035258 0.000000 0.000000
# 5 0.000000 0.000000 0.000000 0.000000 0.035769 0.000000
# 6 0.000000 0.000000 0.000000 0.000000 0.000000 0.028069
#
#
# Mechanical properties :
#
#
# Convention : Reuss Voigt Hill
#
# Bulk Modulus (GPa) = 58.25964 65.19519 61.72741
# Shear Modulus (GPa) = 34.30211 37.00424 35.65318
#
# Velocity S-wave (km/s) = 3.80123 3.94811 3.87537
# Velocity P-wave (km/s) = 6.61869 6.94595 6.78429
#
# Compressibility (1/GPa) = 0.01716454
#
# Stress axis : x y z
#
# Youngs Moduli (GPa) = 114.37218 110.71563 88.65710
#
# Poissons Ratio (x) = 0.43433 -0.00334
# Poissons Ratio (y) = 0.44867 0.18263
# Poissons Ratio (z) = -0.00431 0.22807
#
# Static dielectric constant tensor:
#      x y z
#    x 1.883580 0.000000 0.000000 
#    y 0.000000 1.919230 0.000000 
#    z 0.000000 0.000000 2.011110 
# 
# From -- ./inp_files/53999.got.cif
#   From: 2010.05.17/outbox.cif.g08.bks.cpg/sg66_27_cif.got.tgz:53999.got - 2010.06.03 17:51:23.
