data_PCOD9498110
_publ_section_title
;
Structure prediction by ZEFSAII (Michael W. Deem and Ramdas Pophale) SiO2 
 PCOD9498110
Probable space group: C C C M
;
_chemical_formula_sum "Si O2"
_cell_formula_units_Z 112
_cell_length_a 16.932897
_cell_length_b 14.049023
_cell_length_c 22.993591
_cell_angle_alpha 90.000000
_cell_angle_beta 90.000000
_cell_angle_gamma 90.000000
_cell_volume 5469.960525
_symmetry_space_group_name_H-M "C C C M"
_symmetry_group_IT_number 66
_symmetry_cell_setting 'orthorhombic'
loop_
_space_group_symop_operation_xyz
x,y,z
-x,-y,z
x,-y,1/2-z
-x,y,1/2-z
-x,-y,-z
x,y,-z
-x,y,1/2+z
x,-y,1/2+z
1/2+x,1/2+y,z
1/2-x,1/2-y,z
1/2+x,1/2-y,1/2-z
1/2-x,1/2+y,1/2-z
1/2-x,1/2-y,-z
1/2+x,1/2+y,-z
1/2-x,1/2+y,1/2+z
1/2+x,1/2-y,1/2+z
loop_
_atom_site_type_symbol
_atom_site_label
_atom_site_fract_x
_atom_site_fract_y
_atom_site_fract_z
Si Si1 0.158306 0.749914 0.663579
Si Si2 0.187924 0.337284 0.352590
Si Si3 0.909641 0.128981 0.569603
Si Si4 0.589212 0.887652 0.758858
Si Si5 0.906571 0.894601 0.260120
Si Si6 0.421621 0.274789 0.435002
Si Si7 0.661434 0.568399 0.617456
O O1 0.250000 0.750000 0.673326
O O2 0.141390 0.788799 0.599628
O O3 0.119305 0.649269 0.679200
O O4 0.124305 0.822130 0.712252
O O5 0.250000 0.250000 0.351824
O O6 0.149228 0.350067 0.289807
O O7 0.115966 0.308238 0.395382
O O8 0.244732 0.426701 0.369495
O O9 0.902147 0.117580 0.500000
O O10 0.998560 0.167203 0.582302
O O11 0.880576 0.031438 0.601305
O O12 0.500000 0.850596 0.750000
O O13 0.587611 0.000000 0.750000
O O14 0.881914 0.881639 0.326917
O O15 0.000000 0.897326 0.250000
O O16 0.872522 0.000000 0.250000
O O17 0.435263 0.238594 0.500000
O O18 0.356242 0.358225 0.434113
#
# Coordination Sequence:
#
# PCOD9498110 Si02
#       7
#    16  16  16  16  16  16  16
#     4  12  24  39  63  88 123 168 200 256 314 379
#     4  10  22  40  62  92 127 165 205 262 323 387
#     4  11  24  40  60  89 125 169 215 261 315 384
#     4  11  24  41  64  89 120 159 209 262 310 372
#     4  11  22  37  62  94 128 163 201 246 315 394
#     4  10  21  38  61  87 124 167 213 258 313 381
#     4  11  21  35  61  94 130 163 202 264 320 386
#
# _framework density 20.475467999999999
#
# number of rings (size 3 to 8) (size 9 to 14) (size 15 to 20)
#    0.000    1.143    1.429    6.000    4.000    5.714 
#    0.000    0.000    0.000    0.000    0.000    4.000 
#    0.000    0.000    0.000    0.000    0.000    0.000 
#
# Total GULP energy -312343.251971 kJ/mol
# GULP energy per Si atom -5577.558071 kJ/mol
# Density = 2.042886 g / cm^3
# Si number density = 20.475468 Si / 1000 Ang^3
#
#
#
# Elastic Constant Matrix: (Units=GPa)
#
#
# Indices 1 2 3 4 5 6 
#
# 1 117.6909 28.9786 29.5374 0.0000 0.0000 0.0000
# 2 28.9786 52.3033 18.5575 0.0000 0.0000 0.0000
# 3 29.5374 18.5575 74.0945 0.0000 0.0000 0.0000
# 4 0.0000 0.0000 0.0000 12.1418 0.0000 0.0000
# 5 0.0000 0.0000 0.0000 0.0000 23.5900 0.0000
# 6 0.0000 0.0000 0.0000 0.0000 0.0000 179.5088
#
#
#
# Elastic Compliance Matrix: (Units=1/GPa)
#
#
# Indices 1 2 3 4 5 6 
#
# 1 0.010401 -0.004710 -0.002967 0.000000 0.000000 0.000000
# 2 -0.004710 0.023117 -0.003912 0.000000 0.000000 0.000000
# 3 -0.002967 -0.003912 0.015659 0.000000 0.000000 0.000000
# 4 0.000000 0.000000 0.000000 0.082360 0.000000 0.000000
# 5 0.000000 0.000000 0.000000 0.000000 0.042391 0.000000
# 6 0.000000 0.000000 0.000000 0.000000 0.000000 0.005571
#
#
# Mechanical properties :
#
#
# Convention : Reuss Voigt Hill
#
# Bulk Modulus (GPa) = 38.46309 44.24839 41.35574
# Shear Modulus (GPa) = 23.65826 54.18246 38.92036
#
# Velocity S-wave (km/s) = 3.40287 5.14972 4.36458
# Velocity P-wave (km/s) = 5.85364 7.55095 6.75581
#
# Compressibility (1/GPa) = 0.02599895
#
# Stress axis : x y z
#
# Youngs Moduli (GPa) = 96.14314 43.25829 63.86205
#
# Poissons Ratio (x) = 0.20375 0.18946
# Poissons Ratio (y) = 0.45285 0.24984
# Poissons Ratio (z) = 0.28523 0.16923
#
# Static dielectric constant tensor:
#      x y z
#    x 1.774650 0.000000 0.000000 
#    y 0.000000 1.807560 0.000000 
#    z 0.000000 0.000000 1.777780 
# 
# From -- ./inp_files/58218.got.cif
#   From: 2010.05.17/outbox.cif.g08.bks.cpg/sg66_30_cif.got.tgz:58218.got - 2010.06.03 17:51:23.
