data_PCOD9498140
_publ_section_title
;
Structure prediction by ZEFSAII (Michael W. Deem and Ramdas Pophale) SiO2 
 PCOD9498140
Probable space group: C C C M
;
_chemical_formula_sum "Si O2"
_cell_formula_units_Z 80
_cell_length_a 19.451854
_cell_length_b 10.140257
_cell_length_c 21.861695
_cell_angle_alpha 90.000000
_cell_angle_beta 90.000000
_cell_angle_gamma 90.000000
_cell_volume 4312.149353
_symmetry_space_group_name_H-M "C C C M"
_symmetry_group_IT_number 66
_symmetry_cell_setting 'orthorhombic'
loop_
_space_group_symop_operation_xyz
x,y,z
-x,-y,z
x,-y,1/2-z
-x,y,1/2-z
-x,-y,-z
x,y,-z
-x,y,1/2+z
x,-y,1/2+z
1/2+x,1/2+y,z
1/2-x,1/2-y,z
1/2+x,1/2-y,1/2-z
1/2-x,1/2+y,1/2-z
1/2-x,1/2-y,-z
1/2+x,1/2+y,-z
1/2-x,1/2+y,1/2+z
1/2+x,1/2-y,1/2+z
loop_
_atom_site_type_symbol
_atom_site_label
_atom_site_fract_x
_atom_site_fract_y
_atom_site_fract_z
Si Si1 0.251624 0.103643 0.339949
Si Si2 0.545699 0.633686 0.071084
Si Si3 0.212061 0.119200 0.928709
Si Si4 0.362279 0.500000 0.750000
Si Si5 0.134942 0.500000 0.250000
Si Si6 0.556739 0.749447 0.197740
O O1 0.250000 0.250000 0.364140
O O2 0.245690 0.000129 0.393470
O O3 0.186132 0.077561 0.296865
O O4 0.317167 0.078178 0.297503
O O5 0.500000 0.500000 0.079456
O O6 0.628938 0.616107 0.076360
O O7 0.530041 0.731185 0.128070
O O8 0.533146 0.676820 0.000000
O O9 0.250000 0.250000 0.903627
O O10 0.228184 0.111599 0.000000
O O11 0.402708 0.386741 0.786726
O O12 0.095861 0.387293 0.210728
O O13 0.500000 0.750661 0.250000
#
# Coordination Sequence:
#
# PCOD9498140 Si02
#       6
#    16  16  16   8   8  16
#     4  11  22  36  59  85 123 157 198 256 312 369
#     4  10  21  38  63  95 125 162 216 269 317 381
#     4  10  21  38  62  90 122 164 211 259 316 385
#     4  11  21  36  56  90 109 153 206 246 302 363
#     4  11  25  40  56  92 127 159 200 262 318 385
#     4  12  23  39  63  89 125 162 206 260 319 379
#
# _framework density 18.552233000000001
#
# number of rings (size 3 to 8) (size 9 to 14) (size 15 to 20)
#    0.000    1.200    4.000    3.000    0.000    0.400 
#    0.000    0.000    0.000    3.600    0.000    0.000 
#    0.000    0.000    0.000    0.000    0.000    0.000 
#
# Total GULP energy -222974.004790 kJ/mol
# GULP energy per Si atom -5574.350120 kJ/mol
# Density = 1.851001 g / cm^3
# Si number density = 18.552233 Si / 1000 Ang^3
#
#
#
# Elastic Constant Matrix: (Units=GPa)
#
#
# Indices 1 2 3 4 5 6 
#
# 1 63.8370 36.9513 29.1697 0.0000 0.0000 0.0000
# 2 36.9513 135.0035 54.2703 0.0000 0.0000 0.0000
# 3 29.1697 54.2703 113.8946 0.0000 0.0000 0.0000
# 4 0.0000 0.0000 0.0000 -51.8659 0.0000 0.0000
# 5 0.0000 0.0000 0.0000 0.0000 22.4944 0.0000
# 6 0.0000 0.0000 0.0000 0.0000 0.0000 0.0204
#
#
#
# Elastic Compliance Matrix: (Units=1/GPa)
#
#
# Indices 1 2 3 4 5 6 
#
# 1 0.019418 -0.004101 -0.003019 0.000000 0.000000 0.000000
# 2 -0.004101 0.010028 -0.003728 0.000000 0.000000 0.000000
# 3 -0.003019 -0.003728 0.011330 0.000000 0.000000 0.000000
# 4 0.000000 0.000000 0.000000 -0.019280 0.000000 0.000000
# 5 0.000000 0.000000 0.000000 0.000000 0.044456 0.000000
# 6 0.000000 0.000000 0.000000 0.000000 0.000000 49.021613
#
#
# Mechanical properties :
#
#
# Convention : Reuss Voigt Hill
#
# Bulk Modulus (GPa) = 52.41189 61.50197 56.95693
# Shear Modulus (GPa) = 0.10180 6.95269 3.52725
#
# Velocity S-wave (km/s) = 0.23450 1.93798 1.38035
# Velocity P-wave (km/s) = 5.32782 6.18307 5.77131
#
# Compressibility (1/GPa) = 0.01907964
#
# Stress axis : x y z
#
# Youngs Moduli (GPa) = 51.49753 99.71628 88.26373
#
# Poissons Ratio (x) = 0.40897 0.26647
# Poissons Ratio (y) = 0.21121 0.32906
# Poissons Ratio (z) = 0.15547 0.37175
#
# Static dielectric constant tensor:
#      x y z
#    x 1.700330 0.000000 0.000000 
#    y 0.000000 9.306610 0.000000 
#    z 0.000000 0.000000 1.653380 
# 
# From -- ./inp_files/59330.got.cif
#   From: 2010.05.17/outbox.cif.g08.bks.cpg/sg66_30_cif.got.tgz:59330.got - 2010.06.03 17:51:23.
