data_PCOD9498275
_publ_section_title
;
Structure prediction by ZEFSAII (Michael W. Deem and Ramdas Pophale) SiO2 
 PCOD9498275
Probable space group: C C C M
;
_chemical_formula_sum "Si O2"
_cell_formula_units_Z 64
_cell_length_a 10.888249
_cell_length_b 14.425433
_cell_length_c 19.189176
_cell_angle_alpha 90.000000
_cell_angle_beta 90.000000
_cell_angle_gamma 90.000000
_cell_volume 3013.999863
_symmetry_space_group_name_H-M "C C C M"
_symmetry_group_IT_number 66
_symmetry_cell_setting 'orthorhombic'
loop_
_space_group_symop_operation_xyz
x,y,z
-x,-y,z
x,-y,1/2-z
-x,y,1/2-z
-x,-y,-z
x,y,-z
-x,y,1/2+z
x,-y,1/2+z
1/2+x,1/2+y,z
1/2-x,1/2-y,z
1/2+x,1/2-y,1/2-z
1/2-x,1/2+y,1/2-z
1/2-x,1/2-y,-z
1/2+x,1/2+y,-z
1/2-x,1/2+y,1/2+z
1/2+x,1/2-y,1/2+z
loop_
_atom_site_type_symbol
_atom_site_label
_atom_site_fract_x
_atom_site_fract_y
_atom_site_fract_z
Si Si1 0.641823 0.524882 0.000000
Si Si2 0.650837 0.327810 0.620597
Si Si3 0.959898 0.679049 0.359482
Si Si4 0.680886 0.892352 0.768022
Si Si5 0.180129 0.650320 0.000000
O O1 0.500000 0.500000 0.000000
O O2 0.662429 0.587913 0.932070
O O3 0.724019 0.433566 0.000000
O O4 0.750000 0.250000 0.597484
O O5 0.517807 0.280119 0.625277
O O6 0.694180 0.358538 0.697041
O O7 0.859319 0.667216 0.298886
O O8 0.903756 0.643878 0.431264
O O9 0.075164 0.622919 0.326695
O O10 0.685278 0.000000 0.750000
O O11 0.250000 0.750000 0.000000
#
# Coordination Sequence:
#
# PCOD9498275 Si02
#       5
#     8  16  16  16   8
#     4  12  25  44  66  97 132 171 217 270 332 401
#     4  10  22  42  66  94 134 176 212 269 331 390
#     4  10  21  39  64  94 125 169 220 271 324 391
#     4  10  21  40  65  95 131 173 224 274 327 392
#     4  12  26  42  67  95 130 171 220 278 337 401
#
# _framework density 21.234241999999998
#
# number of rings (size 3 to 8) (size 9 to 14) (size 15 to 20)
#    0.000    1.500    0.000    5.625    0.000   10.000 
#    0.000   20.000    0.000    1.500    0.000    0.000 
#    0.000    0.000    0.000    0.000    0.000    0.000 
#
# Total GULP energy -178915.457079 kJ/mol
# GULP energy per Si atom -5591.108034 kJ/mol
# Density = 2.118591 g / cm^3
# Si number density = 21.234242 Si / 1000 Ang^3
#
#
#
# Elastic Constant Matrix: (Units=GPa)
#
#
# Indices 1 2 3 4 5 6 
#
# 1 78.8390 50.6246 73.5100 0.0000 0.0000 0.0000
# 2 50.6246 146.5950 64.7316 0.0000 0.0000 0.0000
# 3 73.5100 64.7316 168.5844 0.0000 0.0000 0.0000
# 4 0.0000 0.0000 0.0000 33.9074 0.0000 0.0000
# 5 0.0000 0.0000 0.0000 0.0000 50.0432 0.0000
# 6 0.0000 0.0000 0.0000 0.0000 0.0000 39.7564
#
#
#
# Elastic Compliance Matrix: (Units=1/GPa)
#
#
# Indices 1 2 3 4 5 6 
#
# 1 0.023439 -0.004312 -0.008564 0.000000 0.000000 0.000000
# 2 -0.004312 0.009008 -0.001578 0.000000 0.000000 0.000000
# 3 -0.008564 -0.001578 0.010272 0.000000 0.000000 0.000000
# 4 0.000000 0.000000 0.000000 0.029492 0.000000 0.000000
# 5 0.000000 0.000000 0.000000 0.000000 0.019983 0.000000
# 6 0.000000 0.000000 0.000000 0.000000 0.000000 0.025153
#
#
# Mechanical properties :
#
#
# Convention : Reuss Voigt Hill
#
# Bulk Modulus (GPa) = 72.42022 85.75009 79.08515
# Shear Modulus (GPa) = 33.14333 38.41820 35.78076
#
# Velocity S-wave (km/s) = 3.95504 4.25815 4.10939
# Velocity P-wave (km/s) = 7.41862 8.04030 7.73570
#
# Compressibility (1/GPa) = 0.01380830
#
# Stress axis : x y z
#
# Youngs Moduli (GPa) = 42.66430 111.01633 97.34990
#
# Poissons Ratio (x) = 0.47876 0.83375
# Poissons Ratio (y) = 0.18399 0.15364
# Poissons Ratio (z) = 0.36540 0.17521
#
# Static dielectric constant tensor:
#      x y z
#    x 1.782680 0.000000 0.000000 
#    y 0.000000 1.789170 0.000000 
#    z 0.000000 0.000000 1.761530 
# 
# From -- ./inp_files/38050.got.cif
#   From: 2010.05.17/outbox.cif.g08.bks.cpg/sg66_20_cif.got.tgz:38050.got - 2010.06.03 17:51:23.
