data_PCOD9498046
_publ_section_title
;
Structure prediction by ZEFSAII (Michael W. Deem and Ramdas Pophale) SiO2 
 PCOD9498046
Probable space group: C C C M
;
_chemical_formula_sum "Si O2"
_cell_formula_units_Z 64
_cell_length_a 5.363736
_cell_length_b 35.786990
_cell_length_c 14.646822
_cell_angle_alpha 90.000000
_cell_angle_beta 90.000000
_cell_angle_gamma 90.000000
_cell_volume 2811.486287
_symmetry_space_group_name_H-M "C C C M"
_symmetry_group_IT_number 66
_symmetry_cell_setting 'orthorhombic'
loop_
_space_group_symop_operation_xyz
x,y,z
-x,-y,z
x,-y,1/2-z
-x,y,1/2-z
-x,-y,-z
x,y,-z
-x,y,1/2+z
x,-y,1/2+z
1/2+x,1/2+y,z
1/2-x,1/2-y,z
1/2+x,1/2-y,1/2-z
1/2-x,1/2+y,1/2-z
1/2-x,1/2-y,-z
1/2+x,1/2+y,-z
1/2-x,1/2+y,1/2+z
1/2+x,1/2-y,1/2+z
loop_
_atom_site_type_symbol
_atom_site_label
_atom_site_fract_x
_atom_site_fract_y
_atom_site_fract_z
Si Si1 0.256160 0.483789 0.147143
Si Si2 0.005886 0.268134 0.643014
Si Si3 0.623824 0.854568 0.610002
Si Si4 0.626278 0.398701 0.388885
O O1 0.500000 0.500000 0.100115
O O2 0.252657 0.500000 0.250000
O O3 0.310030 0.439809 0.148331
O O4 0.000000 0.500000 0.106411
O O5 0.250000 0.250000 0.600533
O O6 0.064776 0.312094 0.637692
O O7 0.000000 0.257994 0.750000
O O8 0.750000 0.250000 0.605516
O O9 0.643128 0.854362 0.500000
O O10 0.371918 0.875702 0.636000
O O11 0.873843 0.876823 0.641563
O O12 0.612885 0.401782 0.500000
#
# Coordination Sequence:
#
# PCOD9498046 Si02
#       4
#    16  16  16  16
#     4  10  21  38  56  81 115 147 189 246 282 348
#     4  10  21  38  58  84 120 155 194 236 285 341
#     4  10  21  38  59  88 117 150 195 239 286 345
#     4  10  21  38  59  83 117 152 190 240 294 344
#
# _framework density 22.763760999999999
#
# number of rings (size 3 to 8) (size 9 to 14) (size 15 to 20)
#    0.000    2.000    0.000    3.000    0.000    2.000 
#   13.500    0.000    0.000    0.000    0.000    0.000 
#    0.000    0.000    0.000    0.000    0.000    0.000 
#
# Total GULP energy -178480.814398 kJ/mol
# GULP energy per Si atom -5577.525450 kJ/mol
# Density = 2.271195 g / cm^3
# Si number density = 22.763761 Si / 1000 Ang^3
#
#
#
# Elastic Constant Matrix: (Units=GPa)
#
#
# Indices 1 2 3 4 5 6 
#
# 1 266.7326 80.5969 41.7050 0.0000 0.0000 0.0000
# 2 80.5969 120.7359 18.7937 0.0000 0.0000 0.0000
# 3 41.7050 18.7937 70.3720 0.0000 0.0000 0.0000
# 4 0.0000 0.0000 0.0000 38.3342 0.0000 0.0000
# 5 0.0000 0.0000 0.0000 0.0000 -14.2478 0.0000
# 6 0.0000 0.0000 0.0000 0.0000 0.0000 44.2559
#
#
#
# Elastic Compliance Matrix: (Units=1/GPa)
#
#
# Indices 1 2 3 4 5 6 
#
# 1 0.004992 -0.002996 -0.002158 0.000000 0.000000 0.000000
# 2 -0.002996 0.010440 -0.001012 0.000000 0.000000 0.000000
# 3 -0.002158 -0.001012 0.015760 0.000000 0.000000 0.000000
# 4 0.000000 0.000000 0.000000 0.026086 0.000000 0.000000
# 5 0.000000 0.000000 0.000000 0.000000 -0.070186 0.000000
# 6 0.000000 0.000000 0.000000 0.000000 0.000000 0.022596
#
#
# Mechanical properties :
#
#
# Convention : Reuss Voigt Hill
#
# Bulk Modulus (GPa) = 53.02834 82.22574 67.62704
# Shear Modulus (GPa) = 176.62849 34.78476 105.70663
#
# Velocity S-wave (km/s) = 8.81819 3.91330 6.82182
# Velocity P-wave (km/s) = 11.27059 7.52452 9.58239
#
# Compressibility (1/GPa) = 0.01885784
#
# Stress axis : x y z
#
# Youngs Moduli (GPa) = 200.32387 95.78195 63.45343
#
# Poissons Ratio (x) = 0.28700 0.13694
# Poissons Ratio (y) = 0.60025 0.06424
# Poissons Ratio (z) = 0.43233 0.09698
#
# Static dielectric constant tensor:
#      x y z
#    x 1.799870 0.000000 0.000000 
#    y 0.000000 2.278730 0.000000 
#    z 0.000000 0.000000 1.819590 
# 
# From -- ./inp_files/35030.got.cif
#   From: 2010.05.17/outbox.cif.g08.bks.cpg/sg66_18_cif.got.tgz:35030.got - 2010.06.03 17:51:23.
