data_PCOD9498655
_publ_section_title
;
Structure prediction by ZEFSAII (Michael W. Deem and Ramdas Pophale) SiO2 
 PCOD9498655
Probable space group: C C C M
;
_chemical_formula_sum "Si O2"
_cell_formula_units_Z 80
_cell_length_a 24.671012
_cell_length_b 7.684850
_cell_length_c 18.709126
_cell_angle_alpha 90.000000
_cell_angle_beta 90.000000
_cell_angle_gamma 90.000000
_cell_volume 3547.119823
_symmetry_space_group_name_H-M "C C C M"
_symmetry_group_IT_number 66
_symmetry_cell_setting 'orthorhombic'
loop_
_space_group_symop_operation_xyz
x,y,z
-x,-y,z
x,-y,1/2-z
-x,y,1/2-z
-x,-y,-z
x,y,-z
-x,y,1/2+z
x,-y,1/2+z
1/2+x,1/2+y,z
1/2-x,1/2-y,z
1/2+x,1/2-y,1/2-z
1/2-x,1/2+y,1/2-z
1/2-x,1/2-y,-z
1/2+x,1/2+y,-z
1/2-x,1/2+y,1/2+z
1/2+x,1/2-y,1/2+z
loop_
_atom_site_type_symbol
_atom_site_label
_atom_site_fract_x
_atom_site_fract_y
_atom_site_fract_z
Si Si1 0.901646 0.685948 0.339581
Si Si2 0.712811 0.422995 0.580231
Si Si3 0.415167 0.539076 0.415921
Si Si4 0.787411 0.618040 0.688537
Si Si5 0.052582 0.307057 0.802798
O O1 0.923092 0.840900 0.388915
O O2 0.838880 0.665013 0.358939
O O3 0.903073 0.747405 0.256593
O O4 0.931486 0.496686 0.336067
O O5 0.716160 0.496738 0.500000
O O6 0.750000 0.250000 0.580764
O O7 0.648462 0.404744 0.594790
O O8 0.741624 0.542512 0.637497
O O9 0.427360 0.554787 0.500000
O O10 0.449092 0.668367 0.365649
O O11 0.811723 0.500000 0.750000
O O12 0.750000 0.750000 0.732821
O O13 0.000000 0.307258 0.750000
#
# Coordination Sequence:
#
# PCOD9498655 Si02
#       5
#    16  16  16  16  16
#     4  11  23  43  69 101 138 186 240 290 350 422
#     4  10  22  39  60  92 141 190 227 271 337 413
#     4  11  25  44  71 106 143 185 233 291 354 421
#     4  12  23  35  62  97 136 181 231 285 337 407
#     4  11  25  47  74  99 133 182 238 300 368 422
#
# _framework density 22.553508999999998
#
# number of rings (size 3 to 8) (size 9 to 14) (size 15 to 20)
#    0.000    1.000    4.000    3.600    2.800    4.400 
#    0.000    2.000    0.000    7.200    0.000    0.000 
#    0.000    0.000    0.000    0.000    0.000    0.000 
#
# Total GULP energy -223048.004852 kJ/mol
# GULP energy per Si atom -5576.200121 kJ/mol
# Density = 2.250218 g / cm^3
# Si number density = 22.553509 Si / 1000 Ang^3
#
#
#
# Elastic Constant Matrix: (Units=GPa)
#
#
# Indices 1 2 3 4 5 6 
#
# 1 128.4172 41.1180 40.0151 0.0000 0.0000 0.0000
# 2 41.1180 101.5270 59.6693 0.0000 0.0000 0.0000
# 3 40.0151 59.6693 119.6052 0.0000 0.0000 0.0000
# 4 0.0000 0.0000 0.0000 -12.2424 0.0000 0.0000
# 5 0.0000 0.0000 0.0000 0.0000 34.5860 0.0000
# 6 0.0000 0.0000 0.0000 0.0000 0.0000 11.9289
#
#
#
# Elastic Compliance Matrix: (Units=1/GPa)
#
#
# Indices 1 2 3 4 5 6 
#
# 1 0.009192 -0.002710 -0.001723 0.000000 0.000000 0.000000
# 2 -0.002710 0.014734 -0.006444 0.000000 0.000000 0.000000
# 3 -0.001723 -0.006444 0.012152 0.000000 0.000000 0.000000
# 4 0.000000 0.000000 0.000000 -0.081684 0.000000 0.000000
# 5 0.000000 0.000000 0.000000 0.000000 0.028913 0.000000
# 6 0.000000 0.000000 0.000000 0.000000 0.000000 0.083830
#
#
# Mechanical properties :
#
#
# Convention : Reuss Voigt Hill
#
# Bulk Modulus (GPa) = 69.81355 70.12825 69.97090
# Shear Modulus (GPa) = 53.38026 20.77099 37.07563
#
# Velocity S-wave (km/s) = 4.87028 3.03803 4.05890
# Velocity P-wave (km/s) = 7.91505 6.59302 7.28409
#
# Compressibility (1/GPa) = 0.01432387
#
# Stress axis : x y z
#
# Youngs Moduli (GPa) = 108.79307 67.86831 82.28895
#
# Poissons Ratio (x) = 0.18391 0.14181
# Poissons Ratio (y) = 0.29481 0.53029
# Poissons Ratio (z) = 0.18748 0.43736
#
# Static dielectric constant tensor:
#      x y z
#    x 2.217390 0.000000 0.000000 
#    y 0.000000 2.341180 0.000000 
#    z 0.000000 0.000000 1.773620 
# 
# From -- ./inp_files/44074.got.cif
#   From: 2010.05.17/outbox.cif.g08.bks.cpg/sg66_23_cif.got.tgz:44074.got - 2010.06.03 17:51:23.
