data_PCOD9498525
_publ_section_title
;
Structure prediction by ZEFSAII (Michael W. Deem and Ramdas Pophale) SiO2 
 PCOD9498525
Probable space group: C C C M
;
_chemical_formula_sum "Si O2"
_cell_formula_units_Z 88
_cell_length_a 10.681041
_cell_length_b 13.759135
_cell_length_c 26.574182
_cell_angle_alpha 90.000000
_cell_angle_beta 90.000000
_cell_angle_gamma 90.000000
_cell_volume 3905.391881
_symmetry_space_group_name_H-M "C C C M"
_symmetry_group_IT_number 66
_symmetry_cell_setting 'orthorhombic'
loop_
_space_group_symop_operation_xyz
x,y,z
-x,-y,z
x,-y,1/2-z
-x,y,1/2-z
-x,-y,-z
x,y,-z
-x,y,1/2+z
x,-y,1/2+z
1/2+x,1/2+y,z
1/2-x,1/2-y,z
1/2+x,1/2-y,1/2-z
1/2-x,1/2+y,1/2-z
1/2-x,1/2-y,-z
1/2+x,1/2+y,-z
1/2-x,1/2+y,1/2+z
1/2+x,1/2-y,1/2+z
loop_
_atom_site_type_symbol
_atom_site_label
_atom_site_fract_x
_atom_site_fract_y
_atom_site_fract_z
Si Si1 0.500000 0.500000 0.161494
Si Si2 0.503825 0.301921 0.110992
Si Si3 0.238252 0.534040 0.198010
Si Si4 0.855487 0.464824 0.590573
Si Si5 0.779179 0.409017 0.000000
Si Si6 0.457425 0.732759 0.000000
Si Si7 0.250000 0.750000 0.390050
Si Si8 0.250000 0.750000 0.837351
O O1 0.531056 0.411300 0.125114
O O2 0.376514 0.487003 0.194220
O O3 0.376242 0.276311 0.139663
O O4 0.626551 0.243802 0.127430
O O5 0.474447 0.287908 0.052260
O O6 0.178190 0.500000 0.250000
O O7 0.170532 0.497071 0.147708
O O8 0.252844 0.650815 0.194210
O O9 0.779110 0.526405 0.549749
O O10 0.801488 0.353452 0.585721
O O11 0.000000 0.500000 0.580823
O O12 0.661863 0.337912 0.000000
O O13 0.903184 0.341498 0.000000
#
# Coordination Sequence:
#
# PCOD9498525 Si02
#       8
#     8  16  16  16   8   8   8   8
#     4  10  21  45  66  96 134 187 230 290 361 424
#     4  11  23  42  69 102 141 185 240 297 357 432
#     4  11  23  43  71 101 136 182 241 297 363 429
#     4  12  26  45  70 100 148 191 232 303 370 445
#     4  11  23  44  68 101 137 193 244 290 363 436
#     4  11  22  37  71 100 135 184 249 296 349 430
#     4  12  26  44  66 107 146 189 238 298 376 432
#     4  10  22  44  74  99 134 190 242 293 358 444
#
# _framework density 22.53295
#
# number of rings (size 3 to 8) (size 9 to 14) (size 15 to 20)
#    0.000    0.909    1.818    7.091    0.000    3.636 
#    0.000    0.000    4.000    0.000    0.000    0.000 
#    0.000    0.000    0.000    0.000    0.000    0.000 
#
# Total GULP energy -245492.973537 kJ/mol
# GULP energy per Si atom -5579.385762 kJ/mol
# Density = 2.248166 g / cm^3
# Si number density = 22.532950 Si / 1000 Ang^3
#
#
#
# Elastic Constant Matrix: (Units=GPa)
#
#
# Indices 1 2 3 4 5 6 
#
# 1 123.2835 16.3973 7.7242 0.0000 0.0000 0.0000
# 2 16.3973 143.0541 55.6293 0.0000 0.0000 0.0000
# 3 7.7242 55.6293 138.2745 0.0000 0.0000 0.0000
# 4 0.0000 0.0000 0.0000 10.7055 0.0000 0.0000
# 5 0.0000 0.0000 0.0000 0.0000 85.1979 0.0000
# 6 0.0000 0.0000 0.0000 0.0000 0.0000 33.5556
#
#
#
# Elastic Compliance Matrix: (Units=1/GPa)
#
#
# Indices 1 2 3 4 5 6 
#
# 1 0.008238 -0.000907 -0.000095 0.000000 0.000000 0.000000
# 2 -0.000907 0.008387 -0.003323 0.000000 0.000000 0.000000
# 3 -0.000095 -0.003323 0.008574 0.000000 0.000000 0.000000
# 4 0.000000 0.000000 0.000000 0.093410 0.000000 0.000000
# 5 0.000000 0.000000 0.000000 0.000000 0.011737 0.000000
# 6 0.000000 0.000000 0.000000 0.000000 0.000000 0.029801
#
#
# Mechanical properties :
#
#
# Convention : Reuss Voigt Hill
#
# Bulk Modulus (GPa) = 60.43234 62.67929 61.55581
# Shear Modulus (GPa) = 28.68371 47.54923 38.11647
#
# Velocity S-wave (km/s) = 3.57174 4.59868 4.11735
# Velocity P-wave (km/s) = 6.62476 7.48828 7.06972
#
# Compressibility (1/GPa) = 0.01654743
#
# Stress axis : x y z
#
# Youngs Moduli (GPa) = 121.38837 119.23622 116.62708
#
# Poissons Ratio (x) = 0.10818 0.01110
# Poissons Ratio (y) = 0.11013 0.38760
# Poissons Ratio (z) = 0.01155 0.39627
#
# Static dielectric constant tensor:
#      x y z
#    x 1.975300 0.000000 0.000000 
#    y 0.000000 1.860020 0.000000 
#    z 0.000000 0.000000 1.808080 
# 
# From -- ./inp_files/63663.got.cif
#   From: 2010.05.17/outbox.cif.g08.bks.cpg/sg66_32_cif.got.tgz:63663.got - 2010.06.03 17:51:23.
