data_PCOD9498984
_publ_section_title
;
Structure prediction by ZEFSAII (Michael W. Deem and Ramdas Pophale) SiO2 
 PCOD9498984
Probable space group: C C C M
;
_chemical_formula_sum "Si O2"
_cell_formula_units_Z 112
_cell_length_a 28.949779
_cell_length_b 13.327661
_cell_length_c 15.601657
_cell_angle_alpha 90.000000
_cell_angle_beta 90.000000
_cell_angle_gamma 90.000000
_cell_volume 6019.631637
_symmetry_space_group_name_H-M "C C C M"
_symmetry_group_IT_number 66
_symmetry_cell_setting 'orthorhombic'
loop_
_space_group_symop_operation_xyz
x,y,z
-x,-y,z
x,-y,1/2-z
-x,y,1/2-z
-x,-y,-z
x,y,-z
-x,y,1/2+z
x,-y,1/2+z
1/2+x,1/2+y,z
1/2-x,1/2-y,z
1/2+x,1/2-y,1/2-z
1/2-x,1/2+y,1/2-z
1/2-x,1/2-y,-z
1/2+x,1/2+y,-z
1/2-x,1/2+y,1/2+z
1/2+x,1/2-y,1/2+z
loop_
_atom_site_type_symbol
_atom_site_label
_atom_site_fract_x
_atom_site_fract_y
_atom_site_fract_z
Si Si1 0.357661 0.905500 0.298655
Si Si2 0.878083 0.142775 0.095463
Si Si3 0.053521 0.878913 0.252508
Si Si4 0.386940 0.281196 0.897135
Si Si5 0.327974 0.457976 0.154149
Si Si6 0.225193 0.496910 0.404004
Si Si7 0.299252 0.213110 0.659673
O O1 0.385212 0.832757 0.362189
O O2 0.315350 0.954038 0.350026
O O3 0.333529 0.834445 0.228890
O O4 0.381480 0.000000 0.250000
O O5 0.915324 0.158257 0.171653
O O6 0.830579 0.203105 0.114678
O O7 0.861635 0.027346 0.097893
O O8 0.895103 0.168617 0.000000
O O9 0.074392 0.837953 0.341175
O O10 0.000000 0.848985 0.250000
O O11 0.055612 0.000000 0.250000
O O12 0.341476 0.343628 0.865720
O O13 0.391210 0.285624 0.000000
O O14 0.336383 0.500000 0.250000
O O15 0.274868 0.478591 0.134607
O O16 0.223866 0.535359 0.500000
O O17 0.216097 0.377890 0.401368
O O18 0.250000 0.250000 0.696687
#
# Coordination Sequence:
#
# PCOD9498984 Si02
#       7
#    16  16  16  16  16  16  16
#     4  10  23  39  58  82 116 165 206 258 313 365
#     4  12  22  37  61  90 125 166 212 258 305 364
#     4  11  24  43  66  94 130 165 201 254 317 382
#     4  12  23  40  65  92 122 164 209 261 322 379
#     4  12  21  36  55  84 130 175 211 252 306 365
#     4  11  23  35  51  87 122 162 219 261 298 360
#     4  11  21  35  57  83 121 169 214 249 302 356
#
# _framework density 18.605791
#
# number of rings (size 3 to 8) (size 9 to 14) (size 15 to 20)
#    0.000    0.714    5.714    3.429    2.000    1.143 
#    0.000    2.857    0.000    0.429    0.000    1.000 
#    0.000    0.000    0.000    0.000    0.000    0.000 
#
# Total GULP energy -312504.699327 kJ/mol
# GULP energy per Si atom -5580.441059 kJ/mol
# Density = 1.856344 g / cm^3
# Si number density = 18.605791 Si / 1000 Ang^3
#
#
#
# Elastic Constant Matrix: (Units=GPa)
#
#
# Indices 1 2 3 4 5 6 
#
# 1 87.3685 25.1953 26.2912 0.0000 0.0000 0.0000
# 2 25.1953 89.2216 33.5997 0.0000 0.0000 0.0000
# 3 26.2912 33.5997 136.1932 0.0000 0.0000 0.0000
# 4 0.0000 0.0000 0.0000 22.0627 0.0000 0.0000
# 5 0.0000 0.0000 0.0000 0.0000 0.5205 0.0000
# 6 0.0000 0.0000 0.0000 0.0000 0.0000 19.9886
#
#
#
# Elastic Compliance Matrix: (Units=1/GPa)
#
#
# Indices 1 2 3 4 5 6 
#
# 1 0.012826 -0.002965 -0.001744 0.000000 0.000000 0.000000
# 2 -0.002965 0.013041 -0.002645 0.000000 0.000000 0.000000
# 3 -0.001744 -0.002645 0.008332 0.000000 0.000000 0.000000
# 4 0.000000 0.000000 0.000000 0.045325 0.000000 0.000000
# 5 0.000000 0.000000 0.000000 0.000000 1.921271 0.000000
# 6 0.000000 0.000000 0.000000 0.000000 0.000000 0.050028
#
#
# Mechanical properties :
#
#
# Convention : Reuss Voigt Hill
#
# Bulk Modulus (GPa) = 51.30804 53.66174 52.48489
# Shear Modulus (GPa) = 2.41309 23.69417 13.05363
#
# Velocity S-wave (km/s) = 1.14008 3.57246 2.65163
# Velocity P-wave (km/s) = 5.41934 6.77648 6.13555
#
# Compressibility (1/GPa) = 0.01949012
#
# Stress axis : x y z
#
# Youngs Moduli (GPa) = 77.96824 76.67891 120.02193
#
# Poissons Ratio (x) = 0.22735 0.20937
# Poissons Ratio (y) = 0.23117 0.31746
# Poissons Ratio (z) = 0.13601 0.20282
#
# Static dielectric constant tensor:
#      x y z
#    x 1.669060 0.000000 0.000000 
#    y 0.000000 1.686620 0.000000 
#    z 0.000000 0.000000 1.683360 
# 
# From -- ./inp_files/26988.got.cif
#   From: 2010.05.17/outbox.cif.g08.bks.cpg/sg66_14_cif.got.tgz:26988.got - 2010.06.03 17:51:23.
