data_PCOD9498033
_publ_section_title
;
Structure prediction by ZEFSAII (Michael W. Deem and Ramdas Pophale) SiO2 
 PCOD9498033
Probable space group: C C C M
;
_chemical_formula_sum "Si O2"
_cell_formula_units_Z 88
_cell_length_a 26.624476
_cell_length_b 8.444003
_cell_length_c 20.876492
_cell_angle_alpha 90.000000
_cell_angle_beta 90.000000
_cell_angle_gamma 90.000000
_cell_volume 4693.393542
_symmetry_space_group_name_H-M "C C C M"
_symmetry_group_IT_number 66
_symmetry_cell_setting 'orthorhombic'
loop_
_space_group_symop_operation_xyz
x,y,z
-x,-y,z
x,-y,1/2-z
-x,y,1/2-z
-x,-y,-z
x,y,-z
-x,y,1/2+z
x,-y,1/2+z
1/2+x,1/2+y,z
1/2-x,1/2-y,z
1/2+x,1/2-y,1/2-z
1/2-x,1/2+y,1/2-z
1/2-x,1/2-y,-z
1/2+x,1/2+y,-z
1/2-x,1/2+y,1/2+z
1/2+x,1/2-y,1/2+z
loop_
_atom_site_type_symbol
_atom_site_label
_atom_site_fract_x
_atom_site_fract_y
_atom_site_fract_z
Si Si1 0.300342 0.833860 0.927378
Si Si2 0.940424 0.679847 0.754070
Si Si3 0.447434 0.604622 0.378917
Si Si4 0.590013 0.781643 0.000000
Si Si5 0.549893 0.107009 0.000000
Si Si6 0.799497 0.353894 0.500000
Si Si7 0.096004 0.786408 0.117760
O O1 0.250000 0.750000 0.902329
O O2 0.349591 0.788830 0.889128
O O3 0.297230 0.022324 0.939974
O O4 0.307636 0.766931 0.000000
O O5 0.919287 0.500000 0.750000
O O6 0.934273 0.790490 0.816548
O O7 0.923163 0.762523 0.689354
O O8 0.000000 0.663802 0.750000
O O9 0.500000 0.500000 0.374070
O O10 0.441669 0.720516 0.439321
O O11 0.405492 0.472862 0.393012
O O12 0.649733 0.748419 0.000000
O O13 0.592291 0.971988 0.000000
O O14 0.559631 0.207587 0.935870
O O15 0.500000 0.000000 0.000000
O O16 0.750000 0.250000 0.500000
#
# Coordination Sequence:
#
# PCOD9498033 Si02
#       7
#    16  16  16   8   8   8  16
#     4   9  20  39  63  92 126 167 214 265 341 388
#     4  11  25  42  63  86 125 177 219 263 324 393
#     4  12  25  41  61  95 132 172 221 263 319 396
#     4  12  24  38  62  97 132 162 217 269 328 380
#     4  12  23  37  58  94 132 171 209 261 325 382
#     4  10  21  37  64  92 134 162 212 268 334 394
#     4  12  22  40  65  87 134 170 214 276 325 390
#
# _framework density 18.749760999999999
#
# number of rings (size 3 to 8) (size 9 to 14) (size 15 to 20)
#    0.545    0.364    4.545    3.545    5.091    0.000 
#    0.000    0.000    0.000    3.273    0.000    0.000 
#    0.000    0.000    0.000    0.000    0.000    0.000 
#
# Total GULP energy -245149.851249 kJ/mol
# GULP energy per Si atom -5571.587528 kJ/mol
# Density = 1.870709 g / cm^3
# Si number density = 18.749761 Si / 1000 Ang^3
#
#
#
# Elastic Constant Matrix: (Units=GPa)
#
#
# Indices 1 2 3 4 5 6 
#
# 1 117.1654 28.9243 34.6754 0.0000 0.0000 0.0000
# 2 28.9243 118.2430 51.5189 0.0000 0.0000 0.0000
# 3 34.6754 51.5189 141.5126 0.0000 0.0000 0.0000
# 4 0.0000 0.0000 0.0000 99.5030 0.0000 0.0000
# 5 0.0000 0.0000 0.0000 0.0000 -14.8749 0.0000
# 6 0.0000 0.0000 0.0000 0.0000 0.0000 31.5531
#
#
#
# Elastic Compliance Matrix: (Units=1/GPa)
#
#
# Indices 1 2 3 4 5 6 
#
# 1 0.009434 -0.001546 -0.001749 0.000000 0.000000 0.000000
# 2 -0.001546 0.010305 -0.003373 0.000000 0.000000 0.000000
# 3 -0.001749 -0.003373 0.008723 0.000000 0.000000 0.000000
# 4 0.000000 0.000000 0.000000 0.010050 0.000000 0.000000
# 5 0.000000 0.000000 0.000000 0.000000 -0.067227 0.000000
# 6 0.000000 0.000000 0.000000 0.000000 0.000000 0.031693
#
#
# Mechanical properties :
#
#
# Convention : Reuss Voigt Hill
#
# Bulk Modulus (GPa) = 66.10718 67.46203 66.78461
# Shear Modulus (GPa) = 234.14144 40.68972 137.41558
#
# Velocity S-wave (km/s) = 11.18696 4.66354 8.57020
# Velocity P-wave (km/s) = 14.21965 8.06576 11.55973
#
# Compressibility (1/GPa) = 0.01512695
#
# Stress axis : x y z
#
# Youngs Moduli (GPa) = 105.99797 97.04200 114.64000
#
# Poissons Ratio (x) = 0.15000 0.20050
# Poissons Ratio (y) = 0.16384 0.38666
# Poissons Ratio (z) = 0.18539 0.32730
#
# Static dielectric constant tensor:
#      x y z
#    x 1.679820 0.000000 0.000000 
#    y 0.000000 1.785220 0.000000 
#    z 0.000000 0.000000 1.545080 
# 
# From -- ./inp_files/44702.got.cif
#   From: 2010.05.17/outbox.cif.g08.bks.cpg/sg66_23_cif.got.tgz:44702.got - 2010.06.03 17:51:23.
