data_PCOD9498988
_publ_section_title
;
Structure prediction by ZEFSAII (Michael W. Deem and Ramdas Pophale) SiO2 
 PCOD9498988
Probable space group: C C C M
;
_chemical_formula_sum "Si O2"
_cell_formula_units_Z 64
_cell_length_a 5.131867
_cell_length_b 21.377238
_cell_length_c 29.548239
_cell_angle_alpha 90.000000
_cell_angle_beta 90.000000
_cell_angle_gamma 90.000000
_cell_volume 3241.593763
_symmetry_space_group_name_H-M "C C C M"
_symmetry_group_IT_number 66
_symmetry_cell_setting 'orthorhombic'
loop_
_space_group_symop_operation_xyz
x,y,z
-x,-y,z
x,-y,1/2-z
-x,y,1/2-z
-x,-y,-z
x,y,-z
-x,y,1/2+z
x,-y,1/2+z
1/2+x,1/2+y,z
1/2-x,1/2-y,z
1/2+x,1/2-y,1/2-z
1/2-x,1/2+y,1/2-z
1/2-x,1/2-y,-z
1/2+x,1/2+y,-z
1/2-x,1/2+y,1/2+z
1/2+x,1/2-y,1/2+z
loop_
_atom_site_type_symbol
_atom_site_label
_atom_site_fract_x
_atom_site_fract_y
_atom_site_fract_z
Si Si1 0.317630 0.822220 0.128167
Si Si2 0.251620 0.605766 0.218914
Si Si3 0.249302 0.544566 0.500000
Si Si4 0.000000 0.000000 0.840056
Si Si5 0.819706 0.892630 0.904344
O O1 0.250000 0.750000 0.121961
O O2 0.287711 0.841986 0.180571
O O3 0.603345 0.844056 0.112890
O O4 0.104487 0.862257 0.100453
O O5 0.500000 0.620317 0.250000
O O6 0.319298 0.542580 0.191577
O O7 0.000000 0.599008 0.250000
O O8 0.500000 0.500000 0.500000
O O9 0.257041 0.585673 0.545240
O O10 0.000000 0.500000 0.500000
O O11 0.832726 0.953446 0.871648
#
# Coordination Sequence:
#
# PCOD9498988 Si02
#       5
#    16  16   8   8  16
#     4  11  25  45  65  89 130 177 221 264 311 377
#     4  11  24  39  61  92 125 168 215 269 323 374
#     4  12  24  42  69 104 137 158 204 261 321 398
#     4  10  23  39  64  94 136 162 208 267 339 394
#     4  11  24  42  67  98 129 169 210 261 330 384
#
# _framework density 19.743372999999998
#
# number of rings (size 3 to 8) (size 9 to 14) (size 15 to 20)
#    0.000    1.000    1.250    5.625    3.500    9.000 
#    0.000    3.750    0.000    0.000    0.000    0.000 
#    0.000    0.000    0.000    0.000    0.000    0.000 
#
# Total GULP energy -179134.279112 kJ/mol
# GULP energy per Si atom -5597.946222 kJ/mol
# Density = 1.969844 g / cm^3
# Si number density = 19.743373 Si / 1000 Ang^3
#
#
#
# Elastic Constant Matrix: (Units=GPa)
#
#
# Indices 1 2 3 4 5 6 
#
# 1 94.6937 -2.1429 24.2071 0.0000 0.0000 0.0000
# 2 -2.1429 69.5614 23.2255 0.0000 0.0000 0.0000
# 3 24.2071 23.2255 131.3416 0.0000 0.0000 0.0000
# 4 0.0000 0.0000 0.0000 10.7676 0.0000 0.0000
# 5 0.0000 0.0000 0.0000 0.0000 25.3535 0.0000
# 6 0.0000 0.0000 0.0000 0.0000 0.0000 34.5699
#
#
#
# Elastic Compliance Matrix: (Units=1/GPa)
#
#
# Indices 1 2 3 4 5 6 
#
# 1 0.011160 0.001095 -0.002251 0.000000 0.000000 0.000000
# 2 0.001095 0.015385 -0.002922 0.000000 0.000000 0.000000
# 3 -0.002251 -0.002922 0.008545 0.000000 0.000000 0.000000
# 4 0.000000 0.000000 0.000000 0.092871 0.000000 0.000000
# 5 0.000000 0.000000 0.000000 0.000000 0.039442 0.000000
# 6 0.000000 0.000000 0.000000 0.000000 0.000000 0.028927
#
#
# Mechanical properties :
#
#
# Convention : Reuss Voigt Hill
#
# Bulk Modulus (GPa) = 37.12582 42.90844 40.01713
# Shear Modulus (GPa) = 23.42301 30.82535 27.12418
#
# Velocity S-wave (km/s) = 3.44811 3.95562 3.71055
# Velocity P-wave (km/s) = 5.89047 6.53015 6.21854
#
# Compressibility (1/GPa) = 0.02693543
#
# Stress axis : x y z
#
# Youngs Moduli (GPa) = 89.60180 64.99705 117.02299
#
# Poissons Ratio (x) = -0.07119 0.26338
# Poissons Ratio (y) = -0.09814 0.34200
# Poissons Ratio (z) = 0.20166 0.18995
#
# Static dielectric constant tensor:
#      x y z
#    x 1.669610 0.000000 0.000000 
#    y 0.000000 1.683910 0.000000 
#    z 0.000000 0.000000 1.675430 
# 
# From -- ./inp_files/61243.got.cif
#   From: 2010.05.17/outbox.cif.g08.bks.cpg/sg66_31_cif.got.tgz:61243.got - 2010.06.03 17:51:23.
