data_PCOD9498432
_publ_section_title
;
Structure prediction by ZEFSAII (Michael W. Deem and Ramdas Pophale) SiO2 
 PCOD9498432
Probable space group: C C C M
;
_chemical_formula_sum "Si O2"
_cell_formula_units_Z 96
_cell_length_a 20.609995
_cell_length_b 11.203046
_cell_length_c 19.805239
_cell_angle_alpha 90.000000
_cell_angle_beta 90.000000
_cell_angle_gamma 90.000000
_cell_volume 4572.925154
_symmetry_space_group_name_H-M "C C C M"
_symmetry_group_IT_number 66
_symmetry_cell_setting 'orthorhombic'
loop_
_space_group_symop_operation_xyz
x,y,z
-x,-y,z
x,-y,1/2-z
-x,y,1/2-z
-x,-y,-z
x,y,-z
-x,y,1/2+z
x,-y,1/2+z
1/2+x,1/2+y,z
1/2-x,1/2-y,z
1/2+x,1/2-y,1/2-z
1/2-x,1/2+y,1/2-z
1/2-x,1/2-y,-z
1/2+x,1/2+y,-z
1/2-x,1/2+y,1/2+z
1/2+x,1/2-y,1/2+z
loop_
_atom_site_type_symbol
_atom_site_label
_atom_site_fract_x
_atom_site_fract_y
_atom_site_fract_z
Si Si1 0.328114 0.151168 0.073699
Si Si2 0.930203 0.561269 0.427020
Si Si3 0.542454 0.242183 0.181079
Si Si4 0.109050 0.024292 0.680699
Si Si5 0.745584 0.612444 0.206777
Si Si6 0.562092 0.350506 0.422195
O O1 0.281181 0.131202 0.135890
O O2 0.373633 0.267407 0.080739
O O3 0.377078 0.040838 0.073605
O O4 0.295751 0.152430 0.000000
O O5 0.922823 0.628547 0.500000
O O6 0.929129 0.627248 0.355709
O O7 0.000000 0.500000 0.429890
O O8 0.500000 0.227145 0.250000
O O9 0.603566 0.333300 0.183032
O O10 0.491240 0.291335 0.125882
O O11 0.070170 0.000000 0.750000
O O12 0.174102 0.944217 0.690444
O O13 0.078159 0.976147 0.612434
O O14 0.774740 0.500000 0.250000
O O15 0.750000 0.750000 0.236860
O O16 0.542473 0.358409 0.500000
#
# Coordination Sequence:
#
# PCOD9498432 Si02
#       6
#    16  16  16  16  16  16
#     4  10  22  42  68  97 129 173 231 282 332 404
#     4  10  21  41  64  93 135 178 222 280 339 409
#     4  12  24  38  64  97 138 177 216 278 351 415
#     4  11  24  42  61  93 135 173 214 276 347 400
#     4  11  25  45  72  98 134 183 232 286 344 412
#     4  11  22  39  66  95 127 169 219 268 330 403
#
# _framework density 20.993126
#
# number of rings (size 3 to 8) (size 9 to 14) (size 15 to 20)
#    0.000    1.167    5.000    1.000    0.000    7.333 
#    0.000    0.000    0.000    2.500    0.000    0.000 
#    0.000    0.000    0.000    0.000    0.000    0.000 
#
# Total GULP energy -267235.376308 kJ/mol
# GULP energy per Si atom -5567.403673 kJ/mol
# Density = 2.094534 g / cm^3
# Si number density = 20.993126 Si / 1000 Ang^3
#
#
#
# Elastic Constant Matrix: (Units=GPa)
#
#
# Indices 1 2 3 4 5 6 
#
# 1 74.6957 27.2277 34.6986 0.0000 0.0000 0.0000
# 2 27.2277 120.5208 61.3417 0.0000 0.0000 0.0000
# 3 34.6986 61.3417 167.9819 0.0000 0.0000 0.0000
# 4 0.0000 0.0000 0.0000 33.3723 0.0000 0.0000
# 5 0.0000 0.0000 0.0000 0.0000 34.0121 0.0000
# 6 0.0000 0.0000 0.0000 0.0000 0.0000 32.7876
#
#
#
# Elastic Compliance Matrix: (Units=1/GPa)
#
#
# Indices 1 2 3 4 5 6 
#
# 1 0.015298 -0.002270 -0.002331 0.000000 0.000000 0.000000
# 2 -0.002270 0.010528 -0.003376 0.000000 0.000000 0.000000
# 3 -0.002331 -0.003376 0.007667 0.000000 0.000000 0.000000
# 4 0.000000 0.000000 0.000000 0.029965 0.000000 0.000000
# 5 0.000000 0.000000 0.000000 0.000000 0.029401 0.000000
# 6 0.000000 0.000000 0.000000 0.000000 0.000000 0.030499
#
#
# Mechanical properties :
#
#
# Convention : Reuss Voigt Hill
#
# Bulk Modulus (GPa) = 57.01138 67.74827 62.37983
# Shear Modulus (GPa) = 34.44506 36.02977 35.23742
#
# Velocity S-wave (km/s) = 4.05505 4.14728 4.10142
# Velocity P-wave (km/s) = 7.01004 7.43471 7.22550
#
# Compressibility (1/GPa) = 0.01754036
#
# Stress axis : x y z
#
# Youngs Moduli (GPa) = 65.36873 94.98283 130.42434
#
# Poissons Ratio (x) = 0.21557 0.30404
# Poissons Ratio (y) = 0.14836 0.44028
# Poissons Ratio (z) = 0.15239 0.32064
#
# Static dielectric constant tensor:
#      x y z
#    x 1.785930 0.000000 0.000000 
#    y 0.000000 1.853850 0.000000 
#    z 0.000000 0.000000 1.814350 
# 
# From -- ./inp_files/43556.got.cif
#   From: 2010.05.17/outbox.cif.g08.bks.cpg/sg66_22_cif.got.tgz:43556.got - 2010.06.03 17:51:23.
