data_PCOD9498646
_publ_section_title
;
Structure prediction by ZEFSAII (Michael W. Deem and Ramdas Pophale) SiO2 
 PCOD9498646
Probable space group: C C C M
;
_chemical_formula_sum "Si O2"
_cell_formula_units_Z 112
_cell_length_a 11.231794
_cell_length_b 30.320931
_cell_length_c 17.505288
_cell_angle_alpha 90.000000
_cell_angle_beta 90.000000
_cell_angle_gamma 90.000000
_cell_volume 5961.573763
_symmetry_space_group_name_H-M "C C C M"
_symmetry_group_IT_number 66
_symmetry_cell_setting 'orthorhombic'
loop_
_space_group_symop_operation_xyz
x,y,z
-x,-y,z
x,-y,1/2-z
-x,y,1/2-z
-x,-y,-z
x,y,-z
-x,y,1/2+z
x,-y,1/2+z
1/2+x,1/2+y,z
1/2-x,1/2-y,z
1/2+x,1/2-y,1/2-z
1/2-x,1/2+y,1/2-z
1/2-x,1/2-y,-z
1/2+x,1/2+y,-z
1/2-x,1/2+y,1/2+z
1/2+x,1/2-y,1/2+z
loop_
_atom_site_type_symbol
_atom_site_label
_atom_site_fract_x
_atom_site_fract_y
_atom_site_fract_z
Si Si1 0.305168 0.454262 0.211238
Si Si2 0.050423 0.626304 0.913888
Si Si3 0.801411 0.101871 0.862319
Si Si4 0.108439 0.291117 0.691808
Si Si5 0.378587 0.693597 0.198298
Si Si6 0.095966 0.539281 0.590742
Si Si7 0.020097 0.947927 0.417740
O O1 0.345776 0.500000 0.250000
O O2 0.277649 0.420274 0.279269
O O3 0.199765 0.466689 0.152568
O O4 0.404891 0.434303 0.155901
O O5 0.179274 0.604108 0.907316
O O6 0.069914 0.669860 0.864237
O O7 0.959393 0.587573 0.891291
O O8 0.021281 0.638992 0.000000
O O9 0.862783 0.149604 0.851019
O O10 0.892037 0.072726 0.908844
O O11 0.239330 0.301858 0.728998
O O12 0.111381 0.241447 0.657720
O O13 0.000000 0.289284 0.750000
O O14 0.500000 0.689059 0.250000
O O15 0.130351 0.538617 0.500000
O O16 0.000000 0.500000 0.600294
O O17 0.074743 0.936138 0.500000
O O18 0.000000 0.000000 0.415146
#
# Coordination Sequence:
#
# PCOD9498646 Si02
#       7
#    16  16  16  16  16  16  16
#     4  12  23  36  56  84 111 146 196 242 277 333
#     4  10  22  39  59  85 115 150 188 234 292 347
#     4  11  22  36  59  83 116 145 193 237 286 339
#     4   9  19  35  60  87 114 148 195 235 292 351
#     4   9  18  35  56  87 118 148 183 244 297 346
#     4  10  23  40  56  78 115 155 191 234 291 347
#     4  11  23  38  55  76 112 153 188 228 284 338
#
# _framework density 18.786985000000001
#
# number of rings (size 3 to 8) (size 9 to 14) (size 15 to 20)
#    0.000    1.714    1.429    3.000    4.000    1.429 
#    0.000    6.429    0.000    0.000    0.000    8.000 
#    0.000    0.000    0.000    0.000    0.000    0.000 
#
# Total GULP energy -311816.816200 kJ/mol
# GULP energy per Si atom -5568.157432 kJ/mol
# Density = 1.874422 g / cm^3
# Si number density = 18.786985 Si / 1000 Ang^3
#
#
#
# Elastic Constant Matrix: (Units=GPa)
#
#
# Indices 1 2 3 4 5 6 
#
# 1 43.2308 8.2602 16.3157 0.0000 0.0000 0.0000
# 2 8.2602 72.8151 16.1871 0.0000 0.0000 0.0000
# 3 16.3157 16.1871 59.3299 0.0000 0.0000 0.0000
# 4 0.0000 0.0000 0.0000 -34.5060 0.0000 0.0000
# 5 0.0000 0.0000 0.0000 0.0000 26.8031 0.0000
# 6 0.0000 0.0000 0.0000 0.0000 0.0000 30.5769
#
#
#
# Elastic Compliance Matrix: (Units=1/GPa)
#
#
# Indices 1 2 3 4 5 6 
#
# 1 0.025953 -0.001445 -0.006743 0.000000 0.000000 0.000000
# 2 -0.001445 0.014701 -0.003613 0.000000 0.000000 0.000000
# 3 -0.006743 -0.003613 0.019695 0.000000 0.000000 0.000000
# 4 0.000000 0.000000 0.000000 -0.028980 0.000000 0.000000
# 5 0.000000 0.000000 0.000000 0.000000 0.037309 0.000000
# 6 0.000000 0.000000 0.000000 0.000000 0.000000 0.032704
#
#
# Mechanical properties :
#
#
# Convention : Reuss Voigt Hill
#
# Bulk Modulus (GPa) = 27.21404 28.54465 27.87935
# Shear Modulus (GPa) = 36.43463 13.54900 24.99181
#
# Velocity S-wave (km/s) = 4.40859 2.68841 3.65125
# Velocity P-wave (km/s) = 6.35856 4.98634 5.71379
#
# Compressibility (1/GPa) = 0.03674573
#
# Stress axis : x y z
#
# Youngs Moduli (GPa) = 38.53191 68.02430 50.77438
#
# Poissons Ratio (x) = 0.09831 0.34235
# Poissons Ratio (y) = 0.05568 0.18347
# Poissons Ratio (z) = 0.25981 0.24580
#
# Static dielectric constant tensor:
#      x y z
#    x 1.692210 0.000000 0.000000 
#    y 0.000000 1.671140 0.000000 
#    z 0.000000 0.000000 1.641330 
# 
# From -- ./inp_files/26961.got.cif
#   From: 2010.05.17/outbox.cif.g08.bks.cpg/sg66_14_cif.got.tgz:26961.got - 2010.06.03 17:51:23.
