data_PCOD9498611
_publ_section_title
;
Structure prediction by ZEFSAII (Michael W. Deem and Ramdas Pophale) SiO2 
 PCOD9498611
Probable space group: C C C M
;
_chemical_formula_sum "Si O2"
_cell_formula_units_Z 80
_cell_length_a 8.953256
_cell_length_b 25.073601
_cell_length_c 18.502966
_cell_angle_alpha 90.000000
_cell_angle_beta 90.000000
_cell_angle_gamma 90.000000
_cell_volume 4153.737657
_symmetry_space_group_name_H-M "C C C M"
_symmetry_group_IT_number 66
_symmetry_cell_setting 'orthorhombic'
loop_
_space_group_symop_operation_xyz
x,y,z
-x,-y,z
x,-y,1/2-z
-x,y,1/2-z
-x,-y,-z
x,y,-z
-x,y,1/2+z
x,-y,1/2+z
1/2+x,1/2+y,z
1/2-x,1/2-y,z
1/2+x,1/2-y,1/2-z
1/2-x,1/2+y,1/2-z
1/2-x,1/2-y,-z
1/2+x,1/2+y,-z
1/2-x,1/2+y,1/2+z
1/2+x,1/2-y,1/2+z
loop_
_atom_site_type_symbol
_atom_site_label
_atom_site_fract_x
_atom_site_fract_y
_atom_site_fract_z
Si Si1 0.433010 0.557728 0.826316
Si Si2 0.445526 0.058711 0.914456
Si Si3 0.172209 0.807298 0.723346
Si Si4 0.134223 0.396380 0.695690
Si Si5 0.352886 0.379460 0.914794
O O1 0.500000 0.500000 0.838716
O O2 0.500000 0.577706 0.750000
O O3 0.257959 0.558208 0.814060
O O4 0.489239 0.595321 0.890479
O O5 0.548675 0.104749 0.880112
O O6 0.274467 0.075571 0.899324
O O7 0.500000 0.000000 0.889022
O O8 0.462843 0.058778 0.000000
O O9 0.250000 0.750000 0.723783
O O10 0.272057 0.846161 0.774772
O O11 0.175495 0.832437 0.642605
O O12 0.000000 0.803520 0.750000
O O13 0.000000 0.409065 0.750000
O O14 0.347800 0.366281 0.000000
#
# Coordination Sequence:
#
# PCOD9498611 Si02
#       5
#    16  16  16  16  16
#     4  11  21  37  60  92 132 169 215 257 302 376
#     4  10  22  38  59  95 139 176 212 251 308 387
#     4  12  25  46  69  92 120 159 219 278 331 391
#     4  12  21  39  65  95 124 169 214 265 319 371
#     4  11  22  42  64  91 132 170 209 261 319 381
#
# _framework density 19.259763
#
# number of rings (size 3 to 8) (size 9 to 14) (size 15 to 20)
#    0.000    0.800    6.000    1.800    0.000    3.600 
#    0.000    0.000    0.000    1.200    0.000    0.000 
#    0.000    0.000    0.000    0.000    0.000    0.000 
#
# Total GULP energy -223106.894889 kJ/mol
# GULP energy per Si atom -5577.672372 kJ/mol
# Density = 1.921593 g / cm^3
# Si number density = 19.259763 Si / 1000 Ang^3
#
#
#
# Elastic Constant Matrix: (Units=GPa)
#
#
# Indices 1 2 3 4 5 6 
#
# 1 154.2968 51.7852 49.2361 0.0000 0.0000 0.0000
# 2 51.7852 112.4217 51.6131 0.0000 0.0000 0.0000
# 3 49.2361 51.6131 83.2780 0.0000 0.0000 0.0000
# 4 0.0000 0.0000 0.0000 15.9613 0.0000 0.0000
# 5 0.0000 0.0000 0.0000 0.0000 31.2151 0.0000
# 6 0.0000 0.0000 0.0000 0.0000 0.0000 26.4052
#
#
#
# Elastic Compliance Matrix: (Units=1/GPa)
#
#
# Indices 1 2 3 4 5 6 
#
# 1 0.008364 -0.002212 -0.003574 0.000000 0.000000 0.000000
# 2 -0.002212 0.013018 -0.006760 0.000000 0.000000 0.000000
# 3 -0.003574 -0.006760 0.018311 0.000000 0.000000 0.000000
# 4 0.000000 0.000000 0.000000 0.062652 0.000000 0.000000
# 5 0.000000 0.000000 0.000000 0.000000 0.032036 0.000000
# 6 0.000000 0.000000 0.000000 0.000000 0.000000 0.037871
#
#
# Mechanical properties :
#
#
# Convention : Reuss Voigt Hill
#
# Bulk Modulus (GPa) = 68.49308 72.80726 70.65017
# Shear Modulus (GPa) = 24.72679 27.87379 26.30029
#
# Velocity S-wave (km/s) = 3.58698 3.80841 3.69935
# Velocity P-wave (km/s) = 7.26603 7.56462 7.41683
#
# Compressibility (1/GPa) = 0.01460002
#
# Stress axis : x y z
#
# Youngs Moduli (GPa) = 119.56237 76.81960 54.61241
#
# Poissons Ratio (x) = 0.16991 0.19519
# Poissons Ratio (y) = 0.26444 0.36919
# Poissons Ratio (z) = 0.42733 0.51932
#
# Static dielectric constant tensor:
#      x y z
#    x 1.738630 0.000000 0.000000 
#    y 0.000000 1.700770 0.000000 
#    z 0.000000 0.000000 1.690320 
# 
# From -- ./inp_files/36936.got.cif
#   From: 2010.05.17/outbox.cif.g08.bks.cpg/sg66_19_cif.got.tgz:36936.got - 2010.06.03 17:51:23.
