data_PCOD9498055
_publ_section_title
;
Structure prediction by ZEFSAII (Michael W. Deem and Ramdas Pophale) SiO2 
 PCOD9498055
Probable space group: C C C M
;
_chemical_formula_sum "Si O2"
_cell_formula_units_Z 60
_cell_length_a 15.971586
_cell_length_b 20.375443
_cell_length_c 9.229206
_cell_angle_alpha 90.000000
_cell_angle_beta 90.000000
_cell_angle_gamma 90.000000
_cell_volume 3003.443344
_symmetry_space_group_name_H-M "C C C M"
_symmetry_group_IT_number 66
_symmetry_cell_setting 'orthorhombic'
loop_
_space_group_symop_operation_xyz
x,y,z
-x,-y,z
x,-y,1/2-z
-x,y,1/2-z
-x,-y,-z
x,y,-z
-x,y,1/2+z
x,-y,1/2+z
1/2+x,1/2+y,z
1/2-x,1/2-y,z
1/2+x,1/2-y,1/2-z
1/2-x,1/2+y,1/2-z
1/2-x,1/2-y,-z
1/2+x,1/2+y,-z
1/2-x,1/2+y,1/2+z
1/2+x,1/2-y,1/2+z
loop_
_atom_site_type_symbol
_atom_site_label
_atom_site_fract_x
_atom_site_fract_y
_atom_site_fract_z
Si Si1 0.698809 0.172200 0.500000
Si Si2 0.328331 0.330017 0.252828
Si Si3 0.121713 0.467481 0.000000
Si Si4 0.767373 0.600671 0.500000
Si Si5 0.376690 0.232342 0.500000
Si Si6 0.000000 0.500000 0.250000
Si Si7 0.434759 0.712148 0.500000
O O1 0.754447 0.180506 0.359202
O O2 0.674734 0.097009 0.500000
O O3 0.624714 0.223899 0.500000
O O4 0.293965 0.387520 0.360729
O O5 0.342329 0.269453 0.359631
O O6 0.409249 0.330235 0.143649
O O7 0.179825 0.532827 0.000000
O O8 0.061845 0.463430 0.140433
O O9 0.839021 0.658722 0.500000
O O10 0.474148 0.254275 0.500000
#
# Coordination Sequence:
#
# PCOD9498055 Si02
#       7
#     8  16   8   8   8   4   8
#     4  11  21  38  59  82 117 157 192 233 277 347
#     4  10  21  38  57  81 116 149 195 244 283 337
#     4  11  24  40  58  86 117 162 200 222 287 338
#     4  11  21  38  59  82 117 157 192 233 277 347
#     4  11  21  34  57  90 115 148 187 238 302 343
#     4  10  24  38  52  78 132 146 194 238 260 324
#     4  11  21  34  57  90 115 148 187 238 302 343
#
# _framework density 19.977070000000001
#
# number of rings (size 3 to 8) (size 9 to 14) (size 15 to 20)
#    0.000    1.333    0.000    8.800    3.733    0.000 
#    0.000    0.000    0.000    0.000    0.000   65.333 
#    0.000    0.000    0.000    0.000    0.000    0.000 
#
# Total GULP energy -167155.004622 kJ/mol
# GULP energy per Si atom -5571.833487 kJ/mol
# Density = 1.993160 g / cm^3
# Si number density = 19.977070 Si / 1000 Ang^3
#
#
#
# Elastic Constant Matrix: (Units=GPa)
#
#
# Indices 1 2 3 4 5 6 
#
# 1 126.5508 50.8206 46.8581 0.0000 0.0000 0.0000
# 2 50.8206 110.2871 31.6385 0.0000 0.0000 0.0000
# 3 46.8581 31.6385 161.2466 0.0000 0.0000 0.0000
# 4 0.0000 0.0000 0.0000 -21.7117 0.0000 0.0000
# 5 0.0000 0.0000 0.0000 0.0000 7.4631 0.0000
# 6 0.0000 0.0000 0.0000 0.0000 0.0000 -2.9216
#
#
#
# Elastic Compliance Matrix: (Units=1/GPa)
#
#
# Indices 1 2 3 4 5 6 
#
# 1 0.010386 -0.004154 -0.002203 0.000000 0.000000 0.000000
# 2 -0.004154 0.011269 -0.001004 0.000000 0.000000 0.000000
# 3 -0.002203 -0.001004 0.007039 0.000000 0.000000 0.000000
# 4 0.000000 0.000000 0.000000 -0.046058 0.000000 0.000000
# 5 0.000000 0.000000 0.000000 0.000000 0.133992 0.000000
# 6 0.000000 0.000000 0.000000 0.000000 0.000000 -0.342278
#
#
# Mechanical properties :
#
#
# Convention : Reuss Voigt Hill
#
# Bulk Modulus (GPa) = 71.57101 72.96876 72.26988
# Shear Modulus (GPa) = -24.23996 14.48379 -4.87809
#
# Velocity S-wave (km/s) = -3.48715 2.69554 -1.56433
# Velocity P-wave (km/s) = 4.43742 6.80393 5.74387
#
# Compressibility (1/GPa) = 0.01397214
#
# Stress axis : x y z
#
# Youngs Moduli (GPa) = 96.28537 88.73613 142.06747
#
# Poissons Ratio (x) = 0.36859 0.31299
# Poissons Ratio (y) = 0.39995 0.14265
# Poissons Ratio (z) = 0.21212 0.08910
#
# Static dielectric constant tensor:
#      x y z
#    x 1.770910 0.000000 0.000000 
#    y 0.000000 1.673030 0.000000 
#    z 0.000000 0.000000 1.796390 
# 
# From -- ./inp_files/6073.got.cif
#   From: 2010.05.17/outbox.cif.g08.bks.cpg/sg66_4_cif.got.tgz:6073.got - 2010.06.03 17:51:23.
