data_PCOD9498069
_publ_section_title
;
Structure prediction by ZEFSAII (Michael W. Deem and Ramdas Pophale) SiO2 
 PCOD9498069
Probable space group: C C C M
;
_chemical_formula_sum "Si O2"
_cell_formula_units_Z 112
_cell_length_a 12.236488
_cell_length_b 28.649908
_cell_length_c 17.697527
_cell_angle_alpha 90.000000
_cell_angle_beta 90.000000
_cell_angle_gamma 90.000000
_cell_volume 6204.297351
_symmetry_space_group_name_H-M "C C C M"
_symmetry_group_IT_number 66
_symmetry_cell_setting 'orthorhombic'
loop_
_space_group_symop_operation_xyz
x,y,z
-x,-y,z
x,-y,1/2-z
-x,y,1/2-z
-x,-y,-z
x,y,-z
-x,y,1/2+z
x,-y,1/2+z
1/2+x,1/2+y,z
1/2-x,1/2-y,z
1/2+x,1/2-y,1/2-z
1/2-x,1/2+y,1/2-z
1/2-x,1/2-y,-z
1/2+x,1/2+y,-z
1/2-x,1/2+y,1/2+z
1/2+x,1/2-y,1/2+z
loop_
_atom_site_type_symbol
_atom_site_label
_atom_site_fract_x
_atom_site_fract_y
_atom_site_fract_z
Si Si1 0.119527 0.053840 0.335576
Si Si2 0.746178 0.641115 0.091999
Si Si3 0.549228 0.698123 0.830639
Si Si4 0.141594 0.048798 0.155531
Si Si5 0.361942 0.648315 0.082623
Si Si6 0.449326 0.806649 0.329841
Si Si7 0.667291 0.784903 0.583604
O O1 0.147375 0.053747 0.246540
O O2 0.154459 0.102767 0.368126
O O3 0.989463 0.054043 0.354209
O O4 0.166887 0.004875 0.365959
O O5 0.649099 0.670240 0.132704
O O6 0.713417 0.587756 0.113671
O O7 0.856967 0.661289 0.131355
O O8 0.748825 0.646918 0.000000
O O9 0.500000 0.681684 0.750000
O O10 0.446881 0.686399 0.884926
O O11 0.585866 0.752012 0.820362
O O12 0.243842 0.670735 0.077030
O O13 0.403622 0.634469 0.000000
O O14 0.500000 0.823576 0.250000
O O15 0.554402 0.799681 0.382119
O O16 0.646075 0.764366 0.500000
O O17 0.750000 0.750000 0.627227
#
# Coordination Sequence:
#
# PCOD9498069 Si02
#       7
#    16  16  16  16  16  16  16
#     4   9  18  35  58  87 122 154 199 245 297 364
#     4  12  25  39  60  93 131 165 199 255 326 378
#     4  11  23  38  58  85 123 164 199 244 299 368
#     4   9  19  35  58  87 120 161 192 242 307 368
#     4  11  21  33  58  88 114 147 194 247 298 352
#     4  11  26  40  59  84 118 163 213 253 297 364
#     4  10  21  38  59  80 112 154 198 247 293 347
#
# _framework density 18.052005000000001
#
# number of rings (size 3 to 8) (size 9 to 14) (size 15 to 20)
#    0.000    1.571    2.857    3.000    4.000    2.857 
#    0.000    1.429    0.000    0.857    0.000    3.000 
#    0.000    0.000    0.000    0.000    0.000    0.000 
#
# Total GULP energy -311751.530425 kJ/mol
# GULP energy per Si atom -5566.991615 kJ/mol
# Density = 1.801092 g / cm^3
# Si number density = 18.052005 Si / 1000 Ang^3
#
#
#
# Elastic Constant Matrix: (Units=GPa)
#
#
# Indices 1 2 3 4 5 6 
#
# 1 108.0840 35.0209 47.0026 0.0000 0.0000 0.0000
# 2 35.0209 106.6126 35.6222 0.0000 0.0000 0.0000
# 3 47.0026 35.6222 82.0457 0.0000 0.0000 0.0000
# 4 0.0000 0.0000 0.0000 22.0002 0.0000 0.0000
# 5 0.0000 0.0000 0.0000 0.0000 30.4979 0.0000
# 6 0.0000 0.0000 0.0000 0.0000 0.0000 27.8313
#
#
#
# Elastic Compliance Matrix: (Units=1/GPa)
#
#
# Indices 1 2 3 4 5 6 
#
# 1 0.012688 -0.002034 -0.006386 0.000000 0.000000 0.000000
# 2 -0.002034 0.011298 -0.003740 0.000000 0.000000 0.000000
# 3 -0.006386 -0.003740 0.017470 0.000000 0.000000 0.000000
# 4 0.000000 0.000000 0.000000 0.045454 0.000000 0.000000
# 5 0.000000 0.000000 0.000000 0.000000 0.032789 0.000000
# 6 0.000000 0.000000 0.000000 0.000000 0.000000 0.035931
#
#
# Mechanical properties :
#
#
# Convention : Reuss Voigt Hill
#
# Bulk Modulus (GPa) = 58.35419 59.11486 58.73453
# Shear Modulus (GPa) = 26.93078 28.00566 27.46822
#
# Velocity S-wave (km/s) = 3.86663 3.94304 3.90502
# Velocity P-wave (km/s) = 7.23396 7.31766 7.27593
#
# Compressibility (1/GPa) = 0.01713673
#
# Stress axis : x y z
#
# Youngs Moduli (GPa) = 78.81403 88.51496 57.24035
#
# Poissons Ratio (x) = 0.18007 0.36551
# Poissons Ratio (y) = 0.16033 0.21406
# Poissons Ratio (z) = 0.50327 0.33102
#
# Static dielectric constant tensor:
#      x y z
#    x 1.609860 0.000000 0.000000 
#    y 0.000000 1.774540 0.000000 
#    z 0.000000 0.000000 1.699620 
# 
# From -- ./inp_files/26995.got.cif
#   From: 2010.05.17/outbox.cif.g08.bks.cpg/sg66_14_cif.got.tgz:26995.got - 2010.06.03 17:51:23.
