data_PCOD9498018
_publ_section_title
;
Structure prediction by ZEFSAII (Michael W. Deem and Ramdas Pophale) SiO2 
 PCOD9498018
Probable space group: C C C M
;
_chemical_formula_sum "Si O2"
_cell_formula_units_Z 96
_cell_length_a 23.507885
_cell_length_b 14.765445
_cell_length_c 13.934808
_cell_angle_alpha 90.000000
_cell_angle_beta 90.000000
_cell_angle_gamma 90.000000
_cell_volume 4836.832934
_symmetry_space_group_name_H-M "C C C M"
_symmetry_group_IT_number 66
_symmetry_cell_setting 'orthorhombic'
loop_
_space_group_symop_operation_xyz
x,y,z
-x,-y,z
x,-y,1/2-z
-x,y,1/2-z
-x,-y,-z
x,y,-z
-x,y,1/2+z
x,-y,1/2+z
1/2+x,1/2+y,z
1/2-x,1/2-y,z
1/2+x,1/2-y,1/2-z
1/2-x,1/2+y,1/2-z
1/2-x,1/2-y,-z
1/2+x,1/2+y,-z
1/2-x,1/2+y,1/2+z
1/2+x,1/2-y,1/2+z
loop_
_atom_site_type_symbol
_atom_site_label
_atom_site_fract_x
_atom_site_fract_y
_atom_site_fract_z
Si Si1 0.935830 0.961519 0.109149
Si Si2 0.879192 0.426684 0.885496
Si Si3 0.391087 0.138028 0.114518
Si Si4 0.908634 0.141060 0.802492
Si Si5 0.015654 0.704787 0.115097
Si Si6 0.314064 0.783796 0.231406
O O1 0.921341 0.892234 0.194050
O O2 0.900557 0.052207 0.132597
O O3 0.928299 0.928281 0.000000
O O4 0.000000 0.000000 0.119748
O O5 0.885600 0.531932 0.860141
O O6 0.938144 0.373729 0.864181
O O7 0.829164 0.372158 0.832410
O O8 0.870470 0.421302 0.000000
O O9 0.452569 0.176410 0.146749
O O10 0.340517 0.191439 0.165308
O O11 0.388713 0.145647 0.000000
O O12 0.959982 0.202817 0.841669
O O13 0.853515 0.203261 0.807526
O O14 0.013930 0.715399 0.000000
O O15 0.250000 0.750000 0.233227
#
# Coordination Sequence:
#
# PCOD9498018 Si02
#       6
#    16  16  16  16  16  16
#     4  10  22  38  60  89 123 155 194 249 309 367
#     4   9  19  39  63  92 124 153 192 242 300 366
#     4  10  21  37  62  93 125 157 189 238 303 368
#     4  10  21  38  61  87 120 159 202 248 302 364
#     4   9  18  33  63  98 127 153 186 235 303 377
#     4  11  25  41  60  83 118 164 211 256 294 342
#
# _framework density 19.847698999999999
#
# number of rings (size 3 to 8) (size 9 to 14) (size 15 to 20)
#    0.000    2.167    0.000    2.500    4.667    6.000 
#    6.000    3.333    0.000    0.000    0.000    0.000 
#    0.000    1.333    0.000    0.000    0.000    0.000 
#
# Total GULP energy -268326.567596 kJ/mol
# GULP energy per Si atom -5590.136825 kJ/mol
# Density = 1.980252 g / cm^3
# Si number density = 19.847699 Si / 1000 Ang^3
#
#
#
# Elastic Constant Matrix: (Units=GPa)
#
#
# Indices 1 2 3 4 5 6 
#
# 1 141.7397 60.6311 34.6879 0.0000 0.0000 0.0000
# 2 60.6311 109.4750 14.4957 0.0000 0.0000 0.0000
# 3 34.6879 14.4957 78.9720 0.0000 0.0000 0.0000
# 4 0.0000 0.0000 0.0000 33.3231 0.0000 0.0000
# 5 0.0000 0.0000 0.0000 0.0000 19.7508 0.0000
# 6 0.0000 0.0000 0.0000 0.0000 0.0000 15.4322
#
#
#
# Elastic Compliance Matrix: (Units=1/GPa)
#
#
# Indices 1 2 3 4 5 6 
#
# 1 0.010108 -0.005135 -0.003497 0.000000 0.000000 0.000000
# 2 -0.005135 0.011971 0.000058 0.000000 0.000000 0.000000
# 3 -0.003497 0.000058 0.014188 0.000000 0.000000 0.000000
# 4 0.000000 0.000000 0.000000 0.030009 0.000000 0.000000
# 5 0.000000 0.000000 0.000000 0.000000 0.050631 0.000000
# 6 0.000000 0.000000 0.000000 0.000000 0.000000 0.064799
#
#
# Mechanical properties :
#
#
# Convention : Reuss Voigt Hill
#
# Bulk Modulus (GPa) = 52.30482 61.09069 56.69776
# Shear Modulus (GPa) = 24.36334 28.39269 26.37801
#
# Velocity S-wave (km/s) = 3.50739 3.78634 3.64953
# Velocity P-wave (km/s) = 6.54314 7.06836 6.81081
#
# Compressibility (1/GPa) = 0.01911870
#
# Stress axis : x y z
#
# Youngs Moduli (GPa) = 98.93598 83.53750 70.48147
#
# Poissons Ratio (x) = 0.42895 0.24648
# Poissons Ratio (y) = 0.50802 -0.00410
# Poissons Ratio (z) = 0.34599 -0.00486
#
# Static dielectric constant tensor:
#      x y z
#    x 1.655590 0.000000 0.000000 
#    y 0.000000 1.712740 0.000000 
#    z 0.000000 0.000000 1.741550 
# 
# From -- ./inp_files/31212.got.cif
#   From: 2010.05.17/outbox.cif.g08.bks.cpg/sg66_16_cif.got.tgz:31212.got - 2010.06.03 17:51:23.
