data_PCOD9498339
_publ_section_title
;
Structure prediction by ZEFSAII (Michael W. Deem and Ramdas Pophale) SiO2 
 PCOD9498339
Probable space group: C C C M
;
_chemical_formula_sum "Si O2"
_cell_formula_units_Z 64
_cell_length_a 21.957982
_cell_length_b 5.064735
_cell_length_c 26.445151
_cell_angle_alpha 90.000000
_cell_angle_beta 90.000000
_cell_angle_gamma 90.000000
_cell_volume 2941.001207
_symmetry_space_group_name_H-M "C C C M"
_symmetry_group_IT_number 66
_symmetry_cell_setting 'orthorhombic'
loop_
_space_group_symop_operation_xyz
x,y,z
-x,-y,z
x,-y,1/2-z
-x,y,1/2-z
-x,-y,-z
x,y,-z
-x,y,1/2+z
x,-y,1/2+z
1/2+x,1/2+y,z
1/2-x,1/2-y,z
1/2+x,1/2-y,1/2-z
1/2-x,1/2+y,1/2-z
1/2-x,1/2-y,-z
1/2+x,1/2+y,-z
1/2-x,1/2+y,1/2+z
1/2+x,1/2-y,1/2+z
loop_
_atom_site_type_symbol
_atom_site_label
_atom_site_fract_x
_atom_site_fract_y
_atom_site_fract_z
Si Si1 0.750000 0.750000 0.587709
Si Si2 0.958656 0.746489 0.599020
Si Si3 0.143527 0.461240 0.852633
Si Si4 0.207365 0.500000 0.750000
Si Si5 0.358539 0.572522 0.446032
O O1 0.798921 0.607524 0.622704
O O2 0.709041 0.547711 0.556432
O O3 0.916714 0.641021 0.644957
O O4 0.000000 0.500000 0.582254
O O5 0.909014 0.842495 0.558171
O O6 0.000000 0.000000 0.610752
O O7 0.165392 0.401156 0.796404
O O8 0.132512 0.232366 0.893981
O O9 0.250000 0.750000 0.764248
O O10 0.366397 0.714290 0.500000
#
# Coordination Sequence:
#
# PCOD9498339 Si02
#       5
#     8  16  16   8  16
#     4  10  21  40  62 104 146 180 223 284 354 422
#     4  11  24  47  70  96 142 183 237 293 341 414
#     4  11  24  44  72 102 141 183 232 288 350 417
#     4  12  26  44  77 108 139 178 228 290 352 422
#     4  11  24  41  69 102 143 190 235 289 352 422
#
# _framework density 21.761296999999999
#
# number of rings (size 3 to 8) (size 9 to 14) (size 15 to 20)
#    0.000    1.000    3.750    2.625    3.500    7.000 
#    0.000    0.625    5.500    0.000    0.000    0.000 
#    0.000    0.000    0.000    0.000    0.000    0.000 
#
# Total GULP energy -178612.082158 kJ/mol
# GULP energy per Si atom -5581.627567 kJ/mol
# Density = 2.171177 g / cm^3
# Si number density = 21.761297 Si / 1000 Ang^3
#
#
#
# Elastic Constant Matrix: (Units=GPa)
#
#
# Indices 1 2 3 4 5 6 
#
# 1 125.0646 49.7221 26.3210 0.0000 0.0000 0.0000
# 2 49.7221 109.5951 32.8298 0.0000 0.0000 0.0000
# 3 26.3210 32.8298 148.7630 0.0000 0.0000 0.0000
# 4 0.0000 0.0000 0.0000 26.3308 0.0000 0.0000
# 5 0.0000 0.0000 0.0000 0.0000 -10.3430 0.0000
# 6 0.0000 0.0000 0.0000 0.0000 0.0000 49.7859
#
#
#
# Elastic Compliance Matrix: (Units=1/GPa)
#
#
# Indices 1 2 3 4 5 6 
#
# 1 0.009846 -0.004224 -0.000810 0.000000 0.000000 0.000000
# 2 -0.004224 0.011583 -0.001809 0.000000 0.000000 0.000000
# 3 -0.000810 -0.001809 0.007265 0.000000 0.000000 0.000000
# 4 0.000000 0.000000 0.000000 0.037978 0.000000 0.000000
# 5 0.000000 0.000000 0.000000 0.000000 -0.096684 0.000000
# 6 0.000000 0.000000 0.000000 0.000000 0.000000 0.020086
#
#
# Mechanical properties :
#
#
# Convention : Reuss Voigt Hill
#
# Bulk Modulus (GPa) = 66.63371 66.79653 66.71512
# Shear Modulus (GPa) = 570.67069 31.45808 301.06438
#
# Velocity S-wave (km/s) = 16.21143 3.80623 11.77493
# Velocity P-wave (km/s) = 19.52180 7.07660 14.68296
#
# Compressibility (1/GPa) = 0.01500742
#
# Stress axis : x y z
#
# Youngs Moduli (GPa) = 101.56649 86.33458 137.65496
#
# Poissons Ratio (x) = 0.36471 0.11147
# Poissons Ratio (y) = 0.42905 0.24898
# Poissons Ratio (z) = 0.08225 0.15616
#
# Static dielectric constant tensor:
#      x y z
#    x 1.805690 0.000000 0.000000 
#    y 0.000000 1.907980 0.000000 
#    z 0.000000 0.000000 1.811440 
# 
# From -- ./inp_files/59726.got.cif
#   From: 2010.05.17/outbox.cif.g08.bks.cpg/sg66_30_cif.got.tgz:59726.got - 2010.06.03 17:51:23.
