data_PCOD9498498
_publ_section_title
;
Structure prediction by ZEFSAII (Michael W. Deem and Ramdas Pophale) SiO2 
 PCOD9498498
Probable space group: C C C M
;
_chemical_formula_sum "Si O2"
_cell_formula_units_Z 88
_cell_length_a 21.925893
_cell_length_b 12.117490
_cell_length_c 14.852869
_cell_angle_alpha 90.000000
_cell_angle_beta 90.000000
_cell_angle_gamma 90.000000
_cell_volume 3946.211075
_symmetry_space_group_name_H-M "C C C M"
_symmetry_group_IT_number 66
_symmetry_cell_setting 'orthorhombic'
loop_
_space_group_symop_operation_xyz
x,y,z
-x,-y,z
x,-y,1/2-z
-x,y,1/2-z
-x,-y,-z
x,y,-z
-x,y,1/2+z
x,-y,1/2+z
1/2+x,1/2+y,z
1/2-x,1/2-y,z
1/2+x,1/2-y,1/2-z
1/2-x,1/2+y,1/2-z
1/2-x,1/2-y,-z
1/2+x,1/2+y,-z
1/2-x,1/2+y,1/2+z
1/2+x,1/2-y,1/2+z
loop_
_atom_site_type_symbol
_atom_site_label
_atom_site_fract_x
_atom_site_fract_y
_atom_site_fract_z
Si Si1 0.062569 0.196829 0.153044
Si Si2 0.080045 0.377437 0.500000
Si Si3 0.719783 0.865339 0.104490
Si Si4 0.930851 0.170070 0.130772
Si Si5 0.089911 0.558489 0.656811
Si Si6 0.659624 0.477548 0.642427
O O1 0.068984 0.187592 0.261147
O O2 0.056538 0.326413 0.134171
O O3 0.122115 0.133718 0.118925
O O4 0.001786 0.139449 0.115854
O O5 0.083162 0.280533 0.422084
O O6 0.079843 0.473167 0.577858
O O7 0.750000 0.750000 0.136536
O O8 0.660954 0.903259 0.159433
O O9 0.772192 0.958216 0.109106
O O10 0.701361 0.850486 0.000000
O O11 0.881407 0.077696 0.107491
O O12 0.072815 0.500000 0.750000
O O13 0.662791 0.500000 0.750000
#
# Coordination Sequence:
#
# PCOD9498498 Si02
#       6
#    16   8  16  16  16  16
#     4  10  21  43  70  96 133 180 226 275 340 415
#     4  12  26  45  63 102 138 175 232 277 347 417
#     4  11  23  41  66  96 128 170 228 286 345 411
#     4  10  23  42  66 101 134 176 224 278 346 405
#     4  12  24  44  68  97 137 179 228 284 346 417
#     4  10  21  42  70  98 132 175 225 284 341 411
#
# _framework density 22.299869999999999
#
# number of rings (size 3 to 8) (size 9 to 14) (size 15 to 20)
#    0.000    1.273    4.545    1.091    1.273    4.364 
#    1.636    2.727    0.000    0.000    0.000    0.000 
#    0.000    0.000    0.000    0.000    0.000    0.000 
#
# Total GULP energy -245008.618785 kJ/mol
# GULP energy per Si atom -5568.377700 kJ/mol
# Density = 2.224911 g / cm^3
# Si number density = 22.299870 Si / 1000 Ang^3
#
#
#
# Elastic Constant Matrix: (Units=GPa)
#
#
# Indices 1 2 3 4 5 6 
#
# 1 90.0567 26.4355 -2.8901 0.0000 0.0000 0.0000
# 2 26.4355 127.9355 28.9851 0.0000 0.0000 0.0000
# 3 -2.8901 28.9851 94.2083 0.0000 0.0000 0.0000
# 4 0.0000 0.0000 0.0000 24.8119 0.0000 0.0000
# 5 0.0000 0.0000 0.0000 0.0000 -143.4516 0.0000
# 6 0.0000 0.0000 0.0000 0.0000 0.0000 27.7285
#
#
#
# Elastic Compliance Matrix: (Units=1/GPa)
#
#
# Indices 1 2 3 4 5 6 
#
# 1 0.011948 -0.002743 0.001211 0.000000 0.000000 0.000000
# 2 -0.002743 0.009032 -0.002863 0.000000 0.000000 0.000000
# 3 0.001211 -0.002863 0.011533 0.000000 0.000000 0.000000
# 4 0.000000 0.000000 0.000000 0.040303 0.000000 0.000000
# 5 0.000000 0.000000 0.000000 0.000000 -0.006971 0.000000
# 6 0.000000 0.000000 0.000000 0.000000 0.000000 0.036064
#
#
# Mechanical properties :
#
#
# Convention : Reuss Voigt Hill
#
# Bulk Modulus (GPa) = 42.15561 46.36242 44.25901
# Shear Modulus (GPa) = 42.15583 -0.87092 20.64246
#
# Velocity S-wave (km/s) = 4.35260 -0.62562 3.04579
# Velocity P-wave (km/s) = 6.64870 4.50707 5.67974
#
# Compressibility (1/GPa) = 0.02372164
#
# Stress axis : x y z
#
# Youngs Moduli (GPa) = 83.69469 110.71868 86.70940
#
# Poissons Ratio (x) = 0.30372 -0.10496
# Poissons Ratio (y) = 0.22959 0.24825
# Poissons Ratio (z) = -0.10131 0.31699
#
# Static dielectric constant tensor:
#      x y z
#    x 1.849100 0.000000 0.000000 
#    y 0.000000 1.800710 0.000000 
#    z 0.000000 0.000000 1.844550 
# 
# From -- ./inp_files/26530.got.cif
#   From: 2010.05.17/outbox.cif.g08.bks.cpg/sg66_14_cif.got.tgz:26530.got - 2010.06.03 17:51:23.
