data_PCOD9498469
_publ_section_title
;
Structure prediction by ZEFSAII (Michael W. Deem and Ramdas Pophale) SiO2 
 PCOD9498469
Probable space group: C C C M
;
_chemical_formula_sum "Si O2"
_cell_formula_units_Z 112
_cell_length_a 13.001883
_cell_length_b 14.788105
_cell_length_c 29.750524
_cell_angle_alpha 90.000000
_cell_angle_beta 90.000000
_cell_angle_gamma 90.000000
_cell_volume 5720.228778
_symmetry_space_group_name_H-M "C C C M"
_symmetry_group_IT_number 66
_symmetry_cell_setting 'orthorhombic'
loop_
_space_group_symop_operation_xyz
x,y,z
-x,-y,z
x,-y,1/2-z
-x,y,1/2-z
-x,-y,-z
x,y,-z
-x,y,1/2+z
x,-y,1/2+z
1/2+x,1/2+y,z
1/2-x,1/2-y,z
1/2+x,1/2-y,1/2-z
1/2-x,1/2+y,1/2-z
1/2-x,1/2-y,-z
1/2+x,1/2+y,-z
1/2-x,1/2+y,1/2+z
1/2+x,1/2-y,1/2+z
loop_
_atom_site_type_symbol
_atom_site_label
_atom_site_fract_x
_atom_site_fract_y
_atom_site_fract_z
Si Si1 0.730401 0.655158 0.305365
Si Si2 0.601616 0.440231 0.449968
Si Si3 0.129601 0.735755 0.448101
Si Si4 0.354655 0.693425 0.707903
Si Si5 0.531202 0.848136 0.704728
Si Si6 0.792845 0.970317 0.855792
Si Si7 0.436538 0.921248 0.383072
O O1 0.750000 0.750000 0.331988
O O2 0.660681 0.665029 0.260381
O O3 0.846868 0.648395 0.288620
O O4 0.695828 0.568967 0.333470
O O5 0.500000 0.500000 0.450318
O O6 0.651483 0.448443 0.500000
O O7 0.578159 0.333921 0.444204
O O8 0.666320 0.468321 0.406718
O O9 0.124544 0.706516 0.500000
O O10 0.250000 0.750000 0.436705
O O11 0.083446 0.662590 0.415307
O O12 0.250000 0.750000 0.696902
O O13 0.456407 0.757292 0.703263
O O14 0.348746 0.606362 0.674967
O O15 0.500000 0.897274 0.750000
O O16 0.508579 0.893913 0.658012
O O17 0.672083 0.948583 0.861000
O O18 0.500000 0.000000 0.407561
#
# Coordination Sequence:
#
# PCOD9498469 Si02
#       7
#    16  16  16  16  16  16  16
#     4  11  24  42  60  88 133 176 216 263 326 386
#     4  10  23  44  70 100 130 169 217 268 330 393
#     4  10  21  41  71  97 126 164 212 271 326 384
#     4  11  22  38  65  91 128 168 216 273 316 381
#     4  12  22  39  62  89 127 174 211 267 325 374
#     4  12  23  40  65  98 126 169 215 273 319 388
#     4  12  24  37  61 101 130 168 214 267 325 393
#
# _framework density 19.579636000000001
#
# number of rings (size 3 to 8) (size 9 to 14) (size 15 to 20)
#    0.000    0.857    7.143    1.286    0.000    2.857 
#    0.000    0.000    0.000    0.429    0.000    0.000 
#    0.000    0.000    0.000    0.000    0.000    0.000 
#
# Total GULP energy -312134.780686 kJ/mol
# GULP energy per Si atom -5573.835369 kJ/mol
# Density = 1.953507 g / cm^3
# Si number density = 19.579636 Si / 1000 Ang^3
#
#
#
# Elastic Constant Matrix: (Units=GPa)
#
#
# Indices 1 2 3 4 5 6 
#
# 1 41.1472 12.1382 13.2563 0.0000 0.0000 0.0000
# 2 12.1382 130.5847 61.1571 0.0000 0.0000 0.0000
# 3 13.2563 61.1571 102.3749 0.0000 0.0000 0.0000
# 4 0.0000 0.0000 0.0000 61.7856 0.0000 0.0000
# 5 0.0000 0.0000 0.0000 0.0000 7.8892 0.0000
# 6 0.0000 0.0000 0.0000 0.0000 0.0000 11.6906
#
#
#
# Elastic Compliance Matrix: (Units=1/GPa)
#
#
# Indices 1 2 3 4 5 6 
#
# 1 0.025483 -0.001143 -0.002617 0.000000 0.000000 0.000000
# 2 -0.001143 0.010684 -0.006234 0.000000 0.000000 0.000000
# 3 -0.002617 -0.006234 0.013831 0.000000 0.000000 0.000000
# 4 0.000000 0.000000 0.000000 0.016185 0.000000 0.000000
# 5 0.000000 0.000000 0.000000 0.000000 0.126755 0.000000
# 6 0.000000 0.000000 0.000000 0.000000 0.000000 0.085539
#
#
# Mechanical properties :
#
#
# Convention : Reuss Voigt Hill
#
# Bulk Modulus (GPa) = 33.32272 49.69000 41.50636
# Shear Modulus (GPa) = 16.20908 28.77677 22.49293
#
# Velocity S-wave (km/s) = 2.88037 3.83786 3.39306
# Velocity P-wave (km/s) = 5.30264 6.71360 6.04940
#
# Compressibility (1/GPa) = 0.03000956
#
# Stress axis : x y z
#
# Youngs Moduli (GPa) = 39.24142 93.59896 72.30042
#
# Poissons Ratio (x) = 0.10700 0.18920
# Poissons Ratio (y) = 0.04486 0.45075
# Poissons Ratio (z) = 0.10269 0.58353
#
# Static dielectric constant tensor:
#      x y z
#    x 1.475740 0.000000 0.000000 
#    y 0.000000 1.825510 0.000000 
#    z 0.000000 0.000000 1.688550 
# 
# From -- ./inp_files/69088.got.cif
#   From: 2010.05.17/outbox.cif.g08.bks.cpg/sg66_35_cif.got.tgz:69088.got - 2010.06.03 17:51:23.
