data_PCOD9498690
_publ_section_title
;
Structure prediction by ZEFSAII (Michael W. Deem and Ramdas Pophale) SiO2 
 PCOD9498690
Probable space group: C C C M
;
_chemical_formula_sum "Si O2"
_cell_formula_units_Z 88
_cell_length_a 11.543806
_cell_length_b 13.153103
_cell_length_c 31.732743
_cell_angle_alpha 90.000000
_cell_angle_beta 90.000000
_cell_angle_gamma 90.000000
_cell_volume 4818.200352
_symmetry_space_group_name_H-M "C C C M"
_symmetry_group_IT_number 66
_symmetry_cell_setting 'orthorhombic'
loop_
_space_group_symop_operation_xyz
x,y,z
-x,-y,z
x,-y,1/2-z
-x,y,1/2-z
-x,-y,-z
x,y,-z
-x,y,1/2+z
x,-y,1/2+z
1/2+x,1/2+y,z
1/2-x,1/2-y,z
1/2+x,1/2-y,1/2-z
1/2-x,1/2+y,1/2-z
1/2-x,1/2-y,-z
1/2+x,1/2+y,-z
1/2-x,1/2+y,1/2+z
1/2+x,1/2-y,1/2+z
loop_
_atom_site_type_symbol
_atom_site_label
_atom_site_fract_x
_atom_site_fract_y
_atom_site_fract_z
Si Si1 0.250000 0.250000 0.186633
Si Si2 0.883723 0.067393 0.450213
Si Si3 0.134540 0.477271 0.912762
Si Si4 0.411793 0.747046 0.384630
Si Si5 0.847627 0.328477 0.853054
Si Si6 0.862706 0.612227 0.256238
O O1 0.340624 0.298769 0.154425
O O2 0.185779 0.324479 0.217738
O O3 0.883985 0.088588 0.500000
O O4 0.756107 0.018910 0.439258
O O5 0.900351 0.170415 0.423340
O O6 0.000000 0.000000 0.441137
O O7 0.131187 0.360485 0.897054
O O8 0.150250 0.562104 0.876275
O O9 0.000000 0.500000 0.929717
O O10 0.537175 0.770072 0.366567
O O11 0.750000 0.250000 0.867049
O O12 0.838841 0.346980 0.802981
O O13 0.814186 0.500000 0.250000
O O14 0.000000 0.609429 0.250000
#
# Coordination Sequence:
#
# PCOD9498690 Si02
#       6
#     8  16  16  16  16  16
#     4  12  20  38  59  88 120 154 209 252 302 358
#     4  11  24  43  66  94 127 163 203 262 327 385
#     4  10  22  39  65  92 121 160 210 255 310 376
#     4  11  22  39  65  89 120 165 209 255 309 380
#     4  11  22  39  60  89 125 166 205 258 320 368
#     4  11  23  35  57  85 122 163 210 257 296 364
#
# _framework density 18.26408
#
# number of rings (size 3 to 8) (size 9 to 14) (size 15 to 20)
#    0.000    1.091    4.545    2.182    5.091    1.818 
#    0.000    2.727    0.000   10.909    0.000    0.000 
#    0.000    0.000    0.000    0.000    0.000    0.000 
#
# Total GULP energy -245009.123286 kJ/mol
# GULP energy per Si atom -5568.389166 kJ/mol
# Density = 1.822251 g / cm^3
# Si number density = 18.264080 Si / 1000 Ang^3
#
#
#
# Elastic Constant Matrix: (Units=GPa)
#
#
# Indices 1 2 3 4 5 6 
#
# 1 134.4018 49.9335 61.5775 0.0000 0.0000 0.0000
# 2 49.9335 88.6814 53.8190 0.0000 0.0000 0.0000
# 3 61.5775 53.8190 116.5992 0.0000 0.0000 0.0000
# 4 0.0000 0.0000 0.0000 33.0678 0.0000 0.0000
# 5 0.0000 0.0000 0.0000 0.0000 29.6902 0.0000
# 6 0.0000 0.0000 0.0000 0.0000 0.0000 45.6890
#
#
#
# Elastic Compliance Matrix: (Units=1/GPa)
#
#
# Indices 1 2 3 4 5 6 
#
# 1 0.010567 -0.003561 -0.003937 0.000000 0.000000 0.000000
# 2 -0.003561 0.016864 -0.005904 0.000000 0.000000 0.000000
# 3 -0.003937 -0.005904 0.013381 0.000000 0.000000 0.000000
# 4 0.000000 0.000000 0.000000 0.030241 0.000000 0.000000
# 5 0.000000 0.000000 0.000000 0.000000 0.033681 0.000000
# 6 0.000000 0.000000 0.000000 0.000000 0.000000 0.021887
#
#
# Mechanical properties :
#
#
# Convention : Reuss Voigt Hill
#
# Bulk Modulus (GPa) = 71.38258 74.48250 72.93254
# Shear Modulus (GPa) = 31.62698 33.31288 32.46993
#
# Velocity S-wave (km/s) = 4.16582 4.27541 4.22097
# Velocity P-wave (km/s) = 7.89349 8.07723 7.98589
#
# Compressibility (1/GPa) = 0.01400902
#
# Stress axis : x y z
#
# Youngs Moduli (GPa) = 94.63377 59.29820 74.73537
#
# Poissons Ratio (x) = 0.21114 0.29424
# Poissons Ratio (y) = 0.33695 0.44120
# Poissons Ratio (z) = 0.37258 0.35007
#
# Static dielectric constant tensor:
#      x y z
#    x 1.682040 0.000000 0.000000 
#    y 0.000000 1.592470 0.000000 
#    z 0.000000 0.000000 1.509600 
# 
# From -- ./inp_files/63594.got.cif
#   From: 2010.05.17/outbox.cif.g08.bks.cpg/sg66_32_cif.got.tgz:63594.got - 2010.06.03 17:51:23.
