data_PCOD9498699
_publ_section_title
;
Structure prediction by ZEFSAII (Michael W. Deem and Ramdas Pophale) SiO2 
 PCOD9498699
Probable space group: C C C M
;
_chemical_formula_sum "Si O2"
_cell_formula_units_Z 56
_cell_length_a 30.193757
_cell_length_b 5.546466
_cell_length_c 14.458496
_cell_angle_alpha 90.000000
_cell_angle_beta 90.000000
_cell_angle_gamma 90.000000
_cell_volume 2421.344757
_symmetry_space_group_name_H-M "C C C M"
_symmetry_group_IT_number 66
_symmetry_cell_setting 'orthorhombic'
loop_
_space_group_symop_operation_xyz
x,y,z
-x,-y,z
x,-y,1/2-z
-x,y,1/2-z
-x,-y,-z
x,y,-z
-x,y,1/2+z
x,-y,1/2+z
1/2+x,1/2+y,z
1/2-x,1/2-y,z
1/2+x,1/2-y,1/2-z
1/2-x,1/2+y,1/2-z
1/2-x,1/2-y,-z
1/2+x,1/2+y,-z
1/2-x,1/2+y,1/2+z
1/2+x,1/2-y,1/2+z
loop_
_atom_site_type_symbol
_atom_site_label
_atom_site_fract_x
_atom_site_fract_y
_atom_site_fract_z
Si Si1 0.457203 0.166035 0.899115
Si Si2 0.128250 0.610829 0.852725
Si Si3 0.226378 0.498556 0.637211
Si Si4 0.915888 0.000000 0.250000
O O1 0.447656 0.330352 0.810454
O O2 0.500000 0.000000 0.886070
O O3 0.413974 0.996920 0.902519
O O4 0.461121 0.290310 0.000000
O O5 0.127778 0.500000 0.750000
O O6 0.175379 0.535419 0.892292
O O7 0.116866 0.886450 0.827830
O O8 0.226866 0.500000 0.750000
O O9 0.250000 0.750000 0.608896
O O10 0.250000 0.250000 0.608787
#
# Coordination Sequence:
#
# PCOD9498699 Si02
#       4
#    16  16  16   8
#     4  10  23  42  64  94 131 171 218 275 343 409
#     4   9  20  34  58  90 127 165 219 275 338 394
#     4   9  18  29  53  87 127 169 222 279 337 400
#     4  10  22  39  68  96 128 174 228 280 337 414
#
# _framework density 23.127642000000002
#
# number of rings (size 3 to 8) (size 9 to 14) (size 15 to 20)
#    0.000    2.571    0.000    0.000   14.000    8.571 
#    0.000    2.857    0.000    2.571    0.000    0.000 
#    0.000    0.000    0.000    0.000    0.000    0.000 
#
# Total GULP energy -156189.033146 kJ/mol
# GULP energy per Si atom -5578.179755 kJ/mol
# Density = 2.307500 g / cm^3
# Si number density = 23.127642 Si / 1000 Ang^3
#
#
#
# Elastic Constant Matrix: (Units=GPa)
#
#
# Indices 1 2 3 4 5 6 
#
# 1 237.1632 91.1813 45.4775 0.0000 0.0000 0.0000
# 2 91.1813 120.8759 36.6544 0.0000 0.0000 0.0000
# 3 45.4775 36.6544 111.7560 0.0000 0.0000 0.0000
# 4 0.0000 0.0000 0.0000 0.3879 0.0000 0.0000
# 5 0.0000 0.0000 0.0000 0.0000 123.2709 0.0000
# 6 0.0000 0.0000 0.0000 0.0000 0.0000 29.0256
#
#
#
# Elastic Compliance Matrix: (Units=1/GPa)
#
#
# Indices 1 2 3 4 5 6 
#
# 1 0.006052 -0.004240 -0.001072 0.000000 0.000000 0.000000
# 2 -0.004240 0.012158 -0.002262 0.000000 0.000000 0.000000
# 3 -0.001072 -0.002262 0.010126 0.000000 0.000000 0.000000
# 4 0.000000 0.000000 0.000000 2.578209 0.000000 0.000000
# 5 0.000000 0.000000 0.000000 0.000000 0.008112 0.000000
# 6 0.000000 0.000000 0.000000 0.000000 0.000000 0.034452
#
#
# Mechanical properties :
#
#
# Convention : Reuss Voigt Hill
#
# Bulk Modulus (GPa) = 75.83107 90.71352 83.27230
# Shear Modulus (GPa) = 1.87360 50.30234 26.08797
#
# Velocity S-wave (km/s) = 0.90104 4.66874 3.36221
# Velocity P-wave (km/s) = 5.82595 8.26867 7.15237
#
# Compressibility (1/GPa) = 0.01318721
#
# Stress axis : x y z
#
# Youngs Moduli (GPa) = 165.22365 82.25315 98.75339
#
# Poissons Ratio (x) = 0.34879 0.10588
# Poissons Ratio (y) = 0.70062 0.22337
# Poissons Ratio (z) = 0.17714 0.18605
#
# Static dielectric constant tensor:
#      x y z
#    x 1.844490 0.000000 0.000000 
#    y 0.000000 2.181990 0.000000 
#    z 0.000000 0.000000 1.888660 
# 
# From -- ./inp_files/34983.got.cif
#   From: 2010.05.17/outbox.cif.g08.bks.cpg/sg66_18_cif.got.tgz:34983.got - 2010.06.03 17:51:23.
