data_PCOD9498493
_publ_section_title
;
Structure prediction by ZEFSAII (Michael W. Deem and Ramdas Pophale) SiO2 
 PCOD9498493
Probable space group: C C C M
;
_chemical_formula_sum "Si O2"
_cell_formula_units_Z 88
_cell_length_a 9.012283
_cell_length_b 24.380855
_cell_length_c 19.985288
_cell_angle_alpha 90.000000
_cell_angle_beta 90.000000
_cell_angle_gamma 90.000000
_cell_volume 4391.310675
_symmetry_space_group_name_H-M "C C C M"
_symmetry_group_IT_number 66
_symmetry_cell_setting 'orthorhombic'
loop_
_space_group_symop_operation_xyz
x,y,z
-x,-y,z
x,-y,1/2-z
-x,y,1/2-z
-x,-y,-z
x,y,-z
-x,y,1/2+z
x,-y,1/2+z
1/2+x,1/2+y,z
1/2-x,1/2-y,z
1/2+x,1/2-y,1/2-z
1/2-x,1/2+y,1/2-z
1/2-x,1/2-y,-z
1/2+x,1/2+y,-z
1/2-x,1/2+y,1/2+z
1/2+x,1/2-y,1/2+z
loop_
_atom_site_type_symbol
_atom_site_label
_atom_site_fract_x
_atom_site_fract_y
_atom_site_fract_z
Si Si1 0.162431 0.850383 0.275510
Si Si2 0.292663 0.546100 0.076359
Si Si3 0.107534 0.654480 0.572087
Si Si4 0.091689 0.399827 0.314197
Si Si5 0.121864 0.078995 0.103749
Si Si6 0.750000 0.750000 0.129481
O O1 0.286263 0.859856 0.219425
O O2 0.145965 0.906560 0.318329
O O3 0.200243 0.799522 0.323118
O O4 0.000000 0.838469 0.250000
O O5 0.179303 0.560222 0.135741
O O6 0.446808 0.579915 0.086860
O O7 0.328764 0.481739 0.083782
O O8 0.240564 0.555597 0.000000
O O9 0.035444 0.644122 0.500000
O O10 0.266835 0.623069 0.571035
O O11 0.131121 0.719179 0.583382
O O12 0.019590 0.631385 0.635752
O O13 0.000000 0.422459 0.250000
#
# Coordination Sequence:
#
# PCOD9498493 Si02
#       6
#    16  16  16  16  16   8
#     4  11  23  43  65  95 124 169 213 265 320 378
#     4  11  23  41  66  94 126 171 216 262 315 381
#     4  11  23  43  66  96 130 167 213 267 324 381
#     4  12  24  43  61  93 134 170 209 265 319 381
#     4  10  21  42  68  92 124 168 214 261 312 385
#     4  10  23  38  72  90 123 168 212 264 321 386
#
# _framework density 20.039574000000002
#
# number of rings (size 3 to 8) (size 9 to 14) (size 15 to 20)
#    0.000    1.091    5.455    3.000    2.545    1.455 
#    3.273    1.818    0.000    1.091    0.000    0.000 
#    0.000    0.000    0.000    0.000    0.000    0.000 
#
# Total GULP energy -245240.442558 kJ/mol
# GULP energy per Si atom -5573.646422 kJ/mol
# Density = 1.999396 g / cm^3
# Si number density = 20.039574 Si / 1000 Ang^3
#
#
#
# Elastic Constant Matrix: (Units=GPa)
#
#
# Indices 1 2 3 4 5 6 
#
# 1 83.2073 26.4619 56.4511 0.0000 0.0000 0.0000
# 2 26.4619 66.7492 37.1630 0.0000 0.0000 0.0000
# 3 56.4511 37.1630 170.2286 0.0000 0.0000 0.0000
# 4 0.0000 0.0000 0.0000 -91.7248 0.0000 0.0000
# 5 0.0000 0.0000 0.0000 0.0000 7.4186 0.0000
# 6 0.0000 0.0000 0.0000 0.0000 0.0000 16.7877
#
#
#
# Elastic Compliance Matrix: (Units=1/GPa)
#
#
# Indices 1 2 3 4 5 6 
#
# 1 0.016372 -0.003948 -0.004568 0.000000 0.000000 0.000000
# 2 -0.003948 0.018006 -0.002622 0.000000 0.000000 0.000000
# 3 -0.004568 -0.002622 0.007962 0.000000 0.000000 0.000000
# 4 0.000000 0.000000 0.000000 -0.010902 0.000000 0.000000
# 5 0.000000 0.000000 0.000000 0.000000 0.134796 0.000000
# 6 0.000000 0.000000 0.000000 0.000000 0.000000 0.059567
#
#
# Mechanical properties :
#
#
# Convention : Reuss Voigt Hill
#
# Bulk Modulus (GPa) = 49.83554 62.25968 56.04761
# Shear Modulus (GPa) = 19.62596 -0.16310 9.73143
#
# Velocity S-wave (km/s) = 3.13287 -0.28559 2.20605
# Velocity P-wave (km/s) = 6.16515 5.57019 5.87521
#
# Compressibility (1/GPa) = 0.02006600
#
# Stress axis : x y z
#
# Youngs Moduli (GPa) = 61.07815 55.53656 125.60363
#
# Poissons Ratio (x) = 0.21924 0.57371
# Poissons Ratio (y) = 0.24111 0.32932
# Poissons Ratio (z) = 0.27898 0.14561
#
# Static dielectric constant tensor:
#      x y z
#    x 1.753040 0.000000 0.000000 
#    y 0.000000 1.675830 0.000000 
#    z 0.000000 0.000000 1.757080 
# 
# From -- ./inp_files/47149.got.cif
#   From: 2010.05.17/outbox.cif.g08.bks.cpg/sg66_24_cif.got.tgz:47149.got - 2010.06.03 17:51:23.
