data_PCOD9498231
_publ_section_title
;
Structure prediction by ZEFSAII (Michael W. Deem and Ramdas Pophale) SiO2 
 PCOD9498231
Probable space group: C C C M
;
_chemical_formula_sum "Si O2"
_cell_formula_units_Z 80
_cell_length_a 26.972308
_cell_length_b 4.970047
_cell_length_c 26.192738
_cell_angle_alpha 90.000000
_cell_angle_beta 90.000000
_cell_angle_gamma 90.000000
_cell_volume 3511.231830
_symmetry_space_group_name_H-M "C C C M"
_symmetry_group_IT_number 66
_symmetry_cell_setting 'orthorhombic'
loop_
_space_group_symop_operation_xyz
x,y,z
-x,-y,z
x,-y,1/2-z
-x,y,1/2-z
-x,-y,-z
x,y,-z
-x,y,1/2+z
x,-y,1/2+z
1/2+x,1/2+y,z
1/2-x,1/2-y,z
1/2+x,1/2-y,1/2-z
1/2-x,1/2+y,1/2-z
1/2-x,1/2-y,-z
1/2+x,1/2+y,-z
1/2-x,1/2+y,1/2+z
1/2+x,1/2-y,1/2+z
loop_
_atom_site_type_symbol
_atom_site_label
_atom_site_fract_x
_atom_site_fract_y
_atom_site_fract_z
Si Si1 0.204665 0.427267 0.058877
Si Si2 0.359631 0.412384 0.559206
Si Si3 0.911437 0.633370 0.193950
Si Si4 0.448052 0.623123 0.861349
Si Si5 0.195888 0.747070 0.712160
O O1 0.250000 0.250000 0.079656
O O2 0.183509 0.708870 0.079644
O O3 0.159981 0.215446 0.058811
O O4 0.219237 0.487868 0.000000
O O5 0.369389 0.334098 0.500000
O O6 0.407306 0.399679 0.594502
O O7 0.912260 0.500000 0.250000
O O8 0.941575 0.426830 0.158520
O O9 0.853256 0.682447 0.180045
O O10 0.934389 0.926683 0.186137
O O11 0.500000 0.500000 0.879548
O O12 0.201254 0.500000 0.750000
O O13 0.250000 0.750000 0.686540
O O14 0.186489 0.000000 0.750000
#
# Coordination Sequence:
#
# PCOD9498231 Si02
#       5
#    16  16  16  16  16
#     4   9  17  33  60  91 123 159 195 237 296 364
#     4  10  21  39  62  88 122 161 200 246 302 363
#     4  11  23  42  65  89 120 157 198 249 308 366
#     4  12  26  42  61  87 118 155 208 263 305 355
#     4   9  17  33  59  88 119 155 190 231 291 362
#
# _framework density 22.784027999999999
#
# number of rings (size 3 to 8) (size 9 to 14) (size 15 to 20)
#    0.000    1.800    0.000    5.400    0.000    5.200 
#    0.000    6.000    0.000    6.000    0.000    0.000 
#    0.000    0.000    0.000    0.000    0.000    0.000 
#
# Total GULP energy -223256.291537 kJ/mol
# GULP energy per Si atom -5581.407288 kJ/mol
# Density = 2.273217 g / cm^3
# Si number density = 22.784028 Si / 1000 Ang^3
#
#
#
# Elastic Constant Matrix: (Units=GPa)
#
#
# Indices 1 2 3 4 5 6 
#
# 1 121.3273 22.6246 18.7240 0.0000 0.0000 0.0000
# 2 22.6246 137.0826 11.2480 0.0000 0.0000 0.0000
# 3 18.7240 11.2480 78.9592 0.0000 0.0000 0.0000
# 4 0.0000 0.0000 0.0000 9.6699 0.0000 0.0000
# 5 0.0000 0.0000 0.0000 0.0000 22.1747 0.0000
# 6 0.0000 0.0000 0.0000 0.0000 0.0000 36.4108
#
#
#
# Elastic Compliance Matrix: (Units=1/GPa)
#
#
# Indices 1 2 3 4 5 6 
#
# 1 0.008776 -0.001293 -0.001897 0.000000 0.000000 0.000000
# 2 -0.001293 0.007572 -0.000772 0.000000 0.000000 0.000000
# 3 -0.001897 -0.000772 0.013225 0.000000 0.000000 0.000000
# 4 0.000000 0.000000 0.000000 0.103414 0.000000 0.000000
# 5 0.000000 0.000000 0.000000 0.000000 0.045097 0.000000
# 6 0.000000 0.000000 0.000000 0.000000 0.000000 0.027464
#
#
# Mechanical properties :
#
#
# Convention : Reuss Voigt Hill
#
# Bulk Modulus (GPa) = 46.19224 49.17361 47.68293
# Shear Modulus (GPa) = 22.65653 32.63589 27.64621
#
# Velocity S-wave (km/s) = 3.15684 3.78881 3.48717
# Velocity P-wave (km/s) = 5.79702 6.38510 6.09815
#
# Compressibility (1/GPa) = 0.02164866
#
# Stress axis : x y z
#
# Youngs Moduli (GPa) = 113.94733 132.07280 75.61674
#
# Poissons Ratio (x) = 0.17074 0.14344
# Poissons Ratio (y) = 0.14731 0.05838
# Poissons Ratio (z) = 0.21615 0.10197
#
# Static dielectric constant tensor:
#      x y z
#    x 1.931410 0.000000 0.000000 
#    y 0.000000 1.766540 0.000000 
#    z 0.000000 0.000000 1.826480 
# 
# From -- ./inp_files/60330.got.cif
#   From: 2010.05.17/outbox.cif.g08.bks.cpg/sg66_31_cif.got.tgz:60330.got - 2010.06.03 17:51:23.
