data_PCOD9498739
_publ_section_title
;
Structure prediction by ZEFSAII (Michael W. Deem and Ramdas Pophale) SiO2 
 PCOD9498739
Probable space group: C C C M
;
_chemical_formula_sum "Si O2"
_cell_formula_units_Z 64
_cell_length_a 9.192316
_cell_length_b 27.699899
_cell_length_c 10.886596
_cell_angle_alpha 90.000000
_cell_angle_beta 90.000000
_cell_angle_gamma 90.000000
_cell_volume 2772.012840
_symmetry_space_group_name_H-M "C C C M"
_symmetry_group_IT_number 66
_symmetry_cell_setting 'orthorhombic'
loop_
_space_group_symop_operation_xyz
x,y,z
-x,-y,z
x,-y,1/2-z
-x,y,1/2-z
-x,-y,-z
x,y,-z
-x,y,1/2+z
x,-y,1/2+z
1/2+x,1/2+y,z
1/2-x,1/2-y,z
1/2+x,1/2-y,1/2-z
1/2-x,1/2+y,1/2-z
1/2-x,1/2-y,-z
1/2+x,1/2+y,-z
1/2-x,1/2+y,1/2+z
1/2+x,1/2-y,1/2+z
loop_
_atom_site_type_symbol
_atom_site_label
_atom_site_fract_x
_atom_site_fract_y
_atom_site_fract_z
Si Si1 0.827144 0.554704 0.752363
Si Si2 0.346187 0.290826 0.290687
Si Si3 0.411653 0.603554 0.128590
Si Si4 0.879793 0.348157 0.639219
O O1 0.768295 0.500000 0.750000
O O2 0.746738 0.579725 0.638807
O O3 0.811488 0.597504 0.853258
O O4 0.000000 0.549706 0.750000
O O5 0.500000 0.269290 0.250000
O O6 0.250000 0.250000 0.353401
O O7 0.387339 0.339082 0.363531
O O8 0.247686 0.311141 0.178094
O O9 0.500000 0.588757 0.250000
O O10 0.482248 0.590265 0.000000
O O11 0.932860 0.339468 0.500000
O O12 0.000000 0.345894 0.750000
#
# Coordination Sequence:
#
# PCOD9498739 Si02
#       4
#    16  16  16  16
#     4   9  20  38  61  92 126 161 203 255 308 359
#     4  10  22  40  63  92 123 159 203 254 309 365
#     4  10  23  43  65  91 124 163 207 253 304 365
#     4  10  22  41  64  91 125 164 206 253 305 363
#
# _framework density 23.087916
#
# number of rings (size 3 to 8) (size 9 to 14) (size 15 to 20)
#    0.000    2.250    0.000    0.750    0.000   21.500 
#    0.000   12.500    0.000    0.000    0.000    0.000 
#    0.000    0.000    0.000    0.000    0.000    0.000 
#
# Total GULP energy -178194.090153 kJ/mol
# GULP energy per Si atom -5568.565317 kJ/mol
# Density = 2.303537 g / cm^3
# Si number density = 23.087916 Si / 1000 Ang^3
#
#
#
# Elastic Constant Matrix: (Units=GPa)
#
#
# Indices 1 2 3 4 5 6 
#
# 1 116.7539 25.4072 53.5334 0.0000 0.0000 0.0000
# 2 25.4072 86.7339 8.3288 0.0000 0.0000 0.0000
# 3 53.5334 8.3288 189.6577 0.0000 0.0000 0.0000
# 4 0.0000 0.0000 0.0000 -11.4165 0.0000 0.0000
# 5 0.0000 0.0000 0.0000 0.0000 -0.8205 0.0000
# 6 0.0000 0.0000 0.0000 0.0000 0.0000 -10.4192
#
#
#
# Elastic Compliance Matrix: (Units=1/GPa)
#
#
# Indices 1 2 3 4 5 6 
#
# 1 0.010472 -0.002796 -0.002833 0.000000 0.000000 0.000000
# 2 -0.002796 0.012325 0.000248 0.000000 0.000000 0.000000
# 3 -0.002833 0.000248 0.006061 0.000000 0.000000 0.000000
# 4 0.000000 0.000000 0.000000 -0.087593 0.000000 0.000000
# 5 0.000000 0.000000 0.000000 0.000000 -1.218714 0.000000
# 6 0.000000 0.000000 0.000000 0.000000 0.000000 -0.095977
#
#
# Mechanical properties :
#
#
# Convention : Reuss Voigt Hill
#
# Bulk Modulus (GPa) = 55.25902 63.07604 59.16753
# Shear Modulus (GPa) = -3.68560 15.86050 6.08745
#
# Velocity S-wave (km/s) = -1.26483 2.62384 1.62553
# Velocity P-wave (km/s) = 4.67473 6.04637 5.40424
#
# Compressibility (1/GPa) = 0.01809659
#
# Stress axis : x y z
#
# Youngs Moduli (GPa) = 95.48846 81.13818 164.97602
#
# Poissons Ratio (x) = 0.22683 0.46741
# Poissons Ratio (y) = 0.26695 -0.04089
# Poissons Ratio (z) = 0.27054 -0.02011
#
# Static dielectric constant tensor:
#      x y z
#    x 1.929830 0.000000 0.000000 
#    y 0.000000 1.909160 0.000000 
#    z 0.000000 0.000000 1.846120 
# 
# From -- ./inp_files/13569.got.cif
#   From: 2010.05.17/outbox.cif.g08.bks.cpg/sg66_7_cif.got.tgz:13569.got - 2010.06.03 17:51:23.
