data_PCOD9498254
_publ_section_title
;
Structure prediction by ZEFSAII (Michael W. Deem and Ramdas Pophale) SiO2 
 PCOD9498254
Probable space group: C C C M
;
_chemical_formula_sum "Si O2"
_cell_formula_units_Z 112
_cell_length_a 12.722994
_cell_length_b 27.906436
_cell_length_c 16.174282
_cell_angle_alpha 90.000000
_cell_angle_beta 90.000000
_cell_angle_gamma 90.000000
_cell_volume 5742.734104
_symmetry_space_group_name_H-M "C C C M"
_symmetry_group_IT_number 66
_symmetry_cell_setting 'orthorhombic'
loop_
_space_group_symop_operation_xyz
x,y,z
-x,-y,z
x,-y,1/2-z
-x,y,1/2-z
-x,-y,-z
x,y,-z
-x,y,1/2+z
x,-y,1/2+z
1/2+x,1/2+y,z
1/2-x,1/2-y,z
1/2+x,1/2-y,1/2-z
1/2-x,1/2+y,1/2-z
1/2-x,1/2-y,-z
1/2+x,1/2+y,-z
1/2-x,1/2+y,1/2+z
1/2+x,1/2-y,1/2+z
loop_
_atom_site_type_symbol
_atom_site_label
_atom_site_fract_x
_atom_site_fract_y
_atom_site_fract_z
Si Si1 0.085915 0.873726 0.689482
Si Si2 0.004733 0.555545 0.349568
Si Si3 0.297759 0.299330 0.692383
Si Si4 0.369083 0.140730 0.591985
Si Si5 0.998308 0.210787 0.904951
Si Si6 0.207376 0.615519 0.400733
Si Si7 0.441981 0.806472 0.661977
O O1 0.134373 0.832182 0.747508
O O2 0.028197 0.843345 0.618316
O O3 0.184768 0.899147 0.645709
O O4 0.000000 0.898895 0.750000
O O5 0.112994 0.578488 0.382669
O O6 0.000000 0.500000 0.372912
O O7 0.000000 0.559409 0.250000
O O8 0.909018 0.587930 0.383100
O O9 0.250000 0.250000 0.726965
O O10 0.210209 0.334100 0.654401
O O11 0.377380 0.282272 0.620579
O O12 0.324903 0.140628 0.500000
O O13 0.475171 0.172145 0.596384
O O14 0.062562 0.250166 0.852982
O O15 0.017676 0.219684 0.000000
O O16 0.220781 0.621712 0.500000
O O17 0.164068 0.664434 0.356740
O O18 0.500000 0.815983 0.750000
#
# Coordination Sequence:
#
# PCOD9498254 Si02
#       7
#    16  16  16  16  16  16  16
#     4  10  23  38  53  76 106 154 201 249 290 354
#     4  10  21  39  63  93 126 157 192 236 293 372
#     4  11  21  34  54  75 107 152 200 243 295 353
#     4  11  21  33  53  82 114 150 188 240 294 349
#     4  11  22  34  49  74 105 146 198 253 292 339
#     4  11  22  36  58  85 117 157 195 248 307 356
#     4  11  20  32  49  74 111 153 197 235 286 351
#
# _framework density 19.502904999999998
#
# number of rings (size 3 to 8) (size 9 to 14) (size 15 to 20)
#    0.000    1.286    1.429    8.143    2.000    1.714 
#    0.000    1.429    0.000    0.000    0.000   17.000 
#    0.000   24.000    0.000    0.000    0.000    0.000 
#
# Total GULP energy -312572.528995 kJ/mol
# GULP energy per Si atom -5581.652303 kJ/mol
# Density = 1.945852 g / cm^3
# Si number density = 19.502905 Si / 1000 Ang^3
#
#
#
# Elastic Constant Matrix: (Units=GPa)
#
#
# Indices 1 2 3 4 5 6 
#
# 1 91.7160 15.1501 30.3852 0.0000 0.0000 0.0000
# 2 15.1501 66.4136 13.1877 0.0000 0.0000 0.0000
# 3 30.3852 13.1877 103.1286 0.0000 0.0000 0.0000
# 4 0.0000 0.0000 0.0000 15.9097 0.0000 0.0000
# 5 0.0000 0.0000 0.0000 0.0000 25.7659 0.0000
# 6 0.0000 0.0000 0.0000 0.0000 0.0000 17.4525
#
#
#
# Elastic Compliance Matrix: (Units=1/GPa)
#
#
# Indices 1 2 3 4 5 6 
#
# 1 0.012376 -0.002154 -0.003371 0.000000 0.000000 0.000000
# 2 -0.002154 0.015824 -0.001389 0.000000 0.000000 0.000000
# 3 -0.003371 -0.001389 0.010867 0.000000 0.000000 0.000000
# 4 0.000000 0.000000 0.000000 0.062855 0.000000 0.000000
# 5 0.000000 0.000000 0.000000 0.000000 0.038811 0.000000
# 6 0.000000 0.000000 0.000000 0.000000 0.000000 0.057299
#
#
# Mechanical properties :
#
#
# Convention : Reuss Voigt Hill
#
# Bulk Modulus (GPa) = 39.61938 42.07825 40.84882
# Shear Modulus (GPa) = 22.69919 25.32798 24.01358
#
# Velocity S-wave (km/s) = 3.41528 3.60763 3.51277
# Velocity P-wave (km/s) = 5.99257 6.24304 6.11908
#
# Compressibility (1/GPa) = 0.02524017
#
# Stress axis : x y z
#
# Youngs Moduli (GPa) = 80.80314 63.19403 92.01810
#
# Poissons Ratio (x) = 0.13610 0.31018
# Poissons Ratio (y) = 0.17403 0.12781
# Poissons Ratio (z) = 0.27238 0.08778
#
# Static dielectric constant tensor:
#      x y z
#    x 1.733740 0.000000 0.000000 
#    y 0.000000 1.667040 0.000000 
#    z 0.000000 0.000000 1.711980 
# 
# From -- ./inp_files/26986.got.cif
#   From: 2010.05.17/outbox.cif.g08.bks.cpg/sg66_14_cif.got.tgz:26986.got - 2010.06.03 17:51:23.
