data_PCOD9498986
_publ_section_title
;
Structure prediction by ZEFSAII (Michael W. Deem and Ramdas Pophale) SiO2 
 PCOD9498986
Probable space group: C C C M
;
_chemical_formula_sum "Si O2"
_cell_formula_units_Z 80
_cell_length_a 15.667213
_cell_length_b 10.470262
_cell_length_c 22.260317
_cell_angle_alpha 90.000000
_cell_angle_beta 90.000000
_cell_angle_gamma 90.000000
_cell_volume 3651.578503
_symmetry_space_group_name_H-M "C C C M"
_symmetry_group_IT_number 66
_symmetry_cell_setting 'orthorhombic'
loop_
_space_group_symop_operation_xyz
x,y,z
-x,-y,z
x,-y,1/2-z
-x,y,1/2-z
-x,-y,-z
x,y,-z
-x,y,1/2+z
x,-y,1/2+z
1/2+x,1/2+y,z
1/2-x,1/2-y,z
1/2+x,1/2-y,1/2-z
1/2-x,1/2+y,1/2-z
1/2-x,1/2-y,-z
1/2+x,1/2+y,-z
1/2-x,1/2+y,1/2+z
1/2+x,1/2-y,1/2+z
loop_
_atom_site_type_symbol
_atom_site_label
_atom_site_fract_x
_atom_site_fract_y
_atom_site_fract_z
Si Si1 0.005928 0.638375 0.100737
Si Si2 0.415508 0.201103 0.779943
Si Si3 0.320047 0.864684 0.837690
Si Si4 0.681695 0.560869 0.816634
Si Si5 0.578063 0.595200 0.064221
O O1 0.106291 0.661206 0.113680
O O2 0.000000 0.500000 0.070429
O O3 0.955702 0.625748 0.164662
O O4 0.960282 0.761959 0.072774
O O5 0.500000 0.269362 0.750000
O O6 0.370579 0.133783 0.724873
O O7 0.341915 0.293340 0.804035
O O8 0.250000 0.750000 0.838140
O O9 0.269989 0.998495 0.838029
O O10 0.663510 0.500000 0.750000
O O11 0.624393 0.543306 0.876186
O O12 0.500000 0.500000 0.058977
O O13 0.626698 0.592346 0.000000
#
# Coordination Sequence:
#
# PCOD9498986 Si02
#       5
#    16  16  16  16  16
#     4  10  23  39  62  91 130 174 220 268 328 398
#     4   9  21  35  53  86 128 171 209 264 327 398
#     4  11  21  35  54  93 132 168 212 269 334 398
#     4  11  22  34  62  96 129 166 215 278 337 391
#     4  10  23  45  68  93 129 178 232 277 326 396
#
# _framework density 21.908335000000001
#
# number of rings (size 3 to 8) (size 9 to 14) (size 15 to 20)
#    0.000    1.800    2.000    1.200    8.400    3.200 
#    0.000    1.000    0.000    4.800    0.000    0.000 
#    0.000    0.000    0.000    0.000    0.000    0.000 
#
# Total GULP energy -222764.553507 kJ/mol
# GULP energy per Si atom -5569.113838 kJ/mol
# Density = 2.185847 g / cm^3
# Si number density = 21.908335 Si / 1000 Ang^3
#
#
#
# Elastic Constant Matrix: (Units=GPa)
#
#
# Indices 1 2 3 4 5 6 
#
# 1 129.0151 32.2752 34.7756 0.0000 0.0000 0.0000
# 2 32.2752 66.2587 -8.0517 0.0000 0.0000 0.0000
# 3 34.7756 -8.0517 115.5734 0.0000 0.0000 0.0000
# 4 0.0000 0.0000 0.0000 30.9469 0.0000 0.0000
# 5 0.0000 0.0000 0.0000 0.0000 19.2394 0.0000
# 6 0.0000 0.0000 0.0000 0.0000 0.0000 28.7380
#
#
#
# Elastic Compliance Matrix: (Units=1/GPa)
#
#
# Indices 1 2 3 4 5 6 
#
# 1 0.009977 -0.005270 -0.003369 0.000000 0.000000 0.000000
# 2 -0.005270 0.018004 0.002840 0.000000 0.000000 0.000000
# 3 -0.003369 0.002840 0.009864 0.000000 0.000000 0.000000
# 4 0.000000 0.000000 0.000000 0.032313 0.000000 0.000000
# 5 0.000000 0.000000 0.000000 0.000000 0.051977 0.000000
# 6 0.000000 0.000000 0.000000 0.000000 0.000000 0.034797
#
#
# Mechanical properties :
#
#
# Convention : Reuss Voigt Hill
#
# Bulk Modulus (GPa) = 38.09806 47.64950 42.87378
# Shear Modulus (GPa) = 28.20391 32.57473 30.38932
#
# Velocity S-wave (km/s) = 3.59187 3.86017 3.72844
# Velocity P-wave (km/s) = 5.88469 6.45481 6.17633
#
# Compressibility (1/GPa) = 0.02624805
#
# Stress axis : x y z
#
# Youngs Moduli (GPa) = 100.22569 55.54224 101.37698
#
# Poissons Ratio (x) = 0.29268 0.34157
# Poissons Ratio (y) = 0.52815 -0.28790
# Poissons Ratio (z) = 0.33769 -0.15774
#
# Static dielectric constant tensor:
#      x y z
#    x 1.832350 0.000000 0.000000 
#    y 0.000000 1.858040 0.000000 
#    z 0.000000 0.000000 1.901780 
# 
# From -- ./inp_files/57869.got.cif
#   From: 2010.05.17/outbox.cif.g08.bks.cpg/sg66_29_cif.got.tgz:57869.got - 2010.06.03 17:51:23.
