data_PCOD9498235
_publ_section_title
;
Structure prediction by ZEFSAII (Michael W. Deem and Ramdas Pophale) SiO2 
 PCOD9498235
Probable space group: C C C M
;
_chemical_formula_sum "Si O2"
_cell_formula_units_Z 96
_cell_length_a 15.841759
_cell_length_b 18.650178
_cell_length_c 16.298149
_cell_angle_alpha 90.000000
_cell_angle_beta 90.000000
_cell_angle_gamma 90.000000
_cell_volume 4815.314610
_symmetry_space_group_name_H-M "C C C M"
_symmetry_group_IT_number 66
_symmetry_cell_setting 'orthorhombic'
loop_
_space_group_symop_operation_xyz
x,y,z
-x,-y,z
x,-y,1/2-z
-x,y,1/2-z
-x,-y,-z
x,y,-z
-x,y,1/2+z
x,-y,1/2+z
1/2+x,1/2+y,z
1/2-x,1/2-y,z
1/2+x,1/2-y,1/2-z
1/2-x,1/2+y,1/2-z
1/2-x,1/2-y,-z
1/2+x,1/2+y,-z
1/2-x,1/2+y,1/2+z
1/2+x,1/2-y,1/2+z
loop_
_atom_site_type_symbol
_atom_site_label
_atom_site_fract_x
_atom_site_fract_y
_atom_site_fract_z
Si Si1 0.430618 0.058041 0.904024
Si Si2 0.319083 0.691539 0.721390
Si Si3 0.031502 0.283623 0.158471
Si Si4 0.117978 0.195926 0.408036
Si Si5 0.415054 0.531044 0.093953
Si Si6 0.248580 0.537162 0.332306
O O1 0.437019 0.139252 0.870909
O O2 0.332971 0.036605 0.890172
O O3 0.500000 0.000000 0.870182
O O4 0.448101 0.062582 0.000000
O O5 0.250000 0.750000 0.700153
O O6 0.401599 0.719121 0.672595
O O7 0.331868 0.695787 0.820883
O O8 0.285463 0.615076 0.691317
O O9 0.000000 0.297121 0.250000
O O10 0.954955 0.254759 0.103317
O O11 0.157776 0.204467 0.500000
O O12 0.078881 0.116428 0.407623
O O13 0.500000 0.500000 0.133629
O O14 0.328525 0.507417 0.135522
O O15 0.411022 0.504060 0.000000
O O16 0.216782 0.500000 0.250000
#
# Coordination Sequence:
#
# PCOD9498235 Si02
#       6
#    16  16  16  16  16  16
#     4  11  26  45  67  96 131 176 228 278 331 391
#     4  11  22  41  62  95 125 165 218 269 324 390
#     4  10  22  40  67  93 130 171 219 273 325 397
#     4  10  21  39  62  90 126 167 209 260 326 393
#     4  10  21  39  63  93 130 166 207 264 329 394
#     4  12  24  40  67  97 131 175 218 275 328 396
#
# _framework density 19.936392000000001
#
# number of rings (size 3 to 8) (size 9 to 14) (size 15 to 20)
#    0.000    1.333    3.333    2.000    2.333    0.667 
#    0.000    3.333    0.000    0.000    0.000    0.000 
#    0.000    0.000    0.000    0.000    0.000    0.000 
#
# Total GULP energy -267557.084420 kJ/mol
# GULP energy per Si atom -5574.105925 kJ/mol
# Density = 1.989102 g / cm^3
# Si number density = 19.936392 Si / 1000 Ang^3
#
#
#
# Elastic Constant Matrix: (Units=GPa)
#
#
# Indices 1 2 3 4 5 6 
#
# 1 68.8219 15.1094 1.8272 0.0000 0.0000 0.0000
# 2 15.1094 85.2540 8.0183 0.0000 0.0000 0.0000
# 3 1.8272 8.0183 43.2048 0.0000 0.0000 0.0000
# 4 0.0000 0.0000 0.0000 40.8527 0.0000 0.0000
# 5 0.0000 0.0000 0.0000 0.0000 38.8677 0.0000
# 6 0.0000 0.0000 0.0000 0.0000 0.0000 29.9382
#
#
#
# Elastic Compliance Matrix: (Units=1/GPa)
#
#
# Indices 1 2 3 4 5 6 
#
# 1 0.015119 -0.002666 -0.000145 0.000000 0.000000 0.000000
# 2 -0.002666 0.012408 -0.002190 0.000000 0.000000 0.000000
# 3 -0.000145 -0.002190 0.023558 0.000000 0.000000 0.000000
# 4 0.000000 0.000000 0.000000 0.024478 0.000000 0.000000
# 5 0.000000 0.000000 0.000000 0.000000 0.025728 0.000000
# 6 0.000000 0.000000 0.000000 0.000000 0.000000 0.033402
#
#
# Mechanical properties :
#
#
# Convention : Reuss Voigt Hill
#
# Bulk Modulus (GPa) = 24.34020 27.46562 25.90291
# Shear Modulus (GPa) = 31.56756 33.42010 32.49383
#
# Velocity S-wave (km/s) = 3.98353 4.09875 4.04155
# Velocity P-wave (km/s) = 5.77871 6.01716 5.89914
#
# Compressibility (1/GPa) = 0.04108429
#
# Stress axis : x y z
#
# Youngs Moduli (GPa) = 66.14019 80.59240 42.44815
#
# Poissons Ratio (x) = 0.21486 0.00614
# Poissons Ratio (y) = 0.17633 0.09296
# Poissons Ratio (z) = 0.00957 0.17650
#
# Static dielectric constant tensor:
#      x y z
#    x 1.695150 0.000000 0.000000 
#    y 0.000000 1.187890 0.000000 
#    z 0.000000 0.000000 1.741450 
# 
# From -- ./inp_files/28324.got.cif
#   From: 2010.05.17/outbox.cif.g08.bks.cpg/sg66_15_cif.got.tgz:28324.got - 2010.06.03 17:51:23.
