data_PCOD9498653
_publ_section_title
;
Structure prediction by ZEFSAII (Michael W. Deem and Ramdas Pophale) SiO2 
 PCOD9498653
Probable space group: C C C M
;
_chemical_formula_sum "Si O2"
_cell_formula_units_Z 112
_cell_length_a 10.677287
_cell_length_b 16.800027
_cell_length_c 30.160432
_cell_angle_alpha 90.000000
_cell_angle_beta 90.000000
_cell_angle_gamma 90.000000
_cell_volume 5410.139382
_symmetry_space_group_name_H-M "C C C M"
_symmetry_group_IT_number 66
_symmetry_cell_setting 'orthorhombic'
loop_
_space_group_symop_operation_xyz
x,y,z
-x,-y,z
x,-y,1/2-z
-x,y,1/2-z
-x,-y,-z
x,y,-z
-x,y,1/2+z
x,-y,1/2+z
1/2+x,1/2+y,z
1/2-x,1/2-y,z
1/2+x,1/2-y,1/2-z
1/2-x,1/2+y,1/2-z
1/2-x,1/2-y,-z
1/2+x,1/2+y,-z
1/2-x,1/2+y,1/2+z
1/2+x,1/2-y,1/2+z
loop_
_atom_site_type_symbol
_atom_site_label
_atom_site_fract_x
_atom_site_fract_y
_atom_site_fract_z
Si Si1 0.114244 0.444956 0.188209
Si Si2 0.301581 0.660869 0.731493
Si Si3 0.037681 0.677092 0.127344
Si Si4 0.871090 0.047963 0.550158
Si Si5 0.733588 0.557659 0.625333
Si Si6 0.547290 0.657970 0.322676
Si Si7 0.603532 0.270481 0.448513
O O1 0.185530 0.397976 0.226330
O O2 0.212277 0.501461 0.163536
O O3 0.000000 0.500000 0.201936
O O4 0.057957 0.381154 0.153106
O O5 0.250000 0.750000 0.727197
O O6 0.404189 0.645804 0.692821
O O7 0.370087 0.650828 0.778201
O O8 0.164221 0.627557 0.118360
O O9 0.062590 0.752995 0.158626
O O10 0.975288 0.713399 0.083264
O O11 0.818703 0.055063 0.500000
O O12 0.902104 0.137221 0.565700
O O13 0.783992 0.997691 0.582610
O O14 0.000000 0.000000 0.547766
O O15 0.604365 0.596555 0.642137
O O16 0.563171 0.264485 0.500000
O O17 0.750000 0.250000 0.445940
#
# Coordination Sequence:
#
# PCOD9498653 Si02
#       7
#    16  16  16  16  16  16  16
#     4  10  24  42  65  96 128 172 211 256 335 391
#     4  11  23  44  69  92 125 170 216 269 326 381
#     4  11  22  42  66  94 129 171 218 264 328 395
#     4  10  22  39  60  90 126 170 212 254 322 389
#     4  11  24  40  62  95 133 164 209 272 324 387
#     4  11  25  41  66  97 124 164 223 268 317 389
#     4  10  22  39  66  99 128 168 226 274 319 394
#
# _framework density 20.70187
#
# number of rings (size 3 to 8) (size 9 to 14) (size 15 to 20)
#    0.000    1.429    1.429    3.000    6.000    1.143 
#    0.000    5.000    0.000    9.429    0.000    0.000 
#    0.000    0.000    0.000    0.000    0.000    0.000 
#
# Total GULP energy -313347.317882 kJ/mol
# GULP energy per Si atom -5595.487819 kJ/mol
# Density = 2.065475 g / cm^3
# Si number density = 20.701870 Si / 1000 Ang^3
#
#
#
# Elastic Constant Matrix: (Units=GPa)
#
#
# Indices 1 2 3 4 5 6 
#
# 1 65.0796 32.4878 34.3486 0.0000 0.0000 0.0000
# 2 32.4878 119.4808 44.2957 0.0000 0.0000 0.0000
# 3 34.3486 44.2957 90.7503 0.0000 0.0000 0.0000
# 4 0.0000 0.0000 0.0000 27.1303 0.0000 0.0000
# 5 0.0000 0.0000 0.0000 0.0000 42.2940 0.0000
# 6 0.0000 0.0000 0.0000 0.0000 0.0000 38.8410
#
#
#
# Elastic Compliance Matrix: (Units=1/GPa)
#
#
# Indices 1 2 3 4 5 6 
#
# 1 0.020180 -0.003242 -0.006056 0.000000 0.000000 0.000000
# 2 -0.003242 0.010740 -0.004015 0.000000 0.000000 0.000000
# 3 -0.006056 -0.004015 0.015271 0.000000 0.000000 0.000000
# 4 0.000000 0.000000 0.000000 0.036859 0.000000 0.000000
# 5 0.000000 0.000000 0.000000 0.000000 0.023644 0.000000
# 6 0.000000 0.000000 0.000000 0.000000 0.000000 0.025746
#
#
# Mechanical properties :
#
#
# Convention : Reuss Voigt Hill
#
# Bulk Modulus (GPa) = 51.11037 55.28611 53.19824
# Shear Modulus (GPa) = 30.19549 32.59829 31.39689
#
# Velocity S-wave (km/s) = 3.82329 3.97250 3.89861
# Velocity P-wave (km/s) = 6.65075 6.91410 6.78370
#
# Compressibility (1/GPa) = 0.01956550
#
# Stress axis : x y z
#
# Youngs Moduli (GPa) = 49.55286 93.11353 65.48353
#
# Poissons Ratio (x) = 0.30189 0.39655
# Poissons Ratio (y) = 0.16066 0.26291
# Poissons Ratio (z) = 0.30008 0.37384
#
# Static dielectric constant tensor:
#      x y z
#    x 1.727610 0.000000 0.000000 
#    y 0.000000 1.719220 0.000000 
#    z 0.000000 0.000000 1.770500 
# 
# From -- ./inp_files/69101.got.cif
#   From: 2010.05.17/outbox.cif.g08.bks.cpg/sg66_35_cif.got.tgz:69101.got - 2010.06.03 17:51:23.
