data_PCOD9498720
_publ_section_title
;
Structure prediction by ZEFSAII (Michael W. Deem and Ramdas Pophale) SiO2 
 PCOD9498720
Probable space group: C C C M
;
_chemical_formula_sum "Si O2"
_cell_formula_units_Z 48
_cell_length_a 5.037585
_cell_length_b 15.655644
_cell_length_c 28.540352
_cell_angle_alpha 90.000000
_cell_angle_beta 90.000000
_cell_angle_gamma 90.000000
_cell_volume 2250.881592
_symmetry_space_group_name_H-M "C C C M"
_symmetry_group_IT_number 66
_symmetry_cell_setting 'orthorhombic'
loop_
_space_group_symop_operation_xyz
x,y,z
-x,-y,z
x,-y,1/2-z
-x,y,1/2-z
-x,-y,-z
x,y,-z
-x,y,1/2+z
x,-y,1/2+z
1/2+x,1/2+y,z
1/2-x,1/2-y,z
1/2+x,1/2-y,1/2-z
1/2-x,1/2+y,1/2-z
1/2-x,1/2-y,-z
1/2+x,1/2+y,-z
1/2-x,1/2+y,1/2+z
1/2+x,1/2-y,1/2+z
loop_
_atom_site_type_symbol
_atom_site_label
_atom_site_fract_x
_atom_site_fract_y
_atom_site_fract_z
Si Si1 0.760716 0.556847 0.875936
Si Si2 0.754950 0.147097 0.279723
Si Si3 0.007655 0.309425 0.553156
O O1 0.500000 0.500000 0.888529
O O2 0.700500 0.619263 0.833039
O O3 0.904184 0.609983 0.917415
O O4 0.000000 0.500000 0.856759
O O5 0.500000 0.118622 0.250000
O O6 0.750000 0.250000 0.279846
O O7 0.000000 0.114816 0.250000
O O8 0.086538 0.334822 0.500000
O O9 0.750000 0.250000 0.550795
O O10 0.250000 0.250000 0.572289
#
# Coordination Sequence:
#
# PCOD9498720 Si02
#       3
#    16  16  16
#     4  12  25  38  60  93 126 159 196 253 320 373
#     4  10  22  40  61  84 115 160 209 252 297 362
#     4  10  22  42  66  89 119 163 210 253 300 365
#
# _framework density 21.324978000000002
#
# number of rings (size 3 to 8) (size 9 to 14) (size 15 to 20)
#    0.000    1.333    0.000    5.000    0.000    9.333 
#    0.000    0.000    0.000    0.000    0.000    0.000 
#    0.000    0.000    0.000    0.000    0.000    0.000 
#
# Total GULP energy -133907.977171 kJ/mol
# GULP energy per Si atom -5579.499049 kJ/mol
# Density = 2.127644 g / cm^3
# Si number density = 21.324978 Si / 1000 Ang^3
#
#
#
# Elastic Constant Matrix: (Units=GPa)
#
#
# Indices 1 2 3 4 5 6 
#
# 1 172.8217 40.1637 27.0702 0.0000 0.0000 0.0000
# 2 40.1637 54.4349 33.7243 0.0000 0.0000 0.0000
# 3 27.0702 33.7243 95.7865 0.0000 0.0000 0.0000
# 4 0.0000 0.0000 0.0000 -33.8510 0.0000 0.0000
# 5 0.0000 0.0000 0.0000 0.0000 35.6319 0.0000
# 6 0.0000 0.0000 0.0000 0.0000 0.0000 -38.6636
#
#
#
# Elastic Compliance Matrix: (Units=1/GPa)
#
#
# Indices 1 2 3 4 5 6 
#
# 1 0.006987 -0.005029 -0.000204 0.000000 0.000000 0.000000
# 2 -0.005029 0.027115 -0.008125 0.000000 0.000000 0.000000
# 3 -0.000204 -0.008125 0.013358 0.000000 0.000000 0.000000
# 4 0.000000 0.000000 0.000000 -0.029541 0.000000 0.000000
# 5 0.000000 0.000000 0.000000 0.000000 0.028065 0.000000
# 6 0.000000 0.000000 0.000000 0.000000 0.000000 -0.025864
#
#
# Mechanical properties :
#
#
# Convention : Reuss Voigt Hill
#
# Bulk Modulus (GPa) = 48.20726 58.32882 53.26804
# Shear Modulus (GPa) = 93.02213 7.42911 50.22562
#
# Velocity S-wave (km/s) = 6.61180 1.86851 4.85835
# Velocity P-wave (km/s) = 8.99683 5.66276 7.51697
#
# Compressibility (1/GPa) = 0.02074376
#
# Stress axis : x y z
#
# Youngs Moduli (GPa) = 143.12387 36.88008 74.85964
#
# Poissons Ratio (x) = 0.18546 0.01528
# Poissons Ratio (y) = 0.71974 0.60826
# Poissons Ratio (z) = 0.02921 0.29967
#
# Static dielectric constant tensor:
#      x y z
#    x 3.859140 0.000000 0.000000 
#    y 0.000000 1.864630 0.000000 
#    z 0.000000 0.000000 1.802980 
# 
# From -- ./inp_files/60794.got.cif
#   From: 2010.05.17/outbox.cif.g08.bks.cpg/sg66_31_cif.got.tgz:60794.got - 2010.06.03 17:51:23.
