data_PCOD9498213
_publ_section_title
;
Structure prediction by ZEFSAII (Michael W. Deem and Ramdas Pophale) SiO2 
 PCOD9498213
Probable space group: C C C M
;
_chemical_formula_sum "Si O2"
_cell_formula_units_Z 96
_cell_length_a 25.307109
_cell_length_b 12.120595
_cell_length_c 14.576851
_cell_angle_alpha 90.000000
_cell_angle_beta 90.000000
_cell_angle_gamma 90.000000
_cell_volume 4471.262735
_symmetry_space_group_name_H-M "C C C M"
_symmetry_group_IT_number 66
_symmetry_cell_setting 'orthorhombic'
loop_
_space_group_symop_operation_xyz
x,y,z
-x,-y,z
x,-y,1/2-z
-x,y,1/2-z
-x,-y,-z
x,y,-z
-x,y,1/2+z
x,-y,1/2+z
1/2+x,1/2+y,z
1/2-x,1/2-y,z
1/2+x,1/2-y,1/2-z
1/2-x,1/2+y,1/2-z
1/2-x,1/2-y,-z
1/2+x,1/2+y,-z
1/2-x,1/2+y,1/2+z
1/2+x,1/2-y,1/2+z
loop_
_atom_site_type_symbol
_atom_site_label
_atom_site_fract_x
_atom_site_fract_y
_atom_site_fract_z
Si Si1 0.838161 0.299496 0.387870
Si Si2 0.771001 0.085686 0.610543
Si Si3 0.426028 0.528024 0.000000
Si Si4 0.952461 0.286925 0.691660
Si Si5 0.107816 0.888480 0.196806
Si Si6 0.296446 0.334214 0.609761
Si Si7 0.525232 0.311318 0.500000
O O1 0.845368 0.309043 0.500000
O O2 0.816945 0.174608 0.367517
O O3 0.787120 0.372724 0.360401
O O4 0.893357 0.329298 0.337280
O O5 0.769242 0.087008 0.500000
O O6 0.781590 0.959602 0.636413
O O7 0.402339 0.566635 0.905077
O O8 0.479631 0.598735 0.000000
O O9 0.425213 0.395145 0.000000
O O10 0.938127 0.177029 0.750972
O O11 0.976071 0.256902 0.592488
O O12 0.000000 0.344082 0.750000
O O13 0.154506 0.803948 0.173458
O O14 0.119804 0.000000 0.250000
O O15 0.307370 0.330625 0.500000
O O16 0.250000 0.250000 0.627244
#
# Coordination Sequence:
#
# PCOD9498213 Si02
#       7
#    16  16   8  16  16  16   8
#     4   9  17  33  58  86 121 159 199 255 303 359
#     4   8  16  32  58  88 116 157 205 244 307 371
#     4  11  22  36  53  75 115 162 198 238 302 373
#     4  12  23  34  54  84 118 161 209 247 311 368
#     4  12  23  36  55  80 117 161 201 245 296 370
#     4  10  21  39  61  85 120 161 199 248 307 366
#     4  11  22  36  54  74 118 159 205 249 290 365
#
# _framework density 21.470445000000002
#
# number of rings (size 3 to 8) (size 9 to 14) (size 15 to 20)
#    0.000    1.667    5.000    2.000    0.000    0.333 
#    6.000    0.000    0.000    0.000    0.000    2.917 
#    0.000    6.667    0.000    0.000    0.000    0.000 
#
# Total GULP energy -267614.144429 kJ/mol
# GULP energy per Si atom -5575.294676 kJ/mol
# Density = 2.142158 g / cm^3
# Si number density = 21.470445 Si / 1000 Ang^3
#
#
#
# Elastic Constant Matrix: (Units=GPa)
#
#
# Indices 1 2 3 4 5 6 
#
# 1 123.5419 11.5096 35.9420 0.0000 0.0000 0.0000
# 2 11.5096 27.5911 1.0634 0.0000 0.0000 0.0000
# 3 35.9420 1.0634 123.3298 0.0000 0.0000 0.0000
# 4 0.0000 0.0000 0.0000 13.8774 0.0000 0.0000
# 5 0.0000 0.0000 0.0000 0.0000 37.9847 0.0000
# 6 0.0000 0.0000 0.0000 0.0000 0.0000 19.4222
#
#
#
# Elastic Compliance Matrix: (Units=1/GPa)
#
#
# Indices 1 2 3 4 5 6 
#
# 1 0.009215 -0.003742 -0.002653 0.000000 0.000000 0.000000
# 2 -0.003742 0.037775 0.000765 0.000000 0.000000 0.000000
# 3 -0.002653 0.000765 0.008875 0.000000 0.000000 0.000000
# 4 0.000000 0.000000 0.000000 0.072060 0.000000 0.000000
# 5 0.000000 0.000000 0.000000 0.000000 0.026326 0.000000
# 6 0.000000 0.000000 0.000000 0.000000 0.000000 0.051488
#
#
# Mechanical properties :
#
#
# Convention : Reuss Voigt Hill
#
# Bulk Modulus (GPa) = 22.41930 41.27696 31.84813
# Shear Modulus (GPa) = 21.56407 29.32004 25.44205
#
# Velocity S-wave (km/s) = 3.17260 3.69941 3.44609
# Velocity P-wave (km/s) = 4.88724 6.12489 5.54073
#
# Compressibility (1/GPa) = 0.04460442
#
# Stress axis : x y z
#
# Youngs Moduli (GPa) = 108.51969 26.47256 112.67633
#
# Poissons Ratio (x) = 0.09905 0.29896
# Poissons Ratio (y) = 0.40605 -0.08617
# Poissons Ratio (z) = 0.28793 -0.02024
#
# Static dielectric constant tensor:
#      x y z
#    x 2.047220 0.000000 0.000000 
#    y 0.000000 1.769010 0.000000 
#    z 0.000000 0.000000 1.730620 
# 
# From -- ./inp_files/32378.got.cif
#   From: 2010.05.17/outbox.cif.g08.bks.cpg/sg66_17_cif.got.tgz:32378.got - 2010.06.03 17:51:23.
