data_PCOD9498003
_publ_section_title
;
Structure prediction by ZEFSAII (Michael W. Deem and Ramdas Pophale) SiO2 
 PCOD9498003
Probable space group: C C C M
;
_chemical_formula_sum "Si O2"
_cell_formula_units_Z 112
_cell_length_a 12.499460
_cell_length_b 28.020259
_cell_length_c 14.592298
_cell_angle_alpha 90.000000
_cell_angle_beta 90.000000
_cell_angle_gamma 90.000000
_cell_volume 5110.778822
_symmetry_space_group_name_H-M "C C C M"
_symmetry_group_IT_number 66
_symmetry_cell_setting 'orthorhombic'
loop_
_space_group_symop_operation_xyz
x,y,z
-x,-y,z
x,-y,1/2-z
-x,y,1/2-z
-x,-y,-z
x,y,-z
-x,y,1/2+z
x,-y,1/2+z
1/2+x,1/2+y,z
1/2-x,1/2-y,z
1/2+x,1/2-y,1/2-z
1/2-x,1/2+y,1/2-z
1/2-x,1/2-y,-z
1/2+x,1/2+y,-z
1/2-x,1/2+y,1/2+z
1/2+x,1/2-y,1/2+z
loop_
_atom_site_type_symbol
_atom_site_label
_atom_site_fract_x
_atom_site_fract_y
_atom_site_fract_z
Si Si1 0.625044 0.988823 0.394196
Si Si2 0.727023 0.170249 0.336017
Si Si3 0.861624 0.894167 0.605794
Si Si4 0.723646 0.802082 0.358035
Si Si5 0.991586 0.280480 0.391317
Si Si6 0.787330 0.567197 0.246406
Si Si7 0.539439 0.674426 0.104666
O O1 0.662687 0.984111 0.500000
O O2 0.630082 0.942620 0.328938
O O3 0.500000 0.000000 0.398347
O O4 0.692443 0.027444 0.333148
O O5 0.764762 0.197902 0.245557
O O6 0.622921 0.195579 0.375233
O O7 0.698888 0.117248 0.303368
O O8 0.833671 0.168174 0.395386
O O9 0.869969 0.913192 0.500000
O O10 0.779849 0.848703 0.600956
O O11 0.818487 0.928311 0.687723
O O12 0.972595 0.870418 0.639832
O O13 0.750000 0.750000 0.398922
O O14 0.595433 0.806829 0.352380
O O15 0.008735 0.279714 0.500000
O O16 0.989331 0.226099 0.355769
O O17 0.501995 0.676864 0.000000
#
# Coordination Sequence:
#
# PCOD9498003 Si02
#       7
#    16  16  16  16  16  16  16
#     4  10  22  43  72  99 131 170 205 259 336 412
#     4  11  24  37  56  88 122 163 212 274 325 375
#     4  10  21  37  61  90 125 172 221 271 322 382
#     4  11  21  34  52  79 118 165 215 265 320 383
#     4  11  22  36  56  81 119 168 222 277 327 378
#     4  10  22  39  62  97 132 160 207 265 329 405
#     4  10  21  39  60  82 119 172 228 274 321 376
#
# _framework density 21.914467999999999
#
# number of rings (size 3 to 8) (size 9 to 14) (size 15 to 20)
#    0.000    1.571    1.429    3.857    0.000    9.714 
#    0.000    2.857    0.000    6.857    0.000   12.000 
#    0.000    0.000    0.000    0.000    0.000    0.000 
#
# Total GULP energy -312104.497283 kJ/mol
# GULP energy per Si atom -5573.294594 kJ/mol
# Density = 2.186459 g / cm^3
# Si number density = 21.914468 Si / 1000 Ang^3
#
#
#
# Elastic Constant Matrix: (Units=GPa)
#
#
# Indices 1 2 3 4 5 6 
#
# 1 112.5837 2.7311 16.5281 0.0000 0.0000 0.0000
# 2 2.7311 53.3252 17.7864 0.0000 0.0000 0.0000
# 3 16.5281 17.7864 114.3531 0.0000 0.0000 0.0000
# 4 0.0000 0.0000 0.0000 1.0300 0.0000 0.0000
# 5 0.0000 0.0000 0.0000 0.0000 28.9553 0.0000
# 6 0.0000 0.0000 0.0000 0.0000 0.0000 32.8158
#
#
#
# Elastic Compliance Matrix: (Units=1/GPa)
#
#
# Indices 1 2 3 4 5 6 
#
# 1 0.009075 -0.000029 -0.001307 0.000000 0.000000 0.000000
# 2 -0.000029 0.019779 -0.003072 0.000000 0.000000 0.000000
# 3 -0.001307 -0.003072 0.009412 0.000000 0.000000 0.000000
# 4 0.000000 0.000000 0.000000 0.970903 0.000000 0.000000
# 5 0.000000 0.000000 0.000000 0.000000 0.034536 0.000000
# 6 0.000000 0.000000 0.000000 0.000000 0.000000 0.030473
#
#
# Mechanical properties :
#
#
# Convention : Reuss Voigt Hill
#
# Bulk Modulus (GPa) = 33.95681 39.37258 36.66470
# Shear Modulus (GPa) = 4.57536 28.77466 16.67501
#
# Velocity S-wave (km/s) = 1.44650 3.62753 2.76146
# Velocity P-wave (km/s) = 4.28002 5.96244 5.18986
#
# Compressibility (1/GPa) = 0.02944917
#
# Stress axis : x y z
#
# Youngs Moduli (GPa) = 110.19431 50.55851 106.25149
#
# Poissons Ratio (x) = 0.00145 0.13889
# Poissons Ratio (y) = 0.00317 0.32643
# Poissons Ratio (z) = 0.14404 0.15533
#
# Static dielectric constant tensor:
#      x y z
#    x 1.935660 0.000000 0.000000 
#    y 0.000000 1.868220 0.000000 
#    z 0.000000 0.000000 1.835940 
# 
# From -- ./inp_files/26965.got.cif
#   From: 2010.05.17/outbox.cif.g08.bks.cpg/sg66_14_cif.got.tgz:26965.got - 2010.06.03 17:51:23.
