data_PCOD9498920
_publ_section_title
;
Structure prediction by ZEFSAII (Michael W. Deem and Ramdas Pophale) SiO2 
 PCOD9498920
Probable space group: C C C M
;
_chemical_formula_sum "Si O2"
_cell_formula_units_Z 68
_cell_length_a 4.985550
_cell_length_b 24.012991
_cell_length_c 21.433888
_cell_angle_alpha 90.000000
_cell_angle_beta 90.000000
_cell_angle_gamma 90.000000
_cell_volume 2566.021502
_symmetry_space_group_name_H-M "C C C M"
_symmetry_group_IT_number 66
_symmetry_cell_setting 'orthorhombic'
loop_
_space_group_symop_operation_xyz
x,y,z
-x,-y,z
x,-y,1/2-z
-x,y,1/2-z
-x,-y,-z
x,y,-z
-x,y,1/2+z
x,-y,1/2+z
1/2+x,1/2+y,z
1/2-x,1/2-y,z
1/2+x,1/2-y,1/2-z
1/2-x,1/2+y,1/2-z
1/2-x,1/2-y,-z
1/2+x,1/2+y,-z
1/2-x,1/2+y,1/2+z
1/2+x,1/2-y,1/2+z
loop_
_atom_site_type_symbol
_atom_site_label
_atom_site_fract_x
_atom_site_fract_y
_atom_site_fract_z
Si Si1 0.173054 0.573427 0.929476
Si Si2 0.299069 0.813882 0.697635
Si Si3 0.500000 0.000000 0.250000
Si Si4 0.849113 0.072163 0.654585
Si Si5 0.573357 0.804630 0.565431
O O1 0.375120 0.551915 0.876842
O O2 0.243226 0.638876 0.934220
O O3 0.871736 0.572167 0.901954
O O4 0.194257 0.550374 0.000000
O O5 0.500000 0.836364 0.750000
O O6 0.250000 0.750000 0.718945
O O7 0.100549 0.865346 0.682999
O O8 0.417871 0.804626 0.629295
O O9 0.698326 0.037876 0.291735
O O10 0.412953 0.806757 0.500000
O O11 0.750000 0.750000 0.565070
#
# Coordination Sequence:
#
# PCOD9498920 Si02
#       5
#    16  16   4  16  16
#     4  10  22  43  71 104 139 180 236 300 359 422
#     4  11  22  38  61 100 138 185 232 294 355 421
#     4  12  28  54  70 106 140 202 244 298 352 450
#     4  11  25  45  72 101 142 190 237 292 357 432
#     4   9  18  34  58  93 135 180 225 275 343 421
#
# _framework density 26.500164999999999
#
# number of rings (size 3 to 8) (size 9 to 14) (size 15 to 20)
#    0.000    1.647    1.176    2.824    0.000    6.118 
#    0.000    3.529    0.000    0.000    0.000    0.000 
#    0.000    0.000    0.000    0.000    0.000    0.000 
#
# Total GULP energy -190087.579595 kJ/mol
# GULP energy per Si atom -5590.811165 kJ/mol
# Density = 2.643985 g / cm^3
# Si number density = 26.500165 Si / 1000 Ang^3
#
#
#
# Elastic Constant Matrix: (Units=GPa)
#
#
# Indices 1 2 3 4 5 6 
#
# 1 84.9402 12.4137 42.6775 0.0000 0.0000 0.0000
# 2 12.4137 133.8650 10.5524 0.0000 0.0000 0.0000
# 3 42.6775 10.5524 167.6364 0.0000 0.0000 0.0000
# 4 0.0000 0.0000 0.0000 29.8750 0.0000 0.0000
# 5 0.0000 0.0000 0.0000 0.0000 37.8622 0.0000
# 6 0.0000 0.0000 0.0000 0.0000 0.0000 35.6324
#
#
#
# Elastic Compliance Matrix: (Units=1/GPa)
#
#
# Indices 1 2 3 4 5 6 
#
# 1 0.013630 -0.000995 -0.003407 0.000000 0.000000 0.000000
# 2 -0.000995 0.007580 -0.000224 0.000000 0.000000 0.000000
# 3 -0.003407 -0.000224 0.006847 0.000000 0.000000 0.000000
# 4 0.000000 0.000000 0.000000 0.033473 0.000000 0.000000
# 5 0.000000 0.000000 0.000000 0.000000 0.026412 0.000000
# 6 0.000000 0.000000 0.000000 0.000000 0.000000 0.028064
#
#
# Mechanical properties :
#
#
# Convention : Reuss Voigt Hill
#
# Bulk Modulus (GPa) = 53.17921 57.52543 55.35232
# Shear Modulus (GPa) = 38.01485 42.06044 40.03765
#
# Velocity S-wave (km/s) = 3.79161 3.98826 3.89118
# Velocity P-wave (km/s) = 6.26733 6.55462 6.41258
#
# Compressibility (1/GPa) = 0.01880434
#
# Stress axis : x y z
#
# Youngs Moduli (GPa) = 73.36489 131.92342 146.05237
#
# Poissons Ratio (x) = 0.13132 0.49767
# Poissons Ratio (y) = 0.07303 0.03268
# Poissons Ratio (z) = 0.24999 0.02952
#
# Static dielectric constant tensor:
#      x y z
#    x 2.113110 0.000000 0.000000 
#    y 0.000000 2.176930 0.000000 
#    z 0.000000 0.000000 2.038520 
# 
# From -- ./inp_files/45782.got.cif
#   From: 2010.05.17/outbox.cif.g08.bks.cpg/sg66_23_cif.got.tgz:45782.got - 2010.06.03 17:51:23.
