data_PCOD9498550
_publ_section_title
;
Structure prediction by ZEFSAII (Michael W. Deem and Ramdas Pophale) SiO2 
 PCOD9498550
Probable space group: C C C M
;
_chemical_formula_sum "Si O2"
_cell_formula_units_Z 88
_cell_length_a 29.473682
_cell_length_b 5.188144
_cell_length_c 30.208694
_cell_angle_alpha 90.000000
_cell_angle_beta 90.000000
_cell_angle_gamma 90.000000
_cell_volume 4619.323366
_symmetry_space_group_name_H-M "C C C M"
_symmetry_group_IT_number 66
_symmetry_cell_setting 'orthorhombic'
loop_
_space_group_symop_operation_xyz
x,y,z
-x,-y,z
x,-y,1/2-z
-x,y,1/2-z
-x,-y,-z
x,y,-z
-x,y,1/2+z
x,-y,1/2+z
1/2+x,1/2+y,z
1/2-x,1/2-y,z
1/2+x,1/2-y,1/2-z
1/2-x,1/2+y,1/2-z
1/2-x,1/2-y,-z
1/2+x,1/2+y,-z
1/2-x,1/2+y,1/2+z
1/2+x,1/2-y,1/2+z
loop_
_atom_site_type_symbol
_atom_site_label
_atom_site_fract_x
_atom_site_fract_y
_atom_site_fract_z
Si Si1 0.799425 0.617906 0.203800
Si Si2 0.366537 0.165693 0.500000
Si Si3 0.336116 0.647571 0.091336
Si Si4 0.969763 0.246559 0.597322
Si Si5 0.750000 0.750000 0.637057
Si Si6 0.926455 0.835379 0.000000
Si Si7 0.373952 0.164072 0.133809
O O1 0.815535 0.500000 0.250000
O O2 0.750000 0.750000 0.214079
O O3 0.781629 0.412269 0.168785
O O4 0.842601 0.737701 0.177034
O O5 0.338097 0.233795 0.456909
O O6 0.407805 0.372768 0.500000
O O7 0.386765 0.880126 0.500000
O O8 0.284934 0.598847 0.107078
O O9 0.358776 0.370962 0.096777
O O10 0.362248 0.869216 0.120062
O O11 0.952842 0.206661 0.546328
O O12 0.927875 0.293788 0.631270
O O13 0.000000 0.500000 0.597583
O O14 0.000000 0.000000 0.609470
#
# Coordination Sequence:
#
# PCOD9498550 Si02
#       7
#    16   8  16  16   8   8  16
#     4  11  21  38  65  97 123 153 193 250 309 375
#     4  12  20  36  58  80 125 166 217 248 305 351
#     4  11  21  37  57  83 122 172 204 250 297 355
#     4  12  23  39  60  87 120 165 212 256 307 358
#     4  10  22  35  58  86 126 160 202 245 298 362
#     4  12  22  37  56  89 115 156 212 276 306 343
#     4  11  23  40  60  88 127 160 198 253 313 363
#
# _framework density 19.050409999999999
#
# number of rings (size 3 to 8) (size 9 to 14) (size 15 to 20)
#    0.000    0.727    6.364    2.727    0.000    0.364 
#    0.000    0.000    0.000    4.909    0.000    1.273 
#    0.000    0.000    0.000    0.000    0.000    0.000 
#
# Total GULP energy -245057.554264 kJ/mol
# GULP energy per Si atom -5569.489870 kJ/mol
# Density = 1.900705 g / cm^3
# Si number density = 19.050410 Si / 1000 Ang^3
#
#
#
# Elastic Constant Matrix: (Units=GPa)
#
#
# Indices 1 2 3 4 5 6 
#
# 1 100.9006 17.3437 56.7668 0.0000 0.0000 0.0000
# 2 17.3437 62.2396 8.6654 0.0000 0.0000 0.0000
# 3 56.7668 8.6654 74.8972 0.0000 0.0000 0.0000
# 4 0.0000 0.0000 0.0000 21.8693 0.0000 0.0000
# 5 0.0000 0.0000 0.0000 0.0000 21.8263 0.0000
# 6 0.0000 0.0000 0.0000 0.0000 0.0000 38.7443
#
#
#
# Elastic Compliance Matrix: (Units=1/GPa)
#
#
# Indices 1 2 3 4 5 6 
#
# 1 0.017864 -0.003144 -0.013176 0.000000 0.000000 0.000000
# 2 -0.003144 0.016883 0.000429 0.000000 0.000000 0.000000
# 3 -0.013176 0.000429 0.023288 0.000000 0.000000 0.000000
# 4 0.000000 0.000000 0.000000 0.045726 0.000000 0.000000
# 5 0.000000 0.000000 0.000000 0.000000 0.045816 0.000000
# 6 0.000000 0.000000 0.000000 0.000000 0.000000 0.025810
#
#
# Mechanical properties :
#
#
# Convention : Reuss Voigt Hill
#
# Bulk Modulus (GPa) = 38.08786 44.84324 41.46555
# Shear Modulus (GPa) = 23.15675 26.83875 24.99775
#
# Velocity S-wave (km/s) = 3.49026 3.75751 3.62635
# Velocity P-wave (km/s) = 6.02322 6.51272 6.27274
#
# Compressibility (1/GPa) = 0.02625508
#
# Stress axis : x y z
#
# Youngs Moduli (GPa) = 55.97916 59.23063 42.94001
#
# Poissons Ratio (x) = 0.18619 0.56577
# Poissons Ratio (y) = 0.17597 -0.01843
# Poissons Ratio (z) = 0.73757 -0.02542
#
# Static dielectric constant tensor:
#      x y z
#    x 1.704450 0.000000 0.000000 
#    y 0.000000 1.687610 0.000000 
#    z 0.000000 0.000000 1.653370 
# 
# From -- ./inp_files/66422.got.cif
#   From: 2010.05.17/outbox.cif.g08.bks.cpg/sg66_34_cif.got.tgz:66422.got - 2010.06.03 17:51:23.
