data_PCOD9498661
_publ_section_title
;
Structure prediction by ZEFSAII (Michael W. Deem and Ramdas Pophale) SiO2 
 PCOD9498661
Probable space group: C C C M
;
_chemical_formula_sum "Si O2"
_cell_formula_units_Z 52
_cell_length_a 10.123341
_cell_length_b 10.118180
_cell_length_c 27.485622
_cell_angle_alpha 90.000000
_cell_angle_beta 90.000000
_cell_angle_gamma 90.000000
_cell_volume 2815.346392
_symmetry_space_group_name_H-M "C C C M"
_symmetry_group_IT_number 66
_symmetry_cell_setting 'orthorhombic'
loop_
_space_group_symop_operation_xyz
x,y,z
-x,-y,z
x,-y,1/2-z
-x,y,1/2-z
-x,-y,-z
x,y,-z
-x,y,1/2+z
x,-y,1/2+z
1/2+x,1/2+y,z
1/2-x,1/2-y,z
1/2+x,1/2-y,1/2-z
1/2-x,1/2+y,1/2-z
1/2-x,1/2-y,-z
1/2+x,1/2+y,-z
1/2-x,1/2+y,1/2+z
1/2+x,1/2-y,1/2+z
loop_
_atom_site_type_symbol
_atom_site_label
_atom_site_fract_x
_atom_site_fract_y
_atom_site_fract_z
Si Si1 0.000000 0.500000 0.750000
Si Si2 0.478554 0.857707 0.158066
Si Si3 0.750000 0.250000 0.370985
Si Si4 0.156955 0.023167 0.055248
Si Si5 0.750000 0.750000 0.406056
O O1 0.072058 0.595954 0.788613
O O2 0.621701 0.790354 0.160066
O O3 0.376343 0.771937 0.128393
O O4 0.500000 0.000000 0.132021
O O5 0.790983 0.128235 0.405707
O O6 0.226406 0.881982 0.063322
O O7 0.179685 0.070024 0.000000
O O8 0.000000 0.000000 0.061436
#
# Coordination Sequence:
#
# PCOD9498661 Si02
#       5
#     4  16   8  16   8
#     4   8  20  44  56  96 114 152 192 248 288 364
#     4  10  22  39  62  85 123 150 194 244 295 356
#     4  12  21  41  62  86 120 164 190 243 301 342
#     4  11  23  37  58  90 122 155 204 245 283 347
#     4  12  21  41  62  86 120 164 190 243 301 342
#
# _framework density 18.470193999999999
#
# number of rings (size 3 to 8) (size 9 to 14) (size 15 to 20)
#    0.923    0.308    6.154    0.923    0.000    1.231 
#    0.000    1.538    0.000    3.692    0.000    0.000 
#    0.000    0.000    0.000    0.000    0.000    0.000 
#
# Total GULP energy -144783.407341 kJ/mol
# GULP energy per Si atom -5568.592590 kJ/mol
# Density = 1.842816 g / cm^3
# Si number density = 18.470194 Si / 1000 Ang^3
#
#
#
# Elastic Constant Matrix: (Units=GPa)
#
#
# Indices 1 2 3 4 5 6 
#
# 1 91.1933 8.6259 13.2135 0.0000 0.0000 0.0000
# 2 8.6259 78.6660 9.4108 0.0000 0.0000 0.0000
# 3 13.2135 9.4108 66.6248 0.0000 0.0000 0.0000
# 4 0.0000 0.0000 0.0000 10.8526 0.0000 0.0000
# 5 0.0000 0.0000 0.0000 0.0000 -2.2579 0.0000
# 6 0.0000 0.0000 0.0000 0.0000 0.0000 28.4894
#
#
#
# Elastic Compliance Matrix: (Units=1/GPa)
#
#
# Indices 1 2 3 4 5 6 
#
# 1 0.011366 -0.000993 -0.002114 0.000000 0.000000 0.000000
# 2 -0.000993 0.013017 -0.001642 0.000000 0.000000 0.000000
# 3 -0.002114 -0.001642 0.015661 0.000000 0.000000 0.000000
# 4 0.000000 0.000000 0.000000 0.092144 0.000000 0.000000
# 5 0.000000 0.000000 0.000000 0.000000 -0.442898 0.000000
# 6 0.000000 0.000000 0.000000 0.000000 0.000000 0.035101
#
#
# Mechanical properties :
#
#
# Convention : Reuss Voigt Hill
#
# Bulk Modulus (GPa) = 32.73763 33.22050 32.97906
# Shear Modulus (GPa) = -19.53664 21.09908 0.78122
#
# Velocity S-wave (km/s) = -3.25582 3.38351 0.65106
# Velocity P-wave (km/s) = 1.90506 5.76968 4.29642
#
# Compressibility (1/GPa) = 0.03054589
#
# Stress axis : x y z
#
# Youngs Moduli (GPa) = 87.98187 76.82085 63.85468
#
# Poissons Ratio (x) = 0.07632 0.13498
# Poissons Ratio (y) = 0.08740 0.10483
# Poissons Ratio (z) = 0.18598 0.12612
#
# Static dielectric constant tensor:
#      x y z
#    x 1.650970 0.000000 0.000000 
#    y 0.000000 1.652790 0.000000 
#    z 0.000000 0.000000 1.629340 
# 
# From -- ./inp_files/63206.got.cif
#   From: 2010.05.17/outbox.cif.g08.bks.cpg/sg66_32_cif.got.tgz:63206.got - 2010.06.03 17:51:23.
