data_PCOD9498087
_publ_section_title
;
Structure prediction by ZEFSAII (Michael W. Deem and Ramdas Pophale) SiO2 
 PCOD9498087
Probable space group: C C C M
;
_chemical_formula_sum "Si O2"
_cell_formula_units_Z 112
_cell_length_a 16.636367
_cell_length_b 23.760341
_cell_length_c 14.543280
_cell_angle_alpha 90.000000
_cell_angle_beta 90.000000
_cell_angle_gamma 90.000000
_cell_volume 5748.751385
_symmetry_space_group_name_H-M "C C C M"
_symmetry_group_IT_number 66
_symmetry_cell_setting 'orthorhombic'
loop_
_space_group_symop_operation_xyz
x,y,z
-x,-y,z
x,-y,1/2-z
-x,y,1/2-z
-x,-y,-z
x,y,-z
-x,y,1/2+z
x,-y,1/2+z
1/2+x,1/2+y,z
1/2-x,1/2-y,z
1/2+x,1/2-y,1/2-z
1/2-x,1/2+y,1/2-z
1/2-x,1/2-y,-z
1/2+x,1/2+y,-z
1/2-x,1/2+y,1/2+z
1/2+x,1/2-y,1/2+z
loop_
_atom_site_type_symbol
_atom_site_label
_atom_site_fract_x
_atom_site_fract_y
_atom_site_fract_z
Si Si1 0.279404 0.628975 0.390592
Si Si2 0.849025 0.466536 0.612000
Si Si3 0.406325 0.680149 0.267492
Si Si4 0.639201 0.216217 0.396323
Si Si5 0.662512 0.091818 0.894923
Si Si6 0.983099 0.619732 0.146498
Si Si7 0.716462 0.312465 0.890260
O O1 0.295222 0.626476 0.500000
O O2 0.224378 0.575283 0.366356
O O3 0.359332 0.635007 0.330878
O O4 0.222566 0.683995 0.374150
O O5 0.856453 0.468132 0.500000
O O6 0.835675 0.529663 0.647605
O O7 0.930905 0.437376 0.645824
O O8 0.500000 0.671451 0.250000
O O9 0.388582 0.738247 0.322407
O O10 0.362822 0.681190 0.169341
O O11 0.645084 0.240251 0.500000
O O12 0.572713 0.166783 0.398401
O O13 0.570220 0.111058 0.896068
O O14 0.719067 0.140816 0.856382
O O15 0.689922 0.084750 0.000000
O O16 0.000000 0.637694 0.250000
O O17 0.750000 0.250000 0.874633
O O18 0.703533 0.318189 0.000000
#
# Coordination Sequence:
#
# PCOD9498087 Si02
#       7
#    16  16  16  16  16  16  16
#     4   9  19  38  62  87 115 151 197 249 300 346
#     4   9  19  37  60  86 117 157 202 246 291 348
#     4  12  25  38  59  85 114 152 199 258 305 351
#     4  10  21  38  61  87 118 159 201 243 296 353
#     4  10  21  38  60  84 119 163 199 236 291 360
#     4  11  22  32  53  93 132 162 190 232 285 361
#     4  10  24  42  60  83 117 161 200 237 292 360
#
# _framework density 19.482492000000001
#
# number of rings (size 3 to 8) (size 9 to 14) (size 15 to 20)
#    0.000    1.857    0.000    4.714    8.000    4.571 
#    0.000    0.000    0.000    1.714    0.000    4.000 
#    0.000    0.000    0.000    0.000    0.000    0.000 
#
# Total GULP energy -312931.148695 kJ/mol
# GULP energy per Si atom -5588.056227 kJ/mol
# Density = 1.943815 g / cm^3
# Si number density = 19.482492 Si / 1000 Ang^3
#
#
#
# Elastic Constant Matrix: (Units=GPa)
#
#
# Indices 1 2 3 4 5 6 
#
# 1 169.5847 53.7539 48.0075 0.0000 0.0000 0.0000
# 2 53.7539 84.4769 14.1960 0.0000 0.0000 0.0000
# 3 48.0075 14.1960 65.0365 0.0000 0.0000 0.0000
# 4 0.0000 0.0000 0.0000 15.1227 0.0000 0.0000
# 5 0.0000 0.0000 0.0000 0.0000 27.0880 0.0000
# 6 0.0000 0.0000 0.0000 0.0000 0.0000 18.5875
#
#
#
# Elastic Compliance Matrix: (Units=1/GPa)
#
#
# Indices 1 2 3 4 5 6 
#
# 1 0.008998 -0.004785 -0.005598 0.000000 0.000000 0.000000
# 2 -0.004785 0.014833 0.000294 0.000000 0.000000 0.000000
# 3 -0.005598 0.000294 0.019444 0.000000 0.000000 0.000000
# 4 0.000000 0.000000 0.000000 0.066126 0.000000 0.000000
# 5 0.000000 0.000000 0.000000 0.000000 0.036917 0.000000
# 6 0.000000 0.000000 0.000000 0.000000 0.000000 0.053800
#
#
# Mechanical properties :
#
#
# Convention : Reuss Voigt Hill
#
# Bulk Modulus (GPa) = 43.29334 61.22367 52.25850
# Shear Modulus (GPa) = 21.93055 25.70234 23.81644
#
# Velocity S-wave (km/s) = 3.35872 3.63609 3.50015
# Velocity P-wave (km/s) = 6.10829 7.00867 6.57391
#
# Compressibility (1/GPa) = 0.02309824
#
# Stress axis : x y z
#
# Youngs Moduli (GPa) = 111.13478 67.41805 51.43067
#
# Poissons Ratio (x) = 0.32259 0.28789
# Poissons Ratio (y) = 0.53178 -0.01514
# Poissons Ratio (z) = 0.62209 -0.01985
#
# Static dielectric constant tensor:
#      x y z
#    x 1.647510 0.000000 0.000000 
#    y 0.000000 1.714510 0.000000 
#    z 0.000000 0.000000 1.701730 
# 
# From -- ./inp_files/28670.got.cif
#   From: 2010.05.17/outbox.cif.g08.bks.cpg/sg66_15_cif.got.tgz:28670.got - 2010.06.03 17:51:23.
