data_PCOD9498194
_publ_section_title
;
Structure prediction by ZEFSAII (Michael W. Deem and Ramdas Pophale) SiO2 
 PCOD9498194
Probable space group: C C C M
;
_chemical_formula_sum "Si O2"
_cell_formula_units_Z 68
_cell_length_a 18.911765
_cell_length_b 6.908882
_cell_length_c 29.246426
_cell_angle_alpha 90.000000
_cell_angle_beta 90.000000
_cell_angle_gamma 90.000000
_cell_volume 3821.313243
_symmetry_space_group_name_H-M "C C C M"
_symmetry_group_IT_number 66
_symmetry_cell_setting 'orthorhombic'
loop_
_space_group_symop_operation_xyz
x,y,z
-x,-y,z
x,-y,1/2-z
-x,y,1/2-z
-x,-y,-z
x,y,-z
-x,y,1/2+z
x,-y,1/2+z
1/2+x,1/2+y,z
1/2-x,1/2-y,z
1/2+x,1/2-y,1/2-z
1/2-x,1/2+y,1/2-z
1/2-x,1/2-y,-z
1/2+x,1/2+y,-z
1/2-x,1/2+y,1/2+z
1/2+x,1/2-y,1/2+z
loop_
_atom_site_type_symbol
_atom_site_label
_atom_site_fract_x
_atom_site_fract_y
_atom_site_fract_z
Si Si1 0.082535 0.479236 0.447192
Si Si2 0.000000 0.500000 0.750000
Si Si3 0.825170 0.144192 0.550107
Si Si4 0.931410 0.873326 0.705597
Si Si5 0.332138 0.697088 0.120415
O O1 0.088738 0.404308 0.500000
O O2 0.115874 0.691971 0.447546
O O3 0.125984 0.355092 0.410295
O O4 0.000000 0.500000 0.435814
O O5 0.045016 0.344026 0.720564
O O6 0.827735 0.048155 0.500000
O O7 0.750000 0.250000 0.553520
O O8 0.833273 0.993510 0.589795
O O9 0.873171 0.847335 0.667052
O O10 0.907696 0.000000 0.750000
O O11 0.000000 0.000000 0.689327
O O12 0.250000 0.750000 0.127820
#
# Coordination Sequence:
#
# PCOD9498194 Si02
#       5
#    16   4  16  16  16
#     4  10  23  39  59  91 125 162 207 250 296 351
#     4   8  18  44  68  82 110 156 188 244 316 358
#     4  10  21  39  59  84 125 167 201 244 291 349
#     4   9  22  43  65  89 114 152 201 251 304 364
#     4  12  24  38  61  94 121 159 203 247 302 363
#
# _framework density 17.794930000000001
#
# number of rings (size 3 to 8) (size 9 to 14) (size 15 to 20)
#    0.000    2.118    2.353    0.706    4.941    2.824 
#    2.118    3.529    0.000    0.000    0.000    0.000 
#    0.000    0.000    0.000    0.000    0.000    0.000 
#
# Total GULP energy -189573.374087 kJ/mol
# GULP energy per Si atom -5575.687473 kJ/mol
# Density = 1.775443 g / cm^3
# Si number density = 17.794930 Si / 1000 Ang^3
#
#
#
# Elastic Constant Matrix: (Units=GPa)
#
#
# Indices 1 2 3 4 5 6 
#
# 1 163.2149 61.8291 96.0864 0.0000 0.0000 0.0000
# 2 61.8291 110.5536 71.5256 0.0000 0.0000 0.0000
# 3 96.0864 71.5256 153.1550 0.0000 0.0000 0.0000
# 4 0.0000 0.0000 0.0000 21.5329 0.0000 0.0000
# 5 0.0000 0.0000 0.0000 0.0000 41.6833 0.0000
# 6 0.0000 0.0000 0.0000 0.0000 0.0000 15.7889
#
#
#
# Elastic Compliance Matrix: (Units=1/GPa)
#
#
# Indices 1 2 3 4 5 6 
#
# 1 0.010080 -0.002215 -0.005289 0.000000 0.000000 0.000000
# 2 -0.002215 0.013449 -0.004891 0.000000 0.000000 0.000000
# 3 -0.005289 -0.004891 0.012132 0.000000 0.000000 0.000000
# 4 0.000000 0.000000 0.000000 0.046441 0.000000 0.000000
# 5 0.000000 0.000000 0.000000 0.000000 0.023990 0.000000
# 6 0.000000 0.000000 0.000000 0.000000 0.000000 0.063335
#
#
# Mechanical properties :
#
#
# Convention : Reuss Voigt Hill
#
# Bulk Modulus (GPa) = 92.00165 98.42287 95.21226
# Shear Modulus (GPa) = 25.27277 28.96652 27.11965
#
# Velocity S-wave (km/s) = 3.77267 4.03897 3.90809
# Velocity P-wave (km/s) = 8.41372 8.78525 8.60149
#
# Compressibility (1/GPa) = 0.01086937
#
# Stress axis : x y z
#
# Youngs Moduli (GPa) = 99.20589 74.35714 82.42710
#
# Poissons Ratio (x) = 0.16472 0.43599
# Poissons Ratio (y) = 0.21977 0.40314
# Poissons Ratio (z) = 0.52474 0.36367
#
# Static dielectric constant tensor:
#      x y z
#    x 1.594160 0.000000 0.000000 
#    y 0.000000 1.591120 0.000000 
#    z 0.000000 0.000000 1.617960 
# 
# From -- ./inp_files/61320.got.cif
#   From: 2010.05.17/outbox.cif.g08.bks.cpg/sg66_31_cif.got.tgz:61320.got - 2010.06.03 17:51:23.
