data_PCOD9498846
_publ_section_title
;
Structure prediction by ZEFSAII (Michael W. Deem and Ramdas Pophale) SiO2 
 PCOD9498846
Probable space group: C C C M
;
_chemical_formula_sum "Si O2"
_cell_formula_units_Z 56
_cell_length_a 13.526011
_cell_length_b 8.399675
_cell_length_c 26.341149
_cell_angle_alpha 90.000000
_cell_angle_beta 90.000000
_cell_angle_gamma 90.000000
_cell_volume 2992.725843
_symmetry_space_group_name_H-M "C C C M"
_symmetry_group_IT_number 66
_symmetry_cell_setting 'orthorhombic'
loop_
_space_group_symop_operation_xyz
x,y,z
-x,-y,z
x,-y,1/2-z
-x,y,1/2-z
-x,-y,-z
x,y,-z
-x,y,1/2+z
x,-y,1/2+z
1/2+x,1/2+y,z
1/2-x,1/2-y,z
1/2+x,1/2-y,1/2-z
1/2-x,1/2+y,1/2-z
1/2-x,1/2-y,-z
1/2+x,1/2+y,-z
1/2-x,1/2+y,1/2+z
1/2+x,1/2-y,1/2+z
loop_
_atom_site_type_symbol
_atom_site_label
_atom_site_fract_x
_atom_site_fract_y
_atom_site_fract_z
Si Si1 0.363659 0.253643 0.306805
Si Si2 0.500000 0.500000 0.250000
Si Si3 0.722823 0.438556 0.500000
Si Si4 0.593667 0.394171 0.914261
Si Si5 0.576691 0.859907 0.500000
Si Si6 0.500000 0.000000 0.250000
O O1 0.250000 0.250000 0.288765
O O2 0.427175 0.393696 0.282601
O O3 0.361402 0.302213 0.366158
O O4 0.426738 0.101214 0.287070
O O5 0.750000 0.250000 0.500000
O O6 0.662547 0.491094 0.550742
O O7 0.817011 0.555608 0.500000
O O8 0.500000 0.500000 0.898369
O O9 0.562280 0.254257 0.952236
O O10 0.500000 0.000000 0.500000
#
# Coordination Sequence:
#
# PCOD9498846 Si02
#       6
#    16   4   8  16   8   4
#     4  11  22  43  65  94 126 168 214 268 332 388
#     4  10  22  42  64  90 128 162 214 278 328 378
#     4  11  22  41  60  96 130 173 214 261 328 394
#     4  11  22  40  62  92 127 168 211 266 321 385
#     4  11  22  37  62  88 128 167 206 261 310 383
#     4  10  26  42  68  94 128 166 222 270 336 398
#
# _framework density 18.712039999999998
#
# number of rings (size 3 to 8) (size 9 to 14) (size 15 to 20)
#    0.000    1.143    1.429    7.714    2.000    0.000 
#    5.143    1.429    0.000    0.000    0.000    0.000 
#    0.000    0.000    0.000    0.000    0.000    0.000 
#
# Total GULP energy -156079.632756 kJ/mol
# GULP energy per Si atom -5574.272598 kJ/mol
# Density = 1.866945 g / cm^3
# Si number density = 18.712040 Si / 1000 Ang^3
#
#
#
# Elastic Constant Matrix: (Units=GPa)
#
#
# Indices 1 2 3 4 5 6 
#
# 1 150.6489 57.0015 40.0324 0.0000 0.0000 0.0000
# 2 57.0015 140.0519 49.0090 0.0000 0.0000 0.0000
# 3 40.0324 49.0090 110.3526 0.0000 0.0000 0.0000
# 4 0.0000 0.0000 0.0000 -29.4827 0.0000 0.0000
# 5 0.0000 0.0000 0.0000 0.0000 11.7620 0.0000
# 6 0.0000 0.0000 0.0000 0.0000 0.0000 3.6578
#
#
#
# Elastic Compliance Matrix: (Units=1/GPa)
#
#
# Indices 1 2 3 4 5 6 
#
# 1 0.008122 -0.002693 -0.001750 0.000000 0.000000 0.000000
# 2 -0.002693 0.009347 -0.003174 0.000000 0.000000 0.000000
# 3 -0.001750 -0.003174 0.011107 0.000000 0.000000 0.000000
# 4 0.000000 0.000000 0.000000 -0.033918 0.000000 0.000000
# 5 0.000000 0.000000 0.000000 0.000000 0.085019 0.000000
# 6 0.000000 0.000000 0.000000 0.000000 0.000000 0.273390
#
#
# Mechanical properties :
#
#
# Convention : Reuss Voigt Hill
#
# Bulk Modulus (GPa) = 74.96090 77.01548 75.98819
# Shear Modulus (GPa) = 13.41386 14.18813 13.80099
#
# Velocity S-wave (km/s) = 2.68032 2.75659 2.71873
# Velocity P-wave (km/s) = 7.05167 7.16794 7.11004
#
# Compressibility (1/GPa) = 0.01334029
#
# Stress axis : x y z
#
# Youngs Moduli (GPa) = 123.12066 106.98504 90.03719
#
# Poissons Ratio (x) = 0.28813 0.15760
# Poissons Ratio (y) = 0.33159 0.28579
# Poissons Ratio (z) = 0.21550 0.33959
#
# Static dielectric constant tensor:
#      x y z
#    x 1.320760 0.000000 0.000000 
#    y 0.000000 1.616530 0.000000 
#    z 0.000000 0.000000 1.869390 
# 
# From -- ./inp_files/62025.got.cif
#   From: 2010.05.17/outbox.cif.g08.bks.cpg/sg66_32_cif.got.tgz:62025.got - 2010.06.03 17:51:23.
