data_PCOD9498045
_publ_section_title
;
Structure prediction by ZEFSAII (Michael W. Deem and Ramdas Pophale) SiO2 
 PCOD9498045
Probable space group: C C C M
;
_chemical_formula_sum "Si O2"
_cell_formula_units_Z 116
_cell_length_a 27.556740
_cell_length_b 27.173195
_cell_length_c 8.617150
_cell_angle_alpha 90.000000
_cell_angle_beta 90.000000
_cell_angle_gamma 90.000000
_cell_volume 6452.562159
_symmetry_space_group_name_H-M "C C C M"
_symmetry_group_IT_number 66
_symmetry_cell_setting 'orthorhombic'
loop_
_space_group_symop_operation_xyz
x,y,z
-x,-y,z
x,-y,1/2-z
-x,y,1/2-z
-x,-y,-z
x,y,-z
-x,y,1/2+z
x,-y,1/2+z
1/2+x,1/2+y,z
1/2-x,1/2-y,z
1/2+x,1/2-y,1/2-z
1/2-x,1/2+y,1/2-z
1/2-x,1/2-y,-z
1/2+x,1/2+y,-z
1/2-x,1/2+y,1/2+z
1/2+x,1/2-y,1/2+z
loop_
_atom_site_type_symbol
_atom_site_label
_atom_site_fract_x
_atom_site_fract_y
_atom_site_fract_z
Si Si1 0.449310 0.793168 0.314471
Si Si2 0.425560 0.317707 0.181328
Si Si3 0.000000 0.000000 0.250000
Si Si4 0.151252 0.677170 0.817988
Si Si5 0.244728 0.363528 0.185374
Si Si6 0.928869 0.078682 0.183811
Si Si7 0.183806 0.054479 0.315554
Si Si8 0.182027 0.779992 0.681371
O O1 0.500000 0.812456 0.250000
O O2 0.449120 0.792601 0.500000
O O3 0.444041 0.735676 0.263439
O O4 0.402038 0.822145 0.257283
O O5 0.441010 0.364748 0.279682
O O6 0.367071 0.312246 0.188497
O O7 0.438835 0.324520 0.000000
O O8 0.959558 0.041777 0.292702
O O9 0.190477 0.639393 0.750097
O O10 0.172487 0.731313 0.778472
O O11 0.146794 0.670643 0.000000
O O12 0.277350 0.408410 0.243325
O O13 0.273626 0.313768 0.232544
O O14 0.243440 0.363848 0.000000
O O15 0.871822 0.070878 0.215222
O O16 0.938557 0.067020 0.000000
O O17 0.189944 0.054481 0.500000
O O18 0.190238 0.000000 0.250000
O O19 0.188456 0.765445 0.500000
#
# Coordination Sequence:
#
# PCOD9498045 Si02
#       8
#    16  16   4  16  16  16  16  16
#     4  10  21  38  56  79 109 147 184 223 270 323
#     4   9  19  35  54  75 101 134 176 222 275 332
#     4  12  26  44  52  74  98 140 180 246 300 340
#     4  11  22  34  52  81 114 146 182 225 266 326
#     4  11  21  36  57  80 108 144 179 224 281 336
#     4  11  24  39  56  74  97 131 179 234 289 341
#     4  11  23  40  59  81 105 138 182 231 285 345
#     4   9  18  33  52  76 106 143 178 218 274 335
#
# _framework density 17.977354999999999
#
# number of rings (size 3 to 8) (size 9 to 14) (size 15 to 20)
#    0.000    1.655    2.069    3.931    0.966    7.172 
#    0.000    0.000    0.000    0.000    0.000    0.000 
#    0.000    0.552    0.000    5.517    0.000    3.310 
#
# Total GULP energy -323671.346277 kJ/mol
# GULP energy per Si atom -5580.540453 kJ/mol
# Density = 1.793644 g / cm^3
# Si number density = 17.977355 Si / 1000 Ang^3
#
#
#
# Elastic Constant Matrix: (Units=GPa)
#
#
# Indices 1 2 3 4 5 6 
#
# 1 145.2092 39.6063 40.9196 0.0000 0.0000 0.0000
# 2 39.6063 44.6113 22.7956 0.0000 0.0000 0.0000
# 3 40.9196 22.7956 44.9673 0.0000 0.0000 0.0000
# 4 0.0000 0.0000 0.0000 18.0132 0.0000 0.0000
# 5 0.0000 0.0000 0.0000 0.0000 30.2036 0.0000
# 6 0.0000 0.0000 0.0000 0.0000 0.0000 23.3176
#
#
#
# Elastic Compliance Matrix: (Units=1/GPa)
#
#
# Indices 1 2 3 4 5 6 
#
# 1 0.010287 -0.005870 -0.006385 0.000000 0.000000 0.000000
# 2 -0.005870 0.033602 -0.011692 0.000000 0.000000 0.000000
# 3 -0.006385 -0.011692 0.033976 0.000000 0.000000 0.000000
# 4 0.000000 0.000000 0.000000 0.055515 0.000000 0.000000
# 5 0.000000 0.000000 0.000000 0.000000 0.033109 0.000000
# 6 0.000000 0.000000 0.000000 0.000000 0.000000 0.042886
#
#
# Mechanical properties :
#
#
# Convention : Reuss Voigt Hill
#
# Bulk Modulus (GPa) = 33.36704 49.04785 41.20745
# Shear Modulus (GPa) = 18.70833 23.07128 20.88981
#
# Velocity S-wave (km/s) = 3.22943 3.58628 3.41252
# Velocity P-wave (km/s) = 5.70145 6.67015 6.20473
#
# Compressibility (1/GPa) = 0.02996969
#
# Stress axis : x y z
#
# Youngs Moduli (GPa) = 97.20927 29.76005 29.43234
#
# Poissons Ratio (x) = 0.17470 0.18793
# Poissons Ratio (y) = 0.57064 0.34413
# Poissons Ratio (z) = 0.62071 0.34797
#
# Static dielectric constant tensor:
#      x y z
#    x 1.644770 0.000000 0.000000 
#    y 0.000000 1.590400 0.000000 
#    z 0.000000 0.000000 1.635160 
# 
# From -- ./inp_files/10587.got.cif
#   From: 2010.05.17/outbox.cif.g08.bks.cpg/sg66_6_cif.got.tgz:10587.got - 2010.06.03 17:51:23.
