data_PCOD9498467
_publ_section_title
;
Structure prediction by ZEFSAII (Michael W. Deem and Ramdas Pophale) SiO2 
 PCOD9498467
Probable space group: C C C M
;
_chemical_formula_sum "Si O2"
_cell_formula_units_Z 88
_cell_length_a 20.795061
_cell_length_b 14.970986
_cell_length_c 14.135994
_cell_angle_alpha 90.000000
_cell_angle_beta 90.000000
_cell_angle_gamma 90.000000
_cell_volume 4400.853941
_symmetry_space_group_name_H-M "C C C M"
_symmetry_group_IT_number 66
_symmetry_cell_setting 'orthorhombic'
loop_
_space_group_symop_operation_xyz
x,y,z
-x,-y,z
x,-y,1/2-z
-x,y,1/2-z
-x,-y,-z
x,y,-z
-x,y,1/2+z
x,-y,1/2+z
1/2+x,1/2+y,z
1/2-x,1/2-y,z
1/2+x,1/2-y,1/2-z
1/2-x,1/2+y,1/2-z
1/2-x,1/2-y,-z
1/2+x,1/2+y,-z
1/2-x,1/2+y,1/2+z
1/2+x,1/2-y,1/2+z
loop_
_atom_site_type_symbol
_atom_site_label
_atom_site_fract_x
_atom_site_fract_y
_atom_site_fract_z
Si Si1 0.321742 0.421940 0.309835
Si Si2 0.972333 0.141224 0.500000
Si Si3 0.077062 0.495271 0.611661
Si Si4 0.897827 0.954425 0.500000
Si Si5 0.563502 0.328602 0.293298
Si Si6 0.250000 0.750000 0.219010
Si Si7 0.622961 0.850924 0.760301
O O1 0.286249 0.500000 0.250000
O O2 0.355108 0.452234 0.406065
O O3 0.376612 0.389115 0.236262
O O4 0.281672 0.333305 0.334558
O O5 0.948127 0.185345 0.403938
O O6 0.049225 0.125291 0.500000
O O7 0.938782 0.044560 0.500000
O O8 0.085704 0.483520 0.500000
O O9 0.111784 0.416515 0.671028
O O10 0.106419 0.587625 0.650357
O O11 0.000000 0.500000 0.631680
O O12 0.500000 0.372376 0.250000
O O13 0.574848 0.231959 0.248119
O O14 0.308232 0.801450 0.271714
#
# Coordination Sequence:
#
# PCOD9498467 Si02
#       7
#    16   8  16   8  16   8  16
#     4  11  23  42  64  88 126 169 213 262 314 373
#     4  11  22  34  62  98 132 163 198 246 318 394
#     4  10  21  41  70 100 126 163 212 274 340 391
#     4  11  22  39  62  94 127 167 204 248 314 384
#     4  11  21  37  61  95 130 169 203 256 317 383
#     4  10  26  45  63  86 126 176 222 267 313 370
#     4  10  22  43  63  90 129 167 214 266 319 378
#
# _framework density 19.996117999999999
#
# number of rings (size 3 to 8) (size 9 to 14) (size 15 to 20)
#    0.000    1.455    3.636    2.182    3.818    0.727 
#    9.818    0.455    2.000    0.000    0.000    0.000 
#    0.000    0.000    0.000    0.000    0.000    0.000 
#
# Total GULP energy -245346.255784 kJ/mol
# GULP energy per Si atom -5576.051268 kJ/mol
# Density = 1.995061 g / cm^3
# Si number density = 19.996118 Si / 1000 Ang^3
#
#
#
# Elastic Constant Matrix: (Units=GPa)
#
#
# Indices 1 2 3 4 5 6 
#
# 1 79.4107 25.5877 16.8715 0.0000 0.0000 0.0000
# 2 25.5877 101.8602 20.2740 0.0000 0.0000 0.0000
# 3 16.8715 20.2740 113.6212 0.0000 0.0000 0.0000
# 4 0.0000 0.0000 0.0000 14.6612 0.0000 0.0000
# 5 0.0000 0.0000 0.0000 0.0000 -30.5627 0.0000
# 6 0.0000 0.0000 0.0000 0.0000 0.0000 26.1969
#
#
#
# Elastic Compliance Matrix: (Units=1/GPa)
#
#
# Indices 1 2 3 4 5 6 
#
# 1 0.013944 -0.003204 -0.001499 0.000000 0.000000 0.000000
# 2 -0.003204 0.010915 -0.001472 0.000000 0.000000 0.000000
# 3 -0.001499 -0.001472 0.009286 0.000000 0.000000 0.000000
# 4 0.000000 0.000000 0.000000 0.068207 0.000000 0.000000
# 5 0.000000 0.000000 0.000000 0.000000 -0.032720 0.000000
# 6 0.000000 0.000000 0.000000 0.000000 0.000000 0.038172
#
#
# Mechanical properties :
#
#
# Convention : Reuss Voigt Hill
#
# Bulk Modulus (GPa) = 45.88125 46.70650 46.29387
# Shear Modulus (GPa) = 39.24015 17.53633 28.38824
#
# Velocity S-wave (km/s) = 4.43469 2.96461 3.77196
# Velocity P-wave (km/s) = 7.01547 5.92681 6.49399
#
# Compressibility (1/GPa) = 0.02179540
#
# Stress axis : x y z
#
# Youngs Moduli (GPa) = 71.71697 91.61461 107.68500
#
# Poissons Ratio (x) = 0.29357 0.16139
# Poissons Ratio (y) = 0.22981 0.15850
# Poissons Ratio (z) = 0.10748 0.13484
#
# Static dielectric constant tensor:
#      x y z
#    x 1.785690 0.000000 0.000000 
#    y 0.000000 1.729230 0.000000 
#    z 0.000000 0.000000 1.662690 
# 
# From -- ./inp_files/31114.got.cif
#   From: 2010.05.17/outbox.cif.g08.bks.cpg/sg66_16_cif.got.tgz:31114.got - 2010.06.03 17:51:23.
