data_PCOD9498460
_publ_section_title
;
Structure prediction by ZEFSAII (Michael W. Deem and Ramdas Pophale) SiO2 
 PCOD9498460
Probable space group: C C C M
;
_chemical_formula_sum "Si O2"
_cell_formula_units_Z 116
_cell_length_a 30.568043
_cell_length_b 8.818704
_cell_length_c 22.253866
_cell_angle_alpha 90.000000
_cell_angle_beta 90.000000
_cell_angle_gamma 90.000000
_cell_volume 5998.986298
_symmetry_space_group_name_H-M "C C C M"
_symmetry_group_IT_number 66
_symmetry_cell_setting 'orthorhombic'
loop_
_space_group_symop_operation_xyz
x,y,z
-x,-y,z
x,-y,1/2-z
-x,y,1/2-z
-x,-y,-z
x,y,-z
-x,y,1/2+z
x,-y,1/2+z
1/2+x,1/2+y,z
1/2-x,1/2-y,z
1/2+x,1/2-y,1/2-z
1/2-x,1/2+y,1/2-z
1/2-x,1/2-y,-z
1/2+x,1/2+y,-z
1/2-x,1/2+y,1/2+z
1/2+x,1/2-y,1/2+z
loop_
_atom_site_type_symbol
_atom_site_label
_atom_site_fract_x
_atom_site_fract_y
_atom_site_fract_z
Si Si1 0.692577 0.416085 0.828228
Si Si2 0.344873 0.716668 0.704953
Si Si3 0.817251 0.323074 0.068333
Si Si4 0.774659 0.594046 0.862216
Si Si5 0.000000 0.500000 0.250000
Si Si6 0.435173 0.161892 0.161194
Si Si7 0.003992 0.180105 0.931675
Si Si8 0.919681 0.389853 0.069147
O O1 0.673851 0.326473 0.770676
O O2 0.661197 0.562470 0.833874
O O3 0.695650 0.306267 0.884709
O O4 0.740050 0.495342 0.823806
O O5 0.313911 0.846132 0.678544
O O6 0.394167 0.770822 0.697104
O O7 0.795216 0.482186 0.088226
O O8 0.870070 0.330601 0.071657
O O9 0.804876 0.287438 0.000000
O O10 0.750000 0.750000 0.883315
O O11 0.030103 0.397356 0.208611
O O12 0.459586 0.274986 0.116212
O O13 0.422462 0.021720 0.118125
O O14 0.957996 0.266727 0.918796
O O15 0.016369 0.225023 0.000000
O O16 0.000000 0.000000 0.930596
O O17 0.926710 0.443094 0.000000
#
# Coordination Sequence:
#
# PCOD9498460 Si02
#       8
#    16  16  16  16   4  16  16  16
#     4  10  24  42  64  95 127 165 213 265 329 386
#     4  10  24  43  67  95 125 167 213 267 322 384
#     4  11  24  41  64  95 131 171 212 266 325 382
#     4  10  22  42  66  94 127 164 218 266 319 392
#     4  12  28  40  60  96 124 180 218 254 316 380
#     4  12  23  43  65  93 133 169 214 263 317 384
#     4  10  22  41  69 100 130 169 215 267 321 382
#     4  10  21  41  68  96 128 169 218 260 312 384
#
# _framework density 19.336599
#
# number of rings (size 3 to 8) (size 9 to 14) (size 15 to 20)
#    0.000    1.517    2.759    0.828    3.862    9.655 
#    2.483    2.759    0.000    0.000    0.000    0.000 
#    0.000    0.000    0.000    0.000    0.000    0.000 
#
# Total GULP energy -323749.011061 kJ/mol
# GULP energy per Si atom -5581.879501 kJ/mol
# Density = 1.929259 g / cm^3
# Si number density = 19.336599 Si / 1000 Ang^3
#
#
#
# Elastic Constant Matrix: (Units=GPa)
#
#
# Indices 1 2 3 4 5 6 
#
# 1 125.5698 54.7520 52.9278 0.0000 0.0000 0.0000
# 2 54.7520 101.5122 68.5272 0.0000 0.0000 0.0000
# 3 52.9278 68.5272 115.5793 0.0000 0.0000 0.0000
# 4 0.0000 0.0000 0.0000 29.4386 0.0000 0.0000
# 5 0.0000 0.0000 0.0000 0.0000 6.2135 0.0000
# 6 0.0000 0.0000 0.0000 0.0000 0.0000 -0.7024
#
#
#
# Elastic Compliance Matrix: (Units=1/GPa)
#
#
# Indices 1 2 3 4 5 6 
#
# 1 0.010827 -0.004156 -0.002494 0.000000 0.000000 0.000000
# 2 -0.004156 0.018021 -0.008781 0.000000 0.000000 0.000000
# 3 -0.002494 -0.008781 0.015000 0.000000 0.000000 0.000000
# 4 0.000000 0.000000 0.000000 0.033969 0.000000 0.000000
# 5 0.000000 0.000000 0.000000 0.000000 0.160940 0.000000
# 6 0.000000 0.000000 0.000000 0.000000 0.000000 -1.423626
#
#
# Mechanical properties :
#
#
# Convention : Reuss Voigt Hill
#
# Bulk Modulus (GPa) = 77.00814 77.23058 77.11936
# Shear Modulus (GPa) = -4.34905 18.08689 6.86892
#
# Velocity S-wave (km/s) = -1.50134 3.06170 1.88680
# Velocity P-wave (km/s) = 6.07505 7.24745 6.68699
#
# Compressibility (1/GPa) = 0.01298564
#
# Stress axis : x y z
#
# Youngs Moduli (GPa) = 92.36087 55.49210 66.66458
#
# Poissons Ratio (x) = 0.23064 0.16625
# Poissons Ratio (y) = 0.38387 0.58539
# Poissons Ratio (z) = 0.23034 0.48728
#
# Static dielectric constant tensor:
#      x y z
#    x 1.685880 0.000000 0.000000 
#    y 0.000000 1.682940 0.000000 
#    z 0.000000 0.000000 1.659700 
# 
# From -- ./inp_files/60528.got.cif
#   From: 2010.05.17/outbox.cif.g08.bks.cpg/sg66_31_cif.got.tgz:60528.got - 2010.06.03 17:51:23.
