data_PCOD9498244
_publ_section_title
;
Structure prediction by ZEFSAII (Michael W. Deem and Ramdas Pophale) SiO2 
 PCOD9498244
Probable space group: C C C M
;
_chemical_formula_sum "Si O2"
_cell_formula_units_Z 72
_cell_length_a 9.670814
_cell_length_b 14.120054
_cell_length_c 22.892721
_cell_angle_alpha 90.000000
_cell_angle_beta 90.000000
_cell_angle_gamma 90.000000
_cell_volume 3126.056359
_symmetry_space_group_name_H-M "C C C M"
_symmetry_group_IT_number 66
_symmetry_cell_setting 'orthorhombic'
loop_
_space_group_symop_operation_xyz
x,y,z
-x,-y,z
x,-y,1/2-z
-x,y,1/2-z
-x,-y,-z
x,y,-z
-x,y,1/2+z
x,-y,1/2+z
1/2+x,1/2+y,z
1/2-x,1/2-y,z
1/2+x,1/2-y,1/2-z
1/2-x,1/2+y,1/2-z
1/2-x,1/2-y,-z
1/2+x,1/2+y,-z
1/2-x,1/2+y,1/2+z
1/2+x,1/2-y,1/2+z
loop_
_atom_site_type_symbol
_atom_site_label
_atom_site_fract_x
_atom_site_fract_y
_atom_site_fract_z
Si Si1 0.639108 0.669678 0.307136
Si Si2 0.487355 0.656377 0.500000
Si Si3 0.390304 0.308126 0.876963
Si Si4 0.760958 0.500000 0.250000
Si Si5 0.739354 0.486454 0.000000
Si Si6 0.741901 0.993829 0.374496
O O1 0.750000 0.750000 0.297429
O O2 0.493428 0.713767 0.323923
O O3 0.662284 0.591004 0.257665
O O4 0.679575 0.605249 0.363614
O O5 0.460392 0.712413 0.560101
O O6 0.634721 0.603291 0.500000
O O7 0.366385 0.575876 0.500000
O O8 0.250000 0.250000 0.872264
O O9 0.350138 0.419326 0.875043
O O10 0.836907 0.493811 0.312447
O O11 0.821055 0.490675 0.061095
#
# Coordination Sequence:
#
# PCOD9498244 Si02
#       6
#    16   8  16   8   8  16
#     4  10  21  39  63  90 118 160 210 252 305 376
#     4   9  15  30  52  85 125 162 207 250 301 359
#     4  11  21  34  58  93 125 162 203 258 308 362
#     4   8  20  37  64  83 120 161 208 245 300 367
#     4   9  14  28  60  89 119 153 219 255 288 351
#     4   9  19  36  60  88 120 164 209 253 296 368
#
# _framework density 23.032214
#
# number of rings (size 3 to 8) (size 9 to 14) (size 15 to 20)
#    1.333    1.111    2.222    1.000    0.000    2.667 
#    0.000    3.333    0.000    2.667    0.000    6.222 
#    0.000    0.000    0.000    0.000    0.000    0.000 
#
# Total GULP energy -200445.687160 kJ/mol
# GULP energy per Si atom -5567.935754 kJ/mol
# Density = 2.297979 g / cm^3
# Si number density = 23.032214 Si / 1000 Ang^3
#
#
#
# Elastic Constant Matrix: (Units=GPa)
#
#
# Indices 1 2 3 4 5 6 
#
# 1 88.5763 35.9353 42.6672 0.0000 0.0000 0.0000
# 2 35.9353 78.7340 18.3647 0.0000 0.0000 0.0000
# 3 42.6672 18.3647 224.2661 0.0000 0.0000 0.0000
# 4 0.0000 0.0000 0.0000 6.2365 0.0000 0.0000
# 5 0.0000 0.0000 0.0000 0.0000 -20.7674 0.0000
# 6 0.0000 0.0000 0.0000 0.0000 0.0000 -17.3766
#
#
#
# Elastic Compliance Matrix: (Units=1/GPa)
#
#
# Indices 1 2 3 4 5 6 
#
# 1 0.014963 -0.006285 -0.002332 0.000000 0.000000 0.000000
# 2 -0.006285 0.015589 -0.000081 0.000000 0.000000 0.000000
# 3 -0.002332 -0.000081 0.004909 0.000000 0.000000 0.000000
# 4 0.000000 0.000000 0.000000 0.160346 0.000000 0.000000
# 5 0.000000 0.000000 0.000000 0.000000 -0.048152 0.000000
# 6 0.000000 0.000000 0.000000 0.000000 0.000000 -0.057549
#
#
# Mechanical properties :
#
#
# Convention : Reuss Voigt Hill
#
# Bulk Modulus (GPa) = 55.35697 65.05676 60.20686
# Shear Modulus (GPa) = 44.04366 13.25910 28.65138
#
# Velocity S-wave (km/s) = 4.37769 2.40193 3.53082
# Velocity P-wave (km/s) = 7.04549 5.99997 6.54365
#
# Compressibility (1/GPa) = 0.01806457
#
# Stress axis : x y z
#
# Youngs Moduli (GPa) = 66.83142 64.14962 203.69599
#
# Poissons Ratio (x) = 0.40320 0.47503
# Poissons Ratio (y) = 0.42006 0.01644
# Poissons Ratio (z) = 0.15585 0.00518
#
# Static dielectric constant tensor:
#      x y z
#    x 1.806020 0.000000 0.000000 
#    y 0.000000 1.832310 0.000000 
#    z 0.000000 0.000000 1.980720 
# 
# From -- ./inp_files/62239.got.cif
#   From: 2010.05.17/outbox.cif.g08.bks.cpg/sg66_32_cif.got.tgz:62239.got - 2010.06.03 17:51:23.
