data_PCOD9498713
_publ_section_title
;
Structure prediction by ZEFSAII (Michael W. Deem and Ramdas Pophale) SiO2 
 PCOD9498713
Probable space group: C C C M
;
_chemical_formula_sum "Si O2"
_cell_formula_units_Z 60
_cell_length_a 15.994884
_cell_length_b 7.760751
_cell_length_c 19.446443
_cell_angle_alpha 90.000000
_cell_angle_beta 90.000000
_cell_angle_gamma 90.000000
_cell_volume 2413.931930
_symmetry_space_group_name_H-M "C C C M"
_symmetry_group_IT_number 66
_symmetry_cell_setting 'orthorhombic'
loop_
_space_group_symop_operation_xyz
x,y,z
-x,-y,z
x,-y,1/2-z
-x,y,1/2-z
-x,-y,-z
x,y,-z
-x,y,1/2+z
x,-y,1/2+z
1/2+x,1/2+y,z
1/2-x,1/2-y,z
1/2+x,1/2-y,1/2-z
1/2-x,1/2+y,1/2-z
1/2-x,1/2-y,-z
1/2+x,1/2+y,-z
1/2-x,1/2+y,1/2+z
1/2+x,1/2-y,1/2+z
loop_
_atom_site_type_symbol
_atom_site_label
_atom_site_fract_x
_atom_site_fract_y
_atom_site_fract_z
Si Si1 0.133270 0.631403 0.349429
Si Si2 0.148318 0.416800 0.000000
Si Si3 0.221594 0.000000 0.250000
Si Si4 0.655816 0.499256 0.500000
Si Si5 0.500000 0.000000 0.750000
Si Si6 0.901138 0.973930 0.644294
O O1 0.118179 0.539466 0.422950
O O2 0.213336 0.564475 0.307847
O O3 0.138618 0.835072 0.359500
O O4 0.055798 0.609684 0.300056
O O5 0.243764 0.486679 0.000000
O O6 0.135503 0.207076 0.000000
O O7 0.154254 0.113262 0.295214
O O8 0.617901 0.590991 0.567505
O O9 0.000000 0.000000 0.656855
#
# Coordination Sequence:
#
# PCOD9498713 Si02
#       6
#    16   8   8   8   4  16
#     4  10  22  40  59  86 120 159 210 240 305 361
#     4   9  16  35  62  79 110 165 205 243 287 369
#     4  11  21  35  57  88 120 162 191 247 297 357
#     4   9  17  34  58  87 118 153 200 246 299 361
#     4  10  24  38  56  88 122 158 194 266 296 356
#     4  11  22  36  60  94 120 155 200 257 302 354
#
# _framework density 24.855713000000002
#
# number of rings (size 3 to 8) (size 9 to 14) (size 15 to 20)
#    0.000    1.867    2.667    1.600    3.733    0.533 
#    0.000    0.000    0.000    0.000    0.000   11.200 
#    0.000    0.000    0.000    0.000    0.000    0.000 
#
# Total GULP energy -167246.714771 kJ/mol
# GULP energy per Si atom -5574.890492 kJ/mol
# Density = 2.479914 g / cm^3
# Si number density = 24.855713 Si / 1000 Ang^3
#
#
#
# Elastic Constant Matrix: (Units=GPa)
#
#
# Indices 1 2 3 4 5 6 
#
# 1 127.8177 -0.1121 86.5540 0.0000 0.0000 0.0000
# 2 -0.1121 32.7560 10.7557 0.0000 0.0000 0.0000
# 3 86.5540 10.7557 248.2223 0.0000 0.0000 0.0000
# 4 0.0000 0.0000 0.0000 46.3855 0.0000 0.0000
# 5 0.0000 0.0000 0.0000 0.0000 36.2809 0.0000
# 6 0.0000 0.0000 0.0000 0.0000 0.0000 3.5529
#
#
#
# Elastic Compliance Matrix: (Units=1/GPa)
#
#
# Indices 1 2 3 4 5 6 
#
# 1 0.010291 0.001231 -0.003642 0.000000 0.000000 0.000000
# 2 0.001231 0.031117 -0.001778 0.000000 0.000000 0.000000
# 3 -0.003642 -0.001778 0.005376 0.000000 0.000000 0.000000
# 4 0.000000 0.000000 0.000000 0.021558 0.000000 0.000000
# 5 0.000000 0.000000 0.000000 0.000000 0.027563 0.000000
# 6 0.000000 0.000000 0.000000 0.000000 0.000000 0.281461
#
#
# Mechanical properties :
#
#
# Convention : Reuss Voigt Hill
#
# Bulk Modulus (GPa) = 26.03728 67.02126 46.52927
# Shear Modulus (GPa) = 12.54566 38.01708 25.28137
#
# Velocity S-wave (km/s) = 2.24908 3.91514 3.19270
# Velocity P-wave (km/s) = 4.15242 6.88915 5.68784
#
# Compressibility (1/GPa) = 0.03840647
#
# Stress axis : x y z
#
# Youngs Moduli (GPa) = 97.17465 32.13709 186.02892
#
# Poissons Ratio (x) = -0.03956 0.67746
# Poissons Ratio (y) = -0.11962 0.33068
# Poissons Ratio (z) = 0.35388 0.05713
#
# Static dielectric constant tensor:
#      x y z
#    x 1.949820 0.000000 0.000000 
#    y 0.000000 2.084460 0.000000 
#    z 0.000000 0.000000 2.127340 
# 
# From -- ./inp_files/37917.got.cif
#   From: 2010.05.17/outbox.cif.g08.bks.cpg/sg66_19_cif.got.tgz:37917.got - 2010.06.03 17:51:23.
