data_PCOD9498607
_publ_section_title
;
Structure prediction by ZEFSAII (Michael W. Deem and Ramdas Pophale) SiO2 
 PCOD9498607
Probable space group: C C C M
;
_chemical_formula_sum "Si O2"
_cell_formula_units_Z 68
_cell_length_a 21.345945
_cell_length_b 11.657656
_cell_length_c 13.937962
_cell_angle_alpha 90.000000
_cell_angle_beta 90.000000
_cell_angle_gamma 90.000000
_cell_volume 3468.373809
_symmetry_space_group_name_H-M "C C C M"
_symmetry_group_IT_number 66
_symmetry_cell_setting 'orthorhombic'
loop_
_space_group_symop_operation_xyz
x,y,z
-x,-y,z
x,-y,1/2-z
-x,y,1/2-z
-x,-y,-z
x,y,-z
-x,y,1/2+z
x,-y,1/2+z
1/2+x,1/2+y,z
1/2-x,1/2-y,z
1/2+x,1/2-y,1/2-z
1/2-x,1/2+y,1/2-z
1/2-x,1/2-y,-z
1/2+x,1/2+y,-z
1/2-x,1/2+y,1/2+z
1/2+x,1/2-y,1/2+z
loop_
_atom_site_type_symbol
_atom_site_label
_atom_site_fract_x
_atom_site_fract_y
_atom_site_fract_z
Si Si1 0.815523 0.814827 0.883901
Si Si2 0.277727 0.567409 0.116162
Si Si3 0.064848 0.711769 0.275331
Si Si4 0.843687 0.309345 0.885934
Si Si5 0.000000 0.500000 0.250000
O O1 0.750000 0.750000 0.859569
O O2 0.879100 0.765489 0.836958
O O3 0.805301 0.946664 0.852046
O O4 0.821638 0.809481 0.000000
O O5 0.207175 0.596817 0.147055
O O6 0.316701 0.682185 0.137127
O O7 0.275455 0.560825 0.000000
O O8 0.093822 0.680939 0.172472
O O9 0.000000 0.778918 0.250000
O O10 0.041182 0.588271 0.312763
O O11 0.850637 0.316929 0.000000
#
# Coordination Sequence:
#
# PCOD9498607 Si02
#       5
#    16  16  16  16   4
#     4  10  22  38  59  89 121 155 197 249 300 346
#     4   8  17  34  57  87 115 144 196 244 287 349
#     4  10  23  40  56  85 118 158 199 243 290 361
#     4   9  18  36  60  86 115 154 195 239 293 344
#     4   8  24  44  54  82 124 150 214 236 284 376
#
# _framework density 19.605730999999999
#
# number of rings (size 3 to 8) (size 9 to 14) (size 15 to 20)
#    0.706    2.118    0.000    1.412    6.588    1.882 
#    0.000    3.529    0.000    4.235    0.000    0.000 
#    0.000    0.000    0.000    0.000    0.000    0.000 
#
# Total GULP energy -189277.732606 kJ/mol
# GULP energy per Si atom -5566.992135 kJ/mol
# Density = 1.956111 g / cm^3
# Si number density = 19.605731 Si / 1000 Ang^3
#
#
#
# Elastic Constant Matrix: (Units=GPa)
#
#
# Indices 1 2 3 4 5 6 
#
# 1 168.8064 68.4686 50.8313 0.0000 0.0000 0.0000
# 2 68.4686 120.9009 29.8038 0.0000 0.0000 0.0000
# 3 50.8313 29.8038 68.1695 0.0000 0.0000 0.0000
# 4 0.0000 0.0000 0.0000 19.6926 0.0000 0.0000
# 5 0.0000 0.0000 0.0000 0.0000 13.2444 0.0000
# 6 0.0000 0.0000 0.0000 0.0000 0.0000 31.9711
#
#
#
# Elastic Compliance Matrix: (Units=1/GPa)
#
#
# Indices 1 2 3 4 5 6 
#
# 1 0.009003 -0.003860 -0.005026 0.000000 0.000000 0.000000
# 2 -0.003860 0.010925 -0.001899 0.000000 0.000000 0.000000
# 3 -0.005026 -0.001899 0.019247 0.000000 0.000000 0.000000
# 4 0.000000 0.000000 0.000000 0.050781 0.000000 0.000000
# 5 0.000000 0.000000 0.000000 0.000000 0.075503 0.000000
# 6 0.000000 0.000000 0.000000 0.000000 0.000000 0.031278
#
#
# Mechanical properties :
#
#
# Convention : Reuss Voigt Hill
#
# Bulk Modulus (GPa) = 56.79506 72.89825 64.84665
# Shear Modulus (GPa) = 22.30423 26.89984 24.60203
#
# Velocity S-wave (km/s) = 3.37655 3.70812 3.54621
# Velocity P-wave (km/s) = 6.65078 7.45630 7.06503
#
# Compressibility (1/GPa) = 0.01760717
#
# Stress axis : x y z
#
# Youngs Moduli (GPa) = 111.07779 91.53329 51.95696
#
# Poissons Ratio (x) = 0.35328 0.26111
# Poissons Ratio (y) = 0.42871 0.09864
# Poissons Ratio (z) = 0.55823 0.17378
#
# Static dielectric constant tensor:
#      x y z
#    x 1.724540 0.000000 0.000000 
#    y 0.000000 1.716870 0.000000 
#    z 0.000000 0.000000 1.735640 
# 
# From -- ./inp_files/30900.got.cif
#   From: 2010.05.17/outbox.cif.g08.bks.cpg/sg66_16_cif.got.tgz:30900.got - 2010.06.03 17:51:23.
