data_PCOD9498251
_publ_section_title
;
Structure prediction by ZEFSAII (Michael W. Deem and Ramdas Pophale) SiO2 
 PCOD9498251
Probable space group: C C C M
;
_chemical_formula_sum "Si O2"
_cell_formula_units_Z 72
_cell_length_a 10.979957
_cell_length_b 19.142529
_cell_length_c 17.628329
_cell_angle_alpha 90.000000
_cell_angle_beta 90.000000
_cell_angle_gamma 90.000000
_cell_volume 3705.195264
_symmetry_space_group_name_H-M "C C C M"
_symmetry_group_IT_number 66
_symmetry_cell_setting 'orthorhombic'
loop_
_space_group_symop_operation_xyz
x,y,z
-x,-y,z
x,-y,1/2-z
-x,y,1/2-z
-x,-y,-z
x,y,-z
-x,y,1/2+z
x,-y,1/2+z
1/2+x,1/2+y,z
1/2-x,1/2-y,z
1/2+x,1/2-y,1/2-z
1/2-x,1/2+y,1/2-z
1/2-x,1/2-y,-z
1/2+x,1/2+y,-z
1/2-x,1/2+y,1/2+z
1/2+x,1/2-y,1/2+z
loop_
_atom_site_type_symbol
_atom_site_label
_atom_site_fract_x
_atom_site_fract_y
_atom_site_fract_z
Si Si1 0.250000 0.750000 0.324905
Si Si2 0.500000 0.500000 0.627686
Si Si3 0.860559 0.626820 0.732918
Si Si4 0.554269 0.653809 0.086994
Si Si5 0.302384 0.500000 0.750000
Si Si6 0.721183 0.668513 0.587133
O O1 0.169776 0.699946 0.272377
O O2 0.340807 0.697770 0.370810
O O3 0.444975 0.568756 0.587966
O O4 0.390333 0.476972 0.682296
O O5 0.780006 0.565742 0.770019
O O6 0.815943 0.633185 0.645364
O O7 0.000000 0.610492 0.750000
O O8 0.417773 0.667557 0.117347
O O9 0.557321 0.677446 0.000000
O O10 0.723454 0.639451 0.500000
O O11 0.750000 0.750000 0.582204
#
# Coordination Sequence:
#
# PCOD9498251 Si02
#       6
#     8   8  16  16   8  16
#     4  12  25  38  65 102 128 168 224 282 331 404
#     4  11  21  40  68  92 125 179 216 274 334 408
#     4  12  24  40  65  92 130 173 217 274 331 388
#     4  11  23  41  65  95 134 170 215 276 339 398
#     4  11  23  40  64  92 129 165 228 274 328 395
#     4  10  21  39  63  91 124 165 209 257 325 398
#
# _framework density 19.432174
#
# number of rings (size 3 to 8) (size 9 to 14) (size 15 to 20)
#    0.000    0.889    5.556    2.333    0.000    0.000 
#    0.000    1.111    0.000    1.333    0.000    0.000 
#    0.000    0.000    0.000    0.000    0.000    0.000 
#
# Total GULP energy -200632.671144 kJ/mol
# GULP energy per Si atom -5573.129754 kJ/mol
# Density = 1.938795 g / cm^3
# Si number density = 19.432174 Si / 1000 Ang^3
#
#
#
# Elastic Constant Matrix: (Units=GPa)
#
#
# Indices 1 2 3 4 5 6 
#
# 1 138.2650 32.4251 49.6737 0.0000 0.0000 0.0000
# 2 32.4251 94.3292 15.8586 0.0000 0.0000 0.0000
# 3 49.6737 15.8586 77.2646 0.0000 0.0000 0.0000
# 4 0.0000 0.0000 0.0000 22.1593 0.0000 0.0000
# 5 0.0000 0.0000 0.0000 0.0000 8.9301 0.0000
# 6 0.0000 0.0000 0.0000 0.0000 0.0000 40.2202
#
#
#
# Elastic Compliance Matrix: (Units=1/GPa)
#
#
# Indices 1 2 3 4 5 6 
#
# 1 0.009910 -0.002419 -0.005875 0.000000 0.000000 0.000000
# 2 -0.002419 0.011570 -0.000820 0.000000 0.000000 0.000000
# 3 -0.005875 -0.000820 0.016888 0.000000 0.000000 0.000000
# 4 0.000000 0.000000 0.000000 0.045128 0.000000 0.000000
# 5 0.000000 0.000000 0.000000 0.000000 0.111981 0.000000
# 6 0.000000 0.000000 0.000000 0.000000 0.000000 0.024863
#
#
# Mechanical properties :
#
#
# Convention : Reuss Voigt Hill
#
# Bulk Modulus (GPa) = 49.64870 56.19708 52.92289
# Shear Modulus (GPa) = 20.38473 28.38868 24.38671
#
# Velocity S-wave (km/s) = 3.24237 3.82633 3.54639
# Velocity P-wave (km/s) = 6.29464 6.96444 6.63800
#
# Compressibility (1/GPa) = 0.02014151
#
# Stress axis : x y z
#
# Youngs Moduli (GPa) = 100.90370 86.42682 59.21426
#
# Poissons Ratio (x) = 0.20906 0.34788
# Poissons Ratio (y) = 0.24408 0.04854
# Poissons Ratio (z) = 0.59281 0.07084
#
# Static dielectric constant tensor:
#      x y z
#    x 1.690760 0.000000 0.000000 
#    y 0.000000 1.727790 0.000000 
#    z 0.000000 0.000000 1.720410 
# 
# From -- ./inp_files/46964.got.cif
#   From: 2010.05.17/outbox.cif.g08.bks.cpg/sg66_24_cif.got.tgz:46964.got - 2010.06.03 17:51:23.
