data_PCOD9498486
_publ_section_title
;
Structure prediction by ZEFSAII (Michael W. Deem and Ramdas Pophale) SiO2 
 PCOD9498486
Probable space group: C C C M
;
_chemical_formula_sum "Si O2"
_cell_formula_units_Z 40
_cell_length_a 8.324877
_cell_length_b 7.239262
_cell_length_c 28.493692
_cell_angle_alpha 90.000000
_cell_angle_beta 90.000000
_cell_angle_gamma 90.000000
_cell_volume 1717.199865
_symmetry_space_group_name_H-M "C C C M"
_symmetry_group_IT_number 66
_symmetry_cell_setting 'orthorhombic'
loop_
_space_group_symop_operation_xyz
x,y,z
-x,-y,z
x,-y,1/2-z
-x,y,1/2-z
-x,-y,-z
x,y,-z
-x,y,1/2+z
x,-y,1/2+z
1/2+x,1/2+y,z
1/2-x,1/2-y,z
1/2+x,1/2-y,1/2-z
1/2-x,1/2+y,1/2-z
1/2-x,1/2-y,-z
1/2+x,1/2+y,-z
1/2-x,1/2+y,1/2+z
1/2+x,1/2-y,1/2+z
loop_
_atom_site_type_symbol
_atom_site_label
_atom_site_fract_x
_atom_site_fract_y
_atom_site_fract_z
Si Si1 0.810850 0.464709 0.500000
Si Si2 0.189527 0.542100 0.302239
Si Si3 0.189127 0.034837 0.900556
O O1 0.750000 0.250000 0.500000
O O2 0.748555 0.542038 0.549560
O O3 0.000000 0.500000 0.500000
O O4 0.255366 0.500000 0.250000
O O5 0.250000 0.750000 0.307581
O O6 0.246754 0.454290 0.351276
O O7 0.000000 0.500000 0.300472
O O8 0.250000 0.250000 0.901611
O O9 0.000000 0.000000 0.899515
#
# Coordination Sequence:
#
# PCOD9498486 Si02
#       3
#     8  16  16
#     4  10  21  42  66  94 128 166 210 260 316 376
#     4  10  23  43  66  95 129 169 214 263 317 377
#     4  10  22  41  65  94 128 166 211 260 316 376
#
# _framework density 23.293737
#
# number of rings (size 3 to 8) (size 9 to 14) (size 15 to 20)
#    0.000    2.000    0.000    1.800    0.000   13.600 
#    0.000   32.000    0.000    0.000    0.000    0.000 
#    0.000    0.000    0.000    0.000    0.000    0.000 
#
# Total GULP energy -111399.401796 kJ/mol
# GULP energy per Si atom -5569.970090 kJ/mol
# Density = 2.324072 g / cm^3
# Si number density = 23.293737 Si / 1000 Ang^3
#
#
#
# Elastic Constant Matrix: (Units=GPa)
#
#
# Indices 1 2 3 4 5 6 
#
# 1 174.5930 36.6407 85.8683 0.0000 0.0000 0.0000
# 2 36.6407 144.0960 23.0128 0.0000 0.0000 0.0000
# 3 85.8683 23.0128 360.5502 0.0000 0.0000 0.0000
# 4 0.0000 0.0000 0.0000 -6.5663 0.0000 0.0000
# 5 0.0000 0.0000 0.0000 0.0000 61.6476 0.0000
# 6 0.0000 0.0000 0.0000 0.0000 0.0000 38.3658
#
#
#
# Elastic Compliance Matrix: (Units=1/GPa)
#
#
# Indices 1 2 3 4 5 6 
#
# 1 0.006787 -0.001483 -0.001522 0.000000 0.000000 0.000000
# 2 -0.001483 0.007335 -0.000115 0.000000 0.000000 0.000000
# 3 -0.001522 -0.000115 0.003143 0.000000 0.000000 0.000000
# 4 0.000000 0.000000 0.000000 -0.152293 0.000000 0.000000
# 5 0.000000 0.000000 0.000000 0.000000 0.016221 0.000000
# 6 0.000000 0.000000 0.000000 0.000000 0.000000 0.026065
#
#
# Mechanical properties :
#
#
# Convention : Reuss Voigt Hill
#
# Bulk Modulus (GPa) = 90.69079 107.80921 99.25000
# Shear Modulus (GPa) = -60.36754 54.27058 -3.04848
#
# Velocity S-wave (km/s) = -5.09628 4.83207 -1.14523
# Velocity P-wave (km/s) = 2.09492 8.80425 6.39936
#
# Compressibility (1/GPa) = 0.01102648
#
# Stress axis : x y z
#
# Youngs Moduli (GPa) = 147.33514 136.32819 318.13579
#
# Poissons Ratio (x) = 0.20215 0.48414
# Poissons Ratio (y) = 0.21847 0.03660
# Poissons Ratio (z) = 0.22421 0.01568
#
# Static dielectric constant tensor:
#      x y z
#    x 1.600920 0.000000 0.000000 
#    y 0.000000 2.021710 0.000000 
#    z 0.000000 0.000000 1.991120 
# 
# From -- ./inp_files/61774.got.cif
#   From: 2010.05.17/outbox.cif.g08.bks.cpg/sg66_31_cif.got.tgz:61774.got - 2010.06.03 17:51:23.
