data_PCOD9498206
_publ_section_title
;
Structure prediction by ZEFSAII (Michael W. Deem and Ramdas Pophale) SiO2 
 PCOD9498206
Probable space group: C C C M
;
_chemical_formula_sum "Si O2"
_cell_formula_units_Z 64
_cell_length_a 10.459715
_cell_length_b 10.237253
_cell_length_c 26.361768
_cell_angle_alpha 90.000000
_cell_angle_beta 90.000000
_cell_angle_gamma 90.000000
_cell_volume 2822.785133
_symmetry_space_group_name_H-M "C C C M"
_symmetry_group_IT_number 66
_symmetry_cell_setting 'orthorhombic'
loop_
_space_group_symop_operation_xyz
x,y,z
-x,-y,z
x,-y,1/2-z
-x,y,1/2-z
-x,-y,-z
x,y,-z
-x,y,1/2+z
x,-y,1/2+z
1/2+x,1/2+y,z
1/2-x,1/2-y,z
1/2+x,1/2-y,1/2-z
1/2-x,1/2+y,1/2-z
1/2-x,1/2-y,-z
1/2+x,1/2+y,-z
1/2-x,1/2+y,1/2+z
1/2+x,1/2-y,1/2+z
loop_
_atom_site_type_symbol
_atom_site_label
_atom_site_fract_x
_atom_site_fract_y
_atom_site_fract_z
Si Si1 0.500000 0.801255 0.750000
Si Si2 0.651396 0.354369 0.170346
Si Si3 0.500000 0.500000 0.093279
Si Si4 0.770454 0.405346 0.554765
Si Si5 0.683088 0.107716 0.334552
O O1 0.399623 0.709494 0.778654
O O2 0.428878 0.880127 0.705967
O O3 0.750000 0.250000 0.147556
O O4 0.537457 0.381834 0.131045
O O5 0.720833 0.491431 0.180627
O O6 0.371046 0.467160 0.063330
O O7 0.822112 0.449466 0.500000
O O8 0.750000 0.250000 0.552245
O O9 0.848346 0.427411 0.606732
O O10 0.750000 0.250000 0.335016
#
# Coordination Sequence:
#
# PCOD9498206 Si02
#       5
#     8  16   8  16  16
#     4  12  24  40  62  86 128 172 204 254 316 372
#     4  11  25  40  59  88 123 164 208 254 306 373
#     4  10  21  39  60  88 122 160 201 255 316 368
#     4   9  17  34  63  92 117 156 210 258 306 368
#     4  10  23  40  60  93 126 162 211 257 310 376
#
# _framework density 22.672643000000001
#
# number of rings (size 3 to 8) (size 9 to 14) (size 15 to 20)
#    0.000    1.750    0.000    5.625    0.000   11.500 
#    0.000    0.000    0.000   18.750    0.000   29.750 
#    0.000    3.000    0.000    0.000    0.000    0.250 
#
# Total GULP energy -178883.787694 kJ/mol
# GULP energy per Si atom -5590.118365 kJ/mol
# Density = 2.262104 g / cm^3
# Si number density = 22.672643 Si / 1000 Ang^3
#
#
#
# Elastic Constant Matrix: (Units=GPa)
#
#
# Indices 1 2 3 4 5 6 
#
# 1 66.9376 47.3222 65.3910 0.0000 0.0000 0.0000
# 2 47.3222 81.9562 18.3582 0.0000 0.0000 0.0000
# 3 65.3910 18.3582 211.7043 0.0000 0.0000 0.0000
# 4 0.0000 0.0000 0.0000 -22.7500 0.0000 0.0000
# 5 0.0000 0.0000 0.0000 0.0000 38.2683 0.0000
# 6 0.0000 0.0000 0.0000 0.0000 0.0000 42.5452
#
#
#
# Elastic Compliance Matrix: (Units=1/GPa)
#
#
# Indices 1 2 3 4 5 6 
#
# 1 0.039758 -0.020606 -0.010494 0.000000 0.000000 0.000000
# 2 -0.020606 0.023123 0.004360 0.000000 0.000000 0.000000
# 3 -0.010494 0.004360 0.007587 0.000000 0.000000 0.000000
# 4 0.000000 0.000000 0.000000 -0.043956 0.000000 0.000000
# 5 0.000000 0.000000 0.000000 0.000000 0.026131 0.000000
# 6 0.000000 0.000000 0.000000 0.000000 0.000000 0.023504
#
#
# Mechanical properties :
#
#
# Convention : Reuss Voigt Hill
#
# Bulk Modulus (GPa) = 58.86502 69.19342 64.02922
# Shear Modulus (GPa) = 36.95760 26.91449 31.93605
#
# Velocity S-wave (km/s) = 4.04177 3.44916 3.75717
# Velocity P-wave (km/s) = 6.91380 6.81520 6.86468
#
# Compressibility (1/GPa) = 0.01698802
#
# Stress axis : x y z
#
# Youngs Moduli (GPa) = 25.15217 43.24661 131.80880
#
# Poissons Ratio (x) = 0.89114 1.38314
# Poissons Ratio (y) = 0.51829 -0.57464
# Poissons Ratio (z) = 0.26393 -0.18854
#
# Static dielectric constant tensor:
#      x y z
#    x 1.915310 0.000000 0.000000 
#    y 0.000000 1.817610 0.000000 
#    z 0.000000 0.000000 1.963850 
# 
# From -- ./inp_files/63329.got.cif
#   From: 2010.05.17/outbox.cif.g08.bks.cpg/sg66_32_cif.got.tgz:63329.got - 2010.06.03 17:51:23.
