data_PCOD9498556
_publ_section_title
;
Structure prediction by ZEFSAII (Michael W. Deem and Ramdas Pophale) SiO2 
 PCOD9498556
Probable space group: C C C M
;
_chemical_formula_sum "Si O2"
_cell_formula_units_Z 60
_cell_length_a 20.854477
_cell_length_b 11.712710
_cell_length_c 11.199051
_cell_angle_alpha 90.000000
_cell_angle_beta 90.000000
_cell_angle_gamma 90.000000
_cell_volume 2735.507538
_symmetry_space_group_name_H-M "C C C M"
_symmetry_group_IT_number 66
_symmetry_cell_setting 'orthorhombic'
loop_
_space_group_symop_operation_xyz
x,y,z
-x,-y,z
x,-y,1/2-z
-x,y,1/2-z
-x,-y,-z
x,y,-z
-x,y,1/2+z
x,-y,1/2+z
1/2+x,1/2+y,z
1/2-x,1/2-y,z
1/2+x,1/2-y,1/2-z
1/2-x,1/2+y,1/2-z
1/2-x,1/2-y,-z
1/2+x,1/2+y,-z
1/2-x,1/2+y,1/2+z
1/2+x,1/2-y,1/2+z
loop_
_atom_site_type_symbol
_atom_site_label
_atom_site_fract_x
_atom_site_fract_y
_atom_site_fract_z
Si Si1 0.000000 0.500000 0.250000
Si Si2 0.109913 0.347620 0.136410
Si Si3 0.761628 0.579299 0.500000
Si Si4 0.076690 0.130879 0.261255
Si Si5 0.210785 0.500000 0.750000
Si Si6 0.363068 0.265375 0.500000
O O1 0.045886 0.417856 0.172152
O O2 0.101228 0.213816 0.157363
O O3 0.164724 0.392566 0.224861
O O4 0.126686 0.372577 0.000000
O O5 0.753734 0.515412 0.625551
O O6 0.703161 0.666252 0.500000
O O7 0.833628 0.636754 0.500000
O O8 0.097551 0.194457 0.383619
O O9 0.000000 0.129069 0.250000
O O10 0.099355 0.000000 0.250000
#
# Coordination Sequence:
#
# PCOD9498556 Si02
#       6
#     4  16   8  16   8   8
#     4  10  22  36  62  94 140 182 222 276 358 410
#     4  11  22  38  63 101 136 174 227 282 348 407
#     4  11  24  46  74 102 144 177 232 285 356 418
#     4  11  26  43  65  95 137 186 236 281 331 408
#     4  11  22  43  70 104 133 176 219 292 342 422
#     4  11  26  47  70  96 138 191 228 278 352 414
#
# _framework density 21.933772999999999
#
# number of rings (size 3 to 8) (size 9 to 14) (size 15 to 20)
#    0.000    1.067    5.333    0.400    5.600    1.067 
#    0.000    0.000    0.000    4.800    0.000    0.000 
#    0.000    0.000    0.000    0.000    0.000    0.000 
#
# Total GULP energy -167570.356955 kJ/mol
# GULP energy per Si atom -5585.678565 kJ/mol
# Density = 2.188385 g / cm^3
# Si number density = 21.933773 Si / 1000 Ang^3
#
#
#
# Elastic Constant Matrix: (Units=GPa)
#
#
# Indices 1 2 3 4 5 6 
#
# 1 56.3332 7.8373 23.0063 0.0000 0.0000 0.0000
# 2 7.8373 116.1724 19.4918 0.0000 0.0000 0.0000
# 3 23.0063 19.4918 159.6018 0.0000 0.0000 0.0000
# 4 0.0000 0.0000 0.0000 23.6352 0.0000 0.0000
# 5 0.0000 0.0000 0.0000 0.0000 28.2965 0.0000
# 6 0.0000 0.0000 0.0000 0.0000 0.0000 12.6477
#
#
#
# Elastic Compliance Matrix: (Units=1/GPa)
#
#
# Indices 1 2 3 4 5 6 
#
# 1 0.018941 -0.000837 -0.002628 0.000000 0.000000 0.000000
# 2 -0.000837 0.008825 -0.000957 0.000000 0.000000 0.000000
# 3 -0.002628 -0.000957 0.006761 0.000000 0.000000 0.000000
# 4 0.000000 0.000000 0.000000 0.042310 0.000000 0.000000
# 5 0.000000 0.000000 0.000000 0.000000 0.035340 0.000000
# 6 0.000000 0.000000 0.000000 0.000000 0.000000 0.079066
#
#
# Mechanical properties :
#
#
# Convention : Reuss Voigt Hill
#
# Bulk Modulus (GPa) = 38.93587 48.08646 43.51116
# Shear Modulus (GPa) = 23.96377 31.70069 27.83223
#
# Velocity S-wave (km/s) = 3.30896 3.80582 3.56606
# Velocity P-wave (km/s) = 5.69114 6.42522 6.06929
#
# Compressibility (1/GPa) = 0.02568326
#
# Stress axis : x y z
#
# Youngs Moduli (GPa) = 52.79472 113.31521 147.89990
#
# Poissons Ratio (x) = 0.09483 0.38870
# Poissons Ratio (y) = 0.04418 0.14156
# Poissons Ratio (z) = 0.13875 0.10846
#
# Static dielectric constant tensor:
#      x y z
#    x 1.781780 0.000000 0.000000 
#    y 0.000000 1.853570 0.000000 
#    z 0.000000 0.000000 1.843180 
# 
# From -- ./inp_files/14540.got.cif
#   From: 2010.05.17/outbox.cif.g08.bks.cpg/sg66_8_cif.got.tgz:14540.got - 2010.06.03 17:51:23.
