data_PCOD9498881
_publ_section_title
;
Structure prediction by ZEFSAII (Michael W. Deem and Ramdas Pophale) SiO2 
 PCOD9498881
Probable space group: C C C M
;
_chemical_formula_sum "Si O2"
_cell_formula_units_Z 80
_cell_length_a 13.844539
_cell_length_b 22.567907
_cell_length_c 12.415339
_cell_angle_alpha 90.000000
_cell_angle_beta 90.000000
_cell_angle_gamma 90.000000
_cell_volume 3879.076683
_symmetry_space_group_name_H-M "C C C M"
_symmetry_group_IT_number 66
_symmetry_cell_setting 'orthorhombic'
loop_
_space_group_symop_operation_xyz
x,y,z
-x,-y,z
x,-y,1/2-z
-x,y,1/2-z
-x,-y,-z
x,y,-z
-x,y,1/2+z
x,-y,1/2+z
1/2+x,1/2+y,z
1/2-x,1/2-y,z
1/2+x,1/2-y,1/2-z
1/2-x,1/2+y,1/2-z
1/2-x,1/2-y,-z
1/2+x,1/2+y,-z
1/2-x,1/2+y,1/2+z
1/2+x,1/2-y,1/2+z
loop_
_atom_site_type_symbol
_atom_site_label
_atom_site_fract_x
_atom_site_fract_y
_atom_site_fract_z
Si Si1 0.951437 0.640551 0.128573
Si Si2 0.541623 0.397196 0.000000
Si Si3 0.399711 0.377313 0.277447
Si Si4 0.220283 0.556373 0.307257
Si Si5 0.640390 0.268414 0.624358
Si Si6 0.142736 0.974705 0.500000
O O1 0.855080 0.601030 0.139988
O O2 0.924502 0.709839 0.131517
O O3 0.000000 0.628914 0.250000
O O4 0.988191 0.629959 0.000000
O O5 0.577872 0.360999 0.101269
O O6 0.592376 0.461778 0.000000
O O7 0.431158 0.419212 0.000000
O O8 0.500000 0.413118 0.250000
O O9 0.297971 0.410497 0.268599
O O10 0.392704 0.321145 0.200450
O O11 0.171706 0.500000 0.250000
O O12 0.290260 0.530779 0.397551
O O13 0.641775 0.288329 0.500000
O O14 0.750000 0.250000 0.652854
#
# Coordination Sequence:
#
# PCOD9498881 Si02
#       6
#    16   8  16  16  16   8
#     4  11  25  50  75  98 132 180 236 295 344 399
#     4  11  24  38  61  98 150 180 217 266 340 410
#     4  12  24  38  63 100 138 174 219 266 335 414
#     4  12  24  42  69  98 134 179 229 275 336 409
#     4  10  22  42  71  99 126 171 228 277 337 414
#     4  11  22  40  62  96 140 192 219 267 330 417
#
# _framework density 20.623466000000001
#
# number of rings (size 3 to 8) (size 9 to 14) (size 15 to 20)
#    0.000    0.800    7.000    0.600    2.800    0.800 
#    5.400    1.500    0.000    0.000    0.000    0.000 
#    0.000    0.000    0.000    0.000    0.000    0.000 
#
# Total GULP energy -222855.420490 kJ/mol
# GULP energy per Si atom -5571.385512 kJ/mol
# Density = 2.057653 g / cm^3
# Si number density = 20.623466 Si / 1000 Ang^3
#
#
#
# Elastic Constant Matrix: (Units=GPa)
#
#
# Indices 1 2 3 4 5 6 
#
# 1 54.1657 21.3889 34.0218 0.0000 0.0000 0.0000
# 2 21.3889 96.2567 27.2114 0.0000 0.0000 0.0000
# 3 34.0218 27.2114 138.1355 0.0000 0.0000 0.0000
# 4 0.0000 0.0000 0.0000 25.4163 0.0000 0.0000
# 5 0.0000 0.0000 0.0000 0.0000 28.9320 0.0000
# 6 0.0000 0.0000 0.0000 0.0000 0.0000 24.8246
#
#
#
# Elastic Compliance Matrix: (Units=1/GPa)
#
#
# Indices 1 2 3 4 5 6 
#
# 1 0.023034 -0.003722 -0.004940 0.000000 0.000000 0.000000
# 2 -0.003722 0.011603 -0.001369 0.000000 0.000000 0.000000
# 3 -0.004940 -0.001369 0.008726 0.000000 0.000000 0.000000
# 4 0.000000 0.000000 0.000000 0.039345 0.000000 0.000000
# 5 0.000000 0.000000 0.000000 0.000000 0.034564 0.000000
# 6 0.000000 0.000000 0.000000 0.000000 0.000000 0.040283
#
#
# Mechanical properties :
#
#
# Convention : Reuss Voigt Hill
#
# Bulk Modulus (GPa) = 42.91633 50.42247 46.66940
# Shear Modulus (GPa) = 26.97118 29.56364 28.26741
#
# Velocity S-wave (km/s) = 3.62026 3.79026 3.70624
# Velocity P-wave (km/s) = 6.19110 6.60734 6.40260
#
# Compressibility (1/GPa) = 0.02330115
#
# Stress axis : x y z
#
# Youngs Moduli (GPa) = 43.41329 86.18514 114.60469
#
# Poissons Ratio (x) = 0.32077 0.56615
# Poissons Ratio (y) = 0.16158 0.15689
# Poissons Ratio (z) = 0.21446 0.11799
#
# Static dielectric constant tensor:
#      x y z
#    x 1.762370 0.000000 0.000000 
#    y 0.000000 1.735990 0.000000 
#    z 0.000000 0.000000 1.749680 
# 
# From -- ./inp_files/16380.got.cif
#   From: 2010.05.17/outbox.cif.g08.bks.cpg/sg66_9_cif.got.tgz:16380.got - 2010.06.03 17:51:23.
