data_PCOD9498531
_publ_section_title
;
Structure prediction by ZEFSAII (Michael W. Deem and Ramdas Pophale) SiO2 
 PCOD9498531
Probable space group: C C C M
;
_chemical_formula_sum "Si O2"
_cell_formula_units_Z 68
_cell_length_a 21.267760
_cell_length_b 8.129578
_cell_length_c 20.149261
_cell_angle_alpha 90.000000
_cell_angle_beta 90.000000
_cell_angle_gamma 90.000000
_cell_volume 3483.765192
_symmetry_space_group_name_H-M "C C C M"
_symmetry_group_IT_number 66
_symmetry_cell_setting 'orthorhombic'
loop_
_space_group_symop_operation_xyz
x,y,z
-x,-y,z
x,-y,1/2-z
-x,y,1/2-z
-x,-y,-z
x,y,-z
-x,y,1/2+z
x,-y,1/2+z
1/2+x,1/2+y,z
1/2-x,1/2-y,z
1/2+x,1/2-y,1/2-z
1/2-x,1/2+y,1/2-z
1/2-x,1/2-y,-z
1/2+x,1/2+y,-z
1/2-x,1/2+y,1/2+z
1/2+x,1/2-y,1/2+z
loop_
_atom_site_type_symbol
_atom_site_label
_atom_site_fract_x
_atom_site_fract_y
_atom_site_fract_z
Si Si1 0.593836 0.139865 0.500000
Si Si2 0.177684 0.695526 0.759663
Si Si3 0.143787 0.174314 0.600958
Si Si4 0.045103 0.264323 0.500000
Si Si5 0.250000 0.750000 0.000000
Si Si6 0.676408 0.703800 0.886570
O O1 0.529619 0.245009 0.500000
O O2 0.635627 0.185815 0.563806
O O3 0.569209 0.953627 0.500000
O O4 0.175154 0.500000 0.750000
O O5 0.250000 0.750000 0.769938
O O6 0.142030 0.758698 0.824507
O O7 0.156839 0.772205 0.689816
O O8 0.077248 0.185744 0.564467
O O9 0.195353 0.272434 0.557837
O O10 0.167529 0.986797 0.596318
O O11 0.750000 0.750000 0.892542
#
# Coordination Sequence:
#
# PCOD9498531 Si02
#       6
#     8  16  16   8   4  16
#     4  11  23  44  60  88 123 156 213 245 302 362
#     4  11  21  36  58  88 126 160 196 251 303 363
#     4  11  22  38  59  91 121 162 201 242 308 355
#     4  10  25  40  64  85 120 170 196 254 296 360
#     4  10  22  30  58  82 122 152 186 246 282 352
#     4  11  24  37  62  93 122 160 198 257 301 357
#
# _framework density 19.519110999999999
#
# number of rings (size 3 to 8) (size 9 to 14) (size 15 to 20)
#    0.000    1.176    1.176    6.706    6.588    1.882 
#    0.000    1.176    0.000    7.059    0.000    0.000 
#    0.000    0.000    0.000    0.000    0.000    0.000 
#
# Total GULP energy -189565.628074 kJ/mol
# GULP energy per Si atom -5575.459649 kJ/mol
# Density = 1.947468 g / cm^3
# Si number density = 19.519111 Si / 1000 Ang^3
#
#
#
# Elastic Constant Matrix: (Units=GPa)
#
#
# Indices 1 2 3 4 5 6 
#
# 1 92.0763 17.7866 58.0320 0.0000 0.0000 0.0000
# 2 17.7866 80.4433 15.5808 0.0000 0.0000 0.0000
# 3 58.0320 15.5808 164.0589 0.0000 0.0000 0.0000
# 4 0.0000 0.0000 0.0000 7.3574 0.0000 0.0000
# 5 0.0000 0.0000 0.0000 0.0000 1.9736 0.0000
# 6 0.0000 0.0000 0.0000 0.0000 0.0000 27.2140
#
#
#
# Elastic Compliance Matrix: (Units=1/GPa)
#
#
# Indices 1 2 3 4 5 6 
#
# 1 0.014359 -0.002232 -0.004867 0.000000 0.000000 0.000000
# 2 -0.002232 0.013011 -0.000446 0.000000 0.000000 0.000000
# 3 -0.004867 -0.000446 0.007859 0.000000 0.000000 0.000000
# 4 0.000000 0.000000 0.000000 0.135918 0.000000 0.000000
# 5 0.000000 0.000000 0.000000 0.000000 0.506701 0.000000
# 6 0.000000 0.000000 0.000000 0.000000 0.000000 0.036746
#
#
# Mechanical properties :
#
#
# Convention : Reuss Voigt Hill
#
# Bulk Modulus (GPa) = 49.65567 57.70861 53.68214
# Shear Modulus (GPa) = 6.78980 23.65427 15.22203
#
# Velocity S-wave (km/s) = 1.86711 3.48494 2.79561
# Velocity P-wave (km/s) = 5.49025 6.76923 6.16301
#
# Compressibility (1/GPa) = 0.02013869
#
# Stress axis : x y z
#
# Youngs Moduli (GPa) = 69.64061 76.85758 127.23560
#
# Poissons Ratio (x) = 0.17156 0.61930
# Poissons Ratio (y) = 0.15545 0.05676
# Poissons Ratio (z) = 0.33896 0.03428
#
# Static dielectric constant tensor:
#      x y z
#    x 1.584890 0.000000 0.000000 
#    y 0.000000 1.759290 0.000000 
#    z 0.000000 0.000000 1.681680 
# 
# From -- ./inp_files/42563.got.cif
#   From: 2010.05.17/outbox.cif.g08.bks.cpg/sg66_22_cif.got.tgz:42563.got - 2010.06.03 17:51:23.
