data_PCOD9498844
_publ_section_title
;
Structure prediction by ZEFSAII (Michael W. Deem and Ramdas Pophale) SiO2 
 PCOD9498844
Probable space group: C C C M
;
_chemical_formula_sum "Si O2"
_cell_formula_units_Z 64
_cell_length_a 9.621351
_cell_length_b 10.728964
_cell_length_c 26.698919
_cell_angle_alpha 90.000000
_cell_angle_beta 90.000000
_cell_angle_gamma 90.000000
_cell_volume 2756.052743
_symmetry_space_group_name_H-M "C C C M"
_symmetry_group_IT_number 66
_symmetry_cell_setting 'orthorhombic'
loop_
_space_group_symop_operation_xyz
x,y,z
-x,-y,z
x,-y,1/2-z
-x,y,1/2-z
-x,-y,-z
x,y,-z
-x,y,1/2+z
x,-y,1/2+z
1/2+x,1/2+y,z
1/2-x,1/2-y,z
1/2+x,1/2-y,1/2-z
1/2-x,1/2+y,1/2-z
1/2-x,1/2-y,-z
1/2+x,1/2+y,-z
1/2-x,1/2+y,1/2+z
1/2+x,1/2-y,1/2+z
loop_
_atom_site_type_symbol
_atom_site_label
_atom_site_fract_x
_atom_site_fract_y
_atom_site_fract_z
Si Si1 0.877194 0.151945 0.555221
Si Si2 0.359940 0.354667 0.281990
Si Si3 0.970353 0.698023 0.373951
Si Si4 0.272098 0.970964 0.356207
O O1 0.890250 0.096690 0.500000
O O2 0.750000 0.250000 0.552804
O O3 0.005682 0.234905 0.573484
O O4 0.840720 0.063066 0.601844
O O5 0.500000 0.365300 0.250000
O O6 0.250000 0.250000 0.262025
O O7 0.412676 0.293814 0.333921
O O8 0.288430 0.482276 0.302959
O O9 0.864290 0.584726 0.376562
O O10 0.117346 0.642438 0.353561
#
# Coordination Sequence:
#
# PCOD9498844 Si02
#       4
#    16  16  16  16
#     4   9  18  34  59  89 119 156 201 244 291 354
#     4  10  22  42  64  89 120 158 205 253 304 363
#     4   9  19  38  59  84 120 155 194 247 298 354
#     4   9  19  38  61  85 118 158 196 243 303 355
#
# _framework density 23.221616000000001
#
# number of rings (size 3 to 8) (size 9 to 14) (size 15 to 20)
#    0.000    2.750    0.000    0.000    0.000    5.000 
#    0.000   30.000    0.000    4.500    0.000    0.000 
#    0.000    0.000    0.000    0.750    0.000    0.000 
#
# Total GULP energy -178793.700166 kJ/mol
# GULP energy per Si atom -5587.303130 kJ/mol
# Density = 2.316876 g / cm^3
# Si number density = 23.221616 Si / 1000 Ang^3
#
#
#
# Elastic Constant Matrix: (Units=GPa)
#
#
# Indices 1 2 3 4 5 6 
#
# 1 115.5494 35.7055 45.4203 0.0000 0.0000 0.0000
# 2 35.7055 53.1944 26.6233 0.0000 0.0000 0.0000
# 3 45.4203 26.6233 107.4908 0.0000 0.0000 0.0000
# 4 0.0000 0.0000 0.0000 -15.4915 0.0000 0.0000
# 5 0.0000 0.0000 0.0000 0.0000 44.5227 0.0000
# 6 0.0000 0.0000 0.0000 0.0000 0.0000 40.1800
#
#
#
# Elastic Compliance Matrix: (Units=1/GPa)
#
#
# Indices 1 2 3 4 5 6 
#
# 1 0.011973 -0.006283 -0.003503 0.000000 0.000000 0.000000
# 2 -0.006283 0.024757 -0.003477 0.000000 0.000000 0.000000
# 3 -0.003503 -0.003477 0.011644 0.000000 0.000000 0.000000
# 4 0.000000 0.000000 0.000000 -0.064551 0.000000 0.000000
# 5 0.000000 0.000000 0.000000 0.000000 0.022460 0.000000
# 6 0.000000 0.000000 0.000000 0.000000 0.000000 0.024888
#
#
# Mechanical properties :
#
#
# Convention : Reuss Voigt Hill
#
# Bulk Modulus (GPa) = 45.77078 54.63698 50.20388
# Shear Modulus (GPa) = 76.94775 25.07461 51.01118
#
# Velocity S-wave (km/s) = 5.76266 3.28959 4.69199
# Velocity P-wave (km/s) = 8.00193 6.16507 7.14279
#
# Compressibility (1/GPa) = 0.02184800
#
# Stress axis : x y z
#
# Youngs Moduli (GPa) = 83.52271 40.39336 85.87843
#
# Poissons Ratio (x) = 0.25380 0.30082
# Poissons Ratio (y) = 0.52480 0.29857
# Poissons Ratio (z) = 0.29257 0.14044
#
# Static dielectric constant tensor:
#      x y z
#    x 1.889540 0.000000 0.000000 
#    y 0.000000 1.957040 0.000000 
#    z 0.000000 0.000000 1.831130 
# 
# From -- ./inp_files/56314.got.cif
#   From: 2010.05.17/outbox.cif.g08.bks.cpg/sg66_29_cif.got.tgz:56314.got - 2010.06.03 17:51:23.
