data_PCOD9498398
_publ_section_title
;
Structure prediction by ZEFSAII (Michael W. Deem and Ramdas Pophale) SiO2 
 PCOD9498398
Probable space group: C C C M
;
_chemical_formula_sum "Si O2"
_cell_formula_units_Z 64
_cell_length_a 18.853646
_cell_length_b 9.948090
_cell_length_c 14.265033
_cell_angle_alpha 90.000000
_cell_angle_beta 90.000000
_cell_angle_gamma 90.000000
_cell_volume 2675.517739
_symmetry_space_group_name_H-M "C C C M"
_symmetry_group_IT_number 66
_symmetry_cell_setting 'orthorhombic'
loop_
_space_group_symop_operation_xyz
x,y,z
-x,-y,z
x,-y,1/2-z
-x,y,1/2-z
-x,-y,-z
x,y,-z
-x,y,1/2+z
x,-y,1/2+z
1/2+x,1/2+y,z
1/2-x,1/2-y,z
1/2+x,1/2-y,1/2-z
1/2-x,1/2+y,1/2-z
1/2-x,1/2-y,-z
1/2+x,1/2+y,-z
1/2-x,1/2+y,1/2+z
1/2+x,1/2-y,1/2+z
loop_
_atom_site_type_symbol
_atom_site_label
_atom_site_fract_x
_atom_site_fract_y
_atom_site_fract_z
Si Si1 0.990886 0.839633 0.895296
Si Si2 0.279455 0.028941 0.858495
Si Si3 0.849141 0.749787 0.603293
Si Si4 0.655252 0.695803 0.182238
O O1 0.928892 0.807002 0.823744
O O2 0.065569 0.762906 0.888895
O O3 0.962631 0.812098 0.000000
O O4 0.000000 0.000000 0.887677
O O5 0.319511 0.170268 0.871203
O O6 0.196594 0.071864 0.866756
O O7 0.291510 0.000000 0.750000
O O8 0.315225 0.899114 0.903323
O O9 0.832467 0.813175 0.500000
O O10 0.824588 0.801897 0.706517
#
# Coordination Sequence:
#
# PCOD9498398 Si02
#       4
#    16  16  16  16
#     4  10  23  41  63  97 134 174 227 281 340 407
#     4   9  21  40  61  94 129 172 227 274 335 412
#     4  10  22  41  65  99 136 175 227 284 340 409
#     4  10  21  40  67  93 132 179 224 279 344 409
#
# _framework density 23.920604000000001
#
# number of rings (size 3 to 8) (size 9 to 14) (size 15 to 20)
#    0.000    2.250    0.000    0.750    3.500    4.000 
#    0.000   18.750    0.000    1.500    0.000    0.000 
#    0.000    0.000    0.000    0.000    0.000    0.000 
#
# Total GULP energy -178404.976241 kJ/mol
# GULP energy per Si atom -5575.155508 kJ/mol
# Density = 2.386616 g / cm^3
# Si number density = 23.920604 Si / 1000 Ang^3
#
#
#
# Elastic Constant Matrix: (Units=GPa)
#
#
# Indices 1 2 3 4 5 6 
#
# 1 176.0827 66.6449 40.8705 0.0000 0.0000 0.0000
# 2 66.6449 120.3388 31.0544 0.0000 0.0000 0.0000
# 3 40.8705 31.0544 134.4760 0.0000 0.0000 0.0000
# 4 0.0000 0.0000 0.0000 6.4293 0.0000 0.0000
# 5 0.0000 0.0000 0.0000 0.0000 61.9356 0.0000
# 6 0.0000 0.0000 0.0000 0.0000 0.0000 33.5555
#
#
#
# Elastic Compliance Matrix: (Units=1/GPa)
#
#
# Indices 1 2 3 4 5 6 
#
# 1 0.007422 -0.003752 -0.001389 0.000000 0.000000 0.000000
# 2 -0.003752 0.010733 -0.001338 0.000000 0.000000 0.000000
# 3 -0.001389 -0.001338 0.008168 0.000000 0.000000 0.000000
# 4 0.000000 0.000000 0.000000 0.155537 0.000000 0.000000
# 5 0.000000 0.000000 0.000000 0.000000 0.016146 0.000000
# 6 0.000000 0.000000 0.000000 0.000000 0.000000 0.029801
#
#
# Mechanical properties :
#
#
# Convention : Reuss Voigt Hill
#
# Bulk Modulus (GPa) = 74.82988 78.67080 76.75034
# Shear Modulus (GPa) = 20.38990 39.87259 30.13125
#
# Velocity S-wave (km/s) = 2.92275 4.08716 3.55299
# Velocity P-wave (km/s) = 6.53762 7.43188 6.99905
#
# Compressibility (1/GPa) = 0.01336365
#
# Stress axis : x y z
#
# Youngs Moduli (GPa) = 134.74282 93.17114 122.43571
#
# Poissons Ratio (x) = 0.34954 0.17009
# Poissons Ratio (y) = 0.50551 0.16386
# Poissons Ratio (z) = 0.18719 0.12469
#
# Static dielectric constant tensor:
#      x y z
#    x 1.901100 0.000000 0.000000 
#    y 0.000000 1.947870 0.000000 
#    z 0.000000 0.000000 1.925310 
# 
# From -- ./inp_files/25774.got.cif
#   From: 2010.05.17/outbox.cif.g08.bks.cpg/sg66_13_cif.got.tgz:25774.got - 2010.06.03 17:51:23.
