data_PCOD9498774
_publ_section_title
;
Structure prediction by ZEFSAII (Michael W. Deem and Ramdas Pophale) SiO2 
 PCOD9498774
Probable space group: C C C M
;
_chemical_formula_sum "Si O2"
_cell_formula_units_Z 116
_cell_length_a 11.997205
_cell_length_b 16.527808
_cell_length_c 28.725252
_cell_angle_alpha 90.000000
_cell_angle_beta 90.000000
_cell_angle_gamma 90.000000
_cell_volume 5695.858428
_symmetry_space_group_name_H-M "C C C M"
_symmetry_group_IT_number 66
_symmetry_cell_setting 'orthorhombic'
loop_
_space_group_symop_operation_xyz
x,y,z
-x,-y,z
x,-y,1/2-z
-x,y,1/2-z
-x,-y,-z
x,y,-z
-x,y,1/2+z
x,-y,1/2+z
1/2+x,1/2+y,z
1/2-x,1/2-y,z
1/2+x,1/2-y,1/2-z
1/2-x,1/2+y,1/2-z
1/2-x,1/2-y,-z
1/2+x,1/2+y,-z
1/2-x,1/2+y,1/2+z
1/2+x,1/2-y,1/2+z
loop_
_atom_site_type_symbol
_atom_site_label
_atom_site_fract_x
_atom_site_fract_y
_atom_site_fract_z
Si Si1 0.209086 0.951216 0.399499
Si Si2 0.242905 0.836360 0.821789
Si Si3 0.750000 0.750000 0.500000
Si Si4 0.544284 0.326927 0.554029
Si Si5 0.514904 0.905070 0.305491
Si Si6 0.710693 0.367127 0.927523
Si Si7 0.641757 0.805160 0.124931
Si Si8 0.629618 0.517282 0.300020
O O1 0.106265 0.904904 0.423836
O O2 0.306673 0.884923 0.399609
O O3 0.230392 0.036756 0.424565
O O4 0.182173 0.974481 0.345354
O O5 0.250000 0.750000 0.799193
O O6 0.357803 0.882966 0.815945
O O7 0.218824 0.833463 0.876069
O O8 0.141334 0.887117 0.803034
O O9 0.789265 0.684888 0.540019
O O10 0.578662 0.312930 0.500000
O O11 0.413189 0.347350 0.553685
O O12 0.575523 0.252177 0.588308
O O13 0.500000 0.897482 0.250000
O O14 0.435348 0.842976 0.334164
O O15 0.500000 0.000000 0.318473
O O16 0.750000 0.750000 0.140149
O O17 0.500000 0.500000 0.299955
O O18 0.683931 0.500000 0.250000
#
# Coordination Sequence:
#
# PCOD9498774 Si02
#       8
#    16  16   4  16  16  16  16  16
#     4  10  22  40  68  94 126 169 219 279 326 404
#     4  11  23  41  65  94 132 166 214 276 326 396
#     4  12  24  36  62  90 132 168 212 268 316 408
#     4  11  23  42  68  95 131 170 221 281 340 397
#     4  11  25  43  68  95 129 179 223 270 336 408
#     4  11  22  40  64  94 128 166 217 266 338 392
#     4  10  24  45  66  94 136 173 221 281 335 399
#     4  10  22  41  66  94 131 172 214 270 333 397
#
# _framework density 20.365675
#
# number of rings (size 3 to 8) (size 9 to 14) (size 15 to 20)
#    0.000    1.379    1.379    4.552    4.828    4.690 
#    4.966    0.000    0.000    1.241    0.000    0.000 
#    0.000    0.000    0.000    0.000    0.000    0.000 
#
# Total GULP energy -323010.110637 kJ/mol
# GULP energy per Si atom -5569.139839 kJ/mol
# Density = 2.031932 g / cm^3
# Si number density = 20.365675 Si / 1000 Ang^3
#
#
#
# Elastic Constant Matrix: (Units=GPa)
#
#
# Indices 1 2 3 4 5 6 
#
# 1 65.2032 34.6319 4.9037 0.0000 0.0000 0.0000
# 2 34.6319 179.5677 42.2930 0.0000 0.0000 0.0000
# 3 4.9037 42.2930 119.7777 0.0000 0.0000 0.0000
# 4 0.0000 0.0000 0.0000 16.6860 0.0000 0.0000
# 5 0.0000 0.0000 0.0000 0.0000 52.6041 0.0000
# 6 0.0000 0.0000 0.0000 0.0000 0.0000 28.3259
#
#
#
# Elastic Compliance Matrix: (Units=1/GPa)
#
#
# Indices 1 2 3 4 5 6 
#
# 1 0.017115 -0.003420 0.000507 0.000000 0.000000 0.000000
# 2 -0.003420 0.006758 -0.002246 0.000000 0.000000 0.000000
# 3 0.000507 -0.002246 0.009121 0.000000 0.000000 0.000000
# 4 0.000000 0.000000 0.000000 0.059930 0.000000 0.000000
# 5 0.000000 0.000000 0.000000 0.000000 0.019010 0.000000
# 6 0.000000 0.000000 0.000000 0.000000 0.000000 0.035303
#
#
# Mechanical properties :
#
#
# Convention : Reuss Voigt Hill
#
# Bulk Modulus (GPa) = 44.10107 58.68954 51.39530
# Shear Modulus (GPa) = 30.28199 38.37121 34.32660
#
# Velocity S-wave (km/s) = 3.86023 4.34534 4.10995
# Velocity P-wave (km/s) = 6.44749 7.35231 6.91472
#
# Compressibility (1/GPa) = 0.02267519
#
# Stress axis : x y z
#
# Youngs Moduli (GPa) = 58.42766 147.98198 109.63576
#
# Poissons Ratio (x) = 0.50614 -0.05558
# Poissons Ratio (y) = 0.19984 0.24625
# Poissons Ratio (z) = -0.02962 0.33237
#
# Static dielectric constant tensor:
#      x y z
#    x 1.771920 0.000000 0.000000 
#    y 0.000000 1.860280 0.000000 
#    z 0.000000 0.000000 1.768320 
# 
# From -- ./inp_files/63869.got.cif
#   From: 2010.05.17/outbox.cif.g08.bks.cpg/sg66_32_cif.got.tgz:63869.got - 2010.06.03 17:51:23.
