data_PCOD9498649
_publ_section_title
;
Structure prediction by ZEFSAII (Michael W. Deem and Ramdas Pophale) SiO2 
 PCOD9498649
Probable space group: C C C M
;
_chemical_formula_sum "Si O2"
_cell_formula_units_Z 112
_cell_length_a 24.748381
_cell_length_b 15.098149
_cell_length_c 14.534612
_cell_angle_alpha 90.000000
_cell_angle_beta 90.000000
_cell_angle_gamma 90.000000
_cell_volume 5430.926724
_symmetry_space_group_name_H-M "C C C M"
_symmetry_group_IT_number 66
_symmetry_cell_setting 'orthorhombic'
loop_
_space_group_symop_operation_xyz
x,y,z
-x,-y,z
x,-y,1/2-z
-x,y,1/2-z
-x,-y,-z
x,y,-z
-x,y,1/2+z
x,-y,1/2+z
1/2+x,1/2+y,z
1/2-x,1/2-y,z
1/2+x,1/2-y,1/2-z
1/2-x,1/2+y,1/2-z
1/2-x,1/2-y,-z
1/2+x,1/2+y,-z
1/2-x,1/2+y,1/2+z
1/2+x,1/2-y,1/2+z
loop_
_atom_site_type_symbol
_atom_site_label
_atom_site_fract_x
_atom_site_fract_y
_atom_site_fract_z
Si Si1 0.720202 0.580317 0.896969
Si Si2 0.034685 0.081686 0.611236
Si Si3 0.952254 0.563716 0.890328
Si Si4 0.048385 0.230242 0.111072
Si Si5 0.158385 0.779604 0.276204
Si Si6 0.668079 0.075047 0.679490
Si Si7 0.842170 0.901742 0.610114
O O1 0.699754 0.660737 0.834765
O O2 0.784870 0.576997 0.895733
O O3 0.695967 0.485127 0.867493
O O4 0.699507 0.595671 0.000000
O O5 0.034417 0.079183 0.500000
O O6 0.096654 0.072240 0.636487
O O7 0.003194 0.170913 0.635658
O O8 0.000000 0.000000 0.645372
O O9 0.964907 0.666836 0.873527
O O10 0.892082 0.549326 0.852376
O O11 0.000000 0.500000 0.855986
O O12 0.948911 0.551064 0.000000
O O13 0.100102 0.205292 0.173437
O O14 0.060264 0.218982 0.000000
O O15 0.166426 0.674390 0.280637
O O16 0.166054 0.815924 0.173087
O O17 0.685922 0.000000 0.750000
O O18 0.838623 0.884974 0.500000
#
# Coordination Sequence:
#
# PCOD9498649 Si02
#       7
#    16  16  16  16  16  16  16
#     4  11  23  41  66  92 119 151 192 248 306 359
#     4   9  17  31  52  80 117 158 195 234 286 348
#     4   9  19  37  60  85 115 153 198 250 304 352
#     4   9  18  33  56  88 120 152 199 253 299 348
#     4  11  22  38  62  89 121 158 200 248 299 357
#     4  11  24  40  60  88 121 156 200 250 297 352
#     4  10  22  39  59  87 124 163 200 241 296 363
#
# _framework density 20.622631999999999
#
# number of rings (size 3 to 8) (size 9 to 14) (size 15 to 20)
#    0.000    2.000    0.000    3.429    0.000    6.571 
#    0.000    6.429    0.000    3.429    0.000    0.000 
#    0.000    5.143    0.000    0.000    0.000    0.000 
#
# Total GULP energy -312667.806302 kJ/mol
# GULP energy per Si atom -5583.353684 kJ/mol
# Density = 2.057569 g / cm^3
# Si number density = 20.622632 Si / 1000 Ang^3
#
#
#
# Elastic Constant Matrix: (Units=GPa)
#
#
# Indices 1 2 3 4 5 6 
#
# 1 118.6579 54.9349 26.5845 0.0000 0.0000 0.0000
# 2 54.9349 89.3184 50.3678 0.0000 0.0000 0.0000
# 3 26.5845 50.3678 81.6563 0.0000 0.0000 0.0000
# 4 0.0000 0.0000 0.0000 13.4475 0.0000 0.0000
# 5 0.0000 0.0000 0.0000 0.0000 -10.0352 0.0000
# 6 0.0000 0.0000 0.0000 0.0000 0.0000 16.6114
#
#
#
# Elastic Compliance Matrix: (Units=1/GPa)
#
#
# Indices 1 2 3 4 5 6 
#
# 1 0.011833 -0.007829 0.000976 0.000000 0.000000 0.000000
# 2 -0.007829 0.022347 -0.011235 0.000000 0.000000 0.000000
# 3 0.000976 -0.011235 0.018859 0.000000 0.000000 0.000000
# 4 0.000000 0.000000 0.000000 0.074363 0.000000 0.000000
# 5 0.000000 0.000000 0.000000 0.000000 -0.099649 0.000000
# 6 0.000000 0.000000 0.000000 0.000000 0.000000 0.060200
#
#
# Mechanical properties :
#
#
# Convention : Reuss Voigt Hill
#
# Bulk Modulus (GPa) = 59.29904 61.48970 60.39437
# Shear Modulus (GPa) = 38.53628 14.52111 26.52869
#
# Velocity S-wave (km/s) = 4.32747 2.65643 3.59052
# Velocity P-wave (km/s) = 7.33390 6.26819 6.82189
#
# Compressibility (1/GPa) = 0.01686368
#
# Stress axis : x y z
#
# Youngs Moduli (GPa) = 84.50783 44.74966 53.02569
#
# Poissons Ratio (x) = 0.35033 -0.05177
# Poissons Ratio (y) = 0.66158 0.59576
# Poissons Ratio (z) = -0.08251 0.50277
#
# Static dielectric constant tensor:
#      x y z
#    x 1.739660 0.000000 0.000000 
#    y 0.000000 1.707380 0.000000 
#    z 0.000000 0.000000 1.758980 
# 
# From -- ./inp_files/32513.got.cif
#   From: 2010.05.17/outbox.cif.g08.bks.cpg/sg66_17_cif.got.tgz:32513.got - 2010.06.03 17:51:23.
