data_PCOD9498399
_publ_section_title
;
Structure prediction by ZEFSAII (Michael W. Deem and Ramdas Pophale) SiO2 
 PCOD9498399
Probable space group: C C C M
;
_chemical_formula_sum "Si O2"
_cell_formula_units_Z 116
_cell_length_a 25.689589
_cell_length_b 9.330272
_cell_length_c 24.263403
_cell_angle_alpha 90.000000
_cell_angle_beta 90.000000
_cell_angle_gamma 90.000000
_cell_volume 5815.715760
_symmetry_space_group_name_H-M "C C C M"
_symmetry_group_IT_number 66
_symmetry_cell_setting 'orthorhombic'
loop_
_space_group_symop_operation_xyz
x,y,z
-x,-y,z
x,-y,1/2-z
-x,y,1/2-z
-x,-y,-z
x,y,-z
-x,y,1/2+z
x,-y,1/2+z
1/2+x,1/2+y,z
1/2-x,1/2-y,z
1/2+x,1/2-y,1/2-z
1/2-x,1/2+y,1/2-z
1/2-x,1/2-y,-z
1/2+x,1/2+y,-z
1/2-x,1/2+y,1/2+z
1/2+x,1/2-y,1/2+z
loop_
_atom_site_type_symbol
_atom_site_label
_atom_site_fract_x
_atom_site_fract_y
_atom_site_fract_z
Si Si1 0.709375 0.121369 0.560294
Si Si2 0.500000 0.000000 0.750000
Si Si3 0.637978 0.038777 0.689335
Si Si4 0.065436 0.679632 0.841045
Si Si5 0.386026 0.717650 0.619379
Si Si6 0.995988 0.173540 0.434660
Si Si7 0.752442 0.420828 0.154415
Si Si8 0.135100 0.049678 0.688762
O O1 0.696340 0.065157 0.500000
O O2 0.750000 0.250000 0.556715
O O3 0.659524 0.200398 0.586564
O O4 0.737601 0.000425 0.596567
O O5 0.527976 0.110648 0.793873
O O6 0.604502 0.950346 0.644818
O O7 0.697571 0.987069 0.686015
O O8 0.620251 0.000000 0.750000
O O9 0.621726 0.200472 0.677667
O O10 0.034898 0.745051 0.892880
O O11 0.105120 0.801286 0.819647
O O12 0.439190 0.725119 0.585758
O O13 0.380402 0.553720 0.638047
O O14 0.004052 0.202623 0.500000
O O15 0.000000 0.000000 0.427390
O O16 0.750000 0.250000 0.148293
O O17 0.697812 0.452196 0.183700
O O18 0.120659 0.000000 0.750000
#
# Coordination Sequence:
#
# PCOD9498399 Si02
#       8
#    16   4  16  16  16  16  16  16
#     4  10  21  40  67  94 126 172 223 279 339 397
#     4  12  28  44  72 100 148 180 222 302 336 414
#     4  11  23  42  66  96 138 180 217 275 345 410
#     4  12  25  45  68 100 132 182 228 272 350 400
#     4  11  23  43  67  97 134 171 229 281 336 414
#     4  11  25  46  70  99 135 177 231 293 347 406
#     4  11  23  41  63  96 142 176 221 274 337 418
#     4  12  25  41  66 103 136 175 226 277 336 419
#
# _framework density 19.945952999999999
#
# number of rings (size 3 to 8) (size 9 to 14) (size 15 to 20)
#    0.000    0.828    4.828    2.483    1.931    0.276 
#    0.000    6.552    0.000    0.000    0.000    0.000 
#    0.000    0.000    0.000    0.000    0.000    0.000 
#
# Total GULP energy -323037.560981 kJ/mol
# GULP energy per Si atom -5569.613120 kJ/mol
# Density = 1.990056 g / cm^3
# Si number density = 19.945953 Si / 1000 Ang^3
#
#
#
# Elastic Constant Matrix: (Units=GPa)
#
#
# Indices 1 2 3 4 5 6 
#
# 1 111.1875 18.7907 33.5769 0.0000 0.0000 0.0000
# 2 18.7907 61.3234 13.6233 0.0000 0.0000 0.0000
# 3 33.5769 13.6233 103.5822 0.0000 0.0000 0.0000
# 4 0.0000 0.0000 0.0000 15.7286 0.0000 0.0000
# 5 0.0000 0.0000 0.0000 0.0000 13.6324 0.0000
# 6 0.0000 0.0000 0.0000 0.0000 0.0000 33.4237
#
#
#
# Elastic Compliance Matrix: (Units=1/GPa)
#
#
# Indices 1 2 3 4 5 6 
#
# 1 0.010327 -0.002494 -0.003020 0.000000 0.000000 0.000000
# 2 -0.002494 0.017400 -0.001480 0.000000 0.000000 0.000000
# 3 -0.003020 -0.001480 0.010828 0.000000 0.000000 0.000000
# 4 0.000000 0.000000 0.000000 0.063578 0.000000 0.000000
# 5 0.000000 0.000000 0.000000 0.000000 0.073355 0.000000
# 6 0.000000 0.000000 0.000000 0.000000 0.000000 0.029919
#
#
# Mechanical properties :
#
#
# Convention : Reuss Voigt Hill
#
# Bulk Modulus (GPa) = 40.70349 45.34164 43.02257
# Shear Modulus (GPa) = 21.97003 26.56376 24.26690
#
# Velocity S-wave (km/s) = 3.32245 3.65332 3.49181
# Velocity P-wave (km/s) = 5.93038 6.37003 6.15414
#
# Compressibility (1/GPa) = 0.02456792
#
# Stress axis : x y z
#
# Youngs Moduli (GPa) = 96.83248 57.47166 92.35597
#
# Poissons Ratio (x) = 0.14331 0.27888
# Poissons Ratio (y) = 0.24146 0.13670
# Poissons Ratio (z) = 0.29240 0.08507
#
# Static dielectric constant tensor:
#      x y z
#    x 1.777230 0.000000 0.000000 
#    y 0.000000 1.360980 0.000000 
#    z 0.000000 0.000000 1.792600 
# 
# From -- ./inp_files/66131.got.cif
#   From: 2010.05.17/outbox.cif.g08.bks.cpg/sg66_34_cif.got.tgz:66131.got - 2010.06.03 17:51:23.
