data_PCOD9498664
_publ_section_title
;
Structure prediction by ZEFSAII (Michael W. Deem and Ramdas Pophale) SiO2 
 PCOD9498664
Probable space group: C C C M
;
_chemical_formula_sum "Si O2"
_cell_formula_units_Z 36
_cell_length_a 12.881984
_cell_length_b 4.956146
_cell_length_c 22.524029
_cell_angle_alpha 90.000000
_cell_angle_beta 90.000000
_cell_angle_gamma 90.000000
_cell_volume 1438.046485
_symmetry_space_group_name_H-M "C C C M"
_symmetry_group_IT_number 66
_symmetry_cell_setting 'orthorhombic'
loop_
_space_group_symop_operation_xyz
x,y,z
-x,-y,z
x,-y,1/2-z
-x,y,1/2-z
-x,-y,-z
x,y,-z
-x,y,1/2+z
x,-y,1/2+z
1/2+x,1/2+y,z
1/2-x,1/2-y,z
1/2+x,1/2-y,1/2-z
1/2-x,1/2+y,1/2-z
1/2-x,1/2-y,-z
1/2+x,1/2+y,-z
1/2-x,1/2+y,1/2+z
1/2+x,1/2-y,1/2+z
loop_
_atom_site_type_symbol
_atom_site_label
_atom_site_fract_x
_atom_site_fract_y
_atom_site_fract_z
Si Si1 0.250000 0.750000 0.500000
Si Si2 0.623153 0.539514 0.606041
Si Si3 0.376389 0.954758 0.315644
O O1 0.311507 0.572532 0.551529
O O2 0.500000 0.500000 0.591379
O O3 0.646373 0.838747 0.630261
O O4 0.642111 0.346685 0.662414
O O5 0.500000 0.000000 0.310142
O O6 0.332450 0.000000 0.250000
#
# Coordination Sequence:
#
# PCOD9498664 Si02
#       3
#     4  16  16
#     4  12  26  42  60  88 132 178 218 256 312 388
#     4  10  22  39  62  91 124 166 213 265 322 387
#     4   9  18  37  65  93 120 156 208 270 333 389
#
# _framework density 25.033961000000001
#
# number of rings (size 3 to 8) (size 9 to 14) (size 15 to 20)
#    0.000    2.222    0.000    2.000    0.000   10.667 
#    0.000   11.111    0.000    0.000    0.000    0.000 
#    0.000    0.000    0.000    0.000    0.000    0.000 
#
# Total GULP energy -100230.765788 kJ/mol
# GULP energy per Si atom -5568.375877 kJ/mol
# Density = 2.497698 g / cm^3
# Si number density = 25.033961 Si / 1000 Ang^3
#
#
#
# Elastic Constant Matrix: (Units=GPa)
#
#
# Indices 1 2 3 4 5 6 
#
# 1 111.7426 11.6716 50.5329 0.0000 0.0000 0.0000
# 2 11.6716 110.1134 46.8260 0.0000 0.0000 0.0000
# 3 50.5329 46.8260 217.7839 0.0000 0.0000 0.0000
# 4 0.0000 0.0000 0.0000 -67.4445 0.0000 0.0000
# 5 0.0000 0.0000 0.0000 0.0000 -174.4946 0.0000
# 6 0.0000 0.0000 0.0000 0.0000 0.0000 41.2189
#
#
#
# Elastic Compliance Matrix: (Units=1/GPa)
#
#
# Indices 1 2 3 4 5 6 
#
# 1 0.009999 -0.000081 -0.002303 0.000000 0.000000 0.000000
# 2 -0.000081 0.009996 -0.002131 0.000000 0.000000 0.000000
# 3 -0.002303 -0.002131 0.005584 0.000000 0.000000 0.000000
# 4 0.000000 0.000000 0.000000 -0.014827 0.000000 0.000000
# 5 0.000000 0.000000 0.000000 0.000000 -0.005731 0.000000
# 6 0.000000 0.000000 0.000000 0.000000 0.000000 0.024261
#
#
# Mechanical properties :
#
#
# Convention : Reuss Voigt Hill
#
# Bulk Modulus (GPa) = 60.41817 73.07788 66.74802
# Shear Modulus (GPa) = 114.08496 -18.10343 47.99077
#
# Velocity S-wave (km/s) = 6.75803 -2.69207 4.38314
# Velocity P-wave (km/s) = 9.22397 4.42627 7.23441
#
# Compressibility (1/GPa) = 0.01655131
#
# Stress axis : x y z
#
# Youngs Moduli (GPa) = 100.01086 100.03878 179.07944
#
# Poissons Ratio (x) = 0.00806 0.41237
# Poissons Ratio (y) = 0.00806 0.38154
# Poissons Ratio (z) = 0.23030 0.21314
#
# Static dielectric constant tensor:
#      x y z
#    x 2.155070 0.000000 0.000000 
#    y 0.000000 1.913970 0.000000 
#    z 0.000000 0.000000 1.849520 
# 
# From -- ./inp_files/45045.got.cif
#   From: 2010.05.17/outbox.cif.g08.bks.cpg/sg66_23_cif.got.tgz:45045.got - 2010.06.03 17:51:23.
