data_PCOD9498452
_publ_section_title
;
Structure prediction by ZEFSAII (Michael W. Deem and Ramdas Pophale) SiO2 
 PCOD9498452
Probable space group: C C C M
;
_chemical_formula_sum "Si O2"
_cell_formula_units_Z 56
_cell_length_a 18.267248
_cell_length_b 14.080783
_cell_length_c 9.981382
_cell_angle_alpha 90.000000
_cell_angle_beta 90.000000
_cell_angle_gamma 90.000000
_cell_volume 2567.382682
_symmetry_space_group_name_H-M "C C C M"
_symmetry_group_IT_number 66
_symmetry_cell_setting 'orthorhombic'
loop_
_space_group_symop_operation_xyz
x,y,z
-x,-y,z
x,-y,1/2-z
-x,y,1/2-z
-x,-y,-z
x,y,-z
-x,y,1/2+z
x,-y,1/2+z
1/2+x,1/2+y,z
1/2-x,1/2-y,z
1/2+x,1/2-y,1/2-z
1/2-x,1/2+y,1/2-z
1/2-x,1/2-y,-z
1/2+x,1/2+y,-z
1/2-x,1/2+y,1/2+z
1/2+x,1/2-y,1/2+z
loop_
_atom_site_type_symbol
_atom_site_label
_atom_site_fract_x
_atom_site_fract_y
_atom_site_fract_z
Si Si1 0.569720 0.354626 0.657067
Si Si2 0.686979 0.000000 0.250000
Si Si3 0.939696 0.373440 0.355661
Si Si4 0.706027 0.348335 0.151659
O O1 0.500000 0.383350 0.750000
O O2 0.567617 0.387775 0.500000
O O3 0.570204 0.239729 0.651842
O O4 0.643636 0.374358 0.740523
O O5 0.634928 0.071540 0.330339
O O6 0.736489 0.066203 0.157401
O O7 0.969962 0.396278 0.500000
O O8 0.000000 0.399674 0.250000
O O9 0.750000 0.250000 0.182651
O O10 0.675496 0.337611 0.000000
#
# Coordination Sequence:
#
# PCOD9498452 Si02
#       4
#    16   8  16  16
#     4  10  21  41  67  93 126 168 215 264 319 382
#     4  12  23  40  63  96 130 170 214 266 315 386
#     4  10  22  38  60  92 128 167 207 257 318 387
#     4  11  24  42  65  95 132 173 216 265 319 381
#
# _framework density 21.812097000000001
#
# number of rings (size 3 to 8) (size 9 to 14) (size 15 to 20)
#    0.000    1.429    2.857    2.143    0.000    7.429 
#    0.000    0.714    0.000    3.429    0.000    0.000 
#    0.000    0.000    0.000    0.000    0.000    0.000 
#
# Total GULP energy -156417.294529 kJ/mol
# GULP energy per Si atom -5586.331947 kJ/mol
# Density = 2.176245 g / cm^3
# Si number density = 21.812097 Si / 1000 Ang^3
#
#
#
# Elastic Constant Matrix: (Units=GPa)
#
#
# Indices 1 2 3 4 5 6 
#
# 1 127.6100 17.7988 89.4856 0.0000 0.0000 0.0000
# 2 17.7988 54.5958 14.5421 0.0000 0.0000 0.0000
# 3 89.4856 14.5421 197.9625 0.0000 0.0000 0.0000
# 4 0.0000 0.0000 0.0000 18.1822 0.0000 0.0000
# 5 0.0000 0.0000 0.0000 0.0000 26.9147 0.0000
# 6 0.0000 0.0000 0.0000 0.0000 0.0000 37.4968
#
#
#
# Elastic Compliance Matrix: (Units=1/GPa)
#
#
# Indices 1 2 3 4 5 6 
#
# 1 0.011792 -0.002473 -0.005149 0.000000 0.000000 0.000000
# 2 -0.002473 0.019201 -0.000293 0.000000 0.000000 0.000000
# 3 -0.005149 -0.000293 0.007400 0.000000 0.000000 0.000000
# 4 0.000000 0.000000 0.000000 0.054999 0.000000 0.000000
# 5 0.000000 0.000000 0.000000 0.000000 0.037154 0.000000
# 6 0.000000 0.000000 0.000000 0.000000 0.000000 0.026669
#
#
# Mechanical properties :
#
#
# Convention : Reuss Voigt Hill
#
# Bulk Modulus (GPa) = 44.31762 69.31348 56.81555
# Shear Modulus (GPa) = 27.69098 33.74154 30.71626
#
# Velocity S-wave (km/s) = 3.56690 3.93736 3.75670
# Velocity P-wave (km/s) = 6.10948 7.24685 6.70234
#
# Compressibility (1/GPa) = 0.02256439
#
# Stress axis : x y z
#
# Youngs Moduli (GPa) = 84.80555 52.08186 135.12992
#
# Poissons Ratio (x) = 0.12879 0.69573
# Poissons Ratio (y) = 0.20971 0.03955
# Poissons Ratio (z) = 0.43663 0.01524
#
# Static dielectric constant tensor:
#      x y z
#    x 1.770750 0.000000 0.000000 
#    y 0.000000 1.829080 0.000000 
#    z 0.000000 0.000000 1.796450 
# 
# From -- ./inp_files/6009.got.cif
#   From: 2010.05.17/outbox.cif.g08.bks.cpg/sg66_4_cif.got.tgz:6009.got - 2010.06.03 17:51:23.
