data_PCOD9498000
_publ_section_title
;
Structure prediction by ZEFSAII (Michael W. Deem and Ramdas Pophale) SiO2 
 PCOD9498000
Probable space group: C C C M
;
_chemical_formula_sum "Si O2"
_cell_formula_units_Z 104
_cell_length_a 22.267711
_cell_length_b 26.070424
_cell_length_c 9.156716
_cell_angle_alpha 90.000000
_cell_angle_beta 90.000000
_cell_angle_gamma 90.000000
_cell_volume 5315.736136
_symmetry_space_group_name_H-M "C C C M"
_symmetry_group_IT_number 66
_symmetry_cell_setting 'orthorhombic'
loop_
_space_group_symop_operation_xyz
x,y,z
-x,-y,z
x,-y,1/2-z
-x,y,1/2-z
-x,-y,-z
x,y,-z
-x,y,1/2+z
x,-y,1/2+z
1/2+x,1/2+y,z
1/2-x,1/2-y,z
1/2+x,1/2-y,1/2-z
1/2-x,1/2+y,1/2-z
1/2-x,1/2-y,-z
1/2+x,1/2+y,-z
1/2-x,1/2+y,1/2+z
1/2+x,1/2-y,1/2+z
loop_
_atom_site_type_symbol
_atom_site_label
_atom_site_fract_x
_atom_site_fract_y
_atom_site_fract_z
Si Si1 0.679583 0.244021 0.664298
Si Si2 0.691319 0.054762 0.827512
Si Si3 0.616809 0.864556 0.838213
Si Si4 0.560083 0.389089 0.673429
Si Si5 0.172120 0.056022 0.323962
Si Si6 0.921893 0.789023 0.660776
Si Si7 0.500000 0.804652 0.750000
O O1 0.661020 0.261989 0.500000
O O2 0.750000 0.250000 0.676659
O O3 0.659693 0.185005 0.672452
O O4 0.644736 0.273117 0.791448
O O5 0.640477 0.093975 0.775150
O O6 0.759390 0.074632 0.794552
O O7 0.684592 0.000000 0.750000
O O8 0.688131 0.047339 0.000000
O O9 0.550053 0.841280 0.820481
O O10 0.622730 0.887103 0.000000
O O11 0.500000 0.411309 0.750000
O O12 0.559825 0.397298 0.500000
O O13 0.620056 0.410828 0.748988
O O14 0.559335 0.328765 0.714022
O O15 0.163921 0.053452 0.500000
O O16 0.168214 0.000000 0.250000
O O17 0.925175 0.813111 0.500000
O O18 0.960475 0.736657 0.659925
#
# Coordination Sequence:
#
# PCOD9498000 Si02
#       7
#    16  16  16  16  16  16   8
#     4   9  20  37  55  83 120 160 200 244 300 363
#     4  10  22  41  66  94 125 159 199 251 309 370
#     4  10  21  37  61  90 122 163 208 253 307 369
#     4  12  25  40  61  88 120 161 207 256 305 361
#     4  10  22  42  65  92 123 158 201 250 308 370
#     4  11  22  37  59  85 118 160 205 252 301 360
#     4  10  22  40  63  86 123 168 208 254 304 368
#
# _framework density 19.564551999999999
#
# number of rings (size 3 to 8) (size 9 to 14) (size 15 to 20)
#    0.000    1.692    0.769    3.231    2.154    6.769 
#    0.000    1.923    0.000    1.846    0.000    0.000 
#    0.000    0.000    0.000    0.000    0.000    0.000 
#
# Total GULP energy -290068.887996 kJ/mol
# GULP energy per Si atom -5578.247846 kJ/mol
# Density = 1.952002 g / cm^3
# Si number density = 19.564552 Si / 1000 Ang^3
#
#
#
# Elastic Constant Matrix: (Units=GPa)
#
#
# Indices 1 2 3 4 5 6 
#
# 1 113.2009 46.4787 43.0910 0.0000 0.0000 0.0000
# 2 46.4787 40.1596 21.4169 0.0000 0.0000 0.0000
# 3 43.0910 21.4169 110.0522 0.0000 0.0000 0.0000
# 4 0.0000 0.0000 0.0000 24.9461 0.0000 0.0000
# 5 0.0000 0.0000 0.0000 0.0000 -17.4387 0.0000
# 6 0.0000 0.0000 0.0000 0.0000 0.0000 22.9698
#
#
#
# Elastic Compliance Matrix: (Units=1/GPa)
#
#
# Indices 1 2 3 4 5 6 
#
# 1 0.017853 -0.018896 -0.003313 0.000000 0.000000 0.000000
# 2 -0.018896 0.047783 -0.001900 0.000000 0.000000 0.000000
# 3 -0.003313 -0.001900 0.010754 0.000000 0.000000 0.000000
# 4 0.000000 0.000000 0.000000 0.040086 0.000000 0.000000
# 5 0.000000 0.000000 0.000000 0.000000 -0.057344 0.000000
# 6 0.000000 0.000000 0.000000 0.000000 0.000000 0.043535
#
#
# Mechanical properties :
#
#
# Convention : Reuss Voigt Hill
#
# Bulk Modulus (GPa) = 35.49674 53.93176 44.71425
# Shear Modulus (GPa) = 31.19603 16.25718 23.72661
#
# Velocity S-wave (km/s) = 3.99747 2.88575 3.48621
# Velocity P-wave (km/s) = 6.28404 6.22329 6.25374
#
# Compressibility (1/GPa) = 0.02817160
#
# Stress axis : x y z
#
# Youngs Moduli (GPa) = 56.01198 20.92804 92.99108
#
# Poissons Ratio (x) = 0.39545 0.30811
# Poissons Ratio (y) = 1.05838 0.17671
# Poissons Ratio (z) = 0.18558 0.03977
#
# Static dielectric constant tensor:
#      x y z
#    x 1.710710 0.000000 0.000000 
#    y 0.000000 1.666050 0.000000 
#    z 0.000000 0.000000 1.698360 
# 
# From -- ./inp_files/9355.got.cif
#   From: 2010.05.17/outbox.cif.g08.bks.cpg/sg66_5_cif.got.tgz:9355.got - 2010.06.03 17:51:23.
