data_PCOD9498993
_publ_section_title
;
Structure prediction by ZEFSAII (Michael W. Deem and Ramdas Pophale) SiO2 
 PCOD9498993
Probable space group: C C C M
;
_chemical_formula_sum "Si O2"
_cell_formula_units_Z 116
_cell_length_a 11.493647
_cell_length_b 17.625015
_cell_length_c 27.197756
_cell_angle_alpha 90.000000
_cell_angle_beta 90.000000
_cell_angle_gamma 90.000000
_cell_volume 5509.604481
_symmetry_space_group_name_H-M "C C C M"
_symmetry_group_IT_number 66
_symmetry_cell_setting 'orthorhombic'
loop_
_space_group_symop_operation_xyz
x,y,z
-x,-y,z
x,-y,1/2-z
-x,y,1/2-z
-x,-y,-z
x,y,-z
-x,y,1/2+z
x,-y,1/2+z
1/2+x,1/2+y,z
1/2-x,1/2-y,z
1/2+x,1/2-y,1/2-z
1/2-x,1/2+y,1/2-z
1/2-x,1/2-y,-z
1/2+x,1/2+y,-z
1/2-x,1/2+y,1/2+z
1/2+x,1/2-y,1/2+z
loop_
_atom_site_type_symbol
_atom_site_label
_atom_site_fract_x
_atom_site_fract_y
_atom_site_fract_z
Si Si1 0.927448 0.074452 0.412944
Si Si2 0.500000 0.000000 0.000000
Si Si3 0.676721 0.045582 0.422352
Si Si4 0.376784 0.318037 0.555996
Si Si5 0.588607 0.313246 0.324057
Si Si6 0.016960 0.682831 0.609341
Si Si7 0.173116 0.177708 0.282471
Si Si8 0.208268 0.402650 0.636837
O O1 0.806878 0.060516 0.440243
O O2 0.896743 0.120824 0.363710
O O3 0.015774 0.124567 0.443760
O O4 0.000000 0.000000 0.399846
O O5 0.600612 0.005649 0.957967
O O6 0.603654 0.123376 0.416856
O O7 0.696892 0.990986 0.375918
O O8 0.331952 0.311841 0.500000
O O9 0.438749 0.240189 0.575455
O O10 0.285709 0.355157 0.595624
O O11 0.593660 0.234736 0.354230
O O12 0.456349 0.314418 0.303745
O O13 0.667264 0.324078 0.276294
O O14 0.919459 0.633909 0.637063
O O15 0.250000 0.250000 0.297604
O O16 0.230063 0.108345 0.311079
#
# Coordination Sequence:
#
# PCOD9498993 Si02
#       8
#    16   4  16  16  16  16  16  16
#     4  11  23  46  68  97 136 180 231 294 355 419
#     4  12  28  48  62 112 134 208 234 276 378 424
#     4  12  27  42  71  95 146 184 237 290 353 431
#     4  11  25  39  67 102 134 179 236 291 351 421
#     4  10  23  39  68 101 132 178 234 292 361 427
#     4  11  23  44  64  99 140 181 229 293 356 417
#     4  11  20  39  68  98 132 178 232 287 348 424
#     4  12  21  45  67 100 138 185 235 293 341 423
#
# _framework density 21.054143
#
# number of rings (size 3 to 8) (size 9 to 14) (size 15 to 20)
#    0.000    0.828    6.897    0.414    4.828    3.034 
#    0.000    5.517    0.000    0.000    0.000    0.000 
#    0.000    0.000    0.000    0.000    0.000    0.000 
#
# Total GULP energy -323241.267271 kJ/mol
# GULP energy per Si atom -5573.125298 kJ/mol
# Density = 2.100622 g / cm^3
# Si number density = 21.054143 Si / 1000 Ang^3
#
#
#
# Elastic Constant Matrix: (Units=GPa)
#
#
# Indices 1 2 3 4 5 6 
#
# 1 101.9009 11.2002 2.8193 0.0000 0.0000 0.0000
# 2 11.2002 82.3573 1.6958 0.0000 0.0000 0.0000
# 3 2.8193 1.6958 80.0008 0.0000 0.0000 0.0000
# 4 0.0000 0.0000 0.0000 13.9839 0.0000 0.0000
# 5 0.0000 0.0000 0.0000 0.0000 15.3096 0.0000
# 6 0.0000 0.0000 0.0000 0.0000 0.0000 32.7506
#
#
#
# Elastic Compliance Matrix: (Units=1/GPa)
#
#
# Indices 1 2 3 4 5 6 
#
# 1 0.009971 -0.001349 -0.000323 0.000000 0.000000 0.000000
# 2 -0.001349 0.012330 -0.000214 0.000000 0.000000 0.000000
# 3 -0.000323 -0.000214 0.012516 0.000000 0.000000 0.000000
# 4 0.000000 0.000000 0.000000 0.071511 0.000000 0.000000
# 5 0.000000 0.000000 0.000000 0.000000 0.065318 0.000000
# 6 0.000000 0.000000 0.000000 0.000000 0.000000 0.030534
#
#
# Mechanical properties :
#
#
# Convention : Reuss Voigt Hill
#
# Bulk Modulus (GPa) = 32.21151 32.85438 32.53295
# Shear Modulus (GPa) = 23.11607 28.97841 26.04724
#
# Velocity S-wave (km/s) = 3.31710 3.71398 3.52114
# Velocity P-wave (km/s) = 5.47754 5.83353 5.65834
#
# Compressibility (1/GPa) = 0.03104480
#
# Stress axis : x y z
#
# Youngs Moduli (GPa) = 100.29393 81.10219 79.89912
#
# Poissons Ratio (x) = 0.10943 0.02579
# Poissons Ratio (y) = 0.13533 0.01708
# Poissons Ratio (z) = 0.03237 0.01734
#
# Static dielectric constant tensor:
#      x y z
#    x 1.748060 0.000000 0.000000 
#    y 0.000000 1.795570 0.000000 
#    z 0.000000 0.000000 1.722430 
# 
# From -- ./inp_files/63848.got.cif
#   From: 2010.05.17/outbox.cif.g08.bks.cpg/sg66_32_cif.got.tgz:63848.got - 2010.06.03 17:51:23.
