data_PCOD9498126
_publ_section_title
;
Structure prediction by ZEFSAII (Michael W. Deem and Ramdas Pophale) SiO2 
 PCOD9498126
Probable space group: C C C M
;
_chemical_formula_sum "Si O2"
_cell_formula_units_Z 56
_cell_length_a 11.867236
_cell_length_b 15.557031
_cell_length_c 13.861043
_cell_angle_alpha 90.000000
_cell_angle_beta 90.000000
_cell_angle_gamma 90.000000
_cell_volume 2559.011320
_symmetry_space_group_name_H-M "C C C M"
_symmetry_group_IT_number 66
_symmetry_cell_setting 'orthorhombic'
loop_
_space_group_symop_operation_xyz
x,y,z
-x,-y,z
x,-y,1/2-z
-x,y,1/2-z
-x,-y,-z
x,y,-z
-x,y,1/2+z
x,-y,1/2+z
1/2+x,1/2+y,z
1/2-x,1/2-y,z
1/2+x,1/2-y,1/2-z
1/2-x,1/2+y,1/2-z
1/2-x,1/2-y,-z
1/2+x,1/2+y,-z
1/2-x,1/2+y,1/2+z
1/2+x,1/2-y,1/2+z
loop_
_atom_site_type_symbol
_atom_site_label
_atom_site_fract_x
_atom_site_fract_y
_atom_site_fract_z
Si Si1 0.879416 0.740960 0.383958
Si Si2 0.556694 0.093463 0.390644
Si Si3 0.405138 0.430142 0.385677
Si Si4 0.216186 0.500000 0.750000
O O1 0.867992 0.732463 0.500000
O O2 0.750000 0.750000 0.346804
O O3 0.938060 0.832370 0.362923
O O4 0.963068 0.663041 0.359887
O O5 0.598198 0.115918 0.500000
O O6 0.648537 0.072798 0.309314
O O7 0.500000 0.000000 0.398499
O O8 0.500000 0.500000 0.362918
O O9 0.382364 0.434524 0.500000
O O10 0.293772 0.453879 0.328446
#
# Coordination Sequence:
#
# PCOD9498126 Si02
#       4
#    16  16  16   8
#     4   9  18  37  65  90 116 159 210 258 315 383
#     4  10  21  38  61  91 126 163 207 260 316 375
#     4  10  22  42  65  89 125 172 216 261 321 391
#     4  12  22  38  62  94 130 164 210 272 328 372
#
# _framework density 21.883451000000001
#
# number of rings (size 3 to 8) (size 9 to 14) (size 15 to 20)
#    0.000    2.000    0.000    3.429    0.000    4.571 
#    0.000   15.714    0.000    6.857    0.000    4.000 
#    0.000    4.571    0.000    0.000    0.000    0.000 
#
# Total GULP energy -156336.462050 kJ/mol
# GULP energy per Si atom -5583.445073 kJ/mol
# Density = 2.183364 g / cm^3
# Si number density = 21.883451 Si / 1000 Ang^3
#
#
#
# Elastic Constant Matrix: (Units=GPa)
#
#
# Indices 1 2 3 4 5 6 
#
# 1 136.4350 96.6806 73.3356 0.0000 0.0000 0.0000
# 2 96.6806 200.0711 49.1863 0.0000 0.0000 0.0000
# 3 73.3356 49.1863 123.8392 0.0000 0.0000 0.0000
# 4 0.0000 0.0000 0.0000 -21.6729 0.0000 0.0000
# 5 0.0000 0.0000 0.0000 0.0000 93.4393 0.0000
# 6 0.0000 0.0000 0.0000 0.0000 0.0000 43.9635
#
#
#
# Elastic Compliance Matrix: (Units=1/GPa)
#
#
# Indices 1 2 3 4 5 6 
#
# 1 0.014765 -0.005525 -0.006549 0.000000 0.000000 0.000000
# 2 -0.005525 0.007606 0.000251 0.000000 0.000000 0.000000
# 3 -0.006549 0.000251 0.011854 0.000000 0.000000 0.000000
# 4 0.000000 0.000000 0.000000 -0.046140 0.000000 0.000000
# 5 0.000000 0.000000 0.000000 0.000000 0.010702 0.000000
# 6 0.000000 0.000000 0.000000 0.000000 0.000000 0.022746
#
#
# Mechanical properties :
#
#
# Convention : Reuss Voigt Hill
#
# Bulk Modulus (GPa) = 94.53346 99.86113 97.19729
# Shear Modulus (GPa) = 102.65893 39.22216 70.94054
#
# Velocity S-wave (km/s) = 6.85664 4.23817 5.69981
# Velocity P-wave (km/s) = 10.29452 8.34756 9.37173
#
# Compressibility (1/GPa) = 0.01057827
#
# Stress axis : x y z
#
# Youngs Moduli (GPa) = 67.72954 131.46960 84.36159
#
# Poissons Ratio (x) = 0.72633 0.55249
# Poissons Ratio (y) = 0.37418 -0.02114
# Poissons Ratio (z) = 0.44357 -0.03294
#
# Static dielectric constant tensor:
#      x y z
#    x 1.772600 0.000000 0.000000 
#    y 0.000000 1.826060 0.000000 
#    z 0.000000 0.000000 1.869540 
# 
# From -- ./inp_files/25402.got.cif
#   From: 2010.05.17/outbox.cif.g08.bks.cpg/sg66_13_cif.got.tgz:25402.got - 2010.06.03 17:51:23.
