data_PCOD9498024
_publ_section_title
;
Structure prediction by ZEFSAII (Michael W. Deem and Ramdas Pophale) SiO2 
 PCOD9498024
Probable space group: C C C M
;
_chemical_formula_sum "Si O2"
_cell_formula_units_Z 116
_cell_length_a 21.784728
_cell_length_b 10.217045
_cell_length_c 24.856249
_cell_angle_alpha 90.000000
_cell_angle_beta 90.000000
_cell_angle_gamma 90.000000
_cell_volume 5532.393200
_symmetry_space_group_name_H-M "C C C M"
_symmetry_group_IT_number 66
_symmetry_cell_setting 'orthorhombic'
loop_
_space_group_symop_operation_xyz
x,y,z
-x,-y,z
x,-y,1/2-z
-x,y,1/2-z
-x,-y,-z
x,y,-z
-x,y,1/2+z
x,-y,1/2+z
1/2+x,1/2+y,z
1/2-x,1/2-y,z
1/2+x,1/2-y,1/2-z
1/2-x,1/2+y,1/2-z
1/2-x,1/2-y,-z
1/2+x,1/2+y,-z
1/2-x,1/2+y,1/2+z
1/2+x,1/2-y,1/2+z
loop_
_atom_site_type_symbol
_atom_site_label
_atom_site_fract_x
_atom_site_fract_y
_atom_site_fract_z
Si Si1 0.183696 0.723848 0.793146
Si Si2 0.685617 0.454283 0.876186
Si Si3 0.137377 0.795553 0.684617
Si Si4 0.000000 0.000000 0.000000
Si Si5 0.501627 0.657893 0.812009
Si Si6 0.930062 0.528538 0.439026
Si Si7 0.180901 0.467965 0.862136
Si Si8 0.072652 0.828098 0.082816
O O1 0.250000 0.750000 0.766406
O O2 0.187265 0.817563 0.844574
O O3 0.137048 0.776639 0.748920
O O4 0.174857 0.576778 0.814465
O O5 0.663844 0.566537 0.834957
O O6 0.754772 0.495765 0.891235
O O7 0.632128 0.424192 0.918984
O O8 0.066965 0.793269 0.665498
O O9 0.177669 0.676689 0.662053
O O10 0.978876 0.103971 0.047237
O O11 0.500000 0.500000 0.810106
O O12 0.500000 0.704293 0.750000
O O13 0.449472 0.691538 0.855273
O O14 0.925623 0.476847 0.500000
O O15 0.877361 0.473808 0.400978
O O16 0.916988 0.683436 0.438782
O O17 0.000000 0.500000 0.420380
#
# Coordination Sequence:
#
# PCOD9498024 Si02
#       8
#    16  16  16   4  16  16  16  16
#     4  10  21  37  62  95 135 179 220 262 325 404
#     4  11  22  40  67  95 136 176 220 275 332 396
#     4  12  22  38  64  96 138 180 221 274 327 391
#     4  12  24  40  68 102 126 168 232 286 326 382
#     4  11  23  37  61  97 134 175 217 269 333 396
#     4  11  25  46  71  92 124 176 219 271 341 403
#     4  11  24  42  65  98 135 171 222 275 332 398
#     4  12  22  44  66  97 131 168 227 276 330 400
#
# _framework density 20.967417000000001
#
# number of rings (size 3 to 8) (size 9 to 14) (size 15 to 20)
#    0.000    0.828    4.138    3.724    1.931    2.207 
#    1.241    0.690    0.000    0.828    0.000    0.000 
#    0.000    0.000    0.000    0.000    0.000    0.000 
#
# Total GULP energy -323256.991642 kJ/mol
# GULP energy per Si atom -5573.396408 kJ/mol
# Density = 2.091969 g / cm^3
# Si number density = 20.967417 Si / 1000 Ang^3
#
#
#
# Elastic Constant Matrix: (Units=GPa)
#
#
# Indices 1 2 3 4 5 6 
#
# 1 125.3225 -4.3957 29.0325 0.0000 0.0000 0.0000
# 2 -4.3957 74.0574 1.5739 0.0000 0.0000 0.0000
# 3 29.0325 1.5739 73.7655 0.0000 0.0000 0.0000
# 4 0.0000 0.0000 0.0000 18.5161 0.0000 0.0000
# 5 0.0000 0.0000 0.0000 0.0000 2.7190 0.0000
# 6 0.0000 0.0000 0.0000 0.0000 0.0000 36.3275
#
#
#
# Elastic Compliance Matrix: (Units=1/GPa)
#
#
# Indices 1 2 3 4 5 6 
#
# 1 0.008806 0.000597 -0.003479 0.000000 0.000000 0.000000
# 2 0.000597 0.013550 -0.000524 0.000000 0.000000 0.000000
# 3 -0.003479 -0.000524 0.014937 0.000000 0.000000 0.000000
# 4 0.000000 0.000000 0.000000 0.054007 0.000000 0.000000
# 5 0.000000 0.000000 0.000000 0.000000 0.367784 0.000000
# 6 0.000000 0.000000 0.000000 0.000000 0.000000 0.027527
#
#
# Mechanical properties :
#
#
# Convention : Reuss Voigt Hill
#
# Bulk Modulus (GPa) = 32.80767 36.17407 34.49087
# Shear Modulus (GPa) = 9.92884 27.97483 18.95183
#
# Velocity S-wave (km/s) = 2.17845 3.65664 3.00971
# Velocity P-wave (km/s) = 4.69132 5.92604 5.34446
#
# Compressibility (1/GPa) = 0.03048068
#
# Stress axis : x y z
#
# Youngs Moduli (GPa) = 113.55619 73.80300 66.94888
#
# Poissons Ratio (x) = -0.04403 0.23289
# Poissons Ratio (y) = -0.06775 0.03508
# Poissons Ratio (z) = 0.39502 0.03867
#
# Static dielectric constant tensor:
#      x y z
#    x 1.843580 0.000000 0.000000 
#    y 0.000000 1.749370 0.000000 
#    z 0.000000 0.000000 1.766570 
# 
# From -- ./inp_files/66133.got.cif
#   From: 2010.05.17/outbox.cif.g08.bks.cpg/sg66_34_cif.got.tgz:66133.got - 2010.06.03 17:51:23.
