data_PCOD9498967
_publ_section_title
;
Structure prediction by ZEFSAII (Michael W. Deem and Ramdas Pophale) SiO2 
 PCOD9498967
Probable space group: C C C M
;
_chemical_formula_sum "Si O2"
_cell_formula_units_Z 88
_cell_length_a 5.071694
_cell_length_b 28.325073
_cell_length_c 29.281576
_cell_angle_alpha 90.000000
_cell_angle_beta 90.000000
_cell_angle_gamma 90.000000
_cell_volume 4206.477092
_symmetry_space_group_name_H-M "C C C M"
_symmetry_group_IT_number 66
_symmetry_cell_setting 'orthorhombic'
loop_
_space_group_symop_operation_xyz
x,y,z
-x,-y,z
x,-y,1/2-z
-x,y,1/2-z
-x,-y,-z
x,y,-z
-x,y,1/2+z
x,-y,1/2+z
1/2+x,1/2+y,z
1/2-x,1/2-y,z
1/2+x,1/2-y,1/2-z
1/2-x,1/2+y,1/2-z
1/2-x,1/2-y,-z
1/2+x,1/2+y,-z
1/2-x,1/2+y,1/2+z
1/2+x,1/2-y,1/2+z
loop_
_atom_site_type_symbol
_atom_site_label
_atom_site_fract_x
_atom_site_fract_y
_atom_site_fract_z
Si Si1 0.159095 0.957315 0.919997
Si Si2 0.000000 0.500000 0.160392
Si Si3 0.445910 0.092807 0.500000
Si Si4 0.006060 0.781798 0.410343
Si Si5 0.513598 0.099668 0.197441
Si Si6 0.557791 0.658185 0.000000
Si Si7 0.021076 0.124595 0.858212
O O1 0.994054 0.912895 0.900209
O O2 0.281561 0.981437 0.874955
O O3 0.376120 0.937271 0.954833
O O4 0.000000 0.000000 0.942902
O O5 0.069063 0.455194 0.191052
O O6 0.733758 0.115334 0.500000
O O7 0.233824 0.135660 0.500000
O O8 0.750000 0.750000 0.418699
O O9 0.250000 0.750000 0.394471
O O10 0.093052 0.808912 0.456174
O O11 0.943520 0.823949 0.375642
O O12 0.500000 0.113610 0.250000
O O13 0.308046 0.125736 0.164297
O O14 0.806556 0.107415 0.178475
#
# Coordination Sequence:
#
# PCOD9498967 Si02
#       7
#    16   8   8  16  16   8  16
#     4  11  23  42  62  95 139 188 226 267 324 388
#     4  10  23  37  64  94 134 176 234 263 319 394
#     4  12  27  38  68  92 146 184 228 271 325 392
#     4  12  25  45  73  98 132 173 223 279 340 394
#     4  11  23  42  67  98 134 172 216 277 335 394
#     4  12  26  45  66 102 130 178 229 283 331 381
#     4  11  24  42  69  97 134 170 220 271 336 404
#
# _framework density 20.920120000000001
#
# number of rings (size 3 to 8) (size 9 to 14) (size 15 to 20)
#    0.000    0.727    3.636    3.818    7.636    0.364 
#    0.000    1.818    0.000   10.909    0.000    0.000 
#    0.000    0.000    0.000    0.000    0.000    0.000 
#
# Total GULP energy -246146.589311 kJ/mol
# GULP energy per Si atom -5594.240666 kJ/mol
# Density = 2.087250 g / cm^3
# Si number density = 20.920120 Si / 1000 Ang^3
#
#
#
# Elastic Constant Matrix: (Units=GPa)
#
#
# Indices 1 2 3 4 5 6 
#
# 1 58.8266 6.2592 -2.5748 0.0000 0.0000 0.0000
# 2 6.2592 98.4367 14.0377 0.0000 0.0000 0.0000
# 3 -2.5748 14.0377 61.5768 0.0000 0.0000 0.0000
# 4 0.0000 0.0000 0.0000 21.8133 0.0000 0.0000
# 5 0.0000 0.0000 0.0000 0.0000 28.0777 0.0000
# 6 0.0000 0.0000 0.0000 0.0000 0.0000 44.2325
#
#
#
# Elastic Compliance Matrix: (Units=1/GPa)
#
#
# Indices 1 2 3 4 5 6 
#
# 1 0.017174 -0.001235 0.001000 0.000000 0.000000 0.000000
# 2 -0.001235 0.010589 -0.002466 0.000000 0.000000 0.000000
# 3 0.001000 -0.002466 0.016844 0.000000 0.000000 0.000000
# 4 0.000000 0.000000 0.000000 0.045844 0.000000 0.000000
# 5 0.000000 0.000000 0.000000 0.000000 0.035615 0.000000
# 6 0.000000 0.000000 0.000000 0.000000 0.000000 0.022608
#
#
# Mechanical properties :
#
#
# Convention : Reuss Voigt Hill
#
# Bulk Modulus (GPa) = 25.50649 28.25382 26.88015
# Shear Modulus (GPa) = 29.91442 32.23257 31.07349
#
# Velocity S-wave (km/s) = 3.78555 3.92949 3.85819
# Velocity P-wave (km/s) = 5.59696 5.84147 5.72052
#
# Compressibility (1/GPa) = 0.03920571
#
# Stress axis : x y z
#
# Youngs Moduli (GPa) = 58.22677 94.43833 59.36919
#
# Poissons Ratio (x) = 0.11659 -0.05934
# Poissons Ratio (y) = 0.07189 0.14638
# Poissons Ratio (z) = -0.05820 0.23285
#
# Static dielectric constant tensor:
#      x y z
#    x 1.760500 0.000000 0.000000 
#    y 0.000000 1.759850 0.000000 
#    z 0.000000 0.000000 1.733460 
# 
# From -- ./inp_files/67302.got.cif
#   From: 2010.05.17/outbox.cif.g08.bks.cpg/sg66_34_cif.got.tgz:67302.got - 2010.06.03 17:51:23.
