data_PCOD9498249
_publ_section_title
;
Structure prediction by ZEFSAII (Michael W. Deem and Ramdas Pophale) SiO2 
 PCOD9498249
Probable space group: C C C M
;
_chemical_formula_sum "Si O2"
_cell_formula_units_Z 84
_cell_length_a 15.342250
_cell_length_b 19.263564
_cell_length_c 14.130574
_cell_angle_alpha 90.000000
_cell_angle_beta 90.000000
_cell_angle_gamma 90.000000
_cell_volume 4176.240484
_symmetry_space_group_name_H-M "C C C M"
_symmetry_group_IT_number 66
_symmetry_cell_setting 'orthorhombic'
loop_
_space_group_symop_operation_xyz
x,y,z
-x,-y,z
x,-y,1/2-z
-x,y,1/2-z
-x,-y,-z
x,y,-z
-x,y,1/2+z
x,-y,1/2+z
1/2+x,1/2+y,z
1/2-x,1/2-y,z
1/2+x,1/2-y,1/2-z
1/2-x,1/2+y,1/2-z
1/2-x,1/2-y,-z
1/2+x,1/2+y,-z
1/2-x,1/2+y,1/2+z
1/2+x,1/2-y,1/2+z
loop_
_atom_site_type_symbol
_atom_site_label
_atom_site_fract_x
_atom_site_fract_y
_atom_site_fract_z
Si Si1 0.400838 0.275756 0.242669
Si Si2 0.362819 0.119522 0.260659
Si Si3 0.287827 0.625729 0.389186
Si Si4 0.595891 0.488753 0.888982
Si Si5 0.202333 0.856375 0.112405
Si Si6 0.500000 0.000000 0.750000
O O1 0.500000 0.303111 0.250000
O O2 0.405047 0.193093 0.232676
O O3 0.341846 0.311947 0.161233
O O4 0.347763 0.293500 0.337952
O O5 0.298085 0.106385 0.171282
O O6 0.298761 0.133715 0.348245
O O7 0.429245 0.057749 0.286535
O O8 0.269655 0.640510 0.500000
O O9 0.349596 0.558696 0.383787
O O10 0.500000 0.500000 0.850213
O O11 0.649229 0.423930 0.850211
O O12 0.585097 0.471239 0.000000
O O13 0.201377 0.851127 0.000000
#
# Coordination Sequence:
#
# PCOD9498249 Si02
#       6
#    16  16  16  16  16   4
#     4  11  23  39  60  92 125 160 208 256 309 377
#     4  11  24  42  63  86 117 164 214 260 312 370
#     4  10  21  39  63  90 125 163 203 255 314 373
#     4   9  17  31  54  88 121 151 190 238 299 369
#     4  10  21  39  63  90 125 163 203 255 314 373
#     4  12  24  48  70  84 130 176 208 276 318 352
#
# _framework density 20.113783999999999
#
# number of rings (size 3 to 8) (size 9 to 14) (size 15 to 20)
#    0.000    1.714    0.952    4.571    0.000    7.619 
#    0.000    6.667    0.000    0.000    0.000    0.000 
#    0.000    0.000    0.000    0.000    0.000    0.000 
#
# Total GULP energy -234162.078922 kJ/mol
# GULP energy per Si atom -5575.287593 kJ/mol
# Density = 2.006800 g / cm^3
# Si number density = 20.113784 Si / 1000 Ang^3
#
#
#
# Elastic Constant Matrix: (Units=GPa)
#
#
# Indices 1 2 3 4 5 6 
#
# 1 122.1328 19.5786 28.8637 0.0000 0.0000 0.0000
# 2 19.5786 91.6612 -2.5920 0.0000 0.0000 0.0000
# 3 28.8637 -2.5920 125.1535 0.0000 0.0000 0.0000
# 4 0.0000 0.0000 0.0000 20.1094 0.0000 0.0000
# 5 0.0000 0.0000 0.0000 0.0000 8.4748 0.0000
# 6 0.0000 0.0000 0.0000 0.0000 0.0000 28.9647
#
#
#
# Elastic Compliance Matrix: (Units=1/GPa)
#
#
# Indices 1 2 3 4 5 6 
#
# 1 0.009006 -0.001984 -0.002118 0.000000 0.000000 0.000000
# 2 -0.001984 0.011353 0.000693 0.000000 0.000000 0.000000
# 3 -0.002118 0.000693 0.008493 0.000000 0.000000 0.000000
# 4 0.000000 0.000000 0.000000 0.049728 0.000000 0.000000
# 5 0.000000 0.000000 0.000000 0.000000 0.117997 0.000000
# 6 0.000000 0.000000 0.000000 0.000000 0.000000 0.034525
#
#
# Mechanical properties :
#
#
# Convention : Reuss Voigt Hill
#
# Bulk Modulus (GPa) = 45.38437 47.84977 46.61707
# Shear Modulus (GPa) = 20.38605 31.04958 25.71781
#
# Velocity S-wave (km/s) = 3.18706 3.93325 3.57965
# Velocity P-wave (km/s) = 6.01298 6.66847 6.34919
#
# Compressibility (1/GPa) = 0.02203402
#
# Stress axis : x y z
#
# Youngs Moduli (GPa) = 111.03232 88.08220 117.74344
#
# Poissons Ratio (x) = 0.17472 0.24940
# Poissons Ratio (y) = 0.22025 -0.08155
# Poissons Ratio (z) = 0.23519 -0.06101
#
# Static dielectric constant tensor:
#      x y z
#    x 1.726410 0.000000 0.000000 
#    y 0.000000 1.740470 0.000000 
#    z 0.000000 0.000000 1.715860 
# 
# From -- ./inp_files/28201.got.cif
#   From: 2010.05.17/outbox.cif.g08.bks.cpg/sg66_15_cif.got.tgz:28201.got - 2010.06.03 17:51:23.
