data_PCOD9498393
_publ_section_title
;
Structure prediction by ZEFSAII (Michael W. Deem and Ramdas Pophale) SiO2 
 PCOD9498393
Probable space group: C C C M
;
_chemical_formula_sum "Si O2"
_cell_formula_units_Z 72
_cell_length_a 14.665206
_cell_length_b 12.512200
_cell_length_c 18.231660
_cell_angle_alpha 90.000000
_cell_angle_beta 90.000000
_cell_angle_gamma 90.000000
_cell_volume 3345.400047
_symmetry_space_group_name_H-M "C C C M"
_symmetry_group_IT_number 66
_symmetry_cell_setting 'orthorhombic'
loop_
_space_group_symop_operation_xyz
x,y,z
-x,-y,z
x,-y,1/2-z
-x,y,1/2-z
-x,-y,-z
x,y,-z
-x,y,1/2+z
x,-y,1/2+z
1/2+x,1/2+y,z
1/2-x,1/2-y,z
1/2+x,1/2-y,1/2-z
1/2-x,1/2+y,1/2-z
1/2-x,1/2-y,-z
1/2+x,1/2+y,-z
1/2-x,1/2+y,1/2+z
1/2+x,1/2-y,1/2+z
loop_
_atom_site_type_symbol
_atom_site_label
_atom_site_fract_x
_atom_site_fract_y
_atom_site_fract_z
Si Si1 0.419571 0.216184 0.302503
Si Si2 0.297090 0.133750 0.417483
Si Si3 0.012234 0.875136 0.583282
Si Si4 0.250000 0.250000 0.796392
Si Si5 0.276053 0.594004 0.581748
O O1 0.500000 0.177431 0.250000
O O2 0.372023 0.128675 0.354203
O O3 0.462743 0.302517 0.357833
O O4 0.338314 0.267394 0.254057
O O5 0.335586 0.127088 0.500000
O O6 0.250000 0.250000 0.411227
O O7 0.228461 0.034140 0.409981
O O8 0.978295 0.854795 0.500000
O O9 0.121217 0.861688 0.583763
O O10 0.000000 0.000000 0.599314
O O11 0.228441 0.348508 0.850529
O O12 0.238315 0.617754 0.500000
#
# Coordination Sequence:
#
# PCOD9498393 Si02
#       5
#    16  16  16   8  16
#     4  12  24  42  63  98 143 181 218 282 347 409
#     4  10  21  42  70 101 136 179 229 283 345 409
#     4  10  21  40  67 100 132 170 228 288 337 402
#     4  12  25  44  63  98 142 182 224 274 347 410
#     4  10  22  43  71  97 132 182 232 281 332 406
#
# _framework density 21.522089000000001
#
# number of rings (size 3 to 8) (size 9 to 14) (size 15 to 20)
#    0.000    1.333    3.333    2.333    0.000    4.889 
#    4.000    2.222    0.000    2.667    0.000    0.000 
#    0.000    0.000    0.000    0.000    0.000    0.000 
#
# Total GULP energy -201154.481300 kJ/mol
# GULP energy per Si atom -5587.624481 kJ/mol
# Density = 2.147310 g / cm^3
# Si number density = 21.522089 Si / 1000 Ang^3
#
#
#
# Elastic Constant Matrix: (Units=GPa)
#
#
# Indices 1 2 3 4 5 6 
#
# 1 88.5187 19.1111 55.0152 0.0000 0.0000 0.0000
# 2 19.1111 79.9715 38.8111 0.0000 0.0000 0.0000
# 3 55.0152 38.8111 135.1388 0.0000 0.0000 0.0000
# 4 0.0000 0.0000 0.0000 -239.4132 0.0000 0.0000
# 5 0.0000 0.0000 0.0000 0.0000 188.5406 0.0000
# 6 0.0000 0.0000 0.0000 0.0000 0.0000 29.3336
#
#
#
# Elastic Compliance Matrix: (Units=1/GPa)
#
#
# Indices 1 2 3 4 5 6 
#
# 1 0.015160 -0.000729 -0.005962 0.000000 0.000000 0.000000
# 2 -0.000729 0.014565 -0.003886 0.000000 0.000000 0.000000
# 3 -0.005962 -0.003886 0.010943 0.000000 0.000000 0.000000
# 4 0.000000 0.000000 0.000000 -0.004177 0.000000 0.000000
# 5 0.000000 0.000000 0.000000 0.000000 0.005304 0.000000
# 6 0.000000 0.000000 0.000000 0.000000 0.000000 0.034091
#
#
# Mechanical properties :
#
#
# Convention : Reuss Voigt Hill
#
# Bulk Modulus (GPa) = 51.24857 58.83375 55.04116
# Shear Modulus (GPa) = 48.28831 8.40498 28.34665
#
# Velocity S-wave (km/s) = 4.74187 1.97832 3.63312
# Velocity P-wave (km/s) = 7.33786 5.71088 6.57489
#
# Compressibility (1/GPa) = 0.01951274
#
# Stress axis : x y z
#
# Youngs Moduli (GPa) = 65.96262 68.65938 91.38200
#
# Poissons Ratio (x) = 0.05007 0.54484
# Poissons Ratio (y) = 0.04811 0.35511
# Poissons Ratio (z) = 0.39329 0.26681
#
# Static dielectric constant tensor:
#      x y z
#    x 1.825570 0.000000 0.000000 
#    y 0.000000 1.765380 0.000000 
#    z 0.000000 0.000000 1.808150 
# 
# From -- ./inp_files/41288.got.cif
#   From: 2010.05.17/outbox.cif.g08.bks.cpg/sg66_21_cif.got.tgz:41288.got - 2010.06.03 17:51:23.
