data_PCOD9498058
_publ_section_title
;
Structure prediction by ZEFSAII (Michael W. Deem and Ramdas Pophale) SiO2 
 PCOD9498058
Probable space group: C C C M
;
_chemical_formula_sum "Si O2"
_cell_formula_units_Z 116
_cell_length_a 22.666411
_cell_length_b 27.797041
_cell_length_c 9.109470
_cell_angle_alpha 90.000000
_cell_angle_beta 90.000000
_cell_angle_gamma 90.000000
_cell_volume 5739.504979
_symmetry_space_group_name_H-M "C C C M"
_symmetry_group_IT_number 66
_symmetry_cell_setting 'orthorhombic'
loop_
_space_group_symop_operation_xyz
x,y,z
-x,-y,z
x,-y,1/2-z
-x,y,1/2-z
-x,-y,-z
x,y,-z
-x,y,1/2+z
x,-y,1/2+z
1/2+x,1/2+y,z
1/2-x,1/2-y,z
1/2+x,1/2-y,1/2-z
1/2-x,1/2+y,1/2-z
1/2-x,1/2-y,-z
1/2+x,1/2+y,-z
1/2-x,1/2+y,1/2+z
1/2+x,1/2-y,1/2+z
loop_
_atom_site_type_symbol
_atom_site_label
_atom_site_fract_x
_atom_site_fract_y
_atom_site_fract_z
Si Si1 0.373793 0.322246 0.666770
Si Si2 0.150796 0.723171 0.674154
Si Si3 0.500000 0.500000 0.250000
Si Si4 0.398960 0.576086 0.827753
Si Si5 0.064301 0.455597 0.327799
Si Si6 0.733289 0.450555 0.178424
Si Si7 0.063242 0.650850 0.826580
Si Si8 0.264181 0.846354 0.833833
O O1 0.394172 0.310235 0.500000
O O2 0.368477 0.274925 0.764234
O O3 0.408235 0.369151 0.729414
O O4 0.305917 0.339203 0.656098
O O5 0.154941 0.724537 0.500000
O O6 0.101694 0.687418 0.735927
O O7 0.209075 0.697255 0.740343
O O8 0.547554 0.461611 0.184837
O O9 0.335784 0.556190 0.772484
O O10 0.389572 0.584008 0.000000
O O11 0.095998 0.500000 0.250000
O O12 0.057203 0.465401 0.500000
O O13 0.090387 0.402655 0.313297
O O14 0.000000 0.452502 0.250000
O O15 0.754624 0.500000 0.250000
O O16 0.768256 0.401662 0.220038
O O17 0.735181 0.453619 0.000000
O O18 0.000000 0.650221 0.750000
O O19 0.058621 0.661995 0.000000
O O20 0.289187 0.843012 0.000000
#
# Coordination Sequence:
#
# PCOD9498058 Si02
#       8
#    16  16   4  16  16  16  16  16
#     4   9  19  39  61  80 111 154 196 237 294 360
#     4  12  24  37  57  86 115 144 189 245 300 353
#     4  12  18  32  60  90 128 156 206 260 290 332
#     4   9  19  34  54  83 116 157 200 241 294 352
#     4   9  16  27  48  75 101 131 169 212 256 306
#     4   9  17  33  55  82 116 155 198 239 294 361
#     4  10  21  38  58  80 109 148 189 227 277 341
#     4   9  19  36  60  84 110 149 195 239 295 364
#
# _framework density 20.210804
#
# number of rings (size 3 to 8) (size 9 to 14) (size 15 to 20)
#    0.000    2.345    0.690    4.759    0.000    4.414 
#    1.241    4.138    0.000    0.000    0.000    0.000 
#    0.000    0.000    0.000    0.000    0.000    0.000 
#
# Total GULP energy -322994.437899 kJ/mol
# GULP energy per Si atom -5568.869619 kJ/mol
# Density = 2.016480 g / cm^3
# Si number density = 20.210804 Si / 1000 Ang^3
#
#
#
# Elastic Constant Matrix: (Units=GPa)
#
#
# Indices 1 2 3 4 5 6 
#
# 1 53.9525 17.6204 9.9443 0.0000 0.0000 0.0000
# 2 17.6204 178.7911 69.6087 0.0000 0.0000 0.0000
# 3 9.9443 69.6087 90.3207 0.0000 0.0000 0.0000
# 4 0.0000 0.0000 0.0000 29.9349 0.0000 0.0000
# 5 0.0000 0.0000 0.0000 0.0000 9.9426 0.0000
# 6 0.0000 0.0000 0.0000 0.0000 0.0000 39.3357
#
#
#
# Elastic Compliance Matrix: (Units=1/GPa)
#
#
# Indices 1 2 3 4 5 6 
#
# 1 0.019207 -0.001528 -0.000937 0.000000 0.000000 0.000000
# 2 -0.001528 0.008112 -0.006084 0.000000 0.000000 0.000000
# 3 -0.000937 -0.006084 0.015864 0.000000 0.000000 0.000000
# 4 0.000000 0.000000 0.000000 0.033406 0.000000 0.000000
# 5 0.000000 0.000000 0.000000 0.000000 0.100577 0.000000
# 6 0.000000 0.000000 0.000000 0.000000 0.000000 0.025422
#
#
# Mechanical properties :
#
#
# Convention : Reuss Voigt Hill
#
# Bulk Modulus (GPa) = 38.33663 57.49013 47.91338
# Shear Modulus (GPa) = 21.89335 30.90205 26.39770
#
# Velocity S-wave (km/s) = 3.29485 3.91447 3.61795
# Velocity P-wave (km/s) = 5.78656 6.99555 6.41958
#
# Compressibility (1/GPa) = 0.02608471
#
# Stress axis : x y z
#
# Youngs Moduli (GPa) = 52.06552 123.26932 63.03777
#
# Poissons Ratio (x) = 0.18836 0.05906
# Poissons Ratio (y) = 0.07956 0.38351
# Poissons Ratio (z) = 0.04878 0.74995
#
# Static dielectric constant tensor:
#      x y z
#    x 1.638850 0.000000 0.000000 
#    y 0.000000 1.800700 0.000000 
#    z 0.000000 0.000000 1.687060 
# 
# From -- ./inp_files/9432.got.cif
#   From: 2010.05.17/outbox.cif.g08.bks.cpg/sg66_5_cif.got.tgz:9432.got - 2010.06.03 17:51:23.
