data_PCOD9498453
_publ_section_title
;
Structure prediction by ZEFSAII (Michael W. Deem and Ramdas Pophale) SiO2 
 PCOD9498453
Probable space group: C C C M
;
_chemical_formula_sum "Si O2"
_cell_formula_units_Z 116
_cell_length_a 17.052216
_cell_length_b 11.675907
_cell_length_c 26.293249
_cell_angle_alpha 90.000000
_cell_angle_beta 90.000000
_cell_angle_gamma 90.000000
_cell_volume 5234.988194
_symmetry_space_group_name_H-M "C C C M"
_symmetry_group_IT_number 66
_symmetry_cell_setting 'orthorhombic'
loop_
_space_group_symop_operation_xyz
x,y,z
-x,-y,z
x,-y,1/2-z
-x,y,1/2-z
-x,-y,-z
x,y,-z
-x,y,1/2+z
x,-y,1/2+z
1/2+x,1/2+y,z
1/2-x,1/2-y,z
1/2+x,1/2-y,1/2-z
1/2-x,1/2+y,1/2-z
1/2-x,1/2-y,-z
1/2+x,1/2+y,-z
1/2-x,1/2+y,1/2+z
1/2+x,1/2-y,1/2+z
loop_
_atom_site_type_symbol
_atom_site_label
_atom_site_fract_x
_atom_site_fract_y
_atom_site_fract_z
Si Si1 0.478984 0.374918 0.840776
Si Si2 0.423325 0.078636 0.884681
Si Si3 0.328568 0.528673 0.306679
Si Si4 0.364644 0.272478 0.314251
Si Si5 0.165390 0.363663 0.415216
Si Si6 0.990665 0.228111 0.056700
Si Si7 0.155697 0.386468 0.219439
Si Si8 0.250000 0.250000 0.500000
O O1 0.500000 0.500000 0.820123
O O2 0.385918 0.381307 0.833473
O O3 0.540354 0.286531 0.815688
O O4 0.503044 0.365924 0.899693
O O5 0.448270 0.176374 0.923808
O O6 0.396290 0.127489 0.830655
O O7 0.500000 0.000000 0.876211
O O8 0.358746 0.994676 0.908116
O O9 0.358080 0.500000 0.250000
O O10 0.331227 0.398806 0.328191
O O11 0.242551 0.580515 0.300075
O O12 0.334722 0.188473 0.358427
O O13 0.342991 0.217114 0.260041
O O14 0.235786 0.345051 0.453974
O O15 0.093990 0.290876 0.441095
O O16 0.005360 0.188304 0.000000
O O17 0.127542 0.500000 0.250000
#
# Coordination Sequence:
#
# PCOD9498453 Si02
#       8
#    16  16  16  16  16  16  16   4
#     4   9  21  44  67  97 125 173 230 281 320 400
#     4  10  23  41  61  95 139 178 225 274 328 413
#     4  10  24  41  63  94 131 177 215 267 334 390
#     4  10  22  43  66  92 136 172 225 274 325 399
#     4  10  22  40  60  97 129 172 224 274 332 397
#     4  10  21  41  67  94 126 170 222 280 336 391
#     4  11  23  42  63  99 136 182 213 272 334 396
#     4  12  24  32  70  92 138 178 216 282 342 396
#
# _framework density 22.158598999999999
#
# number of rings (size 3 to 8) (size 9 to 14) (size 15 to 20)
#    0.000    1.931    2.069    0.000    4.828    6.069 
#    4.966    0.000    0.000    1.655    0.000    0.000 
#    0.000    0.000    0.000    0.000    0.000    0.000 
#
# Total GULP energy -323448.491125 kJ/mol
# GULP energy per Si atom -5576.698123 kJ/mol
# Density = 2.210816 g / cm^3
# Si number density = 22.158599 Si / 1000 Ang^3
#
#
#
# Elastic Constant Matrix: (Units=GPa)
#
#
# Indices 1 2 3 4 5 6 
#
# 1 57.1197 20.7662 22.9846 0.0000 0.0000 0.0000
# 2 20.7662 64.7923 -19.2431 0.0000 0.0000 0.0000
# 3 22.9846 -19.2431 73.9912 0.0000 0.0000 0.0000
# 4 0.0000 0.0000 0.0000 21.3733 0.0000 0.0000
# 5 0.0000 0.0000 0.0000 0.0000 5.0448 0.0000
# 6 0.0000 0.0000 0.0000 0.0000 0.0000 30.5032
#
#
#
# Elastic Compliance Matrix: (Units=1/GPa)
#
#
# Indices 1 2 3 4 5 6 
#
# 1 0.026304 -0.011766 -0.011231 0.000000 0.000000 0.000000
# 2 -0.011766 0.021989 0.009374 0.000000 0.000000 0.000000
# 3 -0.011231 0.009374 0.019442 0.000000 0.000000 0.000000
# 4 0.000000 0.000000 0.000000 0.046787 0.000000 0.000000
# 5 0.000000 0.000000 0.000000 0.000000 0.198224 0.000000
# 6 0.000000 0.000000 0.000000 0.000000 0.000000 0.032783
#
#
# Mechanical properties :
#
#
# Convention : Reuss Voigt Hill
#
# Bulk Modulus (GPa) = 24.69877 27.21318 25.95598
# Shear Modulus (GPa) = 12.94421 22.81063 17.87742
#
# Velocity S-wave (km/s) = 2.41957 3.21195 2.84349
# Velocity P-wave (km/s) = 4.35618 5.10522 4.74550
#
# Compressibility (1/GPa) = 0.04048784
#
# Stress axis : x y z
#
# Youngs Moduli (GPa) = 38.01687 45.47723 51.43545
#
# Poissons Ratio (x) = 0.53509 0.57768
# Poissons Ratio (y) = 0.44731 -0.48215
# Poissons Ratio (z) = 0.42697 -0.42629
#
# Static dielectric constant tensor:
#      x y z
#    x 1.936520 0.000000 0.000000 
#    y 0.000000 1.910890 0.000000 
#    z 0.000000 0.000000 1.720610 
# 
# From -- ./inp_files/65327.got.cif
#   From: 2010.05.17/outbox.cif.g08.bks.cpg/sg66_33_cif.got.tgz:65327.got - 2010.06.03 17:51:23.
