data_PCOD9498673
_publ_section_title
;
Structure prediction by ZEFSAII (Michael W. Deem and Ramdas Pophale) SiO2 
 PCOD9498673
Probable space group: C C C M
;
_chemical_formula_sum "Si O2"
_cell_formula_units_Z 96
_cell_length_a 28.939393
_cell_length_b 9.800201
_cell_length_c 16.325293
_cell_angle_alpha 90.000000
_cell_angle_beta 90.000000
_cell_angle_gamma 90.000000
_cell_volume 4630.046847
_symmetry_space_group_name_H-M "C C C M"
_symmetry_group_IT_number 66
_symmetry_cell_setting 'orthorhombic'
loop_
_space_group_symop_operation_xyz
x,y,z
-x,-y,z
x,-y,1/2-z
-x,y,1/2-z
-x,-y,-z
x,y,-z
-x,y,1/2+z
x,-y,1/2+z
1/2+x,1/2+y,z
1/2-x,1/2-y,z
1/2+x,1/2-y,1/2-z
1/2-x,1/2+y,1/2-z
1/2-x,1/2-y,-z
1/2+x,1/2+y,-z
1/2-x,1/2+y,1/2+z
1/2+x,1/2-y,1/2+z
loop_
_atom_site_type_symbol
_atom_site_label
_atom_site_fract_x
_atom_site_fract_y
_atom_site_fract_z
Si Si1 0.350498 0.020608 0.153080
Si Si2 0.995076 0.841734 0.099940
Si Si3 0.091891 0.715876 0.903366
Si Si4 0.753542 0.587009 0.334105
Si Si5 0.847579 0.955707 0.654848
Si Si6 0.605440 0.280951 0.595121
O O1 0.358474 0.179189 0.136471
O O2 0.352884 0.000000 0.250000
O O3 0.392396 0.938007 0.112179
O O4 0.301411 0.958282 0.123709
O O5 0.040323 0.756509 0.123087
O O6 0.946723 0.778703 0.129492
O O7 0.992794 0.843636 0.000000
O O8 0.000000 0.000000 0.126125
O O9 0.128165 0.810447 0.855493
O O10 0.095579 0.746472 0.000000
O O11 0.753882 0.500000 0.250000
O O12 0.750000 0.750000 0.318736
O O13 0.705127 0.549054 0.376019
O O14 0.877191 0.065303 0.605649
O O15 0.847807 0.000000 0.750000
O O16 0.603812 0.244071 0.500000
#
# Coordination Sequence:
#
# PCOD9498673 Si02
#       6
#    16  16  16  16  16  16
#     4  11  24  42  62  88 125 159 201 254 306 360
#     4   9  18  36  62  88 118 161 204 240 295 374
#     4  11  21  39  64  90 120 160 204 247 300 361
#     4  10  22  39  63  89 121 165 207 242 299 379
#     4  11  22  38  63  91 121 158 204 248 301 361
#     4  11  23  41  63  91 124 160 204 253 304 360
#
# _framework density 20.73413
#
# number of rings (size 3 to 8) (size 9 to 14) (size 15 to 20)
#    0.000    1.500    3.333    2.000    7.000    0.667 
#    0.000   12.500    0.000    0.000    0.000    0.000 
#    0.000    0.000    0.000    0.000    0.000    0.000 
#
# Total GULP energy -268026.520522 kJ/mol
# GULP energy per Si atom -5583.885844 kJ/mol
# Density = 2.068694 g / cm^3
# Si number density = 20.734130 Si / 1000 Ang^3
#
#
#
# Elastic Constant Matrix: (Units=GPa)
#
#
# Indices 1 2 3 4 5 6 
#
# 1 136.5000 3.0809 3.3557 0.0000 0.0000 0.0000
# 2 3.0809 38.6621 -11.6117 0.0000 0.0000 0.0000
# 3 3.3557 -11.6117 30.5298 0.0000 0.0000 0.0000
# 4 0.0000 0.0000 0.0000 33.6484 0.0000 0.0000
# 5 0.0000 0.0000 0.0000 0.0000 15.3900 0.0000
# 6 0.0000 0.0000 0.0000 0.0000 0.0000 32.7918
#
#
#
# Elastic Compliance Matrix: (Units=1/GPa)
#
#
# Indices 1 2 3 4 5 6 
#
# 1 0.007376 -0.000938 -0.001168 0.000000 0.000000 0.000000
# 2 -0.000938 0.029320 0.011255 0.000000 0.000000 0.000000
# 3 -0.001168 0.011255 0.037164 0.000000 0.000000 0.000000
# 4 0.000000 0.000000 0.000000 0.029719 0.000000 0.000000
# 5 0.000000 0.000000 0.000000 0.000000 0.064977 0.000000
# 6 0.000000 0.000000 0.000000 0.000000 0.000000 0.030495
#
#
# Mechanical properties :
#
#
# Convention : Reuss Voigt Hill
#
# Bulk Modulus (GPa) = 10.85102 21.70465 16.27783
# Shear Modulus (GPa) = 23.64363 30.42383 27.03373
#
# Velocity S-wave (km/s) = 3.38053 3.83473 3.61477
# Velocity P-wave (km/s) = 4.52572 5.48614 5.02891
#
# Compressibility (1/GPa) = 0.09215721
#
# Stress axis : x y z
#
# Youngs Moduli (GPa) = 135.57674 34.10626 26.90783
#
# Poissons Ratio (x) = 0.03201 0.03142
# Poissons Ratio (y) = 0.12724 -0.30284
# Poissons Ratio (z) = 0.15831 -0.38386
#
# Static dielectric constant tensor:
#      x y z
#    x 1.774180 0.000000 0.000000 
#    y 0.000000 1.693420 0.000000 
#    z 0.000000 0.000000 1.745450 
# 
# From -- ./inp_files/47310.got.cif
#   From: 2010.05.17/outbox.cif.g08.bks.cpg/sg66_24_cif.got.tgz:47310.got - 2010.06.03 17:51:23.
