data_PCOD9498571
_publ_section_title
;
Structure prediction by ZEFSAII (Michael W. Deem and Ramdas Pophale) SiO2 
 PCOD9498571
Probable space group: C C C M
;
_chemical_formula_sum "Si O2"
_cell_formula_units_Z 128
_cell_length_a 26.878651
_cell_length_b 10.385820
_cell_length_c 25.542532
_cell_angle_alpha 90.000000
_cell_angle_beta 90.000000
_cell_angle_gamma 90.000000
_cell_volume 7130.372292
_symmetry_space_group_name_H-M "C C C M"
_symmetry_group_IT_number 66
_symmetry_cell_setting 'orthorhombic'
loop_
_space_group_symop_operation_xyz
x,y,z
-x,-y,z
x,-y,1/2-z
-x,y,1/2-z
-x,-y,-z
x,y,-z
-x,y,1/2+z
x,-y,1/2+z
1/2+x,1/2+y,z
1/2-x,1/2-y,z
1/2+x,1/2-y,1/2-z
1/2-x,1/2+y,1/2-z
1/2-x,1/2-y,-z
1/2+x,1/2+y,-z
1/2-x,1/2+y,1/2+z
1/2+x,1/2-y,1/2+z
loop_
_atom_site_type_symbol
_atom_site_label
_atom_site_fract_x
_atom_site_fract_y
_atom_site_fract_z
Si Si1 0.484332 0.195667 0.060505
Si Si2 0.310492 0.728426 0.691257
Si Si3 0.309290 0.254329 0.312347
Si Si4 0.079016 0.434798 0.439268
Si Si5 0.332246 0.991315 0.362751
Si Si6 0.252703 0.594040 0.440371
Si Si7 0.343313 0.491351 0.381800
Si Si8 0.556911 0.547002 0.062232
O O1 0.539864 0.172135 0.081734
O O2 0.448480 0.305318 0.081294
O O3 0.454062 0.064072 0.059757
O O4 0.493550 0.233041 0.000000
O O5 0.250000 0.750000 0.686423
O O6 0.321064 0.709649 0.752566
O O7 0.330177 0.605221 0.659517
O O8 0.336353 0.856415 0.667897
O O9 0.250000 0.250000 0.317878
O O10 0.326751 0.109622 0.323454
O O11 0.329896 0.357309 0.353848
O O12 0.093059 0.406343 0.500000
O O13 0.124241 0.467635 0.402138
O O14 0.283731 0.971628 0.398934
O O15 0.237149 0.569001 0.500000
O O16 0.250000 0.750000 0.433365
O O17 0.306766 0.534200 0.429203
O O18 0.399214 0.486544 0.403836
O O19 0.500000 0.500000 0.068638
O O20 0.569164 0.537487 0.000000
#
# Coordination Sequence:
#
# PCOD9498571 Si02
#       8
#    16  16  16  16  16  16  16  16
#     4   8  16  33  52  78 108 145 194 229 269 325
#     4  11  21  40  62  85 112 152 202 249 285 345
#     4  11  24  38  59  84 120 150 197 250 291 346
#     4   9  18  31  54  83 115 147 181 232 281 346
#     4  12  20  36  56  89 115 151 191 231 301 349
#     4  11  22  36  55  87 126 157 191 230 279 364
#     4  12  21  40  60  88 114 158 201 238 302 348
#     4  10  22  37  57  84 117 156 198 239 284 354
#
# _framework density 17.951377000000001
#
# number of rings (size 3 to 8) (size 9 to 14) (size 15 to 20)
#    0.000    1.500    3.750    3.000    1.750    2.000 
#    0.000    2.500    0.000    1.500    0.000    3.500 
#    0.000    0.000    0.000    0.000    0.000    0.000 
#
# Total GULP energy -356717.271035 kJ/mol
# GULP energy per Si atom -5573.707360 kJ/mol
# Density = 1.791052 g / cm^3
# Si number density = 17.951377 Si / 1000 Ang^3
#
#
#
# Elastic Constant Matrix: (Units=GPa)
#
#
# Indices 1 2 3 4 5 6 
#
# 1 81.0924 -2.2952 25.4927 0.0000 0.0000 0.0000
# 2 -2.2952 52.3316 13.5407 0.0000 0.0000 0.0000
# 3 25.4927 13.5407 63.3789 0.0000 0.0000 0.0000
# 4 0.0000 0.0000 0.0000 18.7584 0.0000 0.0000
# 5 0.0000 0.0000 0.0000 0.0000 1.4793 0.0000
# 6 0.0000 0.0000 0.0000 0.0000 0.0000 23.1502
#
#
#
# Elastic Compliance Matrix: (Units=1/GPa)
#
#
# Indices 1 2 3 4 5 6 
#
# 1 0.014362 0.002249 -0.006257 0.000000 0.000000 0.000000
# 2 0.002249 0.020579 -0.005301 0.000000 0.000000 0.000000
# 3 -0.006257 -0.005301 0.019428 0.000000 0.000000 0.000000
# 4 0.000000 0.000000 0.000000 0.053310 0.000000 0.000000
# 5 0.000000 0.000000 0.000000 0.000000 0.675992 0.000000
# 6 0.000000 0.000000 0.000000 0.000000 0.000000 0.043196
#
#
# Mechanical properties :
#
#
# Convention : Reuss Voigt Hill
#
# Bulk Modulus (GPa) = 27.97218 30.03105 29.00161
# Shear Modulus (GPa) = 5.83156 19.34855 12.59006
#
# Velocity S-wave (km/s) = 1.80432 3.28660 2.65116
# Velocity P-wave (km/s) = 4.46730 5.58280 5.05591
#
# Compressibility (1/GPa) = 0.03574981
#
# Stress axis : x y z
#
# Youngs Moduli (GPa) = 69.62630 48.59265 51.47301
#
# Poissons Ratio (x) = -0.10929 0.32209
# Poissons Ratio (y) = -0.15659 0.27287
# Poissons Ratio (z) = 0.43568 0.25761
#
# Static dielectric constant tensor:
#      x y z
#    x 1.362430 0.000000 0.000000 
#    y 0.000000 1.704910 0.000000 
#    z 0.000000 0.000000 1.597440 
# 
# From -- ./inp_files/59953.got.cif
#   From: 2010.05.17/outbox.cif.g08.bks.cpg/sg66_30_cif.got.tgz:59953.got - 2010.06.03 17:51:23.
