data_PCOD9498855
_publ_section_title
;
Structure prediction by ZEFSAII (Michael W. Deem and Ramdas Pophale) SiO2 
 PCOD9498855
Probable space group: C C C M
;
_chemical_formula_sum "Si O2"
_cell_formula_units_Z 112
_cell_length_a 15.644419
_cell_length_b 14.791652
_cell_length_c 23.527778
_cell_angle_alpha 90.000000
_cell_angle_beta 90.000000
_cell_angle_gamma 90.000000
_cell_volume 5444.487856
_symmetry_space_group_name_H-M "C C C M"
_symmetry_group_IT_number 66
_symmetry_cell_setting 'orthorhombic'
loop_
_space_group_symop_operation_xyz
x,y,z
-x,-y,z
x,-y,1/2-z
-x,y,1/2-z
-x,-y,-z
x,y,-z
-x,y,1/2+z
x,-y,1/2+z
1/2+x,1/2+y,z
1/2-x,1/2-y,z
1/2+x,1/2-y,1/2-z
1/2-x,1/2+y,1/2-z
1/2-x,1/2-y,-z
1/2+x,1/2+y,-z
1/2-x,1/2+y,1/2+z
1/2+x,1/2-y,1/2+z
loop_
_atom_site_type_symbol
_atom_site_label
_atom_site_fract_x
_atom_site_fract_y
_atom_site_fract_z
Si Si1 0.746055 0.008217 0.433344
Si Si2 0.828701 0.676416 0.134846
Si Si3 0.828213 0.322226 0.885439
Si Si4 0.597267 0.404065 0.735252
Si Si5 0.925552 0.931485 0.109025
Si Si6 0.991409 0.252480 0.434426
Si Si7 0.155464 0.287052 0.738453
O O1 0.730575 0.026095 0.500000
O O2 0.706705 0.911528 0.416371
O O3 0.704892 0.084797 0.393533
O O4 0.847810 0.017540 0.421482
O O5 0.750000 0.750000 0.129750
O O6 0.858298 0.667069 0.200693
O O7 0.913277 0.704283 0.100428
O O8 0.750000 0.250000 0.886394
O O9 0.914766 0.280487 0.912050
O O10 0.850978 0.342583 0.819307
O O11 0.643115 0.500000 0.750000
O O12 0.500000 0.417705 0.750000
O O13 0.609497 0.389455 0.668152
O O14 0.611063 0.310273 0.767838
O O15 0.970736 0.853939 0.072550
O O16 0.000000 0.000000 0.126183
O O17 0.985665 0.278762 0.500000
O O18 0.250000 0.250000 0.743356
#
# Coordination Sequence:
#
# PCOD9498855 Si02
#       7
#    16  16  16  16  16  16  16
#     4  12  27  46  69  97 141 190 234 295 349 410
#     4  11  23  46  72 104 136 173 240 304 356 408
#     4  11  27  46  68 101 146 188 231 284 357 434
#     4  11  21  36  66 100 137 175 216 285 351 414
#     4  12  23  39  66 107 134 180 239 285 354 422
#     4  12  25  43  71  98 136 192 238 288 346 413
#     4  10  22  42  65  99 136 181 219 285 358 416
#
# _framework density 20.571263999999999
#
# number of rings (size 3 to 8) (size 9 to 14) (size 15 to 20)
#    0.000    0.714    4.286    3.857    4.000    5.143 
#    0.000    1.429    0.000    1.714    0.000    0.000 
#    0.000    0.000    0.000    0.000    0.000    0.000 
#
# Total GULP energy -312364.599749 kJ/mol
# GULP energy per Si atom -5577.939281 kJ/mol
# Density = 2.052444 g / cm^3
# Si number density = 20.571264 Si / 1000 Ang^3
#
#
#
# Elastic Constant Matrix: (Units=GPa)
#
#
# Indices 1 2 3 4 5 6 
#
# 1 130.9082 42.5160 36.2994 0.0000 0.0000 0.0000
# 2 42.5160 85.1836 16.3655 0.0000 0.0000 0.0000
# 3 36.2994 16.3655 138.7565 0.0000 0.0000 0.0000
# 4 0.0000 0.0000 0.0000 32.7877 0.0000 0.0000
# 5 0.0000 0.0000 0.0000 0.0000 19.5581 0.0000
# 6 0.0000 0.0000 0.0000 0.0000 0.0000 33.8223
#
#
#
# Elastic Compliance Matrix: (Units=1/GPa)
#
#
# Indices 1 2 3 4 5 6 
#
# 1 0.009629 -0.004422 -0.001997 0.000000 0.000000 0.000000
# 2 -0.004422 0.014042 -0.000499 0.000000 0.000000 0.000000
# 3 -0.001997 -0.000499 0.007788 0.000000 0.000000 0.000000
# 4 0.000000 0.000000 0.000000 0.030499 0.000000 0.000000
# 5 0.000000 0.000000 0.000000 0.000000 0.051130 0.000000
# 6 0.000000 0.000000 0.000000 0.000000 0.000000 0.029566
#
#
# Mechanical properties :
#
#
# Convention : Reuss Voigt Hill
#
# Bulk Modulus (GPa) = 56.74784 60.57890 58.66337
# Shear Modulus (GPa) = 30.79445 34.54478 32.66961
#
# Velocity S-wave (km/s) = 3.87326 4.10234 3.98944
# Velocity P-wave (km/s) = 6.90281 7.20772 7.05691
#
# Compressibility (1/GPa) = 0.01762182
#
# Stress axis : x y z
#
# Youngs Moduli (GPa) = 103.85255 71.21266 128.39767
#
# Poissons Ratio (x) = 0.31492 0.25647
# Poissons Ratio (y) = 0.45926 0.06411
# Poissons Ratio (z) = 0.20744 0.03556
#
# Static dielectric constant tensor:
#      x y z
#    x 1.660650 0.000000 0.000000 
#    y 0.000000 1.687270 0.000000 
#    z 0.000000 0.000000 1.785620 
# 
# From -- ./inp_files/58262.got.cif
#   From: 2010.05.17/outbox.cif.g08.bks.cpg/sg66_30_cif.got.tgz:58262.got - 2010.06.03 17:51:23.
