data_PCOD9498902
_publ_section_title
;
Structure prediction by ZEFSAII (Michael W. Deem and Ramdas Pophale) SiO2 
 PCOD9498902
Probable space group: C C C M
;
_chemical_formula_sum "Si O2"
_cell_formula_units_Z 64
_cell_length_a 22.079826
_cell_length_b 9.006007
_cell_length_c 16.251483
_cell_angle_alpha 90.000000
_cell_angle_beta 90.000000
_cell_angle_gamma 90.000000
_cell_volume 3231.624743
_symmetry_space_group_name_H-M "C C C M"
_symmetry_group_IT_number 66
_symmetry_cell_setting 'orthorhombic'
loop_
_space_group_symop_operation_xyz
x,y,z
-x,-y,z
x,-y,1/2-z
-x,y,1/2-z
-x,-y,-z
x,y,-z
-x,y,1/2+z
x,-y,1/2+z
1/2+x,1/2+y,z
1/2-x,1/2-y,z
1/2+x,1/2-y,1/2-z
1/2-x,1/2+y,1/2-z
1/2-x,1/2-y,-z
1/2+x,1/2+y,-z
1/2-x,1/2+y,1/2+z
1/2+x,1/2-y,1/2+z
loop_
_atom_site_type_symbol
_atom_site_label
_atom_site_fract_x
_atom_site_fract_y
_atom_site_fract_z
Si Si1 0.984405 0.256585 0.500000
Si Si2 0.000000 0.500000 0.134381
Si Si3 0.129684 0.370822 0.333311
Si Si4 0.641539 0.360460 0.500000
Si Si5 0.817918 0.304511 0.667035
Si Si6 0.375254 0.308430 0.500000
O O1 0.976230 0.366665 0.422857
O O2 0.931072 0.141293 0.500000
O O3 0.051126 0.189806 0.500000
O O4 0.939990 0.428187 0.173739
O O5 0.171513 0.517970 0.341307
O O6 0.145125 0.277060 0.251698
O O7 0.138781 0.279628 0.416528
O O8 0.662100 0.275827 0.582696
O O9 0.657721 0.533398 0.500000
O O10 0.750000 0.250000 0.681984
#
# Coordination Sequence:
#
# PCOD9498902 Si02
#       6
#     8   8  16   8  16   8
#     4   9  17  35  63  97 130 155 205 259 324 385
#     4   9  16  37  70  99 119 158 210 272 314 385
#     4  10  22  43  68  96 127 163 219 266 326 381
#     4  12  22  41  62  92 132 175 209 260 330 372
#     4  11  25  42  63  90 125 170 222 267 309 379
#     4  10  23  38  66  97 132 165 199 265 334 398
#
# _framework density 19.804279000000001
#
# number of rings (size 3 to 8) (size 9 to 14) (size 15 to 20)
#    0.000    1.750    2.500    2.250    0.000    7.000 
#    0.000    1.875    0.000    3.000    0.000    0.000 
#    0.000    0.000    0.000    0.000    0.000    0.000 
#
# Total GULP energy -178372.934715 kJ/mol
# GULP energy per Si atom -5574.154210 kJ/mol
# Density = 1.975920 g / cm^3
# Si number density = 19.804279 Si / 1000 Ang^3
#
#
#
# Elastic Constant Matrix: (Units=GPa)
#
#
# Indices 1 2 3 4 5 6 
#
# 1 104.6820 29.2535 50.3875 0.0000 0.0000 0.0000
# 2 29.2535 92.4215 70.5011 0.0000 0.0000 0.0000
# 3 50.3875 70.5011 208.6499 0.0000 0.0000 0.0000
# 4 0.0000 0.0000 0.0000 15.6261 0.0000 0.0000
# 5 0.0000 0.0000 0.0000 0.0000 4.2200 0.0000
# 6 0.0000 0.0000 0.0000 0.0000 0.0000 24.8904
#
#
#
# Elastic Compliance Matrix: (Units=1/GPa)
#
#
# Indices 1 2 3 4 5 6 
#
# 1 0.011070 -0.001973 -0.002007 0.000000 0.000000 0.000000
# 2 -0.001973 0.014929 -0.004568 0.000000 0.000000 0.000000
# 3 -0.002007 -0.004568 0.006821 0.000000 0.000000 0.000000
# 4 0.000000 0.000000 0.000000 0.063995 0.000000 0.000000
# 5 0.000000 0.000000 0.000000 0.000000 0.236969 0.000000
# 6 0.000000 0.000000 0.000000 0.000000 0.000000 0.040176
#
#
# Mechanical properties :
#
#
# Convention : Reuss Voigt Hill
#
# Bulk Modulus (GPa) = 63.59551 78.44864 71.02207
# Shear Modulus (GPa) = 12.61679 25.98804 19.30242
#
# Velocity S-wave (km/s) = 2.52677 3.62642 3.12534
# Velocity P-wave (km/s) = 6.37922 7.56522 6.99739
#
# Compressibility (1/GPa) = 0.01572438
#
# Stress axis : x y z
#
# Youngs Moduli (GPa) = 90.33408 66.98351 146.61158
#
# Poissons Ratio (x) = 0.13217 0.29419
# Poissons Ratio (y) = 0.17825 0.66970
# Poissons Ratio (z) = 0.18126 0.30597
#
# Static dielectric constant tensor:
#      x y z
#    x 1.705040 0.000000 0.000000 
#    y 0.000000 1.696330 0.000000 
#    z 0.000000 0.000000 1.739530 
# 
# From -- ./inp_files/36428.got.cif
#   From: 2010.05.17/outbox.cif.g08.bks.cpg/sg66_19_cif.got.tgz:36428.got - 2010.06.03 17:51:23.
