data_PCOD9498134
_publ_section_title
;
Structure prediction by ZEFSAII (Michael W. Deem and Ramdas Pophale) SiO2 
 PCOD9498134
Probable space group: C C C M
;
_chemical_formula_sum "Si O2"
_cell_formula_units_Z 96
_cell_length_a 23.418331
_cell_length_b 12.574210
_cell_length_c 15.572114
_cell_angle_alpha 90.000000
_cell_angle_beta 90.000000
_cell_angle_gamma 90.000000
_cell_volume 4585.473878
_symmetry_space_group_name_H-M "C C C M"
_symmetry_group_IT_number 66
_symmetry_cell_setting 'orthorhombic'
loop_
_space_group_symop_operation_xyz
x,y,z
-x,-y,z
x,-y,1/2-z
-x,y,1/2-z
-x,-y,-z
x,y,-z
-x,y,1/2+z
x,-y,1/2+z
1/2+x,1/2+y,z
1/2-x,1/2-y,z
1/2+x,1/2-y,1/2-z
1/2-x,1/2+y,1/2-z
1/2-x,1/2-y,-z
1/2+x,1/2+y,-z
1/2-x,1/2+y,1/2+z
1/2+x,1/2-y,1/2+z
loop_
_atom_site_type_symbol
_atom_site_label
_atom_site_fract_x
_atom_site_fract_y
_atom_site_fract_z
Si Si1 0.098484 0.530605 0.500000
Si Si2 0.508648 0.168337 0.000000
Si Si3 0.656384 0.941572 0.338362
Si Si4 0.130062 0.125006 0.739568
Si Si5 0.299536 0.662709 0.597295
Si Si6 0.776060 0.090285 0.099017
Si Si7 0.453213 0.790853 0.184026
O O1 0.053663 0.431170 0.500000
O O2 0.136933 0.519968 0.415319
O O3 0.056357 0.629388 0.500000
O O4 0.521410 0.224276 0.910507
O O5 0.712344 0.880487 0.371424
O O6 0.601706 0.867723 0.321281
O O7 0.671084 0.000000 0.250000
O O8 0.155488 0.174581 0.826541
O O9 0.176389 0.135369 0.662951
O O10 0.071442 0.181196 0.717956
O O11 0.122361 0.000000 0.750000
O O12 0.322179 0.674977 0.500000
O O13 0.250000 0.750000 0.608198
O O14 0.278059 0.539859 0.604757
O O15 0.786180 0.119617 0.000000
O O16 0.500000 0.835440 0.250000
#
# Coordination Sequence:
#
# PCOD9498134 Si02
#       7
#     8   8  16  16  16  16  16
#     4   9  18  36  57  85 129 170 196 246 303 375
#     4   9  20  40  59  84 122 161 212 257 306 358
#     4  11  21  35  61  93 129 166 199 247 313 378
#     4  10  23  41  64  88 124 162 204 270 314 362
#     4   9  19  37  59  87 123 159 200 247 302 378
#     4  10  21  38  61  95 127 161 202 247 321 390
#     4  11  25  42  61  90 118 165 221 259 306 372
#
# _framework density 20.935676999999998
#
# number of rings (size 3 to 8) (size 9 to 14) (size 15 to 20)
#    0.000    2.000    0.833    2.500    5.833    2.000 
#    1.500    0.833    0.000    1.000    0.000    0.000 
#    0.000    0.000    0.000    0.000    0.000    0.000 
#
# Total GULP energy -268350.849181 kJ/mol
# GULP energy per Si atom -5590.642691 kJ/mol
# Density = 2.088803 g / cm^3
# Si number density = 20.935677 Si / 1000 Ang^3
#
#
#
# Elastic Constant Matrix: (Units=GPa)
#
#
# Indices 1 2 3 4 5 6 
#
# 1 66.6048 3.3658 26.8680 0.0000 0.0000 0.0000
# 2 3.3658 35.3082 25.2455 0.0000 0.0000 0.0000
# 3 26.8680 25.2455 148.9492 0.0000 0.0000 0.0000
# 4 0.0000 0.0000 0.0000 2.9827 0.0000 0.0000
# 5 0.0000 0.0000 0.0000 0.0000 19.3208 0.0000
# 6 0.0000 0.0000 0.0000 0.0000 0.0000 24.6968
#
#
#
# Elastic Compliance Matrix: (Units=1/GPa)
#
#
# Indices 1 2 3 4 5 6 
#
# 1 0.016204 0.000620 -0.003028 0.000000 0.000000 0.000000
# 2 0.000620 0.032251 -0.005578 0.000000 0.000000 0.000000
# 3 -0.003028 -0.005578 0.008205 0.000000 0.000000 0.000000
# 4 0.000000 0.000000 0.000000 0.335265 0.000000 0.000000
# 5 0.000000 0.000000 0.000000 0.000000 0.051758 0.000000
# 6 0.000000 0.000000 0.000000 0.000000 0.000000 0.040491
#
#
# Mechanical properties :
#
#
# Convention : Reuss Voigt Hill
#
# Bulk Modulus (GPa) = 24.57665 40.20233 32.38949
# Shear Modulus (GPa) = 9.73314 22.42560 16.07937
#
# Velocity S-wave (km/s) = 2.15851 3.27642 2.77435
# Velocity P-wave (km/s) = 4.23991 5.79290 5.07615
#
# Compressibility (1/GPa) = 0.04068902
#
# Stress axis : x y z
#
# Youngs Moduli (GPa) = 61.71279 31.00643 121.87130
#
# Poissons Ratio (x) = -0.01924 0.36904
# Poissons Ratio (y) = -0.03829 0.67982
# Poissons Ratio (z) = 0.18687 0.17296
#
# Static dielectric constant tensor:
#      x y z
#    x 1.718990 0.000000 0.000000 
#    y 0.000000 1.782930 0.000000 
#    z 0.000000 0.000000 1.720800 
# 
# From -- ./inp_files/32395.got.cif
#   From: 2010.05.17/outbox.cif.g08.bks.cpg/sg66_17_cif.got.tgz:32395.got - 2010.06.03 17:51:23.
