data_PCOD9498792
_publ_section_title
;
Structure prediction by ZEFSAII (Michael W. Deem and Ramdas Pophale) SiO2 
 PCOD9498792
Probable space group: C C C M
;
_chemical_formula_sum "Si O2"
_cell_formula_units_Z 48
_cell_length_a 4.955568
_cell_length_b 27.168451
_cell_length_c 16.722549
_cell_angle_alpha 90.000000
_cell_angle_beta 90.000000
_cell_angle_gamma 90.000000
_cell_volume 2251.442164
_symmetry_space_group_name_H-M "C C C M"
_symmetry_group_IT_number 66
_symmetry_cell_setting 'orthorhombic'
loop_
_space_group_symop_operation_xyz
x,y,z
-x,-y,z
x,-y,1/2-z
-x,y,1/2-z
-x,-y,-z
x,y,-z
-x,y,1/2+z
x,-y,1/2+z
1/2+x,1/2+y,z
1/2-x,1/2-y,z
1/2+x,1/2-y,1/2-z
1/2-x,1/2+y,1/2-z
1/2-x,1/2-y,-z
1/2+x,1/2+y,-z
1/2-x,1/2+y,1/2+z
1/2+x,1/2-y,1/2+z
loop_
_atom_site_type_symbol
_atom_site_label
_atom_site_fract_x
_atom_site_fract_y
_atom_site_fract_z
Si Si1 0.760890 0.466019 0.091073
Si Si2 0.759969 0.372421 0.803895
Si Si3 0.006281 0.284940 0.909435
O O1 0.500000 0.500000 0.089086
O O2 0.687095 0.416171 0.136317
O O3 0.000000 0.500000 0.125933
O O4 0.842994 0.453012 0.000000
O O5 0.500000 0.358059 0.750000
O O6 0.905586 0.328184 0.851910
O O7 0.000000 0.393268 0.750000
O O8 0.750000 0.250000 0.916714
O O9 0.250000 0.250000 0.879680
O O10 0.080655 0.302497 0.000000
#
# Coordination Sequence:
#
# PCOD9498792 Si02
#       3
#    16  16  16
#     4  10  22  41  64  89 122 167 215 260 307 370
#     4  12  25  39  61  94 130 165 203 258 325 385
#     4  10  22  42  66  89 118 161 212 262 311 372
#
# _framework density 21.319669000000001
#
# number of rings (size 3 to 8) (size 9 to 14) (size 15 to 20)
#    0.000    1.333    0.000    5.000    0.000    6.667 
#    0.000   13.333    0.000    0.000    0.000    0.000 
#    0.000    0.000    0.000    0.000    0.000    0.000 
#
# Total GULP energy -134014.903529 kJ/mol
# GULP energy per Si atom -5583.954314 kJ/mol
# Density = 2.127114 g / cm^3
# Si number density = 21.319669 Si / 1000 Ang^3
#
#
#
# Elastic Constant Matrix: (Units=GPa)
#
#
# Indices 1 2 3 4 5 6 
#
# 1 126.5891 39.5559 23.5877 0.0000 0.0000 0.0000
# 2 39.5559 126.0214 70.4922 0.0000 0.0000 0.0000
# 3 23.5877 70.4922 84.8785 0.0000 0.0000 0.0000
# 4 0.0000 0.0000 0.0000 38.2065 0.0000 0.0000
# 5 0.0000 0.0000 0.0000 0.0000 22.8262 0.0000
# 6 0.0000 0.0000 0.0000 0.0000 0.0000 36.2116
#
#
#
# Elastic Compliance Matrix: (Units=1/GPa)
#
#
# Indices 1 2 3 4 5 6 
#
# 1 0.008762 -0.002593 -0.000282 0.000000 0.000000 0.000000
# 2 -0.002593 0.015587 -0.012225 0.000000 0.000000 0.000000
# 3 -0.000282 -0.012225 0.022012 0.000000 0.000000 0.000000
# 4 0.000000 0.000000 0.000000 0.026174 0.000000 0.000000
# 5 0.000000 0.000000 0.000000 0.000000 0.043809 0.000000
# 6 0.000000 0.000000 0.000000 0.000000 0.000000 0.027615
#
#
# Mechanical properties :
#
#
# Convention : Reuss Voigt Hill
#
# Bulk Modulus (GPa) = 61.86756 67.19564 64.53160
# Shear Modulus (GPa) = 27.84802 33.03908 30.44355
#
# Velocity S-wave (km/s) = 3.61808 3.94089 3.78293
# Velocity P-wave (km/s) = 6.82173 7.23146 7.02958
#
# Compressibility (1/GPa) = 0.01616356
#
# Stress axis : x y z
#
# Youngs Moduli (GPa) = 114.12623 64.15608 45.42886
#
# Poissons Ratio (x) = 0.16634 0.01280
# Poissons Ratio (y) = 0.29590 0.55535
# Poissons Ratio (z) = 0.03216 0.78428
#
# Static dielectric constant tensor:
#      x y z
#    x 1.104580 0.000000 0.000000 
#    y 0.000000 1.758530 0.000000 
#    z 0.000000 0.000000 1.873690 
# 
# From -- ./inp_files/22216.got.cif
#   From: 2010.05.17/outbox.cif.g08.bks.cpg/sg66_12_cif.got.tgz:22216.got - 2010.06.03 17:51:23.
