data_PCOD9498623
_publ_section_title
;
Structure prediction by ZEFSAII (Michael W. Deem and Ramdas Pophale) SiO2 
 PCOD9498623
Probable space group: C C C M
;
_chemical_formula_sum "Si O2"
_cell_formula_units_Z 64
_cell_length_a 11.285778
_cell_length_b 15.638466
_cell_length_c 17.636891
_cell_angle_alpha 90.000000
_cell_angle_beta 90.000000
_cell_angle_gamma 90.000000
_cell_volume 3112.774673
_symmetry_space_group_name_H-M "C C C M"
_symmetry_group_IT_number 66
_symmetry_cell_setting 'orthorhombic'
loop_
_space_group_symop_operation_xyz
x,y,z
-x,-y,z
x,-y,1/2-z
-x,y,1/2-z
-x,-y,-z
x,y,-z
-x,y,1/2+z
x,-y,1/2+z
1/2+x,1/2+y,z
1/2-x,1/2-y,z
1/2+x,1/2-y,1/2-z
1/2-x,1/2+y,1/2-z
1/2-x,1/2-y,-z
1/2+x,1/2+y,-z
1/2-x,1/2+y,1/2+z
1/2+x,1/2-y,1/2+z
loop_
_atom_site_type_symbol
_atom_site_label
_atom_site_fract_x
_atom_site_fract_y
_atom_site_fract_z
Si Si1 0.868331 0.391166 0.715933
Si Si2 0.704069 0.059067 0.871258
Si Si3 0.398161 0.429983 0.500000
Si Si4 0.082594 0.215599 0.000000
Si Si5 0.031462 0.398369 0.500000
Si Si6 0.250000 0.750000 0.625758
O O1 0.782258 0.399014 0.788802
O O2 0.844262 0.465822 0.654489
O O3 0.839435 0.303972 0.675605
O O4 0.000000 0.398591 0.750000
O O5 0.817286 0.056780 0.925508
O O6 0.608646 0.108658 0.923224
O O7 0.500000 0.500000 0.500000
O O8 0.461849 0.337464 0.500000
O O9 0.165360 0.194285 0.071583
O O10 0.059005 0.318778 0.000000
O O11 0.000000 0.500000 0.500000
#
# Coordination Sequence:
#
# PCOD9498623 Si02
#       6
#    16  16   8   8   8   8
#     4  11  22  40  63  92 124 160 206 261 316 377
#     4  10  22  38  62  89 119 159 211 253 308 377
#     4  11  24  43  62  86 128 170 205 259 317 374
#     4  11  24  41  62  92 124 165 215 256 311 385
#     4  11  20  37  64  90 120 161 206 262 310 357
#     4  11  24  40  62  89 124 162 206 255 314 380
#
# _framework density 20.560434000000001
#
# number of rings (size 3 to 8) (size 9 to 14) (size 15 to 20)
#    0.000    1.250    0.000    7.500    0.000   10.000 
#    0.000    7.500    0.000    0.000    0.000    0.000 
#    0.000    0.000    0.000    0.000    0.000    0.000 
#
# Total GULP energy -178623.272341 kJ/mol
# GULP energy per Si atom -5581.977261 kJ/mol
# Density = 2.051364 g / cm^3
# Si number density = 20.560434 Si / 1000 Ang^3
#
#
#
# Elastic Constant Matrix: (Units=GPa)
#
#
# Indices 1 2 3 4 5 6 
#
# 1 122.8733 35.6692 56.3392 0.0000 0.0000 0.0000
# 2 35.6692 66.8842 32.6155 0.0000 0.0000 0.0000
# 3 56.3392 32.6155 134.3947 0.0000 0.0000 0.0000
# 4 0.0000 0.0000 0.0000 12.8658 0.0000 0.0000
# 5 0.0000 0.0000 0.0000 0.0000 28.8728 0.0000
# 6 0.0000 0.0000 0.0000 0.0000 0.0000 35.9063
#
#
#
# Elastic Compliance Matrix: (Units=1/GPa)
#
#
# Indices 1 2 3 4 5 6 
#
# 1 0.010983 -0.004097 -0.003610 0.000000 0.000000 0.000000
# 2 -0.004097 0.018486 -0.002769 0.000000 0.000000 0.000000
# 3 -0.003610 -0.002769 0.009626 0.000000 0.000000 0.000000
# 4 0.000000 0.000000 0.000000 0.077726 0.000000 0.000000
# 5 0.000000 0.000000 0.000000 0.000000 0.034635 0.000000
# 6 0.000000 0.000000 0.000000 0.000000 0.000000 0.027850
#
#
# Mechanical properties :
#
#
# Convention : Reuss Voigt Hill
#
# Bulk Modulus (GPa) = 55.11469 63.71110 59.41290
# Shear Modulus (GPa) = 24.23597 28.83087 26.53342
#
# Velocity S-wave (km/s) = 3.43704 3.74873 3.59626
# Velocity P-wave (km/s) = 6.52805 7.05633 6.79732
#
# Compressibility (1/GPa) = 0.01814398
#
# Stress axis : x y z
#
# Youngs Moduli (GPa) = 91.05035 54.09412 103.88498
#
# Poissons Ratio (x) = 0.22162 0.37501
# Poissons Ratio (y) = 0.37302 0.28765
# Poissons Ratio (z) = 0.32868 0.14978
#
# Static dielectric constant tensor:
#      x y z
#    x 1.754220 0.000000 0.000000 
#    y 0.000000 1.768260 0.000000 
#    z 0.000000 0.000000 1.737790 
# 
# From -- ./inp_files/38102.got.cif
#   From: 2010.05.17/outbox.cif.g08.bks.cpg/sg66_20_cif.got.tgz:38102.got - 2010.06.03 17:51:23.
