data_PCOD9498794
_publ_section_title
;
Structure prediction by ZEFSAII (Michael W. Deem and Ramdas Pophale) SiO2 
 PCOD9498794
Probable space group: C C C M
;
_chemical_formula_sum "Si O2"
_cell_formula_units_Z 96
_cell_length_a 20.674418
_cell_length_b 16.566858
_cell_length_c 14.411264
_cell_angle_alpha 90.000000
_cell_angle_beta 90.000000
_cell_angle_gamma 90.000000
_cell_volume 4936.004155
_symmetry_space_group_name_H-M "C C C M"
_symmetry_group_IT_number 66
_symmetry_cell_setting 'orthorhombic'
loop_
_space_group_symop_operation_xyz
x,y,z
-x,-y,z
x,-y,1/2-z
-x,y,1/2-z
-x,-y,-z
x,y,-z
-x,y,1/2+z
x,-y,1/2+z
1/2+x,1/2+y,z
1/2-x,1/2-y,z
1/2+x,1/2-y,1/2-z
1/2-x,1/2+y,1/2-z
1/2-x,1/2-y,-z
1/2+x,1/2+y,-z
1/2-x,1/2+y,1/2+z
1/2+x,1/2-y,1/2+z
loop_
_atom_site_type_symbol
_atom_site_label
_atom_site_fract_x
_atom_site_fract_y
_atom_site_fract_z
Si Si1 0.715115 0.836398 0.103219
Si Si2 0.018419 0.594418 0.108006
Si Si3 0.680422 0.537077 0.840805
Si Si4 0.594967 0.834413 0.233421
Si Si5 0.477330 0.368463 0.000000
Si Si6 0.436121 0.343800 0.799729
Si Si7 0.895031 0.963694 0.500000
O O1 0.750000 0.750000 0.114509
O O2 0.769844 0.904572 0.108094
O O3 0.663032 0.848164 0.183707
O O4 0.684670 0.837290 0.000000
O O5 0.079791 0.616741 0.172580
O O6 0.000000 0.500000 0.113084
O O7 0.959717 0.639756 0.159141
O O8 0.026437 0.616287 0.000000
O O9 0.712402 0.500000 0.750000
O O10 0.620917 0.591876 0.804498
O O11 0.649942 0.471185 0.909826
O O12 0.585329 0.738708 0.248993
O O13 0.456090 0.325161 0.906084
O O14 0.437320 0.453191 0.000000
O O15 0.552863 0.392305 0.000000
O O16 0.500000 0.377468 0.750000
#
# Coordination Sequence:
#
# PCOD9498794 Si02
#       7
#    16  16  16  16   8  16   8
#     4  11  23  39  63  87 117 159 204 253 296 349
#     4  10  22  41  64  91 121 151 190 253 317 368
#     4  11  22  37  60  83 122 155 199 245 291 351
#     4  11  21  36  63  91 121 148 203 247 300 357
#     4   9  20  30  55  78 123 154 193 236 280 348
#     4  11  21  34  55  91 118 157 195 238 298 349
#     4   9  18  38  50  83 114 158 197 233 286 336
#
# _framework density 19.448931000000002
#
# number of rings (size 3 to 8) (size 9 to 14) (size 15 to 20)
#    0.000    1.500    4.167    2.500    2.333    3.000 
#    0.000    0.000    1.833    0.500    0.000    0.000 
#    0.000    0.000    0.000    0.000    0.000    0.000 
#
# Total GULP energy -268041.326437 kJ/mol
# GULP energy per Si atom -5584.194301 kJ/mol
# Density = 1.940466 g / cm^3
# Si number density = 19.448931 Si / 1000 Ang^3
#
#
#
# Elastic Constant Matrix: (Units=GPa)
#
#
# Indices 1 2 3 4 5 6 
#
# 1 61.1708 -4.4010 21.8436 0.0000 0.0000 0.0000
# 2 -4.4010 40.0927 18.3687 0.0000 0.0000 0.0000
# 3 21.8436 18.3687 136.7424 0.0000 0.0000 0.0000
# 4 0.0000 0.0000 0.0000 7.3722 0.0000 0.0000
# 5 0.0000 0.0000 0.0000 0.0000 28.7181 0.0000
# 6 0.0000 0.0000 0.0000 0.0000 0.0000 17.3755
#
#
#
# Elastic Compliance Matrix: (Units=1/GPa)
#
#
# Indices 1 2 3 4 5 6 
#
# 1 0.017777 0.003466 -0.003305 0.000000 0.000000 0.000000
# 2 0.003466 0.027254 -0.004215 0.000000 0.000000 0.000000
# 3 -0.003305 -0.004215 0.008407 0.000000 0.000000 0.000000
# 4 0.000000 0.000000 0.000000 0.135645 0.000000 0.000000
# 5 0.000000 0.000000 0.000000 0.000000 0.034821 0.000000
# 6 0.000000 0.000000 0.000000 0.000000 0.000000 0.057552
#
#
# Mechanical properties :
#
#
# Convention : Reuss Voigt Hill
#
# Bulk Modulus (GPa) = 22.06059 34.40318 28.23189
# Shear Modulus (GPa) = 16.41093 24.17280 20.29187
#
# Velocity S-wave (km/s) = 2.90797 3.52928 3.23358
# Velocity P-wave (km/s) = 4.75841 5.85962 5.33749
#
# Compressibility (1/GPa) = 0.04532969
#
# Stress axis : x y z
#
# Youngs Moduli (GPa) = 56.25141 36.69240 118.94590
#
# Poissons Ratio (x) = -0.12717 0.39316
# Poissons Ratio (y) = -0.19496 0.50131
# Poissons Ratio (z) = 0.18593 0.15465
#
# Static dielectric constant tensor:
#      x y z
#    x 1.680150 0.000000 0.000000 
#    y 0.000000 1.691780 0.000000 
#    z 0.000000 0.000000 1.707490 
# 
# From -- ./inp_files/31242.got.cif
#   From: 2010.05.17/outbox.cif.g08.bks.cpg/sg66_16_cif.got.tgz:31242.got - 2010.06.03 17:51:23.
