data_PCOD9498930
_publ_section_title
;
Structure prediction by ZEFSAII (Michael W. Deem and Ramdas Pophale) SiO2 
 PCOD9498930
Probable space group: C C C M
;
_chemical_formula_sum "Si O2"
_cell_formula_units_Z 72
_cell_length_a 13.389454
_cell_length_b 15.997246
_cell_length_c 14.491545
_cell_angle_alpha 90.000000
_cell_angle_beta 90.000000
_cell_angle_gamma 90.000000
_cell_volume 3104.007633
_symmetry_space_group_name_H-M "C C C M"
_symmetry_group_IT_number 66
_symmetry_cell_setting 'orthorhombic'
loop_
_space_group_symop_operation_xyz
x,y,z
-x,-y,z
x,-y,1/2-z
-x,y,1/2-z
-x,-y,-z
x,y,-z
-x,y,1/2+z
x,-y,1/2+z
1/2+x,1/2+y,z
1/2-x,1/2-y,z
1/2+x,1/2-y,1/2-z
1/2-x,1/2+y,1/2-z
1/2-x,1/2-y,-z
1/2+x,1/2+y,-z
1/2-x,1/2+y,1/2+z
1/2+x,1/2-y,1/2+z
loop_
_atom_site_type_symbol
_atom_site_label
_atom_site_fract_x
_atom_site_fract_y
_atom_site_fract_z
Si Si1 0.863249 0.716427 0.645745
Si Si2 0.615647 0.485573 0.000000
Si Si3 0.079488 0.579510 0.000000
Si Si4 0.692627 0.909302 0.207633
Si Si5 0.097487 0.894772 0.807028
Si Si6 0.293133 0.070781 0.000000
O O1 0.750000 0.750000 0.617539
O O2 0.913756 0.644885 0.583582
O O3 0.854499 0.669423 0.742237
O O4 0.922381 0.801342 0.656411
O O5 0.500000 0.500000 0.000000
O O6 0.631723 0.442343 0.099837
O O7 0.674319 0.572891 0.000000
O O8 0.000000 0.500000 0.000000
O O9 0.183190 0.528617 0.000000
O O10 0.809152 0.901323 0.236769
O O11 0.659874 0.000000 0.250000
O O12 0.670658 0.900907 0.099310
O O13 0.000000 0.919064 0.750000
#
# Coordination Sequence:
#
# PCOD9498930 Si02
#       6
#    16   8   8  16  16   8
#     4  10  22  44  65  90 131 183 224 271 339 411
#     4  12  23  37  68 100 131 170 222 281 331 401
#     4  12  24  39  69 103 128 174 231 281 333 395
#     4  11  21  40  68  94 123 172 219 267 332 394
#     4  11  24  40  62  95 133 171 214 271 339 399
#     4  12  22  40  63 101 132 162 219 279 328 381
#
# _framework density 23.195820000000001
#
# number of rings (size 3 to 8) (size 9 to 14) (size 15 to 20)
#    0.000    0.889    4.444    3.667    0.000    1.778 
#    0.000    7.222    0.000    0.000    0.000    0.000 
#    0.000    0.000    0.000    0.000    0.000    0.000 
#
# Total GULP energy -200761.856488 kJ/mol
# GULP energy per Si atom -5576.718236 kJ/mol
# Density = 2.314303 g / cm^3
# Si number density = 23.195820 Si / 1000 Ang^3
#
#
#
# Elastic Constant Matrix: (Units=GPa)
#
#
# Indices 1 2 3 4 5 6 
#
# 1 33.7355 6.0464 24.9056 0.0000 0.0000 0.0000
# 2 6.0464 106.4293 50.9588 0.0000 0.0000 0.0000
# 3 24.9056 50.9588 214.9562 0.0000 0.0000 0.0000
# 4 0.0000 0.0000 0.0000 -0.4738 0.0000 0.0000
# 5 0.0000 0.0000 0.0000 0.0000 -14.1646 0.0000
# 6 0.0000 0.0000 0.0000 0.0000 0.0000 26.8469
#
#
#
# Elastic Compliance Matrix: (Units=1/GPa)
#
#
# Indices 1 2 3 4 5 6 
#
# 1 0.032415 -0.000049 -0.003744 0.000000 0.000000 0.000000
# 2 -0.000049 0.010599 -0.002507 0.000000 0.000000 0.000000
# 3 -0.003744 -0.002507 0.005680 0.000000 0.000000 0.000000
# 4 0.000000 0.000000 0.000000 -2.110736 0.000000 0.000000
# 5 0.000000 0.000000 0.000000 0.000000 -0.070599 0.000000
# 6 0.000000 0.000000 0.000000 0.000000 0.000000 0.037248
#
#
# Mechanical properties :
#
#
# Convention : Reuss Voigt Hill
#
# Bulk Modulus (GPa) = 27.70501 57.66031 42.68266
# Shear Modulus (GPa) = -2.41457 20.65573 9.12058
#
# Velocity S-wave (km/s) = -1.02138 2.98735 1.98508
# Velocity P-wave (km/s) = 3.25253 6.06721 4.86775
#
# Compressibility (1/GPa) = 0.03609456
#
# Stress axis : x y z
#
# Youngs Moduli (GPa) = 30.84964 94.34807 176.04840
#
# Poissons Ratio (x) = 0.00461 0.65916
# Poissons Ratio (y) = 0.00151 0.44136
# Poissons Ratio (z) = 0.11551 0.23653
#
# Static dielectric constant tensor:
#      x y z
#    x 4.688080 0.000000 0.000000 
#    y 0.000000 1.866900 0.000000 
#    z 0.000000 0.000000 1.916360 
# 
# From -- ./inp_files/29834.got.cif
#   From: 2010.05.17/outbox.cif.g08.bks.cpg/sg66_15_cif.got.tgz:29834.got - 2010.06.03 17:51:23.
