data_PCOD9498714
_publ_section_title
;
Structure prediction by ZEFSAII (Michael W. Deem and Ramdas Pophale) SiO2 
 PCOD9498714
Probable space group: C C C M
;
_chemical_formula_sum "Si O2"
_cell_formula_units_Z 112
_cell_length_a 27.295048
_cell_length_b 11.659683
_cell_length_c 14.527270
_cell_angle_alpha 90.000000
_cell_angle_beta 90.000000
_cell_angle_gamma 90.000000
_cell_volume 4623.327025
_symmetry_space_group_name_H-M "C C C M"
_symmetry_group_IT_number 66
_symmetry_cell_setting 'orthorhombic'
loop_
_space_group_symop_operation_xyz
x,y,z
-x,-y,z
x,-y,1/2-z
-x,y,1/2-z
-x,-y,-z
x,y,-z
-x,y,1/2+z
x,-y,1/2+z
1/2+x,1/2+y,z
1/2-x,1/2-y,z
1/2+x,1/2-y,1/2-z
1/2-x,1/2+y,1/2-z
1/2-x,1/2-y,-z
1/2+x,1/2+y,-z
1/2-x,1/2+y,1/2+z
1/2+x,1/2-y,1/2+z
loop_
_atom_site_type_symbol
_atom_site_label
_atom_site_fract_x
_atom_site_fract_y
_atom_site_fract_z
Si Si1 0.072970 0.006871 0.104386
Si Si2 0.430595 0.243515 0.388342
Si Si3 0.036831 0.752767 0.389109
Si Si4 0.669993 0.768377 0.696617
Si Si5 0.712355 0.969722 0.399148
Si Si6 0.181793 0.981955 0.142026
Si Si7 0.645789 0.190020 0.393551
O O1 0.046255 0.116857 0.146481
O O2 0.068635 0.878388 0.141195
O O3 0.131218 0.029848 0.102814
O O4 0.055412 0.997276 0.000000
O O5 0.424162 0.235749 0.500000
O O6 0.484703 0.201340 0.360637
O O7 0.383897 0.191335 0.337591
O O8 0.032493 0.763831 0.500000
O O9 0.087459 0.686310 0.375070
O O10 0.706855 0.871401 0.676437
O O11 0.680900 0.657161 0.634561
O O12 0.668178 0.743532 0.805636
O O13 0.705724 0.915746 0.500000
O O14 0.766466 0.023329 0.395091
O O15 0.671659 0.066760 0.388434
O O16 0.179725 0.000000 0.250000
O O17 0.652854 0.230348 0.500000
#
# Coordination Sequence:
#
# PCOD9498714 Si02
#       7
#    16  16  16  16  16  16  16
#     4   9  17  31  53  83 120 158 194 235 289 353
#     4   9  18  32  55  89 122 153 193 241 294 352
#     4   9  17  33  56  82 118 159 195 237 292 351
#     4  11  22  38  62  88 118 152 191 240 291 350
#     4  11  24  42  63  85 113 151 195 246 297 343
#     4  11  22  36  57  87 121 152 190 236 287 348
#     4  10  22  40  60  83 115 156 200 242 286 343
#
# _framework density 24.224981
#
# number of rings (size 3 to 8) (size 9 to 14) (size 15 to 20)
#    0.000    2.000    0.000    3.857    0.000    4.571 
#    0.000    3.571    0.000   18.000    0.000    0.000 
#    0.000    0.000    0.000    0.000    0.000    0.000 
#
# Total GULP energy -312833.441903 kJ/mol
# GULP energy per Si atom -5586.311463 kJ/mol
# Density = 2.416984 g / cm^3
# Si number density = 24.224981 Si / 1000 Ang^3
#
#
#
# Elastic Constant Matrix: (Units=GPa)
#
#
# Indices 1 2 3 4 5 6 
#
# 1 122.0026 9.4606 0.3575 0.0000 0.0000 0.0000
# 2 9.4606 21.7145 -2.1628 0.0000 0.0000 0.0000
# 3 0.3575 -2.1628 105.4308 0.0000 0.0000 0.0000
# 4 0.0000 0.0000 0.0000 -15.2383 0.0000 0.0000
# 5 0.0000 0.0000 0.0000 0.0000 41.8886 0.0000
# 6 0.0000 0.0000 0.0000 0.0000 0.0000 26.9851
#
#
#
# Elastic Compliance Matrix: (Units=1/GPa)
#
#
# Indices 1 2 3 4 5 6 
#
# 1 0.008484 -0.003707 -0.000105 0.000000 0.000000 0.000000
# 2 -0.003707 0.047766 0.000992 0.000000 0.000000 0.000000
# 3 -0.000105 0.000992 0.009506 0.000000 0.000000 0.000000
# 4 0.000000 0.000000 0.000000 -0.065624 0.000000 0.000000
# 5 0.000000 0.000000 0.000000 0.000000 0.023873 0.000000
# 6 0.000000 0.000000 0.000000 0.000000 0.000000 0.037057
#
#
# Mechanical properties :
#
#
# Convention : Reuss Voigt Hill
#
# Bulk Modulus (GPa) = 16.63413 29.38429 23.00921
# Shear Modulus (GPa) = 57.64361 26.82658 42.23509
#
# Velocity S-wave (km/s) = 4.88332 3.33136 4.18000
# Velocity P-wave (km/s) = 6.21909 5.19166 5.72846
#
# Compressibility (1/GPa) = 0.06011735
#
# Stress axis : x y z
#
# Youngs Moduli (GPa) = 117.86468 20.93540 105.20107
#
# Poissons Ratio (x) = 0.07761 0.01103
# Poissons Ratio (y) = 0.43691 -0.10441
# Poissons Ratio (z) = 0.01235 -0.02078
#
# Static dielectric constant tensor:
#      x y z
#    x 1.954170 0.000000 0.000000 
#    y 0.000000 1.930130 0.000000 
#    z 0.000000 0.000000 1.969150 
# 
# From -- ./inp_files/32436.got.cif
#   From: 2010.05.17/outbox.cif.g08.bks.cpg/sg66_17_cif.got.tgz:32436.got - 2010.06.03 17:51:23.
