data_PCOD9498048
_publ_section_title
;
Structure prediction by ZEFSAII (Michael W. Deem and Ramdas Pophale) SiO2 
 PCOD9498048
Probable space group: C C C M
;
_chemical_formula_sum "Si O2"
_cell_formula_units_Z 56
_cell_length_a 12.654520
_cell_length_b 7.000128
_cell_length_c 26.010992
_cell_angle_alpha 90.000000
_cell_angle_beta 90.000000
_cell_angle_gamma 90.000000
_cell_volume 2304.138461
_symmetry_space_group_name_H-M "C C C M"
_symmetry_group_IT_number 66
_symmetry_cell_setting 'orthorhombic'
loop_
_space_group_symop_operation_xyz
x,y,z
-x,-y,z
x,-y,1/2-z
-x,y,1/2-z
-x,-y,-z
x,y,-z
-x,y,1/2+z
x,-y,1/2+z
1/2+x,1/2+y,z
1/2-x,1/2-y,z
1/2+x,1/2-y,1/2-z
1/2-x,1/2+y,1/2-z
1/2-x,1/2-y,-z
1/2+x,1/2+y,-z
1/2-x,1/2+y,1/2+z
1/2+x,1/2-y,1/2+z
loop_
_atom_site_type_symbol
_atom_site_label
_atom_site_fract_x
_atom_site_fract_y
_atom_site_fract_z
Si Si1 0.475142 0.223824 0.443966
Si Si2 0.750000 0.250000 0.895196
Si Si3 0.683802 0.496108 0.194261
Si Si4 0.016495 0.273596 0.831366
O O1 0.505150 0.299864 0.500000
O O2 0.352218 0.251982 0.430797
O O3 0.528669 0.288982 0.391338
O O4 0.500000 0.000000 0.445767
O O5 0.749669 0.430020 0.855531
O O6 0.736704 0.500000 0.250000
O O7 0.584468 0.342516 0.191162
O O8 0.624735 0.697640 0.191412
O O9 0.000000 0.500000 0.826720
#
# Coordination Sequence:
#
# PCOD9498048 Si02
#       4
#    16   8  16  16
#     4   9  18  36  61  87 117 155 200 250 309 373
#     4  10  21  40  56  86 124 160 197 254 310 364
#     4  10  21  38  56  84 122 155 205 249 296 371
#     4   9  18  36  62  86 115 154 197 254 305 358
#
# _framework density 24.304093999999999
#
# number of rings (size 3 to 8) (size 9 to 14) (size 15 to 20)
#    0.000    2.571    0.000    2.143    0.000    2.286 
#   15.429   12.857    0.000    8.571    0.000    0.000 
#    0.000    0.000    0.000    0.000    0.000    0.000 
#
# Total GULP energy -156376.060554 kJ/mol
# GULP energy per Si atom -5584.859306 kJ/mol
# Density = 2.424878 g / cm^3
# Si number density = 24.304094 Si / 1000 Ang^3
#
#
#
# Elastic Constant Matrix: (Units=GPa)
#
#
# Indices 1 2 3 4 5 6 
#
# 1 32.0404 -1.2769 -9.2123 0.0000 0.0000 0.0000
# 2 -1.2769 156.9586 12.3709 0.0000 0.0000 0.0000
# 3 -9.2123 12.3709 158.2946 0.0000 0.0000 0.0000
# 4 0.0000 0.0000 0.0000 44.9241 0.0000 0.0000
# 5 0.0000 0.0000 0.0000 0.0000 12.6341 0.0000
# 6 0.0000 0.0000 0.0000 0.0000 0.0000 32.2581
#
#
#
# Elastic Compliance Matrix: (Units=1/GPa)
#
#
# Indices 1 2 3 4 5 6 
#
# 1 0.031744 0.000113 0.001839 0.000000 0.000000 0.000000
# 2 0.000113 0.006411 -0.000494 0.000000 0.000000 0.000000
# 3 0.001839 -0.000494 0.006463 0.000000 0.000000 0.000000
# 4 0.000000 0.000000 0.000000 0.022260 0.000000 0.000000
# 5 0.000000 0.000000 0.000000 0.000000 0.079151 0.000000
# 6 0.000000 0.000000 0.000000 0.000000 0.000000 0.031000
#
#
# Mechanical properties :
#
#
# Convention : Reuss Voigt Hill
#
# Bulk Modulus (GPa) = 21.03819 39.00633 30.02226
# Shear Modulus (GPa) = 26.32161 40.99070 33.65615
#
# Velocity S-wave (km/s) = 3.29448 4.11125 3.72532
# Velocity P-wave (km/s) = 4.81108 6.21455 5.55730
#
# Compressibility (1/GPa) = 0.04753260
#
# Stress axis : x y z
#
# Youngs Moduli (GPa) = 31.50226 155.98198 154.72752
#
# Poissons Ratio (x) = -0.01768 -0.28447
# Poissons Ratio (y) = -0.00357 0.07650
# Poissons Ratio (z) = -0.05792 0.07712
#
# Static dielectric constant tensor:
#      x y z
#    x 1.957670 0.000000 0.000000 
#    y 0.000000 1.981920 0.000000 
#    z 0.000000 0.000000 1.923470 
# 
# From -- ./inp_files/64194.got.cif
#   From: 2010.05.17/outbox.cif.g08.bks.cpg/sg66_33_cif.got.tgz:64194.got - 2010.06.03 17:51:23.
