data_PCOD9498011
_publ_section_title
;
Structure prediction by ZEFSAII (Michael W. Deem and Ramdas Pophale) SiO2 
 PCOD9498011
Probable space group: C C C M
;
_chemical_formula_sum "Si O2"
_cell_formula_units_Z 120
_cell_length_a 19.375623
_cell_length_b 11.050084
_cell_length_c 25.870857
_cell_angle_alpha 90.000000
_cell_angle_beta 90.000000
_cell_angle_gamma 90.000000
_cell_volume 5539.008996
_symmetry_space_group_name_H-M "C C C M"
_symmetry_group_IT_number 66
_symmetry_cell_setting 'orthorhombic'
loop_
_space_group_symop_operation_xyz
x,y,z
-x,-y,z
x,-y,1/2-z
-x,y,1/2-z
-x,-y,-z
x,y,-z
-x,y,1/2+z
x,-y,1/2+z
1/2+x,1/2+y,z
1/2-x,1/2-y,z
1/2+x,1/2-y,1/2-z
1/2-x,1/2+y,1/2-z
1/2-x,1/2-y,-z
1/2+x,1/2+y,-z
1/2-x,1/2+y,1/2+z
1/2+x,1/2-y,1/2+z
loop_
_atom_site_type_symbol
_atom_site_label
_atom_site_fract_x
_atom_site_fract_y
_atom_site_fract_z
Si Si1 0.789055 0.047544 0.363876
Si Si2 0.627273 0.592524 0.560106
Si Si3 0.604370 0.811987 0.381040
Si Si4 0.179691 0.175005 0.289231
Si Si5 0.000000 0.000000 0.367103
Si Si6 0.523647 0.859667 0.056758
Si Si7 0.405261 0.688540 0.685779
Si Si8 0.133450 0.595874 0.369382
O O1 0.807165 0.978017 0.416650
O O2 0.797460 0.948406 0.317826
O O3 0.847294 0.146551 0.355106
O O4 0.714478 0.104772 0.362508
O O5 0.615238 0.571000 0.500000
O O6 0.638822 0.734939 0.572459
O O7 0.562351 0.547454 0.595909
O O8 0.633023 0.745696 0.330829
O O9 0.525126 0.805240 0.399289
O O10 0.620089 0.952211 0.372626
O O11 0.250000 0.250000 0.276891
O O12 0.129823 0.159465 0.240427
O O13 0.970095 0.105717 0.329730
O O14 0.600956 0.854596 0.077368
O O15 0.500000 0.000000 0.053423
O O16 0.514482 0.804556 0.000000
O O17 0.407091 0.832776 0.676116
#
# Coordination Sequence:
#
# PCOD9498011 Si02
#       8
#    16  16  16  16   8  16  16  16
#     4  10  22  40  60  95 132 162 216 277 310 381
#     4  10  21  39  67  93 128 176 213 261 327 386
#     4  10  21  37  61  95 130 163 212 271 314 380
#     4  11  21  40  66  94 128 173 215 272 336 395
#     4  10  23  46  65  94 128 162 222 276 316 388
#     4   9  19  36  59  85 119 166 208 252 316 382
#     4  11  24  40  66  92 121 173 219 261 330 391
#     4  11  21  39  62  91 133 168 209 271 323 378
#
# _framework density 21.664525000000001
#
# number of rings (size 3 to 8) (size 9 to 14) (size 15 to 20)
#    0.000    1.733    1.333    3.000    0.000    1.600 
#    0.000   21.333    0.000    8.000    0.000    0.000 
#    0.000    0.000    0.000    0.000    0.000    0.000 
#
# Total GULP energy -334705.339175 kJ/mol
# GULP energy per Si atom -5578.422320 kJ/mol
# Density = 2.161522 g / cm^3
# Si number density = 21.664525 Si / 1000 Ang^3
#
#
#
# Elastic Constant Matrix: (Units=GPa)
#
#
# Indices 1 2 3 4 5 6 
#
# 1 72.0477 20.0454 50.8672 0.0000 0.0000 0.0000
# 2 20.0454 75.7590 22.6923 0.0000 0.0000 0.0000
# 3 50.8672 22.6923 120.5483 0.0000 0.0000 0.0000
# 4 0.0000 0.0000 0.0000 5.2872 0.0000 0.0000
# 5 0.0000 0.0000 0.0000 0.0000 16.6823 0.0000
# 6 0.0000 0.0000 0.0000 0.0000 0.0000 33.8268
#
#
#
# Elastic Compliance Matrix: (Units=1/GPa)
#
#
# Indices 1 2 3 4 5 6 
#
# 1 0.020387 -0.002986 -0.008041 0.000000 0.000000 0.000000
# 2 -0.002986 0.014426 -0.001456 0.000000 0.000000 0.000000
# 3 -0.008041 -0.001456 0.011962 0.000000 0.000000 0.000000
# 4 0.000000 0.000000 0.000000 0.189138 0.000000 0.000000
# 5 0.000000 0.000000 0.000000 0.000000 0.059944 0.000000
# 6 0.000000 0.000000 0.000000 0.000000 0.000000 0.029562
#
#
# Mechanical properties :
#
#
# Convention : Reuss Voigt Hill
#
# Bulk Modulus (GPa) = 45.84825 50.61830 48.23328
# Shear Modulus (GPa) = 13.98000 22.80927 18.39464
#
# Velocity S-wave (km/s) = 2.54302 3.24827 2.91704
# Velocity P-wave (km/s) = 5.46181 6.12239 5.80151
#
# Compressibility (1/GPa) = 0.02181108
#
# Stress axis : x y z
#
# Youngs Moduli (GPa) = 49.05006 69.32024 83.59586
#
# Poissons Ratio (x) = 0.20699 0.67217
# Poissons Ratio (y) = 0.14646 0.12168
# Poissons Ratio (z) = 0.39440 0.10090
#
# Static dielectric constant tensor:
#      x y z
#    x 1.810120 0.000000 0.000000 
#    y 0.000000 1.881550 0.000000 
#    z 0.000000 0.000000 1.777300 
# 
# From -- ./inp_files/59612.got.cif
#   From: 2010.05.17/outbox.cif.g08.bks.cpg/sg66_30_cif.got.tgz:59612.got - 2010.06.03 17:51:23.
