data_PCOD9498489
_publ_section_title
;
Structure prediction by ZEFSAII (Michael W. Deem and Ramdas Pophale) SiO2 
 PCOD9498489
Probable space group: C C C M
;
_chemical_formula_sum "Si O2"
_cell_formula_units_Z 96
_cell_length_a 11.923252
_cell_length_b 20.646995
_cell_length_c 17.490617
_cell_angle_alpha 90.000000
_cell_angle_beta 90.000000
_cell_angle_gamma 90.000000
_cell_volume 4305.828277
_symmetry_space_group_name_H-M "C C C M"
_symmetry_group_IT_number 66
_symmetry_cell_setting 'orthorhombic'
loop_
_space_group_symop_operation_xyz
x,y,z
-x,-y,z
x,-y,1/2-z
-x,y,1/2-z
-x,-y,-z
x,y,-z
-x,y,1/2+z
x,-y,1/2+z
1/2+x,1/2+y,z
1/2-x,1/2-y,z
1/2+x,1/2-y,1/2-z
1/2-x,1/2+y,1/2-z
1/2-x,1/2-y,-z
1/2+x,1/2+y,-z
1/2-x,1/2+y,1/2+z
1/2+x,1/2-y,1/2+z
loop_
_atom_site_type_symbol
_atom_site_label
_atom_site_fract_x
_atom_site_fract_y
_atom_site_fract_z
Si Si1 0.984521 0.285873 0.839270
Si Si2 0.779207 0.364368 0.157147
Si Si3 0.171057 0.384729 0.168932
Si Si4 0.953575 0.912752 0.664614
Si Si5 0.230352 0.008673 0.588244
Si Si6 0.373846 0.326176 0.911928
O O1 0.856106 0.302632 0.857372
O O2 0.000000 0.266598 0.750000
O O3 0.051017 0.353998 0.847683
O O4 0.049396 0.234507 0.890389
O O5 0.814681 0.391338 0.240405
O O6 0.644596 0.357328 0.162946
O O7 0.794504 0.422612 0.097059
O O8 0.201306 0.450823 0.126430
O O9 0.264289 0.333134 0.140259
O O10 0.882696 0.974566 0.636177
O O11 0.000000 0.918763 0.750000
O O12 0.049663 0.888412 0.608226
O O13 0.206585 0.995228 0.500000
O O14 0.341129 0.324977 0.000000
#
# Coordination Sequence:
#
# PCOD9498489 Si02
#       6
#    16  16  16  16  16  16
#     4  10  24  43  65  90 124 169 220 267 311 375
#     4   9  22  42  65  93 122 165 218 263 315 382
#     4  11  22  42  65  93 126 170 214 263 316 381
#     4  10  21  42  67  93 124 166 213 262 319 384
#     4  10  22  40  64  96 132 162 206 267 323 383
#     4  12  24  40  63  95 131 167 211 264 324 386
#
# _framework density 22.295362000000001
#
# number of rings (size 3 to 8) (size 9 to 14) (size 15 to 20)
#    1.000    0.667    1.667    2.500    0.000    4.667 
#    3.000    5.833    0.000    0.000    0.000    0.000 
#    0.000    0.000    0.000    0.000    0.000    0.000 
#
# Total GULP energy -268224.142070 kJ/mol
# GULP energy per Si atom -5588.002960 kJ/mol
# Density = 2.224462 g / cm^3
# Si number density = 22.295362 Si / 1000 Ang^3
#
#
#
# Elastic Constant Matrix: (Units=GPa)
#
#
# Indices 1 2 3 4 5 6 
#
# 1 89.6520 14.9162 13.8147 0.0000 0.0000 0.0000
# 2 14.9162 65.6064 21.2378 0.0000 0.0000 0.0000
# 3 13.8147 21.2378 85.8999 0.0000 0.0000 0.0000
# 4 0.0000 0.0000 0.0000 -58.4984 0.0000 0.0000
# 5 0.0000 0.0000 0.0000 0.0000 1.5666 0.0000
# 6 0.0000 0.0000 0.0000 0.0000 0.0000 39.4475
#
#
#
# Elastic Compliance Matrix: (Units=1/GPa)
#
#
# Indices 1 2 3 4 5 6 
#
# 1 0.011732 -0.002235 -0.001334 0.000000 0.000000 0.000000
# 2 -0.002235 0.016994 -0.003842 0.000000 0.000000 0.000000
# 3 -0.001334 -0.003842 0.012806 0.000000 0.000000 0.000000
# 4 0.000000 0.000000 0.000000 -0.017094 0.000000 0.000000
# 5 0.000000 0.000000 0.000000 0.000000 0.638339 0.000000
# 6 0.000000 0.000000 0.000000 0.000000 0.000000 0.025350
#
#
# Mechanical properties :
#
#
# Convention : Reuss Voigt Hill
#
# Bulk Modulus (GPa) = 37.44089 37.89950 37.67020
# Shear Modulus (GPa) = 7.02392 9.24911 8.13652
#
# Velocity S-wave (km/s) = 1.77686 2.03898 1.91242
# Velocity P-wave (km/s) = 4.58685 4.75174 4.67002
#
# Compressibility (1/GPa) = 0.02670877
#
# Stress axis : x y z
#
# Youngs Moduli (GPa) = 85.23879 58.84276 78.08880
#
# Poissons Ratio (x) = 0.13154 0.10417
# Poissons Ratio (y) = 0.19055 0.30003
# Poissons Ratio (z) = 0.11371 0.22608
#
# Static dielectric constant tensor:
#      x y z
#    x 1.856570 0.000000 0.000000 
#    y 0.000000 1.895500 0.000000 
#    z 0.000000 0.000000 1.738320 
# 
# From -- ./inp_files/38802.got.cif
#   From: 2010.05.17/outbox.cif.g08.bks.cpg/sg66_20_cif.got.tgz:38802.got - 2010.06.03 17:51:23.
