data_PCOD9498641
_publ_section_title
;
Structure prediction by ZEFSAII (Michael W. Deem and Ramdas Pophale) SiO2 
 PCOD9498641
Probable space group: C C C M
;
_chemical_formula_sum "Si O2"
_cell_formula_units_Z 96
_cell_length_a 15.928215
_cell_length_b 11.939038
_cell_length_c 27.377707
_cell_angle_alpha 90.000000
_cell_angle_beta 90.000000
_cell_angle_gamma 90.000000
_cell_volume 5206.351852
_symmetry_space_group_name_H-M "C C C M"
_symmetry_group_IT_number 66
_symmetry_cell_setting 'orthorhombic'
loop_
_space_group_symop_operation_xyz
x,y,z
-x,-y,z
x,-y,1/2-z
-x,y,1/2-z
-x,-y,-z
x,y,-z
-x,y,1/2+z
x,-y,1/2+z
1/2+x,1/2+y,z
1/2-x,1/2-y,z
1/2+x,1/2-y,1/2-z
1/2-x,1/2+y,1/2-z
1/2-x,1/2-y,-z
1/2+x,1/2+y,-z
1/2-x,1/2+y,1/2+z
1/2+x,1/2-y,1/2+z
loop_
_atom_site_type_symbol
_atom_site_label
_atom_site_fract_x
_atom_site_fract_y
_atom_site_fract_z
Si Si1 0.884483 0.685993 0.555993
Si Si2 0.983239 0.369231 0.850945
Si Si3 0.404633 0.507468 0.138485
Si Si4 0.421024 0.306032 0.787434
Si Si5 0.208828 0.072909 0.443760
Si Si6 0.343349 0.732554 0.808408
O O1 0.910682 0.667299 0.500000
O O2 0.958890 0.670639 0.594508
O O3 0.843502 0.809908 0.558607
O O4 0.805896 0.603112 0.566971
O O5 0.899238 0.339692 0.820824
O O6 0.000000 0.500000 0.850431
O O7 0.053760 0.295179 0.823632
O O8 0.500000 0.500000 0.118604
O O9 0.402447 0.413644 0.180109
O O10 0.336282 0.495246 0.095822
O O11 0.385390 0.626479 0.164417
O O12 0.500000 0.323753 0.750000
O O13 0.346835 0.284307 0.749486
O O14 0.203952 0.033766 0.500000
O O15 0.250000 0.750000 0.826879
#
# Coordination Sequence:
#
# PCOD9498641 Si02
#       6
#    16  16  16  16  16  16
#     4   9  17  35  58  85 119 155 194 238 288 356
#     4  11  22  38  60  86 121 155 193 248 295 344
#     4  12  19  34  63  85 117 156 191 243 299 350
#     4  10  22  39  57  83 118 157 197 242 299 351
#     4   9  18  32  58  91 119 146 193 248 292 343
#     4  11  23  40  61  84 113 156 207 239 288 352
#
# _framework density 18.439015000000001
#
# number of rings (size 3 to 8) (size 9 to 14) (size 15 to 20)
#    0.000    1.667    5.000    2.500    0.000    3.667 
#    9.000    0.833    0.000    0.000    0.000    2.333 
#    0.000    0.000    0.000    0.000    0.000    0.000 
#
# Total GULP energy -267707.766803 kJ/mol
# GULP energy per Si atom -5577.245142 kJ/mol
# Density = 1.839705 g / cm^3
# Si number density = 18.439015 Si / 1000 Ang^3
#
#
#
# Elastic Constant Matrix: (Units=GPa)
#
#
# Indices 1 2 3 4 5 6 
#
# 1 41.2701 18.8251 17.8405 0.0000 0.0000 0.0000
# 2 18.8251 73.6149 30.3300 0.0000 0.0000 0.0000
# 3 17.8405 30.3300 128.8504 0.0000 0.0000 0.0000
# 4 0.0000 0.0000 0.0000 21.5399 0.0000 0.0000
# 5 0.0000 0.0000 0.0000 0.0000 28.4280 0.0000
# 6 0.0000 0.0000 0.0000 0.0000 0.0000 16.2621
#
#
#
# Elastic Compliance Matrix: (Units=1/GPa)
#
#
# Indices 1 2 3 4 5 6 
#
# 1 0.028104 -0.006183 -0.002436 0.000000 0.000000 0.000000
# 2 -0.006183 0.016404 -0.003005 0.000000 0.000000 0.000000
# 3 -0.002436 -0.003005 0.008806 0.000000 0.000000 0.000000
# 4 0.000000 0.000000 0.000000 0.046425 0.000000 0.000000
# 5 0.000000 0.000000 0.000000 0.000000 0.035177 0.000000
# 6 0.000000 0.000000 0.000000 0.000000 0.000000 0.061493
#
#
# Mechanical properties :
#
#
# Convention : Reuss Voigt Hill
#
# Bulk Modulus (GPa) = 33.26149 41.96962 37.61556
# Shear Modulus (GPa) = 21.76964 25.02867 23.39915
#
# Velocity S-wave (km/s) = 3.43976 3.68825 3.56617
# Velocity P-wave (km/s) = 5.81839 6.39909 6.11564
#
# Compressibility (1/GPa) = 0.03006480
#
# Stress axis : x y z
#
# Youngs Moduli (GPa) = 35.58205 60.96242 113.56467
#
# Poissons Ratio (x) = 0.37695 0.27662
# Poissons Ratio (y) = 0.22002 0.34127
# Poissons Ratio (z) = 0.08667 0.18320
#
# Static dielectric constant tensor:
#      x y z
#    x 1.653990 0.000000 0.000000 
#    y 0.000000 1.624890 0.000000 
#    z 0.000000 0.000000 1.686260 
# 
# From -- ./inp_files/65218.got.cif
#   From: 2010.05.17/outbox.cif.g08.bks.cpg/sg66_33_cif.got.tgz:65218.got - 2010.06.03 17:51:23.
