data_PCOD9498913
_publ_section_title
;
Structure prediction by ZEFSAII (Michael W. Deem and Ramdas Pophale) SiO2 
 PCOD9498913
Probable space group: C C C M
;
_chemical_formula_sum "Si O2"
_cell_formula_units_Z 64
_cell_length_a 15.162233
_cell_length_b 10.127608
_cell_length_c 16.889620
_cell_angle_alpha 90.000000
_cell_angle_beta 90.000000
_cell_angle_gamma 90.000000
_cell_volume 2593.521949
_symmetry_space_group_name_H-M "C C C M"
_symmetry_group_IT_number 66
_symmetry_cell_setting 'orthorhombic'
loop_
_space_group_symop_operation_xyz
x,y,z
-x,-y,z
x,-y,1/2-z
-x,y,1/2-z
-x,-y,-z
x,y,-z
-x,y,1/2+z
x,-y,1/2+z
1/2+x,1/2+y,z
1/2-x,1/2-y,z
1/2+x,1/2-y,1/2-z
1/2-x,1/2+y,1/2-z
1/2-x,1/2-y,-z
1/2+x,1/2+y,-z
1/2-x,1/2+y,1/2+z
1/2+x,1/2-y,1/2+z
loop_
_atom_site_type_symbol
_atom_site_label
_atom_site_fract_x
_atom_site_fract_y
_atom_site_fract_z
Si Si1 0.152685 0.058017 0.090416
Si Si2 0.475365 0.814677 0.410473
Si Si3 0.091216 0.178220 0.298051
Si Si4 0.821993 0.384899 0.687881
O O1 0.123210 0.950707 0.155660
O O2 0.081777 0.176899 0.087912
O O3 0.247609 0.108880 0.120035
O O4 0.157308 0.005547 0.000000
O O5 0.486662 0.856167 0.500000
O O6 0.565166 0.780935 0.366501
O O7 0.414470 0.907376 0.357317
O O8 0.158534 0.250748 0.238827
O O9 0.000000 0.155992 0.250000
O O10 0.804026 0.500000 0.750000
#
# Coordination Sequence:
#
# PCOD9498913 Si02
#       4
#    16  16  16  16
#     4  11  24  43  71 104 138 179 227 285 345 402
#     4  10  22  43  69  97 134 179 227 281 346 409
#     4  10  24  42  69 105 135 175 231 289 338 392
#     4  11  26  41  65  99 142 181 226 277 334 411
#
# _framework density 24.676869
#
# number of rings (size 3 to 8) (size 9 to 14) (size 15 to 20)
#    0.000    1.500    0.000    3.000   10.500   11.500 
#    0.000    7.500    0.000    0.000    0.000    0.000 
#    0.000    0.000    0.000    0.000    0.000    0.000 
#
# Total GULP energy -179200.331372 kJ/mol
# GULP energy per Si atom -5600.010355 kJ/mol
# Density = 2.462070 g / cm^3
# Si number density = 24.676869 Si / 1000 Ang^3
#
#
#
# Elastic Constant Matrix: (Units=GPa)
#
#
# Indices 1 2 3 4 5 6 
#
# 1 97.6983 19.0311 36.0030 0.0000 0.0000 0.0000
# 2 19.0311 123.7236 36.5322 0.0000 0.0000 0.0000
# 3 36.0030 36.5322 186.5670 0.0000 0.0000 0.0000
# 4 0.0000 0.0000 0.0000 11.7791 0.0000 0.0000
# 5 0.0000 0.0000 0.0000 0.0000 32.4159 0.0000
# 6 0.0000 0.0000 0.0000 0.0000 0.0000 29.0189
#
#
#
# Elastic Compliance Matrix: (Units=1/GPa)
#
#
# Indices 1 2 3 4 5 6 
#
# 1 0.011171 -0.001148 -0.001931 0.000000 0.000000 0.000000
# 2 -0.001148 0.008697 -0.001481 0.000000 0.000000 0.000000
# 3 -0.001931 -0.001481 0.006023 0.000000 0.000000 0.000000
# 4 0.000000 0.000000 0.000000 0.084896 0.000000 0.000000
# 5 0.000000 0.000000 0.000000 0.000000 0.030849 0.000000
# 6 0.000000 0.000000 0.000000 0.000000 0.000000 0.034460
#
#
# Mechanical properties :
#
#
# Convention : Reuss Voigt Hill
#
# Bulk Modulus (GPa) = 59.63274 65.68016 62.65645
# Shear Modulus (GPa) = 26.20461 35.73763 30.97112
#
# Velocity S-wave (km/s) = 3.26223 3.80968 3.54654
# Velocity P-wave (km/s) = 6.19737 6.78420 6.49742
#
# Compressibility (1/GPa) = 0.01676931
#
# Stress axis : x y z
#
# Youngs Moduli (GPa) = 89.51908 114.98831 166.03907
#
# Poissons Ratio (x) = 0.13202 0.32060
# Poissons Ratio (y) = 0.10278 0.24596
# Poissons Ratio (z) = 0.17285 0.17034
#
# Static dielectric constant tensor:
#      x y z
#    x 1.947150 0.000000 0.000000 
#    y 0.000000 2.053390 0.000000 
#    z 0.000000 0.000000 1.931080 
# 
# From -- ./inp_files/39773.got.cif
#   From: 2010.05.17/outbox.cif.g08.bks.cpg/sg66_20_cif.got.tgz:39773.got - 2010.06.03 17:51:23.
