data_PCOD9498183
_publ_section_title
;
Structure prediction by ZEFSAII (Michael W. Deem and Ramdas Pophale) SiO2 
 PCOD9498183
Probable space group: C C C M
;
_chemical_formula_sum "Si O2"
_cell_formula_units_Z 96
_cell_length_a 20.076721
_cell_length_b 9.102498
_cell_length_c 27.261996
_cell_angle_alpha 90.000000
_cell_angle_beta 90.000000
_cell_angle_gamma 90.000000
_cell_volume 4982.083771
_symmetry_space_group_name_H-M "C C C M"
_symmetry_group_IT_number 66
_symmetry_cell_setting 'orthorhombic'
loop_
_space_group_symop_operation_xyz
x,y,z
-x,-y,z
x,-y,1/2-z
-x,y,1/2-z
-x,-y,-z
x,y,-z
-x,y,1/2+z
x,-y,1/2+z
1/2+x,1/2+y,z
1/2-x,1/2-y,z
1/2+x,1/2-y,1/2-z
1/2-x,1/2+y,1/2-z
1/2-x,1/2-y,-z
1/2+x,1/2+y,-z
1/2-x,1/2+y,1/2+z
1/2+x,1/2-y,1/2+z
loop_
_atom_site_type_symbol
_atom_site_label
_atom_site_fract_x
_atom_site_fract_y
_atom_site_fract_z
Si Si1 0.179981 0.394571 0.442652
Si Si2 0.674531 0.432088 0.094148
Si Si3 0.428743 0.924105 0.605512
Si Si4 0.817906 0.934761 0.801942
Si Si5 0.557779 0.384635 0.556225
Si Si6 0.840461 0.412906 0.299167
O O1 0.191220 0.365620 0.500000
O O2 0.248004 0.457864 0.419344
O O3 0.164354 0.240514 0.415808
O O4 0.118877 0.503562 0.435219
O O5 0.657625 0.481950 0.149485
O O6 0.626939 0.527791 0.059968
O O7 0.438801 0.754147 0.591899
O O8 0.388064 0.950758 0.655662
O O9 0.500000 0.000000 0.607170
O O10 0.838159 0.764423 0.798792
O O11 0.737547 0.951993 0.805910
O O12 0.839275 0.000000 0.750000
O O13 0.500000 0.500000 0.569736
O O14 0.545502 0.336654 0.500000
O O15 0.861599 0.500000 0.250000
#
# Coordination Sequence:
#
# PCOD9498183 Si02
#       6
#    16  16  16  16  16  16
#     4  11  24  39  63  99 132 171 215 265 325 387
#     4  11  21  40  66  95 132 166 210 267 325 386
#     4  12  25  42  64  91 128 173 221 268 323 388
#     4  10  21  38  68  99 122 161 209 261 327 388
#     4  11  24  43  66  92 128 174 218 269 326 389
#     4  10  22  41  64  93 129 161 207 263 327 386
#
# _framework density 19.269044999999998
#
# number of rings (size 3 to 8) (size 9 to 14) (size 15 to 20)
#    0.000    1.167    3.333    3.500    2.333    5.000 
#    0.000    1.667    0.000    0.500    0.000    0.000 
#    0.000    0.000    0.000    0.000    0.000    0.000 
#
# Total GULP energy -268027.111574 kJ/mol
# GULP energy per Si atom -5583.898158 kJ/mol
# Density = 1.922519 g / cm^3
# Si number density = 19.269045 Si / 1000 Ang^3
#
#
#
# Elastic Constant Matrix: (Units=GPa)
#
#
# Indices 1 2 3 4 5 6 
#
# 1 74.7613 47.7278 14.6505 0.0000 0.0000 0.0000
# 2 47.7278 66.5475 43.2923 0.0000 0.0000 0.0000
# 3 14.6505 43.2923 134.3687 0.0000 0.0000 0.0000
# 4 0.0000 0.0000 0.0000 30.6204 0.0000 0.0000
# 5 0.0000 0.0000 0.0000 0.0000 21.8599 0.0000
# 6 0.0000 0.0000 0.0000 0.0000 0.0000 26.8514
#
#
#
# Elastic Compliance Matrix: (Units=1/GPa)
#
#
# Indices 1 2 3 4 5 6 
#
# 1 0.026317 -0.021518 0.004063 0.000000 0.000000 0.000000
# 2 -0.021518 0.036606 -0.009448 0.000000 0.000000 0.000000
# 3 0.004063 -0.009448 0.010043 0.000000 0.000000 0.000000
# 4 0.000000 0.000000 0.000000 0.032658 0.000000 0.000000
# 5 0.000000 0.000000 0.000000 0.000000 0.045746 0.000000
# 6 0.000000 0.000000 0.000000 0.000000 0.000000 0.037242
#
#
# Mechanical properties :
#
#
# Convention : Reuss Voigt Hill
#
# Bulk Modulus (GPa) = 52.18894 54.11319 53.15107
# Shear Modulus (GPa) = 20.09626 27.20013 23.64819
#
# Velocity S-wave (km/s) = 3.23295 3.76120 3.50703
# Velocity P-wave (km/s) = 6.40929 6.85610 6.63646
#
# Compressibility (1/GPa) = 0.01916115
#
# Stress axis : x y z
#
# Youngs Moduli (GPa) = 37.99888 27.31821 99.57007
#
# Poissons Ratio (x) = 0.58782 -0.40460
# Poissons Ratio (y) = 0.81765 0.94073
# Poissons Ratio (z) = -0.15441 0.25810
#
# Static dielectric constant tensor:
#      x y z
#    x 1.653660 0.000000 0.000000 
#    y 0.000000 1.663660 0.000000 
#    z 0.000000 0.000000 1.680480 
# 
# From -- ./inp_files/65666.got.cif
#   From: 2010.05.17/outbox.cif.g08.bks.cpg/sg66_33_cif.got.tgz:65666.got - 2010.06.03 17:51:23.
