data_PCOD9498514
_publ_section_title
;
Structure prediction by ZEFSAII (Michael W. Deem and Ramdas Pophale) SiO2 
 PCOD9498514
Probable space group: C C C M
;
_chemical_formula_sum "Si O2"
_cell_formula_units_Z 104
_cell_length_a 9.161894
_cell_length_b 21.886069
_cell_length_c 26.867578
_cell_angle_alpha 90.000000
_cell_angle_beta 90.000000
_cell_angle_gamma 90.000000
_cell_volume 5387.428821
_symmetry_space_group_name_H-M "C C C M"
_symmetry_group_IT_number 66
_symmetry_cell_setting 'orthorhombic'
loop_
_space_group_symop_operation_xyz
x,y,z
-x,-y,z
x,-y,1/2-z
-x,y,1/2-z
-x,-y,-z
x,y,-z
-x,y,1/2+z
x,-y,1/2+z
1/2+x,1/2+y,z
1/2-x,1/2-y,z
1/2+x,1/2-y,1/2-z
1/2-x,1/2+y,1/2-z
1/2-x,1/2-y,-z
1/2+x,1/2+y,-z
1/2-x,1/2+y,1/2+z
1/2+x,1/2-y,1/2+z
loop_
_atom_site_type_symbol
_atom_site_label
_atom_site_fract_x
_atom_site_fract_y
_atom_site_fract_z
Si Si1 0.169585 0.018249 0.096746
Si Si2 0.250000 0.750000 0.376020
Si Si3 0.326588 0.133483 0.941693
Si Si4 0.160802 0.598601 0.057280
Si Si5 0.782387 0.346262 0.841633
Si Si6 0.668672 0.016824 0.193105
Si Si7 0.478990 0.265330 0.308861
O O1 0.205896 0.084022 0.074158
O O2 0.268748 0.967388 0.068568
O O3 0.226122 0.016175 0.153663
O O4 0.000000 0.000000 0.093266
O O5 0.310424 0.805127 0.409779
O O6 0.374783 0.725055 0.339624
O O7 0.486005 0.102168 0.934304
O O8 0.313058 0.147705 0.000000
O O9 0.226055 0.643299 0.099089
O O10 0.189052 0.615311 0.000000
O O11 0.814940 0.411296 0.817099
O O12 0.633335 0.318936 0.821153
O O13 0.906016 0.297498 0.827940
O O14 0.500000 0.000000 0.182962
O O15 0.701326 0.000000 0.250000
O O16 0.500000 0.261179 0.250000
#
# Coordination Sequence:
#
# PCOD9498514 Si02
#       7
#    16   8  16  16  16  16  16
#     4  11  24  40  64 100 135 167 215 273 332 396
#     4  12  25  42  68  96 130 172 225 272 324 376
#     4  11  24  43  67  94 132 175 223 268 325 396
#     4  10  21  43  69  94 128 175 216 267 328 390
#     4  10  22  45  64  99 133 164 229 261 325 393
#     4  10  23  41  69  99 130 179 217 270 327 390
#     4  11  25  43  67  94 130 180 216 273 316 388
#
# _framework density 19.304200999999999
#
# number of rings (size 3 to 8) (size 9 to 14) (size 15 to 20)
#    0.000    1.385    1.538    3.923    6.462    4.000 
#    0.000    2.308    0.000    0.000    0.000    0.000 
#    0.000    0.000    0.000    0.000    0.000    0.000 
#
# Total GULP energy -290636.189189 kJ/mol
# GULP energy per Si atom -5589.157484 kJ/mol
# Density = 1.926026 g / cm^3
# Si number density = 19.304201 Si / 1000 Ang^3
#
#
#
# Elastic Constant Matrix: (Units=GPa)
#
#
# Indices 1 2 3 4 5 6 
#
# 1 80.3416 28.9506 48.6361 0.0000 0.0000 0.0000
# 2 28.9506 78.7804 60.7891 0.0000 0.0000 0.0000
# 3 48.6361 60.7891 152.2829 0.0000 0.0000 0.0000
# 4 0.0000 0.0000 0.0000 18.1896 0.0000 0.0000
# 5 0.0000 0.0000 0.0000 0.0000 -2.6657 0.0000
# 6 0.0000 0.0000 0.0000 0.0000 0.0000 6.1609
#
#
#
# Elastic Compliance Matrix: (Units=1/GPa)
#
#
# Indices 1 2 3 4 5 6 
#
# 1 0.015838 -0.002770 -0.003952 0.000000 0.000000 0.000000
# 2 -0.002770 0.018828 -0.006631 0.000000 0.000000 0.000000
# 3 -0.003952 -0.006631 0.010476 0.000000 0.000000 0.000000
# 4 0.000000 0.000000 0.000000 0.054977 0.000000 0.000000
# 5 0.000000 0.000000 0.000000 0.000000 -0.375138 0.000000
# 6 0.000000 0.000000 0.000000 0.000000 0.000000 0.162314
#
#
# Mechanical properties :
#
#
# Convention : Reuss Voigt Hill
#
# Bulk Modulus (GPa) = 54.24656 65.35074 59.79865
# Shear Modulus (GPa) = -62.61576 15.87223 -23.37177
#
# Velocity S-wave (km/s) = -5.70147 2.87054 -3.48330
# Velocity P-wave (km/s) = 3.89621 6.70174 3.85570
#
# Compressibility (1/GPa) = 0.01843435
#
# Stress axis : x y z
#
# Youngs Moduli (GPa) = 63.14017 53.11121 95.45524
#
# Poissons Ratio (x) = 0.14714 0.37727
# Poissons Ratio (y) = 0.17492 0.63298
# Poissons Ratio (z) = 0.24955 0.35219
#
# Static dielectric constant tensor:
#      x y z
#    x 1.652730 0.000000 0.000000 
#    y 0.000000 1.645410 0.000000 
#    z 0.000000 0.000000 1.663830 
# 
# From -- ./inp_files/62702.got.cif
#   From: 2010.05.17/outbox.cif.g08.bks.cpg/sg66_32_cif.got.tgz:62702.got - 2010.06.03 17:51:23.
