data_PCOD9498605
_publ_section_title
;
Structure prediction by ZEFSAII (Michael W. Deem and Ramdas Pophale) SiO2 
 PCOD9498605
Probable space group: C C C M
;
_chemical_formula_sum "Si O2"
_cell_formula_units_Z 88
_cell_length_a 22.016279
_cell_length_b 14.688154
_cell_length_c 14.540858
_cell_angle_alpha 90.000000
_cell_angle_beta 90.000000
_cell_angle_gamma 90.000000
_cell_volume 4702.200797
_symmetry_space_group_name_H-M "C C C M"
_symmetry_group_IT_number 66
_symmetry_cell_setting 'orthorhombic'
loop_
_space_group_symop_operation_xyz
x,y,z
-x,-y,z
x,-y,1/2-z
-x,y,1/2-z
-x,-y,-z
x,y,-z
-x,y,1/2+z
x,-y,1/2+z
1/2+x,1/2+y,z
1/2-x,1/2-y,z
1/2+x,1/2-y,1/2-z
1/2-x,1/2+y,1/2-z
1/2-x,1/2-y,-z
1/2+x,1/2+y,-z
1/2-x,1/2+y,1/2+z
1/2+x,1/2-y,1/2+z
loop_
_atom_site_type_symbol
_atom_site_label
_atom_site_fract_x
_atom_site_fract_y
_atom_site_fract_z
Si Si1 0.465247 0.091666 0.000000
Si Si2 0.930642 0.962397 0.500000
Si Si3 0.394528 0.906520 0.307371
Si Si4 0.270915 0.852287 0.605789
Si Si5 0.350482 0.444859 0.158842
Si Si6 0.995152 0.779494 0.500000
Si Si7 0.441543 0.288210 0.804816
O O1 0.425418 0.091439 0.092188
O O2 0.515765 0.171827 0.000000
O O3 0.500000 0.000000 0.000000
O O4 0.941444 0.853090 0.500000
O O5 0.894407 0.000105 0.411183
O O6 0.000000 0.000000 0.500000
O O7 0.323569 0.888112 0.327445
O O8 0.423491 0.812339 0.268029
O O9 0.404552 0.000000 0.250000
O O10 0.293636 0.848875 0.500000
O O11 0.250000 0.750000 0.630130
O O12 0.211345 0.914532 0.610349
O O13 0.335664 0.500000 0.250000
O O14 0.385356 0.355548 0.195329
O O15 0.036807 0.790312 0.589592
O O16 0.500000 0.322906 0.750000
#
# Coordination Sequence:
#
# PCOD9498605 Si02
#       7
#     8   8  16  16  16   8  16
#     4  10  24  41  63  93 124 166 210 255 320 379
#     4  12  22  37  60  94 129 166 201 247 318 379
#     4  11  24  41  65  89 123 164 209 271 314 366
#     4  11  22  42  68  89 118 160 219 269 315 372
#     4  12  24  38  63  91 127 168 206 255 313 381
#     4  10  22  38  59  84 136 158 200 250 304 370
#     4  11  23  38  59  94 124 164 206 249 313 379
#
# _framework density 18.714641
#
# number of rings (size 3 to 8) (size 9 to 14) (size 15 to 20)
#    0.000    0.909    5.455    1.636    5.091    0.000 
#    0.000    0.000    0.000    0.000    0.000    3.818 
#    0.000    0.000    0.000    0.000    0.000    0.000 
#
# Total GULP energy -245473.118043 kJ/mol
# GULP energy per Si atom -5578.934501 kJ/mol
# Density = 1.867205 g / cm^3
# Si number density = 18.714641 Si / 1000 Ang^3
#
#
#
# Elastic Constant Matrix: (Units=GPa)
#
#
# Indices 1 2 3 4 5 6 
#
# 1 76.5328 20.3937 4.9668 0.0000 0.0000 0.0000
# 2 20.3937 119.2050 23.9243 0.0000 0.0000 0.0000
# 3 4.9668 23.9243 68.4465 0.0000 0.0000 0.0000
# 4 0.0000 0.0000 0.0000 34.0850 0.0000 0.0000
# 5 0.0000 0.0000 0.0000 0.0000 134.9043 0.0000
# 6 0.0000 0.0000 0.0000 0.0000 0.0000 32.6621
#
#
#
# Elastic Compliance Matrix: (Units=1/GPa)
#
#
# Indices 1 2 3 4 5 6 
#
# 1 0.013693 -0.002305 -0.000188 0.000000 0.000000 0.000000
# 2 -0.002305 0.009410 -0.003122 0.000000 0.000000 0.000000
# 3 -0.000188 -0.003122 0.015715 0.000000 0.000000 0.000000
# 4 0.000000 0.000000 0.000000 0.029338 0.000000 0.000000
# 5 0.000000 0.000000 0.000000 0.000000 0.007413 0.000000
# 6 0.000000 0.000000 0.000000 0.000000 0.000000 0.030617
#
#
# Mechanical properties :
#
#
# Convention : Reuss Voigt Hill
#
# Bulk Modulus (GPa) = 36.24766 40.30600 38.27683
# Shear Modulus (GPa) = 39.49136 54.65692 47.07414
#
# Velocity S-wave (km/s) = 4.59866 5.41007 5.02078
# Velocity P-wave (km/s) = 6.89982 7.78518 7.35583
#
# Compressibility (1/GPa) = 0.02758799
#
# Stress axis : x y z
#
# Youngs Moduli (GPa) = 73.03187 106.27261 63.63444
#
# Poissons Ratio (x) = 0.24494 0.01196
# Poissons Ratio (y) = 0.16833 0.19865
# Poissons Ratio (z) = 0.01373 0.33176
#
# Static dielectric constant tensor:
#      x y z
#    x 1.630980 0.000000 0.000000 
#    y 0.000000 1.721750 0.000000 
#    z 0.000000 0.000000 1.554260 
# 
# From -- ./inp_files/28285.got.cif
#   From: 2010.05.17/outbox.cif.g08.bks.cpg/sg66_15_cif.got.tgz:28285.got - 2010.06.03 17:51:23.
