data_PCOD9498470
_publ_section_title
;
Structure prediction by ZEFSAII (Michael W. Deem and Ramdas Pophale) SiO2 
 PCOD9498470
Probable space group: C C C M
;
_chemical_formula_sum "Si O2"
_cell_formula_units_Z 52
_cell_length_a 12.889713
_cell_length_b 8.412180
_cell_length_c 17.799117
_cell_angle_alpha 90.000000
_cell_angle_beta 90.000000
_cell_angle_gamma 90.000000
_cell_volume 1929.968685
_symmetry_space_group_name_H-M "C C C M"
_symmetry_group_IT_number 66
_symmetry_cell_setting 'orthorhombic'
loop_
_space_group_symop_operation_xyz
x,y,z
-x,-y,z
x,-y,1/2-z
-x,y,1/2-z
-x,-y,-z
x,y,-z
-x,y,1/2+z
x,-y,1/2+z
1/2+x,1/2+y,z
1/2-x,1/2-y,z
1/2+x,1/2-y,1/2-z
1/2-x,1/2+y,1/2-z
1/2-x,1/2-y,-z
1/2+x,1/2+y,-z
1/2-x,1/2+y,1/2+z
1/2+x,1/2-y,1/2+z
loop_
_atom_site_type_symbol
_atom_site_label
_atom_site_fract_x
_atom_site_fract_y
_atom_site_fract_z
Si Si1 0.992541 0.200157 0.914294
Si Si2 0.161104 0.355659 0.698387
Si Si3 0.500000 0.000000 0.000000
Si Si4 0.713256 0.427268 0.586870
O O1 0.922138 0.243221 0.842820
O O2 0.088415 0.081244 0.900883
O O3 0.943805 0.175293 0.000000
O O4 0.039602 0.374708 0.934939
O O5 0.121577 0.500000 0.750000
O O6 0.250000 0.250000 0.738972
O O7 0.227869 0.441999 0.633836
O O8 0.734243 0.460823 0.500000
O O9 0.750000 0.250000 0.601662
#
# Coordination Sequence:
#
# PCOD9498470 Si02
#       4
#    16  16   4  16
#     4   9  20  40  72 104 132 175 239 298 356 428
#     4  12  27  46  65 101 150 197 244 297 371 445
#     4   8  16  36  66 102 126 160 236 278 348 426
#     4  10  21  41  74 106 136 178 237 308 364 430
#
# _framework density 26.943442000000001
#
# number of rings (size 3 to 8) (size 9 to 14) (size 15 to 20)
#    0.923    0.923    0.000    3.692    4.308    3.692 
#    0.000   22.308    0.000    0.000    0.000    0.000 
#    0.000    0.000    0.000    0.000    0.000    0.000 
#
# Total GULP energy -144882.664488 kJ/mol
# GULP energy per Si atom -5572.410173 kJ/mol
# Density = 2.688212 g / cm^3
# Si number density = 26.943442 Si / 1000 Ang^3
#
#
#
# Elastic Constant Matrix: (Units=GPa)
#
#
# Indices 1 2 3 4 5 6 
#
# 1 71.9225 1.4822 54.1580 0.0000 0.0000 0.0000
# 2 1.4822 75.9466 43.9014 0.0000 0.0000 0.0000
# 3 54.1580 43.9014 153.4630 0.0000 0.0000 0.0000
# 4 0.0000 0.0000 0.0000 45.1851 0.0000 0.0000
# 5 0.0000 0.0000 0.0000 0.0000 15.6193 0.0000
# 6 0.0000 0.0000 0.0000 0.0000 0.0000 52.9540
#
#
#
# Elastic Compliance Matrix: (Units=1/GPa)
#
#
# Indices 1 2 3 4 5 6 
#
# 1 0.020115 0.004446 -0.008371 0.000000 0.000000 0.000000
# 2 0.004446 0.016759 -0.006363 0.000000 0.000000 0.000000
# 3 -0.008371 -0.006363 0.011291 0.000000 0.000000 0.000000
# 4 0.000000 0.000000 0.000000 0.022131 0.000000 0.000000
# 5 0.000000 0.000000 0.000000 0.000000 0.064023 0.000000
# 6 0.000000 0.000000 0.000000 0.000000 0.000000 0.018884
#
#
# Mechanical properties :
#
#
# Convention : Reuss Voigt Hill
#
# Bulk Modulus (GPa) = 36.24613 55.60168 45.92390
# Shear Modulus (GPa) = 27.32599 36.20437 31.76518
#
# Velocity S-wave (km/s) = 3.18810 3.66965 3.43732
# Velocity P-wave (km/s) = 5.19941 6.21582 5.73019
#
# Compressibility (1/GPa) = 0.02758915
#
# Stress axis : x y z
#
# Youngs Moduli (GPa) = 49.71291 59.67044 88.56854
#
# Poissons Ratio (x) = -0.26531 0.74139
# Poissons Ratio (y) = -0.22103 0.56359
# Poissons Ratio (z) = 0.41614 0.37970
#
# Static dielectric constant tensor:
#      x y z
#    x 2.350410 0.000000 0.000000 
#    y 0.000000 2.329030 0.000000 
#    z 0.000000 0.000000 2.020720 
# 
# From -- ./inp_files/49364.got.cif
#   From: 2010.05.17/outbox.cif.g08.bks.cpg/sg66_25_cif.got.tgz:49364.got - 2010.06.03 17:51:23.
