data_PCOD9498316
_publ_section_title
;
Structure prediction by ZEFSAII (Michael W. Deem and Ramdas Pophale) SiO2 
 PCOD9498316
Probable space group: C C C M
;
_chemical_formula_sum "Si O2"
_cell_formula_units_Z 116
_cell_length_a 32.887072
_cell_length_b 10.700975
_cell_length_c 16.287284
_cell_angle_alpha 90.000000
_cell_angle_beta 90.000000
_cell_angle_gamma 90.000000
_cell_volume 5731.881823
_symmetry_space_group_name_H-M "C C C M"
_symmetry_group_IT_number 66
_symmetry_cell_setting 'orthorhombic'
loop_
_space_group_symop_operation_xyz
x,y,z
-x,-y,z
x,-y,1/2-z
-x,y,1/2-z
-x,-y,-z
x,y,-z
-x,y,1/2+z
x,-y,1/2+z
1/2+x,1/2+y,z
1/2-x,1/2-y,z
1/2+x,1/2-y,1/2-z
1/2-x,1/2+y,1/2-z
1/2-x,1/2-y,-z
1/2+x,1/2+y,-z
1/2-x,1/2+y,1/2+z
1/2+x,1/2-y,1/2+z
loop_
_atom_site_type_symbol
_atom_site_label
_atom_site_fract_x
_atom_site_fract_y
_atom_site_fract_z
Si Si1 0.773424 0.865734 0.842105
Si Si2 0.500000 0.500000 0.750000
Si Si3 0.435428 0.685366 0.664973
Si Si4 0.854129 0.776192 0.094844
Si Si5 0.079650 0.370749 0.299877
Si Si6 0.739943 0.114552 0.845091
Si Si7 0.503744 0.148802 0.909515
Si Si8 0.652794 0.976403 0.402311
O O1 0.750000 0.750000 0.883353
O O2 0.820484 0.833183 0.845082
O O3 0.754253 0.875323 0.750441
O O4 0.764908 0.999059 0.882252
O O5 0.468526 0.584329 0.695952
O O6 0.397410 0.655539 0.607086
O O7 0.412558 0.755811 0.739536
O O8 0.462186 0.790250 0.619535
O O9 0.854974 0.625432 0.109903
O O10 0.841181 0.791538 0.000000
O O11 0.072502 0.500000 0.250000
O O12 0.114878 0.402928 0.363770
O O13 0.038880 0.328198 0.345084
O O14 0.750000 0.250000 0.881479
O O15 0.693275 0.072802 0.856721
O O16 0.500000 0.000000 0.913213
O O17 0.514338 0.196151 0.000000
O O18 0.656551 0.956082 0.500000
#
# Coordination Sequence:
#
# PCOD9498316 Si02
#       8
#    16   4  16  16  16  16  16  16
#     4  10  21  39  66  97 128 177 232 272 336 401
#     4  12  28  48  68  96 132 188 242 274 332 416
#     4  12  25  43  69  95 130 176 228 282 331 407
#     4  11  24  43  69 101 133 170 224 285 344 412
#     4  12  22  36  69  98 130 164 217 273 342 401
#     4  10  23  39  66  93 134 174 224 276 335 406
#     4  11  21  38  64  99 134 163 206 273 347 406
#     4  11  24  41  65 101 138 173 215 280 352 411
#
# _framework density 20.237682
#
# number of rings (size 3 to 8) (size 9 to 14) (size 15 to 20)
#    0.000    0.966    5.517    0.828    5.793    4.414 
#    0.000    1.379    0.000    0.000    0.000    0.000 
#    0.000    0.000    0.000    0.000    0.000    0.000 
#
# Total GULP energy -323582.583887 kJ/mol
# GULP energy per Si atom -5579.010067 kJ/mol
# Density = 2.019162 g / cm^3
# Si number density = 20.237682 Si / 1000 Ang^3
#
#
#
# Elastic Constant Matrix: (Units=GPa)
#
#
# Indices 1 2 3 4 5 6 
#
# 1 128.2300 19.3420 30.8732 0.0000 0.0000 0.0000
# 2 19.3420 104.4583 8.0049 0.0000 0.0000 0.0000
# 3 30.8732 8.0049 73.4286 0.0000 0.0000 0.0000
# 4 0.0000 0.0000 0.0000 -4.1144 0.0000 0.0000
# 5 0.0000 0.0000 0.0000 0.0000 31.5090 0.0000
# 6 0.0000 0.0000 0.0000 0.0000 0.0000 37.6667
#
#
#
# Elastic Compliance Matrix: (Units=1/GPa)
#
#
# Indices 1 2 3 4 5 6 
#
# 1 0.008866 -0.001367 -0.003579 0.000000 0.000000 0.000000
# 2 -0.001367 0.009865 -0.000500 0.000000 0.000000 0.000000
# 3 -0.003579 -0.000500 0.015178 0.000000 0.000000 0.000000
# 4 0.000000 0.000000 0.000000 -0.243051 0.000000 0.000000
# 5 0.000000 0.000000 0.000000 0.000000 0.031737 0.000000
# 6 0.000000 0.000000 0.000000 0.000000 0.000000 0.026549
#
#
# Mechanical properties :
#
#
# Convention : Reuss Voigt Hill
#
# Bulk Modulus (GPa) = 43.44882 46.95081 45.19982
# Shear Modulus (GPa) = -37.79540 29.53870 -4.12835
#
# Velocity S-wave (km/s) = -4.32623 3.82460 -1.42981
# Velocity P-wave (km/s) = 1.85450 6.53862 4.43364
#
# Compressibility (1/GPa) = 0.02301558
#
# Stress axis : x y z
#
# Youngs Moduli (GPa) = 112.78522 101.37089 65.88498
#
# Poissons Ratio (x) = 0.13862 0.23579
# Poissons Ratio (y) = 0.15423 0.03297
# Poissons Ratio (z) = 0.40364 0.05073
#
# Static dielectric constant tensor:
#      x y z
#    x 1.730030 0.000000 0.000000 
#    y 0.000000 1.557340 0.000000 
#    z 0.000000 0.000000 1.743090 
# 
# From -- ./inp_files/44774.got.cif
#   From: 2010.05.17/outbox.cif.g08.bks.cpg/sg66_23_cif.got.tgz:44774.got - 2010.06.03 17:51:23.
