data_PCOD9498265
_publ_section_title
;
Structure prediction by ZEFSAII (Michael W. Deem and Ramdas Pophale) SiO2 
 PCOD9498265
Probable space group: C C C M
;
_chemical_formula_sum "Si O2"
_cell_formula_units_Z 72
_cell_length_a 5.025866
_cell_length_b 32.105639
_cell_length_c 22.106199
_cell_angle_alpha 90.000000
_cell_angle_beta 90.000000
_cell_angle_gamma 90.000000
_cell_volume 3567.026194
_symmetry_space_group_name_H-M "C C C M"
_symmetry_group_IT_number 66
_symmetry_cell_setting 'orthorhombic'
loop_
_space_group_symop_operation_xyz
x,y,z
-x,-y,z
x,-y,1/2-z
-x,y,1/2-z
-x,-y,-z
x,y,-z
-x,y,1/2+z
x,-y,1/2+z
1/2+x,1/2+y,z
1/2-x,1/2-y,z
1/2+x,1/2-y,1/2-z
1/2-x,1/2+y,1/2-z
1/2-x,1/2-y,-z
1/2+x,1/2+y,-z
1/2-x,1/2+y,1/2+z
1/2+x,1/2-y,1/2+z
loop_
_atom_site_type_symbol
_atom_site_label
_atom_site_fract_x
_atom_site_fract_y
_atom_site_fract_z
Si Si1 0.491936 0.082879 0.178699
Si Si2 0.984402 0.869578 0.127621
Si Si3 0.000000 0.500000 0.893922
Si Si4 0.002013 0.779492 0.821185
Si Si5 0.266497 0.454124 0.500000
Si Si6 0.255593 0.399126 0.000000
O O1 0.500000 0.075042 0.250000
O O2 0.255498 0.115389 0.169724
O O3 0.416412 0.039395 0.146241
O O4 0.756547 0.102975 0.147170
O O5 0.028892 0.821106 0.139956
O O6 0.862856 0.876700 0.060436
O O7 0.790405 0.479988 0.939942
O O8 0.250000 0.750000 0.831453
O O9 0.000000 0.791720 0.750000
O O10 0.750000 0.750000 0.833309
O O11 0.568135 0.440462 0.500000
O O12 0.051924 0.414889 0.500000
#
# Coordination Sequence:
#
# PCOD9498265 Si02
#       6
#    16  16   8  16   8   8
#     4  12  25  41  62  92 131 167 207 261 314 368
#     4  12  24  43  65  94 125 167 208 255 311 373
#     4  11  23  42  62  92 123 169 218 260 306 359
#     4  10  21  39  64  92 122 157 200 250 306 374
#     4  11  24  40  66  83 127 166 219 263 296 360
#     4  12  22  45  62  93 119 168 211 259 304 363
#
# _framework density 20.184881000000001
#
# number of rings (size 3 to 8) (size 9 to 14) (size 15 to 20)
#    0.000    0.667    4.444    3.667    0.000    6.222 
#    0.000    3.333    0.000    0.000    0.000    0.000 
#    0.000    0.000    0.000    0.000    0.000    0.000 
#
# Total GULP energy -201096.663997 kJ/mol
# GULP energy per Si atom -5586.018444 kJ/mol
# Density = 2.013894 g / cm^3
# Si number density = 20.184881 Si / 1000 Ang^3
#
#
#
# Elastic Constant Matrix: (Units=GPa)
#
#
# Indices 1 2 3 4 5 6 
#
# 1 89.5877 13.1171 2.5525 0.0000 0.0000 0.0000
# 2 13.1171 115.2436 59.3130 0.0000 0.0000 0.0000
# 3 2.5525 59.3130 122.7574 0.0000 0.0000 0.0000
# 4 0.0000 0.0000 0.0000 60.6547 0.0000 0.0000
# 5 0.0000 0.0000 0.0000 0.0000 15.2689 0.0000
# 6 0.0000 0.0000 0.0000 0.0000 0.0000 60.5309
#
#
#
# Elastic Compliance Matrix: (Units=1/GPa)
#
#
# Indices 1 2 3 4 5 6 
#
# 1 0.011376 -0.001561 0.000518 0.000000 0.000000 0.000000
# 2 -0.001561 0.011764 -0.005651 0.000000 0.000000 0.000000
# 3 0.000518 -0.005651 0.010866 0.000000 0.000000 0.000000
# 4 0.000000 0.000000 0.000000 0.016487 0.000000 0.000000
# 5 0.000000 0.000000 0.000000 0.000000 0.065493 0.000000
# 6 0.000000 0.000000 0.000000 0.000000 0.000000 0.016520
#
#
# Mechanical properties :
#
#
# Convention : Reuss Voigt Hill
#
# Bulk Modulus (GPa) = 48.50624 53.06157 50.78390
# Shear Modulus (GPa) = 32.72952 44.13130 38.43041
#
# Velocity S-wave (km/s) = 4.03114 4.68092 4.36813
# Velocity P-wave (km/s) = 6.76387 7.45383 7.11721
#
# Compressibility (1/GPa) = 0.02061590
#
# Stress axis : x y z
#
# Youngs Moduli (GPa) = 87.90354 85.00784 92.03031
#
# Poissons Ratio (x) = 0.13273 -0.04766
# Poissons Ratio (y) = 0.13725 0.52010
# Poissons Ratio (z) = -0.04552 0.48041
#
# Static dielectric constant tensor:
#      x y z
#    x 1.716460 0.000000 0.000000 
#    y 0.000000 1.718910 0.000000 
#    z 0.000000 0.000000 1.752530 
# 
# From -- ./inp_files/54264.got.cif
#   From: 2010.05.17/outbox.cif.g08.bks.cpg/sg66_28_cif.got.tgz:54264.got - 2010.06.03 17:51:23.
