data_PCOD9498527
_publ_section_title
;
Structure prediction by ZEFSAII (Michael W. Deem and Ramdas Pophale) SiO2 
 PCOD9498527
Probable space group: C C C M
;
_chemical_formula_sum "Si O2"
_cell_formula_units_Z 64
_cell_length_a 5.503152
_cell_length_b 26.114111
_cell_length_c 20.229141
_cell_angle_alpha 90.000000
_cell_angle_beta 90.000000
_cell_angle_gamma 90.000000
_cell_volume 2907.128279
_symmetry_space_group_name_H-M "C C C M"
_symmetry_group_IT_number 66
_symmetry_cell_setting 'orthorhombic'
loop_
_space_group_symop_operation_xyz
x,y,z
-x,-y,z
x,-y,1/2-z
-x,y,1/2-z
-x,-y,-z
x,y,-z
-x,y,1/2+z
x,-y,1/2+z
1/2+x,1/2+y,z
1/2-x,1/2-y,z
1/2+x,1/2-y,1/2-z
1/2-x,1/2+y,1/2-z
1/2-x,1/2-y,-z
1/2+x,1/2+y,-z
1/2-x,1/2+y,1/2+z
1/2+x,1/2-y,1/2+z
loop_
_atom_site_type_symbol
_atom_site_label
_atom_site_fract_x
_atom_site_fract_y
_atom_site_fract_z
Si Si1 0.666872 0.144370 0.354711
Si Si2 0.806587 0.882055 0.000000
Si Si3 0.668871 0.954939 0.356122
Si Si4 0.000000 0.912991 0.750000
Si Si5 0.200827 0.443566 0.500000
Si Si6 0.250000 0.750000 0.710362
O O1 0.779566 0.144823 0.428507
O O2 0.450302 0.102242 0.359964
O O3 0.642417 0.203004 0.332817
O O4 0.818858 0.121196 0.293463
O O5 0.574825 0.921305 0.000000
O O6 0.078902 0.903559 0.000000
O O7 0.880940 0.947314 0.305644
O O8 0.735602 0.971467 0.430436
O O9 0.500000 0.000000 0.330496
O O10 0.500000 0.733917 0.750000
#
# Coordination Sequence:
#
# PCOD9498527 Si02
#       6
#    16   8  16   8   8   8
#     4  11  25  44  69 103 141 183 240 294 355 422
#     4  10  22  43  73 101 141 182 239 293 351 421
#     4  11  25  43  69 104 141 190 236 293 355 428
#     4  12  22  43  68  94 146 180 233 292 356 418
#     4  10  21  46  70 100 139 191 237 287 347 426
#     4  12  26  45  74 105 140 190 236 290 362 429
#
# _framework density 22.014851
#
# number of rings (size 3 to 8) (size 9 to 14) (size 15 to 20)
#    0.000    1.000    3.750    2.625    0.000    4.500 
#    0.000    2.500    0.000    4.500    0.000    0.875 
#    0.000    0.000    0.000    0.000    0.000    0.000 
#
# Total GULP energy -178439.032854 kJ/mol
# GULP energy per Si atom -5576.219777 kJ/mol
# Density = 2.196474 g / cm^3
# Si number density = 22.014851 Si / 1000 Ang^3
#
#
#
# Elastic Constant Matrix: (Units=GPa)
#
#
# Indices 1 2 3 4 5 6 
#
# 1 54.7679 26.5768 17.1209 0.0000 0.0000 0.0000
# 2 26.5768 112.7014 13.9576 0.0000 0.0000 0.0000
# 3 17.1209 13.9576 152.6001 0.0000 0.0000 0.0000
# 4 0.0000 0.0000 0.0000 88.2711 0.0000 0.0000
# 5 0.0000 0.0000 0.0000 0.0000 38.3693 0.0000
# 6 0.0000 0.0000 0.0000 0.0000 0.0000 22.7120
#
#
#
# Elastic Compliance Matrix: (Units=1/GPa)
#
#
# Indices 1 2 3 4 5 6 
#
# 1 0.021172 -0.004752 -0.001941 0.000000 0.000000 0.000000
# 2 -0.004752 0.010041 -0.000385 0.000000 0.000000 0.000000
# 3 -0.001941 -0.000385 0.006806 0.000000 0.000000 0.000000
# 4 0.000000 0.000000 0.000000 0.011329 0.000000 0.000000
# 5 0.000000 0.000000 0.000000 0.000000 0.026063 0.000000
# 6 0.000000 0.000000 0.000000 0.000000 0.000000 0.044030
#
#
# Mechanical properties :
#
#
# Convention : Reuss Voigt Hill
#
# Bulk Modulus (GPa) = 41.90650 48.37557 45.14103
# Shear Modulus (GPa) = 35.32306 47.36473 41.34390
#
# Velocity S-wave (km/s) = 4.00998 4.64345 4.33829
# Velocity P-wave (km/s) = 6.36528 7.12535 6.75601
#
# Compressibility (1/GPa) = 0.02386265
#
# Stress axis : x y z
#
# Youngs Moduli (GPa) = 47.23303 99.58789 146.92816
#
# Poissons Ratio (x) = 0.47327 0.28514
# Poissons Ratio (y) = 0.22446 0.05661
# Poissons Ratio (z) = 0.09166 0.03837
#
# Static dielectric constant tensor:
#      x y z
#    x 1.929340 0.000000 0.000000 
#    y 0.000000 1.838540 0.000000 
#    z 0.000000 0.000000 1.820710 
# 
# From -- ./inp_files/45729.got.cif
#   From: 2010.05.17/outbox.cif.g08.bks.cpg/sg66_23_cif.got.tgz:45729.got - 2010.06.03 17:51:23.
