data_PCOD9498032
_publ_section_title
;
Structure prediction by ZEFSAII (Michael W. Deem and Ramdas Pophale) SiO2 
 PCOD9498032
Probable space group: C C C M
;
_chemical_formula_sum "Si O2"
_cell_formula_units_Z 72
_cell_length_a 9.083302
_cell_length_b 12.125402
_cell_length_c 31.626402
_cell_angle_alpha 90.000000
_cell_angle_beta 90.000000
_cell_angle_gamma 90.000000
_cell_volume 3483.290430
_symmetry_space_group_name_H-M "C C C M"
_symmetry_group_IT_number 66
_symmetry_cell_setting 'orthorhombic'
loop_
_space_group_symop_operation_xyz
x,y,z
-x,-y,z
x,-y,1/2-z
-x,y,1/2-z
-x,-y,-z
x,y,-z
-x,y,1/2+z
x,-y,1/2+z
1/2+x,1/2+y,z
1/2-x,1/2-y,z
1/2+x,1/2-y,1/2-z
1/2-x,1/2+y,1/2-z
1/2-x,1/2-y,-z
1/2+x,1/2+y,-z
1/2-x,1/2+y,1/2+z
1/2+x,1/2-y,1/2+z
loop_
_atom_site_type_symbol
_atom_site_label
_atom_site_fract_x
_atom_site_fract_y
_atom_site_fract_z
Si Si1 0.023511 0.823190 0.385328
Si Si2 0.107304 0.331775 0.547234
Si Si3 0.251430 0.492163 0.395331
Si Si4 0.576326 0.764664 0.208048
Si Si5 0.000000 0.500000 0.174805
O O1 0.033254 0.789733 0.336531
O O2 0.995277 0.720938 0.416581
O O3 0.884026 0.904726 0.389440
O O4 0.169755 0.890193 0.397704
O O5 0.045122 0.334841 0.500000
O O6 0.250000 0.250000 0.545825
O O7 0.164731 0.449604 0.563600
O O8 0.141089 0.486733 0.355864
O O9 0.500000 0.718083 0.250000
O O10 0.750000 0.750000 0.212864
O O11 0.528373 0.891440 0.202061
#
# Coordination Sequence:
#
# PCOD9498032 Si02
#       5
#    16  16  16  16   8
#     4  10  21  41  63  89 128 169 212 261 327 381
#     4   9  18  34  62  94 126 168 216 265 319 383
#     4  10  21  37  64  91 125 169 208 264 318 386
#     4  12  27  44  66  95 126 167 213 268 324 394
#     4  12  23  42  65  90 124 164 213 260 323 380
#
# _framework density 20.670110999999999
#
# number of rings (size 3 to 8) (size 9 to 14) (size 15 to 20)
#    0.000    1.556    4.444    0.333    3.111    0.889 
#    0.000    7.222    0.000    2.000    0.000    0.000 
#    0.000    0.000    0.000    0.000    0.000    0.000 
#
# Total GULP energy -201233.405785 kJ/mol
# GULP energy per Si atom -5589.816827 kJ/mol
# Density = 2.062307 g / cm^3
# Si number density = 20.670111 Si / 1000 Ang^3
#
#
#
# Elastic Constant Matrix: (Units=GPa)
#
#
# Indices 1 2 3 4 5 6 
#
# 1 106.1195 24.1259 50.6040 0.0000 0.0000 0.0000
# 2 24.1259 77.2785 40.7381 0.0000 0.0000 0.0000
# 3 50.6040 40.7381 182.3115 0.0000 0.0000 0.0000
# 4 0.0000 0.0000 0.0000 -17.4260 0.0000 0.0000
# 5 0.0000 0.0000 0.0000 0.0000 35.0435 0.0000
# 6 0.0000 0.0000 0.0000 0.0000 0.0000 30.5511
#
#
#
# Elastic Compliance Matrix: (Units=1/GPa)
#
#
# Indices 1 2 3 4 5 6 
#
# 1 0.011153 -0.002097 -0.002627 0.000000 0.000000 0.000000
# 2 -0.002097 0.015062 -0.002784 0.000000 0.000000 0.000000
# 3 -0.002627 -0.002784 0.006836 0.000000 0.000000 0.000000
# 4 0.000000 0.000000 0.000000 -0.057386 0.000000 0.000000
# 5 0.000000 0.000000 0.000000 0.000000 0.028536 0.000000
# 6 0.000000 0.000000 0.000000 0.000000 0.000000 0.032732
#
#
# Mechanical properties :
#
#
# Convention : Reuss Voigt Hill
#
# Bulk Modulus (GPa) = 55.44461 66.29395 60.86928
# Shear Modulus (GPa) = 86.26438 26.31650 56.29044
#
# Velocity S-wave (km/s) = 6.46718 3.57202 5.22416
# Velocity P-wave (km/s) = 9.09108 7.01102 8.11795
#
# Compressibility (1/GPa) = 0.01803602
#
# Stress axis : x y z
#
# Youngs Moduli (GPa) = 89.66331 66.39091 146.27715
#
# Poissons Ratio (x) = 0.13922 0.38429
# Poissons Ratio (y) = 0.18802 0.40719
# Poissons Ratio (z) = 0.23555 0.18481
#
# Static dielectric constant tensor:
#      x y z
#    x 1.723110 0.000000 0.000000 
#    y 0.000000 1.759060 0.000000 
#    z 0.000000 0.000000 1.710420 
# 
# From -- ./inp_files/62191.got.cif
#   From: 2010.05.17/outbox.cif.g08.bks.cpg/sg66_32_cif.got.tgz:62191.got - 2010.06.03 17:51:23.
