data_PCOD9498585
_publ_section_title
;
Structure prediction by ZEFSAII (Michael W. Deem and Ramdas Pophale) SiO2 
 PCOD9498585
Probable space group: C C C M
;
_chemical_formula_sum "Si O2"
_cell_formula_units_Z 96
_cell_length_a 21.203684
_cell_length_b 14.331331
_cell_length_c 17.129778
_cell_angle_alpha 90.000000
_cell_angle_beta 90.000000
_cell_angle_gamma 90.000000
_cell_volume 5205.345786
_symmetry_space_group_name_H-M "C C C M"
_symmetry_group_IT_number 66
_symmetry_cell_setting 'orthorhombic'
loop_
_space_group_symop_operation_xyz
x,y,z
-x,-y,z
x,-y,1/2-z
-x,y,1/2-z
-x,-y,-z
x,y,-z
-x,y,1/2+z
x,-y,1/2+z
1/2+x,1/2+y,z
1/2-x,1/2-y,z
1/2+x,1/2-y,1/2-z
1/2-x,1/2+y,1/2-z
1/2-x,1/2-y,-z
1/2+x,1/2+y,-z
1/2-x,1/2+y,1/2+z
1/2+x,1/2-y,1/2+z
loop_
_atom_site_type_symbol
_atom_site_label
_atom_site_fract_x
_atom_site_fract_y
_atom_site_fract_z
Si Si1 0.820279 0.756451 0.804998
Si Si2 0.568178 0.034638 0.159165
Si Si3 0.558633 0.566876 0.593104
Si Si4 0.185812 0.570276 0.591549
Si Si5 0.560340 0.246440 0.807014
Si Si6 0.682486 0.468225 0.340507
O O1 0.750000 0.750000 0.768577
O O2 0.822843 0.668494 0.863046
O O3 0.876095 0.754461 0.743345
O O4 0.826652 0.856534 0.846238
O O5 0.565957 0.145741 0.153813
O O6 0.500000 0.000000 0.132724
O O7 0.575814 0.000000 0.250000
O O8 0.624902 0.990833 0.111215
O O9 0.500000 0.500000 0.616728
O O10 0.556382 0.578034 0.500000
O O11 0.553608 0.666049 0.635897
O O12 0.624744 0.519834 0.617934
O O13 0.192662 0.587258 0.500000
O O14 0.248246 0.517918 0.623315
O O15 0.500000 0.244468 0.750000
O O16 0.682896 0.500000 0.250000
#
# Coordination Sequence:
#
# PCOD9498585 Si02
#       6
#    16  16  16  16  16  16
#     4  10  22  37  62  94 118 164 212 261 299 369
#     4  11  21  40  65  91 119 162 211 261 305 372
#     4  11  26  43  63  95 133 165 205 263 319 370
#     4  11  24  40  62  94 131 165 204 264 325 369
#     4  12  22  39  67  92 122 164 215 255 306 375
#     4  11  22  40  66  93 123 169 218 253 303 377
#
# _framework density 18.442578000000001
#
# number of rings (size 3 to 8) (size 9 to 14) (size 15 to 20)
#    0.000    1.000    5.000    2.000    2.333    4.667 
#    0.000    4.167    0.000    2.500    0.000    0.000 
#    0.000    0.000    0.000    0.000    0.000    0.000 
#
# Total GULP energy -268161.597594 kJ/mol
# GULP energy per Si atom -5586.699950 kJ/mol
# Density = 1.840060 g / cm^3
# Si number density = 18.442578 Si / 1000 Ang^3
#
#
#
# Elastic Constant Matrix: (Units=GPa)
#
#
# Indices 1 2 3 4 5 6 
#
# 1 140.4992 56.7200 54.5918 0.0000 0.0000 0.0000
# 2 56.7200 140.1658 41.4825 0.0000 0.0000 0.0000
# 3 54.5918 41.4825 87.0412 0.0000 0.0000 0.0000
# 4 0.0000 0.0000 0.0000 16.3901 0.0000 0.0000
# 5 0.0000 0.0000 0.0000 0.0000 19.1286 0.0000
# 6 0.0000 0.0000 0.0000 0.0000 0.0000 23.6493
#
#
#
# Elastic Compliance Matrix: (Units=1/GPa)
#
#
# Indices 1 2 3 4 5 6 
#
# 1 0.010160 -0.002591 -0.005137 0.000000 0.000000 0.000000
# 2 -0.002591 0.008967 -0.002648 0.000000 0.000000 0.000000
# 3 -0.005137 -0.002648 0.015973 0.000000 0.000000 0.000000
# 4 0.000000 0.000000 0.000000 0.061012 0.000000 0.000000
# 5 0.000000 0.000000 0.000000 0.000000 0.052278 0.000000
# 6 0.000000 0.000000 0.000000 0.000000 0.000000 0.042285
#
#
# Mechanical properties :
#
#
# Convention : Reuss Voigt Hill
#
# Bulk Modulus (GPa) = 69.70461 74.81053 72.25757
# Shear Modulus (GPa) = 23.12577 26.16105 24.64341
#
# Velocity S-wave (km/s) = 3.54493 3.77040 3.65941
# Velocity P-wave (km/s) = 7.39141 7.72054 7.55776
#
# Compressibility (1/GPa) = 0.01434625
#
# Stress axis : x y z
#
# Youngs Moduli (GPa) = 98.43000 111.52482 62.60534
#
# Poissons Ratio (x) = 0.28894 0.32162
# Poissons Ratio (y) = 0.25501 0.16581
# Poissons Ratio (z) = 0.50566 0.29536
#
# Static dielectric constant tensor:
#      x y z
#    x 1.703100 0.000000 0.000000 
#    y 0.000000 1.551440 0.000000 
#    z 0.000000 0.000000 1.645630 
# 
# From -- ./inp_files/31215.got.cif
#   From: 2010.05.17/outbox.cif.g08.bks.cpg/sg66_16_cif.got.tgz:31215.got - 2010.06.03 17:51:23.
