data_PCOD9498335
_publ_section_title
;
Structure prediction by ZEFSAII (Michael W. Deem and Ramdas Pophale) SiO2 
 PCOD9498335
Probable space group: C C C M
;
_chemical_formula_sum "Si O2"
_cell_formula_units_Z 64
_cell_length_a 5.501060
_cell_length_b 19.773003
_cell_length_c 27.814285
_cell_angle_alpha 90.000000
_cell_angle_beta 90.000000
_cell_angle_gamma 90.000000
_cell_volume 3025.428644
_symmetry_space_group_name_H-M "C C C M"
_symmetry_group_IT_number 66
_symmetry_cell_setting 'orthorhombic'
loop_
_space_group_symop_operation_xyz
x,y,z
-x,-y,z
x,-y,1/2-z
-x,y,1/2-z
-x,-y,-z
x,y,-z
-x,y,1/2+z
x,-y,1/2+z
1/2+x,1/2+y,z
1/2-x,1/2-y,z
1/2+x,1/2-y,1/2-z
1/2-x,1/2+y,1/2-z
1/2-x,1/2-y,-z
1/2+x,1/2+y,-z
1/2-x,1/2+y,1/2+z
1/2+x,1/2-y,1/2+z
loop_
_atom_site_type_symbol
_atom_site_label
_atom_site_fract_x
_atom_site_fract_y
_atom_site_fract_z
Si Si1 0.082228 0.354234 0.349772
Si Si2 0.750000 0.750000 0.103888
Si Si3 0.250000 0.250000 0.279427
Si Si4 0.613072 0.647375 0.446376
Si Si5 0.000000 0.000000 0.081411
Si Si6 0.000000 0.500000 0.642663
O O1 0.259594 0.315194 0.314169
O O2 0.193461 0.357641 0.403463
O O3 0.016294 0.428196 0.331089
O O4 0.857718 0.305772 0.360138
O O5 0.564918 0.707845 0.070253
O O6 0.500000 0.245149 0.250000
O O7 0.708595 0.660466 0.500000
O O8 0.498765 0.571737 0.446121
O O9 0.750502 0.997142 0.112140
#
# Coordination Sequence:
#
# PCOD9498335 Si02
#       6
#    16   8   8  16   8   8
#     4  11  24  44  68  99 138 176 229 276 342 402
#     4  12  20  40  63  94 140 177 226 281 329 386
#     4  12  27  46  78 102 131 171 222 285 354 412
#     4  11  23  38  62  98 141 188 230 275 327 397
#     4  10  21  40  60  98 139 190 229 268 320 392
#     4  10  22  42  72  94 134 182 220 278 334 390
#
# _framework density 21.154026000000002
#
# number of rings (size 3 to 8) (size 9 to 14) (size 15 to 20)
#    0.000    1.000    5.000    1.500    0.000    3.000 
#    0.000    3.750    0.000    4.500    0.000    0.000 
#    0.000    0.000    0.000    0.000    0.000    0.000 
#
# Total GULP energy -178493.122235 kJ/mol
# GULP energy per Si atom -5577.910070 kJ/mol
# Density = 2.110588 g / cm^3
# Si number density = 21.154026 Si / 1000 Ang^3
#
#
#
# Elastic Constant Matrix: (Units=GPa)
#
#
# Indices 1 2 3 4 5 6 
#
# 1 76.9054 18.8223 15.8066 0.0000 0.0000 0.0000
# 2 18.8223 189.0120 19.8924 0.0000 0.0000 0.0000
# 3 15.8066 19.8924 61.5106 0.0000 0.0000 0.0000
# 4 0.0000 0.0000 0.0000 -32.9159 0.0000 0.0000
# 5 0.0000 0.0000 0.0000 0.0000 23.7727 0.0000
# 6 0.0000 0.0000 0.0000 0.0000 0.0000 40.7160
#
#
#
# Elastic Compliance Matrix: (Units=1/GPa)
#
#
# Indices 1 2 3 4 5 6 
#
# 1 0.013925 -0.001046 -0.003240 0.000000 0.000000 0.000000
# 2 -0.001046 0.005556 -0.001528 0.000000 0.000000 0.000000
# 3 -0.003240 -0.001528 0.017584 0.000000 0.000000 0.000000
# 4 0.000000 0.000000 0.000000 -0.030380 0.000000 0.000000
# 5 0.000000 0.000000 0.000000 0.000000 0.042065 0.000000
# 6 0.000000 0.000000 0.000000 0.000000 0.000000 0.024560
#
#
# Mechanical properties :
#
#
# Convention : Reuss Voigt Hill
#
# Bulk Modulus (GPa) = 39.31275 48.49672 43.90473
# Shear Modulus (GPa) = 53.52393 24.50835 39.01614
#
# Velocity S-wave (km/s) = 5.03557 3.40746 4.29929
# Velocity P-wave (km/s) = 7.24111 6.20132 6.74129
#
# Compressibility (1/GPa) = 0.02543704
#
# Stress axis : x y z
#
# Youngs Moduli (GPa) = 71.81400 179.99829 56.86946
#
# Poissons Ratio (x) = 0.18822 0.18427
# Poissons Ratio (y) = 0.07509 0.08689
# Poissons Ratio (z) = 0.23269 0.27503
#
# Static dielectric constant tensor:
#      x y z
#    x 1.772280 0.000000 0.000000 
#    y 0.000000 1.828720 0.000000 
#    z 0.000000 0.000000 1.768420 
# 
# From -- ./inp_files/61294.got.cif
#   From: 2010.05.17/outbox.cif.g08.bks.cpg/sg66_31_cif.got.tgz:61294.got - 2010.06.03 17:51:23.
