data_PCOD9498260
_publ_section_title
;
Structure prediction by ZEFSAII (Michael W. Deem and Ramdas Pophale) SiO2 
 PCOD9498260
Probable space group: C C C M
;
_chemical_formula_sum "Si O2"
_cell_formula_units_Z 56
_cell_length_a 5.297806
_cell_length_b 30.701193
_cell_length_c 17.002705
_cell_angle_alpha 90.000000
_cell_angle_beta 90.000000
_cell_angle_gamma 90.000000
_cell_volume 2765.472362
_symmetry_space_group_name_H-M "C C C M"
_symmetry_group_IT_number 66
_symmetry_cell_setting 'orthorhombic'
loop_
_space_group_symop_operation_xyz
x,y,z
-x,-y,z
x,-y,1/2-z
-x,y,1/2-z
-x,-y,-z
x,y,-z
-x,y,1/2+z
x,-y,1/2+z
1/2+x,1/2+y,z
1/2-x,1/2-y,z
1/2+x,1/2-y,1/2-z
1/2-x,1/2+y,1/2-z
1/2-x,1/2-y,-z
1/2+x,1/2+y,-z
1/2-x,1/2+y,1/2+z
1/2+x,1/2-y,1/2+z
loop_
_atom_site_type_symbol
_atom_site_label
_atom_site_fract_x
_atom_site_fract_y
_atom_site_fract_z
Si Si1 0.259999 0.891447 0.699394
Si Si2 0.248787 0.026124 0.094559
Si Si3 0.505083 0.720427 0.500000
Si Si4 0.640511 0.298762 0.333589
O O1 0.500000 0.905255 0.750000
O O2 0.237544 0.925700 0.629484
O O3 0.311833 0.841788 0.671167
O O4 0.000000 0.892037 0.750000
O O5 0.500000 0.000000 0.119391
O O6 0.249601 0.028137 0.000000
O O7 0.000000 0.000000 0.120400
O O8 0.750000 0.750000 0.500000
O O9 0.506398 0.695601 0.416405
O O10 0.250000 0.750000 0.500000
O O11 0.500000 0.298965 0.250000
O O12 0.750000 0.250000 0.337298
#
# Coordination Sequence:
#
# PCOD9498260 Si02
#       4
#    16  16   8  16
#     4  11  24  39  62  94 123 162 211 253 316 372
#     4  10  22  41  64  89 123 163 204 255 320 377
#     4  10  22  38  60  90 116 162 216 250 306 366
#     4  10  21  39  64  89 130 168 206 261 307 371
#
# _framework density 20.249704000000001
#
# number of rings (size 3 to 8) (size 9 to 14) (size 15 to 20)
#    0.000    1.714    0.000    3.429    2.000   10.286 
#    0.000    0.000    3.143    0.000    0.000    0.000 
#    0.000    0.000    0.000    0.000    0.000    0.000 
#
# Total GULP energy -156088.872473 kJ/mol
# GULP energy per Si atom -5574.602588 kJ/mol
# Density = 2.020361 g / cm^3
# Si number density = 20.249704 Si / 1000 Ang^3
#
#
#
# Elastic Constant Matrix: (Units=GPa)
#
#
# Indices 1 2 3 4 5 6 
#
# 1 112.7463 23.3172 18.8772 0.0000 0.0000 0.0000
# 2 23.3172 141.2756 21.3964 0.0000 0.0000 0.0000
# 3 18.8772 21.3964 112.6607 0.0000 0.0000 0.0000
# 4 0.0000 0.0000 0.0000 -210.5354 0.0000 0.0000
# 5 0.0000 0.0000 0.0000 0.0000 14.9149 0.0000
# 6 0.0000 0.0000 0.0000 0.0000 0.0000 5.9164
#
#
#
# Elastic Compliance Matrix: (Units=1/GPa)
#
#
# Indices 1 2 3 4 5 6 
#
# 1 0.009368 -0.001347 -0.001314 0.000000 0.000000 0.000000
# 2 -0.001347 0.007482 -0.001195 0.000000 0.000000 0.000000
# 3 -0.001314 -0.001195 0.009323 0.000000 0.000000 0.000000
# 4 0.000000 0.000000 0.000000 -0.004750 0.000000 0.000000
# 5 0.000000 0.000000 0.000000 0.000000 0.067047 0.000000
# 6 0.000000 0.000000 0.000000 0.000000 0.000000 0.169021
#
#
# Mechanical properties :
#
#
# Convention : Reuss Voigt Hill
#
# Bulk Modulus (GPa) = 54.16915 54.87381 54.52148
# Shear Modulus (GPa) = 18.42588 -17.73470 0.34559
#
# Velocity S-wave (km/s) = 3.01978 -2.96260 0.41356
# Velocity P-wave (km/s) = 6.24239 3.93125 5.21642
#
# Compressibility (1/GPa) = 0.01846069
#
# Stress axis : x y z
#
# Youngs Moduli (GPa) = 106.74570 133.65900 107.25764
#
# Poissons Ratio (x) = 0.18006 0.14092
# Poissons Ratio (y) = 0.14381 0.12819
# Poissons Ratio (z) = 0.14025 0.15975
#
# Static dielectric constant tensor:
#      x y z
#    x 1.875340 0.000000 0.000000 
#    y 0.000000 1.739740 0.000000 
#    z 0.000000 0.000000 1.778180 
# 
# From -- ./inp_files/22485.got.cif
#   From: 2010.05.17/outbox.cif.g08.bks.cpg/sg66_12_cif.got.tgz:22485.got - 2010.06.03 17:51:23.
