data_PCOD9498295
_publ_section_title
;
Structure prediction by ZEFSAII (Michael W. Deem and Ramdas Pophale) SiO2 
 PCOD9498295
Probable space group: C C C M
;
_chemical_formula_sum "Si O2"
_cell_formula_units_Z 56
_cell_length_a 8.450910
_cell_length_b 13.044604
_cell_length_c 20.486050
_cell_angle_alpha 90.000000
_cell_angle_beta 90.000000
_cell_angle_gamma 90.000000
_cell_volume 2258.357044
_symmetry_space_group_name_H-M "C C C M"
_symmetry_group_IT_number 66
_symmetry_cell_setting 'orthorhombic'
loop_
_space_group_symop_operation_xyz
x,y,z
-x,-y,z
x,-y,1/2-z
-x,y,1/2-z
-x,-y,-z
x,y,-z
-x,y,1/2+z
x,-y,1/2+z
1/2+x,1/2+y,z
1/2-x,1/2-y,z
1/2+x,1/2-y,1/2-z
1/2-x,1/2+y,1/2-z
1/2-x,1/2-y,-z
1/2+x,1/2+y,-z
1/2-x,1/2+y,1/2+z
1/2+x,1/2-y,1/2+z
loop_
_atom_site_type_symbol
_atom_site_label
_atom_site_fract_x
_atom_site_fract_y
_atom_site_fract_z
Si Si1 0.590286 0.623111 0.370156
Si Si2 0.213591 0.000000 0.250000
Si Si3 0.087321 0.656495 0.925864
Si Si4 0.767452 0.372937 0.630239
O O1 0.621539 0.578432 0.298254
O O2 0.750025 0.597673 0.410598
O O3 0.586302 0.746604 0.376803
O O4 0.410990 0.593194 0.390462
O O5 0.303480 0.927569 0.300954
O O6 0.916830 0.605842 0.915611
O O7 0.092634 0.694782 0.000000
O O8 0.750000 0.250000 0.637225
#
# Coordination Sequence:
#
# PCOD9498295 Si02
#       4
#    16   8  16  16
#     4  10  21  39  65  95 131 176 217 283 331 397
#     4  12  25  45  68 103 143 172 235 279 356 413
#     4  10  23  43  67  98 134 182 231 266 335 409
#     4  10  23  40  66  98 133 177 217 285 340 400
#
# _framework density 24.796787999999999
#
# number of rings (size 3 to 8) (size 9 to 14) (size 15 to 20)
#    0.000    1.714    0.000    4.286    4.000    9.714 
#    0.000    4.286    0.000   17.143    0.000    0.000 
#    0.000    0.000    0.000    0.000    0.000    0.000 
#
# Total GULP energy -156177.901217 kJ/mol
# GULP energy per Si atom -5577.782186 kJ/mol
# Density = 2.474035 g / cm^3
# Si number density = 24.796788 Si / 1000 Ang^3
#
#
#
# Elastic Constant Matrix: (Units=GPa)
#
#
# Indices 1 2 3 4 5 6 
#
# 1 216.5513 41.0354 54.8685 0.0000 0.0000 0.0000
# 2 41.0354 101.6021 38.2681 0.0000 0.0000 0.0000
# 3 54.8685 38.2681 100.2841 0.0000 0.0000 0.0000
# 4 0.0000 0.0000 0.0000 -37.4833 0.0000 0.0000
# 5 0.0000 0.0000 0.0000 0.0000 431.6065 0.0000
# 6 0.0000 0.0000 0.0000 0.0000 0.0000 51.7093
#
#
#
# Elastic Compliance Matrix: (Units=1/GPa)
#
#
# Indices 1 2 3 4 5 6 
#
# 1 0.005498 -0.001270 -0.002523 0.000000 0.000000 0.000000
# 2 -0.001270 0.011788 -0.003803 0.000000 0.000000 0.000000
# 3 -0.002523 -0.003803 0.012804 0.000000 0.000000 0.000000
# 4 0.000000 0.000000 0.000000 -0.026679 0.000000 0.000000
# 5 0.000000 0.000000 0.000000 0.000000 0.002317 0.000000
# 6 0.000000 0.000000 0.000000 0.000000 0.000000 0.019339
#
#
# Mechanical properties :
#
#
# Convention : Reuss Voigt Hill
#
# Bulk Modulus (GPa) = 67.13317 76.30904 71.72111
# Shear Modulus (GPa) = 110.55752 108.11751 109.33752
#
# Velocity S-wave (km/s) = 6.68448 6.61030 6.64749
# Velocity P-wave (km/s) = 9.31173 9.43939 9.37578
#
# Compressibility (1/GPa) = 0.01489577
#
# Stress axis : x y z
#
# Youngs Moduli (GPa) = 181.88820 84.83369 78.10290
#
# Poissons Ratio (x) = 0.10775 0.19709
# Poissons Ratio (y) = 0.23101 0.29705
# Poissons Ratio (z) = 0.45898 0.32265
#
# Static dielectric constant tensor:
#      x y z
#    x 2.075540 0.000000 0.000000 
#    y 0.000000 2.097670 0.000000 
#    z 0.000000 0.000000 1.851050 
# 
# From -- ./inp_files/46414.got.cif
#   From: 2010.05.17/outbox.cif.g08.bks.cpg/sg66_24_cif.got.tgz:46414.got - 2010.06.03 17:51:23.
