data_PCOD9498451
_publ_section_title
;
Structure prediction by ZEFSAII (Michael W. Deem and Ramdas Pophale) SiO2 
 PCOD9498451
Probable space group: C C C M
;
_chemical_formula_sum "Si O2"
_cell_formula_units_Z 68
_cell_length_a 23.124797
_cell_length_b 15.865796
_cell_length_c 9.045678
_cell_angle_alpha 90.000000
_cell_angle_beta 90.000000
_cell_angle_gamma 90.000000
_cell_volume 3318.798758
_symmetry_space_group_name_H-M "C C C M"
_symmetry_group_IT_number 66
_symmetry_cell_setting 'orthorhombic'
loop_
_space_group_symop_operation_xyz
x,y,z
-x,-y,z
x,-y,1/2-z
-x,y,1/2-z
-x,-y,-z
x,y,-z
-x,y,1/2+z
x,-y,1/2+z
1/2+x,1/2+y,z
1/2-x,1/2-y,z
1/2+x,1/2-y,1/2-z
1/2-x,1/2+y,1/2-z
1/2-x,1/2-y,-z
1/2+x,1/2+y,-z
1/2-x,1/2+y,1/2+z
1/2+x,1/2-y,1/2+z
loop_
_atom_site_type_symbol
_atom_site_label
_atom_site_fract_x
_atom_site_fract_y
_atom_site_fract_z
Si Si1 0.420130 0.347005 0.168159
Si Si2 0.666410 0.907036 0.821973
Si Si3 0.793375 0.909257 0.175315
Si Si4 0.000000 0.000000 0.750000
Si Si5 0.057749 0.318438 0.673962
O O1 0.352653 0.361162 0.204949
O O2 0.456021 0.434333 0.171563
O O3 0.441954 0.281005 0.288726
O O4 0.424676 0.312353 0.000000
O O5 0.730650 0.870867 0.786645
O O6 0.614662 0.855118 0.750923
O O7 0.664812 0.000000 0.750000
O O8 0.660043 0.911158 0.000000
O O9 0.797225 0.000000 0.250000
O O10 0.792249 0.922627 0.000000
O O11 0.057709 0.333781 0.500000
O O12 0.000000 0.354527 0.750000
#
# Coordination Sequence:
#
# PCOD9498451 Si02
#       5
#    16  16  16   4  16
#     4  11  23  39  61  93 130 168 209 252 304 362
#     4  10  21  41  67  93 124 161 205 255 311 369
#     4   9  19  36  60  90 124 164 207 254 304 362
#     4  12  22  36  68  94 132 168 212 240 302 356
#     4  12  26  43  63  90 124 161 206 258 313 370
#
# _framework density 20.489341
#
# number of rings (size 3 to 8) (size 9 to 14) (size 15 to 20)
#    0.000    1.412    2.353    3.176    0.000    4.235 
#    0.000    7.059    0.000    0.000    0.000    0.000 
#    0.000    0.000    0.000    0.000    0.000    0.000 
#
# Total GULP energy -189770.461178 kJ/mol
# GULP energy per Si atom -5581.484152 kJ/mol
# Density = 2.044271 g / cm^3
# Si number density = 20.489341 Si / 1000 Ang^3
#
#
#
# Elastic Constant Matrix: (Units=GPa)
#
#
# Indices 1 2 3 4 5 6 
#
# 1 181.5605 27.4976 67.4676 0.0000 0.0000 0.0000
# 2 27.4976 35.5139 16.4595 0.0000 0.0000 0.0000
# 3 67.4676 16.4595 94.3484 0.0000 0.0000 0.0000
# 4 0.0000 0.0000 0.0000 30.0107 0.0000 0.0000
# 5 0.0000 0.0000 0.0000 0.0000 33.3357 0.0000
# 6 0.0000 0.0000 0.0000 0.0000 0.0000 55.4427
#
#
#
# Elastic Compliance Matrix: (Units=1/GPa)
#
#
# Indices 1 2 3 4 5 6 
#
# 1 0.007953 -0.003832 -0.005019 0.000000 0.000000 0.000000
# 2 -0.003832 0.032481 -0.002926 0.000000 0.000000 0.000000
# 3 -0.005019 -0.002926 0.014698 0.000000 0.000000 0.000000
# 4 0.000000 0.000000 0.000000 0.033321 0.000000 0.000000
# 5 0.000000 0.000000 0.000000 0.000000 0.029998 0.000000
# 6 0.000000 0.000000 0.000000 0.000000 0.000000 0.018037
#
#
# Mechanical properties :
#
#
# Convention : Reuss Voigt Hill
#
# Bulk Modulus (GPa) = 31.66682 59.36357 45.51519
# Shear Modulus (GPa) = 29.31371 37.09102 33.20237
#
# Velocity S-wave (km/s) = 3.78654 4.25933 4.02987
# Velocity P-wave (km/s) = 5.88268 7.29555 6.62688
#
# Compressibility (1/GPa) = 0.03157879
#
# Stress axis : x y z
#
# Youngs Moduli (GPa) = 125.73733 30.78706 68.03495
#
# Poissons Ratio (x) = 0.11797 0.34145
# Poissons Ratio (y) = 0.48181 0.19909
# Poissons Ratio (z) = 0.63104 0.09009
#
# Static dielectric constant tensor:
#      x y z
#    x 1.799890 0.000000 0.000000 
#    y 0.000000 1.730000 0.000000 
#    z 0.000000 0.000000 1.697180 
# 
# From -- ./inp_files/6269.got.cif
#   From: 2010.05.17/outbox.cif.g08.bks.cpg/sg66_4_cif.got.tgz:6269.got - 2010.06.03 17:51:23.
