data_PCOD9498198
_publ_section_title
;
Structure prediction by ZEFSAII (Michael W. Deem and Ramdas Pophale) SiO2 
 PCOD9498198
Probable space group: C C C M
;
_chemical_formula_sum "Si O2"
_cell_formula_units_Z 72
_cell_length_a 16.626261
_cell_length_b 8.114669
_cell_length_c 26.838847
_cell_angle_alpha 90.000000
_cell_angle_beta 90.000000
_cell_angle_gamma 90.000000
_cell_volume 3621.006112
_symmetry_space_group_name_H-M "C C C M"
_symmetry_group_IT_number 66
_symmetry_cell_setting 'orthorhombic'
loop_
_space_group_symop_operation_xyz
x,y,z
-x,-y,z
x,-y,1/2-z
-x,y,1/2-z
-x,-y,-z
x,y,-z
-x,y,1/2+z
x,-y,1/2+z
1/2+x,1/2+y,z
1/2-x,1/2-y,z
1/2+x,1/2-y,1/2-z
1/2-x,1/2+y,1/2-z
1/2-x,1/2-y,-z
1/2+x,1/2+y,-z
1/2-x,1/2+y,1/2+z
1/2+x,1/2-y,1/2+z
loop_
_atom_site_type_symbol
_atom_site_label
_atom_site_fract_x
_atom_site_fract_y
_atom_site_fract_z
Si Si1 0.097571 0.821245 0.822658
Si Si2 0.338708 0.176933 0.226582
Si Si3 0.919876 0.817877 0.857954
Si Si4 0.250000 0.250000 0.387252
Si Si5 0.805071 0.087120 0.441377
O O1 0.102513 0.770130 0.765293
O O2 0.171964 0.739785 0.851757
O O3 0.013768 0.785142 0.850530
O O4 0.104567 0.018390 0.826853
O O5 0.250000 0.250000 0.226221
O O6 0.372539 0.175640 0.170745
O O7 0.332190 0.000000 0.250000
O O8 0.886898 0.864559 0.912097
O O9 0.266181 0.418824 0.418624
O O10 0.818059 0.062147 0.500000
O O11 0.750000 0.250000 0.434545
#
# Coordination Sequence:
#
# PCOD9498198 Si02
#       5
#    16  16  16   8  16
#     4  10  21  39  59  89 121 163 201 244 317 373
#     4  12  24  36  58  90 122 162 202 247 306 377
#     4  10  22  39  61  86 124 161 199 259 304 373
#     4  10  21  40  64  90 124 160 207 262 308 374
#     4  10  22  41  65  91 120 164 211 258 314 366
#
# _framework density 19.883977000000002
#
# number of rings (size 3 to 8) (size 9 to 14) (size 15 to 20)
#    0.000    1.556    1.111    3.667    6.222    3.556 
#    0.000   10.000    0.000    2.667    0.000    0.000 
#    0.000    0.000    0.000    0.000    0.000    0.000 
#
# Total GULP energy -200945.140368 kJ/mol
# GULP energy per Si atom -5581.809455 kJ/mol
# Density = 1.983872 g / cm^3
# Si number density = 19.883977 Si / 1000 Ang^3
#
#
#
# Elastic Constant Matrix: (Units=GPa)
#
#
# Indices 1 2 3 4 5 6 
#
# 1 133.4439 34.8841 58.4642 0.0000 0.0000 0.0000
# 2 34.8841 69.3395 32.9197 0.0000 0.0000 0.0000
# 3 58.4642 32.9197 122.3073 0.0000 0.0000 0.0000
# 4 0.0000 0.0000 0.0000 35.2699 0.0000 0.0000
# 5 0.0000 0.0000 0.0000 0.0000 17.3367 0.0000
# 6 0.0000 0.0000 0.0000 0.0000 0.0000 21.1628
#
#
#
# Elastic Compliance Matrix: (Units=1/GPa)
#
#
# Indices 1 2 3 4 5 6 
#
# 1 0.010057 -0.003184 -0.003950 0.000000 0.000000 0.000000
# 2 -0.003184 0.017543 -0.003200 0.000000 0.000000 0.000000
# 3 -0.003950 -0.003200 0.010926 0.000000 0.000000 0.000000
# 4 0.000000 0.000000 0.000000 0.028353 0.000000 0.000000
# 5 0.000000 0.000000 0.000000 0.000000 0.057681 0.000000
# 6 0.000000 0.000000 0.000000 0.000000 0.000000 0.047253
#
#
# Mechanical properties :
#
#
# Convention : Reuss Voigt Hill
#
# Bulk Modulus (GPa) = 56.00008 64.18074 60.09041
# Shear Modulus (GPa) = 25.19750 28.00872 26.60311
#
# Velocity S-wave (km/s) = 3.56367 3.75721 3.66172
# Velocity P-wave (km/s) = 6.71994 7.15331 6.94001
#
# Compressibility (1/GPa) = 0.01785712
#
# Stress axis : x y z
#
# Youngs Moduli (GPa) = 99.43490 57.00356 91.52798
#
# Poissons Ratio (x) = 0.18150 0.36156
# Poissons Ratio (y) = 0.31661 0.29286
# Poissons Ratio (z) = 0.39279 0.18239
#
# Static dielectric constant tensor:
#      x y z
#    x 1.698470 0.000000 0.000000 
#    y 0.000000 1.760260 0.000000 
#    z 0.000000 0.000000 1.693700 
# 
# From -- ./inp_files/62205.got.cif
#   From: 2010.05.17/outbox.cif.g08.bks.cpg/sg66_32_cif.got.tgz:62205.got - 2010.06.03 17:51:23.
