data_PCOD9498892
_publ_section_title
;
Structure prediction by ZEFSAII (Michael W. Deem and Ramdas Pophale) SiO2 
 PCOD9498892
Probable space group: C C C M
;
_chemical_formula_sum "Si O2"
_cell_formula_units_Z 52
_cell_length_a 10.660557
_cell_length_b 9.617624
_cell_length_c 26.097804
_cell_angle_alpha 90.000000
_cell_angle_beta 90.000000
_cell_angle_gamma 90.000000
_cell_volume 2675.787719
_symmetry_space_group_name_H-M "C C C M"
_symmetry_group_IT_number 66
_symmetry_cell_setting 'orthorhombic'
loop_
_space_group_symop_operation_xyz
x,y,z
-x,-y,z
x,-y,1/2-z
-x,y,1/2-z
-x,-y,-z
x,y,-z
-x,y,1/2+z
x,-y,1/2+z
1/2+x,1/2+y,z
1/2-x,1/2-y,z
1/2+x,1/2-y,1/2-z
1/2-x,1/2+y,1/2-z
1/2-x,1/2-y,-z
1/2+x,1/2+y,-z
1/2-x,1/2+y,1/2+z
1/2+x,1/2-y,1/2+z
loop_
_atom_site_type_symbol
_atom_site_label
_atom_site_fract_x
_atom_site_fract_y
_atom_site_fract_z
Si Si1 0.115941 0.765655 0.218429
Si Si2 0.619905 0.091053 0.061126
Si Si3 0.000000 0.500000 0.250000
Si Si4 0.883726 0.895640 0.606991
O O1 0.250000 0.750000 0.245876
O O2 0.075323 0.604453 0.213460
O O3 0.129969 0.847120 0.165903
O O4 0.000000 0.827962 0.250000
O O5 0.750030 0.046359 0.087891
O O6 0.596812 0.251979 0.075937
O O7 0.500000 0.000000 0.076400
O O8 0.636029 0.080183 0.000000
O O9 0.000000 0.000000 0.601093
#
# Coordination Sequence:
#
# PCOD9498892 Si02
#       4
#    16  16   4  16
#     4  10  22  43  63  90 124 170 211 261 313 373
#     4  10  23  44  68  93 130 171 212 264 323 384
#     4   8  24  40  60  84 126 164 212 264 300 376
#     4  11  23  40  65  97 131 164 212 267 318 378
#
# _framework density 19.433529
#
# number of rings (size 3 to 8) (size 9 to 14) (size 15 to 20)
#    0.923    0.923    3.077    1.846    2.154    6.769 
#    5.538    3.077    0.000    0.000    0.000    0.000 
#    0.000    0.000    0.000    0.000    0.000    0.000 
#
# Total GULP energy -144861.277301 kJ/mol
# GULP energy per Si atom -5571.587588 kJ/mol
# Density = 1.938930 g / cm^3
# Si number density = 19.433529 Si / 1000 Ang^3
#
#
#
# Elastic Constant Matrix: (Units=GPa)
#
#
# Indices 1 2 3 4 5 6 
#
# 1 217.3962 69.7096 66.4980 0.0000 0.0000 0.0000
# 2 69.7096 61.7366 8.4363 0.0000 0.0000 0.0000
# 3 66.4980 8.4363 86.7655 0.0000 0.0000 0.0000
# 4 0.0000 0.0000 0.0000 3.0408 0.0000 0.0000
# 5 0.0000 0.0000 0.0000 0.0000 38.2813 0.0000
# 6 0.0000 0.0000 0.0000 0.0000 0.0000 30.0122
#
#
#
# Elastic Compliance Matrix: (Units=1/GPa)
#
#
# Indices 1 2 3 4 5 6 
#
# 1 0.009923 -0.010303 -0.006604 0.000000 0.000000 0.000000
# 2 -0.010303 0.027112 0.005260 0.000000 0.000000 0.000000
# 3 -0.006604 0.005260 0.016075 0.000000 0.000000 0.000000
# 4 0.000000 0.000000 0.000000 0.328857 0.000000 0.000000
# 5 0.000000 0.000000 0.000000 0.000000 0.026122 0.000000
# 6 0.000000 0.000000 0.000000 0.000000 0.000000 0.033320
#
#
# Mechanical properties :
#
#
# Convention : Reuss Voigt Hill
#
# Bulk Modulus (GPa) = 33.53692 72.79845 53.16768
# Shear Modulus (GPa) = 10.53425 29.01717 19.77571
#
# Velocity S-wave (km/s) = 2.33076 3.86832 3.19346
# Velocity P-wave (km/s) = 4.95358 7.58244 6.40435
#
# Compressibility (1/GPa) = 0.02981789
#
# Stress axis : x y z
#
# Youngs Moduli (GPa) = 100.77102 36.88369 62.20811
#
# Poissons Ratio (x) = 0.38000 0.41081
# Poissons Ratio (y) = 1.03821 -0.32721
# Poissons Ratio (z) = 0.66547 -0.19401
#
# Static dielectric constant tensor:
#      x y z
#    x 1.852200 0.000000 0.000000 
#    y 0.000000 1.682500 0.000000 
#    z 0.000000 0.000000 1.687400 
# 
# From -- ./inp_files/63175.got.cif
#   From: 2010.05.17/outbox.cif.g08.bks.cpg/sg66_32_cif.got.tgz:63175.got - 2010.06.03 17:51:23.
