data_PCOD9498659
_publ_section_title
;
Structure prediction by ZEFSAII (Michael W. Deem and Ramdas Pophale) SiO2 
 PCOD9498659
Probable space group: C C C M
;
_chemical_formula_sum "Si O2"
_cell_formula_units_Z 112
_cell_length_a 23.340898
_cell_length_b 16.496303
_cell_length_c 15.011012
_cell_angle_alpha 90.000000
_cell_angle_beta 90.000000
_cell_angle_gamma 90.000000
_cell_volume 5779.817930
_symmetry_space_group_name_H-M "C C C M"
_symmetry_group_IT_number 66
_symmetry_cell_setting 'orthorhombic'
loop_
_space_group_symop_operation_xyz
x,y,z
-x,-y,z
x,-y,1/2-z
-x,y,1/2-z
-x,-y,-z
x,y,-z
-x,y,1/2+z
x,-y,1/2+z
1/2+x,1/2+y,z
1/2-x,1/2-y,z
1/2+x,1/2-y,1/2-z
1/2-x,1/2+y,1/2-z
1/2-x,1/2-y,-z
1/2+x,1/2+y,-z
1/2-x,1/2+y,1/2+z
1/2+x,1/2-y,1/2+z
loop_
_atom_site_type_symbol
_atom_site_label
_atom_site_fract_x
_atom_site_fract_y
_atom_site_fract_z
Si Si1 0.315561 0.906632 0.269364
Si Si2 0.709050 0.628359 0.897060
Si Si3 0.870970 0.718910 0.894182
Si Si4 0.898460 0.832636 0.595784
Si Si5 0.521655 0.332481 0.648372
Si Si6 0.400375 0.518547 0.645316
Si Si7 0.688485 0.792787 0.396822
O O1 0.256966 0.895214 0.325970
O O2 0.360707 0.857893 0.331137
O O3 0.309630 0.865333 0.173054
O O4 0.328543 0.000000 0.250000
O O5 0.681918 0.717624 0.882485
O O6 0.656179 0.566180 0.884741
O O7 0.729519 0.624289 0.000000
O O8 0.927526 0.769133 0.866444
O O9 0.874092 0.700011 0.000000
O O10 0.870891 0.823401 0.500000
O O11 0.857402 0.771297 0.647318
O O12 0.964248 0.806756 0.598454
O O13 0.900773 0.928018 0.609852
O O14 0.500000 0.338712 0.750000
O O15 0.547404 0.420644 0.622569
O O16 0.400863 0.500000 0.750000
O O17 0.676200 0.819849 0.500000
O O18 0.750000 0.750000 0.397890
#
# Coordination Sequence:
#
# PCOD9498659 Si02
#       7
#    16  16  16  16  16  16  16
#     4  12  25  39  63  90 117 159 208 267 323 369
#     4  10  22  39  61  90 127 168 209 249 301 370
#     4  10  22  41  63  89 124 165 212 260 309 367
#     4  11  23  38  60  87 123 164 205 248 301 368
#     4  11  21  36  60  91 126 166 208 249 302 362
#     4  11  22  34  56  93 132 171 200 239 295 364
#     4  10  24  43  62  87 121 163 207 254 309 373
#
# _framework density 19.377773999999999
#
# number of rings (size 3 to 8) (size 9 to 14) (size 15 to 20)
#    0.000    1.286    1.429    4.286    6.000    4.571 
#    0.000    0.000    0.000    3.857    0.000    6.000 
#    0.000    0.000    0.000    0.000    0.000    0.000 
#
# Total GULP energy -312463.580487 kJ/mol
# GULP energy per Si atom -5579.706794 kJ/mol
# Density = 1.933367 g / cm^3
# Si number density = 19.377774 Si / 1000 Ang^3
#
#
#
# Elastic Constant Matrix: (Units=GPa)
#
#
# Indices 1 2 3 4 5 6 
#
# 1 98.3560 53.4888 18.7030 0.0000 0.0000 0.0000
# 2 53.4888 136.3229 52.6829 0.0000 0.0000 0.0000
# 3 18.7030 52.6829 85.7776 0.0000 0.0000 0.0000
# 4 0.0000 0.0000 0.0000 -24.4023 0.0000 0.0000
# 5 0.0000 0.0000 0.0000 0.0000 99.4903 0.0000
# 6 0.0000 0.0000 0.0000 0.0000 0.0000 12.2163
#
#
#
# Elastic Compliance Matrix: (Units=1/GPa)
#
#
# Indices 1 2 3 4 5 6 
#
# 1 0.012935 -0.005226 0.000389 0.000000 0.000000 0.000000
# 2 -0.005226 0.011730 -0.006065 0.000000 0.000000 0.000000
# 3 0.000389 -0.006065 0.015298 0.000000 0.000000 0.000000
# 4 0.000000 0.000000 0.000000 -0.040980 0.000000 0.000000
# 5 0.000000 0.000000 0.000000 0.000000 0.010051 0.000000
# 6 0.000000 0.000000 0.000000 0.000000 0.000000 0.081858
#
#
# Mechanical properties :
#
#
# Convention : Reuss Voigt Hill
#
# Bulk Modulus (GPa) = 55.06538 63.35621 59.21080
# Shear Modulus (GPa) = 42.10596 30.49963 36.30279
#
# Velocity S-wave (km/s) = 4.66649 3.97161 4.33300
# Velocity P-wave (km/s) = 7.58376 7.33470 7.46027
#
# Compressibility (1/GPa) = 0.01816023
#
# Stress axis : x y z
#
# Youngs Moduli (GPa) = 77.30947 85.25384 65.36780
#
# Poissons Ratio (x) = 0.44551 -0.02544
# Poissons Ratio (y) = 0.40400 0.39644
# Poissons Ratio (z) = -0.03009 0.51704
#
# Static dielectric constant tensor:
#      x y z
#    x 1.690810 0.000000 0.000000 
#    y 0.000000 1.789360 0.000000 
#    z 0.000000 0.000000 1.747040 
# 
# From -- ./inp_files/32504.got.cif
#   From: 2010.05.17/outbox.cif.g08.bks.cpg/sg66_17_cif.got.tgz:32504.got - 2010.06.03 17:51:23.
