data_PCOD9498425
_publ_section_title
;
Structure prediction by ZEFSAII (Michael W. Deem and Ramdas Pophale) SiO2 
 PCOD9498425
Probable space group: C C C M
;
_chemical_formula_sum "Si O2"
_cell_formula_units_Z 80
_cell_length_a 27.653069
_cell_length_b 9.964618
_cell_length_c 15.834052
_cell_angle_alpha 90.000000
_cell_angle_beta 90.000000
_cell_angle_gamma 90.000000
_cell_volume 4363.108958
_symmetry_space_group_name_H-M "C C C M"
_symmetry_group_IT_number 66
_symmetry_cell_setting 'orthorhombic'
loop_
_space_group_symop_operation_xyz
x,y,z
-x,-y,z
x,-y,1/2-z
-x,y,1/2-z
-x,-y,-z
x,y,-z
-x,y,1/2+z
x,-y,1/2+z
1/2+x,1/2+y,z
1/2-x,1/2-y,z
1/2+x,1/2-y,1/2-z
1/2-x,1/2+y,1/2-z
1/2-x,1/2-y,-z
1/2+x,1/2+y,-z
1/2-x,1/2+y,1/2+z
1/2+x,1/2-y,1/2+z
loop_
_atom_site_type_symbol
_atom_site_label
_atom_site_fract_x
_atom_site_fract_y
_atom_site_fract_z
Si Si1 0.700239 0.666404 0.000000
Si Si2 0.561566 0.114797 0.904359
Si Si3 0.466028 0.166358 0.834090
Si Si4 0.872368 0.149474 0.654205
Si Si5 0.205564 0.849009 0.000000
Si Si6 0.635201 0.337932 0.844377
O O1 0.750000 0.750000 0.000000
O O2 0.665276 0.690287 0.081121
O O3 0.714906 0.508823 0.000000
O O4 0.507181 0.172523 0.905315
O O5 0.595400 0.225548 0.862590
O O6 0.558214 0.979524 0.848938
O O7 0.577318 0.084657 0.000000
O O8 0.500000 0.177647 0.750000
O O9 0.423228 0.272294 0.843318
O O10 0.849169 0.171333 0.746886
O O11 0.883123 0.990820 0.643919
O O12 0.250000 0.750000 0.000000
O O13 0.175481 0.819959 0.915252
#
# Coordination Sequence:
#
# PCOD9498425 Si02
#       6
#     8  16  16  16   8  16
#     4  10  24  44  65  92 121 157 208 265 321 374
#     4  11  22  36  56  86 128 165 212 248 303 361
#     4  11  22  37  55  89 126 170 206 252 300 363
#     4  10  23  40  63  88 126 162 205 257 308 371
#     4  10  22  42  65  90 119 153 204 263 317 378
#     4  10  21  41  61  90 122 164 203 255 309 374
#
# _framework density 18.335550000000001
#
# number of rings (size 3 to 8) (size 9 to 14) (size 15 to 20)
#    0.000    1.600    3.000    2.400    2.800    3.200 
#    0.000    1.000    0.000    0.000    0.000    0.000 
#    0.000    0.000    0.000    0.000    0.000    0.000 
#
# Total GULP energy -222944.131085 kJ/mol
# GULP energy per Si atom -5573.603277 kJ/mol
# Density = 1.829382 g / cm^3
# Si number density = 18.335550 Si / 1000 Ang^3
#
#
#
# Elastic Constant Matrix: (Units=GPa)
#
#
# Indices 1 2 3 4 5 6 
#
# 1 123.6849 101.5828 72.6215 0.0000 0.0000 0.0000
# 2 101.5828 104.8814 72.0924 0.0000 0.0000 0.0000
# 3 72.6215 72.0924 149.9363 0.0000 0.0000 0.0000
# 4 0.0000 0.0000 0.0000 20.1146 0.0000 0.0000
# 5 0.0000 0.0000 0.0000 0.0000 17.7124 0.0000
# 6 0.0000 0.0000 0.0000 0.0000 0.0000 43.6346
#
#
#
# Elastic Compliance Matrix: (Units=1/GPa)
#
#
# Indices 1 2 3 4 5 6 
#
# 1 0.039652 -0.037646 -0.001105 0.000000 0.000000 0.000000
# 2 -0.037646 0.049983 -0.005799 0.000000 0.000000 0.000000
# 3 -0.001105 -0.005799 0.009993 0.000000 0.000000 0.000000
# 4 0.000000 0.000000 0.000000 0.049715 0.000000 0.000000
# 5 0.000000 0.000000 0.000000 0.000000 0.056458 0.000000
# 6 0.000000 0.000000 0.000000 0.000000 0.000000 0.022918
#
#
# Mechanical properties :
#
#
# Convention : Reuss Voigt Hill
#
# Bulk Modulus (GPa) = 94.97815 96.78845 95.88330
# Shear Modulus (GPa) = 15.56049 25.10604 20.33327
#
# Velocity S-wave (km/s) = 2.91632 3.70436 3.33371
# Velocity P-wave (km/s) = 7.95314 8.43791 8.19911
#
# Compressibility (1/GPa) = 0.01052874
#
# Stress axis : x y z
#
# Youngs Moduli (GPa) = 25.21911 20.00700 100.07298
#
# Poissons Ratio (x) = 0.75318 0.11055
# Poissons Ratio (y) = 0.94940 0.58030
# Poissons Ratio (z) = 0.02786 0.11602
#
# Static dielectric constant tensor:
#      x y z
#    x 1.601110 0.000000 0.000000 
#    y 0.000000 1.639330 0.000000 
#    z 0.000000 0.000000 1.709930 
# 
# From -- ./inp_files/33138.got.cif
#   From: 2010.05.17/outbox.cif.g08.bks.cpg/sg66_17_cif.got.tgz:33138.got - 2010.06.03 17:51:23.
