data_PCOD9498825
_publ_section_title
;
Structure prediction by ZEFSAII (Michael W. Deem and Ramdas Pophale) SiO2 
 PCOD9498825
Probable space group: C C C M
;
_chemical_formula_sum "Si O2"
_cell_formula_units_Z 96
_cell_length_a 26.181169
_cell_length_b 9.524931
_cell_length_c 19.686406
_cell_angle_alpha 90.000000
_cell_angle_beta 90.000000
_cell_angle_gamma 90.000000
_cell_volume 4909.274428
_symmetry_space_group_name_H-M "C C C M"
_symmetry_group_IT_number 66
_symmetry_cell_setting 'orthorhombic'
loop_
_space_group_symop_operation_xyz
x,y,z
-x,-y,z
x,-y,1/2-z
-x,y,1/2-z
-x,-y,-z
x,y,-z
-x,y,1/2+z
x,-y,1/2+z
1/2+x,1/2+y,z
1/2-x,1/2-y,z
1/2+x,1/2-y,1/2-z
1/2-x,1/2+y,1/2-z
1/2-x,1/2-y,-z
1/2+x,1/2+y,-z
1/2-x,1/2+y,1/2+z
1/2+x,1/2-y,1/2+z
loop_
_atom_site_type_symbol
_atom_site_label
_atom_site_fract_x
_atom_site_fract_y
_atom_site_fract_z
Si Si1 0.310149 0.779437 0.577073
Si Si2 0.983483 0.346219 0.327843
Si Si3 0.866539 0.361536 0.297050
Si Si4 0.961819 0.130705 0.075644
Si Si5 0.200940 0.849958 0.786264
Si Si6 0.154321 0.960476 0.921526
O O1 0.319784 0.831054 0.500000
O O2 0.250000 0.750000 0.583817
O O3 0.329476 0.877012 0.637847
O O4 0.337326 0.627930 0.585115
O O5 0.922518 0.330891 0.327158
O O6 0.000000 0.500000 0.351949
O O7 0.000000 0.333769 0.250000
O O8 0.015020 0.236303 0.370843
O O9 0.868747 0.500000 0.250000
O O10 0.844561 0.233646 0.251959
O O11 0.904713 0.078620 0.090357
O O12 0.961305 0.194524 0.000000
O O13 0.000000 0.000000 0.074482
O O14 0.250000 0.750000 0.780560
O O15 0.186921 0.882511 0.864216
O O16 0.209489 0.000000 0.750000
O O17 0.167540 0.924883 0.000000
#
# Coordination Sequence:
#
# PCOD9498825 Si02
#       6
#    16  16  16  16  16  16
#     4  10  22  42  67  96 133 178 225 275 336 402
#     4  11  23  43  61  92 135 173 213 269 330 386
#     4  12  24  41  68  95 133 174 224 276 328 396
#     4  10  22  41  67  97 130 171 220 276 327 389
#     4  12  26  43  67 100 133 176 222 275 337 395
#     4  10  22  42  66  97 135 174 225 277 330 399
#
# _framework density 19.554825000000001
#
# number of rings (size 3 to 8) (size 9 to 14) (size 15 to 20)
#    0.000    1.167    3.333    3.000    2.333    3.000 
#    0.000    0.833    0.000    0.000    0.000    0.000 
#    0.000    0.000    0.000    0.000    0.000    0.000 
#
# Total GULP energy -268277.876396 kJ/mol
# GULP energy per Si atom -5589.122425 kJ/mol
# Density = 1.951032 g / cm^3
# Si number density = 19.554825 Si / 1000 Ang^3
#
#
#
# Elastic Constant Matrix: (Units=GPa)
#
#
# Indices 1 2 3 4 5 6 
#
# 1 105.5423 45.0955 42.9298 0.0000 0.0000 0.0000
# 2 45.0955 94.1422 42.5844 0.0000 0.0000 0.0000
# 3 42.9298 42.5844 93.4848 0.0000 0.0000 0.0000
# 4 0.0000 0.0000 0.0000 18.5738 0.0000 0.0000
# 5 0.0000 0.0000 0.0000 0.0000 35.1929 0.0000
# 6 0.0000 0.0000 0.0000 0.0000 0.0000 28.2428
#
#
#
# Elastic Compliance Matrix: (Units=1/GPa)
#
#
# Indices 1 2 3 4 5 6 
#
# 1 0.012970 -0.004432 -0.003937 0.000000 0.000000 0.000000
# 2 -0.004432 0.014893 -0.004749 0.000000 0.000000 0.000000
# 3 -0.003937 -0.004749 0.014668 0.000000 0.000000 0.000000
# 4 0.000000 0.000000 0.000000 0.053839 0.000000 0.000000
# 5 0.000000 0.000000 0.000000 0.000000 0.028415 0.000000
# 6 0.000000 0.000000 0.000000 0.000000 0.000000 0.035407
#
#
# Mechanical properties :
#
#
# Convention : Reuss Voigt Hill
#
# Bulk Modulus (GPa) = 61.36736 61.59876 61.48306
# Shear Modulus (GPa) = 26.06054 27.23920 26.64987
#
# Velocity S-wave (km/s) = 3.65456 3.73629 3.69566
# Velocity P-wave (km/s) = 7.01841 7.08393 7.05125
#
# Compressibility (1/GPa) = 0.01629531
#
# Stress axis : x y z
#
# Youngs Moduli (GPa) = 77.10120 67.14408 68.17432
#
# Poissons Ratio (x) = 0.29757 0.26842
# Poissons Ratio (y) = 0.34170 0.32377
# Poissons Ratio (z) = 0.30357 0.31887
#
# Static dielectric constant tensor:
#      x y z
#    x 1.670320 0.000000 0.000000 
#    y 0.000000 1.649320 0.000000 
#    z 0.000000 0.000000 1.670520 
# 
# From -- ./inp_files/52994.got.cif
#   From: 2010.05.17/outbox.cif.g08.bks.cpg/sg66_27_cif.got.tgz:52994.got - 2010.06.03 17:51:23.
