data_PCOD9498494
_publ_section_title
;
Structure prediction by ZEFSAII (Michael W. Deem and Ramdas Pophale) SiO2 
 PCOD9498494
Probable space group: C C C M
;
_chemical_formula_sum "Si O2"
_cell_formula_units_Z 112
_cell_length_a 12.287365
_cell_length_b 28.431868
_cell_length_c 14.150496
_cell_angle_alpha 90.000000
_cell_angle_beta 90.000000
_cell_angle_gamma 90.000000
_cell_volume 4943.514546
_symmetry_space_group_name_H-M "C C C M"
_symmetry_group_IT_number 66
_symmetry_cell_setting 'orthorhombic'
loop_
_space_group_symop_operation_xyz
x,y,z
-x,-y,z
x,-y,1/2-z
-x,y,1/2-z
-x,-y,-z
x,y,-z
-x,y,1/2+z
x,-y,1/2+z
1/2+x,1/2+y,z
1/2-x,1/2-y,z
1/2+x,1/2-y,1/2-z
1/2-x,1/2+y,1/2-z
1/2-x,1/2-y,-z
1/2+x,1/2+y,-z
1/2-x,1/2+y,1/2+z
1/2+x,1/2-y,1/2+z
loop_
_atom_site_type_symbol
_atom_site_label
_atom_site_fract_x
_atom_site_fract_y
_atom_site_fract_z
Si Si1 0.436260 0.952568 0.113853
Si Si2 0.063336 0.876003 0.113230
Si Si3 0.030974 0.652642 0.115197
Si Si4 0.827909 0.709587 0.891036
Si Si5 0.810340 0.885386 0.893033
Si Si6 0.240707 0.196064 0.614603
Si Si7 0.791614 0.949203 0.720514
O O1 0.489903 0.901991 0.139771
O O2 0.317588 0.953831 0.159817
O O3 0.500000 0.000000 0.140389
O O4 0.425960 0.952390 0.000000
O O5 0.131637 0.830398 0.145731
O O6 0.119853 0.920128 0.162103
O O7 0.935643 0.874267 0.131619
O O8 0.076621 0.879722 0.000000
O O9 0.152880 0.666887 0.144743
O O10 0.942861 0.691053 0.148815
O O11 0.027024 0.654559 0.000000
O O12 0.750000 0.750000 0.849813
O O13 0.756503 0.662508 0.892507
O O14 0.851065 0.724994 0.000000
O O15 0.766231 0.921024 0.816146
O O16 0.805854 0.904799 0.000000
O O17 0.240565 0.195617 0.500000
O O18 0.250000 0.250000 0.642771
O O19 0.833620 0.000000 0.750000
#
# Coordination Sequence:
#
# PCOD9498494 Si02
#       7
#    16  16  16  16  16  16  16
#     4  10  22  42  70 102 137 177 221 279 346 403
#     4  10  21  42  68  95 130 170 220 278 337 400
#     4   9  17  33  60  95 132 168 214 270 329 397
#     4   9  19  36  61  92 130 176 223 270 327 396
#     4  10  24  43  65  94 131 178 225 275 332 402
#     4   9  17  30  58  98 133 168 210 265 333 403
#     4  12  26  43  66  96 129 168 222 279 339 404
#
# _framework density 22.655946
#
# number of rings (size 3 to 8) (size 9 to 14) (size 15 to 20)
#    0.000    2.143    1.429    0.857    4.000    2.571 
#    0.000    2.143    0.000    0.429    0.000    0.000 
#    0.000    0.000    0.000    0.000    0.000    0.000 
#
# Total GULP energy -313257.568889 kJ/mol
# GULP energy per Si atom -5593.885159 kJ/mol
# Density = 2.260438 g / cm^3
# Si number density = 22.655946 Si / 1000 Ang^3
#
#
#
# Elastic Constant Matrix: (Units=GPa)
#
#
# Indices 1 2 3 4 5 6 
#
# 1 69.0576 2.5895 26.7825 0.0000 0.0000 0.0000
# 2 2.5895 108.6994 14.3345 0.0000 0.0000 0.0000
# 3 26.7825 14.3345 84.7257 0.0000 0.0000 0.0000
# 4 0.0000 0.0000 0.0000 50.6954 0.0000 0.0000
# 5 0.0000 0.0000 0.0000 0.0000 18.8293 0.0000
# 6 0.0000 0.0000 0.0000 0.0000 0.0000 23.6102
#
#
#
# Elastic Compliance Matrix: (Units=1/GPa)
#
#
# Indices 1 2 3 4 5 6 
#
# 1 0.016514 0.000302 -0.005271 0.000000 0.000000 0.000000
# 2 0.000302 0.009415 -0.001688 0.000000 0.000000 0.000000
# 3 -0.005271 -0.001688 0.013755 0.000000 0.000000 0.000000
# 4 0.000000 0.000000 0.000000 0.019726 0.000000 0.000000
# 5 0.000000 0.000000 0.000000 0.000000 0.053109 0.000000
# 6 0.000000 0.000000 0.000000 0.000000 0.000000 0.042354
#
#
# Mechanical properties :
#
#
# Convention : Reuss Voigt Hill
#
# Bulk Modulus (GPa) = 37.92470 38.87728 38.40099
# Shear Modulus (GPa) = 28.25224 33.21208 30.73216
#
# Velocity S-wave (km/s) = 3.53514 3.83290 3.68703
# Velocity P-wave (km/s) = 5.78262 6.06509 5.92554
#
# Compressibility (1/GPa) = 0.02636804
#
# Stress axis : x y z
#
# Youngs Moduli (GPa) = 60.55597 106.21194 72.70251
#
# Poissons Ratio (x) = -0.03205 0.38323
# Poissons Ratio (y) = -0.01827 0.12274
# Poissons Ratio (z) = 0.31920 0.17932
#
# Static dielectric constant tensor:
#      x y z
#    x 1.807800 0.000000 0.000000 
#    y 0.000000 1.770710 0.000000 
#    z 0.000000 0.000000 1.872150 
# 
# From -- ./inp_files/26983.got.cif
#   From: 2010.05.17/outbox.cif.g08.bks.cpg/sg66_14_cif.got.tgz:26983.got - 2010.06.03 17:51:23.
