data_PCOD9498002
_publ_section_title
;
Structure prediction by ZEFSAII (Michael W. Deem and Ramdas Pophale) SiO2 
 PCOD9498002
Probable space group: C C C M
;
_chemical_formula_sum "Si O2"
_cell_formula_units_Z 64
_cell_length_a 10.200007
_cell_length_b 14.785054
_cell_length_c 18.644677
_cell_angle_alpha 90.000000
_cell_angle_beta 90.000000
_cell_angle_gamma 90.000000
_cell_volume 2811.760003
_symmetry_space_group_name_H-M "C C C M"
_symmetry_group_IT_number 66
_symmetry_cell_setting 'orthorhombic'
loop_
_space_group_symop_operation_xyz
x,y,z
-x,-y,z
x,-y,1/2-z
-x,y,1/2-z
-x,-y,-z
x,y,-z
-x,y,1/2+z
x,-y,1/2+z
1/2+x,1/2+y,z
1/2-x,1/2-y,z
1/2+x,1/2-y,1/2-z
1/2-x,1/2+y,1/2-z
1/2-x,1/2-y,-z
1/2+x,1/2+y,-z
1/2-x,1/2+y,1/2+z
1/2+x,1/2-y,1/2+z
loop_
_atom_site_type_symbol
_atom_site_label
_atom_site_fract_x
_atom_site_fract_y
_atom_site_fract_z
Si Si1 0.953979 0.647670 0.422436
Si Si2 0.690287 0.544543 0.584868
Si Si3 0.744664 0.648908 0.918081
Si Si4 0.386721 0.296588 0.692442
O O1 0.928457 0.692176 0.500000
O O2 0.844761 0.571205 0.415330
O O3 0.936655 0.719889 0.361213
O O4 0.103957 0.619076 0.421205
O O5 0.648887 0.553353 0.500000
O O6 0.670874 0.440311 0.609424
O O7 0.635445 0.615766 0.642231
O O8 0.750000 0.750000 0.885995
O O9 0.695530 0.661230 0.000000
O O10 0.500000 0.313134 0.750000
O O11 0.250000 0.250000 0.720021
#
# Coordination Sequence:
#
# PCOD9498002 Si02
#       4
#    16  16  16  16
#     4   9  17  32  58  89 119 154 201 257 309 360
#     4   9  17  33  60  92 121 154 204 261 312 364
#     4   9  17  30  54  91 127 155 189 242 307 368
#     4  10  21  37  61  90 124 166 209 254 309 374
#
# _framework density 22.761545999999999
#
# number of rings (size 3 to 8) (size 9 to 14) (size 15 to 20)
#    0.000    2.750    0.000    1.500    0.000    7.000 
#    0.000    1.250    0.000   35.250    0.000    0.000 
#    0.000    0.000    0.000    0.000    0.000   28.500 
#
# Total GULP energy -178383.664612 kJ/mol
# GULP energy per Si atom -5574.489519 kJ/mol
# Density = 2.270974 g / cm^3
# Si number density = 22.761546 Si / 1000 Ang^3
#
#
#
# Elastic Constant Matrix: (Units=GPa)
#
#
# Indices 1 2 3 4 5 6 
#
# 1 102.5365 47.7411 48.5945 0.0000 0.0000 0.0000
# 2 47.7411 200.7524 83.6030 0.0000 0.0000 0.0000
# 3 48.5945 83.6030 106.9115 0.0000 0.0000 0.0000
# 4 0.0000 0.0000 0.0000 50.3493 0.0000 0.0000
# 5 0.0000 0.0000 0.0000 0.0000 35.4352 0.0000
# 6 0.0000 0.0000 0.0000 0.0000 0.0000 16.5918
#
#
#
# Elastic Compliance Matrix: (Units=1/GPa)
#
#
# Indices 1 2 3 4 5 6 
#
# 1 0.012540 -0.000902 -0.004994 0.000000 0.000000 0.000000
# 2 -0.000902 0.007452 -0.005417 0.000000 0.000000 0.000000
# 3 -0.004994 -0.005417 0.015860 0.000000 0.000000 0.000000
# 4 0.000000 0.000000 0.000000 0.019861 0.000000 0.000000
# 5 0.000000 0.000000 0.000000 0.000000 0.028220 0.000000
# 6 0.000000 0.000000 0.000000 0.000000 0.000000 0.060271
#
#
# Mechanical properties :
#
#
# Convention : Reuss Voigt Hill
#
# Bulk Modulus (GPa) = 75.61955 85.56418 80.59186
# Shear Modulus (GPa) = 29.19916 35.82606 32.51261
#
# Velocity S-wave (km/s) = 3.58555 3.97164 3.78352
# Velocity P-wave (km/s) = 7.10184 7.66192 7.38719
#
# Compressibility (1/GPa) = 0.01322409
#
# Stress axis : x y z
#
# Youngs Moduli (GPa) = 79.74786 134.19677 63.05367
#
# Poissons Ratio (x) = 0.12108 0.31489
# Poissons Ratio (y) = 0.07195 0.34156
# Poissons Ratio (z) = 0.39826 0.72695
#
# Static dielectric constant tensor:
#      x y z
#    x 1.929930 0.000000 0.000000 
#    y 0.000000 1.854190 0.000000 
#    z 0.000000 0.000000 1.826480 
# 
# From -- ./inp_files/37957.got.cif
#   From: 2010.05.17/outbox.cif.g08.bks.cpg/sg66_19_cif.got.tgz:37957.got - 2010.06.03 17:51:23.
