data_PCOD9498504
_publ_section_title
;
Structure prediction by ZEFSAII (Michael W. Deem and Ramdas Pophale) SiO2 
 PCOD9498504
Probable space group: C C C M
;
_chemical_formula_sum "Si O2"
_cell_formula_units_Z 56
_cell_length_a 32.220054
_cell_length_b 5.657348
_cell_length_c 14.678060
_cell_angle_alpha 90.000000
_cell_angle_beta 90.000000
_cell_angle_gamma 90.000000
_cell_volume 2675.517629
_symmetry_space_group_name_H-M "C C C M"
_symmetry_group_IT_number 66
_symmetry_cell_setting 'orthorhombic'
loop_
_space_group_symop_operation_xyz
x,y,z
-x,-y,z
x,-y,1/2-z
-x,y,1/2-z
-x,-y,-z
x,y,-z
-x,y,1/2+z
x,-y,1/2+z
1/2+x,1/2+y,z
1/2-x,1/2-y,z
1/2+x,1/2-y,1/2-z
1/2-x,1/2+y,1/2-z
1/2-x,1/2-y,-z
1/2+x,1/2+y,-z
1/2-x,1/2+y,1/2+z
1/2+x,1/2-y,1/2+z
loop_
_atom_site_type_symbol
_atom_site_label
_atom_site_fract_x
_atom_site_fract_y
_atom_site_fract_z
Si Si1 0.774346 0.500000 0.250000
Si Si2 0.143573 0.000000 0.750000
Si Si3 0.664757 0.849429 0.894750
Si Si4 0.916016 0.615494 0.661409
Si Si5 0.024864 0.750338 0.000000
O O1 0.750000 0.250000 0.255987
O O2 0.804398 0.481273 0.161354
O O3 0.167832 0.886583 0.665902
O O4 0.114186 0.805925 0.794218
O O5 0.616759 0.936273 0.886358
O O6 0.675505 0.823568 0.000000
O O7 0.937758 0.500000 0.750000
O O8 0.946445 0.731553 0.589359
O O9 0.000000 0.500000 0.000000
O O10 0.000000 0.000000 0.000000
#
# Coordination Sequence:
#
# PCOD9498504 Si02
#       5
#     8   8  16  16   8
#     4  12  27  48  68 108 158 186 239 311 370 428
#     4  10  21  42  73 104 131 182 258 303 328 428
#     4  11  23  43  75 102 139 193 249 295 359 438
#     4  10  23  44  73 101 138 192 245 291 351 435
#     4  12  30  48  70 112 152 183 234 307 366 424
#
# _framework density 20.930529
#
# number of rings (size 3 to 8) (size 9 to 14) (size 15 to 20)
#    0.000    1.143    5.714    0.857   10.000    1.714 
#    0.000    0.000    0.000    0.000    0.000    0.000 
#    0.000    0.000    0.000    0.000    0.000    0.000 
#
# Total GULP energy -156184.285451 kJ/mol
# GULP energy per Si atom -5578.010195 kJ/mol
# Density = 2.088289 g / cm^3
# Si number density = 20.930529 Si / 1000 Ang^3
#
#
#
# Elastic Constant Matrix: (Units=GPa)
#
#
# Indices 1 2 3 4 5 6 
#
# 1 83.6355 42.1983 68.5611 0.0000 0.0000 0.0000
# 2 42.1983 102.7946 55.0261 0.0000 0.0000 0.0000
# 3 68.5611 55.0261 225.4394 0.0000 0.0000 0.0000
# 4 0.0000 0.0000 0.0000 26.5454 0.0000 0.0000
# 5 0.0000 0.0000 0.0000 0.0000 28.4769 0.0000
# 6 0.0000 0.0000 0.0000 0.0000 0.0000 41.5403
#
#
#
# Elastic Compliance Matrix: (Units=1/GPa)
#
#
# Indices 1 2 3 4 5 6 
#
# 1 0.018009 -0.005131 -0.004224 0.000000 0.000000 0.000000
# 2 -0.005131 0.012652 -0.001528 0.000000 0.000000 0.000000
# 3 -0.004224 -0.001528 0.006093 0.000000 0.000000 0.000000
# 4 0.000000 0.000000 0.000000 0.037671 0.000000 0.000000
# 5 0.000000 0.000000 0.000000 0.000000 0.035116 0.000000
# 6 0.000000 0.000000 0.000000 0.000000 0.000000 0.024073
#
#
# Mechanical properties :
#
#
# Convention : Reuss Voigt Hill
#
# Bulk Modulus (GPa) = 66.72200 82.60448 74.66324
# Shear Modulus (GPa) = 31.17639 35.71811 33.44725
#
# Velocity S-wave (km/s) = 3.86361 4.13547 4.00185
# Velocity P-wave (km/s) = 7.20072 7.89649 7.55662
#
# Compressibility (1/GPa) = 0.01498756
#
# Stress axis : x y z
#
# Youngs Moduli (GPa) = 55.52880 79.03627 164.11285
#
# Poissons Ratio (x) = 0.40557 0.69327
# Poissons Ratio (y) = 0.28494 0.25071
# Poissons Ratio (z) = 0.23457 0.12074
#
# Static dielectric constant tensor:
#      x y z
#    x 1.790300 0.000000 0.000000 
#    y 0.000000 1.816110 0.000000 
#    z 0.000000 0.000000 1.722540 
# 
# From -- ./inp_files/33558.got.cif
#   From: 2010.05.17/outbox.cif.g08.bks.cpg/sg66_17_cif.got.tgz:33558.got - 2010.06.03 17:51:23.
