data_PCOD9498219
_publ_section_title
;
Structure prediction by ZEFSAII (Michael W. Deem and Ramdas Pophale) SiO2 
 PCOD9498219
Probable space group: C C C M
;
_chemical_formula_sum "Si O2"
_cell_formula_units_Z 88
_cell_length_a 24.706202
_cell_length_b 11.643106
_cell_length_c 15.006968
_cell_angle_alpha 90.000000
_cell_angle_beta 90.000000
_cell_angle_gamma 90.000000
_cell_volume 4316.858325
_symmetry_space_group_name_H-M "C C C M"
_symmetry_group_IT_number 66
_symmetry_cell_setting 'orthorhombic'
loop_
_space_group_symop_operation_xyz
x,y,z
-x,-y,z
x,-y,1/2-z
-x,y,1/2-z
-x,-y,-z
x,y,-z
-x,y,1/2+z
x,-y,1/2+z
1/2+x,1/2+y,z
1/2-x,1/2-y,z
1/2+x,1/2-y,1/2-z
1/2-x,1/2+y,1/2-z
1/2-x,1/2-y,-z
1/2+x,1/2+y,-z
1/2-x,1/2+y,1/2+z
1/2+x,1/2-y,1/2+z
loop_
_atom_site_type_symbol
_atom_site_label
_atom_site_fract_x
_atom_site_fract_y
_atom_site_fract_z
Si Si1 0.060393 0.206459 0.000000
Si Si2 0.120668 0.563844 0.500000
Si Si3 0.450249 0.848627 0.000000
Si Si4 0.877987 0.759612 0.651724
Si Si5 0.805218 0.545995 0.348749
Si Si6 0.410099 0.391572 0.811103
Si Si7 0.818661 0.992035 0.601318
O O1 0.108424 0.301119 0.000000
O O2 0.062849 0.132791 0.907522
O O3 0.008465 0.289644 0.000000
O O4 0.066154 0.483839 0.500000
O O5 0.156460 0.525126 0.415509
O O6 0.420189 0.797395 0.914263
O O7 0.826811 0.675635 0.653164
O O8 0.907443 0.783316 0.745539
O O9 0.856093 0.879992 0.614040
O O10 0.810900 0.500000 0.250000
O O11 0.743093 0.535543 0.377784
O O12 0.430323 0.500000 0.750000
O O13 0.347009 0.417528 0.833747
O O14 0.822882 0.032564 0.500000
#
# Coordination Sequence:
#
# PCOD9498219 Si02
#       7
#     8   8   8  16  16  16  16
#     4  12  23  44  66  84 125 164 199 261 316 345
#     4  10  23  40  62  94 122 157 204 250 301 363
#     4  10  23  40  66  92 116 153 208 257 301 364
#     4  10  21  39  61  87 120 157 204 249 303 366
#     4  11  21  36  60  90 123 160 199 245 299 369
#     4  10  23  41  62  89 125 163 205 253 304 366
#     4  11  20  37  59  87 123 159 199 244 302 366
#
# _framework density 20.385196000000001
#
# number of rings (size 3 to 8) (size 9 to 14) (size 15 to 20)
#    0.000    1.455    2.727    3.545    0.000    1.455 
#    0.000   13.636    0.000    3.273    0.000    0.000 
#    0.000    0.000    0.000    0.000    0.000    0.000 
#
# Total GULP energy -245548.891411 kJ/mol
# GULP energy per Si atom -5580.656623 kJ/mol
# Density = 2.033880 g / cm^3
# Si number density = 20.385196 Si / 1000 Ang^3
#
#
#
# Elastic Constant Matrix: (Units=GPa)
#
#
# Indices 1 2 3 4 5 6 
#
# 1 58.9638 8.4727 14.8863 0.0000 0.0000 0.0000
# 2 8.4727 68.5889 36.4146 0.0000 0.0000 0.0000
# 3 14.8863 36.4146 156.9429 0.0000 0.0000 0.0000
# 4 0.0000 0.0000 0.0000 26.7741 0.0000 0.0000
# 5 0.0000 0.0000 0.0000 0.0000 29.5130 0.0000
# 6 0.0000 0.0000 0.0000 0.0000 0.0000 14.6807
#
#
#
# Elastic Compliance Matrix: (Units=1/GPa)
#
#
# Indices 1 2 3 4 5 6 
#
# 1 0.017503 -0.001461 -0.001321 0.000000 0.000000 0.000000
# 2 -0.001461 0.016750 -0.003748 0.000000 0.000000 0.000000
# 3 -0.001321 -0.003748 0.007367 0.000000 0.000000 0.000000
# 4 0.000000 0.000000 0.000000 0.037349 0.000000 0.000000
# 5 0.000000 0.000000 0.000000 0.000000 0.033883 0.000000
# 6 0.000000 0.000000 0.000000 0.000000 0.000000 0.068116
#
#
# Mechanical properties :
#
#
# Convention : Reuss Voigt Hill
#
# Bulk Modulus (GPa) = 35.01402 44.89365 39.95383
# Shear Modulus (GPa) = 24.56419 29.17503 26.86961
#
# Velocity S-wave (km/s) = 3.47508 3.78721 3.63450
# Velocity P-wave (km/s) = 5.77192 6.41829 6.10367
#
# Compressibility (1/GPa) = 0.02855999
#
# Stress axis : x y z
#
# Youngs Moduli (GPa) = 57.13294 59.70215 135.74678
#
# Poissons Ratio (x) = 0.08720 0.17936
# Poissons Ratio (y) = 0.08345 0.50875
# Poissons Ratio (z) = 0.07549 0.22375
#
# Static dielectric constant tensor:
#      x y z
#    x 1.719000 0.000000 0.000000 
#    y 0.000000 2.021470 0.000000 
#    z 0.000000 0.000000 1.732110 
# 
# From -- ./inp_files/26565.got.cif
#   From: 2010.05.17/outbox.cif.g08.bks.cpg/sg66_14_cif.got.tgz:26565.got - 2010.06.03 17:51:23.
