data_PCOD9498287
_publ_section_title
;
Structure prediction by ZEFSAII (Michael W. Deem and Ramdas Pophale) SiO2 
 PCOD9498287
Probable space group: C C C M
;
_chemical_formula_sum "Si O2"
_cell_formula_units_Z 112
_cell_length_a 13.580743
_cell_length_b 28.080174
_cell_length_c 14.140993
_cell_angle_alpha 90.000000
_cell_angle_beta 90.000000
_cell_angle_gamma 90.000000
_cell_volume 5392.662399
_symmetry_space_group_name_H-M "C C C M"
_symmetry_group_IT_number 66
_symmetry_cell_setting 'orthorhombic'
loop_
_space_group_symop_operation_xyz
x,y,z
-x,-y,z
x,-y,1/2-z
-x,y,1/2-z
-x,-y,-z
x,y,-z
-x,y,1/2+z
x,-y,1/2+z
1/2+x,1/2+y,z
1/2-x,1/2-y,z
1/2+x,1/2-y,1/2-z
1/2-x,1/2+y,1/2-z
1/2-x,1/2-y,-z
1/2+x,1/2+y,-z
1/2-x,1/2+y,1/2+z
1/2+x,1/2-y,1/2+z
loop_
_atom_site_type_symbol
_atom_site_label
_atom_site_fract_x
_atom_site_fract_y
_atom_site_fract_z
Si Si1 0.884593 0.868082 0.886538
Si Si2 0.741249 0.939972 0.393472
Si Si3 0.465789 0.448612 0.385198
Si Si4 0.494621 0.271291 0.608900
Si Si5 0.142267 0.272958 0.770477
Si Si6 0.175433 0.617791 0.716506
Si Si7 0.602213 0.978949 0.144454
O O1 0.954318 0.822177 0.870751
O O2 0.781271 0.871338 0.832301
O O3 0.953081 0.911314 0.854764
O O4 0.865744 0.870255 0.000000
O O5 0.736074 0.920436 0.500000
O O6 0.853478 0.939981 0.358935
O O7 0.684848 0.908640 0.317075
O O8 0.696460 0.993336 0.396957
O O9 0.500000 0.500000 0.355220
O O10 0.465451 0.447128 0.500000
O O11 0.461593 0.270165 0.500000
O O12 0.412596 0.254676 0.684211
O O13 0.585532 0.236751 0.631640
O O14 0.250000 0.250000 0.775684
O O15 0.135553 0.329738 0.760508
O O16 0.117272 0.578142 0.652334
O O17 0.500000 0.000000 0.103029
O O18 0.601650 0.000000 0.250000
#
# Coordination Sequence:
#
# PCOD9498287 Si02
#       7
#    16  16  16  16  16  16  16
#     4  10  21  39  65  92 122 168 220 269 330 401
#     4  10  22  38  59  91 131 167 209 261 326 403
#     4   9  18  33  55  86 123 156 195 253 311 380
#     4  10  24  44  67  95 131 174 224 282 345 409
#     4  11  24  42  66  98 134 175 226 291 348 413
#     4  11  23  40  65  93 125 172 220 275 333 399
#     4   9  20  39  61  86 123 169 218 270 323 388
#
# _framework density 20.768962999999999
#
# number of rings (size 3 to 8) (size 9 to 14) (size 15 to 20)
#    0.000    2.000    1.429    0.857    2.000    8.857 
#    0.000    0.714    0.000    0.000    0.000    0.000 
#    0.000    0.000    0.000    0.000    0.000    0.000 
#
# Total GULP energy -312237.586966 kJ/mol
# GULP energy per Si atom -5575.671196 kJ/mol
# Density = 2.072169 g / cm^3
# Si number density = 20.768963 Si / 1000 Ang^3
#
#
#
# Elastic Constant Matrix: (Units=GPa)
#
#
# Indices 1 2 3 4 5 6 
#
# 1 77.4553 18.1096 10.1937 0.0000 0.0000 0.0000
# 2 18.1096 138.6753 20.3674 0.0000 0.0000 0.0000
# 3 10.1937 20.3674 63.8988 0.0000 0.0000 0.0000
# 4 0.0000 0.0000 0.0000 14.6417 0.0000 0.0000
# 5 0.0000 0.0000 0.0000 0.0000 36.8945 0.0000
# 6 0.0000 0.0000 0.0000 0.0000 0.0000 29.6052
#
#
#
# Elastic Compliance Matrix: (Units=1/GPa)
#
#
# Indices 1 2 3 4 5 6 
#
# 1 0.013485 -0.001516 -0.001668 0.000000 0.000000 0.000000
# 2 -0.001516 0.007736 -0.002224 0.000000 0.000000 0.000000
# 3 -0.001668 -0.002224 0.016625 0.000000 0.000000 0.000000
# 4 0.000000 0.000000 0.000000 0.068298 0.000000 0.000000
# 5 0.000000 0.000000 0.000000 0.000000 0.027104 0.000000
# 6 0.000000 0.000000 0.000000 0.000000 0.000000 0.033778
#
#
# Mechanical properties :
#
#
# Convention : Reuss Voigt Hill
#
# Bulk Modulus (GPa) = 36.99681 41.93007 39.46344
# Shear Modulus (GPa) = 26.75934 31.65221 29.20577
#
# Velocity S-wave (km/s) = 3.59336 3.90810 3.75403
# Velocity P-wave (km/s) = 5.92187 6.37157 6.15083
#
# Compressibility (1/GPa) = 0.02702936
#
# Stress axis : x y z
#
# Youngs Moduli (GPa) = 74.15847 129.27107 60.15156
#
# Poissons Ratio (x) = 0.19597 0.10033
# Poissons Ratio (y) = 0.11242 0.13377
# Poissons Ratio (z) = 0.12369 0.28748
#
# Static dielectric constant tensor:
#      x y z
#    x 1.765550 0.000000 0.000000 
#    y 0.000000 1.785830 0.000000 
#    z 0.000000 0.000000 1.766080 
# 
# From -- ./inp_files/28688.got.cif
#   From: 2010.05.17/outbox.cif.g08.bks.cpg/sg66_15_cif.got.tgz:28688.got - 2010.06.03 17:51:23.
