data_PCOD9498511
_publ_section_title
;
Structure prediction by ZEFSAII (Michael W. Deem and Ramdas Pophale) SiO2 
 PCOD9498511
Probable space group: C C C M
;
_chemical_formula_sum "Si O2"
_cell_formula_units_Z 116
_cell_length_a 25.819369
_cell_length_b 12.562381
_cell_length_c 18.182802
_cell_angle_alpha 90.000000
_cell_angle_beta 90.000000
_cell_angle_gamma 90.000000
_cell_volume 5897.641842
_symmetry_space_group_name_H-M "C C C M"
_symmetry_group_IT_number 66
_symmetry_cell_setting 'orthorhombic'
loop_
_space_group_symop_operation_xyz
x,y,z
-x,-y,z
x,-y,1/2-z
-x,y,1/2-z
-x,-y,-z
x,y,-z
-x,y,1/2+z
x,-y,1/2+z
1/2+x,1/2+y,z
1/2-x,1/2-y,z
1/2+x,1/2-y,1/2-z
1/2-x,1/2+y,1/2-z
1/2-x,1/2-y,-z
1/2+x,1/2+y,-z
1/2-x,1/2+y,1/2+z
1/2+x,1/2-y,1/2+z
loop_
_atom_site_type_symbol
_atom_site_label
_atom_site_fract_x
_atom_site_fract_y
_atom_site_fract_z
Si Si1 0.097392 0.093275 0.670727
Si Si2 0.724018 0.136199 0.917089
Si Si3 0.649101 0.365335 0.677563
Si Si4 0.500000 0.500000 0.750000
Si Si5 0.360337 0.151456 0.910942
Si Si6 0.061385 0.511374 0.834976
Si Si7 0.109537 0.700352 0.913102
Si Si8 0.762115 0.447746 0.673751
O O1 0.126584 0.147639 0.740252
O O2 0.101994 0.176399 0.605350
O O3 0.039185 0.068151 0.699087
O O4 0.124562 0.979701 0.655075
O O5 0.750000 0.250000 0.917161
O O6 0.666044 0.156572 0.890208
O O7 0.755303 0.051756 0.871135
O O8 0.720529 0.095401 0.000000
O O9 0.633732 0.269641 0.623566
O O10 0.711384 0.375722 0.683126
O O11 0.406471 0.073834 0.883539
O O12 0.307785 0.106044 0.872888
O O13 0.356938 0.152419 0.000000
O O14 0.078095 0.500000 0.750000
O O15 0.071773 0.628417 0.866060
O O16 0.000000 0.500000 0.838620
O O17 0.104105 0.682331 0.000000
O O18 0.780814 0.500000 0.750000
#
# Coordination Sequence:
#
# PCOD9498511 Si02
#       8
#    16  16  16   4  16  16  16  16
#     4  10  21  43  66  93 126 164 221 274 322 385
#     4  10  22  37  58  87 124 167 210 258 317 373
#     4  10  23  41  62  93 127 174 218 266 319 385
#     4   8  20  40  66  92 126 164 208 274 330 382
#     4  12  26  42  63  96 137 173 211 265 332 397
#     4  11  25  46  70  96 125 169 220 271 325 384
#     4  11  23  40  64  94 128 166 210 268 324 387
#     4  12  23  38  62  91 127 173 217 266 312 379
#
# _framework density 19.668877999999999
#
# number of rings (size 3 to 8) (size 9 to 14) (size 15 to 20)
#    0.000    1.379    2.759    3.310    1.931    6.621 
#    0.000    0.345    0.000    0.000    0.000    0.000 
#    0.000    0.000    0.000    0.000    0.000    0.000 
#
# Total GULP energy -323844.372546 kJ/mol
# GULP energy per Si atom -5583.523665 kJ/mol
# Density = 1.962411 g / cm^3
# Si number density = 19.668878 Si / 1000 Ang^3
#
#
#
# Elastic Constant Matrix: (Units=GPa)
#
#
# Indices 1 2 3 4 5 6 
#
# 1 92.0398 8.2908 35.6327 0.0000 0.0000 0.0000
# 2 8.2908 79.3779 51.8817 0.0000 0.0000 0.0000
# 3 35.6327 51.8817 96.3631 0.0000 0.0000 0.0000
# 4 0.0000 0.0000 0.0000 35.3493 0.0000 0.0000
# 5 0.0000 0.0000 0.0000 0.0000 12.6146 0.0000
# 6 0.0000 0.0000 0.0000 0.0000 0.0000 18.1930
#
#
#
# Elastic Compliance Matrix: (Units=1/GPa)
#
#
# Indices 1 2 3 4 5 6 
#
# 1 0.013062 0.002766 -0.006319 0.000000 0.000000 0.000000
# 2 0.002766 0.020024 -0.011804 0.000000 0.000000 0.000000
# 3 -0.006319 -0.011804 0.019069 0.000000 0.000000 0.000000
# 4 0.000000 0.000000 0.000000 0.028289 0.000000 0.000000
# 5 0.000000 0.000000 0.000000 0.000000 0.079273 0.000000
# 6 0.000000 0.000000 0.000000 0.000000 0.000000 0.054966
#
#
# Mechanical properties :
#
#
# Convention : Reuss Voigt Hill
#
# Bulk Modulus (GPa) = 46.63861 51.04348 48.84104
# Shear Modulus (GPa) = 19.79844 24.69641 22.24742
#
# Velocity S-wave (km/s) = 3.17612 3.54730 3.36683
# Velocity P-wave (km/s) = 6.10030 6.54106 6.32452
#
# Compressibility (1/GPa) = 0.02144146
#
# Stress axis : x y z
#
# Youngs Moduli (GPa) = 76.55689 49.94008 52.44053
#
# Poissons Ratio (x) = -0.13813 0.33139
# Poissons Ratio (y) = -0.21176 0.61899
# Poissons Ratio (z) = 0.48379 0.58948
#
# Static dielectric constant tensor:
#      x y z
#    x 1.447560 0.000000 0.000000 
#    y 0.000000 1.660360 0.000000 
#    z 0.000000 0.000000 1.704210 
# 
# From -- ./inp_files/44771.got.cif
#   From: 2010.05.17/outbox.cif.g08.bks.cpg/sg66_23_cif.got.tgz:44771.got - 2010.06.03 17:51:23.
