data_PCOD9498772
_publ_section_title
;
Structure prediction by ZEFSAII (Michael W. Deem and Ramdas Pophale) SiO2 
 PCOD9498772
Probable space group: C C C M
;
_chemical_formula_sum "Si O2"
_cell_formula_units_Z 52
_cell_length_a 13.577004
_cell_length_b 17.034067
_cell_length_c 10.400402
_cell_angle_alpha 90.000000
_cell_angle_beta 90.000000
_cell_angle_gamma 90.000000
_cell_volume 2405.317567
_symmetry_space_group_name_H-M "C C C M"
_symmetry_group_IT_number 66
_symmetry_cell_setting 'orthorhombic'
loop_
_space_group_symop_operation_xyz
x,y,z
-x,-y,z
x,-y,1/2-z
-x,y,1/2-z
-x,-y,-z
x,y,-z
-x,y,1/2+z
x,-y,1/2+z
1/2+x,1/2+y,z
1/2-x,1/2-y,z
1/2+x,1/2-y,1/2-z
1/2-x,1/2+y,1/2-z
1/2-x,1/2-y,-z
1/2+x,1/2+y,-z
1/2-x,1/2+y,1/2+z
1/2+x,1/2-y,1/2+z
loop_
_atom_site_type_symbol
_atom_site_label
_atom_site_fract_x
_atom_site_fract_y
_atom_site_fract_z
Si Si1 0.250000 0.250000 0.500000
Si Si2 0.385408 0.781809 0.252956
Si Si3 0.079736 0.109897 0.142656
Si Si4 0.798346 0.559768 0.857044
O O1 0.333218 0.232564 0.384777
O O2 0.500000 0.804875 0.250000
O O3 0.386957 0.699241 0.328318
O O4 0.330645 0.852324 0.324008
O O5 0.179256 0.059952 0.145674
O O6 0.000000 0.089559 0.250000
O O7 0.035370 0.104807 0.000000
O O8 0.835667 0.500000 0.750000
O O9 0.830457 0.537228 0.000000
#
# Coordination Sequence:
#
# PCOD9498772 Si02
#       4
#     4  16  16  16
#     4  12  24  44  74 108 142 184 220 302 340 420
#     4  11  25  41  71 102 135 173 229 279 346 412
#     4  10  22  40  67  97 130 170 227 290 351 413
#     4  11  25  43  62  90 135 181 225 281 340 409
#
# _framework density 21.618767999999999
#
# number of rings (size 3 to 8) (size 9 to 14) (size 15 to 20)
#    0.000    1.231    3.077    0.923   12.923    4.923 
#    0.000    4.615    0.000    0.000    0.000    0.000 
#    0.000    0.000    0.000    0.000    0.000    0.000 
#
# Total GULP energy -144781.426482 kJ/mol
# GULP energy per Si atom -5568.516403 kJ/mol
# Density = 2.156956 g / cm^3
# Si number density = 21.618768 Si / 1000 Ang^3
#
#
#
# Elastic Constant Matrix: (Units=GPa)
#
#
# Indices 1 2 3 4 5 6 
#
# 1 120.5492 -5.0371 54.1394 0.0000 0.0000 0.0000
# 2 -5.0371 57.9140 41.3252 0.0000 0.0000 0.0000
# 3 54.1394 41.3252 226.4292 0.0000 0.0000 0.0000
# 4 0.0000 0.0000 0.0000 -46.5710 0.0000 0.0000
# 5 0.0000 0.0000 0.0000 0.0000 40.9090 0.0000
# 6 0.0000 0.0000 0.0000 0.0000 0.0000 10.4650
#
#
#
# Elastic Compliance Matrix: (Units=1/GPa)
#
#
# Indices 1 2 3 4 5 6 
#
# 1 0.009691 0.002870 -0.002841 0.000000 0.000000 0.000000
# 2 0.002870 0.020702 -0.004465 0.000000 0.000000 0.000000
# 3 -0.002841 -0.004465 0.005911 0.000000 0.000000 0.000000
# 4 0.000000 0.000000 0.000000 -0.021473 0.000000 0.000000
# 5 0.000000 0.000000 0.000000 0.000000 0.024444 0.000000
# 6 0.000000 0.000000 0.000000 0.000000 0.000000 0.095557
#
#
# Mechanical properties :
#
#
# Convention : Reuss Voigt Hill
#
# Bulk Modulus (GPa) = 36.45225 65.08305 50.76765
# Shear Modulus (GPa) = 32.71220 21.92492 27.31856
#
# Velocity S-wave (km/s) = 3.89413 3.18805 3.55864
# Velocity P-wave (km/s) = 6.09237 6.61224 6.35762
#
# Compressibility (1/GPa) = 0.02743315
#
# Stress axis : x y z
#
# Youngs Moduli (GPa) = 103.18634 48.30359 169.19021
#
# Poissons Ratio (x) = -0.13864 0.48067
# Poissons Ratio (y) = -0.29616 0.75537
# Poissons Ratio (z) = 0.29315 0.21566
#
# Static dielectric constant tensor:
#      x y z
#    x 1.783080 0.000000 0.000000 
#    y 0.000000 1.773610 0.000000 
#    z 0.000000 0.000000 1.771270 
# 
# From -- ./inp_files/4732.got.cif
#   From: 2010.05.17/outbox.cif.g08.bks.cpg/sg66_3_cif.got.tgz:4732.got - 2010.06.03 17:51:23.
