data_PCOD9498390
_publ_section_title
;
Structure prediction by ZEFSAII (Michael W. Deem and Ramdas Pophale) SiO2 
 PCOD9498390
Probable space group: C C C M
;
_chemical_formula_sum "Si O2"
_cell_formula_units_Z 32
_cell_length_a 14.984302
_cell_length_b 8.366548
_cell_length_c 10.646827
_cell_angle_alpha 90.000000
_cell_angle_beta 90.000000
_cell_angle_gamma 90.000000
_cell_volume 1334.759503
_symmetry_space_group_name_H-M "C C C M"
_symmetry_group_IT_number 66
_symmetry_cell_setting 'orthorhombic'
loop_
_space_group_symop_operation_xyz
x,y,z
-x,-y,z
x,-y,1/2-z
-x,y,1/2-z
-x,-y,-z
x,y,-z
-x,y,1/2+z
x,-y,1/2+z
1/2+x,1/2+y,z
1/2-x,1/2-y,z
1/2+x,1/2-y,1/2-z
1/2-x,1/2+y,1/2-z
1/2-x,1/2-y,-z
1/2+x,1/2+y,-z
1/2-x,1/2+y,1/2+z
1/2+x,1/2-y,1/2+z
loop_
_atom_site_type_symbol
_atom_site_label
_atom_site_fract_x
_atom_site_fract_y
_atom_site_fract_z
Si Si1 0.578570 0.636635 0.500000
Si Si2 0.647118 0.809299 0.261233
Si Si3 0.153190 0.825624 0.500000
O O1 0.500000 0.500000 0.500000
O O2 0.589963 0.743339 0.377010
O O3 0.662548 0.515113 0.500000
O O4 0.750000 0.750000 0.276700
O O5 0.612307 0.734517 0.130305
O O6 0.645529 0.000000 0.250000
O O7 0.250000 0.750000 0.500000
#
# Coordination Sequence:
#
# PCOD9498390 Si02
#       3
#     8  16   8
#     4  12  26  44  67 101 144 186 227 288 358 419
#     4  11  22  42  72 104 136 182 238 291 344 415
#     4  10  21  40  66  97 130 176 231 280 335 407
#
# _framework density 23.974357999999999
#
# number of rings (size 3 to 8) (size 9 to 14) (size 15 to 20)
#    0.000    1.000    0.000    9.750    0.000    4.000 
#    0.000    7.500    0.000    0.000    0.000    0.000 
#    0.000    0.000    0.000    0.000    0.000    0.000 
#
# Total GULP energy -89525.687501 kJ/mol
# GULP energy per Si atom -5595.355469 kJ/mol
# Density = 2.391979 g / cm^3
# Si number density = 23.974358 Si / 1000 Ang^3
#
#
#
# Elastic Constant Matrix: (Units=GPa)
#
#
# Indices 1 2 3 4 5 6 
#
# 1 127.4956 41.0409 53.8999 0.0000 0.0000 0.0000
# 2 41.0409 232.1311 105.5557 0.0000 0.0000 0.0000
# 3 53.8999 105.5557 288.1851 0.0000 0.0000 0.0000
# 4 0.0000 0.0000 0.0000 57.5224 0.0000 0.0000
# 5 0.0000 0.0000 0.0000 0.0000 -18.4070 0.0000
# 6 0.0000 0.0000 0.0000 0.0000 0.0000 34.6335
#
#
#
# Elastic Compliance Matrix: (Units=1/GPa)
#
#
# Indices 1 2 3 4 5 6 
#
# 1 0.008690 -0.000957 -0.001275 0.000000 0.000000 0.000000
# 2 -0.000957 0.005274 -0.001753 0.000000 0.000000 0.000000
# 3 -0.001275 -0.001753 0.004350 0.000000 0.000000 0.000000
# 4 0.000000 0.000000 0.000000 0.017385 0.000000 0.000000
# 5 0.000000 0.000000 0.000000 0.000000 -0.054327 0.000000
# 6 0.000000 0.000000 0.000000 0.000000 0.000000 0.028874
#
#
# Mechanical properties :
#
#
# Convention : Reuss Voigt Hill
#
# Bulk Modulus (GPa) = 96.65635 116.53386 106.59510
# Shear Modulus (GPa) = 230.79866 44.57080 137.68473
#
# Velocity S-wave (km/s) = 9.82232 4.31641 7.58648
# Velocity P-wave (km/s) = 13.00159 8.57643 11.01355
#
# Compressibility (1/GPa) = 0.01034593
#
# Stress axis : x y z
#
# Youngs Moduli (GPa) = 115.06985 189.60496 229.85955
#
# Poissons Ratio (x) = 0.18140 0.29306
# Poissons Ratio (y) = 0.11009 0.40291
# Poissons Ratio (z) = 0.14671 0.33235
#
# Static dielectric constant tensor:
#      x y z
#    x 2.114470 0.000000 0.000000 
#    y 0.000000 1.874950 0.000000 
#    z 0.000000 0.000000 1.919840 
# 
# From -- ./inp_files/7114.got.cif
#   From: 2010.05.17/outbox.cif.g08.bks.cpg/sg66_4_cif.got.tgz:7114.got - 2010.06.03 17:51:23.
