data_PCOD9498523
_publ_section_title
;
Structure prediction by ZEFSAII (Michael W. Deem and Ramdas Pophale) SiO2 
 PCOD9498523
Probable space group: C C C M
;
_chemical_formula_sum "Si O2"
_cell_formula_units_Z 68
_cell_length_a 10.635391
_cell_length_b 13.598868
_cell_length_c 18.520051
_cell_angle_alpha 90.000000
_cell_angle_beta 90.000000
_cell_angle_gamma 90.000000
_cell_volume 2678.541611
_symmetry_space_group_name_H-M "C C C M"
_symmetry_group_IT_number 66
_symmetry_cell_setting 'orthorhombic'
loop_
_space_group_symop_operation_xyz
x,y,z
-x,-y,z
x,-y,1/2-z
-x,y,1/2-z
-x,-y,-z
x,y,-z
-x,y,1/2+z
x,-y,1/2+z
1/2+x,1/2+y,z
1/2-x,1/2-y,z
1/2+x,1/2-y,1/2-z
1/2-x,1/2+y,1/2-z
1/2-x,1/2-y,-z
1/2+x,1/2+y,-z
1/2-x,1/2+y,1/2+z
1/2+x,1/2-y,1/2+z
loop_
_atom_site_type_symbol
_atom_site_label
_atom_site_fract_x
_atom_site_fract_y
_atom_site_fract_z
Si Si1 0.123414 0.817499 0.078158
Si Si2 0.276817 0.636493 0.299507
Si Si3 0.190568 0.491008 0.417548
Si Si4 0.916482 0.342862 0.820146
Si Si5 0.500000 0.500000 0.250000
O O1 0.250000 0.750000 0.074161
O O2 0.057550 0.764006 0.145450
O O3 0.178580 0.926968 0.083230
O O4 0.057367 0.807984 0.000000
O O5 0.250000 0.750000 0.319474
O O6 0.201933 0.576682 0.359979
O O7 0.218296 0.636899 0.218410
O O8 0.406208 0.575169 0.291963
O O9 0.168665 0.519900 0.500000
O O10 0.085495 0.416215 0.387157
O O11 0.000000 0.360265 0.750000
#
# Coordination Sequence:
#
# PCOD9498523 Si02
#       5
#    16  16  16  16   4
#     4   8  16  35  66 101 144 202 260 315 393 485
#     4  12  27  46  76 116 151 210 267 336 414 487
#     4  10  21  44  71 102 153 209 266 328 404 495
#     4  11  22  38  69 116 154 197 268 338 399 485
#     4  12  28  56  80 110 172 212 262 346 420 474
#
# _framework density 25.386951
#
# number of rings (size 3 to 8) (size 9 to 14) (size 15 to 20)
#    0.000    1.647    2.353    4.235    1.647    2.353 
#    0.000    4.118    0.000    0.000    0.000    0.000 
#    0.000    0.000    0.000    0.000    0.000    0.000 
#
# Total GULP energy -189739.831789 kJ/mol
# GULP energy per Si atom -5580.583288 kJ/mol
# Density = 2.532917 g / cm^3
# Si number density = 25.386951 Si / 1000 Ang^3
#
#
#
# Elastic Constant Matrix: (Units=GPa)
#
#
# Indices 1 2 3 4 5 6 
#
# 1 82.5722 35.9946 24.5358 0.0000 0.0000 0.0000
# 2 35.9946 157.3691 64.6998 0.0000 0.0000 0.0000
# 3 24.5358 64.6998 192.8392 0.0000 0.0000 0.0000
# 4 0.0000 0.0000 0.0000 -64.6869 0.0000 0.0000
# 5 0.0000 0.0000 0.0000 0.0000 21.9173 0.0000
# 6 0.0000 0.0000 0.0000 0.0000 0.0000 25.0387
#
#
#
# Elastic Compliance Matrix: (Units=1/GPa)
#
#
# Indices 1 2 3 4 5 6 
#
# 1 0.013556 -0.002774 -0.000794 0.000000 0.000000 0.000000
# 2 -0.002774 0.007939 -0.002311 0.000000 0.000000 0.000000
# 3 -0.000794 -0.002311 0.006062 0.000000 0.000000 0.000000
# 4 0.000000 0.000000 0.000000 -0.015459 0.000000 0.000000
# 5 0.000000 0.000000 0.000000 0.000000 0.045626 0.000000
# 6 0.000000 0.000000 0.000000 0.000000 0.000000 0.039938
#
#
# Mechanical properties :
#
#
# Convention : Reuss Voigt Hill
#
# Bulk Modulus (GPa) = 63.29454 75.91566 69.60510
# Shear Modulus (GPa) = 43.59737 16.95719 30.27728
#
# Velocity S-wave (km/s) = 4.14854 2.58727 3.45720
# Velocity P-wave (km/s) = 6.92339 6.23648 6.58889
#
# Compressibility (1/GPa) = 0.01579915
#
# Stress axis : x y z
#
# Youngs Moduli (GPa) = 73.76894 125.96044 164.96348
#
# Poissons Ratio (x) = 0.34943 0.13098
# Poissons Ratio (y) = 0.20465 0.38117
# Poissons Ratio (z) = 0.05857 0.29105
#
# Static dielectric constant tensor:
#      x y z
#    x 2.198730 0.000000 0.000000 
#    y 0.000000 2.065100 0.000000 
#    z 0.000000 0.000000 1.977810 
# 
# From -- ./inp_files/48229.got.cif
#   From: 2010.05.17/outbox.cif.g08.bks.cpg/sg66_25_cif.got.tgz:48229.got - 2010.06.03 17:51:23.
