data_PCOD9498547
_publ_section_title
;
Structure prediction by ZEFSAII (Michael W. Deem and Ramdas Pophale) SiO2 
 PCOD9498547
Probable space group: C C C M
;
_chemical_formula_sum "Si O2"
_cell_formula_units_Z 80
_cell_length_a 15.634326
_cell_length_b 12.058535
_cell_length_c 23.502224
_cell_angle_alpha 90.000000
_cell_angle_beta 90.000000
_cell_angle_gamma 90.000000
_cell_volume 4430.805365
_symmetry_space_group_name_H-M "C C C M"
_symmetry_group_IT_number 66
_symmetry_cell_setting 'orthorhombic'
loop_
_space_group_symop_operation_xyz
x,y,z
-x,-y,z
x,-y,1/2-z
-x,y,1/2-z
-x,-y,-z
x,y,-z
-x,y,1/2+z
x,-y,1/2+z
1/2+x,1/2+y,z
1/2-x,1/2-y,z
1/2+x,1/2-y,1/2-z
1/2-x,1/2+y,1/2-z
1/2-x,1/2-y,-z
1/2+x,1/2+y,-z
1/2-x,1/2+y,1/2+z
1/2+x,1/2-y,1/2+z
loop_
_atom_site_type_symbol
_atom_site_label
_atom_site_fract_x
_atom_site_fract_y
_atom_site_fract_z
Si Si1 0.606068 0.753773 0.095878
Si Si2 0.514682 0.629327 0.317081
Si Si3 0.004458 0.369615 0.500000
Si Si4 0.746991 0.578104 0.931940
Si Si5 0.150434 0.225706 0.500000
Si Si6 0.316226 0.351650 0.616506
O O1 0.552064 0.707742 0.149131
O O2 0.539197 0.809993 0.053241
O O3 0.659389 0.649380 0.071228
O O4 0.679643 0.848625 0.098745
O O5 0.500000 0.500000 0.332536
O O6 0.500000 0.642121 0.250000
O O7 0.613192 0.650687 0.334463
O O8 0.000000 0.500000 0.500000
O O9 0.103435 0.340954 0.500000
O O10 0.733887 0.465256 0.896698
O O11 0.766620 0.563001 0.000000
O O12 0.250000 0.250000 0.500000
O O13 0.130488 0.162736 0.557666
O O14 0.250000 0.250000 0.622813
#
# Coordination Sequence:
#
# PCOD9498547 Si02
#       6
#    16  16   8  16   8  16
#     4  11  22  38  61  91 125 168 204 262 320 386
#     4  11  24  45  65  87 120 172 230 270 304 369
#     4  12  24  34  60  96 133 169 202 250 334 396
#     4  11  21  37  62  97 133 160 201 253 327 403
#     4  10  22  35  56  91 127 167 194 252 317 383
#     4  11  23  38  63  95 131 163 206 263 322 377
#
# _framework density 18.055409000000001
#
# number of rings (size 3 to 8) (size 9 to 14) (size 15 to 20)
#    0.000    1.000    7.000    0.600    5.600    0.000 
#    3.600    3.000    0.000    4.200    0.000    0.000 
#    0.000    0.000    0.000    0.000    0.000    0.000 
#
# Total GULP energy -222963.167951 kJ/mol
# GULP energy per Si atom -5574.079199 kJ/mol
# Density = 1.801431 g / cm^3
# Si number density = 18.055409 Si / 1000 Ang^3
#
#
#
# Elastic Constant Matrix: (Units=GPa)
#
#
# Indices 1 2 3 4 5 6 
#
# 1 117.2857 74.7468 49.5204 0.0000 0.0000 0.0000
# 2 74.7468 149.5712 53.7246 0.0000 0.0000 0.0000
# 3 49.5204 53.7246 98.2323 0.0000 0.0000 0.0000
# 4 0.0000 0.0000 0.0000 1.3174 0.0000 0.0000
# 5 0.0000 0.0000 0.0000 0.0000 15.7902 0.0000
# 6 0.0000 0.0000 0.0000 0.0000 0.0000 38.5050
#
#
#
# Elastic Compliance Matrix: (Units=1/GPa)
#
#
# Indices 1 2 3 4 5 6 
#
# 1 0.013620 -0.005401 -0.003912 0.000000 0.000000 0.000000
# 2 -0.005401 0.010462 -0.002999 0.000000 0.000000 0.000000
# 3 -0.003912 -0.002999 0.013792 0.000000 0.000000 0.000000
# 4 0.000000 0.000000 0.000000 0.759090 0.000000 0.000000
# 5 0.000000 0.000000 0.000000 0.000000 0.063331 0.000000
# 6 0.000000 0.000000 0.000000 0.000000 0.000000 0.025971
#
#
# Mechanical properties :
#
#
# Convention : Reuss Voigt Hill
#
# Bulk Modulus (GPa) = 75.47273 80.11918 77.79595
# Shear Modulus (GPa) = 5.46264 23.59567 14.52916
#
# Velocity S-wave (km/s) = 1.74128 3.61896 2.83980
# Velocity P-wave (km/s) = 6.77747 7.86974 7.34394
#
# Compressibility (1/GPa) = 0.01324982
#
# Stress axis : x y z
#
# Youngs Moduli (GPa) = 73.41972 95.58101 72.50414
#
# Poissons Ratio (x) = 0.51628 0.28364
# Poissons Ratio (y) = 0.39657 0.21744
# Poissons Ratio (z) = 0.28722 0.28665
#
# Static dielectric constant tensor:
#      x y z
#    x 1.659490 0.000000 0.000000 
#    y 0.000000 1.632820 0.000000 
#    z 0.000000 0.000000 1.649090 
# 
# From -- ./inp_files/56677.got.cif
#   From: 2010.05.17/outbox.cif.g08.bks.cpg/sg66_29_cif.got.tgz:56677.got - 2010.06.03 17:51:23.
