data_PCOD9498466
_publ_section_title
;
Structure prediction by ZEFSAII (Michael W. Deem and Ramdas Pophale) SiO2 
 PCOD9498466
Probable space group: C C C M
;
_chemical_formula_sum "Si O2"
_cell_formula_units_Z 68
_cell_length_a 13.660193
_cell_length_b 11.493383
_cell_length_c 20.941349
_cell_angle_alpha 90.000000
_cell_angle_beta 90.000000
_cell_angle_gamma 90.000000
_cell_volume 3287.830116
_symmetry_space_group_name_H-M "C C C M"
_symmetry_group_IT_number 66
_symmetry_cell_setting 'orthorhombic'
loop_
_space_group_symop_operation_xyz
x,y,z
-x,-y,z
x,-y,1/2-z
-x,y,1/2-z
-x,-y,-z
x,y,-z
-x,y,1/2+z
x,-y,1/2+z
1/2+x,1/2+y,z
1/2-x,1/2-y,z
1/2+x,1/2-y,1/2-z
1/2-x,1/2+y,1/2-z
1/2-x,1/2-y,-z
1/2+x,1/2+y,-z
1/2-x,1/2+y,1/2+z
1/2+x,1/2-y,1/2+z
loop_
_atom_site_type_symbol
_atom_site_label
_atom_site_fract_x
_atom_site_fract_y
_atom_site_fract_z
Si Si1 0.108819 0.446686 0.185367
Si Si2 0.738205 0.547403 0.924258
Si Si3 0.434045 0.619101 0.929750
Si Si4 0.500000 0.500000 0.250000
Si Si5 0.087979 0.187149 0.159167
O O1 0.154374 0.500000 0.250000
O O2 0.167691 0.466382 0.119991
O O3 0.108632 0.307417 0.193239
O O4 0.000000 0.500000 0.180321
O O5 0.673623 0.429585 0.918541
O O6 0.670569 0.647825 0.891631
O O7 0.753567 0.569385 0.000000
O O8 0.500000 0.500000 0.929926
O O9 0.484960 0.699469 0.878349
O O10 0.440964 0.671274 0.000000
O O11 0.568527 0.581774 0.207308
#
# Coordination Sequence:
#
# PCOD9498466 Si02
#       5
#    16  16  16   4  16
#     4  11  26  45  57  85 132 178 210 249 312 378
#     4  10  21  41  69  99 125 158 211 266 318 375
#     4   8  15  33  61  94 124 144 187 263 318 358
#     4  12  20  32  64 100 118 160 210 266 320 356
#     4  11  21  38  66  93 123 158 213 260 308 371
#
# _framework density 20.682333
#
# number of rings (size 3 to 8) (size 9 to 14) (size 15 to 20)
#    0.000    1.882    3.529    4.235    1.647    3.294 
#    0.000    1.176    0.000    2.824    0.000    0.000 
#    0.000    0.000    0.000    0.000    0.000    0.000 
#
# Total GULP energy -189719.295896 kJ/mol
# GULP energy per Si atom -5579.979291 kJ/mol
# Density = 2.063526 g / cm^3
# Si number density = 20.682333 Si / 1000 Ang^3
#
#
#
# Elastic Constant Matrix: (Units=GPa)
#
#
# Indices 1 2 3 4 5 6 
#
# 1 75.1296 21.1196 55.2284 0.0000 0.0000 0.0000
# 2 21.1196 77.6426 73.2035 0.0000 0.0000 0.0000
# 3 55.2284 73.2035 164.4129 0.0000 0.0000 0.0000
# 4 0.0000 0.0000 0.0000 21.6886 0.0000 0.0000
# 5 0.0000 0.0000 0.0000 0.0000 36.1967 0.0000
# 6 0.0000 0.0000 0.0000 0.0000 0.0000 14.0717
#
#
#
# Elastic Compliance Matrix: (Units=1/GPa)
#
#
# Indices 1 2 3 4 5 6 
#
# 1 0.017759 0.001368 -0.006574 0.000000 0.000000 0.000000
# 2 0.001368 0.022303 -0.010390 0.000000 0.000000 0.000000
# 3 -0.006574 -0.010390 0.012917 0.000000 0.000000 0.000000
# 4 0.000000 0.000000 0.000000 0.046107 0.000000 0.000000
# 5 0.000000 0.000000 0.000000 0.000000 0.027627 0.000000
# 6 0.000000 0.000000 0.000000 0.000000 0.000000 0.071065
#
#
# Mechanical properties :
#
#
# Convention : Reuss Voigt Hill
#
# Bulk Modulus (GPa) = 45.90097 68.47644 57.18871
# Shear Modulus (GPa) = 21.16562 25.56697 23.36629
#
# Velocity S-wave (km/s) = 3.20248 3.51974 3.36485
# Velocity P-wave (km/s) = 5.99300 7.04973 6.54273
#
# Compressibility (1/GPa) = 0.02178603
#
# Stress axis : x y z
#
# Youngs Moduli (GPa) = 56.31033 44.83656 77.41919
#
# Poissons Ratio (x) = -0.06134 0.50899
# Poissons Ratio (y) = -0.07703 0.80437
# Poissons Ratio (z) = 0.37021 0.46585
#
# Static dielectric constant tensor:
#      x y z
#    x 1.788180 0.000000 0.000000 
#    y 0.000000 1.744570 0.000000 
#    z 0.000000 0.000000 1.765120 
# 
# From -- ./inp_files/49660.got.cif
#   From: 2010.05.17/outbox.cif.g08.bks.cpg/sg66_25_cif.got.tgz:49660.got - 2010.06.03 17:51:23.
