data_PCOD9498691
_publ_section_title
;
Structure prediction by ZEFSAII (Michael W. Deem and Ramdas Pophale) SiO2 
 PCOD9498691
Probable space group: C C C M
;
_chemical_formula_sum "Si O2"
_cell_formula_units_Z 88
_cell_length_a 23.375561
_cell_length_b 11.499428
_cell_length_c 14.658969
_cell_angle_alpha 90.000000
_cell_angle_beta 90.000000
_cell_angle_gamma 90.000000
_cell_volume 3940.412674
_symmetry_space_group_name_H-M "C C C M"
_symmetry_group_IT_number 66
_symmetry_cell_setting 'orthorhombic'
loop_
_space_group_symop_operation_xyz
x,y,z
-x,-y,z
x,-y,1/2-z
-x,y,1/2-z
-x,-y,-z
x,y,-z
-x,y,1/2+z
x,-y,1/2+z
1/2+x,1/2+y,z
1/2-x,1/2-y,z
1/2+x,1/2-y,1/2-z
1/2-x,1/2+y,1/2-z
1/2-x,1/2-y,-z
1/2+x,1/2+y,-z
1/2-x,1/2+y,1/2+z
1/2+x,1/2-y,1/2+z
loop_
_atom_site_type_symbol
_atom_site_label
_atom_site_fract_x
_atom_site_fract_y
_atom_site_fract_z
Si Si1 0.812228 0.703316 0.836424
Si Si2 0.831010 0.942403 0.895407
Si Si3 0.260605 0.000000 0.750000
Si Si4 0.083289 0.556024 0.606559
Si Si5 0.555888 0.559332 0.348785
Si Si6 0.032103 0.319853 0.388362
O O1 0.750000 0.750000 0.872790
O O2 0.845245 0.825322 0.837428
O O3 0.794585 0.621823 0.751711
O O4 0.854881 0.614105 0.885598
O O5 0.778820 0.998045 0.839794
O O6 0.885172 0.025691 0.895921
O O7 0.817494 0.911401 0.000000
O O8 0.070835 0.543410 0.500000
O O9 0.073872 0.425306 0.642729
O O10 0.031726 0.638677 0.639470
O O11 0.500000 0.500000 0.393129
O O12 0.559821 0.500000 0.250000
O O13 0.547407 0.696593 0.346678
O O14 0.034203 0.306125 0.500000
#
# Coordination Sequence:
#
# PCOD9498691 Si02
#       6
#    16  16   8  16  16  16
#     4  10  22  39  65  94 127 171 225 284 330 395
#     4  11  23  43  71  98 133 181 230 282 341 411
#     4  10  24  44  61  97 130 170 220 292 342 386
#     4   9  18  36  64  99 133 171 218 277 342 410
#     4  11  23  38  62  98 140 182 223 276 339 411
#     4   9  19  37  62  96 139 173 215 274 339 418
#
# _framework density 22.332685000000001
#
# number of rings (size 3 to 8) (size 9 to 14) (size 15 to 20)
#    0.000    2.000    0.909    3.273    0.000   10.909 
#    3.273    0.000    0.000   10.364    0.000    0.000 
#    0.000    0.000    0.000    0.000    0.000    0.000 
#
# Total GULP energy -245318.445763 kJ/mol
# GULP energy per Si atom -5575.419222 kJ/mol
# Density = 2.228186 g / cm^3
# Si number density = 22.332685 Si / 1000 Ang^3
#
#
#
# Elastic Constant Matrix: (Units=GPa)
#
#
# Indices 1 2 3 4 5 6 
#
# 1 93.6210 71.0566 20.1764 0.0000 0.0000 0.0000
# 2 71.0566 225.5645 50.5639 0.0000 0.0000 0.0000
# 3 20.1764 50.5639 75.3469 0.0000 0.0000 0.0000
# 4 0.0000 0.0000 0.0000 24.7338 0.0000 0.0000
# 5 0.0000 0.0000 0.0000 0.0000 26.5282 0.0000
# 6 0.0000 0.0000 0.0000 0.0000 0.0000 35.5632
#
#
#
# Elastic Compliance Matrix: (Units=1/GPa)
#
#
# Indices 1 2 3 4 5 6 
#
# 1 0.014093 -0.004230 -0.000935 0.000000 0.000000 0.000000
# 2 -0.004230 0.006488 -0.003221 0.000000 0.000000 0.000000
# 3 -0.000935 -0.003221 0.015684 0.000000 0.000000 0.000000
# 4 0.000000 0.000000 0.000000 0.040430 0.000000 0.000000
# 5 0.000000 0.000000 0.000000 0.000000 0.037696 0.000000
# 6 0.000000 0.000000 0.000000 0.000000 0.000000 0.028119
#
#
# Mechanical properties :
#
#
# Convention : Reuss Voigt Hill
#
# Bulk Modulus (GPa) = 51.30186 75.34737 63.32462
# Shear Modulus (GPa) = 30.16025 34.21408 32.18717
#
# Velocity S-wave (km/s) = 3.67890 3.91835 3.80051
# Velocity P-wave (km/s) = 6.40837 7.36771 6.90472
#
# Compressibility (1/GPa) = 0.01949247
#
# Stress axis : x y z
#
# Youngs Moduli (GPa) = 70.95504 154.13227 63.75889
#
# Poissons Ratio (x) = 0.65198 0.05963
# Poissons Ratio (y) = 0.30014 0.20538
# Poissons Ratio (z) = 0.06636 0.49649
#
# Static dielectric constant tensor:
#      x y z
#    x 1.882910 0.000000 0.000000 
#    y 0.000000 1.836560 0.000000 
#    z 0.000000 0.000000 1.867450 
# 
# From -- ./inp_files/32220.got.cif
#   From: 2010.05.17/outbox.cif.g08.bks.cpg/sg66_17_cif.got.tgz:32220.got - 2010.06.03 17:51:23.
