data_PCOD9498581
_publ_section_title
;
Structure prediction by ZEFSAII (Michael W. Deem and Ramdas Pophale) SiO2 
 PCOD9498581
Probable space group: C C C M
;
_chemical_formula_sum "Si O2"
_cell_formula_units_Z 92
_cell_length_a 21.643784
_cell_length_b 13.388836
_cell_length_c 15.760052
_cell_angle_alpha 90.000000
_cell_angle_beta 90.000000
_cell_angle_gamma 90.000000
_cell_volume 4567.027841
_symmetry_space_group_name_H-M "C C C M"
_symmetry_group_IT_number 66
_symmetry_cell_setting 'orthorhombic'
loop_
_space_group_symop_operation_xyz
x,y,z
-x,-y,z
x,-y,1/2-z
-x,y,1/2-z
-x,-y,-z
x,y,-z
-x,y,1/2+z
x,-y,1/2+z
1/2+x,1/2+y,z
1/2-x,1/2-y,z
1/2+x,1/2-y,1/2-z
1/2-x,1/2+y,1/2-z
1/2-x,1/2-y,-z
1/2+x,1/2+y,-z
1/2-x,1/2+y,1/2+z
1/2+x,1/2-y,1/2+z
loop_
_atom_site_type_symbol
_atom_site_label
_atom_site_fract_x
_atom_site_fract_y
_atom_site_fract_z
Si Si1 0.592301 0.712642 0.689316
Si Si2 0.154377 0.490730 0.000000
Si Si3 0.705009 0.412578 0.500000
Si Si4 0.168108 0.413567 0.320940
Si Si5 0.122268 0.272160 0.000000
Si Si6 0.038178 0.828690 0.631768
Si Si7 0.687639 0.449631 0.159202
Si Si8 0.500000 0.500000 0.500000
O O1 0.631099 0.813826 0.704485
O O2 0.528539 0.725416 0.638557
O O3 0.567661 0.660200 0.775326
O O4 0.638387 0.636797 0.643030
O O5 0.145737 0.552206 0.914042
O O6 0.222956 0.440707 0.000000
O O7 0.116883 0.390096 0.000000
O O8 0.684205 0.297259 0.500000
O O9 0.682168 0.468627 0.415051
O O10 0.159353 0.500000 0.250000
O O11 0.242702 0.404301 0.333344
O O12 0.086603 0.238040 0.082772
O O13 0.027871 0.925992 0.574921
O O14 0.676156 0.500000 0.250000
#
# Coordination Sequence:
#
# PCOD9498581 Si02
#       8
#    16   8   8  16   8  16  16   4
#     4  11  23  41  60  89 128 165 205 257 316 383
#     4  10  22  40  65  90 121 165 218 270 324 377
#     4  10  22  37  61  94 123 164 209 261 330 393
#     4  10  22  42  64  90 123 164 216 271 320 375
#     4  11  21  41  60  89 123 160 211 267 309 375
#     4  10  25  38  62  89 125 160 215 242 322 381
#     4  10  22  37  62  94 122 161 210 258 327 392
#     4  10  24  44  58  92 128 164 204 264 296 380
#
# _framework density 20.144390999999999
#
# number of rings (size 3 to 8) (size 9 to 14) (size 15 to 20)
#    0.000    1.739    0.000    2.870    7.304    3.478 
#    0.000   16.522    0.000    0.000    0.000    0.000 
#    0.000    0.000    0.000    0.000    0.000    0.000 
#
# Total GULP energy -256096.056615 kJ/mol
# GULP energy per Si atom -5567.305579 kJ/mol
# Density = 2.009854 g / cm^3
# Si number density = 20.144391 Si / 1000 Ang^3
#
#
#
# Elastic Constant Matrix: (Units=GPa)
#
#
# Indices 1 2 3 4 5 6 
#
# 1 68.0864 21.1957 5.7275 0.0000 0.0000 0.0000
# 2 21.1957 45.9205 4.1097 0.0000 0.0000 0.0000
# 3 5.7275 4.1097 96.5604 0.0000 0.0000 0.0000
# 4 0.0000 0.0000 0.0000 23.3825 0.0000 0.0000
# 5 0.0000 0.0000 0.0000 0.0000 9.5905 0.0000
# 6 0.0000 0.0000 0.0000 0.0000 0.0000 22.6070
#
#
#
# Elastic Compliance Matrix: (Units=1/GPa)
#
#
# Indices 1 2 3 4 5 6 
#
# 1 0.017197 -0.007876 -0.000685 0.000000 0.000000 0.000000
# 2 -0.007876 0.025467 -0.000617 0.000000 0.000000 0.000000
# 3 -0.000685 -0.000617 0.010423 0.000000 0.000000 0.000000
# 4 0.000000 0.000000 0.000000 0.042767 0.000000 0.000000
# 5 0.000000 0.000000 0.000000 0.000000 0.104270 0.000000
# 6 0.000000 0.000000 0.000000 0.000000 0.000000 0.044234
#
#
# Mechanical properties :
#
#
# Convention : Reuss Voigt Hill
#
# Bulk Modulus (GPa) = 28.79222 30.29258 29.54240
# Shear Modulus (GPa) = 18.22879 23.08495 20.65687
#
# Velocity S-wave (km/s) = 3.01143 3.38890 3.20572
# Velocity P-wave (km/s) = 5.13961 5.51210 5.32911
#
# Compressibility (1/GPa) = 0.03473161
#
# Stress axis : x y z
#
# Youngs Moduli (GPa) = 58.15045 39.26583 95.94091
#
# Poissons Ratio (x) = 0.30927 0.06570
# Poissons Ratio (y) = 0.45801 0.05917
# Poissons Ratio (z) = 0.03982 0.02422
#
# Static dielectric constant tensor:
#      x y z
#    x 1.777580 0.000000 0.000000 
#    y 0.000000 1.709190 0.000000 
#    z 0.000000 0.000000 3.559050 
# 
# From -- ./inp_files/42845.got.cif
#   From: 2010.05.17/outbox.cif.g08.bks.cpg/sg66_22_cif.got.tgz:42845.got - 2010.06.03 17:51:23.
