data_PCOD9498264
_publ_section_title
;
Structure prediction by ZEFSAII (Michael W. Deem and Ramdas Pophale) SiO2 
 PCOD9498264
Probable space group: C C C M
;
_chemical_formula_sum "Si O2"
_cell_formula_units_Z 32
_cell_length_a 12.677689
_cell_length_b 7.786613
_cell_length_c 13.097586
_cell_angle_alpha 90.000000
_cell_angle_beta 90.000000
_cell_angle_gamma 90.000000
_cell_volume 1292.944678
_symmetry_space_group_name_H-M "C C C M"
_symmetry_group_IT_number 66
_symmetry_cell_setting 'orthorhombic'
loop_
_space_group_symop_operation_xyz
x,y,z
-x,-y,z
x,-y,1/2-z
-x,y,1/2-z
-x,-y,-z
x,y,-z
-x,y,1/2+z
x,-y,1/2+z
1/2+x,1/2+y,z
1/2-x,1/2-y,z
1/2+x,1/2-y,1/2-z
1/2-x,1/2+y,1/2-z
1/2-x,1/2-y,-z
1/2+x,1/2+y,-z
1/2-x,1/2+y,1/2+z
1/2+x,1/2-y,1/2+z
loop_
_atom_site_type_symbol
_atom_site_label
_atom_site_fract_x
_atom_site_fract_y
_atom_site_fract_z
Si Si1 0.115291 0.781982 0.213515
Si Si2 0.704106 0.022449 0.617042
O O1 0.188329 0.929745 0.160804
O O2 0.161681 0.676148 0.311872
O O3 0.118852 0.630366 0.129737
O O4 0.000000 0.829391 0.250000
O O5 0.717895 0.067471 0.500000
#
# Coordination Sequence:
#
# PCOD9498264 Si02
#       2
#    16  16
#     4  10  21  39  64  91 127 167 208 258 314 374
#     4  10  21  40  65  93 127 165 210 262 313 375
#
# _framework density 24.749706
#
# number of rings (size 3 to 8) (size 9 to 14) (size 15 to 20)
#    0.000    2.000    0.000    6.000    0.000    6.000 
#    0.000   45.000    0.000   54.000    0.000    0.000 
#    0.000    0.000    0.000    0.000    0.000    0.000 
#
# Total GULP energy -89158.043708 kJ/mol
# GULP energy per Si atom -5572.377732 kJ/mol
# Density = 2.469337 g / cm^3
# Si number density = 24.749706 Si / 1000 Ang^3
#
#
#
# Elastic Constant Matrix: (Units=GPa)
#
#
# Indices 1 2 3 4 5 6 
#
# 1 180.8041 87.1394 44.4075 0.0000 0.0000 0.0000
# 2 87.1394 193.4978 82.2477 0.0000 0.0000 0.0000
# 3 44.4075 82.2477 246.8426 0.0000 0.0000 0.0000
# 4 0.0000 0.0000 0.0000 -17.0420 0.0000 0.0000
# 5 0.0000 0.0000 0.0000 0.0000 17.1336 0.0000
# 6 0.0000 0.0000 0.0000 0.0000 0.0000 12.2817
#
#
#
# Elastic Compliance Matrix: (Units=1/GPa)
#
#
# Indices 1 2 3 4 5 6 
#
# 1 0.007077 -0.003082 -0.000246 0.000000 0.000000 0.000000
# 2 -0.003082 0.007363 -0.001899 0.000000 0.000000 0.000000
# 3 -0.000246 -0.001899 0.004728 0.000000 0.000000 0.000000
# 4 0.000000 0.000000 0.000000 -0.058679 0.000000 0.000000
# 5 0.000000 0.000000 0.000000 0.000000 0.058365 0.000000
# 6 0.000000 0.000000 0.000000 0.000000 0.000000 0.081422
#
#
# Mechanical properties :
#
#
# Convention : Reuss Voigt Hill
#
# Bulk Modulus (GPa) = 114.76415 116.52598 115.64506
# Shear Modulus (GPa) = 44.00018 29.63132 36.81575
#
# Velocity S-wave (km/s) = 4.22098 3.46387 3.86103
# Velocity P-wave (km/s) = 8.38010 7.94870 8.16725
#
# Compressibility (1/GPa) = 0.00871352
#
# Stress axis : x y z
#
# Youngs Moduli (GPa) = 141.30568 135.80923 211.49907
#
# Poissons Ratio (x) = 0.41861 0.05205
# Poissons Ratio (y) = 0.43556 0.40162
# Poissons Ratio (z) = 0.03478 0.25789
#
# Static dielectric constant tensor:
#      x y z
#    x 2.114470 0.000000 0.000000 
#    y 0.000000 2.105020 0.000000 
#    z 0.000000 0.000000 1.946540 
# 
# From -- ./inp_files/22840.got.cif
#   From: 2010.05.17/outbox.cif.g08.bks.cpg/sg66_12_cif.got.tgz:22840.got - 2010.06.03 17:51:23.
