data_PCOD9498482
_publ_section_title
;
Structure prediction by ZEFSAII (Michael W. Deem and Ramdas Pophale) SiO2 
 PCOD9498482
Probable space group: C C C M
;
_chemical_formula_sum "Si O2"
_cell_formula_units_Z 52
_cell_length_a 13.571705
_cell_length_b 7.341511
_cell_length_c 22.870502
_cell_angle_alpha 90.000000
_cell_angle_beta 90.000000
_cell_angle_gamma 90.000000
_cell_volume 2278.744126
_symmetry_space_group_name_H-M "C C C M"
_symmetry_group_IT_number 66
_symmetry_cell_setting 'orthorhombic'
loop_
_space_group_symop_operation_xyz
x,y,z
-x,-y,z
x,-y,1/2-z
-x,y,1/2-z
-x,-y,-z
x,y,-z
-x,y,1/2+z
x,-y,1/2+z
1/2+x,1/2+y,z
1/2-x,1/2-y,z
1/2+x,1/2-y,1/2-z
1/2-x,1/2+y,1/2-z
1/2-x,1/2-y,-z
1/2+x,1/2+y,-z
1/2-x,1/2+y,1/2+z
1/2+x,1/2-y,1/2+z
loop_
_atom_site_type_symbol
_atom_site_label
_atom_site_fract_x
_atom_site_fract_y
_atom_site_fract_z
Si Si1 0.367007 0.558603 0.936257
Si Si2 0.870294 0.472107 0.933935
Si Si3 0.000000 0.000000 0.250000
Si Si4 0.368602 0.271280 0.161749
O O1 0.247976 0.548841 0.935320
O O2 0.404298 0.763669 0.928761
O O3 0.392839 0.427317 0.884940
O O4 0.395772 0.490822 0.000000
O O5 0.894529 0.590685 0.876686
O O6 0.896000 0.541403 0.000000
O O7 0.071611 0.145547 0.216238
O O8 0.250000 0.250000 0.174100
#
# Coordination Sequence:
#
# PCOD9498482 Si02
#       4
#    16  16   4  16
#     4   8  14  29  60  98 130 161 206 266 339 415
#     4   8  14  29  60  99 130 164 207 262 344 414
#     4  12  28  48  64  98 132 178 260 278 310 398
#     4  10  21  42  65  89 131 179 216 282 336 380
#
# _framework density 22.819588
#
# number of rings (size 3 to 8) (size 9 to 14) (size 15 to 20)
#    0.000    3.077    0.000    2.769    0.000    3.692 
#   11.077    6.154    0.000    3.692    0.000    0.000 
#    0.000    0.000    0.000    0.000    0.000    0.000 
#
# Total GULP energy -144827.051721 kJ/mol
# GULP energy per Si atom -5570.271220 kJ/mol
# Density = 2.276765 g / cm^3
# Si number density = 22.819588 Si / 1000 Ang^3
#
#
#
# Elastic Constant Matrix: (Units=GPa)
#
#
# Indices 1 2 3 4 5 6 
#
# 1 160.8599 41.4690 62.2213 0.0000 0.0000 0.0000
# 2 41.4690 124.1877 80.2046 0.0000 0.0000 0.0000
# 3 62.2213 80.2046 136.6174 0.0000 0.0000 0.0000
# 4 0.0000 0.0000 0.0000 87.0537 0.0000 0.0000
# 5 0.0000 0.0000 0.0000 0.0000 -177.0514 0.0000
# 6 0.0000 0.0000 0.0000 0.0000 0.0000 25.2742
#
#
#
# Elastic Compliance Matrix: (Units=1/GPa)
#
#
# Indices 1 2 3 4 5 6 
#
# 1 0.007564 -0.000485 -0.003160 0.000000 0.000000 0.000000
# 2 -0.000485 0.013001 -0.007412 0.000000 0.000000 0.000000
# 3 -0.003160 -0.007412 0.013110 0.000000 0.000000 0.000000
# 4 0.000000 0.000000 0.000000 0.011487 0.000000 0.000000
# 5 0.000000 0.000000 0.000000 0.000000 -0.005648 0.000000
# 6 0.000000 0.000000 0.000000 0.000000 0.000000 0.039566
#
#
# Mechanical properties :
#
#
# Convention : Reuss Voigt Hill
#
# Bulk Modulus (GPa) = 86.49358 87.71722 87.10540
# Shear Modulus (GPa) = 47.59726 2.90664 25.25195
#
# Velocity S-wave (km/s) = 4.57202 1.12983 3.33016
# Velocity P-wave (km/s) = 8.11521 6.34231 7.28291
#
# Compressibility (1/GPa) = 0.01156155
#
# Stress axis : x y z
#
# Youngs Moduli (GPa) = 132.20514 76.91736 76.27543
#
# Poissons Ratio (x) = 0.03728 0.24106
# Poissons Ratio (y) = 0.06408 0.56534
# Poissons Ratio (z) = 0.41782 0.57010
#
# Static dielectric constant tensor:
#      x y z
#    x 1.978720 0.000000 0.000000 
#    y 0.000000 1.852580 0.000000 
#    z 0.000000 0.000000 1.859250 
# 
# From -- ./inp_files/50455.got.cif
#   From: 2010.05.17/outbox.cif.g08.bks.cpg/sg66_26_cif.got.tgz:50455.got - 2010.06.03 17:51:23.
