data_PCOD9498827
_publ_section_title
;
Structure prediction by ZEFSAII (Michael W. Deem and Ramdas Pophale) SiO2 
 PCOD9498827
Probable space group: C C C M
;
_chemical_formula_sum "Si O2"
_cell_formula_units_Z 52
_cell_length_a 8.871793
_cell_length_b 20.779612
_cell_length_c 14.823630
_cell_angle_alpha 90.000000
_cell_angle_beta 90.000000
_cell_angle_gamma 90.000000
_cell_volume 2732.772009
_symmetry_space_group_name_H-M "C C C M"
_symmetry_group_IT_number 66
_symmetry_cell_setting 'orthorhombic'
loop_
_space_group_symop_operation_xyz
x,y,z
-x,-y,z
x,-y,1/2-z
-x,y,1/2-z
-x,-y,-z
x,y,-z
-x,y,1/2+z
x,-y,1/2+z
1/2+x,1/2+y,z
1/2-x,1/2-y,z
1/2+x,1/2-y,1/2-z
1/2-x,1/2+y,1/2-z
1/2-x,1/2-y,-z
1/2+x,1/2+y,-z
1/2-x,1/2+y,1/2+z
1/2+x,1/2-y,1/2+z
loop_
_atom_site_type_symbol
_atom_site_label
_atom_site_fract_x
_atom_site_fract_y
_atom_site_fract_z
Si Si1 0.082491 0.224153 0.344876
Si Si2 0.500000 0.500000 0.250000
Si Si3 0.661675 0.417304 0.099015
Si Si4 0.098164 0.706963 0.500000
Si Si5 0.543174 0.074995 0.000000
O O1 0.250000 0.250000 0.331413
O O2 0.096960 0.153892 0.388593
O O3 0.000000 0.219427 0.250000
O O4 0.993527 0.270227 0.412452
O O5 0.604388 0.458372 0.182904
O O6 0.611504 0.442290 0.000000
O O7 0.842935 0.413949 0.084919
O O8 0.250000 0.750000 0.500000
O O9 0.089362 0.628537 0.500000
O O10 0.500000 0.000000 0.000000
#
# Coordination Sequence:
#
# PCOD9498827 Si02
#       5
#    16   4  16   8   8
#     4  12  22  43  68  97 131 168 224 278 333 392
#     4  12  22  40  66 106 128 172 232 270 344 430
#     4  10  22  41  68  90 130 178 215 277 337 394
#     4  12  24  42  70 100 129 179 225 278 335 398
#     4  10  23  46  65  93 137 179 216 272 345 409
#
# _framework density 19.028299000000001
#
# number of rings (size 3 to 8) (size 9 to 14) (size 15 to 20)
#    0.923    0.000    6.154    1.846    0.000    2.462 
#    5.538    0.769    0.000    0.000    0.000    0.000 
#    0.000    0.000    0.000    0.000    0.000    0.000 
#
# Total GULP energy -144916.353052 kJ/mol
# GULP energy per Si atom -5573.705887 kJ/mol
# Density = 1.898499 g / cm^3
# Si number density = 19.028299 Si / 1000 Ang^3
#
#
#
# Elastic Constant Matrix: (Units=GPa)
#
#
# Indices 1 2 3 4 5 6 
#
# 1 107.1216 39.7232 40.8774 0.0000 0.0000 0.0000
# 2 39.7232 135.5458 34.8126 0.0000 0.0000 0.0000
# 3 40.8774 34.8126 120.8748 0.0000 0.0000 0.0000
# 4 0.0000 0.0000 0.0000 19.8211 0.0000 0.0000
# 5 0.0000 0.0000 0.0000 0.0000 40.6957 0.0000
# 6 0.0000 0.0000 0.0000 0.0000 0.0000 29.0405
#
#
#
# Elastic Compliance Matrix: (Units=1/GPa)
#
#
# Indices 1 2 3 4 5 6 
#
# 1 0.011485 -0.002557 -0.003147 0.000000 0.000000 0.000000
# 2 -0.002557 0.008536 -0.001594 0.000000 0.000000 0.000000
# 3 -0.003147 -0.001594 0.009796 0.000000 0.000000 0.000000
# 4 0.000000 0.000000 0.000000 0.050451 0.000000 0.000000
# 5 0.000000 0.000000 0.000000 0.000000 0.024573 0.000000
# 6 0.000000 0.000000 0.000000 0.000000 0.000000 0.034435
#
#
# Mechanical properties :
#
#
# Convention : Reuss Voigt Hill
#
# Bulk Modulus (GPa) = 65.70045 66.04096 65.87070
# Shear Modulus (GPa) = 31.45724 34.45339 32.95531
#
# Velocity S-wave (km/s) = 4.07034 4.25978 4.16614
# Velocity P-wave (km/s) = 7.52947 7.67960 7.60491
#
# Compressibility (1/GPa) = 0.01522060
#
# Stress axis : x y z
#
# Youngs Moduli (GPa) = 87.07379 117.14620 102.07870
#
# Poissons Ratio (x) = 0.29958 0.32127
# Poissons Ratio (y) = 0.22268 0.16268
# Poissons Ratio (z) = 0.27405 0.18669
#
# Static dielectric constant tensor:
#      x y z
#    x 1.674390 0.000000 0.000000 
#    y 0.000000 1.683640 0.000000 
#    z 0.000000 0.000000 1.633310 
# 
# From -- ./inp_files/23779.got.cif
#   From: 2010.05.17/outbox.cif.g08.bks.cpg/sg66_12_cif.got.tgz:23779.got - 2010.06.03 17:51:23.
