data_PCOD9498696
_publ_section_title
;
Structure prediction by ZEFSAII (Michael W. Deem and Ramdas Pophale) SiO2 
 PCOD9498696
Probable space group: C C C M
;
_chemical_formula_sum "Si O2"
_cell_formula_units_Z 80
_cell_length_a 17.200067
_cell_length_b 10.217774
_cell_length_c 22.084176
_cell_angle_alpha 90.000000
_cell_angle_beta 90.000000
_cell_angle_gamma 90.000000
_cell_volume 3881.214371
_symmetry_space_group_name_H-M "C C C M"
_symmetry_group_IT_number 66
_symmetry_cell_setting 'orthorhombic'
loop_
_space_group_symop_operation_xyz
x,y,z
-x,-y,z
x,-y,1/2-z
-x,y,1/2-z
-x,-y,-z
x,y,-z
-x,y,1/2+z
x,-y,1/2+z
1/2+x,1/2+y,z
1/2-x,1/2-y,z
1/2+x,1/2-y,1/2-z
1/2-x,1/2+y,1/2-z
1/2-x,1/2-y,-z
1/2+x,1/2+y,-z
1/2-x,1/2+y,1/2+z
1/2+x,1/2-y,1/2+z
loop_
_atom_site_type_symbol
_atom_site_label
_atom_site_fract_x
_atom_site_fract_y
_atom_site_fract_z
Si Si1 0.240657 0.093344 0.127386
Si Si2 0.205441 0.612543 0.500000
Si Si3 0.978211 0.653776 0.000000
Si Si4 0.969440 0.298466 0.131336
Si Si5 0.587524 0.463674 0.178920
Si Si6 0.397494 0.048997 0.816513
O O1 0.250000 0.250000 0.124549
O O2 0.305841 0.058433 0.176390
O O3 0.156602 0.038505 0.144642
O O4 0.268956 0.042388 0.061740
O O5 0.250000 0.750000 0.500000
O O6 0.115077 0.649562 0.500000
O O7 0.000000 0.500000 0.000000
O O8 0.010257 0.721209 0.939000
O O9 0.915537 0.190663 0.163427
O O10 0.925964 0.436804 0.137789
O O11 0.051855 0.322824 0.166443
O O12 0.500000 0.500000 0.158757
O O13 0.594190 0.500000 0.250000
O O14 0.416793 0.000000 0.750000
#
# Coordination Sequence:
#
# PCOD9498696 Si02
#       6
#    16   8   8  16  16  16
#     4  11  23  43  66  95 132 184 223 284 351 416
#     4  10  22  39  67  93 133 171 231 273 337 412
#     4  12  20  43  71 103 134 180 226 291 344 423
#     4  11  23  41  68 102 133 175 228 284 345 410
#     4  11  27  43  64  96 138 178 221 290 350 408
#     4  11  23  39  69  98 132 178 234 279 342 435
#
# _framework density 20.612105
#
# number of rings (size 3 to 8) (size 9 to 14) (size 15 to 20)
#    0.000    1.000    4.000    3.000   11.200    1.600 
#    0.000    1.000    0.000    3.600    0.000    0.000 
#    0.000    0.000    0.000    0.000    0.000    0.000 
#
# Total GULP energy -223239.360361 kJ/mol
# GULP energy per Si atom -5580.984009 kJ/mol
# Density = 2.056519 g / cm^3
# Si number density = 20.612105 Si / 1000 Ang^3
#
#
#
# Elastic Constant Matrix: (Units=GPa)
#
#
# Indices 1 2 3 4 5 6 
#
# 1 150.5998 40.3125 51.4925 0.0000 0.0000 0.0000
# 2 40.3125 79.2360 27.1434 0.0000 0.0000 0.0000
# 3 51.4925 27.1434 168.0346 0.0000 0.0000 0.0000
# 4 0.0000 0.0000 0.0000 17.2736 0.0000 0.0000
# 5 0.0000 0.0000 0.0000 0.0000 -11.0470 0.0000
# 6 0.0000 0.0000 0.0000 0.0000 0.0000 34.5751
#
#
#
# Elastic Compliance Matrix: (Units=1/GPa)
#
#
# Indices 1 2 3 4 5 6 
#
# 1 0.008255 -0.003528 -0.001960 0.000000 0.000000 0.000000
# 2 -0.003528 0.014868 -0.001320 0.000000 0.000000 0.000000
# 3 -0.001960 -0.001320 0.006765 0.000000 0.000000 0.000000
# 4 0.000000 0.000000 0.000000 0.057892 0.000000 0.000000
# 5 0.000000 0.000000 0.000000 0.000000 -0.090522 0.000000
# 6 0.000000 0.000000 0.000000 0.000000 0.000000 0.028923
#
#
# Mechanical properties :
#
#
# Convention : Reuss Voigt Hill
#
# Bulk Modulus (GPa) = 61.46016 70.64079 66.05048
# Shear Modulus (GPa) = 110.57064 26.75513 68.66289
#
# Velocity S-wave (km/s) = 7.33212 3.60673 5.77791
# Velocity P-wave (km/s) = 10.07781 7.18961 8.75365
#
# Compressibility (1/GPa) = 0.01627070
#
# Stress axis : x y z
#
# Youngs Moduli (GPa) = 121.14451 67.25862 147.82073
#
# Poissons Ratio (x) = 0.23731 0.28967
# Poissons Ratio (y) = 0.42744 0.19519
# Poissons Ratio (z) = 0.23739 0.08881
#
# Static dielectric constant tensor:
#      x y z
#    x 1.742490 0.000000 0.000000 
#    y 0.000000 1.810460 0.000000 
#    z 0.000000 0.000000 1.808770 
# 
# From -- ./inp_files/50845.got.cif
#   From: 2010.05.17/outbox.cif.g08.bks.cpg/sg66_26_cif.got.tgz:50845.got - 2010.06.03 17:51:23.
