data_PCOD9498238
_publ_section_title
;
Structure prediction by ZEFSAII (Michael W. Deem and Ramdas Pophale) SiO2 
 PCOD9498238
Probable space group: C C C M
;
_chemical_formula_sum "Si O2"
_cell_formula_units_Z 56
_cell_length_a 10.774036
_cell_length_b 26.030898
_cell_length_c 9.780808
_cell_angle_alpha 90.000000
_cell_angle_beta 90.000000
_cell_angle_gamma 90.000000
_cell_volume 2743.104208
_symmetry_space_group_name_H-M "C C C M"
_symmetry_group_IT_number 66
_symmetry_cell_setting 'orthorhombic'
loop_
_space_group_symop_operation_xyz
x,y,z
-x,-y,z
x,-y,1/2-z
-x,y,1/2-z
-x,-y,-z
x,y,-z
-x,y,1/2+z
x,-y,1/2+z
1/2+x,1/2+y,z
1/2-x,1/2-y,z
1/2+x,1/2-y,1/2-z
1/2-x,1/2+y,1/2-z
1/2-x,1/2-y,-z
1/2+x,1/2+y,-z
1/2-x,1/2+y,1/2+z
1/2+x,1/2-y,1/2+z
loop_
_atom_site_type_symbol
_atom_site_label
_atom_site_fract_x
_atom_site_fract_y
_atom_site_fract_z
Si Si1 0.500000 0.141199 0.250000
Si Si2 0.388971 0.592940 0.655949
Si Si3 0.244115 0.306913 0.839440
Si Si4 0.425780 0.074991 0.500000
Si Si5 0.797037 0.528072 0.000000
O O1 0.396584 0.174226 0.174072
O O2 0.427327 0.107962 0.362474
O O3 0.500000 0.574468 0.750000
O O4 0.436106 0.601691 0.500000
O O5 0.332225 0.646701 0.711041
O O6 0.278371 0.552027 0.628099
O O7 0.250000 0.250000 0.776635
O O8 0.275411 0.302785 0.000000
O O9 0.563976 0.050154 0.500000
O O10 0.318269 0.032497 0.500000
#
# Coordination Sequence:
#
# PCOD9498238 Si02
#       5
#     8  16  16   8   8
#     4  12  20  43  66 102 122 168 211 272 312 392
#     4   9  18  39  63  91 129 172 217 253 321 392
#     4  10  21  39  62  93 133 172 208 262 330 381
#     4  11  22  40  68  92 137 156 222 273 324 374
#     4   9  20  40  61  98 123 180 207 267 332 374
#
# _framework density 20.414826999999999
#
# number of rings (size 3 to 8) (size 9 to 14) (size 15 to 20)
#    0.857    1.143    4.286    0.000    2.000    2.286 
#    2.571    0.714    3.143    5.143    0.000    0.000 
#    0.000    0.000    0.000    0.000    0.000    0.000 
#
# Total GULP energy -156027.723186 kJ/mol
# GULP energy per Si atom -5572.418685 kJ/mol
# Density = 2.036836 g / cm^3
# Si number density = 20.414827 Si / 1000 Ang^3
#
#
#
# Elastic Constant Matrix: (Units=GPa)
#
#
# Indices 1 2 3 4 5 6 
#
# 1 87.2766 45.7141 16.9615 0.0000 0.0000 0.0000
# 2 45.7141 136.3662 30.7497 0.0000 0.0000 0.0000
# 3 16.9615 30.7497 50.2775 0.0000 0.0000 0.0000
# 4 0.0000 0.0000 0.0000 -5.0357 0.0000 0.0000
# 5 0.0000 0.0000 0.0000 0.0000 32.7904 0.0000
# 6 0.0000 0.0000 0.0000 0.0000 0.0000 -10.9629
#
#
#
# Elastic Compliance Matrix: (Units=1/GPa)
#
#
# Indices 1 2 3 4 5 6 
#
# 1 0.014098 -0.004238 -0.002164 0.000000 0.000000 0.000000
# 2 -0.004238 0.009780 -0.004552 0.000000 0.000000 0.000000
# 3 -0.002164 -0.004552 0.023404 0.000000 0.000000 0.000000
# 4 0.000000 0.000000 0.000000 -0.198584 0.000000 0.000000
# 5 0.000000 0.000000 0.000000 0.000000 0.030497 0.000000
# 6 0.000000 0.000000 0.000000 0.000000 0.000000 -0.091217
#
#
# Mechanical properties :
#
#
# Convention : Reuss Voigt Hill
#
# Bulk Modulus (GPa) = 39.41052 51.19676 45.30364
# Shear Modulus (GPa) = -27.52465 15.39139 -6.06663
#
# Velocity S-wave (km/s) = -3.67586 2.74876 -1.72573
# Velocity P-wave (km/s) = 1.15362 5.93354 4.27421
#
# Compressibility (1/GPa) = 0.02537394
#
# Stress axis : x y z
#
# Youngs Moduli (GPa) = 70.93058 102.24556 42.72847
#
# Poissons Ratio (x) = 0.43333 0.09247
# Poissons Ratio (y) = 0.30062 0.19449
# Poissons Ratio (z) = 0.15350 0.46541
#
# Static dielectric constant tensor:
#      x y z
#    x 1.707170 0.000000 0.000000 
#    y 0.000000 1.792960 0.000000 
#    z 0.000000 0.000000 1.717260 
# 
# From -- ./inp_files/3768.got.cif
#   From: 2010.05.17/outbox.cif.g08.bks.cpg/sg66_2_cif.got.tgz:3768.got - 2010.06.03 17:51:23.
