data_PCOD9498801
_publ_section_title
;
Structure prediction by ZEFSAII (Michael W. Deem and Ramdas Pophale) SiO2 
 PCOD9498801
Probable space group: C C C M
;
_chemical_formula_sum "Si O2"
_cell_formula_units_Z 88
_cell_length_a 11.721264
_cell_length_b 12.306530
_cell_length_c 25.270421
_cell_angle_alpha 90.000000
_cell_angle_beta 90.000000
_cell_angle_gamma 90.000000
_cell_volume 3645.209888
_symmetry_space_group_name_H-M "C C C M"
_symmetry_group_IT_number 66
_symmetry_cell_setting 'orthorhombic'
loop_
_space_group_symop_operation_xyz
x,y,z
-x,-y,z
x,-y,1/2-z
-x,y,1/2-z
-x,-y,-z
x,y,-z
-x,y,1/2+z
x,-y,1/2+z
1/2+x,1/2+y,z
1/2-x,1/2-y,z
1/2+x,1/2-y,1/2-z
1/2-x,1/2+y,1/2-z
1/2-x,1/2-y,-z
1/2+x,1/2+y,-z
1/2-x,1/2+y,1/2+z
1/2+x,1/2-y,1/2+z
loop_
_atom_site_type_symbol
_atom_site_label
_atom_site_fract_x
_atom_site_fract_y
_atom_site_fract_z
Si Si1 0.319775 0.946111 0.500000
Si Si2 0.043337 0.875160 0.314074
Si Si3 0.561030 0.168579 0.000000
Si Si4 0.196744 0.974713 0.397439
Si Si5 0.130422 0.532184 0.689137
Si Si6 0.750000 0.250000 0.709329
Si Si7 0.622254 0.293700 0.105955
O O1 0.440499 0.889864 0.500000
O O2 0.253089 0.919884 0.447214
O O3 0.341370 0.076040 0.500000
O O4 0.121018 0.890772 0.365867
O O5 0.138605 0.828235 0.272367
O O6 0.945048 0.797351 0.337900
O O7 0.000000 0.000000 0.303493
O O8 0.572037 0.230731 0.944415
O O9 0.290853 0.019514 0.355649
O O10 0.126184 0.080635 0.412091
O O11 0.155206 0.500000 0.750000
O O12 0.167470 0.657941 0.684868
O O13 0.000000 0.500000 0.679292
O O14 0.750000 0.250000 0.113806
#
# Coordination Sequence:
#
# PCOD9498801 Si02
#       7
#     8  16   8  16  16   8  16
#     4  11  23  37  58  94 131 178 218 281 345 405
#     4   9  22  40  63  99 132 179 229 279 343 414
#     4  11  24  34  53  92 140 169 229 273 335 419
#     4  10  22  41  65  88 136 171 220 285 335 405
#     4  10  24  46  70 105 138 178 233 287 343 420
#     4  10  22  44  74  93 148 175 216 298 354 398
#     4  11  21  37  60  91 124 176 223 272 331 406
#
# _framework density 24.141271
#
# number of rings (size 3 to 8) (size 9 to 14) (size 15 to 20)
#    0.000    1.818    1.818    0.818   10.182    0.727 
#    1.636    9.091    0.000   25.636    0.000    0.000 
#    0.000    0.000    0.000    0.000    0.000    0.000 
#
# Total GULP energy -245218.868024 kJ/mol
# GULP energy per Si atom -5573.156091 kJ/mol
# Density = 2.408632 g / cm^3
# Si number density = 24.141271 Si / 1000 Ang^3
#
#
#
# Elastic Constant Matrix: (Units=GPa)
#
#
# Indices 1 2 3 4 5 6 
#
# 1 105.7035 22.6104 63.9860 0.0000 0.0000 0.0000
# 2 22.6104 97.3782 21.9432 0.0000 0.0000 0.0000
# 3 63.9860 21.9432 154.4359 0.0000 0.0000 0.0000
# 4 0.0000 0.0000 0.0000 -9.6137 0.0000 0.0000
# 5 0.0000 0.0000 0.0000 0.0000 -20.6857 0.0000
# 6 0.0000 0.0000 0.0000 0.0000 0.0000 37.2893
#
#
#
# Elastic Compliance Matrix: (Units=1/GPa)
#
#
# Indices 1 2 3 4 5 6 
#
# 1 0.012944 -0.001856 -0.005099 0.000000 0.000000 0.000000
# 2 -0.001856 0.010875 -0.000776 0.000000 0.000000 0.000000
# 3 -0.005099 -0.000776 0.008698 0.000000 0.000000 0.000000
# 4 0.000000 0.000000 0.000000 -0.104019 0.000000 0.000000
# 5 0.000000 0.000000 0.000000 0.000000 -0.048343 0.000000
# 6 0.000000 0.000000 0.000000 0.000000 0.000000 0.026817
#
#
# Mechanical properties :
#
#
# Convention : Reuss Voigt Hill
#
# Bulk Modulus (GPa) = 58.63720 63.84409 61.24065
# Shear Modulus (GPa) = -69.56257 17.99653 -25.78302
#
# Velocity S-wave (km/s) = -5.37376 2.73329 -3.27158
# Velocity P-wave (km/s) = 3.76314 6.03859 3.33941
#
# Compressibility (1/GPa) = 0.01705402
#
# Stress axis : x y z
#
# Youngs Moduli (GPa) = 77.25386 91.95257 114.96637
#
# Poissons Ratio (x) = 0.17071 0.58625
# Poissons Ratio (y) = 0.14342 0.08922
# Poissons Ratio (z) = 0.39394 0.07136
#
# Static dielectric constant tensor:
#      x y z
#    x 1.999730 0.000000 0.000000 
#    y 0.000000 1.973960 0.000000 
#    z 0.000000 0.000000 1.818920 
# 
# From -- ./inp_files/68919.got.cif
#   From: 2010.05.17/outbox.cif.g08.bks.cpg/sg66_35_cif.got.tgz:68919.got - 2010.06.03 17:51:23.
