data_PCOD9498554
_publ_section_title
;
Structure prediction by ZEFSAII (Michael W. Deem and Ramdas Pophale) SiO2 
 PCOD9498554
Probable space group: C C C M
;
_chemical_formula_sum "Si O2"
_cell_formula_units_Z 88
_cell_length_a 8.460226
_cell_length_b 18.092308
_cell_length_c 28.748945
_cell_angle_alpha 90.000000
_cell_angle_beta 90.000000
_cell_angle_gamma 90.000000
_cell_volume 4400.457684
_symmetry_space_group_name_H-M "C C C M"
_symmetry_group_IT_number 66
_symmetry_cell_setting 'orthorhombic'
loop_
_space_group_symop_operation_xyz
x,y,z
-x,-y,z
x,-y,1/2-z
-x,y,1/2-z
-x,-y,-z
x,y,-z
-x,y,1/2+z
x,-y,1/2+z
1/2+x,1/2+y,z
1/2-x,1/2-y,z
1/2+x,1/2-y,1/2-z
1/2-x,1/2+y,1/2-z
1/2-x,1/2-y,-z
1/2+x,1/2+y,-z
1/2-x,1/2+y,1/2+z
1/2+x,1/2-y,1/2+z
loop_
_atom_site_type_symbol
_atom_site_label
_atom_site_fract_x
_atom_site_fract_y
_atom_site_fract_z
Si Si1 0.579330 0.285559 0.152678
Si Si2 0.197784 0.066903 0.375594
Si Si3 0.000000 0.152253 0.250000
Si Si4 0.050228 0.635534 0.631731
Si Si5 0.825639 0.539014 0.052878
Si Si6 0.759739 0.544986 0.793945
O O1 0.750000 0.250000 0.142588
O O2 0.574910 0.365860 0.128307
O O3 0.566595 0.299658 0.207703
O O4 0.455651 0.223378 0.137577
O O5 0.372077 0.104118 0.373079
O O6 0.205063 0.016887 0.421554
O O7 0.188036 0.013353 0.330958
O O8 0.869003 0.099740 0.272582
O O9 0.148853 0.607950 0.587304
O O10 0.118823 0.594152 0.676809
O O11 0.000000 0.500000 0.052003
O O12 0.782387 0.556325 0.000000
O O13 0.824499 0.500000 0.750000
#
# Coordination Sequence:
#
# PCOD9498554 Si02
#       6
#    16  16   8  16  16  16
#     4  10  22  36  48  72 111 142 176 221 271 331
#     4   9  18  34  52  76 106 139 174 226 271 320
#     4  12  25  34  50  72 101 144 188 220 263 320
#     4   9  20  34  52  77 107 143 177 222 277 327
#     4   8  14  29  54  81 104 133 179 226 273 330
#     4  11  21  34  51  73 101 138 187 228 260 317
#
# _framework density 19.997920000000001
#
# number of rings (size 3 to 8) (size 9 to 14) (size 15 to 20)
#    0.000    2.364    1.818    1.909    2.545    1.455 
#    0.000    0.909    0.000    5.455    0.000   20.364 
#    0.000    0.000    0.000    0.000    0.000    0.000 
#
# Total GULP energy -245659.957306 kJ/mol
# GULP energy per Si atom -5583.180848 kJ/mol
# Density = 1.995240 g / cm^3
# Si number density = 19.997920 Si / 1000 Ang^3
#
#
#
# Elastic Constant Matrix: (Units=GPa)
#
#
# Indices 1 2 3 4 5 6 
#
# 1 34.0073 32.8794 23.6246 0.0000 0.0000 0.0000
# 2 32.8794 155.1353 76.8953 0.0000 0.0000 0.0000
# 3 23.6246 76.8953 158.4536 0.0000 0.0000 0.0000
# 4 0.0000 0.0000 0.0000 3.0855 0.0000 0.0000
# 5 0.0000 0.0000 0.0000 0.0000 -48.4178 0.0000
# 6 0.0000 0.0000 0.0000 0.0000 0.0000 1.8949
#
#
#
# Elastic Compliance Matrix: (Units=1/GPa)
#
#
# Indices 1 2 3 4 5 6 
#
# 1 0.037604 -0.006835 -0.002290 0.000000 0.000000 0.000000
# 2 -0.006835 0.009730 -0.003703 0.000000 0.000000 0.000000
# 3 -0.002290 -0.003703 0.008449 0.000000 0.000000 0.000000
# 4 0.000000 0.000000 0.000000 0.324102 0.000000 0.000000
# 5 0.000000 0.000000 0.000000 0.000000 -0.020654 0.000000
# 6 0.000000 0.000000 0.000000 0.000000 0.000000 0.527733
#
#
# Mechanical properties :
#
#
# Convention : Reuss Voigt Hill
#
# Bulk Modulus (GPa) = 33.19090 68.26610 50.72850
# Shear Modulus (GPa) = 5.41910 5.59230 5.50570
#
# Velocity S-wave (km/s) = 1.64794 1.67407 1.66106
# Velocity P-wave (km/s) = 4.50046 6.16015 5.39451
#
# Compressibility (1/GPa) = 0.03012874
#
# Stress axis : x y z
#
# Youngs Moduli (GPa) = 26.59268 102.77597 118.35348
#
# Poissons Ratio (x) = 0.70247 0.27100
# Poissons Ratio (y) = 0.18176 0.43823
# Poissons Ratio (z) = 0.06089 0.38055
#
# Static dielectric constant tensor:
#      x y z
#    x 1.746000 0.000000 0.000000 
#    y 0.000000 1.736380 0.000000 
#    z 0.000000 0.000000 1.668590 
# 
# From -- ./inp_files/68194.got.cif
#   From: 2010.05.17/outbox.cif.g08.bks.cpg/sg66_35_cif.got.tgz:68194.got - 2010.06.03 17:51:23.
