data_PCOD9498422
_publ_section_title
;
Structure prediction by ZEFSAII (Michael W. Deem and Ramdas Pophale) SiO2 
 PCOD9498422
Probable space group: C C C M
;
_chemical_formula_sum "Si O2"
_cell_formula_units_Z 52
_cell_length_a 11.684142
_cell_length_b 7.849522
_cell_length_c 20.685934
_cell_angle_alpha 90.000000
_cell_angle_beta 90.000000
_cell_angle_gamma 90.000000
_cell_volume 1897.208982
_symmetry_space_group_name_H-M "C C C M"
_symmetry_group_IT_number 66
_symmetry_cell_setting 'orthorhombic'
loop_
_space_group_symop_operation_xyz
x,y,z
-x,-y,z
x,-y,1/2-z
-x,y,1/2-z
-x,-y,-z
x,y,-z
-x,y,1/2+z
x,-y,1/2+z
1/2+x,1/2+y,z
1/2-x,1/2-y,z
1/2+x,1/2-y,1/2-z
1/2-x,1/2+y,1/2-z
1/2-x,1/2-y,-z
1/2+x,1/2+y,-z
1/2-x,1/2+y,1/2+z
1/2+x,1/2-y,1/2+z
loop_
_atom_site_type_symbol
_atom_site_label
_atom_site_fract_x
_atom_site_fract_y
_atom_site_fract_z
Si Si1 0.116090 0.707280 0.500000
Si Si2 0.591472 0.758737 0.850735
Si Si3 0.500000 0.000000 0.750000
Si Si4 0.839534 0.905437 0.642209
Si Si5 0.861653 0.867464 0.500000
O O1 0.250000 0.750000 0.500000
O O2 0.109265 0.654300 0.578163
O O3 0.987111 0.787588 0.500000
O O4 0.668655 0.595468 0.829449
O O5 0.462787 0.679311 0.847214
O O6 0.583918 0.897186 0.796118
O O7 0.750000 0.750000 0.649957
O O8 0.849014 0.964159 0.566483
O O9 0.750000 0.750000 0.500000
#
# Coordination Sequence:
#
# PCOD9498422 Si02
#       5
#     8  16   4  16   8
#     4  10  21  40  73 114 155 201 268 350 419 489
#     4  10  23  43  69 105 151 208 271 336 414 496
#     4  12  28  48  64 100 176 242 280 330 412 516
#     4   9  18  38  71 105 139 193 270 345 408 485
#     4   8  15  33  68 112 152 191 256 345 431 497
#
# _framework density 27.408684999999998
#
# number of rings (size 3 to 8) (size 9 to 14) (size 15 to 20)
#    0.000    2.462    0.000    0.923    0.000    9.231 
#    0.000   10.769    0.000    0.000    0.000    0.000 
#    0.000    0.000    0.000    4.154    0.000    0.000 
#
# Total GULP energy -144826.133453 kJ/mol
# GULP energy per Si atom -5570.235902 kJ/mol
# Density = 2.734630 g / cm^3
# Si number density = 27.408685 Si / 1000 Ang^3
#
#
#
# Elastic Constant Matrix: (Units=GPa)
#
#
# Indices 1 2 3 4 5 6 
#
# 1 206.3287 65.3028 48.9429 0.0000 0.0000 0.0000
# 2 65.3028 134.0406 110.8673 0.0000 0.0000 0.0000
# 3 48.9429 110.8673 155.4542 0.0000 0.0000 0.0000
# 4 0.0000 0.0000 0.0000 39.0481 0.0000 0.0000
# 5 0.0000 0.0000 0.0000 0.0000 -14.9127 0.0000
# 6 0.0000 0.0000 0.0000 0.0000 0.0000 48.8777
#
#
#
# Elastic Compliance Matrix: (Units=1/GPa)
#
#
# Indices 1 2 3 4 5 6 
#
# 1 0.005743 -0.003176 0.000457 0.000000 0.000000 0.000000
# 2 -0.003176 0.019947 -0.013226 0.000000 0.000000 0.000000
# 3 0.000457 -0.013226 0.015722 0.000000 0.000000 0.000000
# 4 0.000000 0.000000 0.000000 0.025609 0.000000 0.000000
# 5 0.000000 0.000000 0.000000 0.000000 -0.067057 0.000000
# 6 0.000000 0.000000 0.000000 0.000000 0.000000 0.020459
#
#
# Mechanical properties :
#
#
# Convention : Reuss Voigt Hill
#
# Bulk Modulus (GPa) = 105.02310 105.11659 105.06985
# Shear Modulus (GPa) = 90.10845 32.65000 61.37922
#
# Velocity S-wave (km/s) = 5.73997 3.45516 4.73737
# Velocity P-wave (km/s) = 9.07360 7.37240 8.26688
#
# Compressibility (1/GPa) = 0.00952171
#
# Stress axis : x y z
#
# Youngs Moduli (GPa) = 174.11081 50.13218 63.60669
#
# Poissons Ratio (x) = 0.15922 -0.02905
# Poissons Ratio (y) = 0.55297 0.84127
# Poissons Ratio (z) = -0.07953 0.66306
#
# Static dielectric constant tensor:
#      x y z
#    x 1.885550 0.000000 0.000000 
#    y 0.000000 2.442400 0.000000 
#    z 0.000000 0.000000 2.151870 
# 
# From -- ./inp_files/25946.got.cif
#   From: 2010.05.17/outbox.cif.g08.bks.cpg/sg66_13_cif.got.tgz:25946.got - 2010.06.03 17:51:23.
