data_PCOD9498356
_publ_section_title
;
Structure prediction by ZEFSAII (Michael W. Deem and Ramdas Pophale) SiO2 
 PCOD9498356
Probable space group: C C C M
;
_chemical_formula_sum "Si O2"
_cell_formula_units_Z 68
_cell_length_a 32.248762
_cell_length_b 7.161748
_cell_length_c 14.840978
_cell_angle_alpha 90.000000
_cell_angle_beta 90.000000
_cell_angle_gamma 90.000000
_cell_volume 3427.635277
_symmetry_space_group_name_H-M "C C C M"
_symmetry_group_IT_number 66
_symmetry_cell_setting 'orthorhombic'
loop_
_space_group_symop_operation_xyz
x,y,z
-x,-y,z
x,-y,1/2-z
-x,y,1/2-z
-x,-y,-z
x,y,-z
-x,y,1/2+z
x,-y,1/2+z
1/2+x,1/2+y,z
1/2-x,1/2-y,z
1/2+x,1/2-y,1/2-z
1/2-x,1/2+y,1/2-z
1/2-x,1/2-y,-z
1/2+x,1/2+y,-z
1/2-x,1/2+y,1/2+z
1/2+x,1/2-y,1/2+z
loop_
_atom_site_type_symbol
_atom_site_label
_atom_site_fract_x
_atom_site_fract_y
_atom_site_fract_z
Si Si1 0.000000 0.500000 0.500000
Si Si2 0.702082 0.718955 0.730359
Si Si3 0.149153 0.701689 0.604217
Si Si4 0.429235 0.939452 0.151107
Si Si5 0.870066 0.141242 0.894639
O O1 0.964768 0.539031 0.421665
O O2 0.699168 0.500000 0.750000
O O3 0.750000 0.750000 0.709810
O O4 0.684827 0.822411 0.819877
O O5 0.669870 0.741578 0.649034
O O6 0.162851 0.677527 0.500000
O O7 0.109975 0.570699 0.624231
O O8 0.134236 0.918077 0.614385
O O9 0.442893 0.000000 0.250000
O O10 0.410207 0.730543 0.151807
O O11 0.872529 0.184530 0.000000
#
# Coordination Sequence:
#
# PCOD9498356 Si02
#       5
#     4  16  16  16  16
#     4  12  26  44  62 110 120 154 226 260 302 402
#     4  10  22  36  58  92 125 161 218 261 298 372
#     4  10  21  40  64  88 122 171 209 250 317 375
#     4  12  23  41  69  92 127 165 204 261 327 370
#     4  10  21  40  64  88 122 171 209 250 317 375
#
# _framework density 19.838750999999998
#
# number of rings (size 3 to 8) (size 9 to 14) (size 15 to 20)
#    0.000    1.412    4.706    0.353    3.294    0.941 
#    0.000    2.353    0.000    2.824    0.000    0.000 
#    0.000    0.000    0.000    0.000    0.000    0.000 
#
# Total GULP energy -189347.700956 kJ/mol
# GULP energy per Si atom -5569.050028 kJ/mol
# Density = 1.979360 g / cm^3
# Si number density = 19.838751 Si / 1000 Ang^3
#
#
#
# Elastic Constant Matrix: (Units=GPa)
#
#
# Indices 1 2 3 4 5 6 
#
# 1 95.0955 -1.4456 5.3591 0.0000 0.0000 0.0000
# 2 -1.4456 43.7242 -1.3559 0.0000 0.0000 0.0000
# 3 5.3591 -1.3559 92.4623 0.0000 0.0000 0.0000
# 4 0.0000 0.0000 0.0000 23.2653 0.0000 0.0000
# 5 0.0000 0.0000 0.0000 0.0000 -446.2154 0.0000
# 6 0.0000 0.0000 0.0000 0.0000 0.0000 -0.6056
#
#
#
# Elastic Compliance Matrix: (Units=1/GPa)
#
#
# Indices 1 2 3 4 5 6 
#
# 1 0.010555 0.000330 -0.000607 0.000000 0.000000 0.000000
# 2 0.000330 0.022891 0.000317 0.000000 0.000000 0.000000
# 3 -0.000607 0.000317 0.010855 0.000000 0.000000 0.000000
# 4 0.000000 0.000000 0.000000 0.042982 0.000000 0.000000
# 5 0.000000 0.000000 0.000000 0.000000 -0.002241 0.000000
# 6 0.000000 0.000000 0.000000 0.000000 0.000000 -1.651125
#
#
# Mechanical properties :
#
#
# Convention : Reuss Voigt Hill
#
# Bulk Modulus (GPa) = 22.53221 26.26636 24.39928
# Shear Modulus (GPa) = -3.22296 -69.46286 -36.34291
#
# Velocity S-wave (km/s) = -1.27597 -5.92366 -4.28473
# Velocity P-wave (km/s) = 3.03505 5.78944 3.48612
#
# Compressibility (1/GPa) = 0.04438092
#
# Stress axis : x y z
#
# Youngs Moduli (GPa) = 94.74217 43.68460 92.12310
#
# Poissons Ratio (x) = -0.01442 0.05591
# Poissons Ratio (y) = -0.03128 -0.02916
# Poissons Ratio (z) = 0.05750 -0.01383
#
# Static dielectric constant tensor:
#      x y z
#    x 1.702140 0.000000 0.000000 
#    y 0.000000 1.763790 0.000000 
#    z 0.000000 0.000000 1.706730 
# 
# From -- ./inp_files/32940.got.cif
#   From: 2010.05.17/outbox.cif.g08.bks.cpg/sg66_17_cif.got.tgz:32940.got - 2010.06.03 17:51:23.
