data_PCOD9498197
_publ_section_title
;
Structure prediction by ZEFSAII (Michael W. Deem and Ramdas Pophale) SiO2 
 PCOD9498197
Probable space group: C C C M
;
_chemical_formula_sum "Si O2"
_cell_formula_units_Z 64
_cell_length_a 18.105563
_cell_length_b 19.609471
_cell_length_c 9.817618
_cell_angle_alpha 90.000000
_cell_angle_beta 90.000000
_cell_angle_gamma 90.000000
_cell_volume 3485.652127
_symmetry_space_group_name_H-M "C C C M"
_symmetry_group_IT_number 66
_symmetry_cell_setting 'orthorhombic'
loop_
_space_group_symop_operation_xyz
x,y,z
-x,-y,z
x,-y,1/2-z
-x,y,1/2-z
-x,-y,-z
x,y,-z
-x,y,1/2+z
x,-y,1/2+z
1/2+x,1/2+y,z
1/2-x,1/2-y,z
1/2+x,1/2-y,1/2-z
1/2-x,1/2+y,1/2-z
1/2-x,1/2-y,-z
1/2+x,1/2+y,-z
1/2-x,1/2+y,1/2+z
1/2+x,1/2-y,1/2+z
loop_
_atom_site_type_symbol
_atom_site_label
_atom_site_fract_x
_atom_site_fract_y
_atom_site_fract_z
Si Si1 0.075062 0.059282 0.662388
Si Si2 0.082548 0.581771 0.000000
Si Si3 0.327686 0.307848 0.660517
Si Si4 0.839363 0.660797 0.743973
Si Si5 0.404333 0.081302 0.000000
O O1 0.066313 0.043044 0.500000
O O2 0.117806 0.129412 0.669622
O O3 0.000000 0.067858 0.750000
O O4 0.115193 0.000000 0.750000
O O5 0.118861 0.620269 0.126125
O O6 0.103239 0.501209 0.000000
O O7 0.993612 0.590415 0.000000
O O8 0.319903 0.289465 0.500000
O O9 0.248593 0.333627 0.716276
O O10 0.358009 0.241495 0.738905
O O11 0.865352 0.619167 0.874570
#
# Coordination Sequence:
#
# PCOD9498197 Si02
#       5
#    16   8  16  16   8
#     4  10  21  39  59  89 120 155 198 245 300 358
#     4  11  22  43  64  82 134 169 202 249 308 380
#     4  10  21  41  66  86 119 168 201 242 310 374
#     4  11  21  43  63  87 125 160 203 251 304 362
#     4  11  26  37  60 102 120 159 210 265 304 344
#
# _framework density 18.360982
#
# number of rings (size 3 to 8) (size 9 to 14) (size 15 to 20)
#    0.000    1.500    2.500    3.750    0.000    8.000 
#    9.000    0.000    0.000    0.000    0.000    0.000 
#    0.000    0.000    0.000    0.000    0.000    0.000 
#
# Total GULP energy -178272.209887 kJ/mol
# GULP energy per Si atom -5571.006559 kJ/mol
# Density = 1.831919 g / cm^3
# Si number density = 18.360982 Si / 1000 Ang^3
#
#
#
# Elastic Constant Matrix: (Units=GPa)
#
#
# Indices 1 2 3 4 5 6 
#
# 1 48.6641 49.7596 18.6587 0.0000 0.0000 0.0000
# 2 49.7596 97.6431 -5.9405 0.0000 0.0000 0.0000
# 3 18.6587 -5.9405 78.8250 0.0000 0.0000 0.0000
# 4 0.0000 0.0000 0.0000 14.5099 0.0000 0.0000
# 5 0.0000 0.0000 0.0000 0.0000 2.2082 0.0000
# 6 0.0000 0.0000 0.0000 0.0000 0.0000 48.6952
#
#
#
# Elastic Compliance Matrix: (Units=1/GPa)
#
#
# Indices 1 2 3 4 5 6 
#
# 1 0.057761 -0.030407 -0.015964 0.000000 0.000000 0.000000
# 2 -0.030407 0.026295 0.009179 0.000000 0.000000 0.000000
# 3 -0.015964 0.009179 0.017157 0.000000 0.000000 0.000000
# 4 0.000000 0.000000 0.000000 0.068918 0.000000 0.000000
# 5 0.000000 0.000000 0.000000 0.000000 0.452853 0.000000
# 6 0.000000 0.000000 0.000000 0.000000 0.000000 0.020536
#
#
# Mechanical properties :
#
#
# Convention : Reuss Voigt Hill
#
# Bulk Modulus (GPa) = 37.27147 38.89864 38.08505
# Shear Modulus (GPa) = 6.87902 23.92630 15.40266
#
# Velocity S-wave (km/s) = 1.93770 3.61377 2.89948
# Velocity P-wave (km/s) = 5.03484 6.21643 5.65657
#
# Compressibility (1/GPa) = 0.02683018
#
# Stress axis : x y z
#
# Youngs Moduli (GPa) = 17.31260 38.02951 58.28521
#
# Poissons Ratio (x) = 1.15636 0.93048
# Poissons Ratio (y) = 0.52642 -0.53502
# Poissons Ratio (z) = 0.27638 -0.34908
#
# Static dielectric constant tensor:
#      x y z
#    x 1.631470 0.000000 0.000000 
#    y 0.000000 1.644840 0.000000 
#    z 0.000000 0.000000 1.102280 
# 
# From -- ./inp_files/6189.got.cif
#   From: 2010.05.17/outbox.cif.g08.bks.cpg/sg66_4_cif.got.tgz:6189.got - 2010.06.03 17:51:23.
