data_PCOD9498803
_publ_section_title
;
Structure prediction by ZEFSAII (Michael W. Deem and Ramdas Pophale) SiO2 
 PCOD9498803
Probable space group: C C C M
;
_chemical_formula_sum "Si O2"
_cell_formula_units_Z 52
_cell_length_a 9.566308
_cell_length_b 17.220796
_cell_length_c 13.801575
_cell_angle_alpha 90.000000
_cell_angle_beta 90.000000
_cell_angle_gamma 90.000000
_cell_volume 2273.663716
_symmetry_space_group_name_H-M "C C C M"
_symmetry_group_IT_number 66
_symmetry_cell_setting 'orthorhombic'
loop_
_space_group_symop_operation_xyz
x,y,z
-x,-y,z
x,-y,1/2-z
-x,y,1/2-z
-x,-y,-z
x,y,-z
-x,y,1/2+z
x,-y,1/2+z
1/2+x,1/2+y,z
1/2-x,1/2-y,z
1/2+x,1/2-y,1/2-z
1/2-x,1/2+y,1/2-z
1/2-x,1/2-y,-z
1/2+x,1/2+y,-z
1/2-x,1/2+y,1/2+z
1/2+x,1/2-y,1/2+z
loop_
_atom_site_type_symbol
_atom_site_label
_atom_site_fract_x
_atom_site_fract_y
_atom_site_fract_z
Si Si1 0.500000 0.000000 0.250000
Si Si2 0.407662 0.262685 0.382059
Si Si3 0.633009 0.128640 0.616586
Si Si4 0.948336 0.914660 0.883287
O O1 0.582273 0.055771 0.321986
O O2 0.403592 0.259786 0.500000
O O3 0.250000 0.250000 0.346387
O O4 0.532431 0.201833 0.357381
O O5 0.442386 0.349942 0.352658
O O6 0.617413 0.118460 0.500000
O O7 0.798231 0.125066 0.637791
O O8 0.948890 0.919387 0.000000
O O9 0.000000 0.000000 0.851178
#
# Coordination Sequence:
#
# PCOD9498803 Si02
#       4
#     4  16  16  16
#     4  12  26  40  62  98 126 160 224 268 304 386
#     4   9  18  34  62  97 128 164 209 255 314 383
#     4  10  22  41  65  90 130 171 207 263 322 374
#     4   9  18  34  63  98 127 163 210 255 313 383
#
# _framework density 22.870577000000001
#
# number of rings (size 3 to 8) (size 9 to 14) (size 15 to 20)
#    0.000    2.462    0.000    1.385    4.308    3.692 
#    0.000    3.846    0.000    0.000    0.000    0.000 
#    0.000    0.000    0.000    0.000    0.000    0.000 
#
# Total GULP energy -145000.270384 kJ/mol
# GULP energy per Si atom -5576.933476 kJ/mol
# Density = 2.281852 g / cm^3
# Si number density = 22.870577 Si / 1000 Ang^3
#
#
#
# Elastic Constant Matrix: (Units=GPa)
#
#
# Indices 1 2 3 4 5 6 
#
# 1 196.3250 133.0761 31.2747 0.0000 0.0000 0.0000
# 2 133.0761 222.1166 17.7370 0.0000 0.0000 0.0000
# 3 31.2747 17.7370 91.7089 0.0000 0.0000 0.0000
# 4 0.0000 0.0000 0.0000 -98.4241 0.0000 0.0000
# 5 0.0000 0.0000 0.0000 0.0000 82.0401 0.0000
# 6 0.0000 0.0000 0.0000 0.0000 0.0000 23.0970
#
#
#
# Elastic Compliance Matrix: (Units=1/GPa)
#
#
# Indices 1 2 3 4 5 6 
#
# 1 0.008939 -0.005192 -0.002044 0.000000 0.000000 0.000000
# 2 -0.005192 0.007589 0.000303 0.000000 0.000000 0.000000
# 3 -0.002044 0.000303 0.011543 0.000000 0.000000 0.000000
# 4 0.000000 0.000000 0.000000 -0.010160 0.000000 0.000000
# 5 0.000000 0.000000 0.000000 0.000000 0.012189 0.000000
# 6 0.000000 0.000000 0.000000 0.000000 0.000000 0.043296
#
#
# Mechanical properties :
#
#
# Convention : Reuss Voigt Hill
#
# Bulk Modulus (GPa) = 70.40610 97.14733 83.77671
# Shear Modulus (GPa) = 54.35037 23.21343 38.78190
#
# Velocity S-wave (km/s) = 4.88015 3.18935 4.12237
# Velocity P-wave (km/s) = 7.91239 7.49212 7.70512
#
# Compressibility (1/GPa) = 0.01420332
#
# Stress axis : x y z
#
# Youngs Moduli (GPa) = 111.87375 131.77468 86.63599
#
# Poissons Ratio (x) = 0.68419 0.17709
# Poissons Ratio (y) = 0.58087 -0.02625
# Poissons Ratio (z) = 0.22868 -0.03992
#
# Static dielectric constant tensor:
#      x y z
#    x 1.728630 0.000000 0.000000 
#    y 0.000000 1.768120 0.000000 
#    z 0.000000 0.000000 1.881740 
# 
# From -- ./inp_files/35959.got.cif
#   From: 2010.05.17/outbox.cif.g08.bks.cpg/sg66_18_cif.got.tgz:35959.got - 2010.06.03 17:51:23.
