data_PCOD9498436
_publ_section_title
;
Structure prediction by ZEFSAII (Michael W. Deem and Ramdas Pophale) SiO2 
 PCOD9498436
Probable space group: C C C M
;
_chemical_formula_sum "Si O2"
_cell_formula_units_Z 68
_cell_length_a 7.793082
_cell_length_b 16.728077
_cell_length_c 23.583235
_cell_angle_alpha 90.000000
_cell_angle_beta 90.000000
_cell_angle_gamma 90.000000
_cell_volume 3074.387768
_symmetry_space_group_name_H-M "C C C M"
_symmetry_group_IT_number 66
_symmetry_cell_setting 'orthorhombic'
loop_
_space_group_symop_operation_xyz
x,y,z
-x,-y,z
x,-y,1/2-z
-x,y,1/2-z
-x,-y,-z
x,y,-z
-x,y,1/2+z
x,-y,1/2+z
1/2+x,1/2+y,z
1/2-x,1/2-y,z
1/2+x,1/2-y,1/2-z
1/2-x,1/2+y,1/2-z
1/2-x,1/2-y,-z
1/2+x,1/2+y,-z
1/2-x,1/2+y,1/2+z
1/2+x,1/2-y,1/2+z
loop_
_atom_site_type_symbol
_atom_site_label
_atom_site_fract_x
_atom_site_fract_y
_atom_site_fract_z
Si Si1 0.274964 0.844979 0.297625
Si Si2 0.665074 0.603841 0.917420
Si Si3 0.765254 0.927087 0.561379
Si Si4 0.250000 0.250000 0.000000
Si Si5 0.677586 0.840579 0.676246
O O1 0.250000 0.750000 0.296232
O O2 0.173051 0.882548 0.349808
O O3 0.476618 0.850397 0.310944
O O4 0.235167 0.874765 0.233852
O O5 0.469305 0.590367 0.936635
O O6 0.761560 0.521824 0.932383
O O7 0.736946 0.679850 0.950497
O O8 0.698369 0.899076 0.500000
O O9 0.699817 0.883188 0.616640
O O10 0.750000 0.750000 0.670330
#
# Coordination Sequence:
#
# PCOD9498436 Si02
#       5
#    16  16  16   4  16
#     4  10  21  41  65  91 121 166 220 259 310 380
#     4  11  22  39  69  92 125 169 207 261 317 389
#     4  11  23  43  59  94 133 163 210 263 318 375
#     4  12  20  38  68 100 118 172 212 252 324 378
#     4  10  23  40  63  93 128 164 209 269 316 366
#
# _framework density 22.118226
#
# number of rings (size 3 to 8) (size 9 to 14) (size 15 to 20)
#    0.000    1.412    3.529    2.118    0.000    5.176 
#    2.118    5.882    0.000    0.000    0.000    0.000 
#    0.000    0.000    0.000    0.000    0.000    0.000 
#
# Total GULP energy -189418.152189 kJ/mol
# GULP energy per Si atom -5571.122123 kJ/mol
# Density = 2.206788 g / cm^3
# Si number density = 22.118226 Si / 1000 Ang^3
#
#
#
# Elastic Constant Matrix: (Units=GPa)
#
#
# Indices 1 2 3 4 5 6 
#
# 1 19.9097 14.2715 31.6836 0.0000 0.0000 0.0000
# 2 14.2715 104.5876 90.8540 0.0000 0.0000 0.0000
# 3 31.6836 90.8540 279.6815 0.0000 0.0000 0.0000
# 4 0.0000 0.0000 0.0000 82.5199 0.0000 0.0000
# 5 0.0000 0.0000 0.0000 0.0000 30.5011 0.0000
# 6 0.0000 0.0000 0.0000 0.0000 0.0000 20.6319
#
#
#
# Elastic Compliance Matrix: (Units=1/GPa)
#
#
# Indices 1 2 3 4 5 6 
#
# 1 0.062075 -0.003290 -0.005963 0.000000 0.000000 0.000000
# 2 -0.003290 0.013495 -0.004011 0.000000 0.000000 0.000000
# 3 -0.005963 -0.004011 0.005554 0.000000 0.000000 0.000000
# 4 0.000000 0.000000 0.000000 0.012118 0.000000 0.000000
# 5 0.000000 0.000000 0.000000 0.000000 0.032786 0.000000
# 6 0.000000 0.000000 0.000000 0.000000 0.000000 0.048469
#
#
# Mechanical properties :
#
#
# Convention : Reuss Voigt Hill
#
# Bulk Modulus (GPa) = 18.31683 75.31077 46.81380
# Shear Modulus (GPa) = 22.80780 44.55524 33.68152
#
# Velocity S-wave (km/s) = 3.21468 4.49309 3.90653
# Velocity P-wave (km/s) = 4.69874 7.81283 6.44664
#
# Compressibility (1/GPa) = 0.05459461
#
# Stress axis : x y z
#
# Youngs Moduli (GPa) = 16.10957 74.10376 180.05031
#
# Poissons Ratio (x) = 0.24381 1.07370
# Poissons Ratio (y) = 0.05300 0.72218
# Poissons Ratio (z) = 0.09607 0.29723
#
# Static dielectric constant tensor:
#      x y z
#    x 1.845710 0.000000 0.000000 
#    y 0.000000 1.764750 0.000000 
#    z 0.000000 0.000000 1.850800 
# 
# From -- ./inp_files/46751.got.cif
#   From: 2010.05.17/outbox.cif.g08.bks.cpg/sg66_24_cif.got.tgz:46751.got - 2010.06.03 17:51:23.
