data_PCOD9498268
_publ_section_title
;
Structure prediction by ZEFSAII (Michael W. Deem and Ramdas Pophale) SiO2 
 PCOD9498268
Probable space group: C C C M
;
_chemical_formula_sum "Si O2"
_cell_formula_units_Z 56
_cell_length_a 31.191519
_cell_length_b 5.040827
_cell_length_c 16.677544
_cell_angle_alpha 90.000000
_cell_angle_beta 90.000000
_cell_angle_gamma 90.000000
_cell_volume 2622.227774
_symmetry_space_group_name_H-M "C C C M"
_symmetry_group_IT_number 66
_symmetry_cell_setting 'orthorhombic'
loop_
_space_group_symop_operation_xyz
x,y,z
-x,-y,z
x,-y,1/2-z
-x,y,1/2-z
-x,-y,-z
x,y,-z
-x,y,1/2+z
x,-y,1/2+z
1/2+x,1/2+y,z
1/2-x,1/2-y,z
1/2+x,1/2-y,1/2-z
1/2-x,1/2+y,1/2-z
1/2-x,1/2-y,-z
1/2+x,1/2+y,-z
1/2-x,1/2+y,1/2+z
1/2+x,1/2-y,1/2+z
loop_
_atom_site_type_symbol
_atom_site_label
_atom_site_fract_x
_atom_site_fract_y
_atom_site_fract_z
Si Si1 0.880593 0.413298 0.841557
Si Si2 0.750000 0.750000 0.192821
Si Si3 0.333826 0.403260 0.093938
Si Si4 0.970688 0.240264 0.907201
O O1 0.875772 0.500000 0.750000
O O2 0.869330 0.673355 0.893487
O O3 0.927964 0.303353 0.858790
O O4 0.849047 0.174731 0.864953
O O5 0.758016 0.500000 0.250000
O O6 0.708954 0.695354 0.137612
O O7 0.326942 0.448230 0.000000
O O8 0.000000 0.500000 0.907587
O O9 0.958442 0.177369 0.000000
O O10 0.000000 0.000000 0.876393
#
# Coordination Sequence:
#
# PCOD9498268 Si02
#       4
#    16   8  16  16
#     4  12  25  43  67  98 135 174 220 276 333 388
#     4  12  25  44  69  98 136 172 214 272 333 388
#     4  12  25  44  69  98 132 175 223 268 325 397
#     4  10  21  39  64  93 127 168 213 262 319 384
#
# _framework density 21.355885000000001
#
# number of rings (size 3 to 8) (size 9 to 14) (size 15 to 20)
#    0.000    0.571    0.000    9.857    0.000    2.857 
#    0.000    5.714    0.000    0.000    0.000    0.000 
#    0.000    0.000    0.000    0.000    0.000    0.000 
#
# Total GULP energy -156929.222884 kJ/mol
# GULP energy per Si atom -5604.615103 kJ/mol
# Density = 2.130728 g / cm^3
# Si number density = 21.355885 Si / 1000 Ang^3
#
#
#
# Elastic Constant Matrix: (Units=GPa)
#
#
# Indices 1 2 3 4 5 6 
#
# 1 105.8665 51.2477 93.3666 0.0000 0.0000 0.0000
# 2 51.2477 159.1483 78.9373 0.0000 0.0000 0.0000
# 3 93.3666 78.9373 160.1221 0.0000 0.0000 0.0000
# 4 0.0000 0.0000 0.0000 38.6909 0.0000 0.0000
# 5 0.0000 0.0000 0.0000 0.0000 21.6905 0.0000
# 6 0.0000 0.0000 0.0000 0.0000 0.0000 42.4218
#
#
#
# Elastic Compliance Matrix: (Units=1/GPa)
#
#
# Indices 1 2 3 4 5 6 
#
# 1 0.019532 -0.000848 -0.010971 0.000000 0.000000 0.000000
# 2 -0.000848 0.008354 -0.003624 0.000000 0.000000 0.000000
# 3 -0.010971 -0.003624 0.014429 0.000000 0.000000 0.000000
# 4 0.000000 0.000000 0.000000 0.025846 0.000000 0.000000
# 5 0.000000 0.000000 0.000000 0.000000 0.046103 0.000000
# 6 0.000000 0.000000 0.000000 0.000000 0.000000 0.023573
#
#
# Mechanical properties :
#
#
# Convention : Reuss Voigt Hill
#
# Bulk Modulus (GPa) = 87.49584 96.91556 92.20570
# Shear Modulus (GPa) = 28.98014 33.99966 31.48990
#
# Velocity S-wave (km/s) = 3.68776 3.99438 3.84413
# Velocity P-wave (km/s) = 7.69364 8.17026 7.93553
#
# Compressibility (1/GPa) = 0.01142912
#
# Stress axis : x y z
#
# Youngs Moduli (GPa) = 51.19827 119.70385 69.30537
#
# Poissons Ratio (x) = 0.10150 0.76035
# Poissons Ratio (y) = 0.04341 0.25116
# Poissons Ratio (z) = 0.56169 0.43380
#
# Static dielectric constant tensor:
#      x y z
#    x 1.756730 0.000000 0.000000 
#    y 0.000000 1.747400 0.000000 
#    z 0.000000 0.000000 1.748740 
# 
# From -- ./inp_files/33542.got.cif
#   From: 2010.05.17/outbox.cif.g08.bks.cpg/sg66_17_cif.got.tgz:33542.got - 2010.06.03 17:51:23.
