data_PCOD9498159
_publ_section_title
;
Structure prediction by ZEFSAII (Michael W. Deem and Ramdas Pophale) SiO2 
 PCOD9498159
Probable space group: C C C M
;
_chemical_formula_sum "Si O2"
_cell_formula_units_Z 64
_cell_length_a 22.122708
_cell_length_b 8.945754
_cell_length_c 14.105348
_cell_angle_alpha 90.000000
_cell_angle_beta 90.000000
_cell_angle_gamma 90.000000
_cell_volume 2791.509073
_symmetry_space_group_name_H-M "C C C M"
_symmetry_group_IT_number 66
_symmetry_cell_setting 'orthorhombic'
loop_
_space_group_symop_operation_xyz
x,y,z
-x,-y,z
x,-y,1/2-z
-x,y,1/2-z
-x,-y,-z
x,y,-z
-x,y,1/2+z
x,-y,1/2+z
1/2+x,1/2+y,z
1/2-x,1/2-y,z
1/2+x,1/2-y,1/2-z
1/2-x,1/2+y,1/2-z
1/2-x,1/2-y,-z
1/2+x,1/2+y,-z
1/2-x,1/2+y,1/2+z
1/2+x,1/2-y,1/2+z
loop_
_atom_site_type_symbol
_atom_site_label
_atom_site_fract_x
_atom_site_fract_y
_atom_site_fract_z
Si Si1 0.440940 0.401617 0.107508
Si Si2 0.331111 0.363827 0.609818
Si Si3 0.223822 0.583253 0.387383
Si Si4 0.891287 0.347820 0.735919
O O1 0.500000 0.500000 0.124960
O O2 0.382064 0.507093 0.110851
O O3 0.431124 0.274865 0.183720
O O4 0.445278 0.340768 0.000000
O O5 0.323956 0.314187 0.500000
O O6 0.269634 0.449170 0.641304
O O7 0.357072 0.235296 0.677347
O O8 0.215969 0.566912 0.500000
O O9 0.250000 0.750000 0.371326
O O10 0.160929 0.592084 0.334446
O O11 0.927659 0.500000 0.750000
#
# Coordination Sequence:
#
# PCOD9498159 Si02
#       4
#    16  16  16  16
#     4  10  22  44  71  94 124 173 231 287 344 402
#     4  10  23  42  63  94 136 182 225 272 335 407
#     4  10  21  38  63  95 136 180 225 275 334 407
#     4  12  26  38  66 102 140 177 226 281 341 416
#
# _framework density 22.926666999999998
#
# number of rings (size 3 to 8) (size 9 to 14) (size 15 to 20)
#    0.000    1.500    2.500    1.500    3.500    4.000 
#    0.000    5.000    0.000    4.500    0.000    0.000 
#    0.000    0.000    0.000    0.000    0.000    0.000 
#
# Total GULP energy -179130.212677 kJ/mol
# GULP energy per Si atom -5597.819146 kJ/mol
# Density = 2.287448 g / cm^3
# Si number density = 22.926667 Si / 1000 Ang^3
#
#
#
# Elastic Constant Matrix: (Units=GPa)
#
#
# Indices 1 2 3 4 5 6 
#
# 1 83.6372 13.7023 27.1601 0.0000 0.0000 0.0000
# 2 13.7023 135.2038 79.6048 0.0000 0.0000 0.0000
# 3 27.1601 79.6048 98.6671 0.0000 0.0000 0.0000
# 4 0.0000 0.0000 0.0000 -6.6231 0.0000 0.0000
# 5 0.0000 0.0000 0.0000 0.0000 -3.6390 0.0000
# 6 0.0000 0.0000 0.0000 0.0000 0.0000 11.2065
#
#
#
# Elastic Compliance Matrix: (Units=1/GPa)
#
#
# Indices 1 2 3 4 5 6 
#
# 1 0.013296 0.001538 -0.004901 0.000000 0.000000 0.000000
# 2 0.001538 0.014267 -0.011934 0.000000 0.000000 0.000000
# 3 -0.004901 -0.011934 0.021112 0.000000 0.000000 0.000000
# 4 0.000000 0.000000 0.000000 -0.150988 0.000000 0.000000
# 5 0.000000 0.000000 0.000000 0.000000 -0.274803 0.000000
# 6 0.000000 0.000000 0.000000 0.000000 0.000000 0.089234
#
#
# Mechanical properties :
#
#
# Convention : Reuss Voigt Hill
#
# Bulk Modulus (GPa) = 55.30436 62.04916 58.67676
# Shear Modulus (GPa) = -19.89956 13.32496 -3.28730
#
# Velocity S-wave (km/s) = -2.94932 2.41342 -1.19873
# Velocity P-wave (km/s) = 3.54636 5.90670 4.87164
#
# Compressibility (1/GPa) = 0.01808176
#
# Stress axis : x y z
#
# Youngs Moduli (GPa) = 75.21109 70.09338 47.36568
#
# Poissons Ratio (x) = -0.10781 0.23213
# Poissons Ratio (y) = -0.11568 0.56525
# Poissons Ratio (z) = 0.36860 0.83648
#
# Static dielectric constant tensor:
#      x y z
#    x 1.846800 0.000000 0.000000 
#    y 0.000000 1.993350 0.000000 
#    z 0.000000 0.000000 1.878480 
# 
# From -- ./inp_files/24118.got.cif
#   From: 2010.05.17/outbox.cif.g08.bks.cpg/sg66_13_cif.got.tgz:24118.got - 2010.06.03 17:51:23.
