data_PCOD9498329
_publ_section_title
;
Structure prediction by ZEFSAII (Michael W. Deem and Ramdas Pophale) SiO2 
 PCOD9498329
Probable space group: C C C M
;
_chemical_formula_sum "Si O2"
_cell_formula_units_Z 88
_cell_length_a 12.450272
_cell_length_b 16.935516
_cell_length_c 18.928796
_cell_angle_alpha 90.000000
_cell_angle_beta 90.000000
_cell_angle_gamma 90.000000
_cell_volume 3991.170342
_symmetry_space_group_name_H-M "C C C M"
_symmetry_group_IT_number 66
_symmetry_cell_setting 'orthorhombic'
loop_
_space_group_symop_operation_xyz
x,y,z
-x,-y,z
x,-y,1/2-z
-x,y,1/2-z
-x,-y,-z
x,y,-z
-x,y,1/2+z
x,-y,1/2+z
1/2+x,1/2+y,z
1/2-x,1/2-y,z
1/2+x,1/2-y,1/2-z
1/2-x,1/2+y,1/2-z
1/2-x,1/2-y,-z
1/2+x,1/2+y,-z
1/2-x,1/2+y,1/2+z
1/2+x,1/2-y,1/2+z
loop_
_atom_site_type_symbol
_atom_site_label
_atom_site_fract_x
_atom_site_fract_y
_atom_site_fract_z
Si Si1 0.209229 0.990668 0.638653
Si Si2 0.655352 0.564666 0.000000
Si Si3 0.872443 0.255665 0.859095
Si Si4 0.563208 0.932894 0.368355
Si Si5 0.490940 0.717280 0.500000
Si Si6 0.625258 0.617220 0.747748
Si Si7 0.590395 0.112137 0.500000
O O1 0.137951 0.985412 0.569706
O O2 0.189935 0.907435 0.680881
O O3 0.325843 0.021977 0.615419
O O4 0.173427 0.058372 0.690806
O O5 0.580155 0.639793 0.000000
O O6 0.783774 0.588377 0.000000
O O7 0.750000 0.250000 0.884685
O O8 0.907050 0.345582 0.841326
O O9 0.873141 0.203663 0.787424
O O10 0.942009 0.224362 0.926082
O O11 0.483280 0.915219 0.433884
O O12 0.500000 0.000000 0.324797
O O13 0.414225 0.793442 0.500000
O O14 0.500000 0.596906 0.750000
#
# Coordination Sequence:
#
# PCOD9498329 Si02
#       7
#    16   8  16  16   8  16   8
#     4  11  23  41  74 101 140 185 236 303 351 440
#     4  12  22  42  73 108 140 190 243 286 374 439
#     4  11  23  46  72 101 143 192 239 295 376 441
#     4  11  21  42  70 107 139 180 238 299 369 421
#     4  10  24  38  68 109 143 187 242 302 347 448
#     4  11  25  49  67  96 147 192 231 298 369 433
#     4  10  21  39  70 101 153 185 223 313 369 426
#
# _framework density 22.048670999999999
#
# number of rings (size 3 to 8) (size 9 to 14) (size 15 to 20)
#    0.000    1.091    3.636    3.545    0.000    0.727 
#    3.273    6.364    0.000    0.000    0.000    0.000 
#    0.000    0.000    0.000    0.182    0.000    0.000 
#
# Total GULP energy -245206.745137 kJ/mol
# GULP energy per Si atom -5572.880571 kJ/mol
# Density = 2.199849 g / cm^3
# Si number density = 22.048671 Si / 1000 Ang^3
#
#
#
# Elastic Constant Matrix: (Units=GPa)
#
#
# Indices 1 2 3 4 5 6 
#
# 1 73.7944 9.4345 -22.2350 0.0000 0.0000 0.0000
# 2 9.4345 126.0160 22.1266 0.0000 0.0000 0.0000
# 3 -22.2350 22.1266 78.1326 0.0000 0.0000 0.0000
# 4 0.0000 0.0000 0.0000 28.0153 0.0000 0.0000
# 5 0.0000 0.0000 0.0000 0.0000 -45.9077 0.0000
# 6 0.0000 0.0000 0.0000 0.0000 0.0000 31.7643
#
#
#
# Elastic Compliance Matrix: (Units=1/GPa)
#
#
# Indices 1 2 3 4 5 6 
#
# 1 0.015290 -0.002009 0.004920 0.000000 0.000000 0.000000
# 2 -0.002009 0.008615 -0.003011 0.000000 0.000000 0.000000
# 3 0.004920 -0.003011 0.015052 0.000000 0.000000 0.000000
# 4 0.000000 0.000000 0.000000 0.035695 0.000000 0.000000
# 5 0.000000 0.000000 0.000000 0.000000 -0.021783 0.000000
# 6 0.000000 0.000000 0.000000 0.000000 0.000000 0.031482
#
#
# Mechanical properties :
#
#
# Convention : Reuss Voigt Hill
#
# Bulk Modulus (GPa) = 25.80151 32.95503 29.37827
# Shear Modulus (GPa) = 51.29826 20.68217 35.99021
#
# Velocity S-wave (km/s) = 4.82871 3.06604 4.04457
# Velocity P-wave (km/s) = 6.54340 5.24529 5.92997
#
# Compressibility (1/GPa) = 0.03875742
#
# Stress axis : x y z
#
# Youngs Moduli (GPa) = 65.40019 116.08183 66.43760
#
# Poissons Ratio (x) = 0.23317 -0.32689
# Poissons Ratio (y) = 0.13137 0.20006
# Poissons Ratio (z) = -0.32178 0.34955
#
# Static dielectric constant tensor:
#      x y z
#    x 1.853130 0.000000 0.000000 
#    y 0.000000 1.808400 0.000000 
#    z 0.000000 0.000000 1.883670 
# 
# From -- ./inp_files/48598.got.cif
#   From: 2010.05.17/outbox.cif.g08.bks.cpg/sg66_25_cif.got.tgz:48598.got - 2010.06.03 17:51:23.
