data_PCOD9498724
_publ_section_title
;
Structure prediction by ZEFSAII (Michael W. Deem and Ramdas Pophale) SiO2 
 PCOD9498724
Probable space group: C C C M
;
_chemical_formula_sum "Si O2"
_cell_formula_units_Z 96
_cell_length_a 7.628610
_cell_length_b 25.473646
_cell_length_c 26.382910
_cell_angle_alpha 90.000000
_cell_angle_beta 90.000000
_cell_angle_gamma 90.000000
_cell_volume 5126.951606
_symmetry_space_group_name_H-M "C C C M"
_symmetry_group_IT_number 66
_symmetry_cell_setting 'orthorhombic'
loop_
_space_group_symop_operation_xyz
x,y,z
-x,-y,z
x,-y,1/2-z
-x,y,1/2-z
-x,-y,-z
x,y,-z
-x,y,1/2+z
x,-y,1/2+z
1/2+x,1/2+y,z
1/2-x,1/2-y,z
1/2+x,1/2-y,1/2-z
1/2-x,1/2+y,1/2-z
1/2-x,1/2-y,-z
1/2+x,1/2+y,-z
1/2-x,1/2+y,1/2+z
1/2+x,1/2-y,1/2+z
loop_
_atom_site_type_symbol
_atom_site_label
_atom_site_fract_x
_atom_site_fract_y
_atom_site_fract_z
Si Si1 0.642239 0.299454 0.791786
Si Si2 0.202294 0.396810 0.127668
Si Si3 0.503002 0.380237 0.058040
Si Si4 0.391526 0.293451 0.120936
Si Si5 0.696859 0.107674 0.858114
Si Si6 0.789332 0.998477 0.809185
O O1 0.500000 0.316960 0.750000
O O2 0.750000 0.250000 0.769906
O O3 0.459813 0.275854 0.659435
O O4 0.750118 0.348250 0.815997
O O5 0.323173 0.407684 0.078039
O O6 0.297700 0.343978 0.147321
O O7 0.222609 0.445397 0.165055
O O8 0.998595 0.384234 0.120692
O O9 0.465750 0.318656 0.069489
O O10 0.659677 0.392193 0.096949
O O11 0.540001 0.391546 0.000000
O O12 0.250000 0.250000 0.111126
O O13 0.708764 0.050242 0.833834
O O14 0.749414 0.000000 0.750000
O O15 0.000000 0.000000 0.815637
#
# Coordination Sequence:
#
# PCOD9498724 Si02
#       6
#    16  16  16  16  16  16
#     4  11  23  38  59  90 126 170 204 246 304 369
#     4  10  22  40  61  93 122 162 204 258 310 361
#     4   9  21  40  62  91 123 158 208 261 315 370
#     4   9  19  38  62  85 125 160 199 256 303 358
#     4  11  23  39  65  88 126 163 206 255 311 366
#     4  11  22  40  64  90 124 164 208 253 302 366
#
# _framework density 18.724577
#
# number of rings (size 3 to 8) (size 9 to 14) (size 15 to 20)
#    1.000    0.833    1.667    2.000    4.667    2.333 
#    0.000    1.667    0.000    5.000    0.000    0.000 
#    0.000    0.000    0.000    0.000    0.000    0.000 
#
# Total GULP energy -267378.989444 kJ/mol
# GULP energy per Si atom -5570.395613 kJ/mol
# Density = 1.868196 g / cm^3
# Si number density = 18.724577 Si / 1000 Ang^3
#
#
#
# Elastic Constant Matrix: (Units=GPa)
#
#
# Indices 1 2 3 4 5 6 
#
# 1 105.4419 20.3756 34.9737 0.0000 0.0000 0.0000
# 2 20.3756 81.8876 25.6140 0.0000 0.0000 0.0000
# 3 34.9737 25.6140 80.6210 0.0000 0.0000 0.0000
# 4 0.0000 0.0000 0.0000 10.9762 0.0000 0.0000
# 5 0.0000 0.0000 0.0000 0.0000 7.9200 0.0000
# 6 0.0000 0.0000 0.0000 0.0000 0.0000 15.3513
#
#
#
# Elastic Compliance Matrix: (Units=1/GPa)
#
#
# Indices 1 2 3 4 5 6 
#
# 1 0.011223 -0.001410 -0.004420 0.000000 0.000000 0.000000
# 2 -0.001410 0.013736 -0.003753 0.000000 0.000000 0.000000
# 3 -0.004420 -0.003753 0.015514 0.000000 0.000000 0.000000
# 4 0.000000 0.000000 0.000000 0.091106 0.000000 0.000000
# 5 0.000000 0.000000 0.000000 0.000000 0.126263 0.000000
# 6 0.000000 0.000000 0.000000 0.000000 0.000000 0.065141
#
#
# Mechanical properties :
#
#
# Convention : Reuss Voigt Hill
#
# Bulk Modulus (GPa) = 46.93330 47.76412 47.34871
# Shear Modulus (GPa) = 14.31637 19.31532 16.81585
#
# Velocity S-wave (km/s) = 2.76810 3.21526 3.00002
# Velocity P-wave (km/s) = 5.94441 6.27280 6.11081
#
# Compressibility (1/GPa) = 0.02130683
#
# Stress axis : x y z
#
# Youngs Moduli (GPa) = 89.10650 72.79910 64.45965
#
# Poissons Ratio (x) = 0.10263 0.28494
# Poissons Ratio (y) = 0.12562 0.24189
# Poissons Ratio (z) = 0.39389 0.27319
#
# Static dielectric constant tensor:
#      x y z
#    x 1.706300 0.000000 0.000000 
#    y 0.000000 1.650280 0.000000 
#    z 0.000000 0.000000 1.618120 
# 
# From -- ./inp_files/55754.got.cif
#   From: 2010.05.17/outbox.cif.g08.bks.cpg/sg66_28_cif.got.tgz:55754.got - 2010.06.03 17:51:23.
