data_PCOD9498791
_publ_section_title
;
Structure prediction by ZEFSAII (Michael W. Deem and Ramdas Pophale) SiO2 
 PCOD9498791
Probable space group: C C C M
;
_chemical_formula_sum "Si O2"
_cell_formula_units_Z 60
_cell_length_a 9.052169
_cell_length_b 12.958186
_cell_length_c 26.301344
_cell_angle_alpha 90.000000
_cell_angle_beta 90.000000
_cell_angle_gamma 90.000000
_cell_volume 3085.139487
_symmetry_space_group_name_H-M "C C C M"
_symmetry_group_IT_number 66
_symmetry_cell_setting 'orthorhombic'
loop_
_space_group_symop_operation_xyz
x,y,z
-x,-y,z
x,-y,1/2-z
-x,y,1/2-z
-x,-y,-z
x,y,-z
-x,y,1/2+z
x,-y,1/2+z
1/2+x,1/2+y,z
1/2-x,1/2-y,z
1/2+x,1/2-y,1/2-z
1/2-x,1/2+y,1/2-z
1/2-x,1/2-y,-z
1/2+x,1/2+y,-z
1/2-x,1/2+y,1/2+z
1/2+x,1/2-y,1/2+z
loop_
_atom_site_type_symbol
_atom_site_label
_atom_site_fract_x
_atom_site_fract_y
_atom_site_fract_z
Si Si1 0.000000 0.000000 0.750000
Si Si2 0.750323 0.015166 0.500000
Si Si3 0.500000 0.000000 0.584437
Si Si4 0.093649 0.196498 0.202119
Si Si5 0.077513 0.724342 0.107255
Si Si6 0.480632 0.326557 0.500000
O O1 0.098626 0.924562 0.715825
O O2 0.642344 0.019020 0.451603
O O3 0.869132 0.107063 0.500000
O O4 0.844748 0.908755 0.500000
O O5 0.538003 0.895901 0.614396
O O6 0.250000 0.250000 0.199783
O O7 0.000000 0.240529 0.250000
O O8 0.009214 0.212253 0.149672
O O9 0.250000 0.750000 0.112328
O O10 0.030784 0.757698 0.050416
#
# Coordination Sequence:
#
# PCOD9498791 Si02
#       6
#     4   8   8  16  16   8
#     4   8  24  48  78  96 144 164 230 288 346 422
#     4  10  22  41  63  94 135 192 235 275 338 411
#     4  11  24  40  63  98 138 182 235 279 336 408
#     4  10  24  49  73 101 133 177 226 287 347 411
#     4  12  25  43  68  99 144 180 228 286 341 406
#     4  11  23  41  67  96 142 187 228 280 348 399
#
# _framework density 19.448067999999999
#
# number of rings (size 3 to 8) (size 9 to 14) (size 15 to 20)
#    0.800    0.533    2.667    2.800    3.733    5.333 
#    0.000    0.000    0.000    0.000    0.000    0.000 
#    0.000    0.000    0.000    0.000    0.000    0.000 
#
# Total GULP energy -167556.300643 kJ/mol
# GULP energy per Si atom -5585.210021 kJ/mol
# Density = 1.940380 g / cm^3
# Si number density = 19.448068 Si / 1000 Ang^3
#
#
#
# Elastic Constant Matrix: (Units=GPa)
#
#
# Indices 1 2 3 4 5 6 
#
# 1 117.2997 46.9414 46.9709 0.0000 0.0000 0.0000
# 2 46.9414 147.3091 40.5670 0.0000 0.0000 0.0000
# 3 46.9709 40.5670 120.9513 0.0000 0.0000 0.0000
# 4 0.0000 0.0000 0.0000 93.1664 0.0000 0.0000
# 5 0.0000 0.0000 0.0000 0.0000 3.8668 0.0000
# 6 0.0000 0.0000 0.0000 0.0000 0.0000 13.7490
#
#
#
# Elastic Compliance Matrix: (Units=1/GPa)
#
#
# Indices 1 2 3 4 5 6 
#
# 1 0.010895 -0.002541 -0.003379 0.000000 0.000000 0.000000
# 2 -0.002541 0.008072 -0.001720 0.000000 0.000000 0.000000
# 3 -0.003379 -0.001720 0.010157 0.000000 0.000000 0.000000
# 4 0.000000 0.000000 0.000000 0.010733 0.000000 0.000000
# 5 0.000000 0.000000 0.000000 0.000000 0.258612 0.000000
# 6 0.000000 0.000000 0.000000 0.000000 0.000000 0.072732
#
#
# Mechanical properties :
#
#
# Convention : Reuss Voigt Hill
#
# Bulk Modulus (GPa) = 72.23816 72.72430 72.48123
# Shear Modulus (GPa) = 12.78453 38.89517 25.83985
#
# Velocity S-wave (km/s) = 2.56670 4.47693 3.64903
# Velocity P-wave (km/s) = 6.78297 8.01244 7.42320
#
# Compressibility (1/GPa) = 0.01384310
#
# Stress axis : x y z
#
# Youngs Moduli (GPa) = 91.78405 123.88406 98.45495
#
# Poissons Ratio (x) = 0.31484 0.33265
# Poissons Ratio (y) = 0.23326 0.16938
# Poissons Ratio (z) = 0.31011 0.21313
#
# Static dielectric constant tensor:
#      x y z
#    x 1.652040 0.000000 0.000000 
#    y 0.000000 1.698810 0.000000 
#    z 0.000000 0.000000 1.653270 
# 
# From -- ./inp_files/67853.got.cif
#   From: 2010.05.17/outbox.cif.g08.bks.cpg/sg66_34_cif.got.tgz:67853.got - 2010.06.03 17:51:23.
