data_PCOD9498656
_publ_section_title
;
Structure prediction by ZEFSAII (Michael W. Deem and Ramdas Pophale) SiO2 
 PCOD9498656
Probable space group: C C C M
;
_chemical_formula_sum "Si O2"
_cell_formula_units_Z 92
_cell_length_a 19.231048
_cell_length_b 10.669489
_cell_length_c 22.443935
_cell_angle_alpha 90.000000
_cell_angle_beta 90.000000
_cell_angle_gamma 90.000000
_cell_volume 4605.169017
_symmetry_space_group_name_H-M "C C C M"
_symmetry_group_IT_number 66
_symmetry_cell_setting 'orthorhombic'
loop_
_space_group_symop_operation_xyz
x,y,z
-x,-y,z
x,-y,1/2-z
-x,y,1/2-z
-x,-y,-z
x,y,-z
-x,y,1/2+z
x,-y,1/2+z
1/2+x,1/2+y,z
1/2-x,1/2-y,z
1/2+x,1/2-y,1/2-z
1/2-x,1/2+y,1/2-z
1/2-x,1/2-y,-z
1/2+x,1/2+y,-z
1/2-x,1/2+y,1/2+z
1/2+x,1/2-y,1/2+z
loop_
_atom_site_type_symbol
_atom_site_label
_atom_site_fract_x
_atom_site_fract_y
_atom_site_fract_z
Si Si1 0.234972 0.403277 0.500000
Si Si2 0.947378 0.762047 0.614457
Si Si3 0.891643 0.645546 0.259525
Si Si4 0.413895 0.665123 0.340996
Si Si5 0.823904 0.954138 0.385718
Si Si6 0.250000 0.750000 0.197571
Si Si7 0.429985 0.087610 0.500000
Si Si8 0.000000 0.000000 0.750000
O O1 0.250000 0.250000 0.500000
O O2 0.274685 0.455767 0.442625
O O3 0.153730 0.444152 0.500000
O O4 0.929813 0.703710 0.680946
O O5 0.895982 0.878996 0.603867
O O6 0.935058 0.664841 0.561662
O O7 0.026546 0.808678 0.611126
O O8 0.905795 0.500000 0.250000
O O9 0.906495 0.709228 0.196410
O O10 0.811235 0.680657 0.268449
O O11 0.346354 0.591257 0.363120
O O12 0.449970 0.576625 0.292239
O O13 0.785043 0.861646 0.340072
O O14 0.500000 0.000000 0.500000
#
# Coordination Sequence:
#
# PCOD9498656 Si02
#       8
#     8  16  16  16  16   8   8   4
#     4  12  20  45  73 101 135 193 246 305 352 430
#     4  11  22  43  66 100 132 182 235 296 358 434
#     4  11  25  40  65  97 137 187 236 286 364 450
#     4  12  23  38  66 104 143 181 228 303 365 429
#     4  11  21  40  73 100 135 181 247 298 355 422
#     4  10  22  39  60  96 130 177 238 298 346 424
#     4  12  28  45  71  99 143 189 242 304 369 430
#     4  12  16  40  62  94 152 176 210 286 366 412
#
# _framework density 19.977553
#
# number of rings (size 3 to 8) (size 9 to 14) (size 15 to 20)
#    0.000    0.696    6.087    2.087    4.870    1.391 
#    0.000    1.739    0.000    1.043    0.000    0.000 
#    0.000    0.000    0.000    0.000    0.000    0.000 
#
# Total GULP energy -256518.138382 kJ/mol
# GULP energy per Si atom -5576.481269 kJ/mol
# Density = 1.993208 g / cm^3
# Si number density = 19.977553 Si / 1000 Ang^3
#
#
#
# Elastic Constant Matrix: (Units=GPa)
#
#
# Indices 1 2 3 4 5 6 
#
# 1 118.2171 40.1305 41.3990 0.0000 0.0000 0.0000
# 2 40.1305 90.6129 19.2671 0.0000 0.0000 0.0000
# 3 41.3990 19.2671 58.2196 0.0000 0.0000 0.0000
# 4 0.0000 0.0000 0.0000 21.2353 0.0000 0.0000
# 5 0.0000 0.0000 0.0000 0.0000 10.9122 0.0000
# 6 0.0000 0.0000 0.0000 0.0000 0.0000 29.3771
#
#
#
# Elastic Compliance Matrix: (Units=1/GPa)
#
#
# Indices 1 2 3 4 5 6 
#
# 1 0.012424 -0.003898 -0.007545 0.000000 0.000000 0.000000
# 2 -0.003898 0.013094 -0.001561 0.000000 0.000000 0.000000
# 3 -0.007545 -0.001561 0.023058 0.000000 0.000000 0.000000
# 4 0.000000 0.000000 0.000000 0.047091 0.000000 0.000000
# 5 0.000000 0.000000 0.000000 0.000000 0.091640 0.000000
# 6 0.000000 0.000000 0.000000 0.000000 0.000000 0.034040
#
#
# Mechanical properties :
#
#
# Convention : Reuss Voigt Hill
#
# Bulk Modulus (GPa) = 44.31054 52.07141 48.19097
# Shear Modulus (GPa) = 19.61706 23.38847 21.50276
#
# Velocity S-wave (km/s) = 3.13702 3.42532 3.28433
# Velocity P-wave (km/s) = 5.94554 6.46261 6.20946
#
# Compressibility (1/GPa) = 0.02256800
#
# Stress axis : x y z
#
# Youngs Moduli (GPa) = 80.48636 76.36828 43.36887
#
# Poissons Ratio (x) = 0.29771 0.32721
# Poissons Ratio (y) = 0.31376 0.06772
# Poissons Ratio (z) = 0.60725 0.11924
#
# Static dielectric constant tensor:
#      x y z
#    x 1.750970 0.000000 0.000000 
#    y 0.000000 1.738320 0.000000 
#    z 0.000000 0.000000 1.717250 
# 
# From -- ./inp_files/59430.got.cif
#   From: 2010.05.17/outbox.cif.g08.bks.cpg/sg66_30_cif.got.tgz:59430.got - 2010.06.03 17:51:23.
