data_PCOD9498831
_publ_section_title
;
Structure prediction by ZEFSAII (Michael W. Deem and Ramdas Pophale) SiO2 
 PCOD9498831
Probable space group: C C C M
;
_chemical_formula_sum "Si O2"
_cell_formula_units_Z 96
_cell_length_a 18.239857
_cell_length_b 15.841724
_cell_length_c 14.152524
_cell_angle_alpha 90.000000
_cell_angle_beta 90.000000
_cell_angle_gamma 90.000000
_cell_volume 4089.382854
_symmetry_space_group_name_H-M "C C C M"
_symmetry_group_IT_number 66
_symmetry_cell_setting 'orthorhombic'
loop_
_space_group_symop_operation_xyz
x,y,z
-x,-y,z
x,-y,1/2-z
-x,y,1/2-z
-x,-y,-z
x,y,-z
-x,y,1/2+z
x,-y,1/2+z
1/2+x,1/2+y,z
1/2-x,1/2-y,z
1/2+x,1/2-y,1/2-z
1/2-x,1/2+y,1/2-z
1/2-x,1/2-y,-z
1/2+x,1/2+y,-z
1/2-x,1/2+y,1/2+z
1/2+x,1/2-y,1/2+z
loop_
_atom_site_type_symbol
_atom_site_label
_atom_site_fract_x
_atom_site_fract_y
_atom_site_fract_z
Si Si1 0.627737 0.024656 0.393528
Si Si2 0.045060 0.688438 0.390891
Si Si3 0.129404 0.196656 0.252957
Si Si4 0.628211 0.163594 0.108497
Si Si5 0.213328 0.942960 0.657701
Si Si6 0.425926 0.552038 0.106880
O O1 0.599567 0.008278 0.500000
O O2 0.575363 0.097690 0.355981
O O3 0.710477 0.058298 0.396151
O O4 0.633186 0.931166 0.351478
O O5 0.070366 0.700632 0.500000
O O6 0.074987 0.758551 0.320387
O O7 0.957780 0.686111 0.392592
O O8 0.161722 0.266954 0.323079
O O9 0.189594 0.148553 0.191849
O O10 0.090351 0.124980 0.317478
O O11 0.656577 0.166111 0.000000
O O12 0.226344 0.000000 0.750000
O O13 0.143527 0.988369 0.609485
O O14 0.500000 0.500000 0.127977
O O15 0.432715 0.587028 0.000000
#
# Coordination Sequence:
#
# PCOD9498831 Si02
#       6
#    16  16  16  16  16  16
#     4  10  22  44  67  93 135 184 229 276 340 409
#     4  10  23  40  66 102 138 179 225 278 338 402
#     4  11  24  41  65 100 140 170 223 281 336 400
#     4  10  22  41  69 102 136 175 227 285 341 399
#     4  10  24  41  63  92 133 178 225 272 333 405
#     4  10  23  43  70  97 129 175 226 280 338 399
#
# _framework density 23.475425000000001
#
# number of rings (size 3 to 8) (size 9 to 14) (size 15 to 20)
#    0.000    1.833    0.000    2.000    7.000    6.333 
#    3.000    3.333    0.000    5.500    0.000    0.000 
#    0.000    0.000    0.000    0.000    0.000    0.000 
#
# Total GULP energy -268657.613036 kJ/mol
# GULP energy per Si atom -5597.033605 kJ/mol
# Density = 2.342199 g / cm^3
# Si number density = 23.475425 Si / 1000 Ang^3
#
#
#
# Elastic Constant Matrix: (Units=GPa)
#
#
# Indices 1 2 3 4 5 6 
#
# 1 50.4051 17.2051 7.2588 0.0000 0.0000 0.0000
# 2 17.2051 139.4684 44.4099 0.0000 0.0000 0.0000
# 3 7.2588 44.4099 110.9436 0.0000 0.0000 0.0000
# 4 0.0000 0.0000 0.0000 38.8667 0.0000 0.0000
# 5 0.0000 0.0000 0.0000 0.0000 20.1918 0.0000
# 6 0.0000 0.0000 0.0000 0.0000 0.0000 2.4870
#
#
#
# Elastic Compliance Matrix: (Units=1/GPa)
#
#
# Indices 1 2 3 4 5 6 
#
# 1 0.020725 -0.002435 -0.000381 0.000000 0.000000 0.000000
# 2 -0.002435 0.008504 -0.003245 0.000000 0.000000 0.000000
# 3 -0.000381 -0.003245 0.010337 0.000000 0.000000 0.000000
# 4 0.000000 0.000000 0.000000 0.025729 0.000000 0.000000
# 5 0.000000 0.000000 0.000000 0.000000 0.049525 0.000000
# 6 0.000000 0.000000 0.000000 0.000000 0.000000 0.402089
#
#
# Mechanical properties :
#
#
# Convention : Reuss Voigt Hill
#
# Bulk Modulus (GPa) = 36.43764 48.72941 42.58352
# Shear Modulus (GPa) = 9.29058 27.77201 18.53130
#
# Velocity S-wave (km/s) = 1.99152 3.44324 2.81266
# Velocity P-wave (km/s) = 4.56547 6.05067 5.35976
#
# Compressibility (1/GPa) = 0.02744415
#
# Stress axis : x y z
#
# Youngs Moduli (GPa) = 48.24996 117.59620 96.73680
#
# Poissons Ratio (x) = 0.28639 0.03687
# Poissons Ratio (y) = 0.11751 0.31387
# Poissons Ratio (z) = 0.01839 0.38156
#
# Static dielectric constant tensor:
#      x y z
#    x 1.856180 0.000000 0.000000 
#    y 0.000000 1.883660 0.000000 
#    z 0.000000 0.000000 1.921910 
# 
# From -- ./inp_files/31174.got.cif
#   From: 2010.05.17/outbox.cif.g08.bks.cpg/sg66_16_cif.got.tgz:31174.got - 2010.06.03 17:51:23.
