data_PCOD9498061
_publ_section_title
;
Structure prediction by ZEFSAII (Michael W. Deem and Ramdas Pophale) SiO2 
 PCOD9498061
Probable space group: C C C M
;
_chemical_formula_sum "Si O2"
_cell_formula_units_Z 112
_cell_length_a 33.144283
_cell_length_b 11.154400
_cell_length_c 14.386974
_cell_angle_alpha 90.000000
_cell_angle_beta 90.000000
_cell_angle_gamma 90.000000
_cell_volume 5318.930328
_symmetry_space_group_name_H-M "C C C M"
_symmetry_group_IT_number 66
_symmetry_cell_setting 'orthorhombic'
loop_
_space_group_symop_operation_xyz
x,y,z
-x,-y,z
x,-y,1/2-z
-x,y,1/2-z
-x,-y,-z
x,y,-z
-x,y,1/2+z
x,-y,1/2+z
1/2+x,1/2+y,z
1/2-x,1/2-y,z
1/2+x,1/2-y,1/2-z
1/2-x,1/2+y,1/2-z
1/2-x,1/2-y,-z
1/2+x,1/2+y,-z
1/2-x,1/2+y,1/2+z
1/2+x,1/2-y,1/2+z
loop_
_atom_site_type_symbol
_atom_site_label
_atom_site_fract_x
_atom_site_fract_y
_atom_site_fract_z
Si Si1 0.519487 0.623026 0.608864
Si Si2 0.605134 0.375307 0.809309
Si Si3 0.775847 0.562490 0.394403
Si Si4 0.304800 0.622825 0.195961
Si Si5 0.016833 0.373319 0.109020
Si Si6 0.898389 0.373895 0.694909
Si Si7 0.192708 0.352834 0.198036
O O1 0.500000 0.500000 0.647184
O O2 0.509316 0.624174 0.500000
O O3 0.567427 0.617491 0.622333
O O4 0.502555 0.749740 0.646773
O O5 0.604199 0.500000 0.750000
O O6 0.650761 0.363890 0.847788
O O7 0.598762 0.250889 0.752675
O O8 0.788809 0.584666 0.500000
O O9 0.732349 0.621325 0.374951
O O10 0.803789 0.603700 0.307243
O O11 0.776742 0.421268 0.369265
O O12 0.303413 0.500000 0.250000
O O13 0.299457 0.716015 0.280074
O O14 0.064729 0.370264 0.123919
O O15 0.000000 0.500000 0.146920
O O16 0.007030 0.374267 0.000000
O O17 0.902844 0.500000 0.750000
O O18 0.852298 0.372500 0.659818
#
# Coordination Sequence:
#
# PCOD9498061 Si02
#       7
#    16  16  16  16  16  16  16
#     4  10  21  38  58  82 119 162 200 250 307 364
#     4  10  22  37  59  90 118 156 203 254 307 364
#     4  11  22  39  67  94 120 167 215 255 319 387
#     4  10  21  39  63  88 128 165 200 269 321 369
#     4  10  22  38  58  87 123 160 202 256 310 364
#     4  11  21  38  60  88 118 160 202 249 312 362
#     4  10  22  42  62  91 131 163 208 268 315 373
#
# _framework density 21.056864999999998
#
# number of rings (size 3 to 8) (size 9 to 14) (size 15 to 20)
#    0.000    1.714    2.857    2.143    0.000    5.714 
#    0.000    3.571    0.000    5.143    0.000    0.000 
#    0.000    0.000    0.000    0.000    0.000    0.000 
#
# Total GULP energy -311945.434719 kJ/mol
# GULP energy per Si atom -5570.454191 kJ/mol
# Density = 2.100894 g / cm^3
# Si number density = 21.056865 Si / 1000 Ang^3
#
#
#
# Elastic Constant Matrix: (Units=GPa)
#
#
# Indices 1 2 3 4 5 6 
#
# 1 124.2986 32.4817 11.5118 0.0000 0.0000 0.0000
# 2 32.4817 167.1882 15.7695 0.0000 0.0000 0.0000
# 3 11.5118 15.7695 57.1952 0.0000 0.0000 0.0000
# 4 0.0000 0.0000 0.0000 -2.9893 0.0000 0.0000
# 5 0.0000 0.0000 0.0000 0.0000 3.2561 0.0000
# 6 0.0000 0.0000 0.0000 0.0000 0.0000 47.3931
#
#
#
# Elastic Compliance Matrix: (Units=1/GPa)
#
#
# Indices 1 2 3 4 5 6 
#
# 1 0.008568 -0.001542 -0.001299 0.000000 0.000000 0.000000
# 2 -0.001542 0.006419 -0.001459 0.000000 0.000000 0.000000
# 3 -0.001299 -0.001459 0.018148 0.000000 0.000000 0.000000
# 4 0.000000 0.000000 0.000000 -0.334529 0.000000 0.000000
# 5 0.000000 0.000000 0.000000 0.000000 0.307118 0.000000
# 6 0.000000 0.000000 0.000000 0.000000 0.000000 0.021100
#
#
# Mechanical properties :
#
#
# Convention : Reuss Voigt Hill
#
# Bulk Modulus (GPa) = 40.76109 52.02312 46.39210
# Shear Modulus (GPa) = 114.66812 28.79325 71.73069
#
# Velocity S-wave (km/s) = 7.38746 3.70185 5.84287
# Velocity P-wave (km/s) = 9.60030 6.55982 8.22183
#
# Compressibility (1/GPa) = 0.02453320
#
# Stress axis : x y z
#
# Youngs Moduli (GPa) = 116.70686 155.79877 55.10291
#
# Poissons Ratio (x) = 0.24026 0.07160
# Poissons Ratio (y) = 0.17998 0.08041
# Poissons Ratio (z) = 0.15165 0.22735
#
# Static dielectric constant tensor:
#      x y z
#    x 1.788140 0.000000 0.000000 
#    y 0.000000 1.928700 0.000000 
#    z 0.000000 0.000000 1.723530 
# 
# From -- ./inp_files/33844.got.cif
#   From: 2010.05.17/outbox.cif.g08.bks.cpg/sg66_17_cif.got.tgz:33844.got - 2010.06.03 17:51:23.
