data_PCOD9498584
_publ_section_title
;
Structure prediction by ZEFSAII (Michael W. Deem and Ramdas Pophale) SiO2 
 PCOD9498584
Probable space group: C C C M
;
_chemical_formula_sum "Si O2"
_cell_formula_units_Z 88
_cell_length_a 24.220302
_cell_length_b 11.755201
_cell_length_c 14.386846
_cell_angle_alpha 90.000000
_cell_angle_beta 90.000000
_cell_angle_gamma 90.000000
_cell_volume 4096.143929
_symmetry_space_group_name_H-M "C C C M"
_symmetry_group_IT_number 66
_symmetry_cell_setting 'orthorhombic'
loop_
_space_group_symop_operation_xyz
x,y,z
-x,-y,z
x,-y,1/2-z
-x,y,1/2-z
-x,-y,-z
x,y,-z
-x,y,1/2+z
x,-y,1/2+z
1/2+x,1/2+y,z
1/2-x,1/2-y,z
1/2+x,1/2-y,1/2-z
1/2-x,1/2+y,1/2-z
1/2-x,1/2-y,-z
1/2+x,1/2+y,-z
1/2-x,1/2+y,1/2+z
1/2+x,1/2-y,1/2+z
loop_
_atom_site_type_symbol
_atom_site_label
_atom_site_fract_x
_atom_site_fract_y
_atom_site_fract_z
Si Si1 0.588967 0.057845 0.500000
Si Si2 0.526935 0.185946 0.000000
Si Si3 0.748892 0.047407 0.000000
Si Si4 0.167467 0.250127 0.500000
Si Si5 0.252046 0.375842 0.167207
Si Si6 0.628926 0.885313 0.797396
Si Si7 0.587247 0.704623 0.337038
Si Si8 0.144073 0.000000 0.250000
O O1 0.532926 0.131038 0.500000
O O2 0.621749 0.093961 0.592697
O O3 0.568787 0.924923 0.500000
O O4 0.536722 0.261479 0.906058
O O5 0.799964 0.132265 0.000000
O O6 0.699581 0.134095 0.000000
O O7 0.748254 0.970531 0.089665
O O8 0.135196 0.247239 0.404673
O O9 0.250000 0.250000 0.125882
O O10 0.194788 0.376546 0.225615
O O11 0.310876 0.405291 0.214944
O O12 0.593908 0.780363 0.755781
O O13 0.607183 0.000000 0.750000
O O14 0.602808 0.573628 0.315169
#
# Coordination Sequence:
#
# PCOD9498584 Si02
#       8
#     8   8   8   8  16  16  16   8
#     4  11  25  45  68 108 134 170 226 305 355 419
#     4  10  24  47  73  98 135 169 237 293 366 403
#     4  11  22  35  54  87 132 188 230 267 330 388
#     4  10  22  37  62  86 132 181 239 275 316 408
#     4  12  24  37  58  94 140 187 228 276 333 411
#     4  12  23  39  67 100 146 175 223 284 354 413
#     4  11  23  43  66  98 134 188 228 287 341 417
#     4  12  24  40  62  97 144 187 240 268 332 422
#
# _framework density 21.483619999999998
#
# number of rings (size 3 to 8) (size 9 to 14) (size 15 to 20)
#    0.000    0.727    6.364    1.909    2.545    0.727 
#    0.000    1.818    0.000    3.273    0.000    0.000 
#    0.000    0.000    0.000    0.000    0.000    0.000 
#
# Total GULP energy -245326.721196 kJ/mol
# GULP energy per Si atom -5575.607300 kJ/mol
# Density = 2.143472 g / cm^3
# Si number density = 21.483620 Si / 1000 Ang^3
#
#
#
# Elastic Constant Matrix: (Units=GPa)
#
#
# Indices 1 2 3 4 5 6 
#
# 1 61.3685 25.3510 9.3918 0.0000 0.0000 0.0000
# 2 25.3510 120.1303 28.7415 0.0000 0.0000 0.0000
# 3 9.3918 28.7415 100.8174 0.0000 0.0000 0.0000
# 4 0.0000 0.0000 0.0000 49.6183 0.0000 0.0000
# 5 0.0000 0.0000 0.0000 0.0000 15.0977 0.0000
# 6 0.0000 0.0000 0.0000 0.0000 0.0000 34.3200
#
#
#
# Elastic Compliance Matrix: (Units=1/GPa)
#
#
# Indices 1 2 3 4 5 6 
#
# 1 0.017889 -0.003623 -0.000633 0.000000 0.000000 0.000000
# 2 -0.003623 0.009668 -0.002419 0.000000 0.000000 0.000000
# 3 -0.000633 -0.002419 0.010667 0.000000 0.000000 0.000000
# 4 0.000000 0.000000 0.000000 0.020154 0.000000 0.000000
# 5 0.000000 0.000000 0.000000 0.000000 0.066235 0.000000
# 6 0.000000 0.000000 0.000000 0.000000 0.000000 0.029138
#
#
# Mechanical properties :
#
#
# Convention : Reuss Voigt Hill
#
# Bulk Modulus (GPa) = 40.20450 45.47608 42.84029
# Shear Modulus (GPa) = 28.50749 34.39598 31.45173
#
# Velocity S-wave (km/s) = 3.64667 4.00563 3.83036
# Velocity P-wave (km/s) = 6.04033 6.52742 6.28859
#
# Compressibility (1/GPa) = 0.02487284
#
# Stress axis : x y z
#
# Youngs Moduli (GPa) = 55.90090 103.43830 93.74335
#
# Poissons Ratio (x) = 0.37481 0.05938
# Poissons Ratio (y) = 0.20256 0.22672
# Poissons Ratio (z) = 0.03541 0.25017
#
# Static dielectric constant tensor:
#      x y z
#    x 1.838900 0.000000 0.000000 
#    y 0.000000 1.783540 0.000000 
#    z 0.000000 0.000000 1.809810 
# 
# From -- ./inp_files/33244.got.cif
#   From: 2010.05.17/outbox.cif.g08.bks.cpg/sg66_17_cif.got.tgz:33244.got - 2010.06.03 17:51:23.
