data_PCOD9498737
_publ_section_title
;
Structure prediction by ZEFSAII (Michael W. Deem and Ramdas Pophale) SiO2 
 PCOD9498737
Probable space group: C C C M
;
_chemical_formula_sum "Si O2"
_cell_formula_units_Z 48
_cell_length_a 8.209081
_cell_length_b 7.219779
_cell_length_c 34.344400
_cell_angle_alpha 90.000000
_cell_angle_beta 90.000000
_cell_angle_gamma 90.000000
_cell_volume 2035.515334
_symmetry_space_group_name_H-M "C C C M"
_symmetry_group_IT_number 66
_symmetry_cell_setting 'orthorhombic'
loop_
_space_group_symop_operation_xyz
x,y,z
-x,-y,z
x,-y,1/2-z
-x,y,1/2-z
-x,-y,-z
x,y,-z
-x,y,1/2+z
x,-y,1/2+z
1/2+x,1/2+y,z
1/2-x,1/2-y,z
1/2+x,1/2-y,1/2-z
1/2-x,1/2+y,1/2-z
1/2-x,1/2-y,-z
1/2+x,1/2+y,-z
1/2-x,1/2+y,1/2+z
1/2+x,1/2-y,1/2+z
loop_
_atom_site_type_symbol
_atom_site_label
_atom_site_fract_x
_atom_site_fract_y
_atom_site_fract_z
Si Si1 0.191472 0.958792 0.706875
Si Si2 0.693993 0.466299 0.541838
Si Si3 0.691068 0.033941 0.624875
O O1 0.250000 0.750000 0.702028
O O2 0.243533 0.046590 0.665715
O O3 0.261912 0.000000 0.750000
O O4 0.000000 0.000000 0.709257
O O5 0.500000 0.500000 0.541617
O O6 0.758470 0.539544 0.500000
O O7 0.750000 0.250000 0.541924
O O8 0.752980 0.543576 0.583152
O O9 0.750000 0.250000 0.623730
O O10 0.500000 0.000000 0.626463
#
# Coordination Sequence:
#
# PCOD9498737 Si02
#       3
#    16  16  16
#     4  10  23  43  66  93 126 164 208 257 310 368
#     4   9  18  36  61  89 122 160 203 251 304 363
#     4  10  22  40  63  91 125 163 205 254 307 366
#
# _framework density 23.581251000000002
#
# number of rings (size 3 to 8) (size 9 to 14) (size 15 to 20)
#    0.000    2.333    0.000    1.000    0.000   12.000 
#    0.000   20.000    0.000   18.000    0.000    0.000 
#    0.000    0.000    0.000    0.000    0.000    0.000 
#
# Total GULP energy -133635.682455 kJ/mol
# GULP energy per Si atom -5568.153436 kJ/mol
# Density = 2.352758 g / cm^3
# Si number density = 23.581251 Si / 1000 Ang^3
#
#
#
# Elastic Constant Matrix: (Units=GPa)
#
#
# Indices 1 2 3 4 5 6 
#
# 1 131.3242 33.6672 61.0578 0.0000 0.0000 0.0000
# 2 33.6672 147.6604 17.3811 0.0000 0.0000 0.0000
# 3 61.0578 17.3811 368.3740 0.0000 0.0000 0.0000
# 4 0.0000 0.0000 0.0000 -17.6033 0.0000 0.0000
# 5 0.0000 0.0000 0.0000 0.0000 64.6530 0.0000
# 6 0.0000 0.0000 0.0000 0.0000 0.0000 38.8171
#
#
#
# Elastic Compliance Matrix: (Units=1/GPa)
#
#
# Indices 1 2 3 4 5 6 
#
# 1 0.008715 -0.001827 -0.001358 0.000000 0.000000 0.000000
# 2 -0.001827 0.007193 -0.000037 0.000000 0.000000 0.000000
# 3 -0.001358 -0.000037 0.002941 0.000000 0.000000 0.000000
# 4 0.000000 0.000000 0.000000 -0.056807 0.000000 0.000000
# 5 0.000000 0.000000 0.000000 0.000000 0.015467 0.000000
# 6 0.000000 0.000000 0.000000 0.000000 0.000000 0.025762
#
#
# Mechanical properties :
#
#
# Convention : Reuss Voigt Hill
#
# Bulk Modulus (GPa) = 80.60924 96.84122 88.72523
# Shear Modulus (GPa) = 361.01344 52.85683 206.93514
#
# Velocity S-wave (km/s) = 12.38652 4.73956 9.37788
# Velocity P-wave (km/s) = 15.45398 8.43252 12.44855
#
# Compressibility (1/GPa) = 0.01240553
#
# Stress axis : x y z
#
# Youngs Moduli (GPa) = 114.74933 139.02047 339.96427
#
# Poissons Ratio (x) = 0.25400 0.46175
# Poissons Ratio (y) = 0.20966 0.01243
# Poissons Ratio (z) = 0.15586 0.00508
#
# Static dielectric constant tensor:
#      x y z
#    x 1.812010 0.000000 0.000000 
#    y 0.000000 1.620690 0.000000 
#    z 0.000000 0.000000 2.030130 
# 
# From -- ./inp_files/67720.got.cif
#   From: 2010.05.17/outbox.cif.g08.bks.cpg/sg66_34_cif.got.tgz:67720.got - 2010.06.03 17:51:23.
