data_PCOD9498776
_publ_section_title
;
Structure prediction by ZEFSAII (Michael W. Deem and Ramdas Pophale) SiO2 
 PCOD9498776
Probable space group: C C C M
;
_chemical_formula_sum "Si O2"
_cell_formula_units_Z 64
_cell_length_a 20.074849
_cell_length_b 5.163842
_cell_length_c 28.655339
_cell_angle_alpha 90.000000
_cell_angle_beta 90.000000
_cell_angle_gamma 90.000000
_cell_volume 2970.508391
_symmetry_space_group_name_H-M "C C C M"
_symmetry_group_IT_number 66
_symmetry_cell_setting 'orthorhombic'
loop_
_space_group_symop_operation_xyz
x,y,z
-x,-y,z
x,-y,1/2-z
-x,y,1/2-z
-x,-y,-z
x,y,-z
-x,y,1/2+z
x,-y,1/2+z
1/2+x,1/2+y,z
1/2-x,1/2-y,z
1/2+x,1/2-y,1/2-z
1/2-x,1/2+y,1/2-z
1/2-x,1/2-y,-z
1/2+x,1/2+y,-z
1/2-x,1/2+y,1/2+z
1/2+x,1/2-y,1/2+z
loop_
_atom_site_type_symbol
_atom_site_label
_atom_site_fract_x
_atom_site_fract_y
_atom_site_fract_z
Si Si1 0.825961 0.877198 0.500000
Si Si2 0.296776 0.000000 0.250000
Si Si3 0.958049 0.734168 0.102093
Si Si4 0.823413 0.615529 0.851488
Si Si5 0.250000 0.750000 0.915843
Si Si6 0.408137 0.859355 0.500000
O O1 0.784697 0.938877 0.546663
O O2 0.851150 0.580799 0.500000
O O3 0.887474 0.060824 0.500000
O O4 0.250000 0.750000 0.242168
O O5 0.336347 0.955619 0.297765
O O6 0.886287 0.764150 0.127259
O O7 0.942453 0.628308 0.050099
O O8 0.000000 0.500000 0.125386
O O9 0.000000 0.000000 0.101059
O O10 0.750000 0.750000 0.851910
O O11 0.807409 0.369928 0.884163
#
# Coordination Sequence:
#
# PCOD9498776 Si02
#       6
#     8   8  16  16   8   8
#     4  11  24  35  64  99 135 174 222 276 330 393
#     4  10  22  40  69 106 129 162 222 286 338 390
#     4  12  27  44  66  98 139 181 223 273 337 402
#     4  11  24  43  73  98 135 174 229 281 340 402
#     4  11  22  38  64 100 138 172 222 279 338 390
#     4  12  22  44  60  91 134 182 226 265 325 402
#
# _framework density 21.545133
#
# number of rings (size 3 to 8) (size 9 to 14) (size 15 to 20)
#    0.000    0.750    3.750    3.750    3.500    1.000 
#    0.000    0.625    0.000    1.500    0.000    0.000 
#    0.000    0.000    0.000    0.000    0.000    0.000 
#
# Total GULP energy -178591.704584 kJ/mol
# GULP energy per Si atom -5580.990768 kJ/mol
# Density = 2.149609 g / cm^3
# Si number density = 21.545133 Si / 1000 Ang^3
#
#
#
# Elastic Constant Matrix: (Units=GPa)
#
#
# Indices 1 2 3 4 5 6 
#
# 1 120.5414 35.3571 64.1778 0.0000 0.0000 0.0000
# 2 35.3571 70.3959 14.1801 0.0000 0.0000 0.0000
# 3 64.1778 14.1801 159.0756 0.0000 0.0000 0.0000
# 4 0.0000 0.0000 0.0000 16.4863 0.0000 0.0000
# 5 0.0000 0.0000 0.0000 0.0000 33.8750 0.0000
# 6 0.0000 0.0000 0.0000 0.0000 0.0000 35.3511
#
#
#
# Elastic Compliance Matrix: (Units=1/GPa)
#
#
# Indices 1 2 3 4 5 6 
#
# 1 0.012203 -0.005231 -0.004457 0.000000 0.000000 0.000000
# 2 -0.005231 0.016708 0.000621 0.000000 0.000000 0.000000
# 3 -0.004457 0.000621 0.008029 0.000000 0.000000 0.000000
# 4 0.000000 0.000000 0.000000 0.060656 0.000000 0.000000
# 5 0.000000 0.000000 0.000000 0.000000 0.029520 0.000000
# 6 0.000000 0.000000 0.000000 0.000000 0.000000 0.028288
#
#
# Mechanical properties :
#
#
# Convention : Reuss Voigt Hill
#
# Bulk Modulus (GPa) = 53.17514 64.16032 58.66773
# Shear Modulus (GPa) = 27.80751 32.89568 30.35160
#
# Velocity S-wave (km/s) = 3.59648 3.91170 3.75740
# Velocity P-wave (km/s) = 6.47924 7.08844 6.79068
#
# Compressibility (1/GPa) = 0.01880578
#
# Stress axis : x y z
#
# Youngs Moduli (GPa) = 81.94457 59.85230 124.54714
#
# Poissons Ratio (x) = 0.31312 0.55511
# Poissons Ratio (y) = 0.42869 -0.07738
# Poissons Ratio (z) = 0.36523 -0.03718
#
# Static dielectric constant tensor:
#      x y z
#    x 1.843290 0.000000 0.000000 
#    y 0.000000 1.838700 0.000000 
#    z 0.000000 0.000000 1.764460 
# 
# From -- ./inp_files/61299.got.cif
#   From: 2010.05.17/outbox.cif.g08.bks.cpg/sg66_31_cif.got.tgz:61299.got - 2010.06.03 17:51:23.
