data_PCOD9498972
_publ_section_title
;
Structure prediction by ZEFSAII (Michael W. Deem and Ramdas Pophale) SiO2 
 PCOD9498972
Probable space group: C C C M
;
_chemical_formula_sum "Si O2"
_cell_formula_units_Z 56
_cell_length_a 5.208853
_cell_length_b 33.386784
_cell_length_c 15.039142
_cell_angle_alpha 90.000000
_cell_angle_beta 90.000000
_cell_angle_gamma 90.000000
_cell_volume 2615.409812
_symmetry_space_group_name_H-M "C C C M"
_symmetry_group_IT_number 66
_symmetry_cell_setting 'orthorhombic'
loop_
_space_group_symop_operation_xyz
x,y,z
-x,-y,z
x,-y,1/2-z
-x,y,1/2-z
-x,-y,-z
x,y,-z
-x,y,1/2+z
x,-y,1/2+z
1/2+x,1/2+y,z
1/2-x,1/2-y,z
1/2+x,1/2-y,1/2-z
1/2-x,1/2+y,1/2-z
1/2-x,1/2-y,-z
1/2+x,1/2+y,-z
1/2-x,1/2+y,1/2+z
1/2+x,1/2-y,1/2+z
loop_
_atom_site_type_symbol
_atom_site_label
_atom_site_fract_x
_atom_site_fract_y
_atom_site_fract_z
Si Si1 0.507231 0.777926 0.000000
Si Si2 0.026139 0.345950 0.853858
Si Si3 0.464208 0.602800 0.896639
Si Si4 0.257880 0.481736 0.650161
O O1 0.750000 0.750000 0.000000
O O2 0.544457 0.806818 0.085332
O O3 0.250000 0.750000 0.000000
O O4 0.266388 0.377272 0.865350
O O5 0.000000 0.336763 0.750000
O O6 0.760156 0.365027 0.886969
O O7 0.332133 0.564840 0.847063
O O8 0.498678 0.591848 0.000000
O O9 0.500000 0.500000 0.601551
O O10 0.252947 0.500000 0.750000
O O11 0.000000 0.500000 0.609529
#
# Coordination Sequence:
#
# PCOD9498972 Si02
#       4
#     8  16  16  16
#     4  12  26  50  80 110 156 182 232 316 374 448
#     4  12  27  46  76 114 143 196 249 291 379 456
#     4  12  24  45  72 102 152 195 250 315 366 443
#     4  10  23  38  60  96 140 188 250 298 373 406
#
# _framework density 21.411557999999999
#
# number of rings (size 3 to 8) (size 9 to 14) (size 15 to 20)
#    0.000    0.571    2.857    4.286   12.000    2.286 
#    0.000    0.000    0.000    0.000    0.000    0.000 
#    0.000    0.000    0.000    0.000    0.000    0.000 
#
# Total GULP energy -156150.750612 kJ/mol
# GULP energy per Si atom -5576.812522 kJ/mol
# Density = 2.136282 g / cm^3
# Si number density = 21.411558 Si / 1000 Ang^3
#
#
#
# Elastic Constant Matrix: (Units=GPa)
#
#
# Indices 1 2 3 4 5 6 
#
# 1 184.3232 27.1516 37.2629 0.0000 0.0000 0.0000
# 2 27.1516 110.0669 72.5673 0.0000 0.0000 0.0000
# 3 37.2629 72.5673 171.5792 0.0000 0.0000 0.0000
# 4 0.0000 0.0000 0.0000 28.9598 0.0000 0.0000
# 5 0.0000 0.0000 0.0000 0.0000 20.2428 0.0000
# 6 0.0000 0.0000 0.0000 0.0000 0.0000 46.9355
#
#
#
# Elastic Compliance Matrix: (Units=1/GPa)
#
#
# Indices 1 2 3 4 5 6 
#
# 1 0.005728 -0.000822 -0.000896 0.000000 0.000000 0.000000
# 2 -0.000822 0.012716 -0.005200 0.000000 0.000000 0.000000
# 3 -0.000896 -0.005200 0.008222 0.000000 0.000000 0.000000
# 4 0.000000 0.000000 0.000000 0.034531 0.000000 0.000000
# 5 0.000000 0.000000 0.000000 0.000000 0.049400 0.000000
# 6 0.000000 0.000000 0.000000 0.000000 0.000000 0.021306
#
#
# Mechanical properties :
#
#
# Convention : Reuss Voigt Hill
#
# Bulk Modulus (GPa) = 77.94228 82.21475 80.07852
# Shear Modulus (GPa) = 33.33003 41.16015 37.24509
#
# Velocity S-wave (km/s) = 3.94970 4.38920 4.17524
# Velocity P-wave (km/s) = 7.56844 8.01046 7.79258
#
# Compressibility (1/GPa) = 0.01283001
#
# Stress axis : x y z
#
# Youngs Moduli (GPa) = 174.59573 78.63917 121.62503
#
# Poissons Ratio (x) = 0.06464 0.10900
# Poissons Ratio (y) = 0.14352 0.63241
# Poissons Ratio (z) = 0.15648 0.40890
#
# Static dielectric constant tensor:
#      x y z
#    x 1.767060 0.000000 0.000000 
#    y 0.000000 1.840610 0.000000 
#    z 0.000000 0.000000 1.739590 
# 
# From -- ./inp_files/22493.got.cif
#   From: 2010.05.17/outbox.cif.g08.bks.cpg/sg66_12_cif.got.tgz:22493.got - 2010.06.03 17:51:23.
