data_PCOD9498741
_publ_section_title
;
Structure prediction by ZEFSAII (Michael W. Deem and Ramdas Pophale) SiO2 
 PCOD9498741
Probable space group: C C C M
;
_chemical_formula_sum "Si O2"
_cell_formula_units_Z 116
_cell_length_a 23.240578
_cell_length_b 26.512615
_cell_length_c 9.175737
_cell_angle_alpha 90.000000
_cell_angle_beta 90.000000
_cell_angle_gamma 90.000000
_cell_volume 5653.800075
_symmetry_space_group_name_H-M "C C C M"
_symmetry_group_IT_number 66
_symmetry_cell_setting 'orthorhombic'
loop_
_space_group_symop_operation_xyz
x,y,z
-x,-y,z
x,-y,1/2-z
-x,y,1/2-z
-x,-y,-z
x,y,-z
-x,y,1/2+z
x,-y,1/2+z
1/2+x,1/2+y,z
1/2-x,1/2-y,z
1/2+x,1/2-y,1/2-z
1/2-x,1/2+y,1/2-z
1/2-x,1/2-y,-z
1/2+x,1/2+y,-z
1/2-x,1/2+y,1/2+z
1/2+x,1/2-y,1/2+z
loop_
_atom_site_type_symbol
_atom_site_label
_atom_site_fract_x
_atom_site_fract_y
_atom_site_fract_z
Si Si1 0.119552 0.277759 0.827822
Si Si2 0.731005 0.192190 0.835019
Si Si3 0.440478 0.310633 0.673546
Si Si4 0.000000 0.000000 0.750000
Si Si5 0.834847 0.553071 0.175112
Si Si6 0.442009 0.878090 0.326881
Si Si7 0.285161 0.394578 0.828032
Si Si8 0.085921 0.087560 0.835224
O O1 0.177012 0.305675 0.773369
O O2 0.106987 0.227341 0.737923
O O3 0.070003 0.318983 0.800415
O O4 0.123169 0.267027 0.000000
O O5 0.750000 0.250000 0.841900
O O6 0.779188 0.155655 0.768246
O O7 0.715977 0.175998 0.000000
O O8 0.500000 0.295053 0.750000
O O9 0.443346 0.306919 0.500000
O O10 0.430514 0.368355 0.723224
O O11 0.044363 0.960805 0.674088
O O12 0.844281 0.500000 0.250000
O O13 0.885746 0.590835 0.220433
O O14 0.771197 0.573403 0.212160
O O15 0.836748 0.548554 0.000000
O O16 0.500000 0.894869 0.250000
O O17 0.447621 0.884592 0.500000
O O18 0.346219 0.422410 0.808938
O O19 0.280785 0.381540 0.000000
O O20 0.080467 0.108439 0.000000
#
# Coordination Sequence:
#
# PCOD9498741 Si02
#       8
#    16  16  16   4  16  16  16  16
#     4  11  22  40  65  93 132 178 220 270 332 399
#     4  11  23  38  60  96 136 171 217 273 329 392
#     4  12  25  42  64  94 134 175 224 281 336 404
#     4  12  26  44  76 106 142 172 228 292 344 412
#     4  10  22  42  64  92 128 167 216 273 325 389
#     4  10  22  40  63  92 128 167 213 264 319 383
#     4  10  22  43  67  93 131 175 222 270 332 407
#     4  11  25  45  70  99 132 176 223 276 344 409
#
# _framework density 20.517174000000001
#
# number of rings (size 3 to 8) (size 9 to 14) (size 15 to 20)
#    0.000    1.241    2.069    3.517    0.966    8.000 
#    0.000    1.379    0.000    0.000    0.000    0.000 
#    0.000    0.000    0.000    0.000    0.000    0.000 
#
# Total GULP energy -323978.270918 kJ/mol
# GULP energy per Si atom -5585.832257 kJ/mol
# Density = 2.047048 g / cm^3
# Si number density = 20.517174 Si / 1000 Ang^3
#
#
#
# Elastic Constant Matrix: (Units=GPa)
#
#
# Indices 1 2 3 4 5 6 
#
# 1 134.6292 45.4295 43.6733 0.0000 0.0000 0.0000
# 2 45.4295 107.5334 49.2988 0.0000 0.0000 0.0000
# 3 43.6733 49.2988 85.3581 0.0000 0.0000 0.0000
# 4 0.0000 0.0000 0.0000 23.6471 0.0000 0.0000
# 5 0.0000 0.0000 0.0000 0.0000 -21.3405 0.0000
# 6 0.0000 0.0000 0.0000 0.0000 0.0000 35.7083
#
#
#
# Elastic Compliance Matrix: (Units=1/GPa)
#
#
# Indices 1 2 3 4 5 6 
#
# 1 0.009335 -0.002386 -0.003398 0.000000 0.000000 0.000000
# 2 -0.002386 0.013258 -0.006437 0.000000 0.000000 0.000000
# 3 -0.003398 -0.006437 0.017172 0.000000 0.000000 0.000000
# 4 0.000000 0.000000 0.000000 0.042289 0.000000 0.000000
# 5 0.000000 0.000000 0.000000 0.000000 -0.046859 0.000000
# 6 0.000000 0.000000 0.000000 0.000000 0.000000 0.028005
#
#
# Mechanical properties :
#
#
# Convention : Reuss Voigt Hill
#
# Bulk Modulus (GPa) = 65.25973 67.14709 66.20341
# Shear Modulus (GPa) = 53.90901 20.21092 37.05996
#
# Velocity S-wave (km/s) = 5.13148 3.14199 4.25466
# Velocity P-wave (km/s) = 8.18449 6.77946 7.51489
#
# Compressibility (1/GPa) = 0.01532338
#
# Stress axis : x y z
#
# Youngs Moduli (GPa) = 107.11973 75.42458 58.23547
#
# Poissons Ratio (x) = 0.17995 0.19791
# Poissons Ratio (y) = 0.25557 0.37484
# Poissons Ratio (z) = 0.36404 0.48548
#
# Static dielectric constant tensor:
#      x y z
#    x 1.769050 0.000000 0.000000 
#    y 0.000000 1.722620 0.000000 
#    z 0.000000 0.000000 1.703890 
# 
# From -- ./inp_files/9450.got.cif
#   From: 2010.05.17/outbox.cif.g08.bks.cpg/sg66_5_cif.got.tgz:9450.got - 2010.06.03 17:51:23.
