data_PCOD9498729
_publ_section_title
;
Structure prediction by ZEFSAII (Michael W. Deem and Ramdas Pophale) SiO2 
 PCOD9498729
Probable space group: C C C M
;
_chemical_formula_sum "Si O2"
_cell_formula_units_Z 116
_cell_length_a 14.856521
_cell_length_b 24.204766
_cell_length_c 13.533591
_cell_angle_alpha 90.000000
_cell_angle_beta 90.000000
_cell_angle_gamma 90.000000
_cell_volume 4866.660571
_symmetry_space_group_name_H-M "C C C M"
_symmetry_group_IT_number 66
_symmetry_cell_setting 'orthorhombic'
loop_
_space_group_symop_operation_xyz
x,y,z
-x,-y,z
x,-y,1/2-z
-x,y,1/2-z
-x,-y,-z
x,y,-z
-x,y,1/2+z
x,-y,1/2+z
1/2+x,1/2+y,z
1/2-x,1/2-y,z
1/2+x,1/2-y,1/2-z
1/2-x,1/2+y,1/2-z
1/2-x,1/2-y,-z
1/2+x,1/2+y,-z
1/2-x,1/2+y,1/2+z
1/2+x,1/2-y,1/2+z
loop_
_atom_site_type_symbol
_atom_site_label
_atom_site_fract_x
_atom_site_fract_y
_atom_site_fract_z
Si Si1 0.284968 0.478333 0.379861
Si Si2 0.440564 0.100930 0.119555
Si Si3 0.500000 0.000000 0.250000
Si Si4 0.794358 0.807011 0.619600
Si Si5 0.561280 0.611684 0.620063
Si Si6 0.718186 0.187705 0.618797
Si Si7 0.644833 0.105441 0.118765
Si Si8 0.858105 0.094466 0.619617
O O1 0.281520 0.480890 0.500000
O O2 0.368243 0.437219 0.357877
O O3 0.190738 0.451602 0.348328
O O4 0.307839 0.539472 0.344734
O O5 0.443749 0.042314 0.178185
O O6 0.369144 0.149195 0.147801
O O7 0.542880 0.120038 0.141838
O O8 0.430071 0.091031 0.000000
O O9 0.799675 0.806047 0.500000
O O10 0.750000 0.750000 0.649051
O O11 0.890885 0.830998 0.651919
O O12 0.718134 0.850242 0.649045
O O13 0.556043 0.613596 0.500000
O O14 0.460524 0.599599 0.653948
O O15 0.707281 0.191236 0.500000
O O16 0.750000 0.250000 0.647658
O O17 0.801857 0.148406 0.643398
O O18 0.645963 0.104042 0.000000
O O19 0.860088 0.090671 0.500000
#
# Coordination Sequence:
#
# PCOD9498729 Si02
#       8
#    16  16   4  16  16  16  16  16
#     4   8  13  21  35  59  94 134 180 229 288 362
#     4  10  22  40  62  90 131 171 209 274 333 386
#     4  12  26  40  64  98 128 166 230 270 332 418
#     4   8  13  21  35  60  96 140 192 243 295 363
#     4   8  13  20  30  52  88 128 173 231 289 348
#     4   9  19  34  52  80 118 162 210 254 309 382
#     4   8  15  27  45  70 105 153 194 237 311 371
#     4   9  15  22  37  61  94 140 186 234 292 354
#
# _framework density 23.835645
#
# number of rings (size 3 to 8) (size 9 to 14) (size 15 to 20)
#    0.000    3.310    0.000    2.276    1.931    2.759 
#    0.000    5.517    0.000    0.828    0.000    0.000 
#    0.000    6.069    0.000    0.552    0.000    0.000 
#
# Total GULP energy -323686.475918 kJ/mol
# GULP energy per Si atom -5580.801309 kJ/mol
# Density = 2.378139 g / cm^3
# Si number density = 23.835645 Si / 1000 Ang^3
#
#
#
# Elastic Constant Matrix: (Units=GPa)
#
#
# Indices 1 2 3 4 5 6 
#
# 1 143.1507 82.2163 32.6722 0.0000 0.0000 0.0000
# 2 82.2163 203.1921 18.3358 0.0000 0.0000 0.0000
# 3 32.6722 18.3358 112.0586 0.0000 0.0000 0.0000
# 4 0.0000 0.0000 0.0000 -15.2478 0.0000 0.0000
# 5 0.0000 0.0000 0.0000 0.0000 27.0268 0.0000
# 6 0.0000 0.0000 0.0000 0.0000 0.0000 31.8148
#
#
#
# Elastic Compliance Matrix: (Units=1/GPa)
#
#
# Indices 1 2 3 4 5 6 
#
# 1 0.009605 -0.003688 -0.002197 0.000000 0.000000 0.000000
# 2 -0.003688 0.006411 0.000026 0.000000 0.000000 0.000000
# 3 -0.002197 0.000026 0.009560 0.000000 0.000000 0.000000
# 4 0.000000 0.000000 0.000000 -0.065583 0.000000 0.000000
# 5 0.000000 0.000000 0.000000 0.000000 0.037000 0.000000
# 6 0.000000 0.000000 0.000000 0.000000 0.000000 0.031432
#
#
# Mechanical properties :
#
#
# Convention : Reuss Voigt Hill
#
# Bulk Modulus (GPa) = 72.15606 80.53890 76.34748
# Shear Modulus (GPa) = 111.69679 30.39722 71.04701
#
# Velocity S-wave (km/s) = 6.85295 3.57499 5.46551
# Velocity P-wave (km/s) = 9.64134 7.13466 8.48112
#
# Compressibility (1/GPa) = 0.01385885
#
# Stress axis : x y z
#
# Youngs Moduli (GPa) = 104.10784 155.97072 104.60049
#
# Poissons Ratio (x) = 0.57527 0.22982
# Poissons Ratio (y) = 0.38398 -0.00275
# Poissons Ratio (z) = 0.22873 -0.00410
#
# Static dielectric constant tensor:
#      x y z
#    x 1.848240 0.000000 0.000000 
#    y 0.000000 1.957110 0.000000 
#    z 0.000000 0.000000 2.002450 
# 
# From -- ./inp_files/40703.got.cif
#   From: 2010.05.17/outbox.cif.g08.bks.cpg/sg66_21_cif.got.tgz:40703.got - 2010.06.03 17:51:23.
