data_PCOD9498324
_publ_section_title
;
Structure prediction by ZEFSAII (Michael W. Deem and Ramdas Pophale) SiO2 
 PCOD9498324
Probable space group: C C C M
;
_chemical_formula_sum "Si O2"
_cell_formula_units_Z 56
_cell_length_a 5.794502
_cell_length_b 13.880045
_cell_length_c 29.816316
_cell_angle_alpha 90.000000
_cell_angle_beta 90.000000
_cell_angle_gamma 90.000000
_cell_volume 2398.065128
_symmetry_space_group_name_H-M "C C C M"
_symmetry_group_IT_number 66
_symmetry_cell_setting 'orthorhombic'
loop_
_space_group_symop_operation_xyz
x,y,z
-x,-y,z
x,-y,1/2-z
-x,y,1/2-z
-x,-y,-z
x,y,-z
-x,y,1/2+z
x,-y,1/2+z
1/2+x,1/2+y,z
1/2-x,1/2-y,z
1/2+x,1/2-y,1/2-z
1/2-x,1/2+y,1/2-z
1/2-x,1/2-y,-z
1/2+x,1/2+y,-z
1/2-x,1/2+y,1/2+z
1/2+x,1/2-y,1/2+z
loop_
_atom_site_type_symbol
_atom_site_label
_atom_site_fract_x
_atom_site_fract_y
_atom_site_fract_z
Si Si1 0.255132 0.388779 0.266598
Si Si2 0.885956 0.397995 0.863854
Si Si3 0.377555 0.645976 0.950149
Si Si4 0.250000 0.750000 0.399529
O O1 0.257704 0.500000 0.250000
O O2 0.500000 0.348017 0.250000
O O3 0.264359 0.377741 0.320229
O O4 0.000000 0.355240 0.250000
O O5 0.747973 0.409581 0.910303
O O6 0.000000 0.500000 0.853837
O O7 0.065152 0.310325 0.871074
O O8 0.250000 0.750000 0.952185
O O9 0.629270 0.672238 0.931966
O O10 0.372196 0.604125 0.000000
#
# Coordination Sequence:
#
# PCOD9498324 Si02
#       4
#    16  16  16   8
#     4  10  21  39  68 101 130 179 237 276 352 428
#     4  11  23  41  69 101 134 182 234 295 356 439
#     4   9  20  40  65  95 137 182 230 291 360 426
#     4  10  23  40  68  96 136 180 240 288 359 424
#
# _framework density 23.352159
#
# number of rings (size 3 to 8) (size 9 to 14) (size 15 to 20)
#    0.000    2.000    2.857    0.429    4.000    2.857 
#    0.000    1.429    9.429    0.000    0.000    0.000 
#    0.000    0.000    0.000    0.000    0.000    0.000 
#
# Total GULP energy -156395.179369 kJ/mol
# GULP energy per Si atom -5585.542120 kJ/mol
# Density = 2.329901 g / cm^3
# Si number density = 23.352159 Si / 1000 Ang^3
#
#
#
# Elastic Constant Matrix: (Units=GPa)
#
#
# Indices 1 2 3 4 5 6 
#
# 1 146.1527 23.6442 74.3313 0.0000 0.0000 0.0000
# 2 23.6442 80.3375 30.4471 0.0000 0.0000 0.0000
# 3 74.3313 30.4471 208.9348 0.0000 0.0000 0.0000
# 4 0.0000 0.0000 0.0000 28.3684 0.0000 0.0000
# 5 0.0000 0.0000 0.0000 0.0000 -5.4673 0.0000
# 6 0.0000 0.0000 0.0000 0.0000 0.0000 -12.0799
#
#
#
# Elastic Compliance Matrix: (Units=1/GPa)
#
#
# Indices 1 2 3 4 5 6 
#
# 1 0.008507 -0.001436 -0.002817 0.000000 0.000000 0.000000
# 2 -0.001436 0.013418 -0.001444 0.000000 0.000000 0.000000
# 3 -0.002817 -0.001444 0.005999 0.000000 0.000000 0.000000
# 4 0.000000 0.000000 0.000000 0.035251 0.000000 0.000000
# 5 0.000000 0.000000 0.000000 0.000000 -0.182906 0.000000
# 6 0.000000 0.000000 0.000000 0.000000 0.000000 -0.082782
#
#
# Mechanical properties :
#
#
# Convention : Reuss Voigt Hill
#
# Bulk Modulus (GPa) = 60.50228 76.91892 68.71060
# Shear Modulus (GPa) = -26.93833 22.63106 -2.15363
#
# Velocity S-wave (km/s) = -3.40011 3.11645 -0.96138
# Velocity P-wave (km/s) = 3.24817 6.77937 5.31556
#
# Compressibility (1/GPa) = 0.01652830
#
# Stress axis : x y z
#
# Youngs Moduli (GPa) = 117.54557 74.52933 166.69548
#
# Poissons Ratio (x) = 0.10703 0.46964
# Poissons Ratio (y) = 0.16880 0.24077
# Poissons Ratio (z) = 0.33116 0.10765
#
# Static dielectric constant tensor:
#      x y z
#    x 1.913970 0.000000 0.000000 
#    y 0.000000 1.862810 0.000000 
#    z 0.000000 0.000000 1.853760 
# 
# From -- ./inp_files/61070.got.cif
#   From: 2010.05.17/outbox.cif.g08.bks.cpg/sg66_31_cif.got.tgz:61070.got - 2010.06.03 17:51:23.
