data_PCOD9498175
_publ_section_title
;
Structure prediction by ZEFSAII (Michael W. Deem and Ramdas Pophale) SiO2 
 PCOD9498175
Probable space group: C C C M
;
_chemical_formula_sum "Si O2"
_cell_formula_units_Z 64
_cell_length_a 7.319643
_cell_length_b 15.223855
_cell_length_c 24.875828
_cell_angle_alpha 90.000000
_cell_angle_beta 90.000000
_cell_angle_gamma 90.000000
_cell_volume 2771.992711
_symmetry_space_group_name_H-M "C C C M"
_symmetry_group_IT_number 66
_symmetry_cell_setting 'orthorhombic'
loop_
_space_group_symop_operation_xyz
x,y,z
-x,-y,z
x,-y,1/2-z
-x,y,1/2-z
-x,-y,-z
x,y,-z
-x,y,1/2+z
x,-y,1/2+z
1/2+x,1/2+y,z
1/2-x,1/2-y,z
1/2+x,1/2-y,1/2-z
1/2-x,1/2+y,1/2-z
1/2-x,1/2-y,-z
1/2+x,1/2+y,-z
1/2-x,1/2+y,1/2+z
1/2+x,1/2-y,1/2+z
loop_
_atom_site_type_symbol
_atom_site_label
_atom_site_fract_x
_atom_site_fract_y
_atom_site_fract_z
Si Si1 0.536840 0.282688 0.000000
Si Si2 0.499807 0.098310 0.881395
Si Si3 0.566054 0.399880 0.399082
Si Si4 0.054800 0.601067 0.000000
Si Si5 0.034084 0.763663 0.686956
O O1 0.750000 0.250000 0.000000
O O2 0.495299 0.340507 0.948732
O O3 0.433422 0.189581 0.000000
O O4 0.286375 0.105470 0.898005
O O5 0.617649 0.104344 0.936632
O O6 0.550353 0.177562 0.841754
O O7 0.500000 0.000000 0.857369
O O8 0.500000 0.500000 0.403750
O O9 0.490733 0.352214 0.345584
O O10 0.000000 0.500000 0.000000
O O11 0.250000 0.750000 0.680421
O O12 0.000000 0.768810 0.750000
#
# Coordination Sequence:
#
# PCOD9498175 Si02
#       5
#     8  16  16   8  16
#     4  12  26  40  63  99 134 167 209 258 327 383
#     4  10  22  41  67  92 124 168 213 259 319 381
#     4  11  25  41  63  94 130 164 212 261 318 381
#     4  10  21  38  65  92 126 161 208 244 315 373
#     4  10  23  43  64  92 122 166 213 263 318 378
#
# _framework density 23.088086000000001
#
# number of rings (size 3 to 8) (size 9 to 14) (size 15 to 20)
#    0.000    1.500    2.500    1.125    7.000    5.000 
#    0.000    5.000    0.000    0.000    0.000    0.000 
#    0.000    0.000    0.000    0.000    0.000    0.000 
#
# Total GULP energy -178563.727829 kJ/mol
# GULP energy per Si atom -5580.116495 kJ/mol
# Density = 2.303554 g / cm^3
# Si number density = 23.088086 Si / 1000 Ang^3
#
#
#
# Elastic Constant Matrix: (Units=GPa)
#
#
# Indices 1 2 3 4 5 6 
#
# 1 90.9762 13.6845 -0.9295 0.0000 0.0000 0.0000
# 2 13.6845 232.5926 95.5508 0.0000 0.0000 0.0000
# 3 -0.9295 95.5508 166.6997 0.0000 0.0000 0.0000
# 4 0.0000 0.0000 0.0000 66.5463 0.0000 0.0000
# 5 0.0000 0.0000 0.0000 0.0000 21.5979 0.0000
# 6 0.0000 0.0000 0.0000 0.0000 0.0000 27.6813
#
#
#
# Elastic Compliance Matrix: (Units=1/GPa)
#
#
# Indices 1 2 3 4 5 6 
#
# 1 0.011132 -0.000890 0.000572 0.000000 0.000000 0.000000
# 2 -0.000890 0.005695 -0.003269 0.000000 0.000000 0.000000
# 3 0.000572 -0.003269 0.007876 0.000000 0.000000 0.000000
# 4 0.000000 0.000000 0.000000 0.015027 0.000000 0.000000
# 5 0.000000 0.000000 0.000000 0.000000 0.046301 0.000000
# 6 0.000000 0.000000 0.000000 0.000000 0.000000 0.036125
#
#
# Mechanical properties :
#
#
# Convention : Reuss Voigt Hill
#
# Bulk Modulus (GPa) = 57.05049 78.54223 67.79636
# Shear Modulus (GPa) = 36.98990 48.62929 42.80960
#
# Velocity S-wave (km/s) = 4.00699 4.59437 4.31070
# Velocity P-wave (km/s) = 6.79497 7.88902 7.36234
#
# Compressibility (1/GPa) = 0.01752833
#
# Stress axis : x y z
#
# Youngs Moduli (GPa) = 89.83432 175.60179 126.97071
#
# Poissons Ratio (x) = 0.15628 -0.07265
# Poissons Ratio (y) = 0.07995 0.41508
# Poissons Ratio (z) = -0.05140 0.57406
#
# Static dielectric constant tensor:
#      x y z
#    x 1.838540 0.000000 0.000000 
#    y 0.000000 1.409250 0.000000 
#    z 0.000000 0.000000 1.849620 
# 
# From -- ./inp_files/54988.got.cif
#   From: 2010.05.17/outbox.cif.g08.bks.cpg/sg66_28_cif.got.tgz:54988.got - 2010.06.03 17:51:23.
