data_PCOD9498536
_publ_section_title
;
Structure prediction by ZEFSAII (Michael W. Deem and Ramdas Pophale) SiO2 
 PCOD9498536
Probable space group: C C C M
;
_chemical_formula_sum "Si O2"
_cell_formula_units_Z 64
_cell_length_a 5.239173
_cell_length_b 23.844191
_cell_length_c 25.442507
_cell_angle_alpha 90.000000
_cell_angle_beta 90.000000
_cell_angle_gamma 90.000000
_cell_volume 3178.375717
_symmetry_space_group_name_H-M "C C C M"
_symmetry_group_IT_number 66
_symmetry_cell_setting 'orthorhombic'
loop_
_space_group_symop_operation_xyz
x,y,z
-x,-y,z
x,-y,1/2-z
-x,y,1/2-z
-x,-y,-z
x,y,-z
-x,y,1/2+z
x,-y,1/2+z
1/2+x,1/2+y,z
1/2-x,1/2-y,z
1/2+x,1/2-y,1/2-z
1/2-x,1/2+y,1/2-z
1/2-x,1/2-y,-z
1/2+x,1/2+y,-z
1/2-x,1/2+y,1/2+z
1/2+x,1/2-y,1/2+z
loop_
_atom_site_type_symbol
_atom_site_label
_atom_site_fract_x
_atom_site_fract_y
_atom_site_fract_z
Si Si1 0.401599 0.398711 0.119450
Si Si2 0.747879 0.062484 0.726806
Si Si3 0.500620 0.713465 0.186742
Si Si4 0.919785 0.434764 0.938479
O O1 0.280879 0.438235 0.165060
O O2 0.471914 0.341805 0.150625
O O3 0.662471 0.421922 0.094286
O O4 0.164865 0.397530 0.078962
O O5 0.500000 0.092505 0.750000
O O6 0.000000 0.088679 0.750000
O O7 0.741585 0.000000 0.750000
O O8 0.500000 0.704148 0.250000
O O9 0.250000 0.750000 0.174086
O O10 0.750000 0.750000 0.175490
O O11 0.000000 0.500000 0.932162
O O12 0.864386 0.425594 0.000000
#
# Coordination Sequence:
#
# PCOD9498536 Si02
#       4
#    16  16  16  16
#     4  12  23  40  70  91 126 177 213 263 330 373
#     4  10  22  34  52  89 131 160 194 250 304 380
#     4  10  22  41  65  95 131 167 213 259 314 396
#     4  11  26  44  64  93 129 172 223 268 320 388
#
# _framework density 20.136071000000001
#
# number of rings (size 3 to 8) (size 9 to 14) (size 15 to 20)
#    0.000    1.250    0.000    5.250   10.500    5.000 
#    0.000    0.000    0.000   15.000    0.000    0.000 
#    0.000    0.000    0.000    0.000    0.000    0.000 
#
# Total GULP energy -178631.822122 kJ/mol
# GULP energy per Si atom -5582.244441 kJ/mol
# Density = 2.009024 g / cm^3
# Si number density = 20.136071 Si / 1000 Ang^3
#
#
#
# Elastic Constant Matrix: (Units=GPa)
#
#
# Indices 1 2 3 4 5 6 
#
# 1 213.6642 47.1713 72.4590 0.0000 0.0000 0.0000
# 2 47.1713 105.3541 58.3744 0.0000 0.0000 0.0000
# 3 72.4590 58.3744 140.3970 0.0000 0.0000 0.0000
# 4 0.0000 0.0000 0.0000 31.8934 0.0000 0.0000
# 5 0.0000 0.0000 0.0000 0.0000 71.2666 0.0000
# 6 0.0000 0.0000 0.0000 0.0000 0.0000 9.3173
#
#
#
# Elastic Compliance Matrix: (Units=1/GPa)
#
#
# Indices 1 2 3 4 5 6 
#
# 1 0.005791 -0.001217 -0.002483 0.000000 0.000000 0.000000
# 2 -0.001217 0.012589 -0.004606 0.000000 0.000000 0.000000
# 3 -0.002483 -0.004606 0.010319 0.000000 0.000000 0.000000
# 4 0.000000 0.000000 0.000000 0.031354 0.000000 0.000000
# 5 0.000000 0.000000 0.000000 0.000000 0.014032 0.000000
# 6 0.000000 0.000000 0.000000 0.000000 0.000000 0.107327
#
#
# Mechanical properties :
#
#
# Convention : Reuss Voigt Hill
#
# Bulk Modulus (GPa) = 82.73265 90.60274 86.66770
# Shear Modulus (GPa) = 24.74605 41.25618 33.00112
#
# Velocity S-wave (km/s) = 3.50943 4.53135 4.05273
# Velocity P-wave (km/s) = 7.58930 8.51296 8.06436
#
# Compressibility (1/GPa) = 0.01208713
#
# Stress axis : x y z
#
# Youngs Moduli (GPa) = 172.68523 79.43512 96.90877
#
# Poissons Ratio (x) = 0.09669 0.24058
# Poissons Ratio (y) = 0.21021 0.44636
# Poissons Ratio (z) = 0.42870 0.36588
#
# Static dielectric constant tensor:
#      x y z
#    x 1.762830 0.000000 0.000000 
#    y 0.000000 1.627460 0.000000 
#    z 0.000000 0.000000 1.764780 
# 
# From -- ./inp_files/54118.got.cif
#   From: 2010.05.17/outbox.cif.g08.bks.cpg/sg66_28_cif.got.tgz:54118.got - 2010.06.03 17:51:23.
