data_PCOD9498914
_publ_section_title
;
Structure prediction by ZEFSAII (Michael W. Deem and Ramdas Pophale) SiO2 
 PCOD9498914
Probable space group: C C C M
;
_chemical_formula_sum "Si O2"
_cell_formula_units_Z 96
_cell_length_a 15.598939
_cell_length_b 17.606727
_cell_length_c 15.878982
_cell_angle_alpha 90.000000
_cell_angle_beta 90.000000
_cell_angle_gamma 90.000000
_cell_volume 4361.103026
_symmetry_space_group_name_H-M "C C C M"
_symmetry_group_IT_number 66
_symmetry_cell_setting 'orthorhombic'
loop_
_space_group_symop_operation_xyz
x,y,z
-x,-y,z
x,-y,1/2-z
-x,y,1/2-z
-x,-y,-z
x,y,-z
-x,y,1/2+z
x,-y,1/2+z
1/2+x,1/2+y,z
1/2-x,1/2-y,z
1/2+x,1/2-y,1/2-z
1/2-x,1/2+y,1/2-z
1/2-x,1/2-y,-z
1/2+x,1/2+y,-z
1/2-x,1/2+y,1/2+z
1/2+x,1/2-y,1/2+z
loop_
_atom_site_type_symbol
_atom_site_label
_atom_site_fract_x
_atom_site_fract_y
_atom_site_fract_z
Si Si1 0.525852 0.654267 0.900006
Si Si2 0.153491 0.442719 0.898149
Si Si3 0.979603 0.684516 0.847263
Si Si4 0.337968 0.465387 0.843321
Si Si5 0.844914 0.383477 0.099635
Si Si6 0.338345 0.631119 0.095577
O O1 0.559574 0.738999 0.885603
O O2 0.583070 0.590468 0.856859
O O3 0.428243 0.655385 0.864918
O O4 0.522965 0.637342 0.000000
O O5 0.083311 0.385983 0.862098
O O6 0.248953 0.424386 0.866114
O O7 0.138385 0.530364 0.870134
O O8 0.149762 0.439364 0.000000
O O9 0.000000 0.695137 0.750000
O O10 0.071481 0.666021 0.888323
O O11 0.335917 0.500000 0.750000
O O12 0.342553 0.539246 0.903446
O O13 0.754716 0.351868 0.135387
O O14 0.828982 0.390499 0.000000
O O15 0.339003 0.661802 0.000000
#
# Coordination Sequence:
#
# PCOD9498914 Si02
#       6
#    16  16  16  16  16  16
#     4  11  24  44  66  95 135 181 224 266 334 418
#     4  10  22  43  69  98 130 176 228 276 336 409
#     4  12  27  39  62  95 142 179 223 275 334 391
#     4  11  24  39  70  96 130 163 220 287 343 391
#     4   9  19  40  67  95 126 170 224 274 325 396
#     4   9  20  39  67  94 123 165 219 270 328 399
#
# _framework density 22.012778000000001
#
# number of rings (size 3 to 8) (size 9 to 14) (size 15 to 20)
#    0.000    1.667    0.000    5.000    7.000    5.333 
#    0.000    5.833    0.000    0.000    0.000    0.000 
#    0.000    0.000    0.000    0.000    0.000    0.000 
#
# Total GULP energy -268279.949415 kJ/mol
# GULP energy per Si atom -5589.165613 kJ/mol
# Density = 2.196268 g / cm^3
# Si number density = 22.012778 Si / 1000 Ang^3
#
#
#
# Elastic Constant Matrix: (Units=GPa)
#
#
# Indices 1 2 3 4 5 6 
#
# 1 90.9728 37.3857 8.1420 0.0000 0.0000 0.0000
# 2 37.3857 59.5485 3.5239 0.0000 0.0000 0.0000
# 3 8.1420 3.5239 59.4877 0.0000 0.0000 0.0000
# 4 0.0000 0.0000 0.0000 19.5899 0.0000 0.0000
# 5 0.0000 0.0000 0.0000 0.0000 136.7781 0.0000
# 6 0.0000 0.0000 0.0000 0.0000 0.0000 -25.3933
#
#
#
# Elastic Compliance Matrix: (Units=1/GPa)
#
#
# Indices 1 2 3 4 5 6 
#
# 1 0.014946 -0.009295 -0.001495 0.000000 0.000000 0.000000
# 2 -0.009295 0.022633 -0.000069 0.000000 0.000000 0.000000
# 3 -0.001495 -0.000069 0.017019 0.000000 0.000000 0.000000
# 4 0.000000 0.000000 0.000000 0.051047 0.000000 0.000000
# 5 0.000000 0.000000 0.000000 0.000000 0.007311 0.000000
# 6 0.000000 0.000000 0.000000 0.000000 0.000000 -0.039381
#
#
# Mechanical properties :
#
#
# Convention : Reuss Voigt Hill
#
# Bulk Modulus (GPa) = 30.41311 34.23468 32.32390
# Shear Modulus (GPa) = 47.05812 36.92542 41.99177
#
# Velocity S-wave (km/s) = 4.62861 4.10012 4.37236
# Velocity P-wave (km/s) = 6.51241 6.16446 6.34082
#
# Compressibility (1/GPa) = 0.03288056
#
# Stress axis : x y z
#
# Youngs Moduli (GPa) = 66.90821 44.18417 58.75824
#
# Poissons Ratio (x) = 0.41068 0.08784
# Poissons Ratio (y) = 0.62190 0.00403
# Poissons Ratio (z) = 0.10003 0.00303
#
# Static dielectric constant tensor:
#      x y z
#    x 1.881340 0.000000 0.000000 
#    y 0.000000 1.791890 0.000000 
#    z 0.000000 0.000000 1.861870 
# 
# From -- ./inp_files/28340.got.cif
#   From: 2010.05.17/outbox.cif.g08.bks.cpg/sg66_15_cif.got.tgz:28340.got - 2010.06.03 17:51:23.
