data_PCOD9498725
_publ_section_title
;
Structure prediction by ZEFSAII (Michael W. Deem and Ramdas Pophale) SiO2 
 PCOD9498725
Probable space group: C C C M
;
_chemical_formula_sum "Si O2"
_cell_formula_units_Z 104
_cell_length_a 18.831954
_cell_length_b 8.766302
_cell_length_c 29.429300
_cell_angle_alpha 90.000000
_cell_angle_beta 90.000000
_cell_angle_gamma 90.000000
_cell_volume 4858.382960
_symmetry_space_group_name_H-M "C C C M"
_symmetry_group_IT_number 66
_symmetry_cell_setting 'orthorhombic'
loop_
_space_group_symop_operation_xyz
x,y,z
-x,-y,z
x,-y,1/2-z
-x,y,1/2-z
-x,-y,-z
x,y,-z
-x,y,1/2+z
x,-y,1/2+z
1/2+x,1/2+y,z
1/2-x,1/2-y,z
1/2+x,1/2-y,1/2-z
1/2-x,1/2+y,1/2-z
1/2-x,1/2-y,-z
1/2+x,1/2+y,-z
1/2-x,1/2+y,1/2+z
1/2+x,1/2-y,1/2+z
loop_
_atom_site_type_symbol
_atom_site_label
_atom_site_fract_x
_atom_site_fract_y
_atom_site_fract_z
Si Si1 0.645178 0.170339 0.948828
Si Si2 0.476345 0.336316 0.600411
Si Si3 0.397255 0.830596 0.448050
Si Si4 0.001992 0.754295 0.299282
Si Si5 0.114728 0.488689 0.798705
Si Si6 0.750000 0.750000 0.897082
Si Si7 0.230686 0.421537 0.630851
O O1 0.600040 0.288632 0.919051
O O2 0.713966 0.114412 0.921671
O O3 0.600481 0.013759 0.950326
O O4 0.657553 0.223326 0.000000
O O5 0.500000 0.500000 0.583008
O O6 0.537288 0.223997 0.582306
O O7 0.477915 0.336525 0.655090
O O8 0.402923 0.772789 0.500000
O O9 0.321293 0.782193 0.426464
O O10 0.078790 0.675591 0.305954
O O11 0.000000 0.832485 0.250000
O O12 0.947089 0.613848 0.294223
O O13 0.154069 0.500000 0.750000
O O14 0.160506 0.535561 0.841341
O O15 0.732371 0.590205 0.869915
O O16 0.250000 0.250000 0.649099
#
# Coordination Sequence:
#
# PCOD9498725 Si02
#       7
#    16  16  16  16  16   8  16
#     4  10  22  41  62  87 118 162 211 255 309 369
#     4  12  24  35  58  92 128 155 197 261 318 366
#     4  10  22  40  62  85 119 163 204 253 303 368
#     4   9  18  35  64  89 113 156 202 251 311 371
#     4   9  18  37  64  91 117 154 203 253 309 370
#     4  10  23  40  62  90 120 166 218 246 303 368
#     4  11  23  41  65  89 129 165 207 261 308 373
#
# _framework density 21.406298
#
# number of rings (size 3 to 8) (size 9 to 14) (size 15 to 20)
#    0.000    1.846    1.538    3.923    4.308    3.692 
#    1.385    0.000    0.000    0.000    0.000    0.000 
#    0.000    0.000    0.000    0.000    0.000    0.000 
#
# Total GULP energy -289647.387029 kJ/mol
# GULP energy per Si atom -5570.142058 kJ/mol
# Density = 2.135758 g / cm^3
# Si number density = 21.406298 Si / 1000 Ang^3
#
#
#
# Elastic Constant Matrix: (Units=GPa)
#
#
# Indices 1 2 3 4 5 6 
#
# 1 19.6425 5.4876 2.4466 0.0000 0.0000 0.0000
# 2 5.4876 109.6120 10.9166 0.0000 0.0000 0.0000
# 3 2.4466 10.9166 92.9719 0.0000 0.0000 0.0000
# 4 0.0000 0.0000 0.0000 -1.3825 0.0000 0.0000
# 5 0.0000 0.0000 0.0000 0.0000 7.5088 0.0000
# 6 0.0000 0.0000 0.0000 0.0000 0.0000 11.9285
#
#
#
# Elastic Compliance Matrix: (Units=1/GPa)
#
#
# Indices 1 2 3 4 5 6 
#
# 1 0.051737 -0.002484 -0.001070 0.000000 0.000000 0.000000
# 2 -0.002484 0.009350 -0.001033 0.000000 0.000000 0.000000
# 3 -0.001070 -0.001033 0.010905 0.000000 0.000000 0.000000
# 4 0.000000 0.000000 0.000000 -0.723312 0.000000 0.000000
# 5 0.000000 0.000000 0.000000 0.000000 0.133177 0.000000
# 6 0.000000 0.000000 0.000000 0.000000 0.000000 0.083833
#
#
# Mechanical properties :
#
#
# Convention : Reuss Voigt Hill
#
# Bulk Modulus (GPa) = 15.91831 28.88086 22.39959
# Shear Modulus (GPa) = -12.37021 17.16932 2.39955
#
# Velocity S-wave (km/s) = -2.40652 2.83515 1.05990
# Velocity P-wave (km/s) = 0.51898 4.92326 3.46188
#
# Compressibility (1/GPa) = 0.06282073
#
# Stress axis : x y z
#
# Youngs Moduli (GPa) = 19.32848 106.94887 91.69823
#
# Poissons Ratio (x) = 0.26562 0.09811
# Poissons Ratio (y) = 0.04800 0.09468
# Poissons Ratio (z) = 0.02068 0.11043
#
# Static dielectric constant tensor:
#      x y z
#    x 1.785010 0.000000 0.000000 
#    y 0.000000 1.826090 0.000000 
#    z 0.000000 0.000000 1.807330 
# 
# From -- ./inp_files/70192.got.cif
#   From: 2010.05.17/outbox.cif.g08.bks.cpg/sg66_36_cif.got.tgz:70192.got - 2010.06.03 17:51:23.
