data_PCOD9498202
_publ_section_title
;
Structure prediction by ZEFSAII (Michael W. Deem and Ramdas Pophale) SiO2 
 PCOD9498202
Probable space group: C C C M
;
_chemical_formula_sum "Si O2"
_cell_formula_units_Z 40
_cell_length_a 8.177608
_cell_length_b 7.070957
_cell_length_c 28.603385
_cell_angle_alpha 90.000000
_cell_angle_beta 90.000000
_cell_angle_gamma 90.000000
_cell_volume 1653.948248
_symmetry_space_group_name_H-M "C C C M"
_symmetry_group_IT_number 66
_symmetry_cell_setting 'orthorhombic'
loop_
_space_group_symop_operation_xyz
x,y,z
-x,-y,z
x,-y,1/2-z
-x,y,1/2-z
-x,-y,-z
x,y,-z
-x,y,1/2+z
x,-y,1/2+z
1/2+x,1/2+y,z
1/2-x,1/2-y,z
1/2+x,1/2-y,1/2-z
1/2-x,1/2+y,1/2-z
1/2-x,1/2-y,-z
1/2+x,1/2+y,-z
1/2-x,1/2+y,1/2+z
1/2+x,1/2-y,1/2+z
loop_
_atom_site_type_symbol
_atom_site_label
_atom_site_fract_x
_atom_site_fract_y
_atom_site_fract_z
Si Si1 0.055852 0.219855 0.100220
Si Si2 0.941613 0.219207 0.200072
Si Si3 0.948153 0.779131 0.000000
O O1 0.250000 0.250000 0.098667
O O2 0.988415 0.294535 0.050258
O O3 0.002904 0.297338 0.150472
O O4 0.000000 0.000000 0.100834
O O5 0.750000 0.250000 0.199555
O O6 0.000000 0.296605 0.250000
O O7 0.000000 0.000000 0.200199
O O8 0.750000 0.750000 0.000000
O O9 0.000000 0.000000 0.000000
#
# Coordination Sequence:
#
# PCOD9498202 Si02
#       3
#    16  16   8
#     4   9  17  32  53  81 112 148 188 233 282 337
#     4  10  21  39  60  86 116 152 192 238 288 343
#     4   8  14  26  49  76 108 144 184 228 278 332
#
# _framework density 24.184550999999999
#
# number of rings (size 3 to 8) (size 9 to 14) (size 15 to 20)
#    0.000    2.800    0.000    1.200    0.000    0.000 
#    0.000   29.000    0.000    0.000    0.000   42.000 
#    0.000    0.000    0.000    0.000    0.000    0.000 
#
# Total GULP energy -111474.177351 kJ/mol
# GULP energy per Si atom -5573.708868 kJ/mol
# Density = 2.412951 g / cm^3
# Si number density = 24.184551 Si / 1000 Ang^3
#
#
#
# Elastic Constant Matrix: (Units=GPa)
#
#
# Indices 1 2 3 4 5 6 
#
# 1 127.3346 33.5184 52.7464 0.0000 0.0000 0.0000
# 2 33.5184 180.0111 14.2841 0.0000 0.0000 0.0000
# 3 52.7464 14.2841 391.8103 0.0000 0.0000 0.0000
# 4 0.0000 0.0000 0.0000 -71.7733 0.0000 0.0000
# 5 0.0000 0.0000 0.0000 0.0000 261.4984 0.0000
# 6 0.0000 0.0000 0.0000 0.0000 0.0000 40.4577
#
#
#
# Elastic Compliance Matrix: (Units=1/GPa)
#
#
# Indices 1 2 3 4 5 6 
#
# 1 0.008721 -0.001535 -0.001118 0.000000 0.000000 0.000000
# 2 -0.001535 0.005842 -0.000006 0.000000 0.000000 0.000000
# 3 -0.001118 -0.000006 0.002703 0.000000 0.000000 0.000000
# 4 0.000000 0.000000 0.000000 -0.013933 0.000000 0.000000
# 5 0.000000 0.000000 0.000000 0.000000 0.003824 0.000000
# 6 0.000000 0.000000 0.000000 0.000000 0.000000 0.024717
#
#
# Mechanical properties :
#
#
# Convention : Reuss Voigt Hill
#
# Bulk Modulus (GPa) = 83.70800 100.02821 91.86811
# Shear Modulus (GPa) = 121.43455 85.94370 103.68912
#
# Velocity S-wave (km/s) = 7.09370 5.96773 6.55494
# Velocity P-wave (km/s) = 10.08868 9.43054 9.76516
#
# Compressibility (1/GPa) = 0.01194629
#
# Stress axis : x y z
#
# Youngs Moduli (GPa) = 114.67205 171.18761 369.95991
#
# Poissons Ratio (x) = 0.26278 0.41362
# Poissons Ratio (y) = 0.17603 0.00233
# Poissons Ratio (z) = 0.12820 0.00108
#
# Static dielectric constant tensor:
#      x y z
#    x 1.765960 0.000000 0.000000 
#    y 0.000000 1.926840 0.000000 
#    z 0.000000 0.000000 5.032550 
# 
# From -- ./inp_files/61768.got.cif
#   From: 2010.05.17/outbox.cif.g08.bks.cpg/sg66_31_cif.got.tgz:61768.got - 2010.06.03 17:51:23.
