data_PCOD9498042
_publ_section_title
;
Structure prediction by ZEFSAII (Michael W. Deem and Ramdas Pophale) SiO2 
 PCOD9498042
Probable space group: C C C M
;
_chemical_formula_sum "Si O2"
_cell_formula_units_Z 72
_cell_length_a 5.378048
_cell_length_b 28.090299
_cell_length_c 23.322094
_cell_angle_alpha 90.000000
_cell_angle_beta 90.000000
_cell_angle_gamma 90.000000
_cell_volume 3523.291511
_symmetry_space_group_name_H-M "C C C M"
_symmetry_group_IT_number 66
_symmetry_cell_setting 'orthorhombic'
loop_
_space_group_symop_operation_xyz
x,y,z
-x,-y,z
x,-y,1/2-z
-x,y,1/2-z
-x,-y,-z
x,y,-z
-x,y,1/2+z
x,-y,1/2+z
1/2+x,1/2+y,z
1/2-x,1/2-y,z
1/2+x,1/2-y,1/2-z
1/2-x,1/2+y,1/2-z
1/2-x,1/2-y,-z
1/2+x,1/2+y,-z
1/2-x,1/2+y,1/2+z
1/2+x,1/2-y,1/2+z
loop_
_atom_site_type_symbol
_atom_site_label
_atom_site_fract_x
_atom_site_fract_y
_atom_site_fract_z
Si Si1 0.249966 0.520262 0.684398
Si Si2 0.250000 0.250000 0.610827
Si Si3 0.278295 0.378524 0.132973
Si Si4 0.637344 0.795012 0.199858
Si Si5 0.259194 0.854757 0.066897
O O1 0.500000 0.500000 0.657226
O O2 0.249638 0.500000 0.750000
O O3 0.254073 0.576533 0.675011
O O4 0.000000 0.500000 0.657067
O O5 0.471105 0.230242 0.651251
O O6 0.199422 0.202067 0.574550
O O7 0.323355 0.331140 0.170430
O O8 0.517659 0.381867 0.092034
O O9 0.014019 0.369044 0.100656
O O10 0.500000 0.823500 0.250000
O O11 0.750000 0.750000 0.232085
O O12 0.294272 0.864593 0.000000
#
# Coordination Sequence:
#
# PCOD9498042 Si02
#       5
#    16   8  16  16  16
#     4  10  22  42  65  94 126 160 208 257 322 385
#     4  10  21  38  54  90 130 176 217 254 296 366
#     4  11  24  41  66  94 130 166 209 270 315 376
#     4  11  21  36  55  90 135 174 204 245 317 391
#     4  11  23  41  66  92 128 172 222 263 310 361
#
# _framework density 20.435438000000001
#
# number of rings (size 3 to 8) (size 9 to 14) (size 15 to 20)
#    0.000    1.333    3.333    2.333    3.111    0.000 
#    8.000    3.333    0.000   13.333    0.000    0.000 
#    0.000    0.000    0.000    0.000    0.000    0.000 
#
# Total GULP energy -200533.865167 kJ/mol
# GULP energy per Si atom -5570.385144 kJ/mol
# Density = 2.038893 g / cm^3
# Si number density = 20.435438 Si / 1000 Ang^3
#
#
#
# Elastic Constant Matrix: (Units=GPa)
#
#
# Indices 1 2 3 4 5 6 
#
# 1 120.7799 28.4852 12.4281 0.0000 0.0000 0.0000
# 2 28.4852 129.2822 35.3367 0.0000 0.0000 0.0000
# 3 12.4281 35.3367 77.9181 0.0000 0.0000 0.0000
# 4 0.0000 0.0000 0.0000 16.4935 0.0000 0.0000
# 5 0.0000 0.0000 0.0000 0.0000 4.8983 0.0000
# 6 0.0000 0.0000 0.0000 0.0000 0.0000 26.7120
#
#
#
# Elastic Compliance Matrix: (Units=1/GPa)
#
#
# Indices 1 2 3 4 5 6 
#
# 1 0.008757 -0.001767 -0.000596 0.000000 0.000000 0.000000
# 2 -0.001767 0.009186 -0.003884 0.000000 0.000000 0.000000
# 3 -0.000596 -0.003884 0.014690 0.000000 0.000000 0.000000
# 4 0.000000 0.000000 0.000000 0.060630 0.000000 0.000000
# 5 0.000000 0.000000 0.000000 0.000000 0.204154 0.000000
# 6 0.000000 0.000000 0.000000 0.000000 0.000000 0.037436
#
#
# Mechanical properties :
#
#
# Convention : Reuss Voigt Hill
#
# Bulk Modulus (GPa) = 49.65008 53.38667 51.51837
# Shear Modulus (GPa) = 14.12187 26.40277 20.26232
#
# Velocity S-wave (km/s) = 2.63163 3.59835 3.15227
# Velocity P-wave (km/s) = 5.79507 6.59132 6.20597
#
# Compressibility (1/GPa) = 0.02014095
#
# Stress axis : x y z
#
# Youngs Moduli (GPa) = 114.18792 108.86196 68.07130
#
# Poissons Ratio (x) = 0.19234 0.04054
# Poissons Ratio (y) = 0.20174 0.26440
# Poissons Ratio (z) = 0.06801 0.42283
#
# Static dielectric constant tensor:
#      x y z
#    x 1.848060 0.000000 0.000000 
#    y 0.000000 1.749120 0.000000 
#    z 0.000000 0.000000 1.694650 
# 
# From -- ./inp_files/54225.got.cif
#   From: 2010.05.17/outbox.cif.g08.bks.cpg/sg66_28_cif.got.tgz:54225.got - 2010.06.03 17:51:23.
