data_PCOD9498342
_publ_section_title
;
Structure prediction by ZEFSAII (Michael W. Deem and Ramdas Pophale) SiO2 
 PCOD9498342
Probable space group: C C C M
;
_chemical_formula_sum "Si O2"
_cell_formula_units_Z 96
_cell_length_a 9.783155
_cell_length_b 24.182746
_cell_length_c 22.446489
_cell_angle_alpha 90.000000
_cell_angle_beta 90.000000
_cell_angle_gamma 90.000000
_cell_volume 5310.470108
_symmetry_space_group_name_H-M "C C C M"
_symmetry_group_IT_number 66
_symmetry_cell_setting 'orthorhombic'
loop_
_space_group_symop_operation_xyz
x,y,z
-x,-y,z
x,-y,1/2-z
-x,y,1/2-z
-x,-y,-z
x,y,-z
-x,y,1/2+z
x,-y,1/2+z
1/2+x,1/2+y,z
1/2-x,1/2-y,z
1/2+x,1/2-y,1/2-z
1/2-x,1/2+y,1/2-z
1/2-x,1/2-y,-z
1/2+x,1/2+y,-z
1/2-x,1/2+y,1/2+z
1/2+x,1/2-y,1/2+z
loop_
_atom_site_type_symbol
_atom_site_label
_atom_site_fract_x
_atom_site_fract_y
_atom_site_fract_z
Si Si1 0.626573 0.040923 0.614808
Si Si2 0.363377 0.478599 0.682807
Si Si3 0.890390 0.916842 0.500000
Si Si4 0.515343 0.141929 0.820920
Si Si5 0.910058 0.235832 0.805009
Si Si6 0.179896 0.132531 0.371441
Si Si7 0.301947 0.545072 0.500000
O O1 0.581323 0.096918 0.648063
O O2 0.711090 0.057644 0.557120
O O3 0.500000 0.000000 0.600753
O O4 0.728714 0.003494 0.653772
O O5 0.500000 0.500000 0.650628
O O6 0.363005 0.500000 0.750000
O O7 0.375086 0.413553 0.674246
O O8 0.842367 0.887059 0.439132
O O9 0.054203 0.923422 0.500000
O O10 0.831780 0.979161 0.500000
O O11 0.500000 0.130509 0.750000
O O12 0.507660 0.208878 0.824521
O O13 0.661770 0.133514 0.852405
O O14 0.750000 0.250000 0.787594
O O15 0.890367 0.190651 0.856438
O O16 0.000000 0.213355 0.750000
#
# Coordination Sequence:
#
# PCOD9498342 Si02
#       7
#    16  16   8  16  16  16   8
#     4  12  22  36  62  87 122 159 201 259 316 378
#     4  11  23  35  54  92 124 157 200 254 319 377
#     4  11  22  42  60  83 129 169 218 252 304 386
#     4  10  21  40  62  93 127 155 201 261 325 378
#     4   9  21  41  64  92 122 165 209 259 321 381
#     4  11  21  40  62  88 123 169 212 248 310 383
#     4  11  23  40  57  85 122 169 209 253 314 366
#
# _framework density 18.077494000000002
#
# number of rings (size 3 to 8) (size 9 to 14) (size 15 to 20)
#    0.000    1.333    3.333    2.250    2.333    0.667 
#    9.000    4.583    0.000    1.000    0.000    0.000 
#    0.000    0.000    0.000    0.000    0.000    0.000 
#
# Total GULP energy -267468.930653 kJ/mol
# GULP energy per Si atom -5572.269389 kJ/mol
# Density = 1.803635 g / cm^3
# Si number density = 18.077494 Si / 1000 Ang^3
#
#
#
# Elastic Constant Matrix: (Units=GPa)
#
#
# Indices 1 2 3 4 5 6 
#
# 1 88.1077 37.1488 46.1442 0.0000 0.0000 0.0000
# 2 37.1488 94.5495 60.7172 0.0000 0.0000 0.0000
# 3 46.1442 60.7172 139.4932 0.0000 0.0000 0.0000
# 4 0.0000 0.0000 0.0000 11.4677 0.0000 0.0000
# 5 0.0000 0.0000 0.0000 0.0000 29.6403 0.0000
# 6 0.0000 0.0000 0.0000 0.0000 0.0000 19.0617
#
#
#
# Elastic Compliance Matrix: (Units=1/GPa)
#
#
# Indices 1 2 3 4 5 6 
#
# 1 0.014584 -0.003653 -0.003234 0.000000 0.000000 0.000000
# 2 -0.003653 0.015595 -0.005580 0.000000 0.000000 0.000000
# 3 -0.003234 -0.005580 0.010667 0.000000 0.000000 0.000000
# 4 0.000000 0.000000 0.000000 0.087201 0.000000 0.000000
# 5 0.000000 0.000000 0.000000 0.000000 0.033738 0.000000
# 6 0.000000 0.000000 0.000000 0.000000 0.000000 0.052461
#
#
# Mechanical properties :
#
#
# Convention : Reuss Voigt Hill
#
# Bulk Modulus (GPa) = 62.84470 67.79676 65.32073
# Shear Modulus (GPa) = 20.45121 23.90994 22.18057
#
# Velocity S-wave (km/s) = 3.36714 3.64075 3.50662
# Velocity P-wave (km/s) = 7.06798 7.43359 7.25309
#
# Compressibility (1/GPa) = 0.01591224
#
# Stress axis : x y z
#
# Youngs Moduli (GPa) = 68.56902 64.12391 93.74459
#
# Poissons Ratio (x) = 0.23425 0.30319
# Poissons Ratio (y) = 0.25049 0.52305
# Poissons Ratio (z) = 0.22177 0.35778
#
# Static dielectric constant tensor:
#      x y z
#    x 2.021900 0.000000 0.000000 
#    y 0.000000 1.682090 0.000000 
#    z 0.000000 0.000000 1.581150 
# 
# From -- ./inp_files/55690.got.cif
#   From: 2010.05.17/outbox.cif.g08.bks.cpg/sg66_28_cif.got.tgz:55690.got - 2010.06.03 17:51:23.
