data_PCOD9498273
_publ_section_title
;
Structure prediction by ZEFSAII (Michael W. Deem and Ramdas Pophale) SiO2 
 PCOD9498273
Probable space group: C C C M
;
_chemical_formula_sum "Si O2"
_cell_formula_units_Z 88
_cell_length_a 13.018122
_cell_length_b 12.898623
_cell_length_c 25.266580
_cell_angle_alpha 90.000000
_cell_angle_beta 90.000000
_cell_angle_gamma 90.000000
_cell_volume 4242.659203
_symmetry_space_group_name_H-M "C C C M"
_symmetry_group_IT_number 66
_symmetry_cell_setting 'orthorhombic'
loop_
_space_group_symop_operation_xyz
x,y,z
-x,-y,z
x,-y,1/2-z
-x,y,1/2-z
-x,-y,-z
x,y,-z
-x,y,1/2+z
x,-y,1/2+z
1/2+x,1/2+y,z
1/2-x,1/2-y,z
1/2+x,1/2-y,1/2-z
1/2-x,1/2+y,1/2-z
1/2-x,1/2-y,-z
1/2+x,1/2+y,-z
1/2-x,1/2+y,1/2+z
1/2+x,1/2-y,1/2+z
loop_
_atom_site_type_symbol
_atom_site_label
_atom_site_fract_x
_atom_site_fract_y
_atom_site_fract_z
Si Si1 0.322583 0.850258 0.835053
Si Si2 0.679683 0.044055 0.403873
Si Si3 0.284850 0.500000 0.250000
Si Si4 0.535191 0.673641 0.500000
Si Si5 0.332041 0.468045 0.000000
Si Si6 0.179035 0.835768 0.323972
Si Si7 0.014836 0.711376 0.608544
O O1 0.250000 0.750000 0.838022
O O2 0.286733 0.925453 0.787031
O O3 0.438715 0.810167 0.841999
O O4 0.321377 0.924985 0.886572
O O5 0.735151 0.104713 0.357109
O O6 0.573112 0.105928 0.409626
O O7 0.757391 0.053110 0.451590
O O8 0.356410 0.577986 0.283113
O O9 0.427688 0.610271 0.500000
O O10 0.622710 0.584874 0.500000
O O11 0.534875 0.738425 0.555345
O O12 0.250000 0.750000 0.295407
O O13 0.097947 0.789224 0.364967
#
# Coordination Sequence:
#
# PCOD9498273 Si02
#       7
#    16  16   8   8   8  16  16
#     4  11  24  44  65  92 132 169 216 282 341 398
#     4  10  21  39  64  93 128 170 216 264 326 394
#     4  10  22  44  66  90 124 176 216 275 345 412
#     4  11  23  36  65 104 139 178 222 268 349 398
#     4  11  21  38  63  98 137 178 214 272 327 410
#     4   9  19  38  63  90 122 159 215 270 328 391
#     4  11  22  41  67 100 132 176 225 279 330 414
#
# _framework density 20.741710000000001
#
# number of rings (size 3 to 8) (size 9 to 14) (size 15 to 20)
#    0.000    1.636    1.818    2.727    0.000    1.455 
#    0.000   29.091    0.000    2.182    0.000    0.000 
#    0.000    0.000    0.000    0.000    0.000    0.000 
#
# Total GULP energy -244996.681299 kJ/mol
# GULP energy per Si atom -5568.106393 kJ/mol
# Density = 2.069450 g / cm^3
# Si number density = 20.741710 Si / 1000 Ang^3
#
#
#
# Elastic Constant Matrix: (Units=GPa)
#
#
# Indices 1 2 3 4 5 6 
#
# 1 60.5965 37.0365 4.0005 0.0000 0.0000 0.0000
# 2 37.0365 130.6926 46.5844 0.0000 0.0000 0.0000
# 3 4.0005 46.5844 65.2518 0.0000 0.0000 0.0000
# 4 0.0000 0.0000 0.0000 40.4757 0.0000 0.0000
# 5 0.0000 0.0000 0.0000 0.0000 37.4811 0.0000
# 6 0.0000 0.0000 0.0000 0.0000 0.0000 24.6265
#
#
#
# Elastic Compliance Matrix: (Units=1/GPa)
#
#
# Indices 1 2 3 4 5 6 
#
# 1 0.020678 -0.007254 0.003911 0.000000 0.000000 0.000000
# 2 -0.007254 0.012808 -0.008699 0.000000 0.000000 0.000000
# 3 0.003911 -0.008699 0.021296 0.000000 0.000000 0.000000
# 4 0.000000 0.000000 0.000000 0.024706 0.000000 0.000000
# 5 0.000000 0.000000 0.000000 0.000000 0.026680 0.000000
# 6 0.000000 0.000000 0.000000 0.000000 0.000000 0.040607
#
#
# Mechanical properties :
#
#
# Convention : Reuss Voigt Hill
#
# Bulk Modulus (GPa) = 32.57568 47.97597 40.27582
# Shear Modulus (GPa) = 27.61037 31.77795 29.69416
#
# Velocity S-wave (km/s) = 3.65245 3.91843 3.78777
# Velocity P-wave (km/s) = 5.79023 6.60700 6.21205
#
# Compressibility (1/GPa) = 0.03069775
#
# Stress axis : x y z
#
# Youngs Moduli (GPa) = 48.36062 78.07682 46.95745
#
# Poissons Ratio (x) = 0.56636 -0.18365
# Poissons Ratio (y) = 0.35080 0.40849
# Poissons Ratio (z) = -0.18913 0.67919
#
# Static dielectric constant tensor:
#      x y z
#    x 1.737460 0.000000 0.000000 
#    y 0.000000 1.830550 0.000000 
#    z 0.000000 0.000000 1.644580 
# 
# From -- ./inp_files/68925.got.cif
#   From: 2010.05.17/outbox.cif.g08.bks.cpg/sg66_35_cif.got.tgz:68925.got - 2010.06.03 17:51:23.
