data_PCOD9498559
_publ_section_title
;
Structure prediction by ZEFSAII (Michael W. Deem and Ramdas Pophale) SiO2 
 PCOD9498559
Probable space group: C C C M
;
_chemical_formula_sum "Si O2"
_cell_formula_units_Z 72
_cell_length_a 15.135228
_cell_length_b 26.370279
_cell_length_c 9.100782
_cell_angle_alpha 90.000000
_cell_angle_beta 90.000000
_cell_angle_gamma 90.000000
_cell_volume 3632.305796
_symmetry_space_group_name_H-M "C C C M"
_symmetry_group_IT_number 66
_symmetry_cell_setting 'orthorhombic'
loop_
_space_group_symop_operation_xyz
x,y,z
-x,-y,z
x,-y,1/2-z
-x,y,1/2-z
-x,-y,-z
x,y,-z
-x,y,1/2+z
x,-y,1/2+z
1/2+x,1/2+y,z
1/2-x,1/2-y,z
1/2+x,1/2-y,1/2-z
1/2-x,1/2+y,1/2-z
1/2-x,1/2-y,-z
1/2+x,1/2+y,-z
1/2-x,1/2+y,1/2+z
1/2+x,1/2-y,1/2+z
loop_
_atom_site_type_symbol
_atom_site_label
_atom_site_fract_x
_atom_site_fract_y
_atom_site_fract_z
Si Si1 0.749556 0.445942 0.327356
Si Si2 0.407963 0.367057 0.825501
Si Si3 0.578967 0.085186 0.839479
Si Si4 0.853810 0.762049 0.676156
Si Si5 0.000000 0.685924 0.250000
O O1 0.739521 0.500000 0.250000
O O2 0.766528 0.452512 0.500000
O O3 0.663177 0.411577 0.309552
O O4 0.832356 0.417793 0.253248
O O5 0.500000 0.381408 0.750000
O O6 0.373362 0.317457 0.740309
O O7 0.419253 0.356483 0.000000
O O8 0.500000 0.059196 0.750000
O O9 0.544685 0.143232 0.853563
O O10 0.592568 0.063092 0.000000
O O11 0.875646 0.759013 0.500000
O O12 0.750000 0.750000 0.692024
O O13 0.917318 0.723960 0.767995
#
# Coordination Sequence:
#
# PCOD9498559 Si02
#       5
#    16  16  16  16   8
#     4  11  25  45  69  97 128 167 217 270 329 387
#     4  11  25  43  65  95 129 168 215 269 322 384
#     4  10  22  40  65  95 133 172 212 263 318 381
#     4  11  23  40  64  94 130 174 217 261 320 383
#     4  10  22  36  65  96 133 172 216 260 312 380
#
# _framework density 19.822120999999999
#
# number of rings (size 3 to 8) (size 9 to 14) (size 15 to 20)
#    0.667    0.667    1.111    4.000    0.000    7.556 
#    0.000    4.444    0.000    0.000    0.000    0.000 
#    0.000    0.000    0.000    0.000    0.000    0.000 
#
# Total GULP energy -200622.951432 kJ/mol
# GULP energy per Si atom -5572.859762 kJ/mol
# Density = 1.977700 g / cm^3
# Si number density = 19.822121 Si / 1000 Ang^3
#
#
#
# Elastic Constant Matrix: (Units=GPa)
#
#
# Indices 1 2 3 4 5 6 
#
# 1 163.5088 46.5482 89.6100 0.0000 0.0000 0.0000
# 2 46.5482 97.0390 59.5749 0.0000 0.0000 0.0000
# 3 89.6100 59.5749 138.7406 0.0000 0.0000 0.0000
# 4 0.0000 0.0000 0.0000 51.4452 0.0000 0.0000
# 5 0.0000 0.0000 0.0000 0.0000 -236.8530 0.0000
# 6 0.0000 0.0000 0.0000 0.0000 0.0000 66.7740
#
#
#
# Elastic Compliance Matrix: (Units=1/GPa)
#
#
# Indices 1 2 3 4 5 6 
#
# 1 0.009549 -0.001078 -0.005705 0.000000 0.000000 0.000000
# 2 -0.001078 0.014116 -0.005365 0.000000 0.000000 0.000000
# 3 -0.005705 -0.005365 0.013196 0.000000 0.000000 0.000000
# 4 0.000000 0.000000 0.000000 0.019438 0.000000 0.000000
# 5 0.000000 0.000000 0.000000 0.000000 -0.004222 0.000000
# 6 0.000000 0.000000 0.000000 0.000000 0.000000 0.014976
#
#
# Mechanical properties :
#
#
# Convention : Reuss Voigt Hill
#
# Bulk Modulus (GPa) = 79.58377 87.86161 83.72269
# Shear Modulus (GPa) = 52.33540 -10.15643 21.08948
#
# Velocity S-wave (km/s) = 5.14391 -2.26603 3.26534
# Velocity P-wave (km/s) = 8.68999 6.12982 7.51966
#
# Compressibility (1/GPa) = 0.01256538
#
# Stress axis : x y z
#
# Youngs Moduli (GPa) = 104.71988 70.84116 75.78118
#
# Poissons Ratio (x) = 0.07640 0.43230
# Poissons Ratio (y) = 0.11293 0.40656
# Poissons Ratio (z) = 0.59739 0.38005
#
# Static dielectric constant tensor:
#      x y z
#    x 1.686260 0.000000 0.000000 
#    y 0.000000 1.703710 0.000000 
#    z 0.000000 0.000000 1.197630 
# 
# From -- ./inp_files/5379.got.cif
#   From: 2010.05.17/outbox.cif.g08.bks.cpg/sg66_3_cif.got.tgz:5379.got - 2010.06.03 17:51:23.
