data_PCOD9498814
_publ_section_title
;
Structure prediction by ZEFSAII (Michael W. Deem and Ramdas Pophale) SiO2 
 PCOD9498814
Probable space group: C C C M
;
_chemical_formula_sum "Si O2"
_cell_formula_units_Z 48
_cell_length_a 9.156157
_cell_length_b 11.747198
_cell_length_c 17.404072
_cell_angle_alpha 90.000000
_cell_angle_beta 90.000000
_cell_angle_gamma 90.000000
_cell_volume 1871.967873
_symmetry_space_group_name_H-M "C C C M"
_symmetry_group_IT_number 66
_symmetry_cell_setting 'orthorhombic'
loop_
_space_group_symop_operation_xyz
x,y,z
-x,-y,z
x,-y,1/2-z
-x,y,1/2-z
-x,-y,-z
x,y,-z
-x,y,1/2+z
x,-y,1/2+z
1/2+x,1/2+y,z
1/2-x,1/2-y,z
1/2+x,1/2-y,1/2-z
1/2-x,1/2+y,1/2-z
1/2-x,1/2-y,-z
1/2+x,1/2+y,-z
1/2-x,1/2+y,1/2+z
1/2+x,1/2-y,1/2+z
loop_
_atom_site_type_symbol
_atom_site_label
_atom_site_fract_x
_atom_site_fract_y
_atom_site_fract_z
Si Si1 0.005286 0.274205 0.084885
Si Si2 0.651649 0.642863 0.702548
Si Si3 0.258824 0.410982 0.136441
O O1 0.105760 0.384636 0.096597
O O2 0.119676 0.168337 0.095621
O O3 0.890680 0.253536 0.152724
O O4 0.941774 0.272061 0.000000
O O5 0.500000 0.620660 0.750000
O O6 0.759316 0.632874 0.775419
O O7 0.688941 0.540053 0.644694
#
# Coordination Sequence:
#
# PCOD9498814 Si02
#       3
#    16  16  16
#     4  11  23  41  66  96 131 169 214 270 332 389
#     4  11  23  40  65  96 127 169 224 267 319 394
#     4  10  22  41  66  93 127 170 222 269 320 390
#
# _framework density 25.641466000000001
#
# number of rings (size 3 to 8) (size 9 to 14) (size 15 to 20)
#    0.000    1.333    3.333    4.000    0.000    8.667 
#    0.000    5.000    0.000    0.000    0.000    0.000 
#    0.000    0.000    0.000    0.000    0.000    0.000 
#
# Total GULP energy -134091.409178 kJ/mol
# GULP energy per Si atom -5587.142049 kJ/mol
# Density = 2.558310 g / cm^3
# Si number density = 25.641466 Si / 1000 Ang^3
#
#
#
# Elastic Constant Matrix: (Units=GPa)
#
#
# Indices 1 2 3 4 5 6 
#
# 1 66.1560 13.5067 11.1739 0.0000 0.0000 0.0000
# 2 13.5067 90.6396 -7.1146 0.0000 0.0000 0.0000
# 3 11.1739 -7.1146 149.2483 0.0000 0.0000 0.0000
# 4 0.0000 0.0000 0.0000 24.8272 0.0000 0.0000
# 5 0.0000 0.0000 0.0000 0.0000 23.4607 0.0000
# 6 0.0000 0.0000 0.0000 0.0000 0.0000 36.2506
#
#
#
# Elastic Compliance Matrix: (Units=1/GPa)
#
#
# Indices 1 2 3 4 5 6 
#
# 1 0.015839 -0.002463 -0.001303 0.000000 0.000000 0.000000
# 2 -0.002463 0.011457 0.000731 0.000000 0.000000 0.000000
# 3 -0.001303 0.000731 0.006833 0.000000 0.000000 0.000000
# 4 0.000000 0.000000 0.000000 0.040278 0.000000 0.000000
# 5 0.000000 0.000000 0.000000 0.000000 0.042625 0.000000
# 6 0.000000 0.000000 0.000000 0.000000 0.000000 0.027586
#
#
# Mechanical properties :
#
#
# Convention : Reuss Voigt Hill
#
# Bulk Modulus (GPa) = 35.64055 37.90843 36.77449
# Shear Modulus (GPa) = 31.24221 36.13956 33.69088
#
# Velocity S-wave (km/s) = 3.49438 3.75830 3.62874
# Velocity P-wave (km/s) = 5.49642 5.80079 5.65066
#
# Compressibility (1/GPa) = 0.02805793
#
# Stress axis : x y z
#
# Youngs Moduli (GPa) = 63.13666 87.28290 146.35643
#
# Poissons Ratio (x) = 0.21493 0.19073
# Poissons Ratio (y) = 0.15547 -0.10692
# Poissons Ratio (z) = 0.08228 -0.06376
#
# Static dielectric constant tensor:
#      x y z
#    x 2.237120 0.000000 0.000000 
#    y 0.000000 2.161000 0.000000 
#    z 0.000000 0.000000 1.966840 
# 
# From -- ./inp_files/27456.got.cif
#   From: 2010.05.17/outbox.cif.g08.bks.cpg/sg66_14_cif.got.tgz:27456.got - 2010.06.03 17:51:23.
