data_PCOD9498632
_publ_section_title
;
Structure prediction by ZEFSAII (Michael W. Deem and Ramdas Pophale) SiO2 
 PCOD9498632
Probable space group: C C C M
;
_chemical_formula_sum "Si O2"
_cell_formula_units_Z 104
_cell_length_a 19.437307
_cell_length_b 9.763656
_cell_length_c 27.617202
_cell_angle_alpha 90.000000
_cell_angle_beta 90.000000
_cell_angle_gamma 90.000000
_cell_volume 5241.169925
_symmetry_space_group_name_H-M "C C C M"
_symmetry_group_IT_number 66
_symmetry_cell_setting 'orthorhombic'
loop_
_space_group_symop_operation_xyz
x,y,z
-x,-y,z
x,-y,1/2-z
-x,y,1/2-z
-x,-y,-z
x,y,-z
-x,y,1/2+z
x,-y,1/2+z
1/2+x,1/2+y,z
1/2-x,1/2-y,z
1/2+x,1/2-y,1/2-z
1/2-x,1/2+y,1/2-z
1/2-x,1/2-y,-z
1/2+x,1/2+y,-z
1/2-x,1/2+y,1/2+z
1/2+x,1/2-y,1/2+z
loop_
_atom_site_type_symbol
_atom_site_label
_atom_site_fract_x
_atom_site_fract_y
_atom_site_fract_z
Si Si1 0.739778 0.912008 0.500000
Si Si2 0.421537 0.928687 0.000000
Si Si3 0.656412 0.508557 0.420963
Si Si4 0.166241 0.234272 0.344258
Si Si5 0.819895 0.161463 0.740529
Si Si6 0.944699 0.119501 0.000000
Si Si7 0.578837 0.013787 0.111461
Si Si8 0.833927 0.247819 0.635123
O O1 0.750000 0.750000 0.500000
O O2 0.659740 0.918118 0.500000
O O3 0.774144 0.977522 0.452475
O O4 0.430578 0.993316 0.053146
O O5 0.459936 0.780801 0.000000
O O6 0.658687 0.591144 0.371545
O O7 0.601490 0.586122 0.453636
O O8 0.641523 0.353081 0.407551
O O9 0.250000 0.250000 0.345300
O O10 0.143411 0.220083 0.288460
O O11 0.120834 0.349337 0.371760
O O12 0.750000 0.250000 0.738195
O O13 0.852651 0.187625 0.688116
O O14 0.806754 0.000000 0.750000
O O15 0.000000 0.000000 0.000000
O O16 0.628620 0.891623 0.128641
O O17 0.500000 0.000000 0.131077
O O18 0.750000 0.250000 0.631988
#
# Coordination Sequence:
#
# PCOD9498632 Si02
#       8
#     8   8  16  16  16   8  16  16
#     4  11  18  34  59  99 126 159 223 276 328 380
#     4  12  22  43  65  88 131 180 223 271 329 416
#     4  11  21  37  65  93 126 166 219 282 321 387
#     4  11  21  40  71  98 130 175 223 268 330 399
#     4  10  22  38  67 105 136 169 222 283 331 392
#     4  11  25  38  63  89 121 169 230 270 327 398
#     4  12  28  45  66  99 140 181 219 277 345 403
#     4  11  24  42  65 100 138 171 224 278 334 396
#
# _framework density 19.842898000000002
#
# number of rings (size 3 to 8) (size 9 to 14) (size 15 to 20)
#    0.000    0.923    4.615    3.462    8.615    1.231 
#    0.000    4.231    0.000    0.923    0.000    0.000 
#    0.000    0.000    0.000    0.000    0.000    0.000 
#
# Total GULP energy -289813.034604 kJ/mol
# GULP energy per Si atom -5573.327589 kJ/mol
# Density = 1.979774 g / cm^3
# Si number density = 19.842898 Si / 1000 Ang^3
#
#
#
# Elastic Constant Matrix: (Units=GPa)
#
#
# Indices 1 2 3 4 5 6 
#
# 1 92.3040 25.5452 9.2423 0.0000 0.0000 0.0000
# 2 25.5452 95.5967 24.9435 0.0000 0.0000 0.0000
# 3 9.2423 24.9435 113.5076 0.0000 0.0000 0.0000
# 4 0.0000 0.0000 0.0000 27.6846 0.0000 0.0000
# 5 0.0000 0.0000 0.0000 0.0000 -55.3527 0.0000
# 6 0.0000 0.0000 0.0000 0.0000 0.0000 31.8037
#
#
#
# Elastic Compliance Matrix: (Units=1/GPa)
#
#
# Indices 1 2 3 4 5 6 
#
# 1 0.011707 -0.003055 -0.000282 0.000000 0.000000 0.000000
# 2 -0.003055 0.011894 -0.002365 0.000000 0.000000 0.000000
# 3 -0.000282 -0.002365 0.009353 0.000000 0.000000 0.000000
# 4 0.000000 0.000000 0.000000 0.036121 0.000000 0.000000
# 5 0.000000 0.000000 0.000000 0.000000 -0.018066 0.000000
# 6 0.000000 0.000000 0.000000 0.000000 0.000000 0.031443
#
#
# Mechanical properties :
#
#
# Convention : Reuss Voigt Hill
#
# Bulk Modulus (GPa) = 46.40272 46.76337 46.58305
# Shear Modulus (GPa) = 49.48570 16.93894 33.21232
#
# Velocity S-wave (km/s) = 4.99929 2.92490 4.09560
# Velocity P-wave (km/s) = 7.53390 5.91817 6.77438
#
# Compressibility (1/GPa) = 0.02155046
#
# Stress axis : x y z
#
# Youngs Moduli (GPa) = 85.41584 84.07594 106.92149
#
# Poissons Ratio (x) = 0.25684 0.03015
# Poissons Ratio (y) = 0.26093 0.25287
# Poissons Ratio (z) = 0.02408 0.19884
#
# Static dielectric constant tensor:
#      x y z
#    x 1.733580 0.000000 0.000000 
#    y 0.000000 1.664780 0.000000 
#    z 0.000000 0.000000 1.732650 
# 
# From -- ./inp_files/65773.got.cif
#   From: 2010.05.17/outbox.cif.g08.bks.cpg/sg66_33_cif.got.tgz:65773.got - 2010.06.03 17:51:23.
