data_PCOD9498125
_publ_section_title
;
Structure prediction by ZEFSAII (Michael W. Deem and Ramdas Pophale) SiO2 
 PCOD9498125
Probable space group: C C C M
;
_chemical_formula_sum "Si O2"
_cell_formula_units_Z 112
_cell_length_a 6.397617
_cell_length_b 26.865689
_cell_length_c 28.471016
_cell_angle_alpha 90.000000
_cell_angle_beta 90.000000
_cell_angle_gamma 90.000000
_cell_volume 4893.495412
_symmetry_space_group_name_H-M "C C C M"
_symmetry_group_IT_number 66
_symmetry_cell_setting 'orthorhombic'
loop_
_space_group_symop_operation_xyz
x,y,z
-x,-y,z
x,-y,1/2-z
-x,y,1/2-z
-x,-y,-z
x,y,-z
-x,y,1/2+z
x,-y,1/2+z
1/2+x,1/2+y,z
1/2-x,1/2-y,z
1/2+x,1/2-y,1/2-z
1/2-x,1/2+y,1/2-z
1/2-x,1/2-y,-z
1/2+x,1/2+y,-z
1/2-x,1/2+y,1/2+z
1/2+x,1/2-y,1/2+z
loop_
_atom_site_type_symbol
_atom_site_label
_atom_site_fract_x
_atom_site_fract_y
_atom_site_fract_z
Si Si1 0.412889 0.875377 0.300717
Si Si2 0.825808 0.463528 0.052327
Si Si3 0.927011 0.208938 0.695724
Si Si4 0.582875 0.444056 0.299549
Si Si5 0.928398 0.640556 0.946242
Si Si6 0.511522 0.404063 0.401554
Si Si7 0.714137 0.824386 0.626770
O O1 0.500000 0.862547 0.250000
O O2 0.207538 0.841486 0.308110
O O3 0.330434 0.931949 0.300942
O O4 0.587101 0.860284 0.337751
O O5 0.601450 0.450206 0.073530
O O6 0.000000 0.500000 0.075706
O O7 0.925698 0.408514 0.050315
O O8 0.793964 0.484107 0.000000
O O9 0.750000 0.250000 0.684206
O O10 0.000000 0.215949 0.750000
O O11 0.127558 0.207376 0.660686
O O12 0.500000 0.500000 0.299958
O O13 0.500000 0.422236 0.250000
O O14 0.505798 0.420223 0.347475
O O15 0.730289 0.614419 0.921435
O O16 0.030652 0.683726 0.912720
O O17 0.887135 0.657163 0.000000
O O18 0.377342 0.354234 0.404353
#
# Coordination Sequence:
#
# PCOD9498125 Si02
#       7
#    16  16  16  16  16  16  16
#     4  12  22  42  68  91 134 183 224 282 342 415
#     4   9  20  34  53  86 121 158 214 287 357 411
#     4  12  25  41  67 106 140 174 218 276 353 436
#     4  11  24  40  58  87 128 179 238 284 334 409
#     4  10  21  38  61  91 124 172 232 283 347 416
#     4  11  21  37  61  85 122 175 225 290 343 407
#     4  11  22  40  64  96 133 178 220 273 354 412
#
# _framework density 22.887526000000001
#
# number of rings (size 3 to 8) (size 9 to 14) (size 15 to 20)
#    0.000    1.143    4.286    2.143    2.000    0.571 
#    0.000    6.429    0.000    0.429    0.000    4.000 
#    0.000    0.000    0.000    0.000    0.000    0.000 
#
# Total GULP energy -311854.233041 kJ/mol
# GULP energy per Si atom -5568.825590 kJ/mol
# Density = 2.283543 g / cm^3
# Si number density = 22.887526 Si / 1000 Ang^3
#
#
#
# Elastic Constant Matrix: (Units=GPa)
#
#
# Indices 1 2 3 4 5 6 
#
# 1 142.3686 53.6454 63.4745 0.0000 0.0000 0.0000
# 2 53.6454 71.9734 22.2983 0.0000 0.0000 0.0000
# 3 63.4745 22.2983 116.0397 0.0000 0.0000 0.0000
# 4 0.0000 0.0000 0.0000 4.2758 0.0000 0.0000
# 5 0.0000 0.0000 0.0000 0.0000 19.8873 0.0000
# 6 0.0000 0.0000 0.0000 0.0000 0.0000 43.0399
#
#
#
# Elastic Compliance Matrix: (Units=1/GPa)
#
#
# Indices 1 2 3 4 5 6 
#
# 1 0.012155 -0.007443 -0.005219 0.000000 0.000000 0.000000
# 2 -0.007443 0.019331 0.000357 0.000000 0.000000 0.000000
# 3 -0.005219 0.000357 0.011404 0.000000 0.000000 0.000000
# 4 0.000000 0.000000 0.000000 0.233873 0.000000 0.000000
# 5 0.000000 0.000000 0.000000 0.000000 0.050283 0.000000
# 6 0.000000 0.000000 0.000000 0.000000 0.000000 0.023234
#
#
# Mechanical properties :
#
#
# Convention : Reuss Voigt Hill
#
# Bulk Modulus (GPa) = 54.70425 67.69091 61.19758
# Shear Modulus (GPa) = 13.12387 26.17150 19.64769
#
# Velocity S-wave (km/s) = 2.39719 3.38521 2.93310
# Velocity P-wave (km/s) = 5.62274 6.70218 6.18605
#
# Compressibility (1/GPa) = 0.01828012
#
# Stress axis : x y z
#
# Youngs Moduli (GPa) = 82.26761 51.72961 87.68927
#
# Poissons Ratio (x) = 0.38503 0.45763
# Poissons Ratio (y) = 0.61234 -0.03128
# Poissons Ratio (z) = 0.42934 -0.01845
#
# Static dielectric constant tensor:
#      x y z
#    x 1.895280 0.000000 0.000000 
#    y 0.000000 2.117070 0.000000 
#    z 0.000000 0.000000 1.903370 
# 
# From -- ./inp_files/67518.got.cif
#   From: 2010.05.17/outbox.cif.g08.bks.cpg/sg66_34_cif.got.tgz:67518.got - 2010.06.03 17:51:23.
