data_PCOD9498662
_publ_section_title
;
Structure prediction by ZEFSAII (Michael W. Deem and Ramdas Pophale) SiO2 
 PCOD9498662
Probable space group: C C C M
;
_chemical_formula_sum "Si O2"
_cell_formula_units_Z 88
_cell_length_a 8.494283
_cell_length_b 18.053849
_cell_length_c 29.521623
_cell_angle_alpha 90.000000
_cell_angle_beta 90.000000
_cell_angle_gamma 90.000000
_cell_volume 4527.273812
_symmetry_space_group_name_H-M "C C C M"
_symmetry_group_IT_number 66
_symmetry_cell_setting 'orthorhombic'
loop_
_space_group_symop_operation_xyz
x,y,z
-x,-y,z
x,-y,1/2-z
-x,y,1/2-z
-x,-y,-z
x,y,-z
-x,y,1/2+z
x,-y,1/2+z
1/2+x,1/2+y,z
1/2-x,1/2-y,z
1/2+x,1/2-y,1/2-z
1/2-x,1/2+y,1/2-z
1/2-x,1/2-y,-z
1/2+x,1/2+y,-z
1/2-x,1/2+y,1/2+z
1/2+x,1/2-y,1/2+z
loop_
_atom_site_type_symbol
_atom_site_label
_atom_site_fract_x
_atom_site_fract_y
_atom_site_fract_z
Si Si1 0.404869 0.881686 0.917419
Si Si2 0.832638 0.971458 0.698785
Si Si3 0.572327 0.614471 0.000000
Si Si4 0.000000 0.500000 0.648731
Si Si5 0.157328 0.177328 0.654703
Si Si6 0.739572 0.030583 0.000000
Si Si7 0.071948 0.770848 0.417615
O O1 0.255083 0.858990 0.886946
O O2 0.478930 0.803747 0.932783
O O3 0.514274 0.927762 0.883202
O O4 0.352278 0.937109 0.956819
O O5 0.664873 0.993033 0.675992
O O6 0.849198 0.883228 0.693555
O O7 0.827443 0.000000 0.750000
O O8 0.000000 0.000000 0.677896
O O9 0.568034 0.666562 0.956023
O O10 0.410586 0.568884 0.000000
O O11 0.719765 0.556979 0.000000
O O12 0.250000 0.250000 0.669823
O O13 0.999088 0.201946 0.629925
O O14 0.250000 0.750000 0.410831
#
# Coordination Sequence:
#
# PCOD9498662 Si02
#       7
#    16  16   8   8  16   8  16
#     4  10  22  39  62  86 122 175 211 264 321 370
#     4  10  22  41  73  98 128 163 204 265 330 400
#     4  11  24  38  57  89 126 167 229 276 319 365
#     4  10  23  41  66  98 126 162 220 261 321 392
#     4   9  20  40  64  91 127 165 211 259 323 389
#     4  11  23  39  61  85 124 171 217 277 323 369
#     4  11  23  37  59  90 126 171 217 265 316 378
#
# _framework density 19.437746000000001
#
# number of rings (size 3 to 8) (size 9 to 14) (size 15 to 20)
#    0.000    1.818    1.818    1.091    5.091    2.545 
#    0.000    0.000   24.000    0.000    0.000    0.000 
#    0.000    0.000    0.000    0.000    0.000    0.000 
#
# Total GULP energy -245456.982054 kJ/mol
# GULP energy per Si atom -5578.567774 kJ/mol
# Density = 1.939350 g / cm^3
# Si number density = 19.437746 Si / 1000 Ang^3
#
#
#
# Elastic Constant Matrix: (Units=GPa)
#
#
# Indices 1 2 3 4 5 6 
#
# 1 103.3909 38.9420 37.3884 0.0000 0.0000 0.0000
# 2 38.9420 139.1505 68.8785 0.0000 0.0000 0.0000
# 3 37.3884 68.8785 75.6457 0.0000 0.0000 0.0000
# 4 0.0000 0.0000 0.0000 41.9148 0.0000 0.0000
# 5 0.0000 0.0000 0.0000 0.0000 8.2233 0.0000
# 6 0.0000 0.0000 0.0000 0.0000 0.0000 27.4827
#
#
#
# Elastic Compliance Matrix: (Units=1/GPa)
#
#
# Indices 1 2 3 4 5 6 
#
# 1 0.011821 -0.000758 -0.005153 0.000000 0.000000 0.000000
# 2 -0.000758 0.013132 -0.011583 0.000000 0.000000 0.000000
# 3 -0.005153 -0.011583 0.026313 0.000000 0.000000 0.000000
# 4 0.000000 0.000000 0.000000 0.023858 0.000000 0.000000
# 5 0.000000 0.000000 0.000000 0.000000 0.121606 0.000000
# 6 0.000000 0.000000 0.000000 0.000000 0.000000 0.036386
#
#
# Mechanical properties :
#
#
# Convention : Reuss Voigt Hill
#
# Bulk Modulus (GPa) = 61.42690 67.62276 64.52483
# Shear Modulus (GPa) = 18.27968 27.05605 22.66786
#
# Velocity S-wave (km/s) = 3.06996 3.73491 3.41864
# Velocity P-wave (km/s) = 6.65106 7.31193 6.98931
#
# Compressibility (1/GPa) = 0.01627951
#
# Stress axis : x y z
#
# Youngs Moduli (GPa) = 84.59749 76.15131 38.00447
#
# Poissons Ratio (x) = 0.05769 0.19583
# Poissons Ratio (y) = 0.06408 0.44019
# Poissons Ratio (z) = 0.43591 0.88203
#
# Static dielectric constant tensor:
#      x y z
#    x 1.698200 0.000000 0.000000 
#    y 0.000000 1.739400 0.000000 
#    z 0.000000 0.000000 1.666750 
# 
# From -- ./inp_files/68203.got.cif
#   From: 2010.05.17/outbox.cif.g08.bks.cpg/sg66_35_cif.got.tgz:68203.got - 2010.06.03 17:51:23.
