data_PCOD9498735
_publ_section_title
;
Structure prediction by ZEFSAII (Michael W. Deem and Ramdas Pophale) SiO2 
 PCOD9498735
Probable space group: C C C M
;
_chemical_formula_sum "Si O2"
_cell_formula_units_Z 68
_cell_length_a 5.832557
_cell_length_b 28.134525
_cell_length_c 18.988370
_cell_angle_alpha 90.000000
_cell_angle_beta 90.000000
_cell_angle_gamma 90.000000
_cell_volume 3115.919755
_symmetry_space_group_name_H-M "C C C M"
_symmetry_group_IT_number 66
_symmetry_cell_setting 'orthorhombic'
loop_
_space_group_symop_operation_xyz
x,y,z
-x,-y,z
x,-y,1/2-z
-x,y,1/2-z
-x,-y,-z
x,y,-z
-x,y,1/2+z
x,-y,1/2+z
1/2+x,1/2+y,z
1/2-x,1/2-y,z
1/2+x,1/2-y,1/2-z
1/2-x,1/2+y,1/2-z
1/2-x,1/2-y,-z
1/2+x,1/2+y,-z
1/2-x,1/2+y,1/2+z
1/2+x,1/2-y,1/2+z
loop_
_atom_site_type_symbol
_atom_site_label
_atom_site_fract_x
_atom_site_fract_y
_atom_site_fract_z
Si Si1 0.612127 0.133999 0.325928
Si Si2 0.135197 0.298145 0.420529
Si Si3 0.000000 0.000000 0.250000
Si Si4 0.824467 0.457995 0.130587
Si Si5 0.995228 0.884959 0.576105
O O1 0.500000 0.143082 0.250000
O O2 0.560385 0.180649 0.371880
O O3 0.479391 0.087117 0.351136
O O4 0.868183 0.120490 0.350351
O O5 0.052611 0.288610 0.500000
O O6 0.250000 0.250000 0.393562
O O7 0.320991 0.340628 0.424120
O O8 0.175098 0.972785 0.198439
O O9 0.639210 0.435028 0.078153
O O10 0.000000 0.500000 0.109361
O O11 0.125194 0.882931 0.500000
#
# Coordination Sequence:
#
# PCOD9498735 Si02
#       5
#    16  16   4  16  16
#     4  11  22  38  59  90 124 160 205 260 312 366
#     4   9  20  40  62  87 119 159 205 253 307 371
#     4  12  22  40  62  86 120 164 214 246 312 370
#     4  11  22  37  60  88 121 161 206 258 312 373
#     4  10  22  40  63  89 122 165 207 254 312 376
#
# _framework density 21.823411
#
# number of rings (size 3 to 8) (size 9 to 14) (size 15 to 20)
#    0.000    1.647    0.000    5.294    0.000    5.176 
#    4.235    7.647    0.000    0.000    0.000    0.000 
#    0.000    0.000    0.000    0.000    0.000    0.000 
#
# Total GULP energy -189435.907058 kJ/mol
# GULP energy per Si atom -5571.644325 kJ/mol
# Density = 2.177374 g / cm^3
# Si number density = 21.823411 Si / 1000 Ang^3
#
#
#
# Elastic Constant Matrix: (Units=GPa)
#
#
# Indices 1 2 3 4 5 6 
#
# 1 56.1214 21.0708 17.3666 0.0000 0.0000 0.0000
# 2 21.0708 126.8701 16.7589 0.0000 0.0000 0.0000
# 3 17.3666 16.7589 73.3749 0.0000 0.0000 0.0000
# 4 0.0000 0.0000 0.0000 8.5957 0.0000 0.0000
# 5 0.0000 0.0000 0.0000 0.0000 34.1925 0.0000
# 6 0.0000 0.0000 0.0000 0.0000 0.0000 25.8390
#
#
#
# Elastic Compliance Matrix: (Units=1/GPa)
#
#
# Indices 1 2 3 4 5 6 
#
# 1 0.020148 -0.002801 -0.004129 0.000000 0.000000 0.000000
# 2 -0.002801 0.008517 -0.001282 0.000000 0.000000 0.000000
# 3 -0.004129 -0.001282 0.014899 0.000000 0.000000 0.000000
# 4 0.000000 0.000000 0.000000 0.116337 0.000000 0.000000
# 5 0.000000 0.000000 0.000000 0.000000 0.029246 0.000000
# 6 0.000000 0.000000 0.000000 0.000000 0.000000 0.038701
#
#
# Mechanical properties :
#
#
# Convention : Reuss Voigt Hill
#
# Bulk Modulus (GPa) = 36.84716 40.75099 38.79908
# Shear Modulus (GPa) = 19.73801 27.13677 23.43739
#
# Velocity S-wave (km/s) = 3.01066 3.53011 3.28068
# Velocity P-wave (km/s) = 5.38575 5.94384 5.67166
#
# Compressibility (1/GPa) = 0.02713913
#
# Stress axis : x y z
#
# Youngs Moduli (GPa) = 49.63330 117.41748 67.11962
#
# Poissons Ratio (x) = 0.32886 0.27713
# Poissons Ratio (y) = 0.13901 0.08607
# Poissons Ratio (z) = 0.20493 0.15057
#
# Static dielectric constant tensor:
#      x y z
#    x 3.423070 0.000000 0.000000 
#    y 0.000000 1.759980 0.000000 
#    z 0.000000 0.000000 1.852750 
# 
# From -- ./inp_files/45740.got.cif
#   From: 2010.05.17/outbox.cif.g08.bks.cpg/sg66_23_cif.got.tgz:45740.got - 2010.06.03 17:51:23.
