data_PCOD9498738
_publ_section_title
;
Structure prediction by ZEFSAII (Michael W. Deem and Ramdas Pophale) SiO2 
 PCOD9498738
Probable space group: C C C M
;
_chemical_formula_sum "Si O2"
_cell_formula_units_Z 72
_cell_length_a 13.452190
_cell_length_b 16.807511
_cell_length_c 14.850376
_cell_angle_alpha 90.000000
_cell_angle_beta 90.000000
_cell_angle_gamma 90.000000
_cell_volume 3357.637809
_symmetry_space_group_name_H-M "C C C M"
_symmetry_group_IT_number 66
_symmetry_cell_setting 'orthorhombic'
loop_
_space_group_symop_operation_xyz
x,y,z
-x,-y,z
x,-y,1/2-z
-x,y,1/2-z
-x,-y,-z
x,y,-z
-x,y,1/2+z
x,-y,1/2+z
1/2+x,1/2+y,z
1/2-x,1/2-y,z
1/2+x,1/2-y,1/2-z
1/2-x,1/2+y,1/2-z
1/2-x,1/2-y,-z
1/2+x,1/2+y,-z
1/2-x,1/2+y,1/2+z
1/2+x,1/2-y,1/2+z
loop_
_atom_site_type_symbol
_atom_site_label
_atom_site_fract_x
_atom_site_fract_y
_atom_site_fract_z
Si Si1 0.845719 0.468195 0.000000
Si Si2 0.748863 0.074919 0.191993
Si Si3 0.551964 0.416233 0.100543
Si Si4 0.750000 0.750000 0.678642
Si Si5 0.479382 0.749567 0.145602
Si Si6 0.950468 0.371790 0.500000
O O1 0.795423 0.438034 0.092048
O O2 0.860599 0.564442 0.000000
O O3 0.952235 0.426572 0.000000
O O4 0.866236 0.073868 0.176887
O O5 0.733002 0.164968 0.227243
O O6 0.714145 0.000000 0.250000
O O7 0.500000 0.500000 0.096624
O O8 0.485559 0.339658 0.122366
O O9 0.594290 0.401813 0.000000
O O10 0.641790 0.744892 0.628361
O O11 0.500000 0.765431 0.250000
O O12 0.535374 0.814197 0.085634
#
# Coordination Sequence:
#
# PCOD9498738 Si02
#       6
#     8  16  16   8  16   8
#     4  11  24  42  64  93 129 171 213 264 323 386
#     4  11  24  41  67  96 129 167 219 269 322 387
#     4  10  22  40  63  91 126 167 218 268 323 380
#     4  10  24  43  70  93 126 170 220 269 324 379
#     4  11  24  41  67  96 129 167 219 269 322 387
#     4  11  24  42  64  93 129 171 213 264 323 386
#
# _framework density 21.443646999999999
#
# number of rings (size 3 to 8) (size 9 to 14) (size 15 to 20)
#    0.000    1.333    4.444    0.000    9.333    0.889 
#    0.000    2.222    0.000    2.667    0.000    0.000 
#    0.000    0.000    0.000    0.000    0.000    0.000 
#
# Total GULP energy -200539.895367 kJ/mol
# GULP energy per Si atom -5570.552649 kJ/mol
# Density = 2.139484 g / cm^3
# Si number density = 21.443647 Si / 1000 Ang^3
#
#
#
# Elastic Constant Matrix: (Units=GPa)
#
#
# Indices 1 2 3 4 5 6 
#
# 1 25.2459 19.0866 -0.5032 0.0000 0.0000 0.0000
# 2 19.0866 204.2025 58.6631 0.0000 0.0000 0.0000
# 3 -0.5032 58.6631 105.2714 0.0000 0.0000 0.0000
# 4 0.0000 0.0000 0.0000 32.4864 0.0000 0.0000
# 5 0.0000 0.0000 0.0000 0.0000 10.2627 0.0000
# 6 0.0000 0.0000 0.0000 0.0000 0.0000 27.8753
#
#
#
# Elastic Compliance Matrix: (Units=1/GPa)
#
#
# Indices 1 2 3 4 5 6 
#
# 1 0.043372 -0.004897 0.002936 0.000000 0.000000 0.000000
# 2 -0.004897 0.006384 -0.003581 0.000000 0.000000 0.000000
# 3 0.002936 -0.003581 0.011509 0.000000 0.000000 0.000000
# 4 0.000000 0.000000 0.000000 0.030782 0.000000 0.000000
# 5 0.000000 0.000000 0.000000 0.000000 0.097440 0.000000
# 6 0.000000 0.000000 0.000000 0.000000 0.000000 0.035874
#
#
# Mechanical properties :
#
#
# Convention : Reuss Voigt Hill
#
# Bulk Modulus (GPa) = 19.92814 54.35699 37.14257
# Shear Modulus (GPa) = 19.74958 31.28978 25.51968
#
# Velocity S-wave (km/s) = 3.03809 3.82404 3.45350
# Velocity P-wave (km/s) = 4.64974 6.70086 5.76722
#
# Compressibility (1/GPa) = 0.05018029
#
# Stress axis : x y z
#
# Youngs Moduli (GPa) = 23.05661 156.65371 86.89133
#
# Poissons Ratio (x) = 0.76721 -0.25515
# Poissons Ratio (y) = 0.11292 0.31113
# Poissons Ratio (z) = -0.06770 0.56092
#
# Static dielectric constant tensor:
#      x y z
#    x 1.817770 0.000000 0.000000 
#    y 0.000000 1.863370 0.000000 
#    z 0.000000 0.000000 1.799430 
# 
# From -- ./inp_files/28015.got.cif
#   From: 2010.05.17/outbox.cif.g08.bks.cpg/sg66_15_cif.got.tgz:28015.got - 2010.06.03 17:51:23.
