data_PCOD9498297
_publ_section_title
;
Structure prediction by ZEFSAII (Michael W. Deem and Ramdas Pophale) SiO2 
 PCOD9498297
Probable space group: C C C M
;
_chemical_formula_sum "Si O2"
_cell_formula_units_Z 96
_cell_length_a 13.990337
_cell_length_b 21.682298
_cell_length_c 14.643467
_cell_angle_alpha 90.000000
_cell_angle_beta 90.000000
_cell_angle_gamma 90.000000
_cell_volume 4441.988172
_symmetry_space_group_name_H-M "C C C M"
_symmetry_group_IT_number 66
_symmetry_cell_setting 'orthorhombic'
loop_
_space_group_symop_operation_xyz
x,y,z
-x,-y,z
x,-y,1/2-z
-x,y,1/2-z
-x,-y,-z
x,y,-z
-x,y,1/2+z
x,-y,1/2+z
1/2+x,1/2+y,z
1/2-x,1/2-y,z
1/2+x,1/2-y,1/2-z
1/2-x,1/2+y,1/2-z
1/2-x,1/2-y,-z
1/2+x,1/2+y,-z
1/2-x,1/2+y,1/2+z
1/2+x,1/2-y,1/2+z
loop_
_atom_site_type_symbol
_atom_site_label
_atom_site_fract_x
_atom_site_fract_y
_atom_site_fract_z
Si Si1 0.724995 0.001035 0.860160
Si Si2 0.418247 0.211556 0.687375
Si Si3 0.936725 0.150539 0.175355
Si Si4 0.567710 0.669983 0.000000
Si Si5 0.028824 0.301898 0.000000
Si Si6 0.916499 0.553700 0.000000
Si Si7 0.265785 0.865967 0.104841
Si Si8 0.389473 0.470852 0.000000
O O1 0.650123 0.955743 0.909849
O O2 0.730570 0.000000 0.750000
O O3 0.685167 0.068012 0.890304
O O4 0.826972 0.991551 0.911707
O O5 0.500000 0.182088 0.750000
O O6 0.407176 0.282608 0.716391
O O7 0.462621 0.208421 0.587218
O O8 0.318165 0.178530 0.675336
O O9 0.840509 0.121705 0.139761
O O10 0.000000 0.115931 0.250000
O O11 0.002846 0.163227 0.089351
O O12 0.601819 0.742261 0.000000
O O13 0.620681 0.604065 0.000000
O O14 0.056304 0.373762 0.000000
O O15 0.000000 0.500000 0.000000
O O16 0.262996 0.842895 0.000000
O O17 0.500000 0.500000 0.000000
#
# Coordination Sequence:
#
# PCOD9498297 Si02
#       8
#    16  16  16   8   8   8  16   8
#     4  11  27  45  62  96 129 164 224 280 320 402
#     4  10  22  38  62  99 133 167 215 264 324 404
#     4  10  22  38  62  99 133 167 215 264 324 404
#     4  10  21  39  65  96 134 177 219 272 337 402
#     4  10  21  39  65  96 134 177 219 272 337 402
#     4  11  23  46  71  98 131 176 223 279 334 402
#     4  12  21  41  67  92 126 169 215 276 326 370
#     4  11  23  46  71  98 131 176 223 279 334 402
#
# _framework density 21.611944000000001
#
# number of rings (size 3 to 8) (size 9 to 14) (size 15 to 20)
#    0.000    1.333    3.333    2.500    4.667    1.333 
#    0.000    1.667    0.000    0.000    0.000    0.000 
#    0.000    0.000    0.000    0.000    0.000    0.000 
#
# Total GULP energy -267363.681709 kJ/mol
# GULP energy per Si atom -5570.076702 kJ/mol
# Density = 2.156275 g / cm^3
# Si number density = 21.611944 Si / 1000 Ang^3
#
#
#
# Elastic Constant Matrix: (Units=GPa)
#
#
# Indices 1 2 3 4 5 6 
#
# 1 79.8935 27.0787 45.6559 0.0000 0.0000 0.0000
# 2 27.0787 111.1287 -9.3357 0.0000 0.0000 0.0000
# 3 45.6559 -9.3357 133.0506 0.0000 0.0000 0.0000
# 4 0.0000 0.0000 0.0000 18.8967 0.0000 0.0000
# 5 0.0000 0.0000 0.0000 0.0000 34.5384 0.0000
# 6 0.0000 0.0000 0.0000 0.0000 0.0000 27.6262
#
#
#
# Elastic Compliance Matrix: (Units=1/GPa)
#
#
# Indices 1 2 3 4 5 6 
#
# 1 0.017881 -0.004901 -0.006480 0.000000 0.000000 0.000000
# 2 -0.004901 0.010395 0.002411 0.000000 0.000000 0.000000
# 3 -0.006480 0.002411 0.009909 0.000000 0.000000 0.000000
# 4 0.000000 0.000000 0.000000 0.052919 0.000000 0.000000
# 5 0.000000 0.000000 0.000000 0.000000 0.028953 0.000000
# 6 0.000000 0.000000 0.000000 0.000000 0.000000 0.036197
#
#
# Mechanical properties :
#
#
# Convention : Reuss Voigt Hill
#
# Bulk Modulus (GPa) = 49.39385 50.09674 49.74530
# Shear Modulus (GPa) = 27.63305 33.59052 30.61179
#
# Velocity S-wave (km/s) = 3.57963 3.94668 3.76763
# Velocity P-wave (km/s) = 6.32373 6.63316 6.48029
#
# Compressibility (1/GPa) = 0.02024543
#
# Stress axis : x y z
#
# Youngs Moduli (GPa) = 55.92610 96.19595 100.92254
#
# Poissons Ratio (x) = 0.47149 0.65394
# Poissons Ratio (y) = 0.27411 -0.24335
# Poissons Ratio (z) = 0.36238 -0.23196
#
# Static dielectric constant tensor:
#      x y z
#    x 1.849550 0.000000 0.000000 
#    y 0.000000 1.904810 0.000000 
#    z 0.000000 0.000000 1.777230 
# 
# From -- ./inp_files/28474.got.cif
#   From: 2010.05.17/outbox.cif.g08.bks.cpg/sg66_15_cif.got.tgz:28474.got - 2010.06.03 17:51:23.
