data_PCOD9498214
_publ_section_title
;
Structure prediction by ZEFSAII (Michael W. Deem and Ramdas Pophale) SiO2 
 PCOD9498214
Probable space group: C C C M
;
_chemical_formula_sum "Si O2"
_cell_formula_units_Z 52
_cell_length_a 21.952371
_cell_length_b 7.718406
_cell_length_c 13.826448
_cell_angle_alpha 90.000000
_cell_angle_beta 90.000000
_cell_angle_gamma 90.000000
_cell_volume 2342.716184
_symmetry_space_group_name_H-M "C C C M"
_symmetry_group_IT_number 66
_symmetry_cell_setting 'orthorhombic'
loop_
_space_group_symop_operation_xyz
x,y,z
-x,-y,z
x,-y,1/2-z
-x,y,1/2-z
-x,-y,-z
x,y,-z
-x,y,1/2+z
x,-y,1/2+z
1/2+x,1/2+y,z
1/2-x,1/2-y,z
1/2+x,1/2-y,1/2-z
1/2-x,1/2+y,1/2-z
1/2-x,1/2-y,-z
1/2+x,1/2+y,-z
1/2-x,1/2+y,1/2+z
1/2+x,1/2-y,1/2+z
loop_
_atom_site_type_symbol
_atom_site_label
_atom_site_fract_x
_atom_site_fract_y
_atom_site_fract_z
Si Si1 0.000000 0.500000 0.250000
Si Si2 0.648333 0.418001 0.114488
Si Si3 0.609233 0.220383 0.299794
Si Si4 0.277291 0.943951 0.607997
O O1 0.954943 0.374759 0.309053
O O2 0.619916 0.282242 0.189047
O O3 0.617435 0.603884 0.138044
O O4 0.720343 0.440042 0.141590
O O5 0.643921 0.383386 0.000000
O O6 0.661724 0.090064 0.334344
O O7 0.292590 0.004201 0.500000
O O8 0.250000 0.750000 0.602073
#
# Coordination Sequence:
#
# PCOD9498214 Si02
#       4
#     4  16  16  16
#     4  12  28  42  54  84 124 168 216 246 286 358
#     4   9  19  39  69  96 116 150 201 252 306 364
#     4  10  21  39  61  85 125 164 195 247 299 350
#     4   8  15  32  61  93 116 139 182 241 304 359
#
# _framework density 22.196456000000001
#
# number of rings (size 3 to 8) (size 9 to 14) (size 15 to 20)
#    0.000    2.769    0.000    2.769    0.000    9.846 
#    0.000   11.538    0.000   32.308    0.000    0.000 
#    0.000    0.000    0.000    0.000    0.000    0.000 
#
# Total GULP energy -145224.789371 kJ/mol
# GULP energy per Si atom -5585.568822 kJ/mol
# Density = 2.214594 g / cm^3
# Si number density = 22.196456 Si / 1000 Ang^3
#
#
#
# Elastic Constant Matrix: (Units=GPa)
#
#
# Indices 1 2 3 4 5 6 
#
# 1 160.9400 48.7302 43.1770 0.0000 0.0000 0.0000
# 2 48.7302 104.5570 21.2183 0.0000 0.0000 0.0000
# 3 43.1770 21.2183 133.4736 0.0000 0.0000 0.0000
# 4 0.0000 0.0000 0.0000 7.9215 0.0000 0.0000
# 5 0.0000 0.0000 0.0000 0.0000 -463.8142 0.0000
# 6 0.0000 0.0000 0.0000 0.0000 0.0000 205.8345
#
#
#
# Elastic Compliance Matrix: (Units=1/GPa)
#
#
# Indices 1 2 3 4 5 6 
#
# 1 0.007713 -0.003191 -0.001988 0.000000 0.000000 0.000000
# 2 -0.003191 0.011203 -0.000749 0.000000 0.000000 0.000000
# 3 -0.001988 -0.000749 0.008254 0.000000 0.000000 0.000000
# 4 0.000000 0.000000 0.000000 0.126239 0.000000 0.000000
# 5 0.000000 0.000000 0.000000 0.000000 -0.002156 0.000000
# 6 0.000000 0.000000 0.000000 0.000000 0.000000 0.004858
#
#
# Mechanical properties :
#
#
# Convention : Reuss Voigt Hill
#
# Bulk Modulus (GPa) = 65.29490 69.46906 67.38198
# Shear Modulus (GPa) = 28.88969 -30.95530 -1.03281
#
# Velocity S-wave (km/s) = 3.61161 -3.73849 -0.68287
# Velocity P-wave (km/s) = 6.84633 3.56794 5.45905
#
# Compressibility (1/GPa) = 0.01531513
#
# Stress axis : x y z
#
# Youngs Moduli (GPa) = 129.64994 89.25794 121.15136
#
# Poissons Ratio (x) = 0.28486 0.24082
# Poissons Ratio (y) = 0.41377 0.09070
# Poissons Ratio (z) = 0.25771 0.06682
#
# Static dielectric constant tensor:
#      x y z
#    x 1.791010 0.000000 0.000000 
#    y 0.000000 1.869800 0.000000 
#    z 0.000000 0.000000 1.856120 
# 
# From -- ./inp_files/23738.got.cif
#   From: 2010.05.17/outbox.cif.g08.bks.cpg/sg66_12_cif.got.tgz:23738.got - 2010.06.03 17:51:23.
