data_PCOD9498728
_publ_section_title
;
Structure prediction by ZEFSAII (Michael W. Deem and Ramdas Pophale) SiO2 
 PCOD9498728
Probable space group: C C C M
;
_chemical_formula_sum "Si O2"
_cell_formula_units_Z 48
_cell_length_a 17.853561
_cell_length_b 8.784939
_cell_length_c 13.475095
_cell_angle_alpha 90.000000
_cell_angle_beta 90.000000
_cell_angle_gamma 90.000000
_cell_volume 2113.466837
_symmetry_space_group_name_H-M "C C C M"
_symmetry_group_IT_number 66
_symmetry_cell_setting 'orthorhombic'
loop_
_space_group_symop_operation_xyz
x,y,z
-x,-y,z
x,-y,1/2-z
-x,y,1/2-z
-x,-y,-z
x,y,-z
-x,y,1/2+z
x,-y,1/2+z
1/2+x,1/2+y,z
1/2-x,1/2-y,z
1/2+x,1/2-y,1/2-z
1/2-x,1/2+y,1/2-z
1/2-x,1/2-y,-z
1/2+x,1/2+y,-z
1/2-x,1/2+y,1/2+z
1/2+x,1/2-y,1/2+z
loop_
_atom_site_type_symbol
_atom_site_label
_atom_site_fract_x
_atom_site_fract_y
_atom_site_fract_z
Si Si1 0.832142 0.300243 0.334861
Si Si2 0.013077 0.829164 0.366942
Si Si3 0.635081 0.848991 0.610576
O O1 0.750000 0.250000 0.367413
O O2 0.900803 0.210704 0.383024
O O3 0.849853 0.474222 0.364866
O O4 0.836464 0.274225 0.214273
O O5 0.000000 0.832339 0.250000
O O6 0.951883 0.703107 0.397259
O O7 0.000000 0.000000 0.401867
O O8 0.666638 0.814088 0.500000
#
# Coordination Sequence:
#
# PCOD9498728 Si02
#       3
#    16  16  16
#     4  10  22  40  62  90 125 163 205 258 315 369
#     4   9  19  37  61  88 120 162 208 251 301 365
#     4  10  22  40  63  90 123 166 212 254 305 374
#
# _framework density 22.711499
#
# number of rings (size 3 to 8) (size 9 to 14) (size 15 to 20)
#    0.000    2.333    0.000    1.000    0.000   19.333 
#    0.000    0.000    0.000    0.000    0.000    0.000 
#    0.000    0.000    0.000    0.000    0.000    0.000 
#
# Total GULP energy -133700.690161 kJ/mol
# GULP energy per Si atom -5570.862090 kJ/mol
# Density = 2.265981 g / cm^3
# Si number density = 22.711499 Si / 1000 Ang^3
#
#
#
# Elastic Constant Matrix: (Units=GPa)
#
#
# Indices 1 2 3 4 5 6 
#
# 1 242.4838 100.9915 16.9576 0.0000 0.0000 0.0000
# 2 100.9915 101.0257 7.1016 0.0000 0.0000 0.0000
# 3 16.9576 7.1016 168.4352 0.0000 0.0000 0.0000
# 4 0.0000 0.0000 0.0000 -40.6353 0.0000 0.0000
# 5 0.0000 0.0000 0.0000 0.0000 -10.1995 0.0000
# 6 0.0000 0.0000 0.0000 0.0000 0.0000 20.7275
#
#
#
# Elastic Compliance Matrix: (Units=1/GPa)
#
#
# Indices 1 2 3 4 5 6 
#
# 1 0.007095 -0.007063 -0.000416 0.000000 0.000000 0.000000
# 2 -0.007063 0.016960 -0.000004 0.000000 0.000000 0.000000
# 3 -0.000416 -0.000004 0.005979 0.000000 0.000000 0.000000
# 4 0.000000 0.000000 0.000000 -0.024609 0.000000 0.000000
# 5 0.000000 0.000000 0.000000 0.000000 -0.098044 0.000000
# 6 0.000000 0.000000 0.000000 0.000000 0.000000 0.048245
#
#
# Mechanical properties :
#
#
# Convention : Reuss Voigt Hill
#
# Bulk Modulus (GPa) = 66.37349 84.67179 75.52264
# Shear Modulus (GPa) = -205.03900 19.77148 -92.63376
#
# Velocity S-wave (km/s) = -9.51188 2.95371 -6.39341
# Velocity P-wave (km/s) = 9.55753 6.99964 4.60171
#
# Compressibility (1/GPa) = 0.01506626
#
# Stress axis : x y z
#
# Youngs Moduli (GPa) = 140.94769 58.96397 167.24925
#
# Poissons Ratio (x) = 0.41647 0.06966
# Poissons Ratio (y) = 0.99554 0.00066
# Poissons Ratio (z) = 0.05870 0.00023
#
# Static dielectric constant tensor:
#      x y z
#    x 1.800700 0.000000 0.000000 
#    y 0.000000 1.813780 0.000000 
#    z 0.000000 0.000000 1.901250 
# 
# From -- ./inp_files/23366.got.cif
#   From: 2010.05.17/outbox.cif.g08.bks.cpg/sg66_12_cif.got.tgz:23366.got - 2010.06.03 17:51:23.
