data_PCOD9498834
_publ_section_title
;
Structure prediction by ZEFSAII (Michael W. Deem and Ramdas Pophale) SiO2 
 PCOD9498834
Probable space group: C C C M
;
_chemical_formula_sum "Si O2"
_cell_formula_units_Z 56
_cell_length_a 10.363460
_cell_length_b 18.624815
_cell_length_c 10.069074
_cell_angle_alpha 90.000000
_cell_angle_beta 90.000000
_cell_angle_gamma 90.000000
_cell_volume 1943.507745
_symmetry_space_group_name_H-M "C C C M"
_symmetry_group_IT_number 66
_symmetry_cell_setting 'orthorhombic'
loop_
_space_group_symop_operation_xyz
x,y,z
-x,-y,z
x,-y,1/2-z
-x,y,1/2-z
-x,-y,-z
x,y,-z
-x,y,1/2+z
x,-y,1/2+z
1/2+x,1/2+y,z
1/2-x,1/2-y,z
1/2+x,1/2-y,1/2-z
1/2-x,1/2+y,1/2-z
1/2-x,1/2-y,-z
1/2+x,1/2+y,-z
1/2-x,1/2+y,1/2+z
1/2+x,1/2-y,1/2+z
loop_
_atom_site_type_symbol
_atom_site_label
_atom_site_fract_x
_atom_site_fract_y
_atom_site_fract_z
Si Si1 0.900868 0.772847 0.836066
Si Si2 0.623790 0.051185 0.500000
Si Si3 0.694473 0.417205 0.281124
Si Si4 0.274875 0.100074 0.500000
Si Si5 0.594765 0.768676 0.500000
O O1 0.750000 0.750000 0.832411
O O2 0.899028 0.861032 0.850288
O O3 0.933810 0.753325 0.666542
O O4 0.930228 0.749211 0.000000
O O5 0.668395 0.086894 0.362248
O O6 0.500000 0.000000 0.500000
O O7 0.727440 0.985641 0.500000
O O8 0.657613 0.500000 0.250000
O O9 0.712855 0.382460 0.137996
O O10 0.410017 0.142671 0.500000
O O11 0.750000 0.750000 0.500000
#
# Coordination Sequence:
#
# PCOD9498834 Si02
#       5
#    16   8  16   8   8
#     4  12  26  45  74 109 154 211 271 340 410 499
#     4  10  23  41  70 108 157 205 264 330 408 483
#     4  10  23  45  71 113 156 210 272 336 412 489
#     4  10  22  41  70 106 158 202 258 335 407 486
#     4  12  26  48  75 111 158 212 278 343 423 491
#
# _framework density 28.813879
#
# number of rings (size 3 to 8) (size 9 to 14) (size 15 to 20)
#    0.000    1.143    0.000    5.571    4.000    5.714 
#    0.000    0.000    0.000   10.286    0.000    0.000 
#    0.000    0.000    0.000    0.000    0.000    0.000 
#
# Total GULP energy -156048.377401 kJ/mol
# GULP energy per Si atom -5573.156336 kJ/mol
# Density = 2.874830 g / cm^3
# Si number density = 28.813879 Si / 1000 Ang^3
#
#
#
# Elastic Constant Matrix: (Units=GPa)
#
#
# Indices 1 2 3 4 5 6 
#
# 1 238.9114 7.2442 128.4750 0.0000 0.0000 0.0000
# 2 7.2442 136.6692 33.7311 0.0000 0.0000 0.0000
# 3 128.4750 33.7311 269.3328 0.0000 0.0000 0.0000
# 4 0.0000 0.0000 0.0000 15.8193 0.0000 0.0000
# 5 0.0000 0.0000 0.0000 0.0000 83.0082 0.0000
# 6 0.0000 0.0000 0.0000 0.0000 0.0000 42.7955
#
#
#
# Elastic Compliance Matrix: (Units=1/GPa)
#
#
# Indices 1 2 3 4 5 6 
#
# 1 0.005649 0.000377 -0.002742 0.000000 0.000000 0.000000
# 2 0.000377 0.007576 -0.001129 0.000000 0.000000 0.000000
# 3 -0.002742 -0.001129 0.005162 0.000000 0.000000 0.000000
# 4 0.000000 0.000000 0.000000 0.063214 0.000000 0.000000
# 5 0.000000 0.000000 0.000000 0.000000 0.012047 0.000000
# 6 0.000000 0.000000 0.000000 0.000000 0.000000 0.023367
#
#
# Mechanical properties :
#
#
# Convention : Reuss Voigt Hill
#
# Bulk Modulus (GPa) = 87.72030 109.31268 98.51649
# Shear Modulus (GPa) = 39.12361 60.02216 49.57288
#
# Velocity S-wave (km/s) = 3.68884 4.56905 4.15233
# Velocity P-wave (km/s) = 6.97519 8.11510 7.56664
#
# Compressibility (1/GPa) = 0.01139987
#
# Stress axis : x y z
#
# Youngs Moduli (GPa) = 177.03651 132.00422 193.72151
#
# Poissons Ratio (x) = -0.04980 0.53112
# Poissons Ratio (y) = -0.06679 0.21866
# Poissons Ratio (z) = 0.48538 0.14899
#
# Static dielectric constant tensor:
#      x y z
#    x 2.200450 0.000000 0.000000 
#    y 0.000000 2.321180 0.000000 
#    z 0.000000 0.000000 2.486040 
# 
# From -- ./inp_files/6134.got.cif
#   From: 2010.05.17/outbox.cif.g08.bks.cpg/sg66_4_cif.got.tgz:6134.got - 2010.06.03 17:51:23.
