data_PCOD9498957
_publ_section_title
;
Structure prediction by ZEFSAII (Michael W. Deem and Ramdas Pophale) SiO2 
 PCOD9498957
Probable space group: C C C M
;
_chemical_formula_sum "Si O2"
_cell_formula_units_Z 68
_cell_length_a 5.250338
_cell_length_b 26.905325
_cell_length_c 21.253627
_cell_angle_alpha 90.000000
_cell_angle_beta 90.000000
_cell_angle_gamma 90.000000
_cell_volume 3002.330925
_symmetry_space_group_name_H-M "C C C M"
_symmetry_group_IT_number 66
_symmetry_cell_setting 'orthorhombic'
loop_
_space_group_symop_operation_xyz
x,y,z
-x,-y,z
x,-y,1/2-z
-x,y,1/2-z
-x,-y,-z
x,y,-z
-x,y,1/2+z
x,-y,1/2+z
1/2+x,1/2+y,z
1/2-x,1/2-y,z
1/2+x,1/2-y,1/2-z
1/2-x,1/2+y,1/2-z
1/2-x,1/2-y,-z
1/2+x,1/2+y,-z
1/2-x,1/2+y,1/2+z
1/2+x,1/2-y,1/2+z
loop_
_atom_site_type_symbol
_atom_site_label
_atom_site_fract_x
_atom_site_fract_y
_atom_site_fract_z
Si Si1 0.326679 0.549662 0.857211
Si Si2 0.184098 0.306115 0.071730
Si Si3 0.750000 0.750000 0.284728
Si Si4 0.335382 0.342296 0.370178
Si Si5 0.753166 0.533581 0.500000
Si Si6 0.500000 0.000000 0.750000
O O1 0.500000 0.500000 0.860993
O O2 0.412748 0.605065 0.840466
O O3 0.145708 0.534818 0.799641
O O4 0.238028 0.558488 0.930427
O O5 0.250000 0.250000 0.094065
O O6 0.452533 0.334106 0.076281
O O7 0.957121 0.334871 0.107163
O O8 0.096723 0.301255 0.000000
O O9 0.500000 0.770268 0.250000
O O10 0.638290 0.703838 0.323404
O O11 0.500000 0.500000 0.500000
O O12 0.000000 0.500000 0.500000
#
# Coordination Sequence:
#
# PCOD9498957 Si02
#       6
#    16  16   8  16   8   4
#     4  11  28  48  75 107 152 196 257 305 382 448
#     4  11  23  44  73 110 150 187 234 300 374 453
#     4  12  26  46  71 102 143 190 252 306 368 444
#     4  12  26  46  74 105 146 193 244 307 370 448
#     4  10  22  46  74 103 138 191 242 308 357 440
#     4  12  26  50  72 106 152 198 250 312 368 450
#
# _framework density 22.649069999999998
#
# number of rings (size 3 to 8) (size 9 to 14) (size 15 to 20)
#    0.000    0.706    3.529    2.471    8.235    3.765 
#    0.000    0.000    0.000    0.000    0.000    0.000 
#    0.000    0.000    0.000    0.000    0.000    0.000 
#
# Total GULP energy -189337.071898 kJ/mol
# GULP energy per Si atom -5568.737409 kJ/mol
# Density = 2.259752 g / cm^3
# Si number density = 22.649070 Si / 1000 Ang^3
#
#
#
# Elastic Constant Matrix: (Units=GPa)
#
#
# Indices 1 2 3 4 5 6 
#
# 1 96.9337 16.0576 17.6251 0.0000 0.0000 0.0000
# 2 16.0576 155.9204 16.0701 0.0000 0.0000 0.0000
# 3 17.6251 16.0701 116.5461 0.0000 0.0000 0.0000
# 4 0.0000 0.0000 0.0000 7.3167 0.0000 0.0000
# 5 0.0000 0.0000 0.0000 0.0000 32.3438 0.0000
# 6 0.0000 0.0000 0.0000 0.0000 0.0000 20.7917
#
#
#
# Elastic Compliance Matrix: (Units=1/GPa)
#
#
# Indices 1 2 3 4 5 6 
#
# 1 0.010746 -0.000953 -0.001494 0.000000 0.000000 0.000000
# 2 -0.000953 0.006590 -0.000765 0.000000 0.000000 0.000000
# 3 -0.001494 -0.000765 0.008912 0.000000 0.000000 0.000000
# 4 0.000000 0.000000 0.000000 0.136673 0.000000 0.000000
# 5 0.000000 0.000000 0.000000 0.000000 0.030918 0.000000
# 6 0.000000 0.000000 0.000000 0.000000 0.000000 0.048096
#
#
# Mechanical properties :
#
#
# Convention : Reuss Voigt Hill
#
# Bulk Modulus (GPa) = 50.43963 52.10067 51.27015
# Shear Modulus (GPa) = 19.61051 33.40027 26.50539
#
# Velocity S-wave (km/s) = 2.94571 3.84433 3.42462
# Velocity P-wave (km/s) = 5.82134 6.53900 6.19058
#
# Compressibility (1/GPa) = 0.01982568
#
# Stress axis : x y z
#
# Youngs Moduli (GPa) = 93.06012 151.73460 112.21306
#
# Poissons Ratio (x) = 0.14456 0.16761
# Poissons Ratio (y) = 0.08866 0.08580
# Poissons Ratio (z) = 0.13900 0.11603
#
# Static dielectric constant tensor:
#      x y z
#    x 1.926150 0.000000 0.000000 
#    y 0.000000 1.948120 0.000000 
#    z 0.000000 0.000000 1.952160 
# 
# From -- ./inp_files/45792.got.cif
#   From: 2010.05.17/outbox.cif.g08.bks.cpg/sg66_23_cif.got.tgz:45792.got - 2010.06.03 17:51:23.
