data_PCOD9498553
_publ_section_title
;
Structure prediction by ZEFSAII (Michael W. Deem and Ramdas Pophale) SiO2 
 PCOD9498553
Probable space group: C C C M
;
_chemical_formula_sum "Si O2"
_cell_formula_units_Z 96
_cell_length_a 14.443537
_cell_length_b 17.425332
_cell_length_c 20.180341
_cell_angle_alpha 90.000000
_cell_angle_beta 90.000000
_cell_angle_gamma 90.000000
_cell_volume 5079.057391
_symmetry_space_group_name_H-M "C C C M"
_symmetry_group_IT_number 66
_symmetry_cell_setting 'orthorhombic'
loop_
_space_group_symop_operation_xyz
x,y,z
-x,-y,z
x,-y,1/2-z
-x,y,1/2-z
-x,-y,-z
x,y,-z
-x,y,1/2+z
x,-y,1/2+z
1/2+x,1/2+y,z
1/2-x,1/2-y,z
1/2+x,1/2-y,1/2-z
1/2-x,1/2+y,1/2-z
1/2-x,1/2-y,-z
1/2+x,1/2+y,-z
1/2-x,1/2+y,1/2+z
1/2+x,1/2-y,1/2+z
loop_
_atom_site_type_symbol
_atom_site_label
_atom_site_fract_x
_atom_site_fract_y
_atom_site_fract_z
Si Si1 0.796539 0.330885 0.250230
Si Si2 0.827362 0.902494 0.133671
Si Si3 0.272049 0.423489 0.631640
Si Si4 0.500000 0.774784 0.750000
Si Si5 0.166232 0.805412 0.500000
Si Si6 0.032363 0.234166 0.500000
Si Si7 0.031156 0.148245 0.360558
Si Si8 0.795651 0.665146 0.500000
O O1 0.750000 0.250000 0.227233
O O2 0.732942 0.357854 0.311538
O O3 0.789929 0.393020 0.191858
O O4 0.904703 0.318736 0.266324
O O5 0.937556 0.901112 0.150383
O O6 0.781676 0.985524 0.124937
O O7 0.829068 0.857599 0.064658
O O8 0.375412 0.397342 0.651861
O O9 0.236649 0.381777 0.564774
O O10 0.522720 0.720325 0.687963
O O11 0.250000 0.750000 0.500000
O O12 0.076387 0.751327 0.500000
O O13 0.044789 0.181620 0.434816
O O14 0.096628 0.309085 0.500000
O O15 0.750000 0.750000 0.500000
#
# Coordination Sequence:
#
# PCOD9498553 Si02
#       8
#    16  16  16   8   8   8  16   8
#     4  12  23  42  63  90 121 162 211 252 301 369
#     4  11  24  40  62  94 128 160 199 257 317 366
#     4  12  23  39  63  93 129 162 198 253 318 369
#     4  12  24  38  66  90 116 160 214 256 294 362
#     4  10  23  42  66  91 118 164 211 256 302 365
#     4  10  22  35  63  93 118 159 207 249 305 351
#     4  11  20  38  62  95 124 154 198 256 314 369
#     4  12  21  39  62  91 128 165 204 248 300 374
#
# _framework density 18.901145
#
# number of rings (size 3 to 8) (size 9 to 14) (size 15 to 20)
#    0.000    0.667    5.000    3.500    2.333    0.000 
#    0.000    7.500    0.000    1.000    0.000    0.000 
#    0.000    0.000    0.000    0.000    0.000    0.000 
#
# Total GULP energy -268005.635063 kJ/mol
# GULP energy per Si atom -5583.450730 kJ/mol
# Density = 1.885812 g / cm^3
# Si number density = 18.901145 Si / 1000 Ang^3
#
#
#
# Elastic Constant Matrix: (Units=GPa)
#
#
# Indices 1 2 3 4 5 6 
#
# 1 125.6009 52.7482 26.4813 0.0000 0.0000 0.0000
# 2 52.7482 92.5846 21.9670 0.0000 0.0000 0.0000
# 3 26.4813 21.9670 104.7729 0.0000 0.0000 0.0000
# 4 0.0000 0.0000 0.0000 13.1024 0.0000 0.0000
# 5 0.0000 0.0000 0.0000 0.0000 76.8090 0.0000
# 6 0.0000 0.0000 0.0000 0.0000 0.0000 24.5087
#
#
#
# Elastic Compliance Matrix: (Units=1/GPa)
#
#
# Indices 1 2 3 4 5 6 
#
# 1 0.010685 -0.005732 -0.001499 0.000000 0.000000 0.000000
# 2 -0.005732 0.014441 -0.001579 0.000000 0.000000 0.000000
# 3 -0.001499 -0.001579 0.010254 0.000000 0.000000 0.000000
# 4 0.000000 0.000000 0.000000 0.076322 0.000000 0.000000
# 5 0.000000 0.000000 0.000000 0.000000 0.013019 0.000000
# 6 0.000000 0.000000 0.000000 0.000000 0.000000 0.040802
#
#
# Mechanical properties :
#
#
# Convention : Reuss Voigt Hill
#
# Bulk Modulus (GPa) = 56.30341 58.37236 57.33789
# Shear Modulus (GPa) = 26.44610 37.66814 32.05712
#
# Velocity S-wave (km/s) = 3.74462 4.46904 4.12277
# Velocity P-wave (km/s) = 6.96773 7.58813 7.28454
#
# Compressibility (1/GPa) = 0.01776091
#
# Stress axis : x y z
#
# Youngs Moduli (GPa) = 93.58950 69.24615 97.51956
#
# Poissons Ratio (x) = 0.39691 0.14617
# Poissons Ratio (y) = 0.53645 0.15399
# Poissons Ratio (z) = 0.14028 0.10934
#
# Static dielectric constant tensor:
#      x y z
#    x 1.734330 0.000000 0.000000 
#    y 0.000000 1.633960 0.000000 
#    z 0.000000 0.000000 1.651460 
# 
# From -- ./inp_files/49964.got.cif
#   From: 2010.05.17/outbox.cif.g08.bks.cpg/sg66_25_cif.got.tgz:49964.got - 2010.06.03 17:51:23.
