data_PCOD9498634
_publ_section_title
;
Structure prediction by ZEFSAII (Michael W. Deem and Ramdas Pophale) SiO2 
 PCOD9498634
Probable space group: C C C M
;
_chemical_formula_sum "Si O2"
_cell_formula_units_Z 60
_cell_length_a 16.379112
_cell_length_b 16.840546
_cell_length_c 10.034683
_cell_angle_alpha 90.000000
_cell_angle_beta 90.000000
_cell_angle_gamma 90.000000
_cell_volume 2767.898613
_symmetry_space_group_name_H-M "C C C M"
_symmetry_group_IT_number 66
_symmetry_cell_setting 'orthorhombic'
loop_
_space_group_symop_operation_xyz
x,y,z
-x,-y,z
x,-y,1/2-z
-x,y,1/2-z
-x,-y,-z
x,y,-z
-x,y,1/2+z
x,-y,1/2+z
1/2+x,1/2+y,z
1/2-x,1/2-y,z
1/2+x,1/2-y,1/2-z
1/2-x,1/2+y,1/2-z
1/2-x,1/2-y,-z
1/2+x,1/2+y,-z
1/2-x,1/2+y,1/2+z
1/2+x,1/2-y,1/2+z
loop_
_atom_site_type_symbol
_atom_site_label
_atom_site_fract_x
_atom_site_fract_y
_atom_site_fract_z
Si Si1 0.439726 0.914534 0.000000
Si Si2 0.579210 0.794447 0.000000
Si Si3 0.747597 0.113419 0.500000
Si Si4 0.000000 0.500000 0.750000
Si Si5 0.648275 0.591844 0.262547
Si Si6 0.000000 0.201652 0.750000
Si Si7 0.728846 0.925722 0.500000
O O1 0.441609 0.955984 0.855169
O O2 0.352776 0.873271 0.000000
O O3 0.526834 0.874265 0.000000
O O4 0.673686 0.822592 0.000000
O O5 0.544646 0.750724 0.132345
O O6 0.807673 0.119510 0.373315
O O7 0.712634 0.021990 0.500000
O O8 0.621086 0.500000 0.250000
O O9 0.572220 0.645637 0.303330
O O10 0.717951 0.592434 0.372373
#
# Coordination Sequence:
#
# PCOD9498634 Si02
#       7
#     8   8   8   4  16   8   8
#     4  11  24  39  63 100 138 172 221 266 327 396
#     4  12  28  43  63 100 142 184 207 259 336 425
#     4  10  23  44  68  98 132 170 223 272 340 382
#     4  10  22  38  68  92 132 184 210 278 312 380
#     4  10  23  44  72  99 124 169 229 290 317 376
#     4  12  26  46  66  94 138 182 220 258 338 396
#     4  10  23  39  70 102 128 162 228 288 327 365
#
# _framework density 21.677094
#
# number of rings (size 3 to 8) (size 9 to 14) (size 15 to 20)
#    0.000    1.333    0.000    4.400   13.067    2.133 
#    0.000    6.667    0.000    0.000    0.000    0.000 
#    0.000    0.000    0.000    0.000    0.000    0.000 
#
# Total GULP energy -167349.944935 kJ/mol
# GULP energy per Si atom -5578.331498 kJ/mol
# Density = 2.162776 g / cm^3
# Si number density = 21.677094 Si / 1000 Ang^3
#
#
#
# Elastic Constant Matrix: (Units=GPa)
#
#
# Indices 1 2 3 4 5 6 
#
# 1 124.9125 51.4065 30.0736 0.0000 0.0000 0.0000
# 2 51.4065 49.6351 47.1754 0.0000 0.0000 0.0000
# 3 30.0736 47.1754 142.5603 0.0000 0.0000 0.0000
# 4 0.0000 0.0000 0.0000 -43.7598 0.0000 0.0000
# 5 0.0000 0.0000 0.0000 0.0000 6.4097 0.0000
# 6 0.0000 0.0000 0.0000 0.0000 0.0000 37.7813
#
#
#
# Elastic Compliance Matrix: (Units=1/GPa)
#
#
# Indices 1 2 3 4 5 6 
#
# 1 0.014693 -0.017902 0.002824 0.000000 0.000000 0.000000
# 2 -0.017902 0.051202 -0.013167 0.000000 0.000000 0.000000
# 3 0.002824 -0.013167 0.010776 0.000000 0.000000 0.000000
# 4 0.000000 0.000000 0.000000 -0.022852 0.000000 0.000000
# 5 0.000000 0.000000 0.000000 0.000000 0.156015 0.000000
# 6 0.000000 0.000000 0.000000 0.000000 0.000000 0.026468
#
#
# Mechanical properties :
#
#
# Convention : Reuss Voigt Hill
#
# Bulk Modulus (GPa) = 49.54854 63.82431 56.68643
# Shear Modulus (GPa) = 16.69347 12.64973 14.67160
#
# Velocity S-wave (km/s) = 2.77807 2.41830 2.60441
# Velocity P-wave (km/s) = 5.76172 6.10776 5.93726
#
# Compressibility (1/GPa) = 0.02018223
#
# Stress axis : x y z
#
# Youngs Moduli (GPa) = 68.06031 19.53037 92.79896
#
# Poissons Ratio (x) = 0.34963 -0.26210
# Poissons Ratio (y) = 1.21839 1.22190
# Poissons Ratio (z) = -0.19223 0.25716
#
# Static dielectric constant tensor:
#      x y z
#    x 1.741030 0.000000 0.000000 
#    y 0.000000 1.921840 0.000000 
#    z 0.000000 0.000000 1.699950 
# 
# From -- ./inp_files/6072.got.cif
#   From: 2010.05.17/outbox.cif.g08.bks.cpg/sg66_4_cif.got.tgz:6072.got - 2010.06.03 17:51:23.
