data_PCOD9498833
_publ_section_title
;
Structure prediction by ZEFSAII (Michael W. Deem and Ramdas Pophale) SiO2 
 PCOD9498833
Probable space group: C C C M
;
_chemical_formula_sum "Si O2"
_cell_formula_units_Z 48
_cell_length_a 4.982650
_cell_length_b 19.965282
_cell_length_c 20.447028
_cell_angle_alpha 90.000000
_cell_angle_beta 90.000000
_cell_angle_gamma 90.000000
_cell_volume 2034.070598
_symmetry_space_group_name_H-M "C C C M"
_symmetry_group_IT_number 66
_symmetry_cell_setting 'orthorhombic'
loop_
_space_group_symop_operation_xyz
x,y,z
-x,-y,z
x,-y,1/2-z
-x,y,1/2-z
-x,-y,-z
x,y,-z
-x,y,1/2+z
x,-y,1/2+z
1/2+x,1/2+y,z
1/2-x,1/2-y,z
1/2+x,1/2-y,1/2-z
1/2-x,1/2+y,1/2-z
1/2-x,1/2-y,-z
1/2+x,1/2+y,-z
1/2-x,1/2+y,1/2+z
1/2+x,1/2-y,1/2+z
loop_
_atom_site_type_symbol
_atom_site_label
_atom_site_fract_x
_atom_site_fract_y
_atom_site_fract_z
Si Si1 0.828043 0.567024 0.069820
Si Si2 0.739424 0.888227 0.207077
Si Si3 0.488503 0.794507 0.392090
O O1 0.013252 0.633970 0.072366
O O2 0.000000 0.500000 0.071474
O O3 0.680889 0.573547 0.139662
O O4 0.677874 0.568939 0.000000
O O5 0.500000 0.920099 0.250000
O O6 0.613105 0.819729 0.178714
O O7 0.000000 0.878773 0.250000
O O8 0.750000 0.750000 0.390196
O O9 0.250000 0.750000 0.421295
#
# Coordination Sequence:
#
# PCOD9498833 Si02
#       3
#    16  16  16
#     4   9  22  45  73 105 145 191 237 293 359 425
#     4  10  22  42  69  99 141 185 234 288 347 421
#     4  10  22  41  70 103 141 182 234 288 353 419
#
# _framework density 23.598001
#
# number of rings (size 3 to 8) (size 9 to 14) (size 15 to 20)
#    2.000    0.333    0.000    2.000    0.000    4.667 
#    0.000   13.333    0.000   16.000    0.000    0.000 
#    0.000    0.000    0.000    0.000    0.000    0.000 
#
# Total GULP energy -133730.557685 kJ/mol
# GULP energy per Si atom -5572.106570 kJ/mol
# Density = 2.354429 g / cm^3
# Si number density = 23.598001 Si / 1000 Ang^3
#
#
#
# Elastic Constant Matrix: (Units=GPa)
#
#
# Indices 1 2 3 4 5 6 
#
# 1 142.9467 58.9863 57.0496 0.0000 0.0000 0.0000
# 2 58.9863 177.8801 37.9680 0.0000 0.0000 0.0000
# 3 57.0496 37.9680 192.3138 0.0000 0.0000 0.0000
# 4 0.0000 0.0000 0.0000 -43.6806 0.0000 0.0000
# 5 0.0000 0.0000 0.0000 0.0000 -295.9295 0.0000
# 6 0.0000 0.0000 0.0000 0.0000 0.0000 7.1764
#
#
#
# Elastic Compliance Matrix: (Units=1/GPa)
#
#
# Indices 1 2 3 4 5 6 
#
# 1 0.008877 -0.002486 -0.002142 0.000000 0.000000 0.000000
# 2 -0.002486 0.006565 -0.000559 0.000000 0.000000 0.000000
# 3 -0.002142 -0.000559 0.005946 0.000000 0.000000 0.000000
# 4 0.000000 0.000000 0.000000 -0.022893 0.000000 0.000000
# 5 0.000000 0.000000 0.000000 0.000000 -0.003379 0.000000
# 6 0.000000 0.000000 0.000000 0.000000 0.000000 0.139346
#
#
# Mechanical properties :
#
#
# Convention : Reuss Voigt Hill
#
# Bulk Modulus (GPa) = 90.80061 91.23869 91.01965
# Shear Modulus (GPa) = 33.66862 -42.54428 -4.43783
#
# Velocity S-wave (km/s) = 3.78134 -4.25064 -1.37284
# Velocity P-wave (km/s) = 7.59120 3.82846 6.01180
#
# Compressibility (1/GPa) = 0.01101314
#
# Stress axis : x y z
#
# Youngs Moduli (GPa) = 112.65620 152.31207 168.19000
#
# Poissons Ratio (x) = 0.37869 0.36032
# Poissons Ratio (y) = 0.28009 0.09396
# Poissons Ratio (z) = 0.24135 0.08509
#
# Static dielectric constant tensor:
#      x y z
#    x 1.779980 0.000000 0.000000 
#    y 0.000000 1.862550 0.000000 
#    z 0.000000 0.000000 1.977560 
# 
# From -- ./inp_files/45272.got.cif
#   From: 2010.05.17/outbox.cif.g08.bks.cpg/sg66_23_cif.got.tgz:45272.got - 2010.06.03 17:51:23.
