data_PCOD9498300
_publ_section_title
;
Structure prediction by ZEFSAII (Michael W. Deem and Ramdas Pophale) SiO2 
 PCOD9498300
Probable space group: C C C M
;
_chemical_formula_sum "Si O2"
_cell_formula_units_Z 68
_cell_length_a 10.272091
_cell_length_b 14.634901
_cell_length_c 18.459226
_cell_angle_alpha 90.000000
_cell_angle_beta 90.000000
_cell_angle_gamma 90.000000
_cell_volume 2774.994547
_symmetry_space_group_name_H-M "C C C M"
_symmetry_group_IT_number 66
_symmetry_cell_setting 'orthorhombic'
loop_
_space_group_symop_operation_xyz
x,y,z
-x,-y,z
x,-y,1/2-z
-x,y,1/2-z
-x,-y,-z
x,y,-z
-x,y,1/2+z
x,-y,1/2+z
1/2+x,1/2+y,z
1/2-x,1/2-y,z
1/2+x,1/2-y,1/2-z
1/2-x,1/2+y,1/2-z
1/2-x,1/2-y,-z
1/2+x,1/2+y,-z
1/2-x,1/2+y,1/2+z
1/2+x,1/2-y,1/2+z
loop_
_atom_site_type_symbol
_atom_site_label
_atom_site_fract_x
_atom_site_fract_y
_atom_site_fract_z
Si Si1 0.000000 0.000000 0.750000
Si Si2 0.061085 0.118151 0.120202
Si Si3 0.385532 0.797333 0.309149
Si Si4 0.825943 0.543577 0.917668
Si Si5 0.765071 0.146590 0.085628
O O1 0.922979 0.932060 0.802168
O O2 0.080129 0.225372 0.127934
O O3 0.175096 0.074823 0.074620
O O4 0.911357 0.110454 0.098749
O O5 0.500000 0.798051 0.250000
O O6 0.250000 0.750000 0.280804
O O7 0.372037 0.892130 0.351961
O O8 0.172119 0.562526 0.892253
O O9 0.880871 0.554583 0.000000
O O10 0.750000 0.250000 0.114980
O O11 0.744372 0.153000 0.000000
#
# Coordination Sequence:
#
# PCOD9498300 Si02
#       5
#     4  16  16  16  16
#     4  12  20  36  62  96 136 180 232 290 338 416
#     4  11  21  38  65  96 134 178 226 287 341 409
#     4  10  23  41  68 104 143 186 227 284 349 417
#     4  10  21  41  71 101 131 174 233 295 346 401
#     4  10  21  39  65  98 134 178 228 280 343 415
#
# _framework density 24.504552
#
# number of rings (size 3 to 8) (size 9 to 14) (size 15 to 20)
#    0.000    1.647    3.529    0.706    0.000    8.000 
#    0.000    1.176    2.588   10.588    0.000    0.000 
#    0.000    0.000    0.000    0.000    0.000    4.706 
#
# Total GULP energy -189699.299148 kJ/mol
# GULP energy per Si atom -5579.391151 kJ/mol
# Density = 2.444878 g / cm^3
# Si number density = 24.504552 Si / 1000 Ang^3
#
#
#
# Elastic Constant Matrix: (Units=GPa)
#
#
# Indices 1 2 3 4 5 6 
#
# 1 122.3345 44.3673 43.9199 0.0000 0.0000 0.0000
# 2 44.3673 199.3507 59.4283 0.0000 0.0000 0.0000
# 3 43.9199 59.4283 90.5605 0.0000 0.0000 0.0000
# 4 0.0000 0.0000 0.0000 20.9001 0.0000 0.0000
# 5 0.0000 0.0000 0.0000 0.0000 -16.6749 0.0000
# 6 0.0000 0.0000 0.0000 0.0000 0.0000 30.0983
#
#
#
# Elastic Compliance Matrix: (Units=1/GPa)
#
#
# Indices 1 2 3 4 5 6 
#
# 1 0.010048 -0.000974 -0.004234 0.000000 0.000000 0.000000
# 2 -0.000974 0.006331 -0.003682 0.000000 0.000000 0.000000
# 3 -0.004234 -0.003682 0.015512 0.000000 0.000000 0.000000
# 4 0.000000 0.000000 0.000000 0.047847 0.000000 0.000000
# 5 0.000000 0.000000 0.000000 0.000000 -0.059970 0.000000
# 6 0.000000 0.000000 0.000000 0.000000 0.000000 0.033224
#
#
# Mechanical properties :
#
#
# Convention : Reuss Voigt Hill
#
# Bulk Modulus (GPa) = 70.86845 78.63074 74.74960
# Shear Modulus (GPa) = 66.24836 24.50006 45.37421
#
# Velocity S-wave (km/s) = 5.20517 3.16542 4.30777
# Velocity P-wave (km/s) = 8.06898 6.74668 7.43727
#
# Compressibility (1/GPa) = 0.01411065
#
# Stress axis : x y z
#
# Youngs Moduli (GPa) = 99.52716 157.96023 64.46726
#
# Poissons Ratio (x) = 0.15387 0.27293
# Poissons Ratio (y) = 0.09695 0.23737
# Poissons Ratio (z) = 0.42136 0.58161
#
# Static dielectric constant tensor:
#      x y z
#    x 2.039300 0.000000 0.000000 
#    y 0.000000 2.033650 0.000000 
#    z 0.000000 0.000000 1.935990 
# 
# From -- ./inp_files/46726.got.cif
#   From: 2010.05.17/outbox.cif.g08.bks.cpg/sg66_24_cif.got.tgz:46726.got - 2010.06.03 17:51:23.
