data_PCOD9498998
_publ_section_title
;
Structure prediction by ZEFSAII (Michael W. Deem and Ramdas Pophale) SiO2 
 PCOD9498998
Probable space group: C C C M
;
_chemical_formula_sum "Si O2"
_cell_formula_units_Z 60
_cell_length_a 26.486958
_cell_length_b 7.538048
_cell_length_c 13.967886
_cell_angle_alpha 90.000000
_cell_angle_beta 90.000000
_cell_angle_gamma 90.000000
_cell_volume 2788.827571
_symmetry_space_group_name_H-M "C C C M"
_symmetry_group_IT_number 66
_symmetry_cell_setting 'orthorhombic'
loop_
_space_group_symop_operation_xyz
x,y,z
-x,-y,z
x,-y,1/2-z
-x,y,1/2-z
-x,-y,-z
x,y,-z
-x,y,1/2+z
x,-y,1/2+z
1/2+x,1/2+y,z
1/2-x,1/2-y,z
1/2+x,1/2-y,1/2-z
1/2-x,1/2+y,1/2-z
1/2-x,1/2-y,-z
1/2+x,1/2+y,-z
1/2-x,1/2+y,1/2+z
1/2+x,1/2-y,1/2+z
loop_
_atom_site_type_symbol
_atom_site_label
_atom_site_fract_x
_atom_site_fract_y
_atom_site_fract_z
Si Si1 0.500000 0.500000 0.750000
Si Si2 0.416172 0.368841 0.112814
Si Si3 0.833993 0.421766 0.610962
Si Si4 0.750000 0.750000 0.754142
Si Si5 0.169480 0.839519 0.110692
O O1 0.536180 0.613001 0.819011
O O2 0.384153 0.191404 0.130254
O O3 0.377275 0.531967 0.131511
O O4 0.429828 0.376256 0.000000
O O5 0.819848 0.389393 0.500000
O O6 0.790568 0.346869 0.678898
O O7 0.843239 0.631230 0.621739
O O8 0.783502 0.866469 0.680217
O O9 0.184190 0.871329 0.000000
#
# Coordination Sequence:
#
# PCOD9498998 Si02
#       5
#     4  16  16   8  16
#     4  12  22  40  70  94 112 146 206 260 314 364
#     4  10  23  43  63  86 121 159 198 253 310 362
#     4  10  23  40  58  85 124 164 202 244 297 361
#     4  12  22  34  58  90 120 160 208 248 286 342
#     4  10  23  40  58  85 124 164 202 244 297 361
#
# _framework density 21.514419
#
# number of rings (size 3 to 8) (size 9 to 14) (size 15 to 20)
#    0.000    1.600    0.000    3.600    7.467    0.000 
#    0.000    2.667    0.000    6.400    0.000    0.000 
#    0.000    0.000    0.000    0.000    0.000    0.000 
#
# Total GULP energy -167987.822781 kJ/mol
# GULP energy per Si atom -5599.594093 kJ/mol
# Density = 2.146545 g / cm^3
# Si number density = 21.514419 Si / 1000 Ang^3
#
#
#
# Elastic Constant Matrix: (Units=GPa)
#
#
# Indices 1 2 3 4 5 6 
#
# 1 124.9518 37.6317 98.4344 0.0000 0.0000 0.0000
# 2 37.6317 64.3501 50.7617 0.0000 0.0000 0.0000
# 3 98.4344 50.7617 150.6202 0.0000 0.0000 0.0000
# 4 0.0000 0.0000 0.0000 29.0470 0.0000 0.0000
# 5 0.0000 0.0000 0.0000 0.0000 97.6422 0.0000
# 6 0.0000 0.0000 0.0000 0.0000 0.0000 14.8239
#
#
#
# Elastic Compliance Matrix: (Units=1/GPa)
#
#
# Indices 1 2 3 4 5 6 
#
# 1 0.016611 -0.001567 -0.010327 0.000000 0.000000 0.000000
# 2 -0.001567 0.021315 -0.006159 0.000000 0.000000 0.000000
# 3 -0.010327 -0.006159 0.015464 0.000000 0.000000 0.000000
# 4 0.000000 0.000000 0.000000 0.034427 0.000000 0.000000
# 5 0.000000 0.000000 0.000000 0.000000 0.010241 0.000000
# 6 0.000000 0.000000 0.000000 0.000000 0.000000 0.067459
#
#
# Mechanical properties :
#
#
# Convention : Reuss Voigt Hill
#
# Bulk Modulus (GPa) = 57.86298 79.28643 68.57470
# Shear Modulus (GPa) = 24.10961 38.50892 31.30927
#
# Velocity S-wave (km/s) = 3.35121 4.23533 3.81894
# Velocity P-wave (km/s) = 6.47514 7.80064 7.16859
#
# Compressibility (1/GPa) = 0.01728221
#
# Stress axis : x y z
#
# Youngs Moduli (GPa) = 60.20162 46.91479 64.66522
#
# Poissons Ratio (x) = 0.07353 0.66782
# Poissons Ratio (y) = 0.09436 0.39829
# Poissons Ratio (z) = 0.62173 0.28896
#
# Static dielectric constant tensor:
#      x y z
#    x 1.724040 0.000000 0.000000 
#    y 0.000000 1.826050 0.000000 
#    z 0.000000 0.000000 1.819220 
# 
# From -- ./inp_files/31837.got.cif
#   From: 2010.05.17/outbox.cif.g08.bks.cpg/sg66_16_cif.got.tgz:31837.got - 2010.06.03 17:51:23.
