data_PCOD9498362
_publ_section_title
;
Structure prediction by ZEFSAII (Michael W. Deem and Ramdas Pophale) SiO2 
 PCOD9498362
Probable space group: C C C M
;
_chemical_formula_sum "Si O2"
_cell_formula_units_Z 96
_cell_length_a 14.228012
_cell_length_b 14.630092
_cell_length_c 22.686028
_cell_angle_alpha 90.000000
_cell_angle_beta 90.000000
_cell_angle_gamma 90.000000
_cell_volume 4722.258356
_symmetry_space_group_name_H-M "C C C M"
_symmetry_group_IT_number 66
_symmetry_cell_setting 'orthorhombic'
loop_
_space_group_symop_operation_xyz
x,y,z
-x,-y,z
x,-y,1/2-z
-x,y,1/2-z
-x,-y,-z
x,y,-z
-x,y,1/2+z
x,-y,1/2+z
1/2+x,1/2+y,z
1/2-x,1/2-y,z
1/2+x,1/2-y,1/2-z
1/2-x,1/2+y,1/2-z
1/2-x,1/2-y,-z
1/2+x,1/2+y,-z
1/2-x,1/2+y,1/2+z
1/2+x,1/2-y,1/2+z
loop_
_atom_site_type_symbol
_atom_site_label
_atom_site_fract_x
_atom_site_fract_y
_atom_site_fract_z
Si Si1 0.389586 0.000000 0.179735
Si Si2 0.500000 0.500000 0.402171
Si Si3 0.155385 0.691156 0.371968
Si Si4 0.844615 0.308844 0.871968
Si Si5 0.664928 0.500000 0.500000
Si Si6 0.500000 0.678637 0.819130
Si Si7 0.183602 0.336823 0.500000
Si Si8 0.316398 0.836823 0.500000
O O1 0.339530 0.908127 0.157657
O O2 0.500000 0.000000 0.160283
O O3 0.390002 0.000000 0.250000
O O4 0.339530 0.091873 0.157657
O O5 0.593146 0.500000 0.444162
O O6 0.500000 0.589683 0.360916
O O7 0.250000 0.750000 0.374157
O O8 0.086132 0.755750 0.335943
O O9 0.126074 0.669058 0.439481
O O10 0.750000 0.250000 0.874157
O O11 0.913868 0.244250 0.835943
O O12 0.873926 0.330942 0.939481
O O13 0.738863 0.582995 0.500000
O O14 0.738863 0.417005 0.500000
O O15 0.500000 0.654803 0.750000
O O16 0.250000 0.250000 0.500000
O O17 0.250000 0.750000 0.500000
#
# Coordination Sequence:
#
# PCOD9498362 Si02
#       8
#    16   8  16  16   8  16   8   8
#     4  11  23  43  65  92 134 179 221 271 327 395
#     4  11  23  40  68  96 133 179 216 274 356 405
#     4  11  24  43  69  98 133 178 226 280 342 403
#     4  11  24  43  69  98 133 178 226 280 342 403
#     4  11  22  42  68  99 132 168 216 279 348 417
#     4  12  26  44  64  97 139 180 233 281 327 406
#     4  10  21  40  64  94 131 165 216 276 333 402
#     4  10  21  40  64  94 131 165 216 276 333 402
#
# _framework density 20.329256000000001
#
# number of rings (size 3 to 8) (size 9 to 14) (size 15 to 20)
#    0.000    1.000    1.667    6.250    0.000    6.000 
#    0.000    0.833    0.000    0.000    0.000    0.000 
#    0.000    0.000    0.000    0.000    0.000    0.000 
#
# Total GULP energy -267970.280062 kJ/mol
# GULP energy per Si atom -5582.714168 kJ/mol
# Density = 2.028299 g / cm^3
# Si number density = 20.329256 Si / 1000 Ang^3
#
#
#
# Elastic Constant Matrix: (Units=GPa)
#
#
# Indices 1 2 3 4 5 6 
#
# 1 58.0234 24.3576 26.2305 0.0000 0.0000 0.0000
# 2 24.3576 197.5895 55.6242 0.0000 0.0000 0.0000
# 3 26.2305 55.6242 155.5743 0.0000 0.0000 0.0000
# 4 0.0000 0.0000 0.0000 37.8759 0.0000 0.0000
# 5 0.0000 0.0000 0.0000 0.0000 25.3138 0.0000
# 6 0.0000 0.0000 0.0000 0.0000 0.0000 -39.5127
#
#
#
# Elastic Compliance Matrix: (Units=1/GPa)
#
#
# Indices 1 2 3 4 5 6 
#
# 1 0.019107 -0.001611 -0.002646 0.000000 0.000000 0.000000
# 2 -0.001611 0.005763 -0.001789 0.000000 0.000000 0.000000
# 3 -0.002646 -0.001789 0.007514 0.000000 0.000000 0.000000
# 4 0.000000 0.000000 0.000000 0.026402 0.000000 0.000000
# 5 0.000000 0.000000 0.000000 0.000000 0.039504 0.000000
# 6 0.000000 0.000000 0.000000 0.000000 0.000000 -0.025308
#
#
# Mechanical properties :
#
#
# Convention : Reuss Voigt Hill
#
# Bulk Modulus (GPa) = 49.27851 69.29020 59.28436
# Shear Modulus (GPa) = 54.44504 25.06704 39.75604
#
# Velocity S-wave (km/s) = 5.18071 3.51529 4.42702
# Velocity P-wave (km/s) = 7.75108 7.11578 7.44021
#
# Compressibility (1/GPa) = 0.02029282
#
# Stress axis : x y z
#
# Youngs Moduli (GPa) = 52.33821 173.51550 133.09367
#
# Poissons Ratio (x) = 0.27946 0.35211
# Poissons Ratio (y) = 0.08429 0.23811
# Poissons Ratio (z) = 0.13847 0.31042
#
# Static dielectric constant tensor:
#      x y z
#    x 1.697200 0.000000 0.000000 
#    y 0.000000 1.665000 0.000000 
#    z 0.000000 0.000000 1.795530 
# 
# From -- ./inp_files/49934.got.cif
#   From: 2010.05.17/outbox.cif.g08.bks.cpg/sg66_25_cif.got.tgz:49934.got - 2010.06.03 17:51:23.
