data_PCOD9498178
_publ_section_title
;
Structure prediction by ZEFSAII (Michael W. Deem and Ramdas Pophale) SiO2 
 PCOD9498178
Probable space group: C C C M
;
_chemical_formula_sum "Si O2"
_cell_formula_units_Z 92
_cell_length_a 19.033890
_cell_length_b 11.369622
_cell_length_c 17.621632
_cell_angle_alpha 90.000000
_cell_angle_beta 90.000000
_cell_angle_gamma 90.000000
_cell_volume 3813.464508
_symmetry_space_group_name_H-M "C C C M"
_symmetry_group_IT_number 66
_symmetry_cell_setting 'orthorhombic'
loop_
_space_group_symop_operation_xyz
x,y,z
-x,-y,z
x,-y,1/2-z
-x,y,1/2-z
-x,-y,-z
x,y,-z
-x,y,1/2+z
x,-y,1/2+z
1/2+x,1/2+y,z
1/2-x,1/2-y,z
1/2+x,1/2-y,1/2-z
1/2-x,1/2+y,1/2-z
1/2-x,1/2-y,-z
1/2+x,1/2+y,-z
1/2-x,1/2+y,1/2+z
1/2+x,1/2-y,1/2+z
loop_
_atom_site_type_symbol
_atom_site_label
_atom_site_fract_x
_atom_site_fract_y
_atom_site_fract_z
Si Si1 0.142355 0.472373 0.662000
Si Si2 0.166150 0.237755 0.728805
Si Si3 0.500375 0.642241 0.500000
Si Si4 0.303565 0.544164 0.872193
Si Si5 0.159196 0.221099 0.500000
Si Si6 0.000000 0.000000 0.750000
Si Si7 0.085074 0.479074 0.500000
Si Si8 0.908274 0.844201 0.863075
O O1 0.122462 0.500000 0.750000
O O2 0.135435 0.329938 0.668944
O O3 0.225839 0.495045 0.651304
O O4 0.105569 0.520629 0.586099
O O5 0.250000 0.250000 0.734692
O O6 0.157591 0.106287 0.698229
O O7 0.131693 0.249719 0.811092
O O8 0.500000 0.500000 0.500000
O O9 0.581125 0.670047 0.500000
O O10 0.459868 0.695309 0.571436
O O11 0.350025 0.433782 0.897041
O O12 0.301457 0.652766 0.931037
O O13 0.137401 0.359434 0.500000
O O14 0.956953 0.916252 0.805804
O O15 0.000000 0.500000 0.500000
#
# Coordination Sequence:
#
# PCOD9498178 Si02
#       8
#    16  16   8  16   8   4   8  16
#     4  11  25  45  72 107 139 184 246 310 369 427
#     4  10  21  38  65  96 131 173 229 292 349 420
#     4  12  24  38  57  94 145 178 220 275 358 440
#     4  11  19  38  70 102 137 169 225 304 361 423
#     4  12  23  42  67 101 135 185 244 294 351 426
#     4  12  20  30  60  92 130 166 218 268 352 414
#     4  12  29  50  73  99 143 199 254 303 355 429
#     4  12  22  38  60 100 139 180 215 282 363 437
#
# _framework density 24.125043999999999
#
# number of rings (size 3 to 8) (size 9 to 14) (size 15 to 20)
#    0.000    0.696    6.087    2.609    0.000    2.435 
#    0.000    0.435    0.000    0.000    0.000    0.000 
#    0.000    0.000    0.000    0.000    0.000    0.000 
#
# Total GULP energy -256622.753303 kJ/mol
# GULP energy per Si atom -5578.755507 kJ/mol
# Density = 2.407013 g / cm^3
# Si number density = 24.125044 Si / 1000 Ang^3
#
#
#
# Elastic Constant Matrix: (Units=GPa)
#
#
# Indices 1 2 3 4 5 6 
#
# 1 92.5992 -0.3467 53.4515 0.0000 0.0000 0.0000
# 2 -0.3467 40.4448 13.3011 0.0000 0.0000 0.0000
# 3 53.4515 13.3011 186.2314 0.0000 0.0000 0.0000
# 4 0.0000 0.0000 0.0000 27.7624 0.0000 0.0000
# 5 0.0000 0.0000 0.0000 0.0000 22.7277 0.0000
# 6 0.0000 0.0000 0.0000 0.0000 0.0000 25.4511
#
#
#
# Elastic Compliance Matrix: (Units=1/GPa)
#
#
# Indices 1 2 3 4 5 6 
#
# 1 0.013018 0.001373 -0.003834 0.000000 0.000000 0.000000
# 2 0.001373 0.025465 -0.002213 0.000000 0.000000 0.000000
# 3 -0.003834 -0.002213 0.006628 0.000000 0.000000 0.000000
# 4 0.000000 0.000000 0.000000 0.036020 0.000000 0.000000
# 5 0.000000 0.000000 0.000000 0.000000 0.043999 0.000000
# 6 0.000000 0.000000 0.000000 0.000000 0.000000 0.039291
#
#
# Mechanical properties :
#
#
# Convention : Reuss Voigt Hill
#
# Bulk Modulus (GPa) = 27.96299 50.23191 39.09745
# Shear Modulus (GPa) = 26.92660 32.04620 29.48640
#
# Velocity S-wave (km/s) = 3.34447 3.64859 3.49984
# Velocity P-wave (km/s) = 5.15073 6.21420 5.70729
#
# Compressibility (1/GPa) = 0.03576156
#
# Stress axis : x y z
#
# Youngs Moduli (GPa) = 76.81860 39.27035 150.87018
#
# Poissons Ratio (x) = -0.05390 0.57849
# Poissons Ratio (y) = -0.10544 0.33383
# Poissons Ratio (z) = 0.29455 0.08689
#
# Static dielectric constant tensor:
#      x y z
#    x 1.882240 0.000000 0.000000 
#    y 0.000000 1.833360 0.000000 
#    z 0.000000 0.000000 1.904980 
# 
# From -- ./inp_files/42835.got.cif
#   From: 2010.05.17/outbox.cif.g08.bks.cpg/sg66_22_cif.got.tgz:42835.got - 2010.06.03 17:51:23.
