data_PCOD9498441
_publ_section_title
;
Structure prediction by ZEFSAII (Michael W. Deem and Ramdas Pophale) SiO2 
 PCOD9498441
Probable space group: C C C M
;
_chemical_formula_sum "Si O2"
_cell_formula_units_Z 52
_cell_length_a 9.919931
_cell_length_b 15.929127
_cell_length_c 13.578436
_cell_angle_alpha 90.000000
_cell_angle_beta 90.000000
_cell_angle_gamma 90.000000
_cell_volume 2145.607980
_symmetry_space_group_name_H-M "C C C M"
_symmetry_group_IT_number 66
_symmetry_cell_setting 'orthorhombic'
loop_
_space_group_symop_operation_xyz
x,y,z
-x,-y,z
x,-y,1/2-z
-x,y,1/2-z
-x,-y,-z
x,y,-z
-x,y,1/2+z
x,-y,1/2+z
1/2+x,1/2+y,z
1/2-x,1/2-y,z
1/2+x,1/2-y,1/2-z
1/2-x,1/2+y,1/2-z
1/2-x,1/2-y,-z
1/2+x,1/2+y,-z
1/2-x,1/2+y,1/2+z
1/2+x,1/2-y,1/2+z
loop_
_atom_site_type_symbol
_atom_site_label
_atom_site_fract_x
_atom_site_fract_y
_atom_site_fract_z
Si Si1 0.026880 0.405057 0.864461
Si Si2 0.000000 0.000000 0.750000
Si Si3 0.325936 0.354615 0.816879
Si Si4 0.916924 0.772602 0.392320
O O1 0.181795 0.372614 0.865074
O O2 0.000000 0.500000 0.901859
O O3 0.000000 0.411649 0.750000
O O4 0.928116 0.328801 0.894509
O O5 0.098373 0.057131 0.812540
O O6 0.343399 0.314694 0.704253
O O7 0.426864 0.297975 0.879008
O O8 0.869601 0.802624 0.500000
#
# Coordination Sequence:
#
# PCOD9498441 Si02
#       4
#    16   4  16  16
#     4  11  22  38  64  97 133 173 218 269 332 387
#     4   8  16  36  60  84 118 174 216 262 326 384
#     4  10  21  41  65  95 130 175 221 274 329 391
#     4  10  22  41  69  98 129 174 224 272 329 393
#
# _framework density 24.235555000000002
#
# number of rings (size 3 to 8) (size 9 to 14) (size 15 to 20)
#    0.000    2.154    3.077    2.769    0.000    3.077 
#    0.000   15.385    0.000   17.538    0.000    0.000 
#    0.000    0.000    0.000    0.000    0.000    0.000 
#
# Total GULP energy -144756.691046 kJ/mol
# GULP energy per Si atom -5567.565040 kJ/mol
# Density = 2.418039 g / cm^3
# Si number density = 24.235555 Si / 1000 Ang^3
#
#
#
# Elastic Constant Matrix: (Units=GPa)
#
#
# Indices 1 2 3 4 5 6 
#
# 1 177.0230 43.1696 10.8371 0.0000 0.0000 0.0000
# 2 43.1696 169.4393 20.5132 0.0000 0.0000 0.0000
# 3 10.8371 20.5132 160.6676 0.0000 0.0000 0.0000
# 4 0.0000 0.0000 0.0000 81.6574 0.0000 0.0000
# 5 0.0000 0.0000 0.0000 0.0000 0.2594 0.0000
# 6 0.0000 0.0000 0.0000 0.0000 0.0000 49.0298
#
#
#
# Elastic Compliance Matrix: (Units=1/GPa)
#
#
# Indices 1 2 3 4 5 6 
#
# 1 0.006030 -0.001511 -0.000214 0.000000 0.000000 0.000000
# 2 -0.001511 0.006373 -0.000712 0.000000 0.000000 0.000000
# 3 -0.000214 -0.000712 0.006329 0.000000 0.000000 0.000000
# 4 0.000000 0.000000 0.000000 0.012246 0.000000 0.000000
# 5 0.000000 0.000000 0.000000 0.000000 3.854451 0.000000
# 6 0.000000 0.000000 0.000000 0.000000 0.000000 0.020396
#
#
# Mechanical properties :
#
#
# Convention : Reuss Voigt Hill
#
# Bulk Modulus (GPa) = 72.14894 72.90775 72.52835
# Shear Modulus (GPa) = 1.27704 55.03000 28.15352
#
# Velocity S-wave (km/s) = 0.72668 4.77028 3.41201
# Velocity P-wave (km/s) = 5.52617 7.77747 6.74639
#
# Compressibility (1/GPa) = 0.01386022
#
# Stress axis : x y z
#
# Youngs Moduli (GPa) = 165.82533 156.91585 157.99459
#
# Poissons Ratio (x) = 0.23703 0.03380
# Poissons Ratio (y) = 0.25048 0.11245
# Poissons Ratio (z) = 0.03547 0.11169
#
# Static dielectric constant tensor:
#      x y z
#    x 2.078600 0.000000 0.000000 
#    y 0.000000 2.029070 0.000000 
#    z 0.000000 0.000000 1.926090 
# 
# From -- ./inp_files/25558.got.cif
#   From: 2010.05.17/outbox.cif.g08.bks.cpg/sg66_13_cif.got.tgz:25558.got - 2010.06.03 17:51:23.
