data_PCOD9498636
_publ_section_title
;
Structure prediction by ZEFSAII (Michael W. Deem and Ramdas Pophale) SiO2 
 PCOD9498636
Probable space group: C C C M
;
_chemical_formula_sum "Si O2"
_cell_formula_units_Z 108
_cell_length_a 5.540970
_cell_length_b 30.138124
_cell_length_c 27.809097
_cell_angle_alpha 90.000000
_cell_angle_beta 90.000000
_cell_angle_gamma 90.000000
_cell_volume 4643.964607
_symmetry_space_group_name_H-M "C C C M"
_symmetry_group_IT_number 66
_symmetry_cell_setting 'orthorhombic'
loop_
_space_group_symop_operation_xyz
x,y,z
-x,-y,z
x,-y,1/2-z
-x,y,1/2-z
-x,-y,-z
x,y,-z
-x,y,1/2+z
x,-y,1/2+z
1/2+x,1/2+y,z
1/2-x,1/2-y,z
1/2+x,1/2-y,1/2-z
1/2-x,1/2+y,1/2-z
1/2-x,1/2-y,-z
1/2+x,1/2+y,-z
1/2-x,1/2+y,1/2+z
1/2+x,1/2-y,1/2+z
loop_
_atom_site_type_symbol
_atom_site_label
_atom_site_fract_x
_atom_site_fract_y
_atom_site_fract_z
Si Si1 0.334618 0.961405 0.175914
Si Si2 0.492974 0.324393 0.693063
Si Si3 0.784423 0.391744 0.362331
Si Si4 0.250000 0.750000 0.368128
Si Si5 0.500000 0.500000 0.750000
Si Si6 0.868139 0.684533 0.611379
Si Si7 0.748824 0.476618 0.066184
Si Si8 0.060073 0.114859 0.554366
O O1 0.513752 0.920848 0.164156
O O2 0.122514 0.964316 0.213645
O O3 0.246298 0.977019 0.123978
O O4 0.500000 0.000000 0.196242
O O5 0.500000 0.320146 0.750000
O O6 0.596084 0.371730 0.675897
O O7 0.661326 0.288409 0.667195
O O8 0.241737 0.315527 0.665462
O O9 0.625436 0.407753 0.407474
O O10 0.925181 0.351968 0.387880
O O11 0.483314 0.769560 0.396890
O O12 0.665241 0.660982 0.577267
O O13 0.500000 0.500000 0.049819
O O14 0.755832 0.424700 0.052051
O O15 0.000000 0.500000 0.052202
O O16 0.970033 0.122429 0.500000
#
# Coordination Sequence:
#
# PCOD9498636 Si02
#       8
#    16  16  16   8   4  16  16  16
#     4  11  23  45  62  93 140 189 244 296 360 433
#     4  10  23  41  68 104 136 182 235 287 355 433
#     4  10  23  45  67  94 143 187 233 306 368 428
#     4  10  22  38  73  96 146 182 225 272 366 438
#     4  12  26  40  64 102 126 200 258 292 366 448
#     4  10  22  44  65 102 141 185 223 294 360 435
#     4  11  23  43  71  99 144 191 238 310 382 429
#     4  11  24  44  73 104 137 186 248 308 376 444
#
# _framework density 23.255991000000002
#
# number of rings (size 3 to 8) (size 9 to 14) (size 15 to 20)
#    0.000    1.481    2.222    2.444    2.074    2.963 
#    8.000    0.370    0.000   12.000    0.000    0.000 
#    0.000    0.000    0.000    0.000    0.000    0.000 
#
# Total GULP energy -301047.735472 kJ/mol
# GULP energy per Si atom -5574.958064 kJ/mol
# Density = 2.320306 g / cm^3
# Si number density = 23.255991 Si / 1000 Ang^3
#
#
#
# Elastic Constant Matrix: (Units=GPa)
#
#
# Indices 1 2 3 4 5 6 
#
# 1 116.7181 41.5117 39.5145 0.0000 0.0000 0.0000
# 2 41.5117 90.8697 53.7724 0.0000 0.0000 0.0000
# 3 39.5145 53.7724 130.1381 0.0000 0.0000 0.0000
# 4 0.0000 0.0000 0.0000 -14.6910 0.0000 0.0000
# 5 0.0000 0.0000 0.0000 0.0000 -66.7044 0.0000
# 6 0.0000 0.0000 0.0000 0.0000 0.0000 59.6252
#
#
#
# Elastic Compliance Matrix: (Units=1/GPa)
#
#
# Indices 1 2 3 4 5 6 
#
# 1 0.010473 -0.003842 -0.001593 0.000000 0.000000 0.000000
# 2 -0.003842 0.015976 -0.005435 0.000000 0.000000 0.000000
# 3 -0.001593 -0.005435 0.010413 0.000000 0.000000 0.000000
# 4 0.000000 0.000000 0.000000 -0.068069 0.000000 0.000000
# 5 0.000000 0.000000 0.000000 0.000000 -0.014992 0.000000
# 6 0.000000 0.000000 0.000000 0.000000 0.000000 0.016771
#
#
# Mechanical properties :
#
#
# Convention : Reuss Voigt Hill
#
# Bulk Modulus (GPa) = 66.11997 67.48033 66.80015
# Shear Modulus (GPa) = -1888.80651 9.17445 -939.81603
#
# Velocity S-wave (km/s) = -28.52970 1.98835 -20.12449
# Velocity P-wave (km/s) = 32.50793 5.86095 22.60989
#
# Compressibility (1/GPa) = 0.01512402
#
# Stress axis : x y z
#
# Youngs Moduli (GPa) = 95.48123 62.59445 96.03175
#
# Poissons Ratio (x) = 0.24049 0.15293
# Poissons Ratio (y) = 0.36685 0.52189
# Poissons Ratio (z) = 0.15206 0.34017
#
# Static dielectric constant tensor:
#      x y z
#    x 1.746180 0.000000 0.000000 
#    y 0.000000 1.957340 0.000000 
#    z 0.000000 0.000000 1.849550 
# 
# From -- ./inp_files/67538.got.cif
#   From: 2010.05.17/outbox.cif.g08.bks.cpg/sg66_34_cif.got.tgz:67538.got - 2010.06.03 17:51:23.
