data_PCOD9498600
_publ_section_title
;
Structure prediction by ZEFSAII (Michael W. Deem and Ramdas Pophale) SiO2 
 PCOD9498600
Probable space group: C C C M
;
_chemical_formula_sum "Si O2"
_cell_formula_units_Z 112
_cell_length_a 11.729282
_cell_length_b 30.934299
_cell_length_c 14.752836
_cell_angle_alpha 90.000000
_cell_angle_beta 90.000000
_cell_angle_gamma 90.000000
_cell_volume 5352.876474
_symmetry_space_group_name_H-M "C C C M"
_symmetry_group_IT_number 66
_symmetry_cell_setting 'orthorhombic'
loop_
_space_group_symop_operation_xyz
x,y,z
-x,-y,z
x,-y,1/2-z
-x,y,1/2-z
-x,-y,-z
x,y,-z
-x,y,1/2+z
x,-y,1/2+z
1/2+x,1/2+y,z
1/2-x,1/2-y,z
1/2+x,1/2-y,1/2-z
1/2-x,1/2+y,1/2-z
1/2-x,1/2-y,-z
1/2+x,1/2+y,-z
1/2-x,1/2+y,1/2+z
1/2+x,1/2-y,1/2+z
loop_
_atom_site_type_symbol
_atom_site_label
_atom_site_fract_x
_atom_site_fract_y
_atom_site_fract_z
Si Si1 0.690380 0.450624 0.742664
Si Si2 0.492261 0.569581 0.898102
Si Si3 0.529294 0.750629 0.396693
Si Si4 0.026301 0.163071 0.348661
Si Si5 0.197776 0.702012 0.395247
Si Si6 0.216371 0.313807 0.391874
Si Si7 0.637661 0.127144 0.252787
O O1 0.729125 0.500000 0.750000
O O2 0.616544 0.439632 0.833401
O O3 0.601619 0.446503 0.658603
O O4 0.793403 0.416998 0.731401
O O5 0.499642 0.621720 0.906903
O O6 0.483373 0.551880 0.000000
O O7 0.555846 0.737838 0.500000
O O8 0.464340 0.708850 0.357152
O O9 0.437326 0.788334 0.398733
O O10 0.641440 0.773326 0.356027
O O11 0.152443 0.181581 0.364347
O O12 0.000000 0.146051 0.250000
O O13 0.234979 0.690857 0.500000
O O14 0.250000 0.750000 0.374630
O O15 0.197596 0.663005 0.321353
O O16 0.207906 0.312428 0.500000
O O17 0.164268 0.356130 0.347974
O O18 0.500000 0.124130 0.250000
#
# Coordination Sequence:
#
# PCOD9498600 Si02
#       7
#    16  16  16  16  16  16  16
#     4  11  26  47  68 101 134 164 222 284 345 421
#     4  11  22  43  72 101 136 172 212 276 346 406
#     4  10  22  38  57  88 129 181 227 265 313 377
#     4  12  23  36  59  98 136 174 219 273 326 391
#     4  10  24  42  62  93 135 178 220 270 324 382
#     4  11  23  42  62  88 131 180 229 274 316 380
#     4  12  25  44  69  99 131 181 229 275 336 399
#
# _framework density 20.92333
#
# number of rings (size 3 to 8) (size 9 to 14) (size 15 to 20)
#    0.000    1.000    4.286    2.571    6.000    3.143 
#    0.000    0.000    0.000    0.000    0.000    4.000 
#    0.000    0.000    0.000    0.000    0.000    0.000 
#
# Total GULP energy -312187.243895 kJ/mol
# GULP energy per Si atom -5574.772212 kJ/mol
# Density = 2.087571 g / cm^3
# Si number density = 20.923330 Si / 1000 Ang^3
#
#
#
# Elastic Constant Matrix: (Units=GPa)
#
#
# Indices 1 2 3 4 5 6 
#
# 1 87.7163 38.9283 25.2277 0.0000 0.0000 0.0000
# 2 38.9283 148.8456 39.5654 0.0000 0.0000 0.0000
# 3 25.2277 39.5654 123.2567 0.0000 0.0000 0.0000
# 4 0.0000 0.0000 0.0000 -62.0500 0.0000 0.0000
# 5 0.0000 0.0000 0.0000 0.0000 19.4840 0.0000
# 6 0.0000 0.0000 0.0000 0.0000 0.0000 23.4127
#
#
#
# Elastic Compliance Matrix: (Units=1/GPa)
#
#
# Indices 1 2 3 4 5 6 
#
# 1 0.013233 -0.002997 -0.001747 0.000000 0.000000 0.000000
# 2 -0.002997 0.008024 -0.001962 0.000000 0.000000 0.000000
# 3 -0.001747 -0.001962 0.009101 0.000000 0.000000 0.000000
# 4 0.000000 0.000000 0.000000 -0.016116 0.000000 0.000000
# 5 0.000000 0.000000 0.000000 0.000000 0.051324 0.000000
# 6 0.000000 0.000000 0.000000 0.000000 0.000000 0.042712
#
#
# Mechanical properties :
#
#
# Convention : Reuss Voigt Hill
#
# Bulk Modulus (GPa) = 59.01057 63.02902 61.01980
# Shear Modulus (GPa) = 39.26615 13.24248 26.25432
#
# Velocity S-wave (km/s) = 4.33675 2.51849 3.54614
# Velocity P-wave (km/s) = 7.30349 6.21661 6.78186
#
# Compressibility (1/GPa) = 0.01694612
#
# Stress axis : x y z
#
# Youngs Moduli (GPa) = 75.57123 124.63123 109.88396
#
# Poissons Ratio (x) = 0.37346 0.19191
# Poissons Ratio (y) = 0.22645 0.21562
# Poissons Ratio (z) = 0.13199 0.24456
#
# Static dielectric constant tensor:
#      x y z
#    x 1.970750 0.000000 0.000000 
#    y 0.000000 1.832010 0.000000 
#    z 0.000000 0.000000 1.898000 
# 
# From -- ./inp_files/27033.got.cif
#   From: 2010.05.17/outbox.cif.g08.bks.cpg/sg66_14_cif.got.tgz:27033.got - 2010.06.03 17:51:23.
