data_PCOD9498775
_publ_section_title
;
Structure prediction by ZEFSAII (Michael W. Deem and Ramdas Pophale) SiO2 
 PCOD9498775
Probable space group: C C C M
;
_chemical_formula_sum "Si O2"
_cell_formula_units_Z 48
_cell_length_a 12.364925
_cell_length_b 10.180657
_cell_length_c 15.891005
_cell_angle_alpha 90.000000
_cell_angle_beta 90.000000
_cell_angle_gamma 90.000000
_cell_volume 2000.408340
_symmetry_space_group_name_H-M "C C C M"
_symmetry_group_IT_number 66
_symmetry_cell_setting 'orthorhombic'
loop_
_space_group_symop_operation_xyz
x,y,z
-x,-y,z
x,-y,1/2-z
-x,y,1/2-z
-x,-y,-z
x,y,-z
-x,y,1/2+z
x,-y,1/2+z
1/2+x,1/2+y,z
1/2-x,1/2-y,z
1/2+x,1/2-y,1/2-z
1/2-x,1/2+y,1/2-z
1/2-x,1/2-y,-z
1/2+x,1/2+y,-z
1/2-x,1/2+y,1/2+z
1/2+x,1/2-y,1/2+z
loop_
_atom_site_type_symbol
_atom_site_label
_atom_site_fract_x
_atom_site_fract_y
_atom_site_fract_z
Si Si1 0.116497 0.531717 0.848608
Si Si2 0.037392 0.795256 0.096519
Si Si3 0.154743 0.049868 0.152985
O O1 0.110591 0.500000 0.750000
O O2 0.116443 0.688085 0.861847
O O3 0.221445 0.451856 0.877616
O O4 0.000000 0.500000 0.887963
O O5 0.922258 0.823307 0.142698
O O6 0.099020 0.933084 0.101681
O O7 0.017148 0.761013 0.000000
O O8 0.152440 0.000000 0.250000
#
# Coordination Sequence:
#
# PCOD9498775 Si02
#       3
#    16  16  16
#     4  10  24  41  62  93 132 172 219 269 326 392
#     4  11  23  41  67  97 132 170 214 275 336 393
#     4  10  22  40  68  98 124 172 228 267 325 396
#
# _framework density 23.995100000000001
#
# number of rings (size 3 to 8) (size 9 to 14) (size 15 to 20)
#    0.000    1.667    0.000    5.000    9.333    6.000 
#    0.000    1.667    0.000    0.000    0.000    0.000 
#    0.000    0.000    0.000    0.000    0.000    0.000 
#
# Total GULP energy -133958.150428 kJ/mol
# GULP energy per Si atom -5581.589601 kJ/mol
# Density = 2.394049 g / cm^3
# Si number density = 23.995100 Si / 1000 Ang^3
#
#
#
# Elastic Constant Matrix: (Units=GPa)
#
#
# Indices 1 2 3 4 5 6 
#
# 1 184.5702 -0.0110 19.8086 0.0000 0.0000 0.0000
# 2 -0.0110 37.1571 22.5710 0.0000 0.0000 0.0000
# 3 19.8086 22.5710 107.1876 0.0000 0.0000 0.0000
# 4 0.0000 0.0000 0.0000 32.5816 0.0000 0.0000
# 5 0.0000 0.0000 0.0000 0.0000 -16.3988 0.0000
# 6 0.0000 0.0000 0.0000 0.0000 0.0000 27.3260
#
#
#
# Elastic Compliance Matrix: (Units=1/GPa)
#
#
# Indices 1 2 3 4 5 6 
#
# 1 0.005544 0.000716 -0.001175 0.000000 0.000000 0.000000
# 2 0.000716 0.030953 -0.006650 0.000000 0.000000 0.000000
# 3 -0.001175 -0.006650 0.010947 0.000000 0.000000 0.000000
# 4 0.000000 0.000000 0.000000 0.030692 0.000000 0.000000
# 5 0.000000 0.000000 0.000000 0.000000 -0.060980 0.000000
# 6 0.000000 0.000000 0.000000 0.000000 0.000000 0.036595
#
#
# Mechanical properties :
#
#
# Convention : Reuss Voigt Hill
#
# Bulk Modulus (GPa) = 30.09861 45.96135 38.02998
# Shear Modulus (GPa) = 63.25496 27.80485 45.52990
#
# Velocity S-wave (km/s) = 5.13993 3.40777 4.36072
# Velocity P-wave (km/s) = 6.91347 5.88896 6.42168
#
# Compressibility (1/GPa) = 0.03322413
#
# Stress axis : x y z
#
# Youngs Moduli (GPa) = 180.36979 32.30756 91.34959
#
# Poissons Ratio (x) = -0.02312 0.10736
# Poissons Ratio (y) = -0.12906 0.60748
# Poissons Ratio (z) = 0.21198 0.21485
#
# Static dielectric constant tensor:
#      x y z
#    x 2.021770 0.000000 0.000000 
#    y 0.000000 2.107240 0.000000 
#    z 0.000000 0.000000 1.927580 
# 
# From -- ./inp_files/37613.got.cif
#   From: 2010.05.17/outbox.cif.g08.bks.cpg/sg66_19_cif.got.tgz:37613.got - 2010.06.03 17:51:23.
