data_PCOD9498946
_publ_section_title
;
Structure prediction by ZEFSAII (Michael W. Deem and Ramdas Pophale) SiO2 
 PCOD9498946
Probable space group: C C C M
;
_chemical_formula_sum "Si O2"
_cell_formula_units_Z 40
_cell_length_a 10.414660
_cell_length_b 11.158301
_cell_length_c 14.507497
_cell_angle_alpha 90.000000
_cell_angle_beta 90.000000
_cell_angle_gamma 90.000000
_cell_volume 1685.914937
_symmetry_space_group_name_H-M "C C C M"
_symmetry_group_IT_number 66
_symmetry_cell_setting 'orthorhombic'
loop_
_space_group_symop_operation_xyz
x,y,z
-x,-y,z
x,-y,1/2-z
-x,y,1/2-z
-x,-y,-z
x,y,-z
-x,y,1/2+z
x,-y,1/2+z
1/2+x,1/2+y,z
1/2-x,1/2-y,z
1/2+x,1/2-y,1/2-z
1/2-x,1/2+y,1/2-z
1/2-x,1/2-y,-z
1/2+x,1/2+y,-z
1/2-x,1/2+y,1/2+z
1/2+x,1/2-y,1/2+z
loop_
_atom_site_type_symbol
_atom_site_label
_atom_site_fract_x
_atom_site_fract_y
_atom_site_fract_z
Si Si1 0.622127 0.936419 0.650624
Si Si2 0.868519 0.072178 0.598632
Si Si3 0.000000 0.222058 0.750000
O O1 0.578767 0.802499 0.675999
O O2 0.500000 0.000000 0.603797
O O3 0.632483 0.000000 0.750000
O O4 0.754096 0.975842 0.605280
O O5 0.853938 0.138350 0.500000
O O6 0.893031 0.151610 0.689908
O O7 0.000000 0.000000 0.595416
#
# Coordination Sequence:
#
# PCOD9498946 Si02
#       3
#    16  16   8
#     4   9  21  40  62  92 127 172 224 275 327 389
#     4  11  24  40  64 100 135 172 225 280 329 395
#     4  10  22  44  72  92 132 190 222 266 344 404
#
# _framework density 23.725989999999999
#
# number of rings (size 3 to 8) (size 9 to 14) (size 15 to 20)
#    0.000    2.400    0.000    3.000    0.000   16.800 
#    0.000   18.000    0.000    3.600    0.000    0.000 
#    0.000    0.000    0.000    0.000    0.000    0.000 
#
# Total GULP energy -111509.897988 kJ/mol
# GULP energy per Si atom -5575.494899 kJ/mol
# Density = 2.367199 g / cm^3
# Si number density = 23.725990 Si / 1000 Ang^3
#
#
#
# Elastic Constant Matrix: (Units=GPa)
#
#
# Indices 1 2 3 4 5 6 
#
# 1 223.9578 55.2077 39.0396 0.0000 0.0000 0.0000
# 2 55.2077 90.5433 37.2328 0.0000 0.0000 0.0000
# 3 39.0396 37.2328 125.3626 0.0000 0.0000 0.0000
# 4 0.0000 0.0000 0.0000 406.9142 0.0000 0.0000
# 5 0.0000 0.0000 0.0000 0.0000 159.7294 0.0000
# 6 0.0000 0.0000 0.0000 0.0000 0.0000 47.3235
#
#
#
# Elastic Compliance Matrix: (Units=1/GPa)
#
#
# Indices 1 2 3 4 5 6 
#
# 1 0.005323 -0.002921 -0.000790 0.000000 0.000000 0.000000
# 2 -0.002921 0.014183 -0.003303 0.000000 0.000000 0.000000
# 3 -0.000790 -0.003303 0.009204 0.000000 0.000000 0.000000
# 4 0.000000 0.000000 0.000000 0.002458 0.000000 0.000000
# 5 0.000000 0.000000 0.000000 0.000000 0.006261 0.000000
# 6 0.000000 0.000000 0.000000 0.000000 0.000000 0.021131
#
#
# Mechanical properties :
#
#
# Convention : Reuss Voigt Hill
#
# Bulk Modulus (GPa) = 68.10740 78.09156 73.09948
# Shear Modulus (GPa) = 64.53171 143.35231 103.94201
#
# Velocity S-wave (km/s) = 5.22090 7.78146 6.62604
# Velocity P-wave (km/s) = 8.06919 10.66397 9.45600
#
# Compressibility (1/GPa) = 0.01468269
#
# Stress axis : x y z
#
# Youngs Moduli (GPa) = 187.87022 70.50450 108.64930
#
# Poissons Ratio (x) = 0.20592 0.08585
# Poissons Ratio (y) = 0.54869 0.35887
# Poissons Ratio (z) = 0.14845 0.23288
#
# Static dielectric constant tensor:
#      x y z
#    x 1.938460 0.000000 0.000000 
#    y 0.000000 1.965040 0.000000 
#    z 0.000000 0.000000 2.798920 
# 
# From -- ./inp_files/25015.got.cif
#   From: 2010.05.17/outbox.cif.g08.bks.cpg/sg66_13_cif.got.tgz:25015.got - 2010.06.03 17:51:23.
