data_PCOD9498331
_publ_section_title
;
Structure prediction by ZEFSAII (Michael W. Deem and Ramdas Pophale) SiO2 
 PCOD9498331
Probable space group: C C C M
;
_chemical_formula_sum "Si O2"
_cell_formula_units_Z 64
_cell_length_a 8.639079
_cell_length_b 16.901777
_cell_length_c 20.896871
_cell_angle_alpha 90.000000
_cell_angle_beta 90.000000
_cell_angle_gamma 90.000000
_cell_volume 3051.273060
_symmetry_space_group_name_H-M "C C C M"
_symmetry_group_IT_number 66
_symmetry_cell_setting 'orthorhombic'
loop_
_space_group_symop_operation_xyz
x,y,z
-x,-y,z
x,-y,1/2-z
-x,y,1/2-z
-x,-y,-z
x,y,-z
-x,y,1/2+z
x,-y,1/2+z
1/2+x,1/2+y,z
1/2-x,1/2-y,z
1/2+x,1/2-y,1/2-z
1/2-x,1/2+y,1/2-z
1/2-x,1/2-y,-z
1/2+x,1/2+y,-z
1/2-x,1/2+y,1/2+z
1/2+x,1/2-y,1/2+z
loop_
_atom_site_type_symbol
_atom_site_label
_atom_site_fract_x
_atom_site_fract_y
_atom_site_fract_z
Si Si1 0.036479 0.630046 0.500000
Si Si2 0.258724 0.517435 0.000000
Si Si3 0.093481 0.697679 0.634757
Si Si4 0.000000 0.202607 0.750000
Si Si5 0.500000 0.500000 0.108830
Si Si6 0.274276 0.577030 0.292791
O O1 0.189180 0.572442 0.500000
O O2 0.034093 0.681820 0.564052
O O3 0.888146 0.573671 0.500000
O O4 0.367056 0.531793 0.061602
O O5 0.250000 0.750000 0.629056
O O6 0.994090 0.744588 0.686532
O O7 0.133609 0.613124 0.667307
O O8 0.848362 0.147362 0.748491
O O9 0.409843 0.441603 0.156067
O O10 0.243572 0.500000 0.250000
#
# Coordination Sequence:
#
# PCOD9498331 Si02
#       6
#     8   8  16   8   8  16
#     4  11  21  44  59  96 132 173 212 274 324 398
#     4  10  24  36  65  92 129 162 227 271 320 381
#     4  10  23  40  64  92 130 174 209 268 336 395
#     4  10  21  40  57  96 128 162 210 262 319 390
#     4  11  19  40  64  96 117 171 218 276 316 384
#     4  11  20  38  67  93 121 167 222 266 319 391
#
# _framework density 20.974851000000001
#
# number of rings (size 3 to 8) (size 9 to 14) (size 15 to 20)
#    0.000    1.500    5.000    0.375    0.000    2.000 
#    4.500    0.000    0.000    6.000    0.000    0.000 
#    0.000    0.000    0.000    0.000    0.000    0.000 
#
# Total GULP energy -178747.679689 kJ/mol
# GULP energy per Si atom -5585.864990 kJ/mol
# Density = 2.092711 g / cm^3
# Si number density = 20.974851 Si / 1000 Ang^3
#
#
#
# Elastic Constant Matrix: (Units=GPa)
#
#
# Indices 1 2 3 4 5 6 
#
# 1 43.0064 23.4347 40.5359 0.0000 0.0000 0.0000
# 2 23.4347 100.4831 83.2466 0.0000 0.0000 0.0000
# 3 40.5359 83.2466 188.1619 0.0000 0.0000 0.0000
# 4 0.0000 0.0000 0.0000 -1.5839 0.0000 0.0000
# 5 0.0000 0.0000 0.0000 0.0000 8.0614 0.0000
# 6 0.0000 0.0000 0.0000 0.0000 0.0000 23.8853
#
#
#
# Elastic Compliance Matrix: (Units=1/GPa)
#
#
# Indices 1 2 3 4 5 6 
#
# 1 0.029587 -0.002557 -0.005243 0.000000 0.000000 0.000000
# 2 -0.002557 0.015931 -0.006497 0.000000 0.000000 0.000000
# 3 -0.005243 -0.006497 0.009319 0.000000 0.000000 0.000000
# 4 0.000000 0.000000 0.000000 -0.631345 0.000000 0.000000
# 5 0.000000 0.000000 0.000000 0.000000 0.124048 0.000000
# 6 0.000000 0.000000 0.000000 0.000000 0.000000 0.041867
#
#
# Mechanical properties :
#
#
# Convention : Reuss Voigt Hill
#
# Bulk Modulus (GPa) = 38.10567 69.56511 53.83539
# Shear Modulus (GPa) = -13.39583 18.36815 2.48616
#
# Velocity S-wave (km/s) = -2.52992 2.96247 1.08990
# Velocity P-wave (km/s) = 3.11011 6.70370 5.22553
#
# Compressibility (1/GPa) = 0.02624281
#
# Stress axis : x y z
#
# Youngs Moduli (GPa) = 33.79828 62.77021 107.31198
#
# Poissons Ratio (x) = 0.16050 0.56262
# Poissons Ratio (y) = 0.08642 0.69725
# Poissons Ratio (z) = 0.17720 0.40784
#
# Static dielectric constant tensor:
#      x y z
#    x 1.757840 0.000000 0.000000 
#    y 0.000000 1.780200 0.000000 
#    z 0.000000 0.000000 1.755580 
# 
# From -- ./inp_files/55070.got.cif
#   From: 2010.05.17/outbox.cif.g08.bks.cpg/sg66_28_cif.got.tgz:55070.got - 2010.06.03 17:51:23.
