data_PCOD9498660
_publ_section_title
;
Structure prediction by ZEFSAII (Michael W. Deem and Ramdas Pophale) SiO2 
 PCOD9498660
Probable space group: C C C M
;
_chemical_formula_sum "Si O2"
_cell_formula_units_Z 84
_cell_length_a 15.763852
_cell_length_b 15.671916
_cell_length_c 16.499137
_cell_angle_alpha 90.000000
_cell_angle_beta 90.000000
_cell_angle_gamma 90.000000
_cell_volume 4076.107908
_symmetry_space_group_name_H-M "C C C M"
_symmetry_group_IT_number 66
_symmetry_cell_setting 'orthorhombic'
loop_
_space_group_symop_operation_xyz
x,y,z
-x,-y,z
x,-y,1/2-z
-x,y,1/2-z
-x,-y,-z
x,y,-z
-x,y,1/2+z
x,-y,1/2+z
1/2+x,1/2+y,z
1/2-x,1/2-y,z
1/2+x,1/2-y,1/2-z
1/2-x,1/2+y,1/2-z
1/2-x,1/2-y,-z
1/2+x,1/2+y,-z
1/2-x,1/2+y,1/2+z
1/2+x,1/2-y,1/2+z
loop_
_atom_site_type_symbol
_atom_site_label
_atom_site_fract_x
_atom_site_fract_y
_atom_site_fract_z
Si Si1 0.082260 0.441256 0.093019
Si Si2 0.756989 0.991405 0.652740
Si Si3 0.501687 0.232162 0.406562
Si Si4 0.500000 0.500000 0.750000
Si Si5 0.878731 0.128994 0.655643
Si Si6 0.169878 0.190808 0.669438
O O1 0.158974 0.494064 0.132238
O O2 0.048999 0.351431 0.129429
O O3 0.000000 0.500000 0.092987
O O4 0.108136 0.423634 0.000000
O O5 0.803964 0.902268 0.633444
O O6 0.764716 0.000000 0.750000
O O7 0.806365 0.071957 0.615546
O O8 0.479729 0.212628 0.500000
O O9 0.570119 0.307360 0.400225
O O10 0.416578 0.266675 0.363397
O O11 0.443769 0.560727 0.694270
O O12 0.842035 0.178571 0.733926
O O13 0.250000 0.250000 0.652764
#
# Coordination Sequence:
#
# PCOD9498660 Si02
#       6
#    16  16  16   4  16  16
#     4  10  23  43  61  85 130 171 200 249 314 372
#     4  10  22  39  61  91 120 157 210 259 308 364
#     4  11  24  40  62  93 126 163 204 253 313 376
#     4  12  16  44  66  84 128 164 190 264 316 356
#     4  11  21  39  64  88 123 158 205 254 313 363
#     4  11  22  38  63  90 118 161 209 258 303 361
#
# _framework density 20.607894000000002
#
# number of rings (size 3 to 8) (size 9 to 14) (size 15 to 20)
#    0.000    1.333    4.762    1.143    5.333    2.286 
#    3.429    5.238    0.000    0.000    0.000    0.000 
#    0.000    0.000    0.000    0.000    0.000    0.000 
#
# Total GULP energy -234375.050767 kJ/mol
# GULP energy per Si atom -5580.358352 kJ/mol
# Density = 2.056099 g / cm^3
# Si number density = 20.607894 Si / 1000 Ang^3
#
#
#
# Elastic Constant Matrix: (Units=GPa)
#
#
# Indices 1 2 3 4 5 6 
#
# 1 92.8473 16.2559 5.2879 0.0000 0.0000 0.0000
# 2 16.2559 79.9409 10.7851 0.0000 0.0000 0.0000
# 3 5.2879 10.7851 16.1476 0.0000 0.0000 0.0000
# 4 0.0000 0.0000 0.0000 16.6559 0.0000 0.0000
# 5 0.0000 0.0000 0.0000 0.0000 17.7147 0.0000
# 6 0.0000 0.0000 0.0000 0.0000 0.0000 45.2120
#
#
#
# Elastic Compliance Matrix: (Units=1/GPa)
#
#
# Indices 1 2 3 4 5 6 
#
# 1 0.011250 -0.001968 -0.002370 0.000000 0.000000 0.000000
# 2 -0.001968 0.014092 -0.008768 0.000000 0.000000 0.000000
# 3 -0.002370 -0.008768 0.068561 0.000000 0.000000 0.000000
# 4 0.000000 0.000000 0.000000 0.060039 0.000000 0.000000
# 5 0.000000 0.000000 0.000000 0.000000 0.056450 0.000000
# 6 0.000000 0.000000 0.000000 0.000000 0.000000 0.022118
#
#
# Mechanical properties :
#
#
# Convention : Reuss Voigt Hill
#
# Bulk Modulus (GPa) = 14.77275 28.17706 21.47491
# Shear Modulus (GPa) = 17.77551 26.35696 22.06624
#
# Velocity S-wave (km/s) = 2.94012 3.58015 3.27581
# Velocity P-wave (km/s) = 4.32548 5.54911 4.97506
#
# Compressibility (1/GPa) = 0.06769221
#
# Stress axis : x y z
#
# Youngs Moduli (GPa) = 88.88983 70.96047 14.58552
#
# Poissons Ratio (x) = 0.13965 0.03456
# Poissons Ratio (y) = 0.17493 0.12789
# Poissons Ratio (z) = 0.21064 0.62218
#
# Static dielectric constant tensor:
#      x y z
#    x 1.766370 0.000000 0.000000 
#    y 0.000000 1.779470 0.000000 
#    z 0.000000 0.000000 1.723110 
# 
# From -- ./inp_files/49839.got.cif
#   From: 2010.05.17/outbox.cif.g08.bks.cpg/sg66_25_cif.got.tgz:49839.got - 2010.06.03 17:51:23.
