data_PCOD9498106
_publ_section_title
;
Structure prediction by ZEFSAII (Michael W. Deem and Ramdas Pophale) SiO2 
 PCOD9498106
Probable space group: C C C M
;
_chemical_formula_sum "Si O2"
_cell_formula_units_Z 88
_cell_length_a 12.096035
_cell_length_b 14.062919
_cell_length_c 22.166635
_cell_angle_alpha 90.000000
_cell_angle_beta 90.000000
_cell_angle_gamma 90.000000
_cell_volume 3770.667869
_symmetry_space_group_name_H-M "C C C M"
_symmetry_group_IT_number 66
_symmetry_cell_setting 'orthorhombic'
loop_
_space_group_symop_operation_xyz
x,y,z
-x,-y,z
x,-y,1/2-z
-x,y,1/2-z
-x,-y,-z
x,y,-z
-x,y,1/2+z
x,-y,1/2+z
1/2+x,1/2+y,z
1/2-x,1/2-y,z
1/2+x,1/2-y,1/2-z
1/2-x,1/2+y,1/2-z
1/2-x,1/2-y,-z
1/2+x,1/2+y,-z
1/2-x,1/2+y,1/2+z
1/2+x,1/2-y,1/2+z
loop_
_atom_site_type_symbol
_atom_site_label
_atom_site_fract_x
_atom_site_fract_y
_atom_site_fract_z
Si Si1 0.826512 0.931482 0.000000
Si Si2 0.725625 0.859549 0.634722
Si Si3 0.478644 0.244964 0.000000
Si Si4 0.310091 0.365000 0.500000
Si Si5 0.174317 0.343456 0.094872
Si Si6 0.045202 0.097157 0.681249
Si Si7 0.996013 0.314203 0.678462
O O1 0.908029 0.842567 0.000000
O O2 0.746502 0.918374 0.058302
O O3 0.875690 0.035388 0.000000
O O4 0.750000 0.750000 0.650782
O O5 0.744684 0.866933 0.562891
O O6 0.823221 0.911180 0.671303
O O7 0.599931 0.873843 0.653939
O O8 0.604189 0.277912 0.000000
O O9 0.434197 0.183675 0.055775
O O10 0.250000 0.250000 0.097592
O O11 0.120247 0.360322 0.158930
O O12 0.006766 0.201580 0.657142
O O13 0.000000 0.096772 0.750000
O O14 0.000000 0.000000 0.651438
O O15 0.000000 0.310139 0.750000
#
# Coordination Sequence:
#
# PCOD9498106 Si02
#       7
#     8  16   8   8  16  16  16
#     4   9  21  37  58  88 118 150 199 252 299 350
#     4  10  22  38  57  90 126 158 198 244 303 363
#     4   9  17  34  58  88 120 150 188 237 298 362
#     4  12  22  35  60  88 117 154 194 253 308 356
#     4   9  19  37  59  84 118 158 196 240 293 358
#     4   9  19  36  60  92 125 154 194 253 304 348
#     4  10  21  38  61  85 116 163 207 241 289 362
#
# _framework density 23.338042000000002
#
# number of rings (size 3 to 8) (size 9 to 14) (size 15 to 20)
#    0.000    2.364    0.000    3.818    0.000    9.455 
#    0.000    3.636    0.000    1.091    0.000    0.000 
#    0.000    0.000    0.000    0.000    0.000    0.000 
#
# Total GULP energy -245547.249959 kJ/mol
# GULP energy per Si atom -5580.619317 kJ/mol
# Density = 2.328492 g / cm^3
# Si number density = 23.338042 Si / 1000 Ang^3
#
#
#
# Elastic Constant Matrix: (Units=GPa)
#
#
# Indices 1 2 3 4 5 6 
#
# 1 100.8130 28.2711 47.4433 0.0000 0.0000 0.0000
# 2 28.2711 57.1374 -1.8659 0.0000 0.0000 0.0000
# 3 47.4433 -1.8659 79.3697 0.0000 0.0000 0.0000
# 4 0.0000 0.0000 0.0000 -3.3731 0.0000 0.0000
# 5 0.0000 0.0000 0.0000 0.0000 -33.7894 0.0000
# 6 0.0000 0.0000 0.0000 0.0000 0.0000 28.2967
#
#
#
# Elastic Compliance Matrix: (Units=1/GPa)
#
#
# Indices 1 2 3 4 5 6 
#
# 1 0.017443 -0.008978 -0.010638 0.000000 0.000000 0.000000
# 2 -0.008978 0.022136 0.005887 0.000000 0.000000 0.000000
# 3 -0.010638 0.005887 0.019096 0.000000 0.000000 0.000000
# 4 0.000000 0.000000 0.000000 -0.296467 0.000000 0.000000
# 5 0.000000 0.000000 0.000000 0.000000 -0.029595 0.000000
# 6 0.000000 0.000000 0.000000 0.000000 0.000000 0.035340
#
#
# Mechanical properties :
#
#
# Convention : Reuss Voigt Hill
#
# Bulk Modulus (GPa) = 32.03257 42.77966 37.40612
# Shear Modulus (GPa) = -25.74903 9.12496 -8.31203
#
# Velocity S-wave (km/s) = -3.32521 1.97949 -1.88926
# Velocity P-wave (km/s) = 0.99369 4.85744 3.36209
#
# Compressibility (1/GPa) = 0.03121823
#
# Stress axis : x y z
#
# Youngs Moduli (GPa) = 57.32828 45.17474 52.36568
#
# Poissons Ratio (x) = 0.40559 0.55706
# Poissons Ratio (y) = 0.51471 -0.30829
# Poissons Ratio (z) = 0.60985 -0.26595
#
# Static dielectric constant tensor:
#      x y z
#    x 1.908030 0.000000 0.000000 
#    y 0.000000 1.926550 0.000000 
#    z 0.000000 0.000000 1.961230 
# 
# From -- ./inp_files/56779.got.cif
#   From: 2010.05.17/outbox.cif.g08.bks.cpg/sg66_29_cif.got.tgz:56779.got - 2010.06.03 17:51:23.
