data_PCOD9498923
_publ_section_title
;
Structure prediction by ZEFSAII (Michael W. Deem and Ramdas Pophale) SiO2 
 PCOD9498923
Probable space group: C C C M
;
_chemical_formula_sum "Si O2"
_cell_formula_units_Z 116
_cell_length_a 9.055379
_cell_length_b 18.843898
_cell_length_c 29.716211
_cell_angle_alpha 90.000000
_cell_angle_beta 90.000000
_cell_angle_gamma 90.000000
_cell_volume 5070.733778
_symmetry_space_group_name_H-M "C C C M"
_symmetry_group_IT_number 66
_symmetry_cell_setting 'orthorhombic'
loop_
_space_group_symop_operation_xyz
x,y,z
-x,-y,z
x,-y,1/2-z
-x,y,1/2-z
-x,-y,-z
x,y,-z
-x,y,1/2+z
x,-y,1/2+z
1/2+x,1/2+y,z
1/2-x,1/2-y,z
1/2+x,1/2-y,1/2-z
1/2-x,1/2+y,1/2-z
1/2-x,1/2-y,-z
1/2+x,1/2+y,-z
1/2-x,1/2+y,1/2+z
1/2+x,1/2-y,1/2+z
loop_
_atom_site_type_symbol
_atom_site_label
_atom_site_fract_x
_atom_site_fract_y
_atom_site_fract_z
Si Si1 0.587359 0.397842 0.670943
Si Si2 0.613249 0.795599 0.377267
Si Si3 0.830249 0.513164 0.803961
Si Si4 0.348034 0.544332 0.450436
Si Si5 0.093910 0.787172 0.552707
Si Si6 0.073525 0.741392 0.701922
Si Si7 0.300055 0.569065 0.879350
Si Si8 0.000000 0.000000 0.250000
O O1 0.762656 0.416507 0.670574
O O2 0.729670 0.502299 0.588090
O O3 0.538176 0.319757 0.683243
O O4 0.567114 0.445840 0.714687
O O5 0.528346 0.749380 0.415416
O O6 0.498419 0.807475 0.336650
O O7 0.523792 0.580100 0.369265
O O8 0.699016 0.865460 0.394910
O O9 0.818758 0.500000 0.750000
O O10 0.747830 0.449113 0.828810
O O11 0.000000 0.500000 0.814841
O O12 0.500000 0.500000 0.454710
O O13 0.274183 0.540432 0.500000
O O14 0.378011 0.628132 0.442507
O O15 0.057818 0.774963 0.500000
O O16 0.250000 0.750000 0.563390
O O17 0.250000 0.750000 0.706510
O O18 0.000000 0.726134 0.750000
O O19 0.250000 0.750000 0.858285
#
# Coordination Sequence:
#
# PCOD9498923 Si02
#       8
#    16  16  16  16  16  16  16   4
#     4  12  22  43  67  96 132 186 246 300 377 447
#     4  12  26  45  68 105 148 197 253 313 383 459
#     4  11  25  40  62  99 136 181 238 313 372 439
#     4  10  22  43  74 111 144 189 250 311 374 450
#     4  10  24  48  78 110 152 202 251 309 390 470
#     4  12  29  46  70  98 146 200 253 316 382 461
#     4  12  25  41  70 105 144 188 250 314 371 453
#     4  12  20  36  70  96 118 180 242 306 360 440
#
# _framework density 22.876373999999998
#
# number of rings (size 3 to 8) (size 9 to 14) (size 15 to 20)
#    0.000    0.690    4.138    2.483    3.862    1.931 
#    0.000    0.000    0.000    2.897    0.000    0.000 
#    0.000    0.000    0.000    0.000    0.000    0.000 
#
# Total GULP energy -323073.145793 kJ/mol
# GULP energy per Si atom -5570.226652 kJ/mol
# Density = 2.282431 g / cm^3
# Si number density = 22.876374 Si / 1000 Ang^3
#
#
#
# Elastic Constant Matrix: (Units=GPa)
#
#
# Indices 1 2 3 4 5 6 
#
# 1 135.5725 45.7789 71.5073 0.0000 0.0000 0.0000
# 2 45.7789 125.8366 35.2055 0.0000 0.0000 0.0000
# 3 71.5073 35.2055 124.7694 0.0000 0.0000 0.0000
# 4 0.0000 0.0000 0.0000 213.0456 0.0000 0.0000
# 5 0.0000 0.0000 0.0000 0.0000 33.5474 0.0000
# 6 0.0000 0.0000 0.0000 0.0000 0.0000 38.8415
#
#
#
# Elastic Compliance Matrix: (Units=1/GPa)
#
#
# Indices 1 2 3 4 5 6 
#
# 1 0.011244 -0.002484 -0.005743 0.000000 0.000000 0.000000
# 2 -0.002484 0.009177 -0.001166 0.000000 0.000000 0.000000
# 3 -0.005743 -0.001166 0.011635 0.000000 0.000000 0.000000
# 4 0.000000 0.000000 0.000000 0.004694 0.000000 0.000000
# 5 0.000000 0.000000 0.000000 0.000000 0.029809 0.000000
# 6 0.000000 0.000000 0.000000 0.000000 0.000000 0.025746
#
#
# Mechanical properties :
#
#
# Convention : Reuss Voigt Hill
#
# Bulk Modulus (GPa) = 75.35696 76.79576 76.07636
# Shear Modulus (GPa) = 43.28505 72.66604 57.97555
#
# Velocity S-wave (km/s) = 4.35458 5.64213 5.03964
# Velocity P-wave (km/s) = 7.63516 8.72282 8.19705
#
# Compressibility (1/GPa) = 0.01327017
#
# Stress axis : x y z
#
# Youngs Moduli (GPa) = 88.93528 108.97334 85.94499
#
# Poissons Ratio (x) = 0.27066 0.49361
# Poissons Ratio (y) = 0.22089 0.10020
# Poissons Ratio (z) = 0.51079 0.12704
#
# Static dielectric constant tensor:
#      x y z
#    x 1.312850 0.000000 0.000000 
#    y 0.000000 1.937700 0.000000 
#    z 0.000000 0.000000 1.860670 
# 
# From -- ./inp_files/63870.got.cif
#   From: 2010.05.17/outbox.cif.g08.bks.cpg/sg66_32_cif.got.tgz:63870.got - 2010.06.03 17:51:23.
