data_PCOD9498700
_publ_section_title
;
Structure prediction by ZEFSAII (Michael W. Deem and Ramdas Pophale) SiO2 
 PCOD9498700
Probable space group: C C C M
;
_chemical_formula_sum "Si O2"
_cell_formula_units_Z 68
_cell_length_a 5.130038
_cell_length_b 21.397971
_cell_length_c 27.347049
_cell_angle_alpha 90.000000
_cell_angle_beta 90.000000
_cell_angle_gamma 90.000000
_cell_volume 3001.951321
_symmetry_space_group_name_H-M "C C C M"
_symmetry_group_IT_number 66
_symmetry_cell_setting 'orthorhombic'
loop_
_space_group_symop_operation_xyz
x,y,z
-x,-y,z
x,-y,1/2-z
-x,y,1/2-z
-x,-y,-z
x,y,-z
-x,y,1/2+z
x,-y,1/2+z
1/2+x,1/2+y,z
1/2-x,1/2-y,z
1/2+x,1/2-y,1/2-z
1/2-x,1/2+y,1/2-z
1/2-x,1/2-y,-z
1/2+x,1/2+y,-z
1/2-x,1/2+y,1/2+z
1/2+x,1/2-y,1/2+z
loop_
_atom_site_type_symbol
_atom_site_label
_atom_site_fract_x
_atom_site_fract_y
_atom_site_fract_z
Si Si1 0.750000 0.750000 0.366950
Si Si2 0.282715 0.577106 0.665480
Si Si3 0.348888 0.191400 0.790665
Si Si4 0.500000 0.000000 0.250000
Si Si5 0.254324 0.109189 0.603976
Si Si6 0.751947 0.455371 0.000000
O O1 0.513695 0.775735 0.333272
O O2 0.806920 0.815614 0.395043
O O3 0.359762 0.644125 0.689273
O O4 0.194249 0.533495 0.710221
O O5 0.530393 0.568328 0.630967
O O6 0.023903 0.592287 0.632786
O O7 0.500000 0.152044 0.750000
O O8 0.250000 0.250000 0.760598
O O9 0.263689 0.086391 0.548576
O O10 0.500000 0.500000 0.000000
O O11 0.000000 0.500000 0.000000
#
# Coordination Sequence:
#
# PCOD9498700 Si02
#       6
#     8  16  16   4  16   8
#     4  10  22  39  68  98 138 172 224 297 356 410
#     4  11  26  43  68 105 145 190 233 290 343 418
#     4  11  19  35  60  94 139 184 231 274 341 415
#     4  12  28  46  68 104 156 202 240 284 344 424
#     4  11  26  47  74 104 138 181 238 299 358 417
#     4  12  28  51  78 103 136 188 240 293 357 426
#
# _framework density 22.651931000000001
#
# number of rings (size 3 to 8) (size 9 to 14) (size 15 to 20)
#    0.000    0.941    4.706    1.412    4.941    2.353 
#    0.000    0.000    0.000    5.647    0.000    0.000 
#    0.000    0.000    0.000    0.000    0.000    0.000 
#
# Total GULP energy -189435.819574 kJ/mol
# GULP energy per Si atom -5571.641752 kJ/mol
# Density = 2.260037 g / cm^3
# Si number density = 22.651931 Si / 1000 Ang^3
#
#
#
# Elastic Constant Matrix: (Units=GPa)
#
#
# Indices 1 2 3 4 5 6 
#
# 1 115.1745 26.8929 36.5133 0.0000 0.0000 0.0000
# 2 26.8929 112.3258 75.7413 0.0000 0.0000 0.0000
# 3 36.5133 75.7413 166.5014 0.0000 0.0000 0.0000
# 4 0.0000 0.0000 0.0000 13.4235 0.0000 0.0000
# 5 0.0000 0.0000 0.0000 0.0000 23.8837 0.0000
# 6 0.0000 0.0000 0.0000 0.0000 0.0000 16.2835
#
#
#
# Elastic Compliance Matrix: (Units=1/GPa)
#
#
# Indices 1 2 3 4 5 6 
#
# 1 0.009451 -0.001248 -0.001505 0.000000 0.000000 0.000000
# 2 -0.001248 0.013007 -0.005643 0.000000 0.000000 0.000000
# 3 -0.001505 -0.005643 0.008903 0.000000 0.000000 0.000000
# 4 0.000000 0.000000 0.000000 0.074496 0.000000 0.000000
# 5 0.000000 0.000000 0.000000 0.000000 0.041869 0.000000
# 6 0.000000 0.000000 0.000000 0.000000 0.000000 0.061412
#
#
# Mechanical properties :
#
#
# Convention : Reuss Voigt Hill
#
# Bulk Modulus (GPa) = 68.64000 74.69965 71.66982
# Shear Modulus (GPa) = 21.66509 27.70842 24.68675
#
# Velocity S-wave (km/s) = 3.09598 3.50126 3.30484
# Velocity P-wave (km/s) = 6.56871 7.02807 6.80227
#
# Compressibility (1/GPa) = 0.01456876
#
# Stress axis : x y z
#
# Youngs Moduli (GPa) = 105.80932 76.88448 112.32232
#
# Poissons Ratio (x) = 0.09595 0.16903
# Poissons Ratio (y) = 0.13205 0.63383
# Poissons Ratio (z) = 0.15923 0.43386
#
# Static dielectric constant tensor:
#      x y z
#    x 2.127500 0.000000 0.000000 
#    y 0.000000 1.979620 0.000000 
#    z 0.000000 0.000000 1.814360 
# 
# From -- ./inp_files/61375.got.cif
#   From: 2010.05.17/outbox.cif.g08.bks.cpg/sg66_31_cif.got.tgz:61375.got - 2010.06.03 17:51:23.
