data_PCOD9498568
_publ_section_title
;
Structure prediction by ZEFSAII (Michael W. Deem and Ramdas Pophale) SiO2 
 PCOD9498568
Probable space group: C C C M
;
_chemical_formula_sum "Si O2"
_cell_formula_units_Z 116
_cell_length_a 11.113994
_cell_length_b 28.993434
_cell_length_c 14.639554
_cell_angle_alpha 90.000000
_cell_angle_beta 90.000000
_cell_angle_gamma 90.000000
_cell_volume 4717.345230
_symmetry_space_group_name_H-M "C C C M"
_symmetry_group_IT_number 66
_symmetry_cell_setting 'orthorhombic'
loop_
_space_group_symop_operation_xyz
x,y,z
-x,-y,z
x,-y,1/2-z
-x,y,1/2-z
-x,-y,-z
x,y,-z
-x,y,1/2+z
x,-y,1/2+z
1/2+x,1/2+y,z
1/2-x,1/2-y,z
1/2+x,1/2-y,1/2-z
1/2-x,1/2+y,1/2-z
1/2-x,1/2-y,-z
1/2+x,1/2+y,-z
1/2-x,1/2+y,1/2+z
1/2+x,1/2-y,1/2+z
loop_
_atom_site_type_symbol
_atom_site_label
_atom_site_fract_x
_atom_site_fract_y
_atom_site_fract_z
Si Si1 0.009642 0.356202 0.858204
Si Si2 0.880480 0.554429 0.390434
Si Si3 0.146755 0.107922 0.394558
Si Si4 0.223624 0.698727 0.868692
Si Si5 0.780436 0.024820 0.611364
Si Si6 0.000000 0.000000 0.750000
Si Si7 0.739152 0.801479 0.848310
Si Si8 0.888343 0.116788 0.609370
O O1 0.989759 0.410900 0.870737
O O2 0.898111 0.327082 0.899313
O O3 0.000000 0.349758 0.750000
O O4 0.132091 0.332244 0.889906
O O5 0.881605 0.553127 0.500000
O O6 0.763024 0.582865 0.354429
O O7 0.843115 0.502328 0.364128
O O8 0.143436 0.092866 0.500000
O O9 0.171855 0.162382 0.391042
O O10 0.016518 0.099105 0.353342
O O11 0.250000 0.750000 0.902504
O O12 0.214970 0.702701 0.759345
O O13 0.798850 0.019948 0.500000
O O14 0.786865 0.079295 0.631637
O O15 0.892670 0.005600 0.669774
O O16 0.750000 0.750000 0.886195
O O17 0.857064 0.832627 0.857092
O O18 0.898626 0.119283 0.500000
#
# Coordination Sequence:
#
# PCOD9498568 Si02
#       8
#    16  16  16  16  16   4  16  16
#     4   9  19  36  57  83 117 151 198 255 307 369
#     4   9  18  37  62  85 115 160 201 245 308 368
#     4   9  18  32  53  83 115 148 189 235 290 356
#     4   9  19  34  56  81 110 151 196 243 297 363
#     4  10  22  39  59  90 131 166 211 263 304 378
#     4  12  22  32  64 102 134 172 206 236 336 392
#     4  10  22  37  56  82 114 153 198 253 314 370
#     4  10  22  39  57  83 121 158 193 249 313 362
#
# _framework density 24.590101000000001
#
# number of rings (size 3 to 8) (size 9 to 14) (size 15 to 20)
#    0.000    2.483    0.000    1.034    1.931    8.276 
#    0.000    0.690    0.000    4.966    0.000    0.000 
#    0.000    0.000    0.000    0.000    0.000    0.000 
#
# Total GULP energy -323277.633996 kJ/mol
# GULP energy per Si atom -5573.752310 kJ/mol
# Density = 2.453413 g / cm^3
# Si number density = 24.590101 Si / 1000 Ang^3
#
#
#
# Elastic Constant Matrix: (Units=GPa)
#
#
# Indices 1 2 3 4 5 6 
#
# 1 85.3443 38.3839 -4.5999 0.0000 0.0000 0.0000
# 2 38.3839 126.6967 -6.3382 0.0000 0.0000 0.0000
# 3 -4.5999 -6.3382 101.4984 0.0000 0.0000 0.0000
# 4 0.0000 0.0000 0.0000 0.2816 0.0000 0.0000
# 5 0.0000 0.0000 0.0000 0.0000 39.7364 0.0000
# 6 0.0000 0.0000 0.0000 0.0000 0.0000 32.2933
#
#
#
# Elastic Compliance Matrix: (Units=1/GPa)
#
#
# Indices 1 2 3 4 5 6 
#
# 1 0.013579 -0.004096 0.000360 0.000000 0.000000 0.000000
# 2 -0.004096 0.009153 0.000386 0.000000 0.000000 0.000000
# 3 0.000360 0.000386 0.009893 0.000000 0.000000 0.000000
# 4 0.000000 0.000000 0.000000 3.550738 0.000000 0.000000
# 5 0.000000 0.000000 0.000000 0.000000 0.025166 0.000000
# 6 0.000000 0.000000 0.000000 0.000000 0.000000 0.030966
#
#
# Mechanical properties :
#
#
# Convention : Reuss Voigt Hill
#
# Bulk Modulus (GPa) = 38.57420 40.93678 39.75549
# Shear Modulus (GPa) = 1.36805 33.53516 17.45161
#
# Velocity S-wave (km/s) = 0.74669 3.69693 2.66691
# Velocity P-wave (km/s) = 4.05763 5.90820 5.06809
#
# Compressibility (1/GPa) = 0.02592406
#
# Stress axis : x y z
#
# Youngs Moduli (GPa) = 73.64460 109.25337 101.08395
#
# Poissons Ratio (x) = 0.44748 -0.03635
# Poissons Ratio (y) = 0.30163 -0.03901
# Poissons Ratio (z) = -0.02648 -0.04217
#
# Static dielectric constant tensor:
#      x y z
#    x 1.993200 0.000000 0.000000 
#    y 0.000000 1.974740 0.000000 
#    z 0.000000 0.000000 1.960180 
# 
# From -- ./inp_files/39159.got.cif
#   From: 2010.05.17/outbox.cif.g08.bks.cpg/sg66_20_cif.got.tgz:39159.got - 2010.06.03 17:51:23.
