data_PCOD9498702
_publ_section_title
;
Structure prediction by ZEFSAII (Michael W. Deem and Ramdas Pophale) SiO2 
 PCOD9498702
Probable space group: C C C M
;
_chemical_formula_sum "Si O2"
_cell_formula_units_Z 104
_cell_length_a 9.087976
_cell_length_b 20.938366
_cell_length_c 24.214534
_cell_angle_alpha 90.000000
_cell_angle_beta 90.000000
_cell_angle_gamma 90.000000
_cell_volume 4607.719935
_symmetry_space_group_name_H-M "C C C M"
_symmetry_group_IT_number 66
_symmetry_cell_setting 'orthorhombic'
loop_
_space_group_symop_operation_xyz
x,y,z
-x,-y,z
x,-y,1/2-z
-x,y,1/2-z
-x,-y,-z
x,y,-z
-x,y,1/2+z
x,-y,1/2+z
1/2+x,1/2+y,z
1/2-x,1/2-y,z
1/2+x,1/2-y,1/2-z
1/2-x,1/2+y,1/2-z
1/2-x,1/2-y,-z
1/2+x,1/2+y,-z
1/2-x,1/2+y,1/2+z
1/2+x,1/2-y,1/2+z
loop_
_atom_site_type_symbol
_atom_site_label
_atom_site_fract_x
_atom_site_fract_y
_atom_site_fract_z
Si Si1 0.507074 0.331256 0.630301
Si Si2 0.000000 0.132692 0.250000
Si Si3 0.775445 0.449411 0.795113
Si Si4 0.439319 0.930494 0.438019
Si Si5 0.997782 0.343597 0.164832
Si Si6 0.250000 0.250000 0.631867
Si Si7 0.637023 0.466618 0.397272
Si Si8 0.250000 0.750000 0.349510
O O1 0.516798 0.323444 0.696690
O O2 0.352387 0.306580 0.606239
O O3 0.557106 0.403702 0.625794
O O4 0.634814 0.285280 0.610726
O O5 0.860014 0.089396 0.233043
O O6 0.821926 0.500000 0.750000
O O7 0.912817 0.402477 0.806163
O O8 0.709254 0.488224 0.848768
O O9 0.492499 0.918011 0.500000
O O10 0.475690 0.874318 0.395679
O O11 0.265861 0.942383 0.435613
O O12 0.500000 0.000000 0.419762
O O13 0.871690 0.290213 0.163865
O O14 0.150900 0.306610 0.180130
O O15 0.500000 0.500000 0.426218
#
# Coordination Sequence:
#
# PCOD9498702 Si02
#       8
#    16   8  16  16  16   8  16   8
#     4  11  22  38  60  92 130 179 221 275 325 390
#     4  12  21  36  58  96 136 172 219 270 326 388
#     4  12  22  38  67 104 140 178 227 275 340 402
#     4  11  25  45  70 100 136 171 221 292 360 416
#     4  11  22  45  70 100 134 183 223 281 339 410
#     4  10  22  39  69  92 132 190 226 268 334 408
#     4  12  21  39  70  98 132 175 219 286 346 407
#     4  10  24  43  63  88 136 178 232 272 330 390
#
# _framework density 22.570816000000001
#
# number of rings (size 3 to 8) (size 9 to 14) (size 15 to 20)
#    0.000    0.769    7.692    0.231    0.000    0.923 
#    0.000    5.385    0.000    0.000    0.000    0.000 
#    0.000    0.000    0.000    0.000    0.000    0.000 
#
# Total GULP energy -289612.564536 kJ/mol
# GULP energy per Si atom -5569.472395 kJ/mol
# Density = 2.251944 g / cm^3
# Si number density = 22.570816 Si / 1000 Ang^3
#
#
#
# Elastic Constant Matrix: (Units=GPa)
#
#
# Indices 1 2 3 4 5 6 
#
# 1 163.6386 60.4395 20.9866 0.0000 0.0000 0.0000
# 2 60.4395 133.3930 40.3827 0.0000 0.0000 0.0000
# 3 20.9866 40.3827 49.1509 0.0000 0.0000 0.0000
# 4 0.0000 0.0000 0.0000 11.9665 0.0000 0.0000
# 5 0.0000 0.0000 0.0000 0.0000 28.0101 0.0000
# 6 0.0000 0.0000 0.0000 0.0000 0.0000 51.3633
#
#
#
# Elastic Compliance Matrix: (Units=1/GPa)
#
#
# Indices 1 2 3 4 5 6 
#
# 1 0.007350 -0.003168 -0.000535 0.000000 0.000000 0.000000
# 2 -0.003168 0.011344 -0.007968 0.000000 0.000000 0.000000
# 3 -0.000535 -0.007968 0.027120 0.000000 0.000000 0.000000
# 4 0.000000 0.000000 0.000000 0.083567 0.000000 0.000000
# 5 0.000000 0.000000 0.000000 0.000000 0.035701 0.000000
# 6 0.000000 0.000000 0.000000 0.000000 0.000000 0.019469
#
#
# Mechanical properties :
#
#
# Convention : Reuss Voigt Hill
#
# Bulk Modulus (GPa) = 44.49960 65.53334 55.01647
# Shear Modulus (GPa) = 23.21428 33.22622 28.22025
#
# Velocity S-wave (km/s) = 3.21052 3.84094 3.53979
# Velocity P-wave (km/s) = 5.78805 6.98341 6.41364
#
# Compressibility (1/GPa) = 0.02247211
#
# Stress axis : x y z
#
# Youngs Moduli (GPa) = 136.05800 88.15070 36.87257
#
# Poissons Ratio (x) = 0.27927 0.01974
# Poissons Ratio (y) = 0.43104 0.29379
# Poissons Ratio (z) = 0.07283 0.70236
#
# Static dielectric constant tensor:
#      x y z
#    x 3.747760 0.000000 0.000000 
#    y 0.000000 2.063860 0.000000 
#    z 0.000000 0.000000 1.861900 
# 
# From -- ./inp_files/62714.got.cif
#   From: 2010.05.17/outbox.cif.g08.bks.cpg/sg66_32_cif.got.tgz:62714.got - 2010.06.03 17:51:23.
