data_PCOD9498116
_publ_section_title
;
Structure prediction by ZEFSAII (Michael W. Deem and Ramdas Pophale) SiO2 
 PCOD9498116
Probable space group: C C C M
;
_chemical_formula_sum "Si O2"
_cell_formula_units_Z 84
_cell_length_a 15.979664
_cell_length_b 14.819095
_cell_length_c 16.641919
_cell_angle_alpha 90.000000
_cell_angle_beta 90.000000
_cell_angle_gamma 90.000000
_cell_volume 3940.875631
_symmetry_space_group_name_H-M "C C C M"
_symmetry_group_IT_number 66
_symmetry_cell_setting 'orthorhombic'
loop_
_space_group_symop_operation_xyz
x,y,z
-x,-y,z
x,-y,1/2-z
-x,y,1/2-z
-x,-y,-z
x,y,-z
-x,y,1/2+z
x,-y,1/2+z
1/2+x,1/2+y,z
1/2-x,1/2-y,z
1/2+x,1/2-y,1/2-z
1/2-x,1/2+y,1/2-z
1/2-x,1/2-y,-z
1/2+x,1/2+y,-z
1/2-x,1/2+y,1/2+z
1/2+x,1/2-y,1/2+z
loop_
_atom_site_type_symbol
_atom_site_label
_atom_site_fract_x
_atom_site_fract_y
_atom_site_fract_z
Si Si1 0.085901 0.552518 0.090760
Si Si2 0.751744 0.013839 0.654400
Si Si3 0.486969 0.235400 0.407824
Si Si4 0.500000 0.500000 0.750000
Si Si5 0.877966 0.151114 0.682706
Si Si6 0.177420 0.177555 0.635435
O O1 0.154780 0.492197 0.133506
O O2 0.000000 0.500000 0.086298
O O3 0.059843 0.647893 0.129150
O O4 0.116833 0.571257 0.000000
O O5 0.790980 0.923071 0.617463
O O6 0.760565 0.000000 0.750000
O O7 0.801121 0.105370 0.634718
O O8 0.510777 0.214222 0.500000
O O9 0.566361 0.273310 0.360282
O O10 0.411115 0.306403 0.406643
O O11 0.440694 0.566785 0.699775
O O12 0.843266 0.183812 0.768891
O O13 0.250000 0.250000 0.615107
#
# Coordination Sequence:
#
# PCOD9498116 Si02
#       6
#    16  16  16   4  16  16
#     4  10  23  43  61  83 124 165 203 258 316 366
#     4  10  21  38  61  90 119 157 207 257 306 368
#     4  11  23  38  61  92 125 163 204 250 311 382
#     4  12  16  36  62  80 120 164 186 252 312 364
#     4  11  21  38  62  88 125 162 203 255 317 373
#     4  11  20  36  61  89 120 155 203 259 308 358
#
# _framework density 21.315059999999999
#
# number of rings (size 3 to 8) (size 9 to 14) (size 15 to 20)
#    0.000    1.333    6.667    0.000    0.000    5.333 
#    3.429    3.333    0.000    4.000    0.000    0.000 
#    0.000    0.000    0.000    0.000    0.000    0.000 
#
# Total GULP energy -234437.943597 kJ/mol
# GULP energy per Si atom -5581.855800 kJ/mol
# Density = 2.126655 g / cm^3
# Si number density = 21.315060 Si / 1000 Ang^3
#
#
#
# Elastic Constant Matrix: (Units=GPa)
#
#
# Indices 1 2 3 4 5 6 
#
# 1 123.6730 27.0578 19.2194 0.0000 0.0000 0.0000
# 2 27.0578 42.3314 9.2578 0.0000 0.0000 0.0000
# 3 19.2194 9.2578 22.4249 0.0000 0.0000 0.0000
# 4 0.0000 0.0000 0.0000 14.6228 0.0000 0.0000
# 5 0.0000 0.0000 0.0000 0.0000 17.6313 0.0000
# 6 0.0000 0.0000 0.0000 0.0000 0.0000 45.0499
#
#
#
# Elastic Compliance Matrix: (Units=1/GPa)
#
#
# Indices 1 2 3 4 5 6 
#
# 1 0.010235 -0.005083 -0.006674 0.000000 0.000000 0.000000
# 2 -0.005083 0.028492 -0.007406 0.000000 0.000000 0.000000
# 3 -0.006674 -0.007406 0.053371 0.000000 0.000000 0.000000
# 4 0.000000 0.000000 0.000000 0.068386 0.000000 0.000000
# 5 0.000000 0.000000 0.000000 0.000000 0.056717 0.000000
# 6 0.000000 0.000000 0.000000 0.000000 0.000000 0.022198
#
#
# Mechanical properties :
#
#
# Convention : Reuss Voigt Hill
#
# Bulk Modulus (GPa) = 18.59698 33.27769 25.93734
# Shear Modulus (GPa) = 16.91202 24.32041 20.61622
#
# Velocity S-wave (km/s) = 2.81985 3.38153 3.11338
# Velocity P-wave (km/s) = 4.39839 5.55810 5.01190
#
# Compressibility (1/GPa) = 0.05377216
#
# Stress axis : x y z
#
# Youngs Moduli (GPa) = 97.70445 35.09813 18.73688
#
# Poissons Ratio (x) = 0.17839 0.12504
# Poissons Ratio (y) = 0.49659 0.13877
# Poissons Ratio (z) = 0.65205 0.25995
#
# Static dielectric constant tensor:
#      x y z
#    x 1.785610 0.000000 0.000000 
#    y 0.000000 1.847550 0.000000 
#    z 0.000000 0.000000 1.795420 
# 
# From -- ./inp_files/49838.got.cif
#   From: 2010.05.17/outbox.cif.g08.bks.cpg/sg66_25_cif.got.tgz:49838.got - 2010.06.03 17:51:23.
