data_PCOD9498903
_publ_section_title
;
Structure prediction by ZEFSAII (Michael W. Deem and Ramdas Pophale) SiO2 
 PCOD9498903
Probable space group: C C C M
;
_chemical_formula_sum "Si O2"
_cell_formula_units_Z 56
_cell_length_a 6.256829
_cell_length_b 19.190846
_cell_length_c 23.172811
_cell_angle_alpha 90.000000
_cell_angle_beta 90.000000
_cell_angle_gamma 90.000000
_cell_volume 2782.448442
_symmetry_space_group_name_H-M "C C C M"
_symmetry_group_IT_number 66
_symmetry_cell_setting 'orthorhombic'
loop_
_space_group_symop_operation_xyz
x,y,z
-x,-y,z
x,-y,1/2-z
-x,y,1/2-z
-x,-y,-z
x,y,-z
-x,y,1/2+z
x,-y,1/2+z
1/2+x,1/2+y,z
1/2-x,1/2-y,z
1/2+x,1/2-y,1/2-z
1/2-x,1/2+y,1/2-z
1/2-x,1/2-y,-z
1/2+x,1/2+y,-z
1/2-x,1/2+y,1/2+z
1/2+x,1/2-y,1/2+z
loop_
_atom_site_type_symbol
_atom_site_label
_atom_site_fract_x
_atom_site_fract_y
_atom_site_fract_z
Si Si1 0.756330 0.670687 0.643862
Si Si2 0.372448 0.573160 0.330405
Si Si3 0.500000 0.119381 0.750000
Si Si4 0.552809 0.081368 0.564704
O O1 0.750000 0.750000 0.624088
O O2 0.540080 0.636525 0.668470
O O3 0.915059 0.665767 0.698012
O O4 0.855865 0.622144 0.593958
O O5 0.500000 0.500000 0.328716
O O6 0.246606 0.583357 0.390356
O O7 0.195686 0.576715 0.279312
O O8 0.599243 0.107134 0.500000
O O9 0.500000 0.000000 0.561227
#
# Coordination Sequence:
#
# PCOD9498903 Si02
#       4
#    16  16   8  16
#     4  11  25  42  65  96 133 171 219 268 332 389
#     4  11  23  43  66  98 130 175 221 270 328 387
#     4  10  26  39  64  92 135 172 220 268 325 394
#     4  10  22  43  68  97 130 167 223 276 323 388
#
# _framework density 20.126161
#
# number of rings (size 3 to 8) (size 9 to 14) (size 15 to 20)
#    0.000    1.429    2.857    0.857    4.000    9.143 
#    0.000    1.429    0.000    0.000    0.000    0.000 
#    0.000    0.000    0.000    0.000    0.000    0.000 
#
# Total GULP energy -156348.252637 kJ/mol
# GULP energy per Si atom -5583.866166 kJ/mol
# Density = 2.008035 g / cm^3
# Si number density = 20.126161 Si / 1000 Ang^3
#
#
#
# Elastic Constant Matrix: (Units=GPa)
#
#
# Indices 1 2 3 4 5 6 
#
# 1 97.9280 54.7558 27.6525 0.0000 0.0000 0.0000
# 2 54.7558 126.9028 31.4912 0.0000 0.0000 0.0000
# 3 27.6525 31.4912 128.3511 0.0000 0.0000 0.0000
# 4 0.0000 0.0000 0.0000 -136.7091 0.0000 0.0000
# 5 0.0000 0.0000 0.0000 0.0000 13.3219 0.0000
# 6 0.0000 0.0000 0.0000 0.0000 0.0000 20.4742
#
#
#
# Elastic Compliance Matrix: (Units=1/GPa)
#
#
# Indices 1 2 3 4 5 6 
#
# 1 0.013763 -0.005540 -0.001606 0.000000 0.000000 0.000000
# 2 -0.005540 0.010621 -0.001412 0.000000 0.000000 0.000000
# 3 -0.001606 -0.001412 0.008484 0.000000 0.000000 0.000000
# 4 0.000000 0.000000 0.000000 -0.007315 0.000000 0.000000
# 5 0.000000 0.000000 0.000000 0.000000 0.075064 0.000000
# 6 0.000000 0.000000 0.000000 0.000000 0.000000 0.048842
#
#
# Mechanical properties :
#
#
# Convention : Reuss Voigt Hill
#
# Bulk Modulus (GPa) = 63.48768 64.55342 64.02055
# Shear Modulus (GPa) = 29.09945 -4.63043 12.23451
#
# Velocity S-wave (km/s) = 3.80656 -1.51845 2.46822
# Velocity P-wave (km/s) = 7.13675 5.39164 6.32467
#
# Compressibility (1/GPa) = 0.01575109
#
# Stress axis : x y z
#
# Youngs Moduli (GPa) = 72.66096 94.15495 117.87420
#
# Poissons Ratio (x) = 0.52159 0.18929
# Poissons Ratio (y) = 0.40252 0.16648
# Poissons Ratio (z) = 0.11668 0.13298
#
# Static dielectric constant tensor:
#      x y z
#    x 1.762840 0.000000 0.000000 
#    y 0.000000 1.694780 0.000000 
#    z 0.000000 0.000000 1.720690 
# 
# From -- ./inp_files/53894.got.cif
#   From: 2010.05.17/outbox.cif.g08.bks.cpg/sg66_27_cif.got.tgz:53894.got - 2010.06.03 17:51:23.
