data_PCOD9498377
_publ_section_title
;
Structure prediction by ZEFSAII (Michael W. Deem and Ramdas Pophale) SiO2 
 PCOD9498377
Probable space group: C C C M
;
_chemical_formula_sum "Si O2"
_cell_formula_units_Z 112
_cell_length_a 15.323190
_cell_length_b 11.323630
_cell_length_c 28.974172
_cell_angle_alpha 90.000000
_cell_angle_beta 90.000000
_cell_angle_gamma 90.000000
_cell_volume 5027.428362
_symmetry_space_group_name_H-M "C C C M"
_symmetry_group_IT_number 66
_symmetry_cell_setting 'orthorhombic'
loop_
_space_group_symop_operation_xyz
x,y,z
-x,-y,z
x,-y,1/2-z
-x,y,1/2-z
-x,-y,-z
x,y,-z
-x,y,1/2+z
x,-y,1/2+z
1/2+x,1/2+y,z
1/2-x,1/2-y,z
1/2+x,1/2-y,1/2-z
1/2-x,1/2+y,1/2-z
1/2-x,1/2-y,-z
1/2+x,1/2+y,-z
1/2-x,1/2+y,1/2+z
1/2+x,1/2-y,1/2+z
loop_
_atom_site_type_symbol
_atom_site_label
_atom_site_fract_x
_atom_site_fract_y
_atom_site_fract_z
Si Si1 0.581414 0.562182 0.448421
Si Si2 0.849036 0.005022 0.196242
Si Si3 0.297717 0.002593 0.374175
Si Si4 0.318399 0.334089 0.070986
Si Si5 0.624086 0.175656 0.944599
Si Si6 0.541758 0.154465 0.387957
Si Si7 0.005590 0.189269 0.804264
O O1 0.500000 0.500000 0.422553
O O2 0.549968 0.596176 0.500000
O O3 0.647559 0.454006 0.451683
O O4 0.619813 0.685092 0.431052
O O5 0.761694 0.040014 0.168692
O O6 0.924261 0.101808 0.188210
O O7 0.826955 0.000000 0.250000
O O8 0.903472 0.882865 0.187314
O O9 0.308000 0.100993 0.414110
O O10 0.241167 0.888897 0.389104
O O11 0.394864 0.949499 0.370244
O O12 0.250000 0.250000 0.045735
O O13 0.398121 0.255313 0.088225
O O14 0.529468 0.129747 0.927606
O O15 0.638882 0.163770 0.000000
O O16 0.499273 0.209203 0.342160
O O17 0.000000 0.224013 0.750000
#
# Coordination Sequence:
#
# PCOD9498377 Si02
#       7
#    16  16  16  16  16  16  16
#     4  10  21  40  66  91 119 165 227 285 332 396
#     4   9  19  39  69 102 136 177 225 283 346 416
#     4  11  24  41  65  98 140 180 221 285 352 404
#     4  10  22  38  64  97 127 171 218 275 345 407
#     4  11  26  46  69  97 135 187 242 291 346 410
#     4  11  22  41  69  95 134 185 229 284 340 406
#     4   9  19  38  69 103 131 173 233 282 337 419
#
# _framework density 22.277792000000002
#
# number of rings (size 3 to 8) (size 9 to 14) (size 15 to 20)
#    0.000    1.857    2.857    1.286    2.000    2.571 
#    2.571    4.286    0.000    0.000    0.000    0.000 
#    0.000    0.000    0.000    0.000    0.000    0.000 
#
# Total GULP energy -312067.916462 kJ/mol
# GULP energy per Si atom -5572.641365 kJ/mol
# Density = 2.222709 g / cm^3
# Si number density = 22.277792 Si / 1000 Ang^3
#
#
#
# Elastic Constant Matrix: (Units=GPa)
#
#
# Indices 1 2 3 4 5 6 
#
# 1 116.8670 44.2778 55.7295 0.0000 0.0000 0.0000
# 2 44.2778 115.2277 46.9613 0.0000 0.0000 0.0000
# 3 55.7295 46.9613 119.4599 0.0000 0.0000 0.0000
# 4 0.0000 0.0000 0.0000 280.0363 0.0000 0.0000
# 5 0.0000 0.0000 0.0000 0.0000 55.4725 0.0000
# 6 0.0000 0.0000 0.0000 0.0000 0.0000 37.1136
#
#
#
# Elastic Compliance Matrix: (Units=1/GPa)
#
#
# Indices 1 2 3 4 5 6 
#
# 1 0.011669 -0.002698 -0.004383 0.000000 0.000000 0.000000
# 2 -0.002698 0.010958 -0.003049 0.000000 0.000000 0.000000
# 3 -0.004383 -0.003049 0.011615 0.000000 0.000000 0.000000
# 4 0.000000 0.000000 0.000000 0.003571 0.000000 0.000000
# 5 0.000000 0.000000 0.000000 0.000000 0.018027 0.000000
# 6 0.000000 0.000000 0.000000 0.000000 0.000000 0.026944
#
#
# Mechanical properties :
#
#
# Convention : Reuss Voigt Hill
#
# Bulk Modulus (GPa) = 71.52454 71.72134 71.62294
# Shear Modulus (GPa) = 46.42354 88.16355 67.29355
#
# Velocity S-wave (km/s) = 4.56987 6.29766 5.50201
# Velocity P-wave (km/s) = 7.74728 9.22739 8.51954
#
# Compressibility (1/GPa) = 0.01398121
#
# Stress axis : x y z
#
# Youngs Moduli (GPa) = 85.69723 91.25960 86.09894
#
# Poissons Ratio (x) = 0.24618 0.37740
# Poissons Ratio (y) = 0.23117 0.26253
# Poissons Ratio (z) = 0.37563 0.27827
#
# Static dielectric constant tensor:
#      x y z
#    x 1.890040 0.000000 0.000000 
#    y 0.000000 1.903270 0.000000 
#    z 0.000000 0.000000 1.844060 
# 
# From -- ./inp_files/69567.got.cif
#   From: 2010.05.17/outbox.cif.g08.bks.cpg/sg66_35_cif.got.tgz:69567.got - 2010.06.03 17:51:23.
