data_PCOD9498621
_publ_section_title
;
Structure prediction by ZEFSAII (Michael W. Deem and Ramdas Pophale) SiO2 
 PCOD9498621
Probable space group: C C C M
;
_chemical_formula_sum "Si O2"
_cell_formula_units_Z 104
_cell_length_a 9.327209
_cell_length_b 19.409139
_cell_length_c 27.851678
_cell_angle_alpha 90.000000
_cell_angle_beta 90.000000
_cell_angle_gamma 90.000000
_cell_volume 5042.075496
_symmetry_space_group_name_H-M "C C C M"
_symmetry_group_IT_number 66
_symmetry_cell_setting 'orthorhombic'
loop_
_space_group_symop_operation_xyz
x,y,z
-x,-y,z
x,-y,1/2-z
-x,y,1/2-z
-x,-y,-z
x,y,-z
-x,y,1/2+z
x,-y,1/2+z
1/2+x,1/2+y,z
1/2-x,1/2-y,z
1/2+x,1/2-y,1/2-z
1/2-x,1/2+y,1/2-z
1/2-x,1/2-y,-z
1/2+x,1/2+y,-z
1/2-x,1/2+y,1/2+z
1/2+x,1/2-y,1/2+z
loop_
_atom_site_type_symbol
_atom_site_label
_atom_site_fract_x
_atom_site_fract_y
_atom_site_fract_z
Si Si1 0.466738 0.130132 0.906761
Si Si2 0.738522 0.544115 0.860242
Si Si3 0.735706 0.119207 0.156873
Si Si4 0.250000 0.750000 0.391546
Si Si5 0.046593 0.814865 0.000000
Si Si6 0.832223 0.417471 0.257450
Si Si7 0.022813 0.851500 0.607524
Si Si8 0.628743 0.152673 0.000000
O O1 0.367916 0.065699 0.894713
O O2 0.581049 0.142092 0.863693
O O3 0.354200 0.192723 0.915762
O O4 0.563236 0.119947 0.952885
O O5 0.745784 0.462815 0.852752
O O6 0.773581 0.586665 0.811205
O O7 0.590977 0.574236 0.880991
O O8 0.745744 0.123314 0.214640
O O9 0.863616 0.155374 0.128082
O O10 0.130312 0.797475 0.367151
O O11 0.201044 0.851285 0.000000
O O12 0.081505 0.733358 0.000000
O O13 0.972940 0.835275 0.050402
O O14 0.819523 0.500000 0.250000
O O15 0.000000 0.401343 0.250000
#
# Coordination Sequence:
#
# PCOD9498621 Si02
#       8
#    16  16  16   8   8  16  16   8
#     4  11  21  38  63  89 126 156 211 253 302 363
#     4  10  22  38  61  98 129 160 204 251 302 370
#     4  11  21  38  65  94 125 169 197 247 317 364
#     4  10  24  39  58  92 116 156 208 268 298 341
#     4  11  22  40  63  91 114 160 221 261 293 357
#     4   9  17  34  62  92 124 162 208 243 285 360
#     4  11  23  40  62  89 129 157 209 259 305 360
#     4  11  22  38  63  93 112 158 227 257 285 371
#
# _framework density 20.626425000000001
#
# number of rings (size 3 to 8) (size 9 to 14) (size 15 to 20)
#    0.000    1.538    4.615    0.923    0.000    4.308 
#    0.000    6.923    0.000   14.769    0.000    0.000 
#    0.000    0.000    0.000    0.000    0.000    0.000 
#
# Total GULP energy -289798.829891 kJ/mol
# GULP energy per Si atom -5573.054421 kJ/mol
# Density = 2.057948 g / cm^3
# Si number density = 20.626425 Si / 1000 Ang^3
#
#
#
# Elastic Constant Matrix: (Units=GPa)
#
#
# Indices 1 2 3 4 5 6 
#
# 1 101.4876 14.6064 14.7272 0.0000 0.0000 0.0000
# 2 14.6064 37.3337 13.5190 0.0000 0.0000 0.0000
# 3 14.7272 13.5190 98.2296 0.0000 0.0000 0.0000
# 4 0.0000 0.0000 0.0000 11.4344 0.0000 0.0000
# 5 0.0000 0.0000 0.0000 0.0000 24.1883 0.0000
# 6 0.0000 0.0000 0.0000 0.0000 0.0000 34.5685
#
#
#
# Elastic Compliance Matrix: (Units=1/GPa)
#
#
# Indices 1 2 3 4 5 6 
#
# 1 0.010546 -0.003740 -0.001066 0.000000 0.000000 0.000000
# 2 -0.003740 0.029517 -0.003502 0.000000 0.000000 0.000000
# 3 -0.001066 -0.003502 0.010822 0.000000 0.000000 0.000000
# 4 0.000000 0.000000 0.000000 0.087456 0.000000 0.000000
# 5 0.000000 0.000000 0.000000 0.000000 0.041342 0.000000
# 6 0.000000 0.000000 0.000000 0.000000 0.000000 0.028928
#
#
# Mechanical properties :
#
#
# Convention : Reuss Voigt Hill
#
# Bulk Modulus (GPa) = 29.18081 35.86178 32.52129
# Shear Modulus (GPa) = 21.12822 26.98478 24.05650
#
# Velocity S-wave (km/s) = 3.20398 3.62092 3.41881
# Velocity P-wave (km/s) = 5.27876 5.90808 5.60227
#
# Compressibility (1/GPa) = 0.03426910
#
# Stress axis : x y z
#
# Youngs Moduli (GPa) = 94.81861 33.87917 92.40416
#
# Poissons Ratio (x) = 0.12671 0.09855
# Poissons Ratio (y) = 0.35462 0.32356
# Poissons Ratio (z) = 0.10112 0.11863
#
# Static dielectric constant tensor:
#      x y z
#    x 1.744450 0.000000 0.000000 
#    y 0.000000 1.752340 0.000000 
#    z 0.000000 0.000000 1.762230 
# 
# From -- ./inp_files/62725.got.cif
#   From: 2010.05.17/outbox.cif.g08.bks.cpg/sg66_32_cif.got.tgz:62725.got - 2010.06.03 17:51:23.
