data_PCOD9498374
_publ_section_title
;
Structure prediction by ZEFSAII (Michael W. Deem and Ramdas Pophale) SiO2 
 PCOD9498374
Probable space group: C C C M
;
_chemical_formula_sum "Si O2"
_cell_formula_units_Z 64
_cell_length_a 4.860032
_cell_length_b 21.583161
_cell_length_c 26.892015
_cell_angle_alpha 90.000000
_cell_angle_beta 90.000000
_cell_angle_gamma 90.000000
_cell_volume 2820.833964
_symmetry_space_group_name_H-M "C C C M"
_symmetry_group_IT_number 66
_symmetry_cell_setting 'orthorhombic'
loop_
_space_group_symop_operation_xyz
x,y,z
-x,-y,z
x,-y,1/2-z
-x,y,1/2-z
-x,-y,-z
x,y,-z
-x,y,1/2+z
x,-y,1/2+z
1/2+x,1/2+y,z
1/2-x,1/2-y,z
1/2+x,1/2-y,1/2-z
1/2-x,1/2+y,1/2-z
1/2-x,1/2-y,-z
1/2+x,1/2+y,-z
1/2-x,1/2+y,1/2+z
1/2+x,1/2-y,1/2+z
loop_
_atom_site_type_symbol
_atom_site_label
_atom_site_fract_x
_atom_site_fract_y
_atom_site_fract_z
Si Si1 0.085903 0.353091 0.851921
Si Si2 0.892754 0.070406 0.888735
Si Si3 0.500000 0.792663 0.250000
Si Si4 0.750000 0.250000 0.910956
Si Si5 0.055030 0.807938 0.500000
Si Si6 0.597145 0.430954 0.000000
O O1 0.853362 0.406044 0.854445
O O2 0.123372 0.332181 0.795209
O O3 0.964310 0.291741 0.879891
O O4 0.355299 0.382633 0.876960
O O5 0.000000 0.000000 0.881564
O O6 0.773618 0.075163 0.945360
O O7 0.250000 0.750000 0.230691
O O8 0.614533 0.297313 0.949915
O O9 0.250000 0.750000 0.500000
O O10 0.145116 0.878906 0.500000
O O11 0.500000 0.500000 0.000000
#
# Coordination Sequence:
#
# PCOD9498374 Si02
#       6
#    16  16   8   8   8   8
#     4  12  25  45  69 101 136 178 232 292 350 417
#     4  11  25  45  70  99 140 186 231 280 344 414
#     4  12  26  46  73 104 135 176 230 286 358 418
#     4  11  24  36  66  98 140 174 222 287 354 408
#     4  11  21  38  62  99 137 180 227 278 350 422
#     4  10  21  40  65  96 137 186 234 276 332 422
#
# _framework density 22.688323
#
# number of rings (size 3 to 8) (size 9 to 14) (size 15 to 20)
#    0.000    0.750    3.750    3.750    0.000    2.000 
#    0.000    7.500    0.000    0.000    0.000    0.000 
#    0.000    0.000    0.000    0.000    0.000    0.000 
#
# Total GULP energy -178658.615625 kJ/mol
# GULP energy per Si atom -5583.081738 kJ/mol
# Density = 2.263668 g / cm^3
# Si number density = 22.688323 Si / 1000 Ang^3
#
#
#
# Elastic Constant Matrix: (Units=GPa)
#
#
# Indices 1 2 3 4 5 6 
#
# 1 77.0987 9.9095 15.3286 0.0000 0.0000 0.0000
# 2 9.9095 138.1760 34.8612 0.0000 0.0000 0.0000
# 3 15.3286 34.8612 128.2204 0.0000 0.0000 0.0000
# 4 0.0000 0.0000 0.0000 24.6342 0.0000 0.0000
# 5 0.0000 0.0000 0.0000 0.0000 28.1595 0.0000
# 6 0.0000 0.0000 0.0000 0.0000 0.0000 32.4349
#
#
#
# Elastic Compliance Matrix: (Units=1/GPa)
#
#
# Indices 1 2 3 4 5 6 
#
# 1 0.013332 -0.000595 -0.001432 0.000000 0.000000 0.000000
# 2 -0.000595 0.007797 -0.002049 0.000000 0.000000 0.000000
# 3 -0.001432 -0.002049 0.008527 0.000000 0.000000 0.000000
# 4 0.000000 0.000000 0.000000 0.040594 0.000000 0.000000
# 5 0.000000 0.000000 0.000000 0.000000 0.035512 0.000000
# 6 0.000000 0.000000 0.000000 0.000000 0.000000 0.030831
#
#
# Mechanical properties :
#
#
# Convention : Reuss Voigt Hill
#
# Bulk Modulus (GPa) = 46.50205 51.52153 49.01179
# Shear Modulus (GPa) = 32.91386 35.93877 34.42631
#
# Velocity S-wave (km/s) = 3.81293 3.98429 3.89955
# Velocity P-wave (km/s) = 6.31863 6.62750 6.47491
#
# Compressibility (1/GPa) = 0.02150443
#
# Stress axis : x y z
#
# Youngs Moduli (GPa) = 75.00998 128.25972 117.27061
#
# Poissons Ratio (x) = 0.07629 0.16794
# Poissons Ratio (y) = 0.04462 0.24025
# Poissons Ratio (z) = 0.10742 0.26277
#
# Static dielectric constant tensor:
#      x y z
#    x 1.887290 0.000000 0.000000 
#    y 0.000000 1.830980 0.000000 
#    z 0.000000 0.000000 1.823190 
# 
# From -- ./inp_files/61296.got.cif
#   From: 2010.05.17/outbox.cif.g08.bks.cpg/sg66_31_cif.got.tgz:61296.got - 2010.06.03 17:51:23.
