data_PCOD9498901
_publ_section_title
;
Structure prediction by ZEFSAII (Michael W. Deem and Ramdas Pophale) SiO2 
 PCOD9498901
Probable space group: C C C M
;
_chemical_formula_sum "Si O2"
_cell_formula_units_Z 48
_cell_length_a 14.211153
_cell_length_b 10.740092
_cell_length_c 13.929300
_cell_angle_alpha 90.000000
_cell_angle_beta 90.000000
_cell_angle_gamma 90.000000
_cell_volume 2126.016392
_symmetry_space_group_name_H-M "C C C M"
_symmetry_group_IT_number 66
_symmetry_cell_setting 'orthorhombic'
loop_
_space_group_symop_operation_xyz
x,y,z
-x,-y,z
x,-y,1/2-z
-x,y,1/2-z
-x,-y,-z
x,y,-z
-x,y,1/2+z
x,-y,1/2+z
1/2+x,1/2+y,z
1/2-x,1/2-y,z
1/2+x,1/2-y,1/2-z
1/2-x,1/2+y,1/2-z
1/2-x,1/2-y,-z
1/2+x,1/2+y,-z
1/2-x,1/2+y,1/2+z
1/2+x,1/2-y,1/2+z
loop_
_atom_site_type_symbol
_atom_site_label
_atom_site_fract_x
_atom_site_fract_y
_atom_site_fract_z
Si Si1 0.107580 0.675577 0.779230
Si Si2 0.202737 0.447265 0.111685
Si Si3 0.401955 0.565850 0.113136
O O1 0.147274 0.428637 0.647510
O O2 0.333797 0.841018 0.681898
O O3 0.113973 0.810112 0.826442
O O4 0.000000 0.651208 0.750000
O O5 0.312734 0.476245 0.125779
O O6 0.184774 0.422407 0.000000
O O7 0.500000 0.500000 0.137913
O O8 0.405911 0.599136 0.000000
#
# Coordination Sequence:
#
# PCOD9498901 Si02
#       3
#    16  16  16
#     4  11  24  39  65  99 132 172 218 271 327 389
#     4  10  22  43  68  95 130 173 220 270 328 391
#     4  10  23  44  69  96 129 172 221 272 326 387
#
# _framework density 22.577435000000001
#
# number of rings (size 3 to 8) (size 9 to 14) (size 15 to 20)
#    0.000    1.667    0.000    4.000    0.000   15.333 
#    0.000    0.000    0.000   25.000    0.000    0.000 
#    0.000    0.000    0.000    0.000    0.000    0.000 
#
# Total GULP energy -134554.865828 kJ/mol
# GULP energy per Si atom -5606.452743 kJ/mol
# Density = 2.252605 g / cm^3
# Si number density = 22.577435 Si / 1000 Ang^3
#
#
#
# Elastic Constant Matrix: (Units=GPa)
#
#
# Indices 1 2 3 4 5 6 
#
# 1 174.1351 68.8302 94.9674 0.0000 0.0000 0.0000
# 2 68.8302 135.4669 98.9386 0.0000 0.0000 0.0000
# 3 94.9674 98.9386 207.2331 0.0000 0.0000 0.0000
# 4 0.0000 0.0000 0.0000 34.2059 0.0000 0.0000
# 5 0.0000 0.0000 0.0000 0.0000 48.4367 0.0000
# 6 0.0000 0.0000 0.0000 0.0000 0.0000 26.9017
#
#
#
# Elastic Compliance Matrix: (Units=1/GPa)
#
#
# Indices 1 2 3 4 5 6 
#
# 1 0.008041 -0.002141 -0.002663 0.000000 0.000000 0.000000
# 2 -0.002141 0.011904 -0.004702 0.000000 0.000000 0.000000
# 3 -0.002663 -0.004702 0.008291 0.000000 0.000000 0.000000
# 4 0.000000 0.000000 0.000000 0.029235 0.000000 0.000000
# 5 0.000000 0.000000 0.000000 0.000000 0.020645 0.000000
# 6 0.000000 0.000000 0.000000 0.000000 0.000000 0.037172
#
#
# Mechanical properties :
#
#
# Convention : Reuss Voigt Hill
#
# Bulk Modulus (GPa) = 108.41298 115.81193 112.11245
# Shear Modulus (GPa) = 36.39684 38.84880 37.62282
#
# Velocity S-wave (km/s) = 4.01944 4.15262 4.08657
# Velocity P-wave (km/s) = 8.34648 8.62549 8.48713
#
# Compressibility (1/GPa) = 0.00922399
#
# Stress axis : x y z
#
# Youngs Moduli (GPa) = 124.36108 84.00648 120.61704
#
# Poissons Ratio (x) = 0.17984 0.32119
# Poissons Ratio (y) = 0.26624 0.56716
# Poissons Ratio (z) = 0.33116 0.39501
#
# Static dielectric constant tensor:
#      x y z
#    x 1.821980 0.000000 0.000000 
#    y 0.000000 1.822610 0.000000 
#    z 0.000000 0.000000 1.821300 
# 
# From -- ./inp_files/25167.got.cif
#   From: 2010.05.17/outbox.cif.g08.bks.cpg/sg66_13_cif.got.tgz:25167.got - 2010.06.03 17:51:23.
