data_PCOD9498256
_publ_section_title
;
Structure prediction by ZEFSAII (Michael W. Deem and Ramdas Pophale) SiO2 
 PCOD9498256
Probable space group: C C C M
;
_chemical_formula_sum "Si O2"
_cell_formula_units_Z 104
_cell_length_a 18.336740
_cell_length_b 18.631254
_cell_length_c 13.849764
_cell_angle_alpha 90.000000
_cell_angle_beta 90.000000
_cell_angle_gamma 90.000000
_cell_volume 4731.584351
_symmetry_space_group_name_H-M "C C C M"
_symmetry_group_IT_number 66
_symmetry_cell_setting 'orthorhombic'
loop_
_space_group_symop_operation_xyz
x,y,z
-x,-y,z
x,-y,1/2-z
-x,y,1/2-z
-x,-y,-z
x,y,-z
-x,y,1/2+z
x,-y,1/2+z
1/2+x,1/2+y,z
1/2-x,1/2-y,z
1/2+x,1/2-y,1/2-z
1/2-x,1/2+y,1/2-z
1/2-x,1/2-y,-z
1/2+x,1/2+y,-z
1/2-x,1/2+y,1/2+z
1/2+x,1/2-y,1/2+z
loop_
_atom_site_type_symbol
_atom_site_label
_atom_site_fract_x
_atom_site_fract_y
_atom_site_fract_z
Si Si1 0.787525 0.451005 0.889044
Si Si2 0.179578 0.293885 0.690333
Si Si3 0.972327 0.778000 0.358675
Si Si4 0.173939 0.000000 0.750000
Si Si5 0.116016 0.305757 0.108739
Si Si6 0.932605 0.542615 0.888680
Si Si7 0.563301 0.440331 0.892010
O O1 0.799240 0.376429 0.832299
O O2 0.730582 0.505761 0.838745
O O3 0.864131 0.491020 0.887758
O O4 0.767583 0.435575 0.000000
O O5 0.250000 0.250000 0.655934
O O6 0.103900 0.266687 0.640035
O O7 0.166875 0.277809 0.804872
O O8 0.962986 0.858690 0.395363
O O9 0.000000 0.785116 0.250000
O O10 0.041618 0.738169 0.402743
O O11 0.118924 0.944341 0.801516
O O12 0.089824 0.381785 0.153532
O O13 0.148634 0.313761 0.000000
O O14 0.000000 0.500000 0.848138
O O15 0.951889 0.560829 0.000000
O O16 0.500000 0.500000 0.876422
O O17 0.593832 0.457023 0.000000
#
# Coordination Sequence:
#
# PCOD9498256 Si02
#       7
#    16  16  16   8  16  16  16
#     4  11  24  41  63  93 129 171 216 263 320 383
#     4  11  24  40  61  91 127 169 218 267 317 381
#     4  10  21  39  63  93 129 168 213 266 322 385
#     4  12  23  40  61  86 126 164 206 262 317 376
#     4  10  21  39  64  94 128 167 210 261 324 388
#     4   9  18  35  61  91 122 158 202 251 303 366
#     4  11  24  42  67  95 122 162 214 268 329 390
#
# _framework density 21.979952000000001
#
# number of rings (size 3 to 8) (size 9 to 14) (size 15 to 20)
#    0.000    1.538    0.000    4.846    0.000    4.308 
#    0.000    3.462    0.000    2.769    0.000    0.000 
#    0.000    0.000    0.000    0.000    0.000    0.000 
#
# Total GULP energy -289790.108868 kJ/mol
# GULP energy per Si atom -5572.886709 kJ/mol
# Density = 2.192992 g / cm^3
# Si number density = 21.979952 Si / 1000 Ang^3
#
#
#
# Elastic Constant Matrix: (Units=GPa)
#
#
# Indices 1 2 3 4 5 6 
#
# 1 93.7239 24.1623 26.9419 0.0000 0.0000 0.0000
# 2 24.1623 84.6369 15.3749 0.0000 0.0000 0.0000
# 3 26.9419 15.3749 123.9202 0.0000 0.0000 0.0000
# 4 0.0000 0.0000 0.0000 -68.4220 0.0000 0.0000
# 5 0.0000 0.0000 0.0000 0.0000 5.9722 0.0000
# 6 0.0000 0.0000 0.0000 0.0000 0.0000 21.5975
#
#
#
# Elastic Compliance Matrix: (Units=1/GPa)
#
#
# Indices 1 2 3 4 5 6 
#
# 1 0.012103 -0.003046 -0.002253 0.000000 0.000000 0.000000
# 2 -0.003046 0.012854 -0.000933 0.000000 0.000000 0.000000
# 3 -0.002253 -0.000933 0.008675 0.000000 0.000000 0.000000
# 4 0.000000 0.000000 0.000000 -0.014615 0.000000 0.000000
# 5 0.000000 0.000000 0.000000 0.000000 0.167443 0.000000
# 6 0.000000 0.000000 0.000000 0.000000 0.000000 0.046302
#
#
# Mechanical properties :
#
#
# Convention : Reuss Voigt Hill
#
# Bulk Modulus (GPa) = 47.23991 48.35990 47.79991
# Shear Modulus (GPa) = 19.81916 7.54965 13.68440
#
# Velocity S-wave (km/s) = 3.00608 1.85533 2.49787
# Velocity P-wave (km/s) = 5.79548 5.16132 5.48757
#
# Compressibility (1/GPa) = 0.02116854
#
# Stress axis : x y z
#
# Youngs Moduli (GPa) = 82.62689 77.79614 115.26929
#
# Poissons Ratio (x) = 0.23695 0.25975
# Poissons Ratio (y) = 0.25166 0.10751
# Poissons Ratio (z) = 0.18619 0.07256
#
# Static dielectric constant tensor:
#      x y z
#    x 1.825970 0.000000 0.000000 
#    y 0.000000 1.799740 0.000000 
#    z 0.000000 0.000000 1.866010 
# 
# From -- ./inp_files/31389.got.cif
#   From: 2010.05.17/outbox.cif.g08.bks.cpg/sg66_16_cif.got.tgz:31389.got - 2010.06.03 17:51:23.
