data_PCOD9498764
_publ_section_title
;
Structure prediction by ZEFSAII (Michael W. Deem and Ramdas Pophale) SiO2 
 PCOD9498764
Probable space group: C C C M
;
_chemical_formula_sum "Si O2"
_cell_formula_units_Z 64
_cell_length_a 8.981244
_cell_length_b 10.995800
_cell_length_c 30.830819
_cell_angle_alpha 90.000000
_cell_angle_beta 90.000000
_cell_angle_gamma 90.000000
_cell_volume 3044.727213
_symmetry_space_group_name_H-M "C C C M"
_symmetry_group_IT_number 66
_symmetry_cell_setting 'orthorhombic'
loop_
_space_group_symop_operation_xyz
x,y,z
-x,-y,z
x,-y,1/2-z
-x,y,1/2-z
-x,-y,-z
x,y,-z
-x,y,1/2+z
x,-y,1/2+z
1/2+x,1/2+y,z
1/2-x,1/2-y,z
1/2+x,1/2-y,1/2-z
1/2-x,1/2+y,1/2-z
1/2-x,1/2-y,-z
1/2+x,1/2+y,-z
1/2-x,1/2+y,1/2+z
1/2+x,1/2-y,1/2+z
loop_
_atom_site_type_symbol
_atom_site_label
_atom_site_fract_x
_atom_site_fract_y
_atom_site_fract_z
Si Si1 0.641970 0.091177 0.927763
Si Si2 0.996406 0.264379 0.500000
Si Si3 0.390184 0.114892 0.328807
Si Si4 0.288713 0.551233 0.500000
Si Si5 0.567233 0.623985 0.701927
O O1 0.587740 0.203786 0.956869
O O2 0.673636 0.115305 0.877873
O O3 0.500000 0.000000 0.926953
O O4 0.766461 0.026193 0.956576
O O5 0.854158 0.356156 0.500000
O O6 0.934377 0.130665 0.500000
O O7 0.464965 0.246663 0.320970
O O8 0.246010 0.108149 0.298016
O O9 0.500000 0.000000 0.323129
O O10 0.500000 0.500000 0.681794
O O11 0.500000 0.632756 0.750000
#
# Coordination Sequence:
#
# PCOD9498764 Si02
#       5
#    16   8  16   8  16
#     4   8  15  28  47  81 117 148 195 243 284 340
#     4   8  13  23  44  75 117 159 192 233 283 338
#     4  10  22  40  66  92 119 158 201 250 305 362
#     4   8  13  23  44  75 117 157 190 235 285 336
#     4  10  24  43  61  88 120 151 195 251 307 369
#
# _framework density 21.019946000000001
#
# number of rings (size 3 to 8) (size 9 to 14) (size 15 to 20)
#    0.000    3.000    0.000    1.500    0.000   11.500 
#    0.000    5.000    0.000   12.000    0.000   14.000 
#    0.000    0.000    0.000    0.000    0.000    2.000 
#
# Total GULP energy -178600.144238 kJ/mol
# GULP energy per Si atom -5581.254507 kJ/mol
# Density = 2.097210 g / cm^3
# Si number density = 21.019946 Si / 1000 Ang^3
#
#
#
# Elastic Constant Matrix: (Units=GPa)
#
#
# Indices 1 2 3 4 5 6 
#
# 1 81.9215 55.5248 42.6838 0.0000 0.0000 0.0000
# 2 55.5248 189.6571 45.4720 0.0000 0.0000 0.0000
# 3 42.6838 45.4720 132.9903 0.0000 0.0000 0.0000
# 4 0.0000 0.0000 0.0000 -25.6346 0.0000 0.0000
# 5 0.0000 0.0000 0.0000 0.0000 -0.8263 0.0000
# 6 0.0000 0.0000 0.0000 0.0000 0.0000 48.5263
#
#
#
# Elastic Compliance Matrix: (Units=1/GPa)
#
#
# Indices 1 2 3 4 5 6 
#
# 1 0.017065 -0.004012 -0.004105 0.000000 0.000000 0.000000
# 2 -0.004012 0.006687 -0.000999 0.000000 0.000000 0.000000
# 3 -0.004105 -0.000999 0.009178 0.000000 0.000000 0.000000
# 4 0.000000 0.000000 0.000000 -0.039010 0.000000 0.000000
# 5 0.000000 0.000000 0.000000 0.000000 -1.210234 0.000000
# 6 0.000000 0.000000 0.000000 0.000000 0.000000 0.020607
#
#
# Mechanical properties :
#
#
# Convention : Reuss Voigt Hill
#
# Bulk Modulus (GPa) = 68.03458 76.88112 72.45785
# Shear Modulus (GPa) = -4.26412 21.80563 8.77076
#
# Velocity S-wave (km/s) = -1.42584 3.22433 2.04491
# Velocity P-wave (km/s) = 5.45218 7.10749 6.33414
#
# Compressibility (1/GPa) = 0.01469841
#
# Stress axis : x y z
#
# Youngs Moduli (GPa) = 58.59986 149.55278 108.95078
#
# Poissons Ratio (x) = 0.59996 0.44728
# Poissons Ratio (y) = 0.23508 0.10881
# Poissons Ratio (z) = 0.24057 0.14936
#
# Static dielectric constant tensor:
#      x y z
#    x 1.765080 0.000000 0.000000 
#    y 0.000000 1.807540 0.000000 
#    z 0.000000 0.000000 1.726230 
# 
# From -- ./inp_files/67949.got.cif
#   From: 2010.05.17/outbox.cif.g08.bks.cpg/sg66_34_cif.got.tgz:67949.got - 2010.06.03 17:51:23.
