data_PCOD9498622
_publ_section_title
;
Structure prediction by ZEFSAII (Michael W. Deem and Ramdas Pophale) SiO2 
 PCOD9498622
Probable space group: C C C M
;
_chemical_formula_sum "Si O2"
_cell_formula_units_Z 84
_cell_length_a 13.087779
_cell_length_b 15.493884
_cell_length_c 19.768010
_cell_angle_alpha 90.000000
_cell_angle_beta 90.000000
_cell_angle_gamma 90.000000
_cell_volume 4008.567538
_symmetry_space_group_name_H-M "C C C M"
_symmetry_group_IT_number 66
_symmetry_cell_setting 'orthorhombic'
loop_
_space_group_symop_operation_xyz
x,y,z
-x,-y,z
x,-y,1/2-z
-x,y,1/2-z
-x,-y,-z
x,y,-z
-x,y,1/2+z
x,-y,1/2+z
1/2+x,1/2+y,z
1/2-x,1/2-y,z
1/2+x,1/2-y,1/2-z
1/2-x,1/2+y,1/2-z
1/2-x,1/2-y,-z
1/2+x,1/2+y,-z
1/2-x,1/2+y,1/2+z
1/2+x,1/2-y,1/2+z
loop_
_atom_site_type_symbol
_atom_site_label
_atom_site_fract_x
_atom_site_fract_y
_atom_site_fract_z
Si Si1 0.638317 0.289109 0.500000
Si Si2 0.662961 0.508239 0.854552
Si Si3 0.119832 0.993951 0.500000
Si Si4 0.395287 0.967970 0.825927
Si Si5 0.133152 0.730758 0.205517
Si Si6 0.000000 0.000000 0.750000
Si Si7 0.570620 0.703631 0.850599
O O1 0.750000 0.250000 0.500000
O O2 0.649010 0.393099 0.500000
O O3 0.587309 0.264802 0.572199
O O4 0.651307 0.468254 0.928746
O O5 0.784083 0.504550 0.845202
O O6 0.586397 0.462169 0.801522
O O7 0.619859 0.607099 0.849699
O O8 0.000000 0.000000 0.500000
O O9 0.391191 0.865166 0.820193
O O10 0.500000 0.000000 0.861877
O O11 0.402915 0.000000 0.750000
O O12 0.250000 0.750000 0.188803
O O13 0.120191 0.743582 0.287246
O O14 0.048177 0.788861 0.168810
#
# Coordination Sequence:
#
# PCOD9498622 Si02
#       7
#     8  16   8  16  16   4  16
#     4  10  22  38  62  88 118 166 207 250 305 373
#     4  11  23  39  66  95 125 164 213 260 310 374
#     4  10  22  40  60  90 130 160 201 261 320 360
#     4  11  23  39  60  90 126 163 202 254 318 372
#     4  11  23  38  62  92 126 157 201 265 317 362
#     4  12  20  34  66  96 120 150 218 262 300 358
#     4  10  22  41  62  91 123 163 212 257 307 372
#
# _framework density 20.955117999999999
#
# number of rings (size 3 to 8) (size 9 to 14) (size 15 to 20)
#    0.000    1.333    1.905    5.143    2.667    4.571 
#    0.000    1.905    0.000    0.000    0.000    0.667 
#    0.000    0.000    0.000    0.000    0.000    0.000 
#
# Total GULP energy -233869.131689 kJ/mol
# GULP energy per Si atom -5568.312659 kJ/mol
# Density = 2.090742 g / cm^3
# Si number density = 20.955118 Si / 1000 Ang^3
#
#
#
# Elastic Constant Matrix: (Units=GPa)
#
#
# Indices 1 2 3 4 5 6 
#
# 1 222.3285 61.1080 77.7151 0.0000 0.0000 0.0000
# 2 61.1080 111.4831 8.3819 0.0000 0.0000 0.0000
# 3 77.7151 8.3819 157.3126 0.0000 0.0000 0.0000
# 4 0.0000 0.0000 0.0000 39.9425 0.0000 0.0000
# 5 0.0000 0.0000 0.0000 0.0000 26.5210 0.0000
# 6 0.0000 0.0000 0.0000 0.0000 0.0000 37.1355
#
#
#
# Elastic Compliance Matrix: (Units=1/GPa)
#
#
# Indices 1 2 3 4 5 6 
#
# 1 0.006464 -0.003316 -0.003017 0.000000 0.000000 0.000000
# 2 -0.003316 0.010707 0.001068 0.000000 0.000000 0.000000
# 3 -0.003017 0.001068 0.007790 0.000000 0.000000 0.000000
# 4 0.000000 0.000000 0.000000 0.025036 0.000000 0.000000
# 5 0.000000 0.000000 0.000000 0.000000 0.037706 0.000000
# 6 0.000000 0.000000 0.000000 0.000000 0.000000 0.026928
#
#
# Mechanical properties :
#
#
# Convention : Reuss Voigt Hill
#
# Bulk Modulus (GPa) = 69.29369 87.28159 78.28764
# Shear Modulus (GPa) = 38.46982 43.64774 41.05878
#
# Velocity S-wave (km/s) = 4.28929 4.56885 4.43128
# Velocity P-wave (km/s) = 7.59409 8.34114 7.97636
#
# Compressibility (1/GPa) = 0.01443133
#
# Stress axis : x y z
#
# Youngs Moduli (GPa) = 154.70883 93.39299 128.36830
#
# Poissons Ratio (x) = 0.30971 0.38722
# Poissons Ratio (y) = 0.51305 -0.13707
# Poissons Ratio (z) = 0.46668 -0.09972
#
# Static dielectric constant tensor:
#      x y z
#    x 1.431030 0.000000 0.000000 
#    y 0.000000 1.780290 0.000000 
#    z 0.000000 0.000000 1.471140 
# 
# From -- ./inp_files/48491.got.cif
#   From: 2010.05.17/outbox.cif.g08.bks.cpg/sg66_25_cif.got.tgz:48491.got - 2010.06.03 17:51:23.
