data_PCOD9498208
_publ_section_title
;
Structure prediction by ZEFSAII (Michael W. Deem and Ramdas Pophale) SiO2 
 PCOD9498208
Probable space group: C C C M
;
_chemical_formula_sum "Si O2"
_cell_formula_units_Z 72
_cell_length_a 24.362533
_cell_length_b 5.214565
_cell_length_c 26.572357
_cell_angle_alpha 90.000000
_cell_angle_beta 90.000000
_cell_angle_gamma 90.000000
_cell_volume 3375.752549
_symmetry_space_group_name_H-M "C C C M"
_symmetry_group_IT_number 66
_symmetry_cell_setting 'orthorhombic'
loop_
_space_group_symop_operation_xyz
x,y,z
-x,-y,z
x,-y,1/2-z
-x,y,1/2-z
-x,-y,-z
x,y,-z
-x,y,1/2+z
x,-y,1/2+z
1/2+x,1/2+y,z
1/2-x,1/2-y,z
1/2+x,1/2-y,1/2-z
1/2-x,1/2+y,1/2-z
1/2-x,1/2-y,-z
1/2+x,1/2+y,-z
1/2-x,1/2+y,1/2+z
1/2+x,1/2-y,1/2+z
loop_
_atom_site_type_symbol
_atom_site_label
_atom_site_fract_x
_atom_site_fract_y
_atom_site_fract_z
Si Si1 0.905477 0.154280 0.389231
Si Si2 0.787758 0.002343 0.137366
Si Si3 0.212596 0.000000 0.750000
Si Si4 0.558217 0.853467 0.441382
Si Si5 0.562323 0.749624 0.226026
O O1 0.903639 0.425788 0.417971
O O2 0.930789 0.225342 0.333834
O O3 0.843934 0.042041 0.391874
O O4 0.939745 0.917310 0.412652
O O5 0.750000 0.250000 0.126274
O O6 0.750000 0.750000 0.133124
O O7 0.811069 0.027746 0.194362
O O8 0.250000 0.250000 0.754898
O O9 0.569598 0.805165 0.500000
O O10 0.500000 0.000000 0.437333
O O11 0.588147 0.500000 0.250000
O O12 0.500000 0.753062 0.250000
O O13 0.589653 0.000000 0.250000
#
# Coordination Sequence:
#
# PCOD9498208 Si02
#       5
#    16  16   8  16  16
#     4  12  24  41  72  97 131 186 216 274 345 393
#     4  10  21  39  60  91 130 173 227 270 314 388
#     4   8  16  32  52  76 117 164 205 254 294 356
#     4  11  26  46  69  98 130 169 226 285 339 406
#     4  10  23  38  57  93 138 175 207 263 310 402
#
# _framework density 21.328579000000001
#
# number of rings (size 3 to 8) (size 9 to 14) (size 15 to 20)
#    0.000    1.556    0.000    4.000   10.889    1.778 
#    8.000    0.000    0.000   13.333    0.000    0.000 
#    0.000    0.000    0.000    0.000    0.000    0.000 
#
# Total GULP energy -200657.800256 kJ/mol
# GULP energy per Si atom -5573.827785 kJ/mol
# Density = 2.128003 g / cm^3
# Si number density = 21.328579 Si / 1000 Ang^3
#
#
#
# Elastic Constant Matrix: (Units=GPa)
#
#
# Indices 1 2 3 4 5 6 
#
# 1 99.0968 29.0335 27.9807 0.0000 0.0000 0.0000
# 2 29.0335 202.8415 69.7214 0.0000 0.0000 0.0000
# 3 27.9807 69.7214 117.1895 0.0000 0.0000 0.0000
# 4 0.0000 0.0000 0.0000 33.9182 0.0000 0.0000
# 5 0.0000 0.0000 0.0000 0.0000 5.1049 0.0000
# 6 0.0000 0.0000 0.0000 0.0000 0.0000 18.4629
#
#
#
# Elastic Compliance Matrix: (Units=1/GPa)
#
#
# Indices 1 2 3 4 5 6 
#
# 1 0.010933 -0.000839 -0.002111 0.000000 0.000000 0.000000
# 2 -0.000839 0.006262 -0.003525 0.000000 0.000000 0.000000
# 3 -0.002111 -0.003525 0.011134 0.000000 0.000000 0.000000
# 4 0.000000 0.000000 0.000000 0.029483 0.000000 0.000000
# 5 0.000000 0.000000 0.000000 0.000000 0.195889 0.000000
# 6 0.000000 0.000000 0.000000 0.000000 0.000000 0.054163
#
#
# Mechanical properties :
#
#
# Convention : Reuss Voigt Hill
#
# Bulk Modulus (GPa) = 65.02584 74.73322 69.87953
# Shear Modulus (GPa) = 15.34024 30.99003 23.16513
#
# Velocity S-wave (km/s) = 2.68476 3.81593 3.29919
# Velocity P-wave (km/s) = 6.33754 7.38446 6.88094
#
# Compressibility (1/GPa) = 0.01537850
#
# Stress axis : x y z
#
# Youngs Moduli (GPa) = 91.46517 159.70087 89.81153
#
# Poissons Ratio (x) = 0.13403 0.18960
# Poissons Ratio (y) = 0.07676 0.31658
# Poissons Ratio (z) = 0.19309 0.56294
#
# Static dielectric constant tensor:
#      x y z
#    x 1.348050 0.000000 0.000000 
#    y 0.000000 1.773950 0.000000 
#    z 0.000000 0.000000 1.798020 
# 
# From -- ./inp_files/60044.got.cif
#   From: 2010.05.17/outbox.cif.g08.bks.cpg/sg66_31_cif.got.tgz:60044.got - 2010.06.03 17:51:23.
