data_PCOD9498286
_publ_section_title
;
Structure prediction by ZEFSAII (Michael W. Deem and Ramdas Pophale) SiO2 
 PCOD9498286
Probable space group: C C C M
;
_chemical_formula_sum "Si O2"
_cell_formula_units_Z 72
_cell_length_a 8.491000
_cell_length_b 15.895790
_cell_length_c 24.928367
_cell_angle_alpha 90.000000
_cell_angle_beta 90.000000
_cell_angle_gamma 90.000000
_cell_volume 3364.610434
_symmetry_space_group_name_H-M "C C C M"
_symmetry_group_IT_number 66
_symmetry_cell_setting 'orthorhombic'
loop_
_space_group_symop_operation_xyz
x,y,z
-x,-y,z
x,-y,1/2-z
-x,y,1/2-z
-x,-y,-z
x,y,-z
-x,y,1/2+z
x,-y,1/2+z
1/2+x,1/2+y,z
1/2-x,1/2-y,z
1/2+x,1/2-y,1/2-z
1/2-x,1/2+y,1/2-z
1/2-x,1/2-y,-z
1/2+x,1/2+y,-z
1/2-x,1/2+y,1/2+z
1/2+x,1/2-y,1/2+z
loop_
_atom_site_type_symbol
_atom_site_label
_atom_site_fract_x
_atom_site_fract_y
_atom_site_fract_z
Si Si1 0.750000 0.750000 0.831067
Si Si2 0.667220 0.405409 0.841255
Si Si3 0.750000 0.750000 0.407379
Si Si4 0.311182 0.422877 0.116946
Si Si5 0.246030 0.605107 0.500000
Si Si6 0.000000 0.816778 0.250000
Si Si7 0.001695 0.744547 0.500000
O O1 0.764642 0.666170 0.866778
O O2 0.598259 0.736375 0.793079
O O3 0.761851 0.331909 0.870309
O O4 0.738889 0.497817 0.847000
O O5 0.497508 0.410601 0.871780
O O6 0.622673 0.375538 0.781842
O O7 0.897651 0.755360 0.447044
O O8 0.274853 0.443407 0.055205
O O9 0.370456 0.681844 0.500000
O O10 0.079646 0.652633 0.500000
#
# Coordination Sequence:
#
# PCOD9498286 Si02
#       7
#     8  16   8  16   8   8   8
#     4  10  21  39  65  92 119 159 213 266 316 372
#     4  10  22  39  63  93 124 163 212 266 305 378
#     4  11  21  40  59  96 129 168 203 263 316 372
#     4  10  22  38  65  92 124 164 216 250 308 385
#     4  11  20  39  62  96 125 177 203 254 311 396
#     4  10  22  41  66  89 120 166 212 267 324 363
#     4  10  22  34  65  91 131 167 209 251 317 379
#
# _framework density 21.399208999999999
#
# number of rings (size 3 to 8) (size 9 to 14) (size 15 to 20)
#    0.000    1.778    2.222    2.000    3.111   10.667 
#    0.000    2.222    0.000    8.000    0.000    0.000 
#    0.000    0.000    0.000    0.000    0.000    0.000 
#
# Total GULP energy -201201.479625 kJ/mol
# GULP energy per Si atom -5588.929990 kJ/mol
# Density = 2.135050 g / cm^3
# Si number density = 21.399209 Si / 1000 Ang^3
#
#
#
# Elastic Constant Matrix: (Units=GPa)
#
#
# Indices 1 2 3 4 5 6 
#
# 1 18.4876 8.1261 4.1520 0.0000 0.0000 0.0000
# 2 8.1261 136.9061 36.3840 0.0000 0.0000 0.0000
# 3 4.1520 36.3840 102.3986 0.0000 0.0000 0.0000
# 4 0.0000 0.0000 0.0000 28.4255 0.0000 0.0000
# 5 0.0000 0.0000 0.0000 0.0000 -135.0834 0.0000
# 6 0.0000 0.0000 0.0000 0.0000 0.0000 20.1390
#
#
#
# Elastic Compliance Matrix: (Units=1/GPa)
#
#
# Indices 1 2 3 4 5 6 
#
# 1 0.055672 -0.002987 -0.001196 0.000000 0.000000 0.000000
# 2 -0.002987 0.008226 -0.002802 0.000000 0.000000 0.000000
# 3 -0.001196 -0.002802 0.010810 0.000000 0.000000 0.000000
# 4 0.000000 0.000000 0.000000 0.035180 0.000000 0.000000
# 5 0.000000 0.000000 0.000000 0.000000 -0.007403 0.000000
# 6 0.000000 0.000000 0.000000 0.000000 0.000000 0.049655
#
#
# Mechanical properties :
#
#
# Convention : Reuss Voigt Hill
#
# Bulk Modulus (GPa) = 16.46400 39.45739 27.96069
# Shear Modulus (GPa) = 26.83058 -3.36177 11.73441
#
# Velocity S-wave (km/s) = 3.54476 -1.25475 2.34424
# Velocity P-wave (km/s) = 4.94613 4.04717 4.51906
#
# Compressibility (1/GPa) = 0.06073858
#
# Stress axis : x y z
#
# Youngs Moduli (GPa) = 17.96247 121.56362 92.50876
#
# Poissons Ratio (x) = 0.36305 0.11066
# Poissons Ratio (y) = 0.05365 0.25919
# Poissons Ratio (z) = 0.02149 0.34060
#
# Static dielectric constant tensor:
#      x y z
#    x 1.798900 0.000000 0.000000 
#    y 0.000000 1.780730 0.000000 
#    z 0.000000 0.000000 1.771740 
# 
# From -- ./inp_files/62273.got.cif
#   From: 2010.05.17/outbox.cif.g08.bks.cpg/sg66_32_cif.got.tgz:62273.got - 2010.06.03 17:51:23.
