data_PCOD9498314
_publ_section_title
;
Structure prediction by ZEFSAII (Michael W. Deem and Ramdas Pophale) SiO2 
 PCOD9498314
Probable space group: C C C M
;
_chemical_formula_sum "Si O2"
_cell_formula_units_Z 96
_cell_length_a 23.031724
_cell_length_b 10.764916
_cell_length_c 14.843359
_cell_angle_alpha 90.000000
_cell_angle_beta 90.000000
_cell_angle_gamma 90.000000
_cell_volume 3680.181893
_symmetry_space_group_name_H-M "C C C M"
_symmetry_group_IT_number 66
_symmetry_cell_setting 'orthorhombic'
loop_
_space_group_symop_operation_xyz
x,y,z
-x,-y,z
x,-y,1/2-z
-x,y,1/2-z
-x,-y,-z
x,y,-z
-x,y,1/2+z
x,-y,1/2+z
1/2+x,1/2+y,z
1/2-x,1/2-y,z
1/2+x,1/2-y,1/2-z
1/2-x,1/2+y,1/2-z
1/2-x,1/2-y,-z
1/2+x,1/2+y,-z
1/2-x,1/2+y,1/2+z
1/2+x,1/2-y,1/2+z
loop_
_atom_site_type_symbol
_atom_site_label
_atom_site_fract_x
_atom_site_fract_y
_atom_site_fract_z
Si Si1 0.010769 0.358962 0.602982
Si Si2 0.048689 0.095462 0.393541
Si Si3 0.823973 0.027780 0.855424
Si Si4 0.313782 0.765418 0.771091
Si Si5 0.378918 0.773025 0.597341
Si Si6 0.698187 0.018921 0.096557
O O1 0.032634 0.381405 0.500000
O O2 0.946707 0.300309 0.599862
O O3 0.000000 0.500000 0.641342
O O4 0.047110 0.239900 0.642735
O O5 0.036757 0.111963 0.500000
O O6 0.109541 0.022308 0.385151
O O7 0.000000 0.000000 0.357206
O O8 0.814109 0.175927 0.857023
O O9 0.765622 0.975983 0.899181
O O10 0.818607 0.000000 0.750000
O O11 0.250000 0.750000 0.729428
O O12 0.358034 0.723161 0.693557
O O13 0.318076 0.898795 0.817132
O O14 0.365638 0.711119 0.500000
O O15 0.343807 0.901770 0.596757
O O16 0.689884 0.083740 0.000000
#
# Coordination Sequence:
#
# PCOD9498314 Si02
#       6
#    16  16  16  16  16  16
#     4   9  20  40  67  98 132 174 225 281 341 405
#     4  10  23  43  67  95 131 179 233 286 339 411
#     4  11  24  40  62  92 131 178 220 283 344 413
#     4  10  22  39  61  93 132 167 215 274 334 410
#     4  10  21  39  66  95 132 174 218 276 340 407
#     4  10  21  40  68  99 130 170 221 284 352 416
#
# _framework density 26.085666
#
# number of rings (size 3 to 8) (size 9 to 14) (size 15 to 20)
#    0.000    2.000    0.000    3.000    4.667    4.333 
#    0.000    0.833    0.000    0.000    0.000    0.000 
#    0.000    0.000    0.000    0.000    0.000    0.000 
#
# Total GULP energy -267792.288924 kJ/mol
# GULP energy per Si atom -5579.006019 kJ/mol
# Density = 2.602629 g / cm^3
# Si number density = 26.085666 Si / 1000 Ang^3
#
#
#
# Elastic Constant Matrix: (Units=GPa)
#
#
# Indices 1 2 3 4 5 6 
#
# 1 111.1691 -1.0374 8.3909 0.0000 0.0000 0.0000
# 2 -1.0374 104.9600 27.7764 0.0000 0.0000 0.0000
# 3 8.3909 27.7764 101.2663 0.0000 0.0000 0.0000
# 4 0.0000 0.0000 0.0000 15.6887 0.0000 0.0000
# 5 0.0000 0.0000 0.0000 0.0000 51.0172 0.0000
# 6 0.0000 0.0000 0.0000 0.0000 0.0000 42.9834
#
#
#
# Elastic Compliance Matrix: (Units=1/GPa)
#
#
# Indices 1 2 3 4 5 6 
#
# 1 0.009061 0.000311 -0.000836 0.000000 0.000000 0.000000
# 2 0.000311 0.010284 -0.002847 0.000000 0.000000 0.000000
# 3 -0.000836 -0.002847 0.010725 0.000000 0.000000 0.000000
# 4 0.000000 0.000000 0.000000 0.063740 0.000000 0.000000
# 5 0.000000 0.000000 0.000000 0.000000 0.019601 0.000000
# 6 0.000000 0.000000 0.000000 0.000000 0.000000 0.023265
#
#
# Mechanical properties :
#
#
# Convention : Reuss Voigt Hill
#
# Bulk Modulus (GPa) = 42.86953 43.07280 42.97117
# Shear Modulus (GPa) = 33.06983 40.75557 36.91270
#
# Velocity S-wave (km/s) = 3.56440 3.95698 3.76581
# Velocity P-wave (km/s) = 5.78011 6.11758 5.95124
#
# Compressibility (1/GPa) = 0.02332659
#
# Stress axis : x y z
#
# Youngs Moduli (GPa) = 110.35934 97.24031 93.24008
#
# Poissons Ratio (x) = -0.03022 0.07795
# Poissons Ratio (y) = -0.03430 0.26541
# Poissons Ratio (z) = 0.09227 0.27680
#
# Static dielectric constant tensor:
#      x y z
#    x 2.063040 0.000000 0.000000 
#    y 0.000000 2.333860 0.000000 
#    z 0.000000 0.000000 2.064930 
# 
# From -- ./inp_files/43570.got.cif
#   From: 2010.05.17/outbox.cif.g08.bks.cpg/sg66_22_cif.got.tgz:43570.got - 2010.06.03 17:51:23.
