data_PCOD9498978
_publ_section_title
;
Structure prediction by ZEFSAII (Michael W. Deem and Ramdas Pophale) SiO2 
 PCOD9498978
Probable space group: C C C M
;
_chemical_formula_sum "Si O2"
_cell_formula_units_Z 64
_cell_length_a 7.479206
_cell_length_b 13.970077
_cell_length_c 26.120179
_cell_angle_alpha 90.000000
_cell_angle_beta 90.000000
_cell_angle_gamma 90.000000
_cell_volume 2729.169090
_symmetry_space_group_name_H-M "C C C M"
_symmetry_group_IT_number 66
_symmetry_cell_setting 'orthorhombic'
loop_
_space_group_symop_operation_xyz
x,y,z
-x,-y,z
x,-y,1/2-z
-x,y,1/2-z
-x,-y,-z
x,y,-z
-x,y,1/2+z
x,-y,1/2+z
1/2+x,1/2+y,z
1/2-x,1/2-y,z
1/2+x,1/2-y,1/2-z
1/2-x,1/2+y,1/2-z
1/2-x,1/2-y,-z
1/2+x,1/2+y,-z
1/2-x,1/2+y,1/2+z
1/2+x,1/2-y,1/2+z
loop_
_atom_site_type_symbol
_atom_site_label
_atom_site_fract_x
_atom_site_fract_y
_atom_site_fract_z
Si Si1 0.645562 0.611885 0.676147
Si Si2 0.282195 0.915656 0.336273
Si Si3 0.385508 0.160798 0.055780
Si Si4 0.750000 0.750000 0.413533
Si Si5 0.750000 0.750000 0.765970
O O1 0.434320 0.593635 0.668490
O O2 0.788377 0.525064 0.682559
O O3 0.694170 0.665417 0.624414
O O4 0.662305 0.677381 0.725758
O O5 0.349387 0.903766 0.394323
O O6 0.353210 0.824527 0.303781
O O7 0.250000 0.250000 0.060605
O O8 0.580874 0.208268 0.057137
O O9 0.356399 0.113981 0.000000
#
# Coordination Sequence:
#
# PCOD9498978 Si02
#       5
#    16  16  16   8   8
#     4  10  23  38  66  96 134 176 224 273 336 400
#     4  11  21  43  64  97 135 178 224 275 332 407
#     4  11  23  42  69  98 133 180 222 275 336 392
#     4  11  21  44  65 100 131 174 227 279 324 400
#     4  11  20  36  64 100 134 180 218 271 336 398
#
# _framework density 23.45036
#
# number of rings (size 3 to 8) (size 9 to 14) (size 15 to 20)
#    0.000    1.250    3.750    1.875    0.000    5.000 
#    0.000    6.250    0.000    9.000    0.000    0.000 
#    0.000    0.000    0.000    0.000    0.000    0.000 
#
# Total GULP energy -178651.329176 kJ/mol
# GULP energy per Si atom -5582.854037 kJ/mol
# Density = 2.339699 g / cm^3
# Si number density = 23.450360 Si / 1000 Ang^3
#
#
#
# Elastic Constant Matrix: (Units=GPa)
#
#
# Indices 1 2 3 4 5 6 
#
# 1 70.3787 13.7665 32.7692 0.0000 0.0000 0.0000
# 2 13.7665 122.0308 58.9839 0.0000 0.0000 0.0000
# 3 32.7692 58.9839 179.5346 0.0000 0.0000 0.0000
# 4 0.0000 0.0000 0.0000 4.5025 0.0000 0.0000
# 5 0.0000 0.0000 0.0000 0.0000 -37.2882 0.0000
# 6 0.0000 0.0000 0.0000 0.0000 0.0000 25.4639
#
#
#
# Elastic Compliance Matrix: (Units=1/GPa)
#
#
# Indices 1 2 3 4 5 6 
#
# 1 0.015550 -0.000455 -0.002689 0.000000 0.000000 0.000000
# 2 -0.000455 0.009755 -0.003122 0.000000 0.000000 0.000000
# 3 -0.002689 -0.003122 0.007086 0.000000 0.000000 0.000000
# 4 0.000000 0.000000 0.000000 0.222097 0.000000 0.000000
# 5 0.000000 0.000000 0.000000 0.000000 -0.026818 0.000000
# 6 0.000000 0.000000 0.000000 0.000000 0.000000 0.039271
#
#
# Mechanical properties :
#
#
# Convention : Reuss Voigt Hill
#
# Bulk Modulus (GPa) = 50.35126 64.77591 57.56359
# Shear Modulus (GPa) = 17.47690 16.29728 16.88709
#
# Velocity S-wave (km/s) = 2.73293 2.63909 2.68642
# Velocity P-wave (km/s) = 5.61040 6.08021 5.85002
#
# Compressibility (1/GPa) = 0.01986048
#
# Stress axis : x y z
#
# Youngs Moduli (GPa) = 64.30981 102.51261 141.11549
#
# Poissons Ratio (x) = 0.04659 0.37944
# Poissons Ratio (y) = 0.02923 0.44055
# Poissons Ratio (z) = 0.17292 0.32003
#
# Static dielectric constant tensor:
#      x y z
#    x 2.038940 0.000000 0.000000 
#    y 0.000000 2.008950 0.000000 
#    z 0.000000 0.000000 1.837550 
# 
# From -- ./inp_files/62101.got.cif
#   From: 2010.05.17/outbox.cif.g08.bks.cpg/sg66_32_cif.got.tgz:62101.got - 2010.06.03 17:51:23.
