data_PCOD9498212
_publ_section_title
;
Structure prediction by ZEFSAII (Michael W. Deem and Ramdas Pophale) SiO2 
 PCOD9498212
Probable space group: C C C M
;
_chemical_formula_sum "Si O2"
_cell_formula_units_Z 96
_cell_length_a 24.068481
_cell_length_b 25.601229
_cell_length_c 8.709238
_cell_angle_alpha 90.000000
_cell_angle_beta 90.000000
_cell_angle_gamma 90.000000
_cell_volume 5366.481731
_symmetry_space_group_name_H-M "C C C M"
_symmetry_group_IT_number 66
_symmetry_cell_setting 'orthorhombic'
loop_
_space_group_symop_operation_xyz
x,y,z
-x,-y,z
x,-y,1/2-z
-x,y,1/2-z
-x,-y,-z
x,y,-z
-x,y,1/2+z
x,-y,1/2+z
1/2+x,1/2+y,z
1/2-x,1/2-y,z
1/2+x,1/2-y,1/2-z
1/2-x,1/2+y,1/2-z
1/2-x,1/2-y,-z
1/2+x,1/2+y,-z
1/2-x,1/2+y,1/2+z
1/2+x,1/2-y,1/2+z
loop_
_atom_site_type_symbol
_atom_site_label
_atom_site_fract_x
_atom_site_fract_y
_atom_site_fract_z
Si Si1 0.366613 0.148207 0.682777
Si Si2 0.439998 0.057638 0.183023
Si Si3 0.247430 0.311103 0.815258
Si Si4 0.439841 0.442338 0.683457
Si Si5 0.129687 0.150645 0.183946
Si Si6 0.061767 0.751691 0.816130
O O1 0.367934 0.140136 0.500000
O O2 0.393713 0.098607 0.765108
O O3 0.304585 0.160938 0.737621
O O4 0.404027 0.199097 0.718980
O O5 0.500000 0.074506 0.250000
O O6 0.428896 0.000000 0.250000
O O7 0.443753 0.054868 0.000000
O O8 0.250000 0.250000 0.769344
O O9 0.306165 0.337704 0.777683
O O10 0.240114 0.312503 0.000000
O O11 0.428808 0.500000 0.750000
O O12 0.500000 0.425718 0.750000
O O13 0.442991 0.444500 0.500000
O O14 0.394314 0.401181 0.738619
O O15 0.093486 0.199441 0.242254
O O16 0.124742 0.146558 0.000000
O O17 0.000000 0.748010 0.750000
O O18 0.059772 0.758234 0.000000
#
# Coordination Sequence:
#
# PCOD9498212 Si02
#       6
#    16  16  16  16  16  16
#     4  11  23  38  59  87 119 155 198 244 294 350
#     4  11  22  39  63  89 121 156 197 243 296 355
#     4  10  21  39  61  85 115 158 201 243 294 348
#     4  11  22  39  62  88 119 153 194 238 292 348
#     4  11  22  38  60  85 117 153 195 240 291 348
#     4  11  23  36  54  83 117 152 190 238 292 347
#
# _framework density 17.888815000000001
#
# number of rings (size 3 to 8) (size 9 to 14) (size 15 to 20)
#    0.000    1.167    1.667    6.500    0.000    5.000 
#    0.000    0.833    0.000    4.000    0.000    0.000 
#    0.000    0.000    0.000    0.000    0.000    0.000 
#
# Total GULP energy -268451.205174 kJ/mol
# GULP energy per Si atom -5592.733441 kJ/mol
# Density = 1.784810 g / cm^3
# Si number density = 17.888815 Si / 1000 Ang^3
#
#
#
# Elastic Constant Matrix: (Units=GPa)
#
#
# Indices 1 2 3 4 5 6 
#
# 1 157.1947 80.5888 78.5793 0.0000 0.0000 0.0000
# 2 80.5888 96.6566 63.6392 0.0000 0.0000 0.0000
# 3 78.5793 63.6392 113.6984 0.0000 0.0000 0.0000
# 4 0.0000 0.0000 0.0000 44.5933 0.0000 0.0000
# 5 0.0000 0.0000 0.0000 0.0000 32.0244 0.0000
# 6 0.0000 0.0000 0.0000 0.0000 0.0000 14.1857
#
#
#
# Elastic Compliance Matrix: (Units=1/GPa)
#
#
# Indices 1 2 3 4 5 6 
#
# 1 0.012356 -0.007410 -0.004392 0.000000 0.000000 0.000000
# 2 -0.007410 0.020828 -0.006536 0.000000 0.000000 0.000000
# 3 -0.004392 -0.006536 0.015489 0.000000 0.000000 0.000000
# 4 0.000000 0.000000 0.000000 0.022425 0.000000 0.000000
# 5 0.000000 0.000000 0.000000 0.000000 0.031226 0.000000
# 6 0.000000 0.000000 0.000000 0.000000 0.000000 0.070493
#
#
# Mechanical properties :
#
#
# Convention : Reuss Voigt Hill
#
# Bulk Modulus (GPa) = 83.36155 90.35160 86.85658
# Shear Modulus (GPa) = 23.41997 27.81018 25.61508
#
# Velocity S-wave (km/s) = 3.62221 3.94714 3.78816
# Velocity P-wave (km/s) = 8.01217 8.44927 8.23362
#
# Compressibility (1/GPa) = 0.01199594
#
# Stress axis : x y z
#
# Youngs Moduli (GPa) = 80.93245 48.01223 64.56231
#
# Poissons Ratio (x) = 0.35579 0.28354
# Poissons Ratio (y) = 0.59975 0.42200
# Poissons Ratio (z) = 0.35543 0.31382
#
# Static dielectric constant tensor:
#      x y z
#    x 1.582610 0.000000 0.000000 
#    y 0.000000 1.588480 0.000000 
#    z 0.000000 0.000000 1.600210 
# 
# From -- ./inp_files/9136.got.cif
#   From: 2010.05.17/outbox.cif.g08.bks.cpg/sg66_5_cif.got.tgz:9136.got - 2010.06.03 17:51:23.
