data_PCOD9498443
_publ_section_title
;
Structure prediction by ZEFSAII (Michael W. Deem and Ramdas Pophale) SiO2 
 PCOD9498443
Probable space group: C C C M
;
_chemical_formula_sum "Si O2"
_cell_formula_units_Z 88
_cell_length_a 12.020593
_cell_length_b 13.864629
_cell_length_c 25.105736
_cell_angle_alpha 90.000000
_cell_angle_beta 90.000000
_cell_angle_gamma 90.000000
_cell_volume 4184.148632
_symmetry_space_group_name_H-M "C C C M"
_symmetry_group_IT_number 66
_symmetry_cell_setting 'orthorhombic'
loop_
_space_group_symop_operation_xyz
x,y,z
-x,-y,z
x,-y,1/2-z
-x,y,1/2-z
-x,-y,-z
x,y,-z
-x,y,1/2+z
x,-y,1/2+z
1/2+x,1/2+y,z
1/2-x,1/2-y,z
1/2+x,1/2-y,1/2-z
1/2-x,1/2+y,1/2-z
1/2-x,1/2-y,-z
1/2+x,1/2+y,-z
1/2-x,1/2+y,1/2+z
1/2+x,1/2-y,1/2+z
loop_
_atom_site_type_symbol
_atom_site_label
_atom_site_fract_x
_atom_site_fract_y
_atom_site_fract_z
Si Si1 0.686287 0.914234 0.293132
Si Si2 0.301808 0.887466 0.500000
Si Si3 0.055028 0.149125 0.000000
Si Si4 0.957557 0.904377 0.607221
Si Si5 0.562417 0.834142 0.500000
Si Si6 0.703069 0.052560 0.086068
Si Si7 0.916447 0.794747 0.295365
O O1 0.665964 0.954956 0.352687
O O2 0.809106 0.864950 0.292239
O O3 0.612359 0.817674 0.286662
O O4 0.673914 0.000000 0.250000
O O5 0.186379 0.827645 0.500000
O O6 0.429796 0.853786 0.500000
O O7 0.296204 0.954474 0.447389
O O8 0.036070 0.098003 0.944010
O O9 0.947878 0.220176 0.000000
O O10 0.829766 0.910505 0.589146
O O11 0.967156 0.813444 0.646155
O O12 0.000000 0.000000 0.637842
O O13 0.624502 0.876904 0.448620
O O14 0.000000 0.825629 0.250000
#
# Coordination Sequence:
#
# PCOD9498443 Si02
#       7
#    16   8   8  16   8  16  16
#     4  10  23  44  66  97 132 173 221 278 330 399
#     4  11  22  41  61  91 132 176 218 255 328 409
#     4  12  22  38  62  99 132 165 220 266 335 395
#     4  11  22  38  69  98 129 168 220 287 331 391
#     4  11  24  40  61  90 135 176 210 274 322 401
#     4  10  21  41  66  91 123 174 220 267 333 391
#     4  10  24  42  66  99 131 170 226 272 338 399
#
# _framework density 21.031756999999999
#
# number of rings (size 3 to 8) (size 9 to 14) (size 15 to 20)
#    0.000    1.455    1.818    3.818    5.091    3.273 
#    9.818    0.000    0.000    0.000    0.000    0.000 
#    0.000    0.000    0.000    0.000    0.000    0.000 
#
# Total GULP energy -245298.018670 kJ/mol
# GULP energy per Si atom -5574.954970 kJ/mol
# Density = 2.098389 g / cm^3
# Si number density = 21.031757 Si / 1000 Ang^3
#
#
#
# Elastic Constant Matrix: (Units=GPa)
#
#
# Indices 1 2 3 4 5 6 
#
# 1 97.2240 30.1310 33.3371 0.0000 0.0000 0.0000
# 2 30.1310 76.8136 56.5674 0.0000 0.0000 0.0000
# 3 33.3371 56.5674 142.3798 0.0000 0.0000 0.0000
# 4 0.0000 0.0000 0.0000 -6.6652 0.0000 0.0000
# 5 0.0000 0.0000 0.0000 0.0000 25.2334 0.0000
# 6 0.0000 0.0000 0.0000 0.0000 0.0000 24.7200
#
#
#
# Elastic Compliance Matrix: (Units=1/GPa)
#
#
# Indices 1 2 3 4 5 6 
#
# 1 0.011881 -0.003692 -0.001315 0.000000 0.000000 0.000000
# 2 -0.003692 0.019550 -0.006903 0.000000 0.000000 0.000000
# 3 -0.001315 -0.006903 0.010074 0.000000 0.000000 0.000000
# 4 0.000000 0.000000 0.000000 -0.150033 0.000000 0.000000
# 5 0.000000 0.000000 0.000000 0.000000 0.039630 0.000000
# 6 0.000000 0.000000 0.000000 0.000000 0.000000 0.040453
#
#
# Mechanical properties :
#
#
# Convention : Reuss Voigt Hill
#
# Bulk Modulus (GPa) = 56.54458 61.83204 59.18831
# Shear Modulus (GPa) = 3938.94142 21.74975 1980.34559
#
# Velocity S-wave (km/s) = 43.32343 3.21929 30.71875
# Velocity P-wave (km/s) = 50.29417 6.57888 35.86632
#
# Compressibility (1/GPa) = 0.01768516
#
# Stress axis : x y z
#
# Youngs Moduli (GPa) = 84.17089 51.15053 99.26700
#
# Poissons Ratio (x) = 0.18884 0.13053
# Poissons Ratio (y) = 0.31075 0.68522
# Poissons Ratio (z) = 0.11068 0.35308
#
# Static dielectric constant tensor:
#      x y z
#    x 1.756700 0.000000 0.000000 
#    y 0.000000 1.858310 0.000000 
#    z 0.000000 0.000000 1.856510 
# 
# From -- ./inp_files/56784.got.cif
#   From: 2010.05.17/outbox.cif.g08.bks.cpg/sg66_29_cif.got.tgz:56784.got - 2010.06.03 17:51:23.
