data_PCOD9498516
_publ_section_title
;
Structure prediction by ZEFSAII (Michael W. Deem and Ramdas Pophale) SiO2 
 PCOD9498516
Probable space group: C C C M
;
_chemical_formula_sum "Si O2"
_cell_formula_units_Z 112
_cell_length_a 11.906183
_cell_length_b 29.415095
_cell_length_c 14.350780
_cell_angle_alpha 90.000000
_cell_angle_beta 90.000000
_cell_angle_gamma 90.000000
_cell_volume 5025.951756
_symmetry_space_group_name_H-M "C C C M"
_symmetry_group_IT_number 66
_symmetry_cell_setting 'orthorhombic'
loop_
_space_group_symop_operation_xyz
x,y,z
-x,-y,z
x,-y,1/2-z
-x,y,1/2-z
-x,-y,-z
x,y,-z
-x,y,1/2+z
x,-y,1/2+z
1/2+x,1/2+y,z
1/2-x,1/2-y,z
1/2+x,1/2-y,1/2-z
1/2-x,1/2+y,1/2-z
1/2-x,1/2-y,-z
1/2+x,1/2+y,-z
1/2-x,1/2+y,1/2+z
1/2+x,1/2-y,1/2+z
loop_
_atom_site_type_symbol
_atom_site_label
_atom_site_fract_x
_atom_site_fract_y
_atom_site_fract_z
Si Si1 0.578514 0.588113 0.604327
Si Si2 0.247248 0.672635 0.105226
Si Si3 0.725006 0.800499 0.188142
Si Si4 0.681349 0.389753 0.392380
Si Si5 0.747626 0.550187 0.278837
Si Si6 0.527759 0.949026 0.640499
Si Si7 0.518825 0.847852 0.102389
O O1 0.587496 0.569871 0.500000
O O2 0.664199 0.630886 0.612238
O O3 0.450930 0.601703 0.620208
O O4 0.625368 0.552379 0.676969
O O5 0.262023 0.698431 0.203099
O O6 0.114539 0.660486 0.109521
O O7 0.265776 0.692262 0.000000
O O8 0.750000 0.750000 0.153444
O O9 0.795167 0.837477 0.130439
O O10 0.598138 0.820407 0.173676
O O11 0.710433 0.400860 0.500000
O O12 0.745423 0.418045 0.311973
O O13 0.777675 0.500000 0.250000
O O14 0.838866 0.560705 0.359025
O O15 0.500000 0.949677 0.750000
O O16 0.469859 0.902902 0.605217
O O17 0.500000 0.000000 0.604328
O O18 0.555541 0.832131 0.000000
#
# Coordination Sequence:
#
# PCOD9498516 Si02
#       7
#    16  16  16  16  16  16  16
#     4  10  22  43  70  96 130 177 232 284 338 407
#     4  10  21  43  72 100 128 168 222 288 351 409
#     4  12  26  45  71 101 140 184 233 290 354 426
#     4  11  25  45  68  97 138 186 235 286 343 420
#     4  12  23  40  69 101 136 182 231 284 352 420
#     4  11  21  37  63  96 136 174 225 283 344 410
#     4  11  23  42  69  99 136 180 228 282 353 422
#
# _framework density 22.284334999999999
#
# number of rings (size 3 to 8) (size 9 to 14) (size 15 to 20)
#    0.000    1.000    4.286    3.000    0.000    3.429 
#    5.143    1.429    0.000    0.429    0.000    0.000 
#    0.000    0.000    0.000    0.000    0.000    0.000 
#
# Total GULP energy -312441.609346 kJ/mol
# GULP energy per Si atom -5579.314453 kJ/mol
# Density = 2.223361 g / cm^3
# Si number density = 22.284335 Si / 1000 Ang^3
#
#
#
# Elastic Constant Matrix: (Units=GPa)
#
#
# Indices 1 2 3 4 5 6 
#
# 1 103.8704 12.8402 21.3411 0.0000 0.0000 0.0000
# 2 12.8402 102.7211 16.7709 0.0000 0.0000 0.0000
# 3 21.3411 16.7709 82.4351 0.0000 0.0000 0.0000
# 4 0.0000 0.0000 0.0000 16.5392 0.0000 0.0000
# 5 0.0000 0.0000 0.0000 0.0000 19.0200 0.0000
# 6 0.0000 0.0000 0.0000 0.0000 0.0000 13.9835
#
#
#
# Elastic Compliance Matrix: (Units=1/GPa)
#
#
# Indices 1 2 3 4 5 6 
#
# 1 0.010244 -0.000877 -0.002474 0.000000 0.000000 0.000000
# 2 -0.000877 0.010145 -0.001837 0.000000 0.000000 0.000000
# 3 -0.002474 -0.001837 0.013145 0.000000 0.000000 0.000000
# 4 0.000000 0.000000 0.000000 0.060463 0.000000 0.000000
# 5 0.000000 0.000000 0.000000 0.000000 0.052576 0.000000
# 6 0.000000 0.000000 0.000000 0.000000 0.000000 0.071513
#
#
# Mechanical properties :
#
#
# Convention : Reuss Voigt Hill
#
# Bulk Modulus (GPa) = 43.17973 43.43680 43.30826
# Shear Modulus (GPa) = 21.17038 25.78016 23.47527
#
# Velocity S-wave (km/s) = 3.08557 3.40497 3.24920
# Velocity P-wave (km/s) = 5.66684 5.91548 5.79249
#
# Compressibility (1/GPa) = 0.02315901
#
# Stress axis : x y z
#
# Youngs Moduli (GPa) = 97.61829 98.57476 76.07544
#
# Poissons Ratio (x) = 0.08641 0.18818
# Poissons Ratio (y) = 0.08558 0.13974
# Poissons Ratio (z) = 0.24147 0.18107
#
# Static dielectric constant tensor:
#      x y z
#    x 1.916580 0.000000 0.000000 
#    y 0.000000 1.852730 0.000000 
#    z 0.000000 0.000000 1.857700 
# 
# From -- ./inp_files/26980.got.cif
#   From: 2010.05.17/outbox.cif.g08.bks.cpg/sg66_14_cif.got.tgz:26980.got - 2010.06.03 17:51:23.
