data_PCOD9498528
_publ_section_title
;
Structure prediction by ZEFSAII (Michael W. Deem and Ramdas Pophale) SiO2 
 PCOD9498528
Probable space group: C C C M
;
_chemical_formula_sum "Si O2"
_cell_formula_units_Z 60
_cell_length_a 5.000709
_cell_length_b 23.158942
_cell_length_c 21.094773
_cell_angle_alpha 90.000000
_cell_angle_beta 90.000000
_cell_angle_gamma 90.000000
_cell_volume 2443.009492
_symmetry_space_group_name_H-M "C C C M"
_symmetry_group_IT_number 66
_symmetry_cell_setting 'orthorhombic'
loop_
_space_group_symop_operation_xyz
x,y,z
-x,-y,z
x,-y,1/2-z
-x,y,1/2-z
-x,-y,-z
x,y,-z
-x,y,1/2+z
x,-y,1/2+z
1/2+x,1/2+y,z
1/2-x,1/2-y,z
1/2+x,1/2-y,1/2-z
1/2-x,1/2+y,1/2-z
1/2-x,1/2-y,-z
1/2+x,1/2+y,-z
1/2-x,1/2+y,1/2+z
1/2+x,1/2-y,1/2+z
loop_
_atom_site_type_symbol
_atom_site_label
_atom_site_fract_x
_atom_site_fract_y
_atom_site_fract_z
Si Si1 0.294909 0.926686 0.645188
Si Si2 0.727023 0.178594 0.000000
Si Si3 0.750000 0.750000 0.708704
Si Si4 0.344348 0.937842 0.500000
Si Si5 0.682780 0.641346 0.635507
Si Si6 0.000000 0.000000 0.250000
O O1 0.218113 0.941425 0.571464
O O2 0.608200 0.911207 0.642930
O O3 0.106617 0.872472 0.662262
O O4 0.199952 0.968701 0.700400
O O5 0.750000 0.250000 0.000000
O O6 0.482838 0.127966 0.000000
O O7 0.866064 0.159822 0.936194
O O8 0.500000 0.733478 0.750000
O O9 0.824374 0.695544 0.666692
O O10 0.500000 0.000000 0.500000
#
# Coordination Sequence:
#
# PCOD9498528 Si02
#       6
#    16   8   8   8  16   4
#     4  11  28  48  75 108 148 200 253 318 389 457
#     4  10  21  46  77 111 141 192 254 316 378 448
#     4  12  26  43  70 103 148 202 244 306 390 466
#     4  10  25  51  78 112 158 206 256 326 402 474
#     4  11  25  49  73 107 148 192 251 318 381 463
#     4  12  32  48  80 110 156 204 272 326 386 492
#
# _framework density 24.559873
#
# number of rings (size 3 to 8) (size 9 to 14) (size 15 to 20)
#    0.000    1.067    1.333    2.400   13.067    1.600 
#    0.000    2.667    0.000    0.000    0.000    0.000 
#    0.000    0.000    0.000    0.000    0.000    0.000 
#
# Total GULP energy -167060.328860 kJ/mol
# GULP energy per Si atom -5568.677629 kJ/mol
# Density = 2.450397 g / cm^3
# Si number density = 24.559873 Si / 1000 Ang^3
#
#
#
# Elastic Constant Matrix: (Units=GPa)
#
#
# Indices 1 2 3 4 5 6 
#
# 1 93.0089 46.1931 18.5560 0.0000 0.0000 0.0000
# 2 46.1931 142.6907 80.2766 0.0000 0.0000 0.0000
# 3 18.5560 80.2766 152.5875 0.0000 0.0000 0.0000
# 4 0.0000 0.0000 0.0000 33.9816 0.0000 0.0000
# 5 0.0000 0.0000 0.0000 0.0000 33.3397 0.0000
# 6 0.0000 0.0000 0.0000 0.0000 0.0000 32.4671
#
#
#
# Elastic Compliance Matrix: (Units=1/GPa)
#
#
# Indices 1 2 3 4 5 6 
#
# 1 0.012896 -0.004677 0.000892 0.000000 0.000000 0.000000
# 2 -0.004677 0.011651 -0.005561 0.000000 0.000000 0.000000
# 3 0.000892 -0.005561 0.009371 0.000000 0.000000 0.000000
# 4 0.000000 0.000000 0.000000 0.029428 0.000000 0.000000
# 5 0.000000 0.000000 0.000000 0.000000 0.029994 0.000000
# 6 0.000000 0.000000 0.000000 0.000000 0.000000 0.030800
#
#
# Mechanical properties :
#
#
# Convention : Reuss Voigt Hill
#
# Bulk Modulus (GPa) = 65.67309 75.37096 70.52202
# Shear Modulus (GPa) = 33.80518 36.17510 34.99014
#
# Velocity S-wave (km/s) = 3.71406 3.84205 3.77860
# Velocity P-wave (km/s) = 6.72238 7.10190 6.91475
#
# Compressibility (1/GPa) = 0.01522694
#
# Stress axis : x y z
#
# Youngs Moduli (GPa) = 77.54070 85.83257 106.71693
#
# Poissons Ratio (x) = 0.40143 -0.09521
# Poissons Ratio (y) = 0.36265 0.59342
# Poissons Ratio (z) = -0.06918 0.47728
#
# Static dielectric constant tensor:
#      x y z
#    x 2.083040 0.000000 0.000000 
#    y 0.000000 2.124440 0.000000 
#    z 0.000000 0.000000 1.883750 
# 
# From -- ./inp_files/45591.got.cif
#   From: 2010.05.17/outbox.cif.g08.bks.cpg/sg66_23_cif.got.tgz:45591.got - 2010.06.03 17:51:23.
