data_PCOD9498715
_publ_section_title
;
Structure prediction by ZEFSAII (Michael W. Deem and Ramdas Pophale) SiO2 
 PCOD9498715
Probable space group: C C C M
;
_chemical_formula_sum "Si O2"
_cell_formula_units_Z 64
_cell_length_a 23.487786
_cell_length_b 12.955337
_cell_length_c 9.719139
_cell_angle_alpha 90.000000
_cell_angle_beta 90.000000
_cell_angle_gamma 90.000000
_cell_volume 2957.458023
_symmetry_space_group_name_H-M "C C C M"
_symmetry_group_IT_number 66
_symmetry_cell_setting 'orthorhombic'
loop_
_space_group_symop_operation_xyz
x,y,z
-x,-y,z
x,-y,1/2-z
-x,y,1/2-z
-x,-y,-z
x,y,-z
-x,y,1/2+z
x,-y,1/2+z
1/2+x,1/2+y,z
1/2-x,1/2-y,z
1/2+x,1/2-y,1/2-z
1/2-x,1/2+y,1/2-z
1/2-x,1/2-y,-z
1/2+x,1/2+y,-z
1/2-x,1/2+y,1/2+z
1/2+x,1/2-y,1/2+z
loop_
_atom_site_type_symbol
_atom_site_label
_atom_site_fract_x
_atom_site_fract_y
_atom_site_fract_z
Si Si1 0.891560 0.777403 0.000000
Si Si2 0.485005 0.372890 0.500000
Si Si3 0.324860 0.871023 0.000000
Si Si4 0.104407 0.890249 0.222046
Si Si5 0.308475 0.000000 0.750000
Si Si6 0.811198 0.867725 0.500000
Si Si7 0.713746 0.143744 0.500000
O O1 0.875802 0.832163 0.143041
O O2 0.853791 0.673915 0.000000
O O3 0.959192 0.801670 0.000000
O O4 0.500000 0.500000 0.500000
O O5 0.445084 0.342010 0.370973
O O6 0.255678 0.874757 0.000000
O O7 0.334238 0.749857 0.000000
O O8 0.342235 0.927541 0.141049
O O9 0.159575 0.915346 0.131697
O O10 0.077221 0.000000 0.250000
O O11 0.276908 0.077298 0.859368
O O12 0.750000 0.250000 0.500000
#
# Coordination Sequence:
#
# PCOD9498715 Si02
#       7
#     8   8   8  16   8   8   8
#     4  12  23  36  65  90 130 181 220 270 326 417
#     4  11  21  40  55  89 138 176 212 261 346 415
#     4  10  22  40  60  83 125 171 223 276 339 386
#     4  11  22  35  57  90 131 175 210 267 335 416
#     4  10  24  44  66  88 135 179 216 306 330 394
#     4  10  23  36  55  85 122 169 218 261 327 411
#     4  11  27  46  68 106 136 182 245 280 348 420
#
# _framework density 21.640205999999999
#
# number of rings (size 3 to 8) (size 9 to 14) (size 15 to 20)
#    0.000    1.250    2.500    3.000    8.750    2.000 
#    0.000    0.000    0.000    0.000    0.000   59.500 
#    0.000    0.000    0.000    0.000    0.000    0.000 
#
# Total GULP energy -178221.490572 kJ/mol
# GULP energy per Si atom -5569.421580 kJ/mol
# Density = 2.159095 g / cm^3
# Si number density = 21.640206 Si / 1000 Ang^3
#
#
#
# Elastic Constant Matrix: (Units=GPa)
#
#
# Indices 1 2 3 4 5 6 
#
# 1 98.8344 7.9600 18.4893 0.0000 0.0000 0.0000
# 2 7.9600 92.2781 32.0573 0.0000 0.0000 0.0000
# 3 18.4893 32.0573 169.4506 0.0000 0.0000 0.0000
# 4 0.0000 0.0000 0.0000 40.2593 0.0000 0.0000
# 5 0.0000 0.0000 0.0000 0.0000 -33.1079 0.0000
# 6 0.0000 0.0000 0.0000 0.0000 0.0000 27.2305
#
#
#
# Elastic Compliance Matrix: (Units=1/GPa)
#
#
# Indices 1 2 3 4 5 6 
#
# 1 0.010353 -0.000536 -0.001028 0.000000 0.000000 0.000000
# 2 -0.000536 0.011627 -0.002141 0.000000 0.000000 0.000000
# 3 -0.001028 -0.002141 0.006419 0.000000 0.000000 0.000000
# 4 0.000000 0.000000 0.000000 0.024839 0.000000 0.000000
# 5 0.000000 0.000000 0.000000 0.000000 -0.030204 0.000000
# 6 0.000000 0.000000 0.000000 0.000000 0.000000 0.036724
#
#
# Mechanical properties :
#
#
# Convention : Reuss Voigt Hill
#
# Bulk Modulus (GPa) = 47.64546 53.06403 50.35474
# Shear Modulus (GPa) = 67.41811 27.01348 47.21579
#
# Velocity S-wave (km/s) = 5.58764 3.53696 4.67610
# Velocity P-wave (km/s) = 7.98084 6.42296 7.24390
#
# Compressibility (1/GPa) = 0.02098836
#
# Stress axis : x y z
#
# Youngs Moduli (GPa) = 96.58604 86.00774 155.79481
#
# Poissons Ratio (x) = 0.04609 0.16021
# Poissons Ratio (y) = 0.05176 0.33358
# Poissons Ratio (z) = 0.09932 0.18415
#
# Static dielectric constant tensor:
#      x y z
#    x 1.782490 0.000000 0.000000 
#    y 0.000000 1.830320 0.000000 
#    z 0.000000 0.000000 1.705350 
# 
# From -- ./inp_files/9961.got.cif
#   From: 2010.05.17/outbox.cif.g08.bks.cpg/sg66_5_cif.got.tgz:9961.got - 2010.06.03 17:51:23.
