data_PCOD9498716
_publ_section_title
;
Structure prediction by ZEFSAII (Michael W. Deem and Ramdas Pophale) SiO2 
 PCOD9498716
Probable space group: C C C M
;
_chemical_formula_sum "Si O2"
_cell_formula_units_Z 80
_cell_length_a 12.852428
_cell_length_b 12.639568
_cell_length_c 23.641755
_cell_angle_alpha 90.000000
_cell_angle_beta 90.000000
_cell_angle_gamma 90.000000
_cell_volume 3840.582713
_symmetry_space_group_name_H-M "C C C M"
_symmetry_group_IT_number 66
_symmetry_cell_setting 'orthorhombic'
loop_
_space_group_symop_operation_xyz
x,y,z
-x,-y,z
x,-y,1/2-z
-x,y,1/2-z
-x,-y,-z
x,y,-z
-x,y,1/2+z
x,-y,1/2+z
1/2+x,1/2+y,z
1/2-x,1/2-y,z
1/2+x,1/2-y,1/2-z
1/2-x,1/2+y,1/2-z
1/2-x,1/2-y,-z
1/2+x,1/2+y,-z
1/2-x,1/2+y,1/2+z
1/2+x,1/2-y,1/2+z
loop_
_atom_site_type_symbol
_atom_site_label
_atom_site_fract_x
_atom_site_fract_y
_atom_site_fract_z
Si Si1 0.216416 0.906169 0.622818
Si Si2 0.929708 0.599368 0.934924
Si Si3 0.008987 0.835873 0.436656
Si Si4 0.189862 0.852011 0.136129
Si Si5 0.382491 0.373287 0.242561
O O1 0.327730 0.869114 0.600658
O O2 0.122492 0.879652 0.579944
O O3 0.174917 0.860284 0.682661
O O4 0.237641 0.032350 0.627429
O O5 0.992836 0.708367 0.936147
O O6 0.000000 0.500000 0.914962
O O7 0.897693 0.574316 0.000000
O O8 0.981413 0.871211 0.500000
O O9 0.924206 0.867636 0.390721
O O10 0.250000 0.750000 0.111646
O O11 0.178135 0.834574 0.202828
O O12 0.389712 0.500000 0.250000
O O13 0.500000 0.330441 0.250000
#
# Coordination Sequence:
#
# PCOD9498716 Si02
#       5
#    16  16  16  16  16
#     4  11  21  38  64  87 117 158 202 252 297 362
#     4  10  22  40  60  87 125 161 198 248 308 368
#     4  11  23  38  59  88 118 156 206 249 296 368
#     4  11  23  38  59  87 122 154 195 250 310 361
#     4   9  18  37  60  83 113 151 197 247 297 353
#
# _framework density 20.830171
#
# number of rings (size 3 to 8) (size 9 to 14) (size 15 to 20)
#    0.000    1.600    2.000    3.000    0.000    6.000 
#    0.000    0.000    0.000    4.200    0.000    0.000 
#    0.000    0.000    0.000    0.000    0.000    0.000 
#
# Total GULP energy -223128.732476 kJ/mol
# GULP energy per Si atom -5578.218312 kJ/mol
# Density = 2.078276 g / cm^3
# Si number density = 20.830171 Si / 1000 Ang^3
#
#
#
# Elastic Constant Matrix: (Units=GPa)
#
#
# Indices 1 2 3 4 5 6 
#
# 1 66.6808 9.5882 17.4752 0.0000 0.0000 0.0000
# 2 9.5882 74.8594 1.1140 0.0000 0.0000 0.0000
# 3 17.4752 1.1140 90.9416 0.0000 0.0000 0.0000
# 4 0.0000 0.0000 0.0000 22.1012 0.0000 0.0000
# 5 0.0000 0.0000 0.0000 0.0000 21.1217 0.0000
# 6 0.0000 0.0000 0.0000 0.0000 0.0000 282.8618
#
#
#
# Elastic Compliance Matrix: (Units=1/GPa)
#
#
# Indices 1 2 3 4 5 6 
#
# 1 0.016090 -0.002015 -0.003067 0.000000 0.000000 0.000000
# 2 -0.002015 0.013613 0.000220 0.000000 0.000000 0.000000
# 3 -0.003067 0.000220 0.011583 0.000000 0.000000 0.000000
# 4 0.000000 0.000000 0.000000 0.045246 0.000000 0.000000
# 5 0.000000 0.000000 0.000000 0.000000 0.047345 0.000000
# 6 0.000000 0.000000 0.000000 0.000000 0.000000 0.003535
#
#
# Mechanical properties :
#
#
# Convention : Reuss Voigt Hill
#
# Bulk Modulus (GPa) = 31.68327 32.09297 31.88812
# Shear Modulus (GPa) = 31.71432 78.83724 55.27578
#
# Velocity S-wave (km/s) = 3.90618 6.15872 5.15694
# Velocity P-wave (km/s) = 5.96554 8.12487 7.12745
#
# Compressibility (1/GPa) = 0.03156240
#
# Stress axis : x y z
#
# Youngs Moduli (GPa) = 62.14868 73.45806 86.33523
#
# Poissons Ratio (x) = 0.14804 0.26481
# Poissons Ratio (y) = 0.12525 -0.01904
# Poissons Ratio (z) = 0.19062 -0.01620
#
# Static dielectric constant tensor:
#      x y z
#    x 1.735510 0.000000 0.000000 
#    y 0.000000 1.876950 0.000000 
#    z 0.000000 0.000000 1.754450 
# 
# From -- ./inp_files/56588.got.cif
#   From: 2010.05.17/outbox.cif.g08.bks.cpg/sg66_29_cif.got.tgz:56588.got - 2010.06.03 17:51:23.
