data_PCOD9498576
_publ_section_title
;
Structure prediction by ZEFSAII (Michael W. Deem and Ramdas Pophale) SiO2 
 PCOD9498576
Probable space group: C C C M
;
_chemical_formula_sum "Si O2"
_cell_formula_units_Z 80
_cell_length_a 16.339416
_cell_length_b 10.615770
_cell_length_c 21.791860
_cell_angle_alpha 90.000000
_cell_angle_beta 90.000000
_cell_angle_gamma 90.000000
_cell_volume 3779.917584
_symmetry_space_group_name_H-M "C C C M"
_symmetry_group_IT_number 66
_symmetry_cell_setting 'orthorhombic'
loop_
_space_group_symop_operation_xyz
x,y,z
-x,-y,z
x,-y,1/2-z
-x,y,1/2-z
-x,-y,-z
x,y,-z
-x,y,1/2+z
x,-y,1/2+z
1/2+x,1/2+y,z
1/2-x,1/2-y,z
1/2+x,1/2-y,1/2-z
1/2-x,1/2+y,1/2-z
1/2-x,1/2-y,-z
1/2+x,1/2+y,-z
1/2-x,1/2+y,1/2+z
1/2+x,1/2-y,1/2+z
loop_
_atom_site_type_symbol
_atom_site_label
_atom_site_fract_x
_atom_site_fract_y
_atom_site_fract_z
Si Si1 0.031011 0.624329 0.103377
Si Si2 0.423508 0.223927 0.790479
Si Si3 0.310125 0.871514 0.818321
Si Si4 0.655125 0.525382 0.819842
Si Si5 0.429092 0.602622 0.065753
O O1 0.123670 0.615401 0.128157
O O2 0.031489 0.759662 0.071366
O O3 0.000000 0.500000 0.069570
O O4 0.968581 0.635241 0.161038
O O5 0.500000 0.277024 0.750000
O O6 0.363088 0.156286 0.742790
O O7 0.374069 0.331506 0.827066
O O8 0.250000 0.750000 0.824649
O O9 0.250807 0.991890 0.818791
O O10 0.626361 0.500000 0.750000
O O11 0.618737 0.435138 0.872356
O O12 0.500000 0.500000 0.063688
O O13 0.383012 0.596227 0.000000
#
# Coordination Sequence:
#
# PCOD9498576 Si02
#       5
#    16  16  16  16  16
#     4  11  24  40  62  93 138 178 221 276 349 402
#     4  10  22  37  59  92 136 177 217 274 331 410
#     4  11  22  37  57 100 137 175 213 279 342 405
#     4  12  22  37  68  95 136 168 230 277 341 392
#     4  11  24  44  70  99 131 179 240 288 333 411
#
# _framework density 21.164482
#
# number of rings (size 3 to 8) (size 9 to 14) (size 15 to 20)
#    0.000    1.000    6.000    1.200    2.800    3.200 
#    0.000    2.000    0.000    0.000    0.000    5.600 
#    0.000    0.000    0.000    0.000    0.000    0.000 
#
# Total GULP energy -223251.165488 kJ/mol
# GULP energy per Si atom -5581.279137 kJ/mol
# Density = 2.111631 g / cm^3
# Si number density = 21.164482 Si / 1000 Ang^3
#
#
#
# Elastic Constant Matrix: (Units=GPa)
#
#
# Indices 1 2 3 4 5 6 
#
# 1 122.0446 64.9212 37.8579 0.0000 0.0000 0.0000
# 2 64.9212 135.5015 35.8698 0.0000 0.0000 0.0000
# 3 37.8579 35.8698 116.0582 0.0000 0.0000 0.0000
# 4 0.0000 0.0000 0.0000 -36.9455 0.0000 0.0000
# 5 0.0000 0.0000 0.0000 0.0000 -4.2874 0.0000
# 6 0.0000 0.0000 0.0000 0.0000 0.0000 44.2164
#
#
#
# Elastic Compliance Matrix: (Units=1/GPa)
#
#
# Indices 1 2 3 4 5 6 
#
# 1 0.011504 -0.004921 -0.002232 0.000000 0.000000 0.000000
# 2 -0.004921 0.010143 -0.001530 0.000000 0.000000 0.000000
# 3 -0.002232 -0.001530 0.009817 0.000000 0.000000 0.000000
# 4 0.000000 0.000000 0.000000 -0.027067 0.000000 0.000000
# 5 0.000000 0.000000 0.000000 0.000000 -0.233242 0.000000
# 6 0.000000 0.000000 0.000000 0.000000 0.000000 0.022616
#
#
# Mechanical properties :
#
#
# Convention : Reuss Voigt Hill
#
# Bulk Modulus (GPa) = 70.92586 72.32245 71.62415
# Shear Modulus (GPa) = -27.14936 16.26038 -5.44449
#
# Velocity S-wave (km/s) = -3.58548 2.77480 -1.60563
# Velocity P-wave (km/s) = 4.05508 6.67172 5.52067
#
# Compressibility (1/GPa) = 0.01409923
#
# Stress axis : x y z
#
# Youngs Moduli (GPa) = 86.92960 98.59450 101.86366
#
# Poissons Ratio (x) = 0.48517 0.22732
# Poissons Ratio (y) = 0.42777 0.15581
# Poissons Ratio (z) = 0.19399 0.15081
#
# Static dielectric constant tensor:
#      x y z
#    x 1.749360 0.000000 0.000000 
#    y 0.000000 1.839500 0.000000 
#    z 0.000000 0.000000 1.833960 
# 
# From -- ./inp_files/57870.got.cif
#   From: 2010.05.17/outbox.cif.g08.bks.cpg/sg66_29_cif.got.tgz:57870.got - 2010.06.03 17:51:23.
