data_PCOD9498637
_publ_section_title
;
Structure prediction by ZEFSAII (Michael W. Deem and Ramdas Pophale) SiO2 
 PCOD9498637
Probable space group: C C C M
;
_chemical_formula_sum "Si O2"
_cell_formula_units_Z 80
_cell_length_a 8.002411
_cell_length_b 16.881949
_cell_length_c 30.952477
_cell_angle_alpha 90.000000
_cell_angle_beta 90.000000
_cell_angle_gamma 90.000000
_cell_volume 4181.564945
_symmetry_space_group_name_H-M "C C C M"
_symmetry_group_IT_number 66
_symmetry_cell_setting 'orthorhombic'
loop_
_space_group_symop_operation_xyz
x,y,z
-x,-y,z
x,-y,1/2-z
-x,y,1/2-z
-x,-y,-z
x,y,-z
-x,y,1/2+z
x,-y,1/2+z
1/2+x,1/2+y,z
1/2-x,1/2-y,z
1/2+x,1/2-y,1/2-z
1/2-x,1/2+y,1/2-z
1/2-x,1/2-y,-z
1/2+x,1/2+y,-z
1/2-x,1/2+y,1/2+z
1/2+x,1/2-y,1/2+z
loop_
_atom_site_type_symbol
_atom_site_label
_atom_site_fract_x
_atom_site_fract_y
_atom_site_fract_z
Si Si1 0.119143 0.427134 0.121873
Si Si2 0.306503 0.521634 0.049014
Si Si3 0.704778 0.157402 0.794888
Si Si4 0.790073 0.658051 0.610496
Si Si5 0.800959 0.342390 0.701328
O O1 0.210956 0.460085 0.079916
O O2 0.238966 0.395316 0.159654
O O3 0.000000 0.500000 0.137475
O O4 0.989128 0.357910 0.109745
O O5 0.500000 0.500000 0.047884
O O6 0.285666 0.605651 0.072704
O O7 0.241139 0.522466 0.000000
O O8 0.750000 0.250000 0.793733
O O9 0.768402 0.128524 0.841500
O O10 0.762600 0.126839 0.748008
O O11 0.503341 0.152468 0.796395
O O12 0.750000 0.750000 0.606804
O O13 0.750000 0.250000 0.695983
#
# Coordination Sequence:
#
# PCOD9498637 Si02
#       5
#    16  16  16  16  16
#     4   9  19  34  52  76 104 137 168 204 256 304
#     4  10  22  39  55  72  99 133 166 210 268 313
#     4   8  15  28  46  74 107 135 163 201 245 288
#     4   9  18  34  56  79 102 132 172 209 243 296
#     4   9  16  28  49  75 103 136 171 202 237 289
#
# _framework density 19.131594
#
# number of rings (size 3 to 8) (size 9 to 14) (size 15 to 20)
#    0.000    3.000    0.000    0.000    0.000    8.800 
#    0.000   17.000    0.000    4.200    0.000    0.000 
#    0.000    0.000    0.000    0.000    0.000    0.000 
#
# Total GULP energy -222675.816955 kJ/mol
# GULP energy per Si atom -5566.895424 kJ/mol
# Density = 1.908805 g / cm^3
# Si number density = 19.131594 Si / 1000 Ang^3
#
#
#
# Elastic Constant Matrix: (Units=GPa)
#
#
# Indices 1 2 3 4 5 6 
#
# 1 22.2632 24.0923 26.6186 0.0000 0.0000 0.0000
# 2 24.0923 74.8623 78.5510 0.0000 0.0000 0.0000
# 3 26.6186 78.5510 215.4878 0.0000 0.0000 0.0000
# 4 0.0000 0.0000 0.0000 25.8567 0.0000 0.0000
# 5 0.0000 0.0000 0.0000 0.0000 3.4762 0.0000
# 6 0.0000 0.0000 0.0000 0.0000 0.0000 26.2134
#
#
#
# Elastic Compliance Matrix: (Units=1/GPa)
#
#
# Indices 1 2 3 4 5 6 
#
# 1 0.068983 -0.021472 -0.000694 0.000000 0.000000 0.000000
# 2 -0.021472 0.028315 -0.007669 0.000000 0.000000 0.000000
# 3 -0.000694 -0.007669 0.007522 0.000000 0.000000 0.000000
# 4 0.000000 0.000000 0.000000 0.038675 0.000000 0.000000
# 5 0.000000 0.000000 0.000000 0.000000 0.287669 0.000000
# 6 0.000000 0.000000 0.000000 0.000000 0.000000 0.038148
#
#
# Mechanical properties :
#
#
# Convention : Reuss Voigt Hill
#
# Bulk Modulus (GPa) = 22.14861 63.45969 42.80415
# Shear Modulus (GPa) = 9.19062 23.33268 16.26165
#
# Velocity S-wave (km/s) = 2.19416 3.49605 2.91862
# Velocity P-wave (km/s) = 4.24514 7.03837 5.81205
#
# Compressibility (1/GPa) = 0.04514955
#
# Stress axis : x y z
#
# Youngs Moduli (GPa) = 14.49633 35.31685 132.94272
#
# Poissons Ratio (x) = 0.75832 0.09229
# Poissons Ratio (y) = 0.31126 1.01957
# Poissons Ratio (z) = 0.01006 0.27085
#
# Static dielectric constant tensor:
#      x y z
#    x 1.696960 0.000000 0.000000 
#    y 0.000000 1.661900 0.000000 
#    z 0.000000 0.000000 1.749370 
# 
# From -- ./inp_files/62383.got.cif
#   From: 2010.05.17/outbox.cif.g08.bks.cpg/sg66_32_cif.got.tgz:62383.got - 2010.06.03 17:51:23.
