data_PCOD9498412
_publ_section_title
;
Structure prediction by ZEFSAII (Michael W. Deem and Ramdas Pophale) SiO2 
 PCOD9498412
Probable space group: C C C M
;
_chemical_formula_sum "Si O2"
_cell_formula_units_Z 44
_cell_length_a 7.397402
_cell_length_b 7.592217
_cell_length_c 32.029838
_cell_angle_alpha 90.000000
_cell_angle_beta 90.000000
_cell_angle_gamma 90.000000
_cell_volume 1798.881581
_symmetry_space_group_name_H-M "C C C M"
_symmetry_group_IT_number 66
_symmetry_cell_setting 'orthorhombic'
loop_
_space_group_symop_operation_xyz
x,y,z
-x,-y,z
x,-y,1/2-z
-x,y,1/2-z
-x,-y,-z
x,y,-z
-x,y,1/2+z
x,-y,1/2+z
1/2+x,1/2+y,z
1/2-x,1/2-y,z
1/2+x,1/2-y,1/2-z
1/2-x,1/2+y,1/2-z
1/2-x,1/2-y,-z
1/2+x,1/2+y,-z
1/2-x,1/2+y,1/2+z
1/2+x,1/2-y,1/2+z
loop_
_atom_site_type_symbol
_atom_site_label
_atom_site_fract_x
_atom_site_fract_y
_atom_site_fract_z
Si Si1 0.750000 0.250000 0.806638
Si Si2 0.463361 0.708377 0.045075
Si Si3 0.000000 0.500000 0.750000
Si Si4 0.052529 0.297935 0.137347
O O1 0.635115 0.121355 0.777099
O O2 0.598234 0.318478 0.839277
O O3 0.500000 0.500000 0.045240
O O4 0.250000 0.750000 0.047334
O O5 0.547744 0.778956 0.087453
O O6 0.529691 0.778876 0.000000
O O7 0.250000 0.250000 0.153313
O O8 0.000000 0.500000 0.145358
#
# Coordination Sequence:
#
# PCOD9498412 Si02
#       4
#     8  16   4  16
#     4  12  30  58  77 124 144 208 243 332 376 488
#     4  10  21  40  68 105 153 205 255 308 368 442
#     4  12  32  52  88 104 164 186 260 310 412 446
#     4  12  27  46  78 112 153 202 254 314 378 452
#
# _framework density 24.459643
#
# number of rings (size 3 to 8) (size 9 to 14) (size 15 to 20)
#    0.000    0.727    3.636    2.182    2.545    5.091 
#    0.000    0.000    0.000    0.000    0.000    0.000 
#    0.000    0.000    0.000    0.000    0.000    0.000 
#
# Total GULP energy -123107.123653 kJ/mol
# GULP energy per Si atom -5595.778348 kJ/mol
# Density = 2.440397 g / cm^3
# Si number density = 24.459643 Si / 1000 Ang^3
#
#
#
# Elastic Constant Matrix: (Units=GPa)
#
#
# Indices 1 2 3 4 5 6 
#
# 1 232.5694 60.5837 67.3981 0.0000 0.0000 0.0000
# 2 60.5837 120.1837 40.7136 0.0000 0.0000 0.0000
# 3 67.3981 40.7136 177.2320 0.0000 0.0000 0.0000
# 4 0.0000 0.0000 0.0000 158.0651 0.0000 0.0000
# 5 0.0000 0.0000 0.0000 0.0000 108.2987 0.0000
# 6 0.0000 0.0000 0.0000 0.0000 0.0000 51.9247
#
#
#
# Elastic Compliance Matrix: (Units=1/GPa)
#
#
# Indices 1 2 3 4 5 6 
#
# 1 0.005303 -0.002158 -0.001521 0.000000 0.000000 0.000000
# 2 -0.002158 0.009901 -0.001454 0.000000 0.000000 0.000000
# 3 -0.001521 -0.001454 0.006555 0.000000 0.000000 0.000000
# 4 0.000000 0.000000 0.000000 0.006327 0.000000 0.000000
# 5 0.000000 0.000000 0.000000 0.000000 0.009234 0.000000
# 6 0.000000 0.000000 0.000000 0.000000 0.000000 0.019259
#
#
# Mechanical properties :
#
#
# Convention : Reuss Voigt Hill
#
# Bulk Modulus (GPa) = 87.00808 96.37509 91.69159
# Shear Modulus (GPa) = 70.74843 87.74369 79.24606
#
# Velocity S-wave (km/s) = 5.38399 5.99589 5.69816
# Velocity P-wave (km/s) = 8.61969 9.34995 8.99224
#
# Compressibility (1/GPa) = 0.01149319
#
# Stress axis : x y z
#
# Youngs Moduli (GPa) = 188.58590 101.00148 152.56401
#
# Poissons Ratio (x) = 0.21794 0.23202
# Poissons Ratio (y) = 0.40694 0.22180
# Poissons Ratio (z) = 0.28680 0.14684
#
# Static dielectric constant tensor:
#      x y z
#    x 1.787910 0.000000 0.000000 
#    y 0.000000 1.882020 0.000000 
#    z 0.000000 0.000000 1.997270 
# 
# From -- ./inp_files/67690.got.cif
#   From: 2010.05.17/outbox.cif.g08.bks.cpg/sg66_34_cif.got.tgz:67690.got - 2010.06.03 17:51:23.
