data_PCOD9498484
_publ_section_title
;
Structure prediction by ZEFSAII (Michael W. Deem and Ramdas Pophale) SiO2 
 PCOD9498484
Probable space group: C C C M
;
_chemical_formula_sum "Si O2"
_cell_formula_units_Z 96
_cell_length_a 17.525068
_cell_length_b 14.835066
_cell_length_c 18.077297
_cell_angle_alpha 90.000000
_cell_angle_beta 90.000000
_cell_angle_gamma 90.000000
_cell_volume 4699.835830
_symmetry_space_group_name_H-M "C C C M"
_symmetry_group_IT_number 66
_symmetry_cell_setting 'orthorhombic'
loop_
_space_group_symop_operation_xyz
x,y,z
-x,-y,z
x,-y,1/2-z
-x,y,1/2-z
-x,-y,-z
x,y,-z
-x,y,1/2+z
x,-y,1/2+z
1/2+x,1/2+y,z
1/2-x,1/2-y,z
1/2+x,1/2-y,1/2-z
1/2-x,1/2+y,1/2-z
1/2-x,1/2-y,-z
1/2+x,1/2+y,-z
1/2-x,1/2+y,1/2+z
1/2+x,1/2-y,1/2+z
loop_
_atom_site_type_symbol
_atom_site_label
_atom_site_fract_x
_atom_site_fract_y
_atom_site_fract_z
Si Si1 0.008221 0.101884 0.915033
Si Si2 0.766391 0.475536 0.168852
Si Si3 0.608773 0.830252 0.681533
Si Si4 0.437586 0.779306 0.653613
Si Si5 0.791279 0.660565 0.914888
Si Si6 0.335015 0.329264 0.415017
O O1 0.922556 0.138723 0.918108
O O2 0.053250 0.173345 0.865035
O O3 0.039000 0.099653 0.000000
O O4 0.000000 0.000000 0.887257
O O5 0.736518 0.500000 0.250000
O O6 0.848613 0.425888 0.178227
O O7 0.771779 0.568947 0.125918
O O8 0.713118 0.405744 0.125777
O O9 0.521513 0.824562 0.652635
O O10 0.600031 0.796627 0.766174
O O11 0.659710 0.761999 0.632729
O O12 0.381096 0.821725 0.594132
O O13 0.750000 0.750000 0.883621
O O14 0.768524 0.652210 0.000000
O O15 0.310108 0.317479 0.500000
#
# Coordination Sequence:
#
# PCOD9498484 Si02
#       6
#    16  16  16  16  16  16
#     4   9  19  36  63  95 130 174 216 265 328 391
#     4  12  25  41  65  96 131 175 219 270 329 396
#     4  10  23  42  66  95 129 171 219 274 326 384
#     4  10  21  42  65  93 131 172 220 273 328 387
#     4  11  26  44  66  96 132 173 218 273 333 397
#     4  10  23  41  63  95 131 168 215 271 326 386
#
# _framework density 20.426245999999999
#
# number of rings (size 3 to 8) (size 9 to 14) (size 15 to 20)
#    0.000    1.667    1.667    1.500    4.667    3.333 
#    0.000    6.667    0.000    0.000    0.000    0.000 
#    0.000    0.000    0.000    0.000    0.000    0.000 
#
# Total GULP energy -268115.300221 kJ/mol
# GULP energy per Si atom -5585.735421 kJ/mol
# Density = 2.037976 g / cm^3
# Si number density = 20.426246 Si / 1000 Ang^3
#
#
#
# Elastic Constant Matrix: (Units=GPa)
#
#
# Indices 1 2 3 4 5 6 
#
# 1 47.4470 35.7587 41.7065 0.0000 0.0000 0.0000
# 2 35.7587 147.7624 70.1616 0.0000 0.0000 0.0000
# 3 41.7065 70.1616 97.2423 0.0000 0.0000 0.0000
# 4 0.0000 0.0000 0.0000 27.9390 0.0000 0.0000
# 5 0.0000 0.0000 0.0000 0.0000 31.1876 0.0000
# 6 0.0000 0.0000 0.0000 0.0000 0.0000 27.5950
#
#
#
# Elastic Compliance Matrix: (Units=1/GPa)
#
#
# Indices 1 2 3 4 5 6 
#
# 1 0.034213 -0.001996 -0.013234 0.000000 0.000000 0.000000
# 2 -0.001996 0.010411 -0.006656 0.000000 0.000000 0.000000
# 3 -0.013234 -0.006656 0.020761 0.000000 0.000000 0.000000
# 4 0.000000 0.000000 0.000000 0.035792 0.000000 0.000000
# 5 0.000000 0.000000 0.000000 0.000000 0.032064 0.000000
# 6 0.000000 0.000000 0.000000 0.000000 0.000000 0.036238
#
#
# Mechanical properties :
#
#
# Convention : Reuss Voigt Hill
#
# Bulk Modulus (GPa) = 46.26389 65.30057 55.78223
# Shear Modulus (GPa) = 22.68035 26.99930 24.83982
#
# Velocity S-wave (km/s) = 3.33581 3.63959 3.49101
# Velocity P-wave (km/s) = 6.12660 7.04986 6.60439
#
# Compressibility (1/GPa) = 0.02161513
#
# Stress axis : x y z
#
# Youngs Moduli (GPa) = 29.22873 96.05354 48.16613
#
# Poissons Ratio (x) = 0.19171 0.63741
# Poissons Ratio (y) = 0.05834 0.32057
# Poissons Ratio (z) = 0.38680 0.63929
#
# Static dielectric constant tensor:
#      x y z
#    x 1.736250 0.000000 0.000000 
#    y 0.000000 1.703190 0.000000 
#    z 0.000000 0.000000 1.729980 
# 
# From -- ./inp_files/31207.got.cif
#   From: 2010.05.17/outbox.cif.g08.bks.cpg/sg66_16_cif.got.tgz:31207.got - 2010.06.03 17:51:23.
