data_PCOD9498209
_publ_section_title
;
Structure prediction by ZEFSAII (Michael W. Deem and Ramdas Pophale) SiO2 
 PCOD9498209
Probable space group: C C C M
;
_chemical_formula_sum "Si O2"
_cell_formula_units_Z 88
_cell_length_a 17.746717
_cell_length_b 17.859170
_cell_length_c 14.566734
_cell_angle_alpha 90.000000
_cell_angle_beta 90.000000
_cell_angle_gamma 90.000000
_cell_volume 4616.804503
_symmetry_space_group_name_H-M "C C C M"
_symmetry_group_IT_number 66
_symmetry_cell_setting 'orthorhombic'
loop_
_space_group_symop_operation_xyz
x,y,z
-x,-y,z
x,-y,1/2-z
-x,y,1/2-z
-x,-y,-z
x,y,-z
-x,y,1/2+z
x,-y,1/2+z
1/2+x,1/2+y,z
1/2-x,1/2-y,z
1/2+x,1/2-y,1/2-z
1/2-x,1/2+y,1/2-z
1/2-x,1/2-y,-z
1/2+x,1/2+y,-z
1/2-x,1/2+y,1/2+z
1/2+x,1/2-y,1/2+z
loop_
_atom_site_type_symbol
_atom_site_label
_atom_site_fract_x
_atom_site_fract_y
_atom_site_fract_z
Si Si1 0.089079 0.482648 0.500000
Si Si2 0.968973 0.130737 0.650319
Si Si3 0.647396 0.423439 0.500000
Si Si4 0.080453 0.694582 0.345433
Si Si5 0.083332 0.354431 0.362471
Si Si6 0.092443 0.089651 0.500000
Si Si7 0.337834 0.745366 0.000000
Si Si8 0.817656 0.635966 0.000000
O O1 0.107676 0.431445 0.410632
O O2 0.137497 0.557422 0.500000
O O3 0.000000 0.500000 0.500000
O O4 0.897082 0.100065 0.593309
O O5 0.948178 0.219336 0.658446
O O6 0.000000 0.107100 0.750000
O O7 0.037093 0.103829 0.585478
O O8 0.638328 0.513117 0.500000
O O9 0.729663 0.385435 0.500000
O O10 0.095093 0.659213 0.245289
O O11 0.150975 0.681781 0.412053
O O12 0.006013 0.652347 0.381966
O O13 0.124741 0.286904 0.413945
O O14 0.147120 0.158656 0.500000
O O15 0.250000 0.750000 0.000000
#
# Coordination Sequence:
#
# PCOD9498209 Si02
#       8
#     8  16   8  16  16   8   8   8
#     4  11  21  37  64  87 130 180 214 251 323 395
#     4  11  21  43  72  94 117 169 223 277 319 387
#     4  11  29  41  61 100 139 174 208 268 346 401
#     4  11  20  40  70  92 126 162 226 273 315 391
#     4  10  21  39  61 100 118 164 227 267 314 385
#     4  11  22  42  62  91 129 164 221 256 314 406
#     4  11  21  38  64  91 123 164 211 277 325 364
#     4  12  25  44  59  95 144 180 206 270 339 401
#
# _framework density 19.060801999999999
#
# number of rings (size 3 to 8) (size 9 to 14) (size 15 to 20)
#    0.000    1.091    5.455    2.727    2.545    3.636 
#    6.545    1.818    0.000    0.000    0.000    0.000 
#    0.000    0.000    0.000    0.000    0.000    0.000 
#
# Total GULP energy -245304.383272 kJ/mol
# GULP energy per Si atom -5575.099620 kJ/mol
# Density = 1.901742 g / cm^3
# Si number density = 19.060802 Si / 1000 Ang^3
#
#
#
# Elastic Constant Matrix: (Units=GPa)
#
#
# Indices 1 2 3 4 5 6 
#
# 1 134.4255 16.4012 60.8555 0.0000 0.0000 0.0000
# 2 16.4012 68.0285 26.3470 0.0000 0.0000 0.0000
# 3 60.8555 26.3470 149.3399 0.0000 0.0000 0.0000
# 4 0.0000 0.0000 0.0000 10.4622 0.0000 0.0000
# 5 0.0000 0.0000 0.0000 0.0000 13.6649 0.0000
# 6 0.0000 0.0000 0.0000 0.0000 0.0000 11.2205
#
#
#
# Elastic Compliance Matrix: (Units=1/GPa)
#
#
# Indices 1 2 3 4 5 6 
#
# 1 0.009164 -0.000819 -0.003590 0.000000 0.000000 0.000000
# 2 -0.000819 0.015851 -0.002463 0.000000 0.000000 0.000000
# 3 -0.003590 -0.002463 0.008593 0.000000 0.000000 0.000000
# 4 0.000000 0.000000 0.000000 0.095582 0.000000 0.000000
# 5 0.000000 0.000000 0.000000 0.000000 0.073180 0.000000
# 6 0.000000 0.000000 0.000000 0.000000 0.000000 0.089123
#
#
# Mechanical properties :
#
#
# Convention : Reuss Voigt Hill
#
# Bulk Modulus (GPa) = 50.33900 62.11126 56.22513
# Shear Modulus (GPa) = 16.03293 23.61555 19.82424
#
# Velocity S-wave (km/s) = 2.90340 3.52370 3.22848
# Velocity P-wave (km/s) = 6.14058 7.01512 6.59237
#
# Compressibility (1/GPa) = 0.01986531
#
# Stress axis : x y z
#
# Youngs Moduli (GPa) = 109.12070 63.08760 116.36746
#
# Poissons Ratio (x) = 0.05167 0.41774
# Poissons Ratio (y) = 0.08938 0.28658
# Poissons Ratio (z) = 0.39173 0.15537
#
# Static dielectric constant tensor:
#      x y z
#    x 1.633910 0.000000 0.000000 
#    y 0.000000 1.688050 0.000000 
#    z 0.000000 0.000000 1.744200 
# 
# From -- ./inp_files/30078.got.cif
#   From: 2010.05.17/outbox.cif.g08.bks.cpg/sg66_16_cif.got.tgz:30078.got - 2010.06.03 17:51:23.
