data_PCOD9498561
_publ_section_title
;
Structure prediction by ZEFSAII (Michael W. Deem and Ramdas Pophale) SiO2 
 PCOD9498561
Probable space group: C C C M
;
_chemical_formula_sum "Si O2"
_cell_formula_units_Z 64
_cell_length_a 10.136809
_cell_length_b 11.951941
_cell_length_c 23.784660
_cell_angle_alpha 90.000000
_cell_angle_beta 90.000000
_cell_angle_gamma 90.000000
_cell_volume 2881.619615
_symmetry_space_group_name_H-M "C C C M"
_symmetry_group_IT_number 66
_symmetry_cell_setting 'orthorhombic'
loop_
_space_group_symop_operation_xyz
x,y,z
-x,-y,z
x,-y,1/2-z
-x,y,1/2-z
-x,-y,-z
x,y,-z
-x,y,1/2+z
x,-y,1/2+z
1/2+x,1/2+y,z
1/2-x,1/2-y,z
1/2+x,1/2-y,1/2-z
1/2-x,1/2+y,1/2-z
1/2-x,1/2-y,-z
1/2+x,1/2+y,-z
1/2-x,1/2+y,1/2+z
1/2+x,1/2-y,1/2+z
loop_
_atom_site_type_symbol
_atom_site_label
_atom_site_fract_x
_atom_site_fract_y
_atom_site_fract_z
Si Si1 0.084881 0.611582 0.878710
Si Si2 0.904342 0.607986 0.500000
Si Si3 0.946467 0.152715 0.376662
Si Si4 0.607542 0.311218 0.500000
Si Si5 0.816005 0.022125 0.815263
O O1 0.185409 0.592740 0.828101
O O2 0.000000 0.500000 0.880977
O O3 0.988309 0.717520 0.873943
O O4 0.163914 0.614405 0.938960
O O5 0.000000 0.500000 0.500000
O O6 0.999971 0.713642 0.500000
O O7 0.916991 0.124952 0.441853
O O8 0.070142 0.092640 0.346633
O O9 0.821392 0.100823 0.344078
O O10 0.750000 0.250000 0.500000
O O11 0.838816 0.000000 0.750000
#
# Coordination Sequence:
#
# PCOD9498561 Si02
#       5
#    16   8  16   8  16
#     4  10  22  41  66 102 127 168 219 271 338 396
#     4   8  18  35  60  93 135 156 196 274 328 401
#     4  10  23  43  66  95 135 170 215 276 337 401
#     4  10  22  36  66 106 128 166 217 274 351 413
#     4  11  25  46  64  91 133 183 229 269 329 394
#
# _framework density 22.209731000000001
#
# number of rings (size 3 to 8) (size 9 to 14) (size 15 to 20)
#    0.000    2.000    0.000    2.250   10.500    3.500 
#   13.500    3.750    0.000    0.000    0.000    0.000 
#    0.000    0.000    0.000    0.000    0.000    0.000 
#
# Total GULP energy -178366.080131 kJ/mol
# GULP energy per Si atom -5573.940004 kJ/mol
# Density = 2.215918 g / cm^3
# Si number density = 22.209731 Si / 1000 Ang^3
#
#
#
# Elastic Constant Matrix: (Units=GPa)
#
#
# Indices 1 2 3 4 5 6 
#
# 1 45.8670 2.3210 34.0442 0.0000 0.0000 0.0000
# 2 2.3210 112.6341 42.8295 0.0000 0.0000 0.0000
# 3 34.0442 42.8295 200.7997 0.0000 0.0000 0.0000
# 4 0.0000 0.0000 0.0000 28.6782 0.0000 0.0000
# 5 0.0000 0.0000 0.0000 0.0000 86.9140 0.0000
# 6 0.0000 0.0000 0.0000 0.0000 0.0000 26.5363
#
#
#
# Elastic Compliance Matrix: (Units=1/GPa)
#
#
# Indices 1 2 3 4 5 6 
#
# 1 0.025088 0.001198 -0.004509 0.000000 0.000000 0.000000
# 2 0.001198 0.009719 -0.002276 0.000000 0.000000 0.000000
# 3 -0.004509 -0.002276 0.006230 0.000000 0.000000 0.000000
# 4 0.000000 0.000000 0.000000 0.034870 0.000000 0.000000
# 5 0.000000 0.000000 0.000000 0.000000 0.011506 0.000000
# 6 0.000000 0.000000 0.000000 0.000000 0.000000 0.037684
#
#
# Mechanical properties :
#
#
# Convention : Reuss Voigt Hill
#
# Bulk Modulus (GPa) = 33.48684 57.52113 45.50399
# Shear Modulus (GPa) = 34.19359 47.09943 40.64651
#
# Velocity S-wave (km/s) = 3.92800 4.61007 4.28263
# Velocity P-wave (km/s) = 5.97349 7.36833 6.70726
#
# Compressibility (1/GPa) = 0.02986248
#
# Stress axis : x y z
#
# Youngs Moduli (GPa) = 39.85922 102.89005 160.51281
#
# Poissons Ratio (x) = -0.12322 0.72375
# Poissons Ratio (y) = -0.04773 0.36534
# Poissons Ratio (z) = 0.17972 0.23419
#
# Static dielectric constant tensor:
#      x y z
#    x 1.860630 0.000000 0.000000 
#    y 0.000000 1.847480 0.000000 
#    z 0.000000 0.000000 1.870530 
# 
# From -- ./inp_files/56372.got.cif
#   From: 2010.05.17/outbox.cif.g08.bks.cpg/sg66_29_cif.got.tgz:56372.got - 2010.06.03 17:51:23.
