data_PCOD9498985
_publ_section_title
;
Structure prediction by ZEFSAII (Michael W. Deem and Ramdas Pophale) SiO2 
 PCOD9498985
Probable space group: C C C M
;
_chemical_formula_sum "Si O2"
_cell_formula_units_Z 116
_cell_length_a 8.419908
_cell_length_b 27.692126
_cell_length_c 20.974435
_cell_angle_alpha 90.000000
_cell_angle_beta 90.000000
_cell_angle_gamma 90.000000
_cell_volume 4890.507351
_symmetry_space_group_name_H-M "C C C M"
_symmetry_group_IT_number 66
_symmetry_cell_setting 'orthorhombic'
loop_
_space_group_symop_operation_xyz
x,y,z
-x,-y,z
x,-y,1/2-z
-x,y,1/2-z
-x,-y,-z
x,y,-z
-x,y,1/2+z
x,-y,1/2+z
1/2+x,1/2+y,z
1/2-x,1/2-y,z
1/2+x,1/2-y,1/2-z
1/2-x,1/2+y,1/2-z
1/2-x,1/2-y,-z
1/2+x,1/2+y,-z
1/2-x,1/2+y,1/2+z
1/2+x,1/2-y,1/2+z
loop_
_atom_site_type_symbol
_atom_site_label
_atom_site_fract_x
_atom_site_fract_y
_atom_site_fract_z
Si Si1 0.774102 0.922805 0.904025
Si Si2 0.427442 0.828856 0.569372
Si Si3 0.186052 0.443319 0.239995
Si Si4 0.874735 0.115123 0.927571
Si Si5 0.892437 0.286373 0.193495
Si Si6 0.849504 0.141012 0.793265
Si Si7 0.349476 0.024025 0.570496
Si Si8 0.750000 0.750000 0.000000
O O1 0.642579 0.882828 0.923776
O O2 0.747534 0.927930 0.828955
O O3 0.946965 0.904634 0.922350
O O4 0.759743 0.976885 0.930903
O O5 0.517005 0.826516 0.500000
O O6 0.519891 0.808764 0.631274
O O7 0.285064 0.791507 0.554896
O O8 0.203172 0.500000 0.250000
O O9 0.302964 0.414715 0.286354
O O10 0.000000 0.431298 0.250000
O O11 0.865664 0.151712 0.868411
O O12 0.747438 0.072126 0.914444
O O13 0.853051 0.132796 0.000000
O O14 0.750000 0.250000 0.175488
O O15 0.803500 0.330117 0.229624
O O16 0.000000 0.264079 0.250000
O O17 0.000000 0.151211 0.750000
O O18 0.411046 0.036482 0.500000
O O19 0.500000 0.000000 0.608331
#
# Coordination Sequence:
#
# PCOD9498985 Si02
#       8
#    16  16  16  16  16  16  16   4
#     4  12  22  42  70 102 143 198 252 297 376 448
#     4  10  24  46  78 110 148 192 244 316 386 473
#     4  11  25  42  68 104 149 201 250 309 376 451
#     4  11  25  43  67 104 142 196 249 308 361 448
#     4  12  29  50  79 109 145 193 250 319 394 479
#     4  12  25  48  69 105 143 190 245 307 381 459
#     4  10  23  39  61  96 144 190 241 299 353 430
#     4   8  24  48  74 116 148 192 246 310 416 456
#
# _framework density 23.719421000000001
#
# number of rings (size 3 to 8) (size 9 to 14) (size 15 to 20)
#    0.414    0.552    1.379    4.966    6.759    3.310 
#    0.000    0.000    0.000    0.000    0.000    0.000 
#    0.000    0.000    0.000    0.000    0.000    0.000 
#
# Total GULP energy -323139.698917 kJ/mol
# GULP energy per Si atom -5571.374119 kJ/mol
# Density = 2.366543 g / cm^3
# Si number density = 23.719421 Si / 1000 Ang^3
#
#
#
# Elastic Constant Matrix: (Units=GPa)
#
#
# Indices 1 2 3 4 5 6 
#
# 1 73.9237 15.2039 32.5748 0.0000 0.0000 0.0000
# 2 15.2039 59.0418 21.2211 0.0000 0.0000 0.0000
# 3 32.5748 21.2211 180.6825 0.0000 0.0000 0.0000
# 4 0.0000 0.0000 0.0000 12.6418 0.0000 0.0000
# 5 0.0000 0.0000 0.0000 0.0000 22.4288 0.0000
# 6 0.0000 0.0000 0.0000 0.0000 0.0000 38.9244
#
#
#
# Elastic Compliance Matrix: (Units=1/GPa)
#
#
# Indices 1 2 3 4 5 6 
#
# 1 0.015206 -0.003060 -0.002382 0.000000 0.000000 0.000000
# 2 -0.003060 0.018299 -0.001598 0.000000 0.000000 0.000000
# 3 -0.002382 -0.001598 0.006152 0.000000 0.000000 0.000000
# 4 0.000000 0.000000 0.000000 0.079103 0.000000 0.000000
# 5 0.000000 0.000000 0.000000 0.000000 0.044585 0.000000
# 6 0.000000 0.000000 0.000000 0.000000 0.000000 0.025691
#
#
# Mechanical properties :
#
#
# Convention : Reuss Voigt Hill
#
# Bulk Modulus (GPa) = 39.09527 50.18308 44.63917
# Shear Modulus (GPa) = 23.62489 31.10890 27.36689
#
# Velocity S-wave (km/s) = 3.15939 3.62544 3.40041
# Velocity P-wave (km/s) = 5.46143 6.22318 5.85471
#
# Compressibility (1/GPa) = 0.02557854
#
# Stress axis : x y z
#
# Youngs Moduli (GPa) = 65.76162 54.64704 162.55694
#
# Poissons Ratio (x) = 0.16720 0.38724
# Poissons Ratio (y) = 0.20120 0.25971
# Poissons Ratio (z) = 0.15666 0.08731
#
# Static dielectric constant tensor:
#      x y z
#    x 1.996760 0.000000 0.000000 
#    y 0.000000 1.913880 0.000000 
#    z 0.000000 0.000000 1.987490 
# 
# From -- ./inp_files/55923.got.cif
#   From: 2010.05.17/outbox.cif.g08.bks.cpg/sg66_28_cif.got.tgz:55923.got - 2010.06.03 17:51:23.
