data_PCOD9498788
_publ_section_title
;
Structure prediction by ZEFSAII (Michael W. Deem and Ramdas Pophale) SiO2 
 PCOD9498788
Probable space group: C C C M
;
_chemical_formula_sum "Si O2"
_cell_formula_units_Z 96
_cell_length_a 8.232055
_cell_length_b 19.866358
_cell_length_c 24.057617
_cell_angle_alpha 90.000000
_cell_angle_beta 90.000000
_cell_angle_gamma 90.000000
_cell_volume 3934.405580
_symmetry_space_group_name_H-M "C C C M"
_symmetry_group_IT_number 66
_symmetry_cell_setting 'orthorhombic'
loop_
_space_group_symop_operation_xyz
x,y,z
-x,-y,z
x,-y,1/2-z
-x,y,1/2-z
-x,-y,-z
x,y,-z
-x,y,1/2+z
x,-y,1/2+z
1/2+x,1/2+y,z
1/2-x,1/2-y,z
1/2+x,1/2-y,1/2-z
1/2-x,1/2+y,1/2-z
1/2-x,1/2-y,-z
1/2+x,1/2+y,-z
1/2-x,1/2+y,1/2+z
1/2+x,1/2-y,1/2+z
loop_
_atom_site_type_symbol
_atom_site_label
_atom_site_fract_x
_atom_site_fract_y
_atom_site_fract_z
Si Si1 0.042420 0.314224 0.114225
Si Si2 0.011736 0.175672 0.061686
Si Si3 0.181745 0.637401 0.276741
Si Si4 0.694967 0.499185 0.667960
Si Si5 0.783776 0.153057 0.166932
Si Si6 0.193343 0.429637 0.939318
O O1 0.168499 0.322864 0.164901
O O2 0.043359 0.385329 0.082093
O O3 0.064090 0.252274 0.073227
O O4 0.868654 0.306710 0.143220
O O5 0.914815 0.155335 0.117745
O O6 0.164305 0.126301 0.058855
O O7 0.930178 0.171882 0.000000
O O8 0.235592 0.561974 0.295133
O O9 0.304347 0.670830 0.232027
O O10 0.000000 0.637389 0.250000
O O11 0.500000 0.500000 0.674530
O O12 0.758786 0.574146 0.676779
O O13 0.748433 0.482243 0.605557
O O14 0.169400 0.458444 0.000000
#
# Coordination Sequence:
#
# PCOD9498788 Si02
#       6
#    16  16  16  16  16  16
#     4  10  22  41  63  92 124 168 215 261 322 382
#     4  11  23  42  67  93 130 172 215 268 320 383
#     4   9  22  42  64  90 128 169 210 266 323 389
#     4  11  22  41  66  95 127 166 215 261 321 391
#     4  11  23  40  63  94 129 164 209 265 327 384
#     4  10  22  41  65  92 124 166 212 264 314 375
#
# _framework density 24.400127999999999
#
# number of rings (size 3 to 8) (size 9 to 14) (size 15 to 20)
#    0.000    1.667    1.667    2.000    0.000   13.667 
#    0.000   19.167    0.000    0.000    0.000    0.000 
#    0.000    0.000    0.000    0.000    0.000    0.000 
#
# Total GULP energy -268279.008445 kJ/mol
# GULP energy per Si atom -5589.146009 kJ/mol
# Density = 2.434459 g / cm^3
# Si number density = 24.400128 Si / 1000 Ang^3
#
#
#
# Elastic Constant Matrix: (Units=GPa)
#
#
# Indices 1 2 3 4 5 6 
#
# 1 50.0211 5.0482 33.0364 0.0000 0.0000 0.0000
# 2 5.0482 70.2254 11.0169 0.0000 0.0000 0.0000
# 3 33.0364 11.0169 187.6480 0.0000 0.0000 0.0000
# 4 0.0000 0.0000 0.0000 19.8212 0.0000 0.0000
# 5 0.0000 0.0000 0.0000 0.0000 22.3584 0.0000
# 6 0.0000 0.0000 0.0000 0.0000 0.0000 28.3463
#
#
#
# Elastic Compliance Matrix: (Units=1/GPa)
#
#
# Indices 1 2 3 4 5 6 
#
# 1 0.022693 -0.001014 -0.003936 0.000000 0.000000 0.000000
# 2 -0.001014 0.014418 -0.000668 0.000000 0.000000 0.000000
# 3 -0.003936 -0.000668 0.006061 0.000000 0.000000 0.000000
# 4 0.000000 0.000000 0.000000 0.050451 0.000000 0.000000
# 5 0.000000 0.000000 0.000000 0.000000 0.044726 0.000000
# 6 0.000000 0.000000 0.000000 0.000000 0.000000 0.035278
#
#
# Mechanical properties :
#
#
# Convention : Reuss Voigt Hill
#
# Bulk Modulus (GPa) = 31.31175 45.12191 38.21683
# Shear Modulus (GPa) = 25.57446 31.35806 28.46626
#
# Velocity S-wave (km/s) = 3.24099 3.58880 3.41932
# Velocity P-wave (km/s) = 5.18323 5.97539 5.59335
#
# Compressibility (1/GPa) = 0.03193689
#
# Stress axis : x y z
#
# Youngs Moduli (GPa) = 44.06595 69.35995 164.98243
#
# Poissons Ratio (x) = 0.07032 0.64933
# Poissons Ratio (y) = 0.04468 0.11020
# Poissons Ratio (z) = 0.17343 0.04633
#
# Static dielectric constant tensor:
#      x y z
#    x 1.952330 0.000000 0.000000 
#    y 0.000000 1.939520 0.000000 
#    z 0.000000 0.000000 2.023880 
# 
# From -- ./inp_files/55590.got.cif
#   From: 2010.05.17/outbox.cif.g08.bks.cpg/sg66_28_cif.got.tgz:55590.got - 2010.06.03 17:51:23.
