data_PCOD9498904
_publ_section_title
;
Structure prediction by ZEFSAII (Michael W. Deem and Ramdas Pophale) SiO2 
 PCOD9498904
Probable space group: C C C M
;
_chemical_formula_sum "Si O2"
_cell_formula_units_Z 68
_cell_length_a 24.206125
_cell_length_b 7.526779
_cell_length_c 17.307025
_cell_angle_alpha 90.000000
_cell_angle_beta 90.000000
_cell_angle_gamma 90.000000
_cell_volume 3153.238766
_symmetry_space_group_name_H-M "C C C M"
_symmetry_group_IT_number 66
_symmetry_cell_setting 'orthorhombic'
loop_
_space_group_symop_operation_xyz
x,y,z
-x,-y,z
x,-y,1/2-z
-x,y,1/2-z
-x,-y,-z
x,y,-z
-x,y,1/2+z
x,-y,1/2+z
1/2+x,1/2+y,z
1/2-x,1/2-y,z
1/2+x,1/2-y,1/2-z
1/2-x,1/2+y,1/2-z
1/2-x,1/2-y,-z
1/2+x,1/2+y,-z
1/2-x,1/2+y,1/2+z
1/2+x,1/2-y,1/2+z
loop_
_atom_site_type_symbol
_atom_site_label
_atom_site_fract_x
_atom_site_fract_y
_atom_site_fract_z
Si Si1 0.368643 0.134861 0.911602
Si Si2 0.846109 0.251742 0.134261
Si Si3 0.750000 0.250000 0.000000
Si Si4 0.938298 0.966828 0.092912
Si Si5 0.791156 0.000000 0.750000
Si Si6 0.750000 0.750000 0.872917
O O1 0.409845 0.283932 0.879854
O O2 0.307512 0.223835 0.916074
O O3 0.364675 0.955678 0.863041
O O4 0.384064 0.086155 0.000000
O O5 0.897310 0.127500 0.111055
O O6 0.824363 0.164770 0.213781
O O7 0.798609 0.241537 0.068183
O O8 0.940968 0.950423 0.000000
O O9 0.000000 0.000000 0.122498
O O10 0.756427 0.921756 0.819735
#
# Coordination Sequence:
#
# PCOD9498904 Si02
#       6
#    16  16   4  16   8   8
#     4  11  23  38  68 102 133 178 231 293 348 420
#     4  12  24  42  65 103 139 186 234 295 358 424
#     4  12  22  40  72 100 146 182 240 306 352 432
#     4  10  22  43  68  99 137 179 234 294 351 418
#     4  12  26  40  63 102 148 187 226 294 368 446
#     4  12  22  40  60  98 138 182 224 278 365 427
#
# _framework density 21.565128000000001
#
# number of rings (size 3 to 8) (size 9 to 14) (size 15 to 20)
#    0.000    0.706    4.706    3.882    0.000    0.941 
#    0.000    4.118    0.000    0.000    6.118    0.000 
#    0.000    0.000    0.000    0.000    0.000    0.000 
#
# Total GULP energy -189579.118505 kJ/mol
# GULP energy per Si atom -5575.856427 kJ/mol
# Density = 2.151604 g / cm^3
# Si number density = 21.565128 Si / 1000 Ang^3
#
#
#
# Elastic Constant Matrix: (Units=GPa)
#
#
# Indices 1 2 3 4 5 6 
#
# 1 171.7968 81.7385 24.6131 0.0000 0.0000 0.0000
# 2 81.7385 167.1307 26.2044 0.0000 0.0000 0.0000
# 3 24.6131 26.2044 54.2418 0.0000 0.0000 0.0000
# 4 0.0000 0.0000 0.0000 25.2917 0.0000 0.0000
# 5 0.0000 0.0000 0.0000 0.0000 15.2489 0.0000
# 6 0.0000 0.0000 0.0000 0.0000 0.0000 26.7348
#
#
#
# Elastic Compliance Matrix: (Units=1/GPa)
#
#
# Indices 1 2 3 4 5 6 
#
# 1 0.007749 -0.003504 -0.001824 0.000000 0.000000 0.000000
# 2 -0.003504 0.008058 -0.002303 0.000000 0.000000 0.000000
# 3 -0.001824 -0.002303 0.020376 0.000000 0.000000 0.000000
# 4 0.000000 0.000000 0.000000 0.039539 0.000000 0.000000
# 5 0.000000 0.000000 0.000000 0.000000 0.065579 0.000000
# 6 0.000000 0.000000 0.000000 0.000000 0.000000 0.037404
#
#
# Mechanical properties :
#
#
# Convention : Reuss Voigt Hill
#
# Bulk Modulus (GPa) = 47.79564 73.14238 60.46901
# Shear Modulus (GPa) = 24.88303 30.82929 27.85616
#
# Velocity S-wave (km/s) = 3.40053 3.78509 3.59795
# Velocity P-wave (km/s) = 6.13430 7.28651 6.73509
#
# Compressibility (1/GPa) = 0.02092241
#
# Stress axis : x y z
#
# Youngs Moduli (GPa) = 129.04481 124.09857 49.07744
#
# Poissons Ratio (x) = 0.43484 0.08950
# Poissons Ratio (y) = 0.45217 0.11302
# Poissons Ratio (z) = 0.23532 0.28579
#
# Static dielectric constant tensor:
#      x y z
#    x 1.783080 0.000000 0.000000 
#    y 0.000000 1.583720 0.000000 
#    z 0.000000 0.000000 1.807630 
# 
# From -- ./inp_files/42551.got.cif
#   From: 2010.05.17/outbox.cif.g08.bks.cpg/sg66_22_cif.got.tgz:42551.got - 2010.06.03 17:51:23.
