data_PCOD9498779
_publ_section_title
;
Structure prediction by ZEFSAII (Michael W. Deem and Ramdas Pophale) SiO2 
 PCOD9498779
Probable space group: C C C M
;
_chemical_formula_sum "Si O2"
_cell_formula_units_Z 48
_cell_length_a 15.487528
_cell_length_b 7.640641
_cell_length_c 16.994473
_cell_angle_alpha 90.000000
_cell_angle_beta 90.000000
_cell_angle_gamma 90.000000
_cell_volume 2011.034869
_symmetry_space_group_name_H-M "C C C M"
_symmetry_group_IT_number 66
_symmetry_cell_setting 'orthorhombic'
loop_
_space_group_symop_operation_xyz
x,y,z
-x,-y,z
x,-y,1/2-z
-x,y,1/2-z
-x,-y,-z
x,y,-z
-x,y,1/2+z
x,-y,1/2+z
1/2+x,1/2+y,z
1/2-x,1/2-y,z
1/2+x,1/2-y,1/2-z
1/2-x,1/2+y,1/2-z
1/2-x,1/2-y,-z
1/2+x,1/2+y,-z
1/2-x,1/2+y,1/2+z
1/2+x,1/2-y,1/2+z
loop_
_atom_site_type_symbol
_atom_site_label
_atom_site_fract_x
_atom_site_fract_y
_atom_site_fract_z
Si Si1 0.847756 0.029280 0.412190
Si Si2 0.847174 0.394148 0.640160
Si Si3 0.089069 0.735905 0.797200
O O1 0.859403 0.958508 0.500000
O O2 0.881731 0.228592 0.408249
O O3 0.745818 0.048458 0.392546
O O4 0.889614 0.906783 0.346608
O O5 0.842895 0.311752 0.728252
O O6 0.905075 0.566312 0.646994
O O7 0.000000 0.747949 0.750000
#
# Coordination Sequence:
#
# PCOD9498779 Si02
#       3
#    16  16  16
#     4  11  25  43  72 110 147 186 242 310 367 422
#     4  10  22  40  72 103 140 187 247 297 348 430
#     4  11  25  43  71 107 142 193 246 298 359 437
#
# _framework density 23.868307000000001
#
# number of rings (size 3 to 8) (size 9 to 14) (size 15 to 20)
#    0.000    1.333    0.000    6.000   18.667    8.000 
#    0.000    5.000    0.000   18.000    0.000    0.000 
#    0.000    0.000    0.000    0.000    0.000    0.000 
#
# Total GULP energy -134288.437253 kJ/mol
# GULP energy per Si atom -5595.351552 kJ/mol
# Density = 2.381398 g / cm^3
# Si number density = 23.868307 Si / 1000 Ang^3
#
#
#
# Elastic Constant Matrix: (Units=GPa)
#
#
# Indices 1 2 3 4 5 6 
#
# 1 79.7310 59.3532 27.3470 0.0000 0.0000 0.0000
# 2 59.3532 177.9200 53.2977 0.0000 0.0000 0.0000
# 3 27.3470 53.2977 108.6106 0.0000 0.0000 0.0000
# 4 0.0000 0.0000 0.0000 26.1825 0.0000 0.0000
# 5 0.0000 0.0000 0.0000 0.0000 -27.5920 0.0000
# 6 0.0000 0.0000 0.0000 0.0000 0.0000 30.6484
#
#
#
# Elastic Compliance Matrix: (Units=1/GPa)
#
#
# Indices 1 2 3 4 5 6 
#
# 1 0.016966 -0.005135 -0.001752 0.000000 0.000000 0.000000
# 2 -0.005135 0.008143 -0.002703 0.000000 0.000000 0.000000
# 3 -0.001752 -0.002703 0.010975 0.000000 0.000000 0.000000
# 4 0.000000 0.000000 0.000000 0.038193 0.000000 0.000000
# 5 0.000000 0.000000 0.000000 0.000000 -0.036242 0.000000
# 6 0.000000 0.000000 0.000000 0.000000 0.000000 0.032628
#
#
# Mechanical properties :
#
#
# Convention : Reuss Voigt Hill
#
# Bulk Modulus (GPa) = 59.15869 71.80637 65.48253
# Shear Modulus (GPa) = 52.36855 20.93204 36.65029
#
# Velocity S-wave (km/s) = 4.68916 2.96460 3.92282
# Velocity P-wave (km/s) = 7.35914 6.47056 6.92911
#
# Compressibility (1/GPa) = 0.01690369
#
# Stress axis : x y z
#
# Youngs Moduli (GPa) = 58.94311 122.80185 91.11757
#
# Poissons Ratio (x) = 0.63056 0.15964
# Poissons Ratio (y) = 0.30266 0.24631
# Poissons Ratio (z) = 0.10327 0.33195
#
# Static dielectric constant tensor:
#      x y z
#    x 1.945480 0.000000 0.000000 
#    y 0.000000 1.943750 0.000000 
#    z 0.000000 0.000000 1.930480 
# 
# From -- ./inp_files/40954.got.cif
#   From: 2010.05.17/outbox.cif.g08.bks.cpg/sg66_21_cif.got.tgz:40954.got - 2010.06.03 17:51:23.
