data_PCOD9498357
_publ_section_title
;
Structure prediction by ZEFSAII (Michael W. Deem and Ramdas Pophale) SiO2 
 PCOD9498357
Probable space group: C C C M
;
_chemical_formula_sum "Si O2"
_cell_formula_units_Z 100
_cell_length_a 18.893041
_cell_length_b 9.232084
_cell_length_c 30.264278
_cell_angle_alpha 90.000000
_cell_angle_beta 90.000000
_cell_angle_gamma 90.000000
_cell_volume 5278.760181
_symmetry_space_group_name_H-M "C C C M"
_symmetry_group_IT_number 66
_symmetry_cell_setting 'orthorhombic'
loop_
_space_group_symop_operation_xyz
x,y,z
-x,-y,z
x,-y,1/2-z
-x,y,1/2-z
-x,-y,-z
x,y,-z
-x,y,1/2+z
x,-y,1/2+z
1/2+x,1/2+y,z
1/2-x,1/2-y,z
1/2+x,1/2-y,1/2-z
1/2-x,1/2+y,1/2-z
1/2-x,1/2-y,-z
1/2+x,1/2+y,-z
1/2-x,1/2+y,1/2+z
1/2+x,1/2-y,1/2+z
loop_
_atom_site_type_symbol
_atom_site_label
_atom_site_fract_x
_atom_site_fract_y
_atom_site_fract_z
Si Si1 0.321876 0.335343 0.253910
Si Si2 0.410846 0.818003 0.680994
Si Si3 0.670452 0.187584 0.551754
Si Si4 0.500000 0.000000 0.250000
Si Si5 0.179504 0.451643 0.625304
Si Si6 0.659366 0.361261 0.851994
Si Si7 0.436216 0.393620 0.894667
O O1 0.301883 0.500000 0.250000
O O2 0.250000 0.250000 0.257176
O O3 0.363644 0.288993 0.210572
O O4 0.359568 0.322440 0.301319
O O5 0.452885 0.726355 0.643650
O O6 0.456813 0.898884 0.717119
O O7 0.361263 0.939837 0.658350
O O8 0.657566 0.164383 0.500000
O O9 0.750000 0.250000 0.557482
O O10 0.611624 0.300160 0.570952
O O11 0.673021 0.038871 0.579563
O O12 0.259300 0.417776 0.642552
O O13 0.148539 0.289882 0.622391
O O14 0.613832 0.490247 0.870938
O O15 0.500000 0.500000 0.910778
#
# Coordination Sequence:
#
# PCOD9498357 Si02
#       7
#    16  16  16   4  16  16  16
#     4  12  23  35  57  87 120 160 213 268 301 352
#     4  11  26  39  59  81 125 172 214 265 305 372
#     4  10  21  42  71  98 124 157 201 257 321 390
#     4  12  28  40  54  88 122 172 228 256 308 360
#     4  10  21  40  64  89 123 160 204 263 312 375
#     4  11  21  38  60  92 124 161 211 256 314 365
#     4  11  25  42  64  89 126 170 204 255 321 386
#
# _framework density 18.943843000000001
#
# number of rings (size 3 to 8) (size 9 to 14) (size 15 to 20)
#    0.000    1.120    4.800    1.920    5.600    0.320 
#    0.000    2.400    0.000    0.960    0.000    0.000 
#    0.000    0.000    0.000    0.000    0.000    0.000 
#
# Total GULP energy -278844.254506 kJ/mol
# GULP energy per Si atom -5576.885090 kJ/mol
# Density = 1.890073 g / cm^3
# Si number density = 18.943843 Si / 1000 Ang^3
#
#
#
# Elastic Constant Matrix: (Units=GPa)
#
#
# Indices 1 2 3 4 5 6 
#
# 1 48.2587 37.4886 31.3562 0.0000 0.0000 0.0000
# 2 37.4886 148.9777 60.3329 0.0000 0.0000 0.0000
# 3 31.3562 60.3329 134.8146 0.0000 0.0000 0.0000
# 4 0.0000 0.0000 0.0000 23.7160 0.0000 0.0000
# 5 0.0000 0.0000 0.0000 0.0000 31.5009 0.0000
# 6 0.0000 0.0000 0.0000 0.0000 0.0000 34.2601
#
#
#
# Elastic Compliance Matrix: (Units=1/GPa)
#
#
# Indices 1 2 3 4 5 6 
#
# 1 0.027431 -0.005275 -0.004019 0.000000 0.000000 0.000000
# 2 -0.005275 0.009213 -0.002896 0.000000 0.000000 0.000000
# 3 -0.004019 -0.002896 0.009648 0.000000 0.000000 0.000000
# 4 0.000000 0.000000 0.000000 0.042166 0.000000 0.000000
# 5 0.000000 0.000000 0.000000 0.000000 0.031745 0.000000
# 6 0.000000 0.000000 0.000000 0.000000 0.000000 0.029188
#
#
# Mechanical properties :
#
#
# Convention : Reuss Voigt Hill
#
# Bulk Modulus (GPa) = 45.63835 65.60070 55.61953
# Shear Modulus (GPa) = 27.61272 31.42027 29.51649
#
# Velocity S-wave (km/s) = 3.82201 4.07701 3.95157
# Velocity P-wave (km/s) = 6.60459 7.54101 7.08828
#
# Compressibility (1/GPa) = 0.02191140
#
# Stress axis : x y z
#
# Youngs Moduli (GPa) = 36.45508 108.54686 103.64306
#
# Poissons Ratio (x) = 0.57258 0.41659
# Poissons Ratio (y) = 0.19230 0.30015
# Poissons Ratio (z) = 0.14653 0.31435
#
# Static dielectric constant tensor:
#      x y z
#    x 1.715920 0.000000 0.000000 
#    y 0.000000 1.632790 0.000000 
#    z 0.000000 0.000000 1.663820 
# 
# From -- ./inp_files/65720.got.cif
#   From: 2010.05.17/outbox.cif.g08.bks.cpg/sg66_33_cif.got.tgz:65720.got - 2010.06.03 17:51:23.
