data_PCOD9498302
_publ_section_title
;
Structure prediction by ZEFSAII (Michael W. Deem and Ramdas Pophale) SiO2 
 PCOD9498302
Probable space group: C C C M
;
_chemical_formula_sum "Si O2"
_cell_formula_units_Z 68
_cell_length_a 20.870657
_cell_length_b 9.988515
_cell_length_c 14.755581
_cell_angle_alpha 90.000000
_cell_angle_beta 90.000000
_cell_angle_gamma 90.000000
_cell_volume 3076.049794
_symmetry_space_group_name_H-M "C C C M"
_symmetry_group_IT_number 66
_symmetry_cell_setting 'orthorhombic'
loop_
_space_group_symop_operation_xyz
x,y,z
-x,-y,z
x,-y,1/2-z
-x,y,1/2-z
-x,-y,-z
x,y,-z
-x,y,1/2+z
x,-y,1/2+z
1/2+x,1/2+y,z
1/2-x,1/2-y,z
1/2+x,1/2-y,1/2-z
1/2-x,1/2+y,1/2-z
1/2-x,1/2-y,-z
1/2+x,1/2+y,-z
1/2-x,1/2+y,1/2+z
1/2+x,1/2-y,1/2+z
loop_
_atom_site_type_symbol
_atom_site_label
_atom_site_fract_x
_atom_site_fract_y
_atom_site_fract_z
Si Si1 0.224332 0.112226 0.609030
Si Si2 0.000000 0.000000 0.250000
Si Si3 0.699531 0.862674 0.891737
Si Si4 0.572504 0.013744 0.857256
Si Si5 0.580854 0.671859 0.394111
O O1 0.234118 0.113378 0.500000
O O2 0.250000 0.250000 0.646440
O O3 0.149161 0.100968 0.621569
O O4 0.267352 0.995338 0.645296
O O5 0.036082 0.897722 0.180709
O O6 0.750000 0.750000 0.858143
O O7 0.623590 0.895924 0.880456
O O8 0.704973 0.853868 0.000000
O O9 0.591652 0.167211 0.882105
O O10 0.500000 0.000000 0.894358
O O11 0.568246 0.000000 0.750000
O O12 0.561345 0.651086 0.500000
#
# Coordination Sequence:
#
# PCOD9498302 Si02
#       5
#    16   4  16  16  16
#     4   9  17  36  65  92 123 175 237 279 342 435
#     4  12  26  44  66 110 144 172 252 318 340 442
#     4  10  21  39  65  99 135 175 234 298 352 421
#     4  11  24  43  65  99 144 187 237 294 356 439
#     4  11  24  45  72  97 137 194 235 290 373 434
#
# _framework density 22.106275
#
# number of rings (size 3 to 8) (size 9 to 14) (size 15 to 20)
#    0.000    1.647    2.353    2.471    0.000    5.647 
#    6.353    2.353    0.000    0.000    0.000    0.000 
#    0.000    0.941    0.000    0.000    0.000    0.000 
#
# Total GULP energy -189310.563212 kJ/mol
# GULP energy per Si atom -5567.957742 kJ/mol
# Density = 2.205596 g / cm^3
# Si number density = 22.106275 Si / 1000 Ang^3
#
#
#
# Elastic Constant Matrix: (Units=GPa)
#
#
# Indices 1 2 3 4 5 6 
#
# 1 128.0295 60.0327 43.2086 0.0000 0.0000 0.0000
# 2 60.0327 76.5936 11.1825 0.0000 0.0000 0.0000
# 3 43.2086 11.1825 132.7747 0.0000 0.0000 0.0000
# 4 0.0000 0.0000 0.0000 -95.5415 0.0000 0.0000
# 5 0.0000 0.0000 0.0000 0.0000 9.8655 0.0000
# 6 0.0000 0.0000 0.0000 0.0000 0.0000 35.2530
#
#
#
# Elastic Compliance Matrix: (Units=1/GPa)
#
#
# Indices 1 2 3 4 5 6 
#
# 1 0.013902 -0.010363 -0.003651 0.000000 0.000000 0.000000
# 2 -0.010363 0.020944 0.001609 0.000000 0.000000 0.000000
# 3 -0.003651 0.001609 0.008584 0.000000 0.000000 0.000000
# 4 0.000000 0.000000 0.000000 -0.010467 0.000000 0.000000
# 5 0.000000 0.000000 0.000000 0.000000 0.101363 0.000000
# 6 0.000000 0.000000 0.000000 0.000000 0.000000 0.028366
#
#
# Mechanical properties :
#
#
# Convention : Reuss Voigt Hill
#
# Bulk Modulus (GPa) = 53.71110 62.91615 58.31362
# Shear Modulus (GPa) = 25.81155 4.78033 15.29594
#
# Velocity S-wave (km/s) = 3.42074 1.47212 2.63331
# Velocity P-wave (km/s) = 6.32072 5.60465 5.97342
#
# Compressibility (1/GPa) = 0.01861813
#
# Stress axis : x y z
#
# Youngs Moduli (GPa) = 71.93031 47.74716 116.49115
#
# Poissons Ratio (x) = 0.49482 0.42536
# Poissons Ratio (y) = 0.74544 -0.18739
# Poissons Ratio (z) = 0.26265 -0.07681
#
# Static dielectric constant tensor:
#      x y z
#    x 1.855700 0.000000 0.000000 
#    y 0.000000 1.794070 0.000000 
#    z 0.000000 0.000000 1.820000 
# 
# From -- ./inp_files/42517.got.cif
#   From: 2010.05.17/outbox.cif.g08.bks.cpg/sg66_22_cif.got.tgz:42517.got - 2010.06.03 17:51:23.
