data_PCOD9498013
_publ_section_title
;
Structure prediction by ZEFSAII (Michael W. Deem and Ramdas Pophale) SiO2 
 PCOD9498013
Probable space group: C C C M
;
_chemical_formula_sum "Si O2"
_cell_formula_units_Z 56
_cell_length_a 10.808541
_cell_length_b 10.891987
_cell_length_c 22.185651
_cell_angle_alpha 90.000000
_cell_angle_beta 90.000000
_cell_angle_gamma 90.000000
_cell_volume 2611.838778
_symmetry_space_group_name_H-M "C C C M"
_symmetry_group_IT_number 66
_symmetry_cell_setting 'orthorhombic'
loop_
_space_group_symop_operation_xyz
x,y,z
-x,-y,z
x,-y,1/2-z
-x,y,1/2-z
-x,-y,-z
x,y,-z
-x,y,1/2+z
x,-y,1/2+z
1/2+x,1/2+y,z
1/2-x,1/2-y,z
1/2+x,1/2-y,1/2-z
1/2-x,1/2+y,1/2-z
1/2-x,1/2-y,-z
1/2+x,1/2+y,-z
1/2-x,1/2+y,1/2+z
1/2+x,1/2-y,1/2+z
loop_
_atom_site_type_symbol
_atom_site_label
_atom_site_fract_x
_atom_site_fract_y
_atom_site_fract_z
Si Si1 0.250000 0.250000 0.878859
Si Si2 0.478444 0.646347 0.316468
Si Si3 0.396112 0.389432 0.431222
Si Si4 0.635985 0.984416 0.929675
O O1 0.340111 0.326919 0.836644
O O2 0.325385 0.156062 0.919544
O O3 0.500000 0.500000 0.312266
O O4 0.500000 0.699675 0.250000
O O5 0.559898 0.690031 0.373987
O O6 0.500000 0.500000 0.434574
O O7 0.393549 0.337710 0.500000
O O8 0.259768 0.438641 0.413976
O O9 0.500000 0.000000 0.900771
O O10 0.623160 0.011466 0.000000
#
# Coordination Sequence:
#
# PCOD9498013 Si02
#       4
#     8  16  16  16
#     4  12  21  40  66  90 117 174 210 246 322 374
#     4  10  21  40  62  89 125 166 207 257 308 371
#     4   9  16  34  63  88 120 161 201 252 306 359
#     4  10  21  37  61  97 131 158 204 262 311 373
#
# _framework density 21.440833000000001
#
# number of rings (size 3 to 8) (size 9 to 14) (size 15 to 20)
#    0.000    2.000    5.714    0.429    0.000    1.143 
#    5.143    0.000    0.000    5.143    0.000    0.000 
#    0.000    0.000    0.000    0.000    0.000    0.000 
#
# Total GULP energy -155911.664291 kJ/mol
# GULP energy per Si atom -5568.273725 kJ/mol
# Density = 2.139203 g / cm^3
# Si number density = 21.440833 Si / 1000 Ang^3
#
#
#
# Elastic Constant Matrix: (Units=GPa)
#
#
# Indices 1 2 3 4 5 6 
#
# 1 176.5420 33.2732 30.5214 0.0000 0.0000 0.0000
# 2 33.2732 29.7113 -7.5968 0.0000 0.0000 0.0000
# 3 30.5214 -7.5968 130.0873 0.0000 0.0000 0.0000
# 4 0.0000 0.0000 0.0000 56.0735 0.0000 0.0000
# 5 0.0000 0.0000 0.0000 0.0000 -3.7271 0.0000
# 6 0.0000 0.0000 0.0000 0.0000 0.0000 36.0301
#
#
#
# Elastic Compliance Matrix: (Units=1/GPa)
#
#
# Indices 1 2 3 4 5 6 
#
# 1 0.007850 -0.009402 -0.002391 0.000000 0.000000 0.000000
# 2 -0.009402 0.045429 0.004859 0.000000 0.000000 0.000000
# 3 -0.002391 0.004859 0.008532 0.000000 0.000000 0.000000
# 4 0.000000 0.000000 0.000000 0.017834 0.000000 0.000000
# 5 0.000000 0.000000 0.000000 0.000000 -0.268302 0.000000
# 6 0.000000 0.000000 0.000000 0.000000 0.000000 0.027755
#
#
# Mechanical properties :
#
#
# Convention : Reuss Voigt Hill
#
# Bulk Modulus (GPa) = 20.85832 49.85958 35.35895
# Shear Modulus (GPa) = -38.15223 36.35147 -0.90038
#
# Velocity S-wave (km/s) = -4.22289 4.12203 -0.64873
# Velocity P-wave (km/s) = 3.74535 6.77937 3.99576
#
# Compressibility (1/GPa) = 0.04794250
#
# Stress axis : x y z
#
# Youngs Moduli (GPa) = 127.39279 22.01240 117.20823
#
# Poissons Ratio (x) = 0.20696 0.28022
# Poissons Ratio (y) = 1.19776 -0.56950
# Poissons Ratio (z) = 0.30457 -0.10696
#
# Static dielectric constant tensor:
#      x y z
#    x 1.853710 0.000000 0.000000 
#    y 0.000000 1.827550 0.000000 
#    z 0.000000 0.000000 1.826730 
# 
# From -- ./inp_files/62072.got.cif
#   From: 2010.05.17/outbox.cif.g08.bks.cpg/sg66_32_cif.got.tgz:62072.got - 2010.06.03 17:51:23.
