data_PCOD9498613
_publ_section_title
;
Structure prediction by ZEFSAII (Michael W. Deem and Ramdas Pophale) SiO2 
 PCOD9498613
Probable space group: C C C M
;
_chemical_formula_sum "Si O2"
_cell_formula_units_Z 96
_cell_length_a 23.650447
_cell_length_b 10.711219
_cell_length_c 18.378438
_cell_angle_alpha 90.000000
_cell_angle_beta 90.000000
_cell_angle_gamma 90.000000
_cell_volume 4655.719961
_symmetry_space_group_name_H-M "C C C M"
_symmetry_group_IT_number 66
_symmetry_cell_setting 'orthorhombic'
loop_
_space_group_symop_operation_xyz
x,y,z
-x,-y,z
x,-y,1/2-z
-x,y,1/2-z
-x,-y,-z
x,y,-z
-x,y,1/2+z
x,-y,1/2+z
1/2+x,1/2+y,z
1/2-x,1/2-y,z
1/2+x,1/2-y,1/2-z
1/2-x,1/2+y,1/2-z
1/2-x,1/2-y,-z
1/2+x,1/2+y,-z
1/2-x,1/2+y,1/2+z
1/2+x,1/2-y,1/2+z
loop_
_atom_site_type_symbol
_atom_site_label
_atom_site_fract_x
_atom_site_fract_y
_atom_site_fract_z
Si Si1 0.331326 0.165538 0.412522
Si Si2 0.540859 0.381196 0.919279
Si Si3 0.125026 0.041963 0.826960
Si Si4 0.784753 0.938200 0.412715
Si Si5 0.568063 0.010539 0.415832
Si Si6 0.960409 0.271510 0.679080
O O1 0.328151 0.169832 0.500000
O O2 0.280492 0.073288 0.389181
O O3 0.313428 0.305144 0.389639
O O4 0.392741 0.108351 0.395424
O O5 0.500000 0.500000 0.927877
O O6 0.586205 0.434460 0.863337
O O7 0.503072 0.273933 0.884556
O O8 0.563251 0.348654 0.000000
O O9 0.178161 0.050235 0.880520
O O10 0.083633 0.842070 0.687634
O O11 0.148106 0.000000 0.750000
O O12 0.787046 0.944714 0.500000
O O13 0.415950 0.954808 0.500000
O O14 0.574835 0.113421 0.352948
O O15 0.500000 0.000000 0.417019
O O16 0.000000 0.293841 0.750000
#
# Coordination Sequence:
#
# PCOD9498613 Si02
#       6
#    16  16  16  16  16  16
#     4   8  17  37  62  91 118 150 200 258 304 352
#     4   9  18  31  51  78 109 148 195 237 283 348
#     4  11  21  34  56  83 119 155 194 247 303 352
#     4   9  18  35  65  91 114 153 204 253 302 362
#     4  10  22  38  60  87 119 157 201 250 297 359
#     4  11  22  37  54  80 122 166 192 240 308 364
#
# _framework density 20.619797999999999
#
# number of rings (size 3 to 8) (size 9 to 14) (size 15 to 20)
#    0.000    2.333    1.667    2.000    2.333    2.333 
#    0.000    0.833   11.000    3.000    0.000    0.000 
#    0.000    0.000    0.000    0.000    0.000    0.000 
#
# Total GULP energy -267414.875671 kJ/mol
# GULP energy per Si atom -5571.143243 kJ/mol
# Density = 2.057287 g / cm^3
# Si number density = 20.619798 Si / 1000 Ang^3
#
#
#
# Elastic Constant Matrix: (Units=GPa)
#
#
# Indices 1 2 3 4 5 6 
#
# 1 109.7509 23.5100 13.6814 0.0000 0.0000 0.0000
# 2 23.5100 38.1526 18.1482 0.0000 0.0000 0.0000
# 3 13.6814 18.1482 71.3039 0.0000 0.0000 0.0000
# 4 0.0000 0.0000 0.0000 2.4127 0.0000 0.0000
# 5 0.0000 0.0000 0.0000 0.0000 11.0588 0.0000
# 6 0.0000 0.0000 0.0000 0.0000 0.0000 19.7249
#
#
#
# Elastic Compliance Matrix: (Units=1/GPa)
#
#
# Indices 1 2 3 4 5 6 
#
# 1 0.010508 -0.006276 -0.000419 0.000000 0.000000 0.000000
# 2 -0.006276 0.033569 -0.007340 0.000000 0.000000 0.000000
# 3 -0.000419 -0.007340 0.015973 0.000000 0.000000 0.000000
# 4 0.000000 0.000000 0.000000 0.414480 0.000000 0.000000
# 5 0.000000 0.000000 0.000000 0.000000 0.090426 0.000000
# 6 0.000000 0.000000 0.000000 0.000000 0.000000 0.050697
#
#
# Mechanical properties :
#
#
# Convention : Reuss Voigt Hill
#
# Bulk Modulus (GPa) = 31.26853 36.65404 33.96129
# Shear Modulus (GPa) = 7.64078 17.56379 12.60229
#
# Velocity S-wave (km/s) = 1.92707 2.92171 2.47488
# Velocity P-wave (km/s) = 4.48873 5.40339 4.96716
#
# Compressibility (1/GPa) = 0.03198103
#
# Stress axis : x y z
#
# Youngs Moduli (GPa) = 95.16420 29.78920 62.60577
#
# Poissons Ratio (x) = 0.18696 0.02623
# Poissons Ratio (y) = 0.59725 0.45951
# Poissons Ratio (z) = 0.03986 0.21865
#
# Static dielectric constant tensor:
#      x y z
#    x 1.775990 0.000000 0.000000 
#    y 0.000000 1.782150 0.000000 
#    z 0.000000 0.000000 1.734080 
# 
# From -- ./inp_files/43572.got.cif
#   From: 2010.05.17/outbox.cif.g08.bks.cpg/sg66_22_cif.got.tgz:43572.got - 2010.06.03 17:51:23.
