data_PCOD9498089
_publ_section_title
;
Structure prediction by ZEFSAII (Michael W. Deem and Ramdas Pophale) SiO2 
 PCOD9498089
Probable space group: C C C M
;
_chemical_formula_sum "Si O2"
_cell_formula_units_Z 88
_cell_length_a 26.260398
_cell_length_b 12.347442
_cell_length_c 13.445196
_cell_angle_alpha 90.000000
_cell_angle_beta 90.000000
_cell_angle_gamma 90.000000
_cell_volume 4359.587878
_symmetry_space_group_name_H-M "C C C M"
_symmetry_group_IT_number 66
_symmetry_cell_setting 'orthorhombic'
loop_
_space_group_symop_operation_xyz
x,y,z
-x,-y,z
x,-y,1/2-z
-x,y,1/2-z
-x,-y,-z
x,y,-z
-x,y,1/2+z
x,-y,1/2+z
1/2+x,1/2+y,z
1/2-x,1/2-y,z
1/2+x,1/2-y,1/2-z
1/2-x,1/2+y,1/2-z
1/2-x,1/2-y,-z
1/2+x,1/2+y,-z
1/2-x,1/2+y,1/2+z
1/2+x,1/2-y,1/2+z
loop_
_atom_site_type_symbol
_atom_site_label
_atom_site_fract_x
_atom_site_fract_y
_atom_site_fract_z
Si Si1 0.749347 0.910318 0.386939
Si Si2 0.862648 0.181421 0.883576
Si Si3 0.533487 0.601505 0.617976
Si Si4 0.216400 0.647971 0.332708
Si Si5 0.500000 0.203971 0.250000
Si Si6 0.112175 0.627154 0.732294
O O1 0.733860 0.875573 0.500000
O O2 0.807662 0.873145 0.372088
O O3 0.722452 0.864207 0.288007
O O4 0.739190 0.038510 0.379000
O O5 0.907037 0.096792 0.854306
O O6 0.874804 0.289025 0.821198
O O7 0.868163 0.207332 0.000000
O O8 0.500000 0.500000 0.649259
O O9 0.530412 0.605655 0.500000
O O10 0.513089 0.713497 0.661369
O O11 0.250000 0.750000 0.363926
O O12 0.155554 0.658064 0.349327
O O13 0.551316 0.140879 0.281204
O O14 0.121712 0.500000 0.750000
#
# Coordination Sequence:
#
# PCOD9498089 Si02
#       6
#    16  16  16  16   8  16
#     4  10  21  38  60  86 115 150 190 233 293 350
#     4   9  19  36  61  86 109 147 194 242 287 346
#     4   9  18  35  57  85 115 141 184 235 278 334
#     4  11  22  38  58  89 119 152 188 243 291 343
#     4  10  22  36  56  80 110 158 190 226 280 342
#     4  11  21  38  55  80 113 148 192 237 285 336
#
# _framework density 20.185395
#
# number of rings (size 3 to 8) (size 9 to 14) (size 15 to 20)
#    0.000    2.000    3.636    0.545    0.000    2.909 
#    3.273    1.818    0.000    4.364    0.000    0.000 
#    0.000    0.000    0.000    0.000    0.000    0.000 
#
# Total GULP energy -245120.525722 kJ/mol
# GULP energy per Si atom -5570.921039 kJ/mol
# Density = 2.013945 g / cm^3
# Si number density = 20.185395 Si / 1000 Ang^3
#
#
#
# Elastic Constant Matrix: (Units=GPa)
#
#
# Indices 1 2 3 4 5 6 
#
# 1 153.7344 52.7559 17.2795 0.0000 0.0000 0.0000
# 2 52.7559 101.9697 3.9391 0.0000 0.0000 0.0000
# 3 17.2795 3.9391 57.3447 0.0000 0.0000 0.0000
# 4 0.0000 0.0000 0.0000 3.0977 0.0000 0.0000
# 5 0.0000 0.0000 0.0000 0.0000 -2.6490 0.0000
# 6 0.0000 0.0000 0.0000 0.0000 0.0000 35.8798
#
#
#
# Elastic Compliance Matrix: (Units=1/GPa)
#
#
# Indices 1 2 3 4 5 6 
#
# 1 0.008171 -0.004143 -0.002178 0.000000 0.000000 0.000000
# 2 -0.004143 0.011934 0.000429 0.000000 0.000000 0.000000
# 3 -0.002178 0.000429 0.018065 0.000000 0.000000 0.000000
# 4 0.000000 0.000000 0.000000 0.322815 0.000000 0.000000
# 5 0.000000 0.000000 0.000000 0.000000 -0.377497 0.000000
# 6 0.000000 0.000000 0.000000 0.000000 0.000000 0.027871
#
#
# Mechanical properties :
#
#
# Convention : Reuss Voigt Hill
#
# Bulk Modulus (GPa) = 37.89915 51.22197 44.56056
# Shear Modulus (GPa) = 156.54761 23.20400 89.87580
#
# Velocity S-wave (km/s) = 8.81608 3.39417 6.67996
# Velocity P-wave (km/s) = 11.06559 6.38681 9.03434
#
# Compressibility (1/GPa) = 0.02638582
#
# Stress axis : x y z
#
# Youngs Moduli (GPa) = 122.37838 83.79435 55.35525
#
# Poissons Ratio (x) = 0.34720 0.12054
# Poissons Ratio (y) = 0.50707 -0.02374
# Poissons Ratio (z) = 0.26650 -0.03593
#
# Static dielectric constant tensor:
#      x y z
#    x 1.813170 0.000000 0.000000 
#    y 0.000000 1.735690 0.000000 
#    z 0.000000 0.000000 1.728650 
# 
# From -- ./inp_files/33216.got.cif
#   From: 2010.05.17/outbox.cif.g08.bks.cpg/sg66_17_cif.got.tgz:33216.got - 2010.06.03 17:51:23.
