data_PCOD9498911
_publ_section_title
;
Structure prediction by ZEFSAII (Michael W. Deem and Ramdas Pophale) SiO2 
 PCOD9498911
Probable space group: C C C M
;
_chemical_formula_sum "Si O2"
_cell_formula_units_Z 52
_cell_length_a 11.305094
_cell_length_b 13.963588
_cell_length_c 13.165128
_cell_angle_alpha 90.000000
_cell_angle_beta 90.000000
_cell_angle_gamma 90.000000
_cell_volume 2078.242826
_symmetry_space_group_name_H-M "C C C M"
_symmetry_group_IT_number 66
_symmetry_cell_setting 'orthorhombic'
loop_
_space_group_symop_operation_xyz
x,y,z
-x,-y,z
x,-y,1/2-z
-x,y,1/2-z
-x,-y,-z
x,y,-z
-x,y,1/2+z
x,-y,1/2+z
1/2+x,1/2+y,z
1/2-x,1/2-y,z
1/2+x,1/2-y,1/2-z
1/2-x,1/2+y,1/2-z
1/2-x,1/2-y,-z
1/2+x,1/2+y,-z
1/2-x,1/2+y,1/2+z
1/2+x,1/2-y,1/2+z
loop_
_atom_site_type_symbol
_atom_site_label
_atom_site_fract_x
_atom_site_fract_y
_atom_site_fract_z
Si Si1 0.709724 0.017306 0.614750
Si Si2 0.101248 0.812955 0.390996
Si Si3 0.500000 0.000000 0.750000
Si Si4 0.837415 0.175686 0.167820
O O1 0.676564 0.989151 0.500000
O O2 0.768499 0.924765 0.668365
O O3 0.811313 0.096540 0.606658
O O4 0.591813 0.051205 0.673658
O O5 0.117629 0.759935 0.500000
O O6 0.131718 0.776709 0.277938
O O7 0.963629 0.840262 0.384114
O O8 0.750000 0.250000 0.115613
#
# Coordination Sequence:
#
# PCOD9498911 Si02
#       4
#    16  16   4  16
#     4  11  23  42  68  96 130 176 226 275 329 396
#     4  10  22  43  69  94 127 178 228 268 324 404
#     4  12  22  40  66  94 128 168 224 290 320 386
#     4  11  23  41  66 100 138 169 213 279 342 399
#
# _framework density 25.021138000000001
#
# number of rings (size 3 to 8) (size 9 to 14) (size 15 to 20)
#    0.000    1.231    3.077    2.308    0.000   10.462 
#    0.000    0.000    0.000    0.000    0.000    0.000 
#    0.000    0.000    0.000    0.000    0.000    0.000 
#
# Total GULP energy -145057.319245 kJ/mol
# GULP energy per Si atom -5579.127663 kJ/mol
# Density = 2.496419 g / cm^3
# Si number density = 25.021138 Si / 1000 Ang^3
#
#
#
# Elastic Constant Matrix: (Units=GPa)
#
#
# Indices 1 2 3 4 5 6 
#
# 1 233.2253 50.8530 53.4016 0.0000 0.0000 0.0000
# 2 50.8530 56.1043 -2.2700 0.0000 0.0000 0.0000
# 3 53.4016 -2.2700 197.6294 0.0000 0.0000 0.0000
# 4 0.0000 0.0000 0.0000 81.2486 0.0000 0.0000
# 5 0.0000 0.0000 0.0000 0.0000 3.7397 0.0000
# 6 0.0000 0.0000 0.0000 0.0000 0.0000 37.8532
#
#
#
# Elastic Compliance Matrix: (Units=1/GPa)
#
#
# Indices 1 2 3 4 5 6 
#
# 1 0.005829 -0.005349 -0.001636 0.000000 0.000000 0.000000
# 2 -0.005349 0.022742 0.001707 0.000000 0.000000 0.000000
# 3 -0.001636 0.001707 0.005522 0.000000 0.000000 0.000000
# 4 0.000000 0.000000 0.000000 0.012308 0.000000 0.000000
# 5 0.000000 0.000000 0.000000 0.000000 0.267403 0.000000
# 6 0.000000 0.000000 0.000000 0.000000 0.000000 0.026418
#
#
# Mechanical properties :
#
#
# Convention : Reuss Voigt Hill
#
# Bulk Modulus (GPa) = 42.49189 76.76980 59.63085
# Shear Modulus (GPa) = 13.94217 50.23325 32.08771
#
# Velocity S-wave (km/s) = 2.36310 4.48552 3.58498
# Velocity P-wave (km/s) = 4.94620 7.58783 6.40469
#
# Compressibility (1/GPa) = 0.02353390
#
# Stress axis : x y z
#
# Youngs Moduli (GPa) = 171.56178 43.97202 181.10145
#
# Poissons Ratio (x) = 0.23523 0.29636
# Poissons Ratio (y) = 0.91776 -0.30908
# Poissons Ratio (z) = 0.28075 -0.07505
#
# Static dielectric constant tensor:
#      x y z
#    x 1.923900 0.000000 0.000000 
#    y 0.000000 1.915340 0.000000 
#    z 0.000000 0.000000 2.129120 
# 
# From -- ./inp_files/23749.got.cif
#   From: 2010.05.17/outbox.cif.g08.bks.cpg/sg66_12_cif.got.tgz:23749.got - 2010.06.03 17:51:23.
