data_PCOD9498085
_publ_section_title
;
Structure prediction by ZEFSAII (Michael W. Deem and Ramdas Pophale) SiO2 
 PCOD9498085
Probable space group: C C C M
;
_chemical_formula_sum "Si O2"
_cell_formula_units_Z 96
_cell_length_a 21.023870
_cell_length_b 8.659275
_cell_length_c 26.485328
_cell_angle_alpha 90.000000
_cell_angle_beta 90.000000
_cell_angle_gamma 90.000000
_cell_volume 4821.692946
_symmetry_space_group_name_H-M "C C C M"
_symmetry_group_IT_number 66
_symmetry_cell_setting 'orthorhombic'
loop_
_space_group_symop_operation_xyz
x,y,z
-x,-y,z
x,-y,1/2-z
-x,y,1/2-z
-x,-y,-z
x,y,-z
-x,y,1/2+z
x,-y,1/2+z
1/2+x,1/2+y,z
1/2-x,1/2-y,z
1/2+x,1/2-y,1/2-z
1/2-x,1/2+y,1/2-z
1/2-x,1/2-y,-z
1/2+x,1/2+y,-z
1/2-x,1/2+y,1/2+z
1/2+x,1/2-y,1/2+z
loop_
_atom_site_type_symbol
_atom_site_label
_atom_site_fract_x
_atom_site_fract_y
_atom_site_fract_z
Si Si1 0.739700 0.934449 0.694162
Si Si2 0.375124 0.897276 0.129174
Si Si3 0.200059 0.113965 0.896480
Si Si4 0.168010 0.172508 0.445826
Si Si5 0.910835 0.683788 0.939965
Si Si6 0.466159 0.341662 0.598639
O O1 0.750000 0.750000 0.695141
O O2 0.667261 0.964175 0.674084
O O3 0.747576 0.000000 0.750000
O O4 0.788021 0.023936 0.656186
O O5 0.323862 0.796536 0.097721
O O6 0.431905 0.773569 0.139224
O O7 0.401066 0.023712 0.090048
O O8 0.250000 0.250000 0.899878
O O9 0.133916 0.196426 0.909478
O O10 0.207958 0.980783 0.937927
O O11 0.176702 0.243076 0.500000
O O12 0.093996 0.123313 0.437553
O O13 0.982137 0.743930 0.931877
O O14 0.895978 0.675011 0.000000
O O15 0.500000 0.500000 0.616137
#
# Coordination Sequence:
#
# PCOD9498085 Si02
#       6
#    16  16  16  16  16  16
#     4  12  25  48  72  95 120 163 219 283 344 398
#     4  10  23  41  62  97 129 167 224 271 322 384
#     4  12  24  41  61  98 130 170 223 267 322 385
#     4  10  21  38  59  90 135 177 214 255 306 373
#     4  12  23  37  63  97 142 186 221 256 309 388
#     4  10  21  38  62  92 133 177 225 255 304 379
#
# _framework density 19.910018000000001
#
# number of rings (size 3 to 8) (size 9 to 14) (size 15 to 20)
#    1.000    0.000    5.000    2.500    0.000    2.667 
#    0.000    0.833    0.000    2.000    0.000    2.333 
#    0.000    0.000    0.000    0.000    0.000    0.000 
#
# Total GULP energy -267385.206903 kJ/mol
# GULP energy per Si atom -5570.525144 kJ/mol
# Density = 1.986470 g / cm^3
# Si number density = 19.910018 Si / 1000 Ang^3
#
#
#
# Elastic Constant Matrix: (Units=GPa)
#
#
# Indices 1 2 3 4 5 6 
#
# 1 86.5946 49.0853 38.1112 0.0000 0.0000 0.0000
# 2 49.0853 104.7025 19.8098 0.0000 0.0000 0.0000
# 3 38.1112 19.8098 91.3645 0.0000 0.0000 0.0000
# 4 0.0000 0.0000 0.0000 24.9057 0.0000 0.0000
# 5 0.0000 0.0000 0.0000 0.0000 16.5201 0.0000
# 6 0.0000 0.0000 0.0000 0.0000 0.0000 48.6059
#
#
#
# Elastic Compliance Matrix: (Units=1/GPa)
#
#
# Indices 1 2 3 4 5 6 
#
# 1 0.018484 -0.007515 -0.006081 0.000000 0.000000 0.000000
# 2 -0.007515 0.013015 0.000313 0.000000 0.000000 0.000000
# 3 -0.006081 0.000313 0.013414 0.000000 0.000000 0.000000
# 4 0.000000 0.000000 0.000000 0.040151 0.000000 0.000000
# 5 0.000000 0.000000 0.000000 0.000000 0.060532 0.000000
# 6 0.000000 0.000000 0.000000 0.000000 0.000000 0.020574
#
#
# Mechanical properties :
#
#
# Convention : Reuss Voigt Hill
#
# Bulk Modulus (GPa) = 54.50575 55.18601 54.84588
# Shear Modulus (GPa) = 25.14433 29.71669 27.43051
#
# Velocity S-wave (km/s) = 3.55758 3.86754 3.71580
# Velocity P-wave (km/s) = 6.65663 6.90809 6.78352
#
# Compressibility (1/GPa) = 0.01834669
#
# Stress axis : x y z
#
# Youngs Moduli (GPa) = 54.10042 76.83594 74.54950
#
# Poissons Ratio (x) = 0.57742 0.45333
# Poissons Ratio (y) = 0.40656 -0.02332
# Poissons Ratio (z) = 0.32898 -0.02404
#
# Static dielectric constant tensor:
#      x y z
#    x 1.764100 0.000000 0.000000 
#    y 0.000000 1.763220 0.000000 
#    z 0.000000 0.000000 1.654140 
# 
# From -- ./inp_files/59802.got.cif
#   From: 2010.05.17/outbox.cif.g08.bks.cpg/sg66_30_cif.got.tgz:59802.got - 2010.06.03 17:51:23.
