data_PCOD9499903
_publ_section_title
;
Structure prediction by ZEFSAII (Michael W. Deem and Ramdas Pophale) SiO2 
 PCOD9499903
Probable space group: C C C M
;
_chemical_formula_sum "Si O2"
_cell_formula_units_Z 80
_cell_length_a 10.198637
_cell_length_b 10.194915
_cell_length_c 28.299007
_cell_angle_alpha 90.000000
_cell_angle_beta 90.000000
_cell_angle_gamma 90.000000
_cell_volume 2942.367670
_symmetry_space_group_name_H-M "C C C M"
_symmetry_group_IT_number 66
_symmetry_cell_setting 'orthorhombic'
loop_
_space_group_symop_operation_xyz
x,y,z
-x,-y,z
x,-y,1/2-z
-x,y,1/2-z
-x,-y,-z
x,y,-z
-x,y,1/2+z
x,-y,1/2+z
1/2+x,1/2+y,z
1/2-x,1/2-y,z
1/2+x,1/2-y,1/2-z
1/2-x,1/2+y,1/2-z
1/2-x,1/2-y,-z
1/2+x,1/2+y,-z
1/2-x,1/2+y,1/2+z
1/2+x,1/2-y,1/2+z
loop_
_atom_site_type_symbol
_atom_site_label
_atom_site_fract_x
_atom_site_fract_y
_atom_site_fract_z
Si Si1 0.049588 0.298571 0.696527
Si Si2 0.321100 0.539994 0.803918
Si Si3 0.161062 0.589113 0.373546
Si Si4 0.285017 0.432236 0.446086
Si Si5 0.050143 0.204609 0.946228
O O1 0.184714 0.378954 0.696861
O O2 0.074443 0.148711 0.680403
O O3 0.000000 0.293011 0.750000
O O4 0.946986 0.375548 0.665175
O O5 0.347168 0.500000 0.750000
O O6 0.291531 0.423371 0.840667
O O7 0.176323 0.458155 0.406114
O O8 0.122811 0.696625 0.412188
O O9 0.237294 0.414725 0.500000
O O10 0.370388 0.567380 0.445397
O O11 0.396559 0.324020 0.435668
O O12 0.057242 0.253931 0.000000
#
# Coordination Sequence:
#
# PCOD9499903 Si02
#       5
#    16  16  16  16  16
#     4  11  25  45  69  95 129 179 236 297 364 437
#     4  11  25  45  69  95 129 179 236 297 364 437
#     4  12  21  35  66  97 131 177 232 293 362 438
#     4   9  19  36  59  94 141 188 236 292 356 429
#     4   9  19  36  59  94 141 188 236 292 356 429
#
# _framework density 27.188988999999999
#
# number of rings (size 3 to 8) (size 9 to 14) (size 15 to 20)
#    0.000    1.600    2.000    4.200    0.000    5.200 
#    0.000    0.000    0.000    9.600    0.000   22.400 
#    0.000    0.000    0.000    0.000    0.000    0.000 
#
# Total GULP energy -224121.633252 kJ/mol
# GULP energy per Si atom -5603.040831 kJ/mol
# Density = 2.712711 g / cm^3
# Si number density = 27.188989 Si / 1000 Ang^3
#
#
#
# Elastic Constant Matrix: (Units=GPa)
#
#
# Indices 1 2 3 4 5 6 
#
# 1 153.3271 67.3236 75.4316 0.0000 0.0000 0.0000
# 2 67.3236 145.1641 80.7499 0.0000 0.0000 0.0000
# 3 75.4316 80.7499 217.9734 0.0000 0.0000 0.0000
# 4 0.0000 0.0000 0.0000 22.4909 0.0000 0.0000
# 5 0.0000 0.0000 0.0000 0.0000 23.3076 0.0000
# 6 0.0000 0.0000 0.0000 0.0000 0.0000 44.7534
#
#
#
# Elastic Compliance Matrix: (Units=1/GPa)
#
#
# Indices 1 2 3 4 5 6 
#
# 1 0.008790 -0.003003 -0.001929 0.000000 0.000000 0.000000
# 2 -0.003003 0.009703 -0.002555 0.000000 0.000000 0.000000
# 3 -0.001929 -0.002555 0.006202 0.000000 0.000000 0.000000
# 4 0.000000 0.000000 0.000000 0.044462 0.000000 0.000000
# 5 0.000000 0.000000 0.000000 0.000000 0.042904 0.000000
# 6 0.000000 0.000000 0.000000 0.000000 0.000000 0.022345
#
#
# Mechanical properties :
#
#
# Convention : Reuss Voigt Hill
#
# Bulk Modulus (GPa) = 102.88861 107.05276 104.97069
# Shear Modulus (GPa) = 32.76078 37.64102 35.20090
#
# Velocity S-wave (km/s) = 3.47497 3.72482 3.60206
# Velocity P-wave (km/s) = 7.35015 7.61302 7.48274
#
# Compressibility (1/GPa) = 0.00971925
#
# Stress axis : x y z
#
# Youngs Moduli (GPa) = 113.76793 103.06060 161.24024
#
# Poissons Ratio (x) = 0.30953 0.31106
# Poissons Ratio (y) = 0.34169 0.41200
# Poissons Ratio (z) = 0.21948 0.26334
#
# Static dielectric constant tensor:
#      x y z
#    x 2.221510 0.000000 0.000000 
#    y 0.000000 2.239460 0.000000 
#    z 0.000000 0.000000 2.057070 
# 
# From -- ./inp_files/68730.got.cif
#   From: 2010.05.17/outbox.cif.g08.bks.cpg/sg66_35_cif.got.tgz:68730.got - 2010.06.03 17:51:23.
