data_PCOD9499574
_publ_section_title
;
Structure prediction by ZEFSAII (Michael W. Deem and Ramdas Pophale) SiO2 
 PCOD9499574
Probable space group: C C C M
;
_chemical_formula_sum "Si O2"
_cell_formula_units_Z 112
_cell_length_a 27.651864
_cell_length_b 14.149836
_cell_length_c 14.408275
_cell_angle_alpha 90.000000
_cell_angle_beta 90.000000
_cell_angle_gamma 90.000000
_cell_volume 5637.516260
_symmetry_space_group_name_H-M "C C C M"
_symmetry_group_IT_number 66
_symmetry_cell_setting 'orthorhombic'
loop_
_space_group_symop_operation_xyz
x,y,z
-x,-y,z
x,-y,1/2-z
-x,y,1/2-z
-x,-y,-z
x,y,-z
-x,y,1/2+z
x,-y,1/2+z
1/2+x,1/2+y,z
1/2-x,1/2-y,z
1/2+x,1/2-y,1/2-z
1/2-x,1/2+y,1/2-z
1/2-x,1/2-y,-z
1/2+x,1/2+y,-z
1/2-x,1/2+y,1/2+z
1/2+x,1/2-y,1/2+z
loop_
_atom_site_type_symbol
_atom_site_label
_atom_site_fract_x
_atom_site_fract_y
_atom_site_fract_z
Si Si1 0.194182 0.234864 0.209051
Si Si2 0.619482 0.110404 0.267193
Si Si3 0.153831 0.148079 0.608610
Si Si4 0.966373 0.695537 0.893421
Si Si5 0.863384 0.933380 0.110282
Si Si6 0.925799 0.714349 0.609193
Si Si7 0.970799 0.912157 0.153969
O O1 0.250000 0.250000 0.187746
O O2 0.165407 0.332756 0.194327
O O3 0.186047 0.201663 0.315854
O O4 0.168292 0.152346 0.149663
O O5 0.574278 0.146595 0.330409
O O6 0.610661 0.149921 0.164275
O O7 0.623914 0.000000 0.250000
O O8 0.163729 0.170515 0.500000
O O9 0.097469 0.181455 0.625490
O O10 0.159794 0.036534 0.622101
O O11 0.965926 0.810093 0.893665
O O12 0.021198 0.683353 0.858001
O O13 0.961319 0.662619 0.000000
O O14 0.914794 0.938390 0.161790
O O15 0.872187 0.920279 0.000000
O O16 0.926369 0.700840 0.500000
O O17 0.000000 0.897069 0.250000
O O18 0.000000 0.000000 0.108579
#
# Coordination Sequence:
#
# PCOD9499574 Si02
#       7
#    16  16  16  16  16  16  16
#     4  11  25  43  68  90 119 164 220 285 343 396
#     4  11  24  41  61  84 121 165 220 272 324 376
#     4   9  20  39  66  97 128 162 204 265 336 406
#     4  11  22  37  58  88 130 172 209 253 310 381
#     4  11  23  40  64  97 138 176 209 261 336 414
#     4   9  19  36  59  89 124 161 205 253 309 377
#     4  11  23  33  59  97 138 178 214 250 311 401
#
# _framework density 19.866904000000002
#
# number of rings (size 3 to 8) (size 9 to 14) (size 15 to 20)
#    0.000    1.571    1.429    3.000    6.000    5.714 
#    0.000    1.429    0.000    0.000    0.000    0.000 
#    0.000    0.000    0.000    0.000    0.000    0.000 
#
# Total GULP energy -312204.329809 kJ/mol
# GULP energy per Si atom -5575.077318 kJ/mol
# Density = 1.982169 g / cm^3
# Si number density = 19.866904 Si / 1000 Ang^3
#
#
#
# Elastic Constant Matrix: (Units=GPa)
#
#
# Indices 1 2 3 4 5 6 
#
# 1 126.9296 63.3304 28.3594 0.0000 0.0000 0.0000
# 2 63.3304 142.2441 40.2545 0.0000 0.0000 0.0000
# 3 28.3594 40.2545 68.6962 0.0000 0.0000 0.0000
# 4 0.0000 0.0000 0.0000 -21.7912 0.0000 0.0000
# 5 0.0000 0.0000 0.0000 0.0000 0.9185 0.0000
# 6 0.0000 0.0000 0.0000 0.0000 0.0000 14.1047
#
#
#
# Elastic Compliance Matrix: (Units=1/GPa)
#
#
# Indices 1 2 3 4 5 6 
#
# 1 0.010327 -0.004066 -0.001881 0.000000 0.000000 0.000000
# 2 -0.004066 0.010028 -0.004198 0.000000 0.000000 0.000000
# 3 -0.001881 -0.004198 0.017793 0.000000 0.000000 0.000000
# 4 0.000000 0.000000 0.000000 -0.045890 0.000000 0.000000
# 5 0.000000 0.000000 0.000000 0.000000 1.088704 0.000000
# 6 0.000000 0.000000 0.000000 0.000000 0.000000 0.070898
#
#
# Mechanical properties :
#
#
# Convention : Reuss Voigt Hill
#
# Bulk Modulus (GPa) = 55.99209 66.86205 61.42707
# Shear Modulus (GPa) = 4.24411 12.37478 8.30945
#
# Velocity S-wave (km/s) = 1.46318 2.49847 2.04735
# Velocity P-wave (km/s) = 5.57668 6.48469 6.04775
#
# Compressibility (1/GPa) = 0.01785966
#
# Stress axis : x y z
#
# Youngs Moduli (GPa) = 96.83239 99.71808 56.20108
#
# Poissons Ratio (x) = 0.40541 0.10571
# Poissons Ratio (y) = 0.39368 0.23593
# Poissons Ratio (z) = 0.18213 0.41861
#
# Static dielectric constant tensor:
#      x y z
#    x 1.715570 0.000000 0.000000 
#    y 0.000000 1.768680 0.000000 
#    z 0.000000 0.000000 1.720900 
# 
# From -- ./inp_files/32505.got.cif
#   From: 2010.05.17/outbox.cif.g08.bks.cpg/sg66_17_cif.got.tgz:32505.got - 2010.06.03 17:51:23.
