data_PCOD9499460
_publ_section_title
;
Structure prediction by ZEFSAII (Michael W. Deem and Ramdas Pophale) SiO2 
 PCOD9499460
Probable space group: C C C M
;
_chemical_formula_sum "Si O2"
_cell_formula_units_Z 108
_cell_length_a 24.304451
_cell_length_b 14.873578
_cell_length_c 14.883459
_cell_angle_alpha 90.000000
_cell_angle_beta 90.000000
_cell_angle_gamma 90.000000
_cell_volume 5380.283326
_symmetry_space_group_name_H-M "C C C M"
_symmetry_group_IT_number 66
_symmetry_cell_setting 'orthorhombic'
loop_
_space_group_symop_operation_xyz
x,y,z
-x,-y,z
x,-y,1/2-z
-x,y,1/2-z
-x,-y,-z
x,y,-z
-x,y,1/2+z
x,-y,1/2+z
1/2+x,1/2+y,z
1/2-x,1/2-y,z
1/2+x,1/2-y,1/2-z
1/2-x,1/2+y,1/2-z
1/2-x,1/2-y,-z
1/2+x,1/2+y,-z
1/2-x,1/2+y,1/2+z
1/2+x,1/2-y,1/2+z
loop_
_atom_site_type_symbol
_atom_site_label
_atom_site_fract_x
_atom_site_fract_y
_atom_site_fract_z
Si Si1 0.839865 0.633191 0.500000
Si Si2 0.470982 0.300049 0.899665
Si Si3 0.000000 0.500000 0.250000
Si Si4 0.913727 0.630046 0.164449
Si Si5 0.215340 0.162491 0.895893
Si Si6 0.693629 0.982951 0.857473
Si Si7 0.887462 0.104022 0.275360
Si Si8 0.594300 0.757988 0.652990
O O1 0.812234 0.569876 0.580066
O O2 0.871832 0.693783 0.576702
O O3 0.433080 0.211044 0.897652
O O4 0.443660 0.367450 0.827548
O O5 0.530992 0.263152 0.872227
O O6 0.472757 0.338659 0.000000
O O7 0.037762 0.439541 0.186088
O O8 0.861767 0.575810 0.129374
O O9 0.902853 0.677412 0.260194
O O10 0.250000 0.250000 0.863944
O O11 0.255600 0.077797 0.887359
O O12 0.161697 0.138594 0.838930
O O13 0.200463 0.178660 0.000000
O O14 0.697491 0.000000 0.750000
O O15 0.882599 0.162490 0.185048
O O16 0.885191 0.000000 0.250000
#
# Coordination Sequence:
#
# PCOD9499460 Si02
#       8
#     8  16   4  16  16  16  16  16
#     4  12  24  42  64 106 144 182 238 280 356 442
#     4  11  23  40  66  97 138 177 232 290 356 419
#     4  12  16  32  54  92 134 180 222 264 310 426
#     4  11  21  35  58  94 136 188 225 271 344 411
#     4  11  24  45  72 101 134 176 241 308 358 422
#     4  12  24  40  68  98 142 192 236 289 355 428
#     4  11  25  47  72  98 132 182 240 298 359 428
#     4  11  22  44  66  95 140 184 222 289 357 432
#
# _framework density 20.073291000000001
#
# number of rings (size 3 to 8) (size 9 to 14) (size 15 to 20)
#    0.000    0.741    5.185    4.000    1.037    2.370 
#    2.667    1.852    0.000    3.556    0.000    0.000 
#    0.000    0.000    0.000    0.000    0.000    0.000 
#
# Total GULP energy -300753.143215 kJ/mol
# GULP energy per Si atom -5569.502652 kJ/mol
# Density = 2.002760 g / cm^3
# Si number density = 20.073291 Si / 1000 Ang^3
#
#
#
# Elastic Constant Matrix: (Units=GPa)
#
#
# Indices 1 2 3 4 5 6 
#
# 1 47.0070 16.8497 5.6557 0.0000 0.0000 0.0000
# 2 16.8497 92.4124 25.1571 0.0000 0.0000 0.0000
# 3 5.6557 25.1571 105.0617 0.0000 0.0000 0.0000
# 4 0.0000 0.0000 0.0000 13.1418 0.0000 0.0000
# 5 0.0000 0.0000 0.0000 0.0000 1.3422 0.0000
# 6 0.0000 0.0000 0.0000 0.0000 0.0000 29.7467
#
#
#
# Elastic Compliance Matrix: (Units=1/GPa)
#
#
# Indices 1 2 3 4 5 6 
#
# 1 0.022767 -0.004084 -0.000248 0.000000 0.000000 0.000000
# 2 -0.004084 0.012308 -0.002727 0.000000 0.000000 0.000000
# 3 -0.000248 -0.002727 0.010185 0.000000 0.000000 0.000000
# 4 0.000000 0.000000 0.000000 0.076093 0.000000 0.000000
# 5 0.000000 0.000000 0.000000 0.000000 0.745032 0.000000
# 6 0.000000 0.000000 0.000000 0.000000 0.000000 0.033617
#
#
# Mechanical properties :
#
#
# Convention : Reuss Voigt Hill
#
# Bulk Modulus (GPa) = 32.11082 37.75624 34.93353
# Shear Modulus (GPa) = 5.40833 21.96741 13.68787
#
# Velocity S-wave (km/s) = 1.64321 3.31170 2.61414
# Velocity P-wave (km/s) = 4.43077 5.78560 5.15291
#
# Compressibility (1/GPa) = 0.03114215
#
# Stress axis : x y z
#
# Youngs Moduli (GPa) = 43.92314 81.24732 98.18730
#
# Poissons Ratio (x) = 0.33179 0.02433
# Poissons Ratio (y) = 0.17937 0.26779
# Poissons Ratio (z) = 0.01088 0.22159
#
# Static dielectric constant tensor:
#      x y z
#    x 1.736260 0.000000 0.000000 
#    y 0.000000 1.717500 0.000000 
#    z 0.000000 0.000000 1.749130 
# 
# From -- ./inp_files/32538.got.cif
#   From: 2010.05.17/outbox.cif.g08.bks.cpg/sg66_17_cif.got.tgz:32538.got - 2010.06.03 17:51:23.
