data_PCOD9499424
_publ_section_title
;
Structure prediction by ZEFSAII (Michael W. Deem and Ramdas Pophale) SiO2 
 PCOD9499424
Probable space group: C C C M
;
_chemical_formula_sum "Si O2"
_cell_formula_units_Z 56
_cell_length_a 10.480891
_cell_length_b 15.258912
_cell_length_c 14.767505
_cell_angle_alpha 90.000000
_cell_angle_beta 90.000000
_cell_angle_gamma 90.000000
_cell_volume 2361.722675
_symmetry_space_group_name_H-M "C C C M"
_symmetry_group_IT_number 66
_symmetry_cell_setting 'orthorhombic'
loop_
_space_group_symop_operation_xyz
x,y,z
-x,-y,z
x,-y,1/2-z
-x,y,1/2-z
-x,-y,-z
x,y,-z
-x,y,1/2+z
x,-y,1/2+z
1/2+x,1/2+y,z
1/2-x,1/2-y,z
1/2+x,1/2-y,1/2-z
1/2-x,1/2+y,1/2-z
1/2-x,1/2-y,-z
1/2+x,1/2+y,-z
1/2-x,1/2+y,1/2+z
1/2+x,1/2-y,1/2+z
loop_
_atom_site_type_symbol
_atom_site_label
_atom_site_fract_x
_atom_site_fract_y
_atom_site_fract_z
Si Si1 0.500000 0.154688 0.750000
Si Si2 0.750000 0.750000 0.665065
Si Si3 0.408764 0.715192 0.000000
Si Si4 0.193650 0.535601 0.653362
Si Si5 0.688162 0.653757 0.000000
Si Si6 0.895453 0.577074 0.500000
O O1 0.370895 0.208554 0.720731
O O2 0.563377 0.089465 0.676356
O O3 0.669349 0.695010 0.590507
O O4 0.538727 0.665358 0.000000
O O5 0.434086 0.821361 0.000000
O O6 0.242895 0.500000 0.750000
O O7 0.271722 0.602409 0.590723
O O8 0.177686 0.451482 0.590206
O O9 0.750000 0.750000 0.000000
O O10 0.000000 0.500000 0.500000
#
# Coordination Sequence:
#
# PCOD9499424 Si02
#       6
#     8   8   8  16   8   8
#     4  12  25  42  70 114 147 196 260 326 393 462
#     4  11  26  42  70 107 154 194 254 333 396 455
#     4  11  24  46  70 107 154 203 256 332 403 464
#     4  11  24  43  73 114 156 206 264 326 397 481
#     4  11  24  42  76 119 155 202 273 335 396 476
#     4  11  20  40  70 103 147 200 257 319 385 476
#
# _framework density 23.711506
#
# number of rings (size 3 to 8) (size 9 to 14) (size 15 to 20)
#    0.000    0.857    0.000    9.000    6.000    2.286 
#    0.000    0.000    0.000   41.143    0.000    0.000 
#    0.000    0.000    0.000    0.000    0.000    0.000 
#
# Total GULP energy -156198.750676 kJ/mol
# GULP energy per Si atom -5578.526810 kJ/mol
# Density = 2.365754 g / cm^3
# Si number density = 23.711506 Si / 1000 Ang^3
#
#
#
# Elastic Constant Matrix: (Units=GPa)
#
#
# Indices 1 2 3 4 5 6 
#
# 1 207.8623 91.1739 85.0161 0.0000 0.0000 0.0000
# 2 91.1739 161.9399 84.4607 0.0000 0.0000 0.0000
# 3 85.0161 84.4607 199.1676 0.0000 0.0000 0.0000
# 4 0.0000 0.0000 0.0000 50.3078 0.0000 0.0000
# 5 0.0000 0.0000 0.0000 0.0000 47.5793 0.0000
# 6 0.0000 0.0000 0.0000 0.0000 0.0000 53.1827
#
#
#
# Elastic Compliance Matrix: (Units=1/GPa)
#
#
# Indices 1 2 3 4 5 6 
#
# 1 0.006780 -0.002963 -0.001638 0.000000 0.000000 0.000000
# 2 -0.002963 0.009224 -0.002647 0.000000 0.000000 0.000000
# 3 -0.001638 -0.002647 0.006842 0.000000 0.000000 0.000000
# 4 0.000000 0.000000 0.000000 0.019878 0.000000 0.000000
# 5 0.000000 0.000000 0.000000 0.000000 0.021018 0.000000
# 6 0.000000 0.000000 0.000000 0.000000 0.000000 0.018803
#
#
# Mechanical properties :
#
#
# Convention : Reuss Voigt Hill
#
# Bulk Modulus (GPa) = 119.74017 121.14123 120.44070
# Shear Modulus (GPa) = 50.08814 50.76856 50.42835
#
# Velocity S-wave (km/s) = 4.60107 4.63222 4.61667
# Velocity P-wave (km/s) = 8.87890 8.93367 8.90633
#
# Compressibility (1/GPa) = 0.00835142
#
# Stress axis : x y z
#
# Youngs Moduli (GPa) = 147.48211 108.41392 146.15007
#
# Poissons Ratio (x) = 0.32127 0.23934
# Poissons Ratio (y) = 0.43704 0.38681
# Poissons Ratio (z) = 0.24152 0.28693
#
# Static dielectric constant tensor:
#      x y z
#    x 2.018500 0.000000 0.000000 
#    y 0.000000 1.927340 0.000000 
#    z 0.000000 0.000000 2.060260 
# 
# From -- ./inp_files/25460.got.cif
#   From: 2010.05.17/outbox.cif.g08.bks.cpg/sg66_13_cif.got.tgz:25460.got - 2010.06.03 17:51:23.
