data_PCOD9499468
_publ_section_title
;
Structure prediction by ZEFSAII (Michael W. Deem and Ramdas Pophale) SiO2 
 PCOD9499468
Probable space group: C C C M
;
_chemical_formula_sum "Si O2"
_cell_formula_units_Z 68
_cell_length_a 15.070279
_cell_length_b 9.251213
_cell_length_c 27.695917
_cell_angle_alpha 90.000000
_cell_angle_beta 90.000000
_cell_angle_gamma 90.000000
_cell_volume 3861.319354
_symmetry_space_group_name_H-M "C C C M"
_symmetry_group_IT_number 66
_symmetry_cell_setting 'orthorhombic'
loop_
_space_group_symop_operation_xyz
x,y,z
-x,-y,z
x,-y,1/2-z
-x,y,1/2-z
-x,-y,-z
x,y,-z
-x,y,1/2+z
x,-y,1/2+z
1/2+x,1/2+y,z
1/2-x,1/2-y,z
1/2+x,1/2-y,1/2-z
1/2-x,1/2+y,1/2-z
1/2-x,1/2-y,-z
1/2+x,1/2+y,-z
1/2-x,1/2+y,1/2+z
1/2+x,1/2-y,1/2+z
loop_
_atom_site_type_symbol
_atom_site_label
_atom_site_fract_x
_atom_site_fract_y
_atom_site_fract_z
Si Si1 0.500000 0.000000 0.250000
Si Si2 0.700542 0.982894 0.500000
Si Si3 0.585940 0.087321 0.843292
Si Si4 0.611570 0.333773 0.000000
Si Si5 0.513428 0.339142 0.898679
Si Si6 0.165893 0.649740 0.599382
O O1 0.437011 0.910967 0.213491
O O2 0.650448 0.829122 0.500000
O O3 0.805307 0.944076 0.500000
O O4 0.674220 0.072128 0.547478
O O5 0.581934 0.243002 0.867334
O O6 0.500000 0.000000 0.863966
O O7 0.661927 0.979656 0.861019
O O8 0.553412 0.351708 0.047808
O O9 0.500000 0.500000 0.879059
O O10 0.420325 0.253385 0.899351
O O11 0.250000 0.750000 0.607376
#
# Coordination Sequence:
#
# PCOD9499468 Si02
#       6
#     4   8  16   8  16  16
#     4   8  16  40  66  86 100 148 196 244 304 346
#     4  11  22  35  54  84 120 160 200 227 287 333
#     4   8  18  35  61  83 106 147 191 238 288 355
#     4  11  22  35  54  82 128 160 190 243 269 341
#     4  11  21  36  56  87 117 156 196 233 282 342
#     4  11  21  36  57  84 117 153 194 235 283 345
#
# _framework density 17.610561000000001
#
# number of rings (size 3 to 8) (size 9 to 14) (size 15 to 20)
#    0.706    1.176    2.353    2.824    0.000    0.941 
#    0.000    0.588    0.000    5.647    0.000    0.000 
#    0.000    0.000    0.000    0.000    0.000    0.000 
#
# Total GULP energy -189330.534156 kJ/mol
# GULP energy per Si atom -5568.545122 kJ/mol
# Density = 1.757048 g / cm^3
# Si number density = 17.610561 Si / 1000 Ang^3
#
#
#
# Elastic Constant Matrix: (Units=GPa)
#
#
# Indices 1 2 3 4 5 6 
#
# 1 54.0970 32.7614 8.1508 0.0000 0.0000 0.0000
# 2 32.7614 132.0988 45.6937 0.0000 0.0000 0.0000
# 3 8.1508 45.6937 101.2086 0.0000 0.0000 0.0000
# 4 0.0000 0.0000 0.0000 1.0142 0.0000 0.0000
# 5 0.0000 0.0000 0.0000 0.0000 -8.0682 0.0000
# 6 0.0000 0.0000 0.0000 0.0000 0.0000 25.7825
#
#
#
# Elastic Compliance Matrix: (Units=1/GPa)
#
#
# Indices 1 2 3 4 5 6 
#
# 1 0.021809 -0.005690 0.000812 0.000000 0.000000 0.000000
# 2 -0.005690 0.010456 -0.004262 0.000000 0.000000 0.000000
# 3 0.000812 -0.004262 0.011739 0.000000 0.000000 0.000000
# 4 0.000000 0.000000 0.000000 0.986045 0.000000 0.000000
# 5 0.000000 0.000000 0.000000 0.000000 -0.123943 0.000000
# 6 0.000000 0.000000 0.000000 0.000000 0.000000 0.038786
#
#
# Mechanical properties :
#
#
# Convention : Reuss Voigt Hill
#
# Bulk Modulus (GPa) = 38.87334 51.17960 45.02647
# Shear Modulus (GPa) = 5.14538 17.13225 11.13882
#
# Velocity S-wave (km/s) = 1.71117 3.12242 2.51770
# Velocity P-wave (km/s) = 5.10156 6.49032 5.83739
#
# Compressibility (1/GPa) = 0.02572457
#
# Stress axis : x y z
#
# Youngs Moduli (GPa) = 45.85345 95.64331 85.18266
#
# Poissons Ratio (x) = 0.54418 -0.06921
# Poissons Ratio (y) = 0.26089 0.36307
# Poissons Ratio (z) = -0.03725 0.40766
#
# Static dielectric constant tensor:
#      x y z
#    x 1.630050 0.000000 0.000000 
#    y 0.000000 1.619820 0.000000 
#    z 0.000000 0.000000 1.580130 
# 
# From -- ./inp_files/69847.got.cif
#   From: 2010.05.17/outbox.cif.g08.bks.cpg/sg66_35_cif.got.tgz:69847.got - 2010.06.03 17:51:23.
