data_PCOD9499193
_publ_section_title
;
Structure prediction by ZEFSAII (Michael W. Deem and Ramdas Pophale) SiO2 
 PCOD9499193
Probable space group: C C C M
;
_chemical_formula_sum "Si O2"
_cell_formula_units_Z 96
_cell_length_a 12.852773
_cell_length_b 20.589858
_cell_length_c 16.884732
_cell_angle_alpha 90.000000
_cell_angle_beta 90.000000
_cell_angle_gamma 90.000000
_cell_volume 4468.320955
_symmetry_space_group_name_H-M "C C C M"
_symmetry_group_IT_number 66
_symmetry_cell_setting 'orthorhombic'
loop_
_space_group_symop_operation_xyz
x,y,z
-x,-y,z
x,-y,1/2-z
-x,y,1/2-z
-x,-y,-z
x,y,-z
-x,y,1/2+z
x,-y,1/2+z
1/2+x,1/2+y,z
1/2-x,1/2-y,z
1/2+x,1/2-y,1/2-z
1/2-x,1/2+y,1/2-z
1/2-x,1/2-y,-z
1/2+x,1/2+y,-z
1/2-x,1/2+y,1/2+z
1/2+x,1/2-y,1/2+z
loop_
_atom_site_type_symbol
_atom_site_label
_atom_site_fract_x
_atom_site_fract_y
_atom_site_fract_z
Si Si1 0.294425 0.177231 0.133113
Si Si2 0.514881 0.223994 0.086529
Si Si3 0.030126 0.857989 0.838250
Si Si4 0.107690 0.368485 0.708372
Si Si5 0.732908 0.575860 0.405103
Si Si6 0.138232 0.934467 0.411831
O O1 0.250000 0.250000 0.135753
O O2 0.406223 0.185556 0.091748
O O3 0.315554 0.150125 0.220890
O O4 0.218983 0.125206 0.093373
O O5 0.497920 0.299656 0.103403
O O6 0.582438 0.196134 0.158097
O O7 0.562344 0.214639 0.000000
O O8 0.146392 0.878598 0.862431
O O9 0.000000 0.835495 0.750000
O O10 0.955316 0.918985 0.853361
O O11 0.161001 0.414931 0.644149
O O12 0.000000 0.391057 0.750000
O O13 0.740803 0.589785 0.500000
O O14 0.695197 0.501905 0.396474
O O15 0.092836 0.937344 0.500000
#
# Coordination Sequence:
#
# PCOD9499193 Si02
#       6
#    16  16  16  16  16  16
#     4  11  22  39  66  94 125 165 218 274 328 386
#     4  11  23  40  64  96 129 172 221 276 335 388
#     4  12  24  39  64  98 139 176 221 270 328 395
#     4  10  24  43  66  96 129 170 220 278 333 399
#     4  11  25  44  67  97 135 181 224 269 333 403
#     4  11  24  42  65  97 133 174 222 271 323 392
#
# _framework density 21.484580000000001
#
# number of rings (size 3 to 8) (size 9 to 14) (size 15 to 20)
#    0.000    1.000    1.667    5.500    2.333    5.333 
#    0.000    7.500    0.000    9.000    0.000    0.000 
#    0.000    0.000    0.000    0.000    0.000    0.000 
#
# Total GULP energy -268264.099034 kJ/mol
# GULP energy per Si atom -5588.835397 kJ/mol
# Density = 2.143568 g / cm^3
# Si number density = 21.484580 Si / 1000 Ang^3
#
#
#
# Elastic Constant Matrix: (Units=GPa)
#
#
# Indices 1 2 3 4 5 6 
#
# 1 34.1124 45.3868 45.5591 0.0000 0.0000 0.0000
# 2 45.3868 12.3321 1.8456 0.0000 0.0000 0.0000
# 3 45.5591 1.8456 117.4497 0.0000 0.0000 0.0000
# 4 0.0000 0.0000 0.0000 47.3466 0.0000 0.0000
# 5 0.0000 0.0000 0.0000 0.0000 21.8824 0.0000
# 6 0.0000 0.0000 0.0000 0.0000 0.0000 30.6558
#
#
#
# Elastic Compliance Matrix: (Units=1/GPa)
#
#
# Indices 1 2 3 4 5 6 
#
# 1 -0.006861 0.024911 0.002270 0.000000 0.000000 0.000000
# 2 0.024911 -0.009168 -0.009519 0.000000 0.000000 0.000000
# 3 0.002270 -0.009519 0.007783 0.000000 0.000000 0.000000
# 4 0.000000 0.000000 0.000000 0.021121 0.000000 0.000000
# 5 0.000000 0.000000 0.000000 0.000000 0.045699 0.000000
# 6 0.000000 0.000000 0.000000 0.000000 0.000000 0.032620
#
#
# Mechanical properties :
#
#
# Convention : Reuss Voigt Hill
#
# Bulk Modulus (GPa) = 36.92976 38.83079 37.88027
# Shear Modulus (GPa) = 77.04518 24.71714 50.88116
#
# Velocity S-wave (km/s) = 5.99488 3.39552 4.87176
# Velocity P-wave (km/s) = 8.07120 5.78669 7.02247
#
# Compressibility (1/GPa) = 0.02707843
#
# Stress axis : x y z
#
# Youngs Moduli (GPa) = -145.75425 -109.07748 128.47911
#
# Poissons Ratio (x) = 2.71722 -0.29163
# Poissons Ratio (y) = 3.63087 1.22299
# Poissons Ratio (z) = 0.33085 -1.03830
#
# Static dielectric constant tensor:
#      x y z
#    x 1.803140 0.000000 0.000000 
#    y 0.000000 1.752430 0.000000 
#    z 0.000000 0.000000 1.772020 
# 
# From -- ./inp_files/28416.got.cif
#   From: 2010.05.17/outbox.cif.g08.bks.cpg/sg66_15_cif.got.tgz:28416.got - 2010.06.03 17:51:23.
