data_PCOD9499694
_publ_section_title
;
Structure prediction by ZEFSAII (Michael W. Deem and Ramdas Pophale) SiO2 
 PCOD9499694
Probable space group: C C C M
;
_chemical_formula_sum "Si O2"
_cell_formula_units_Z 64
_cell_length_a 21.421063
_cell_length_b 9.682683
_cell_length_c 15.584988
_cell_angle_alpha 90.000000
_cell_angle_beta 90.000000
_cell_angle_gamma 90.000000
_cell_volume 3232.534766
_symmetry_space_group_name_H-M "C C C M"
_symmetry_group_IT_number 66
_symmetry_cell_setting 'orthorhombic'
loop_
_space_group_symop_operation_xyz
x,y,z
-x,-y,z
x,-y,1/2-z
-x,y,1/2-z
-x,-y,-z
x,y,-z
-x,y,1/2+z
x,-y,1/2+z
1/2+x,1/2+y,z
1/2-x,1/2-y,z
1/2+x,1/2-y,1/2-z
1/2-x,1/2+y,1/2-z
1/2-x,1/2-y,-z
1/2+x,1/2+y,-z
1/2-x,1/2+y,1/2+z
1/2+x,1/2-y,1/2+z
loop_
_atom_site_type_symbol
_atom_site_label
_atom_site_fract_x
_atom_site_fract_y
_atom_site_fract_z
Si Si1 0.783668 0.037086 0.347279
Si Si2 0.967874 0.156617 0.000000
Si Si3 0.661151 0.834203 0.102812
Si Si4 0.020215 0.656154 0.652650
Si Si5 0.816096 0.160797 0.000000
O O1 0.709549 0.054293 0.361039
O O2 0.812289 0.183437 0.374889
O O3 0.798123 0.000000 0.250000
O O4 0.808512 0.925955 0.413246
O O5 0.993618 0.235027 0.915659
O O6 0.892176 0.186232 0.000000
O O7 0.000000 0.000000 0.000000
O O8 0.594383 0.844723 0.144857
O O9 0.657469 0.849006 0.000000
O O10 0.000000 0.500000 0.630673
O O11 0.000000 0.686966 0.750000
O O12 0.750000 0.250000 0.000000
#
# Coordination Sequence:
#
# PCOD9499694 Si02
#       5
#    16   8  16  16   8
#     4  11  25  42  69 100 137 179 226 286 348 418
#     4  12  27  48  72 103 147 189 230 291 364 425
#     4  11  22  47  73  92 134 186 233 279 348 420
#     4  11  27  45  73 103 138 184 239 293 347 420
#     4  12  28  41  66 105 144 172 230 291 345 412
#
# _framework density 19.798705000000002
#
# number of rings (size 3 to 8) (size 9 to 14) (size 15 to 20)
#    0.000    0.750    3.750    2.625   14.000    0.500 
#    0.000    0.000    0.000    0.000    0.000    0.000 
#    0.000    0.000    0.000    0.000    0.000    0.000 
#
# Total GULP energy -178582.246788 kJ/mol
# GULP energy per Si atom -5580.695212 kJ/mol
# Density = 1.975364 g / cm^3
# Si number density = 19.798705 Si / 1000 Ang^3
#
#
#
# Elastic Constant Matrix: (Units=GPa)
#
#
# Indices 1 2 3 4 5 6 
#
# 1 160.2906 23.5185 11.2727 0.0000 0.0000 0.0000
# 2 23.5185 67.4375 37.4937 0.0000 0.0000 0.0000
# 3 11.2727 37.4937 136.8698 0.0000 0.0000 0.0000
# 4 0.0000 0.0000 0.0000 -8.0567 0.0000 0.0000
# 5 0.0000 0.0000 0.0000 0.0000 37.1093 0.0000
# 6 0.0000 0.0000 0.0000 0.0000 0.0000 25.2032
#
#
#
# Elastic Compliance Matrix: (Units=1/GPa)
#
#
# Indices 1 2 3 4 5 6 
#
# 1 0.006576 -0.002350 0.000102 0.000000 0.000000 0.000000
# 2 -0.002350 0.018333 -0.004828 0.000000 0.000000 0.000000
# 3 0.000102 -0.004828 0.008620 0.000000 0.000000 0.000000
# 4 0.000000 0.000000 0.000000 -0.124121 0.000000 0.000000
# 5 0.000000 0.000000 0.000000 0.000000 0.026947 0.000000
# 6 0.000000 0.000000 0.000000 0.000000 0.000000 0.039678
#
#
# Mechanical properties :
#
#
# Convention : Reuss Voigt Hill
#
# Bulk Modulus (GPa) = 51.60897 56.57418 54.09157
# Shear Modulus (GPa) = -1490.54366 30.33869 -730.10249
#
# Velocity S-wave (km/s) = -27.46786 3.91878 -19.22403
# Velocity P-wave (km/s) = 31.30263 7.00803 21.57246
#
# Compressibility (1/GPa) = 0.01937648
#
# Stress axis : x y z
#
# Youngs Moduli (GPa) = 152.06059 54.54734 116.00286
#
# Poissons Ratio (x) = 0.12820 -0.01186
# Poissons Ratio (y) = 0.35739 0.56011
# Poissons Ratio (z) = -0.01554 0.26338
#
# Static dielectric constant tensor:
#      x y z
#    x 1.717250 0.000000 0.000000 
#    y 0.000000 1.676910 0.000000 
#    z 0.000000 0.000000 1.628940 
# 
# From -- ./inp_files/42425.got.cif
#   From: 2010.05.17/outbox.cif.g08.bks.cpg/sg66_22_cif.got.tgz:42425.got - 2010.06.03 17:51:23.
