data_PCOD9499774
_publ_section_title
;
Structure prediction by ZEFSAII (Michael W. Deem and Ramdas Pophale) SiO2 
 PCOD9499774
Probable space group: C C C M
;
_chemical_formula_sum "Si O2"
_cell_formula_units_Z 64
_cell_length_a 13.143727
_cell_length_b 8.575641
_cell_length_c 27.082724
_cell_angle_alpha 90.000000
_cell_angle_beta 90.000000
_cell_angle_gamma 90.000000
_cell_volume 3052.653181
_symmetry_space_group_name_H-M "C C C M"
_symmetry_group_IT_number 66
_symmetry_cell_setting 'orthorhombic'
loop_
_space_group_symop_operation_xyz
x,y,z
-x,-y,z
x,-y,1/2-z
-x,y,1/2-z
-x,-y,-z
x,y,-z
-x,y,1/2+z
x,-y,1/2+z
1/2+x,1/2+y,z
1/2-x,1/2-y,z
1/2+x,1/2-y,1/2-z
1/2-x,1/2+y,1/2-z
1/2-x,1/2-y,-z
1/2+x,1/2+y,-z
1/2-x,1/2+y,1/2+z
1/2+x,1/2-y,1/2+z
loop_
_atom_site_type_symbol
_atom_site_label
_atom_site_fract_x
_atom_site_fract_y
_atom_site_fract_z
Si Si1 0.804531 0.895598 0.791080
Si Si2 0.147408 0.354041 0.057049
Si Si3 0.670485 0.885358 0.639650
Si Si4 0.476146 0.317510 0.132939
O O1 0.750000 0.750000 0.765695
O O2 0.880187 0.820023 0.830458
O O3 0.858888 0.000000 0.750000
O O4 0.722679 0.005728 0.818788
O O5 0.250000 0.250000 0.060988
O O6 0.154752 0.503331 0.092524
O O7 0.057991 0.250626 0.080472
O O8 0.131534 0.393901 0.000000
O O9 0.750000 0.750000 0.627188
O O10 0.566554 0.793356 0.652521
O O11 0.500000 0.500000 0.128351
#
# Coordination Sequence:
#
# PCOD9499774 Si02
#       4
#    16  16  16  16
#     4  12  26  48  69 103 138 183 236 292 350 415
#     4  11  23  44  73 104 141 182 230 287 351 421
#     4  12  23  45  70  99 142 184 227 290 348 407
#     4  12  24  44  72  97 140 183 228 287 348 414
#
# _framework density 20.965368000000002
#
# number of rings (size 3 to 8) (size 9 to 14) (size 15 to 20)
#    0.000    0.250    7.500    1.500    0.000    3.500 
#    0.000    1.250    0.000    0.000    0.000    0.000 
#    0.000    0.000    0.000    0.000    0.000    0.000 
#
# Total GULP energy -178891.608113 kJ/mol
# GULP energy per Si atom -5590.362754 kJ/mol
# Density = 2.091765 g / cm^3
# Si number density = 20.965368 Si / 1000 Ang^3
#
#
#
# Elastic Constant Matrix: (Units=GPa)
#
#
# Indices 1 2 3 4 5 6 
#
# 1 88.0874 39.4031 14.2712 0.0000 0.0000 0.0000
# 2 39.4031 140.7363 36.4848 0.0000 0.0000 0.0000
# 3 14.2712 36.4848 86.8899 0.0000 0.0000 0.0000
# 4 0.0000 0.0000 0.0000 26.0329 0.0000 0.0000
# 5 0.0000 0.0000 0.0000 0.0000 -11.7885 0.0000
# 6 0.0000 0.0000 0.0000 0.0000 0.0000 51.7225
#
#
#
# Elastic Compliance Matrix: (Units=1/GPa)
#
#
# Indices 1 2 3 4 5 6 
#
# 1 0.013014 -0.003467 -0.000682 0.000000 0.000000 0.000000
# 2 -0.003467 0.008897 -0.003166 0.000000 0.000000 0.000000
# 3 -0.000682 -0.003166 0.012950 0.000000 0.000000 0.000000
# 4 0.000000 0.000000 0.000000 0.038413 0.000000 0.000000
# 5 0.000000 0.000000 0.000000 0.000000 -0.084828 0.000000
# 6 0.000000 0.000000 0.000000 0.000000 0.000000 0.019334
#
#
# Mechanical properties :
#
#
# Convention : Reuss Voigt Hill
#
# Bulk Modulus (GPa) = 49.42891 55.11462 52.27176
# Shear Modulus (GPa) = 171.50966 28.23035 99.87000
#
# Velocity S-wave (km/s) = 9.05449 3.67348 6.90935
# Velocity P-wave (km/s) = 11.52993 6.65869 9.41481
#
# Compressibility (1/GPa) = 0.02023108
#
# Stress axis : x y z
#
# Youngs Moduli (GPa) = 76.84292 112.39778 77.21797
#
# Poissons Ratio (x) = 0.38966 0.05264
# Poissons Ratio (y) = 0.26640 0.24450
# Poissons Ratio (z) = 0.05239 0.35590
#
# Static dielectric constant tensor:
#      x y z
#    x 1.799630 0.000000 0.000000 
#    y 0.000000 1.757880 0.000000 
#    z 0.000000 0.000000 1.709420 
# 
# From -- ./inp_files/54977.got.cif
#   From: 2010.05.17/outbox.cif.g08.bks.cpg/sg66_28_cif.got.tgz:54977.got - 2010.06.03 17:51:23.
