data_PCOD9499495
_publ_section_title
;
Structure prediction by ZEFSAII (Michael W. Deem and Ramdas Pophale) SiO2 
 PCOD9499495
Probable space group: C C C M
;
_chemical_formula_sum "Si O2"
_cell_formula_units_Z 68
_cell_length_a 21.288746
_cell_length_b 16.943199
_cell_length_c 7.857080
_cell_angle_alpha 90.000000
_cell_angle_beta 90.000000
_cell_angle_gamma 90.000000
_cell_volume 2834.044513
_symmetry_space_group_name_H-M "C C C M"
_symmetry_group_IT_number 66
_symmetry_cell_setting 'orthorhombic'
loop_
_space_group_symop_operation_xyz
x,y,z
-x,-y,z
x,-y,1/2-z
-x,y,1/2-z
-x,-y,-z
x,y,-z
-x,y,1/2+z
x,-y,1/2+z
1/2+x,1/2+y,z
1/2-x,1/2-y,z
1/2+x,1/2-y,1/2-z
1/2-x,1/2+y,1/2-z
1/2-x,1/2-y,-z
1/2+x,1/2+y,-z
1/2-x,1/2+y,1/2+z
1/2+x,1/2-y,1/2+z
loop_
_atom_site_type_symbol
_atom_site_label
_atom_site_fract_x
_atom_site_fract_y
_atom_site_fract_z
Si Si1 0.250000 0.750000 0.500000
Si Si2 0.065693 0.794282 0.800193
Si Si3 0.069252 0.615263 0.691188
Si Si4 0.826347 0.085551 0.702160
Si Si5 0.802269 0.352000 0.811975
O O1 0.207547 0.707116 0.652816
O O2 0.067114 0.711144 0.703091
O O3 0.123981 0.848970 0.756212
O O4 0.000000 0.834598 0.750000
O O5 0.065120 0.776671 0.000000
O O6 0.077957 0.588143 0.500000
O O7 0.133293 0.599026 0.792335
O O8 0.000000 0.589459 0.750000
O O9 0.814451 0.096308 0.500000
O O10 0.760452 0.095927 0.797597
O O11 0.851915 0.000000 0.750000
O O12 0.804160 0.313866 0.000000
#
# Coordination Sequence:
#
# PCOD9499495 Si02
#       5
#     4  16  16  16  16
#     4  12  22  40  60  98 128 160 210 268 324 382
#     4  11  22  38  58  88 121 164 209 262 318 375
#     4  11  21  38  61  94 130 166 205 261 324 386
#     4  12  25  44  63  89 123 169 219 266 312 375
#     4  12  24  41  63  95 129 167 210 264 325 384
#
# _framework density 23.993979
#
# number of rings (size 3 to 8) (size 9 to 14) (size 15 to 20)
#    0.000    0.471    2.353    9.529    0.000    0.471 
#    0.000    2.353    0.000    0.706    0.000    4.941 
#    0.000    0.000    0.000    0.000    0.000    0.000 
#
# Total GULP energy -189825.527383 kJ/mol
# GULP energy per Si atom -5583.103747 kJ/mol
# Density = 2.393937 g / cm^3
# Si number density = 23.993979 Si / 1000 Ang^3
#
#
#
# Elastic Constant Matrix: (Units=GPa)
#
#
# Indices 1 2 3 4 5 6 
#
# 1 113.8351 39.1297 25.7938 0.0000 0.0000 0.0000
# 2 39.1297 69.0106 1.5990 0.0000 0.0000 0.0000
# 3 25.7938 1.5990 202.4960 0.0000 0.0000 0.0000
# 4 0.0000 0.0000 0.0000 73.3890 0.0000 0.0000
# 5 0.0000 0.0000 0.0000 0.0000 43.0653 0.0000
# 6 0.0000 0.0000 0.0000 0.0000 0.0000 -4.8288
#
#
#
# Elastic Compliance Matrix: (Units=1/GPa)
#
#
# Indices 1 2 3 4 5 6 
#
# 1 0.011288 -0.006368 -0.001388 0.000000 0.000000 0.000000
# 2 -0.006368 0.018086 0.000668 0.000000 0.000000 0.000000
# 3 -0.001388 0.000668 0.005110 0.000000 0.000000 0.000000
# 4 0.000000 0.000000 0.000000 0.013626 0.000000 0.000000
# 5 0.000000 0.000000 0.000000 0.000000 0.023221 0.000000
# 6 0.000000 0.000000 0.000000 0.000000 0.000000 -0.207089
#
#
# Mechanical properties :
#
#
# Convention : Reuss Voigt Hill
#
# Bulk Modulus (GPa) = 49.23963 57.59851 53.41907
# Shear Modulus (GPa) = -43.54874 43.57969 0.01548
#
# Velocity S-wave (km/s) = -4.26489 4.26640 0.08040
# Velocity P-wave (km/s) = 1.91993 6.95177 4.72446
#
# Compressibility (1/GPa) = 0.02030885
#
# Stress axis : x y z
#
# Youngs Moduli (GPa) = 88.58896 55.29157 195.70082
#
# Poissons Ratio (x) = 0.35211 0.27155
# Poissons Ratio (y) = 0.56416 -0.13080
# Poissons Ratio (z) = 0.12292 -0.03696
#
# Static dielectric constant tensor:
#      x y z
#    x 1.971110 0.000000 0.000000 
#    y 0.000000 1.924390 0.000000 
#    z 0.000000 0.000000 1.885840 
# 
# From -- ./inp_files/7452.got.cif
#   From: 2010.05.17/outbox.cif.g08.bks.cpg/sg66_4_cif.got.tgz:7452.got - 2010.06.03 17:51:23.
