data_PCOD9499347
_publ_section_title
;
Structure prediction by ZEFSAII (Michael W. Deem and Ramdas Pophale) SiO2 
 PCOD9499347
Probable space group: C C C M
;
_chemical_formula_sum "Si O2"
_cell_formula_units_Z 56
_cell_length_a 14.681046
_cell_length_b 11.135014
_cell_length_c 15.946592
_cell_angle_alpha 90.000000
_cell_angle_beta 90.000000
_cell_angle_gamma 90.000000
_cell_volume 2606.847643
_symmetry_space_group_name_H-M "C C C M"
_symmetry_group_IT_number 66
_symmetry_cell_setting 'orthorhombic'
loop_
_space_group_symop_operation_xyz
x,y,z
-x,-y,z
x,-y,1/2-z
-x,y,1/2-z
-x,-y,-z
x,y,-z
-x,y,1/2+z
x,-y,1/2+z
1/2+x,1/2+y,z
1/2-x,1/2-y,z
1/2+x,1/2-y,1/2-z
1/2-x,1/2+y,1/2-z
1/2-x,1/2-y,-z
1/2+x,1/2+y,-z
1/2-x,1/2+y,1/2+z
1/2+x,1/2-y,1/2+z
loop_
_atom_site_type_symbol
_atom_site_label
_atom_site_fract_x
_atom_site_fract_y
_atom_site_fract_z
Si Si1 0.415823 0.069558 0.841401
Si Si2 0.279239 0.488873 0.904752
Si Si3 0.750000 0.250000 0.165646
Si Si4 0.091755 0.172634 0.209350
O O1 0.318919 0.067974 0.885987
O O2 0.442178 0.208966 0.839120
O O3 0.500000 0.000000 0.882526
O O4 0.404380 0.000000 0.750000
O O5 0.258877 0.628904 0.887374
O O6 0.351924 0.426217 0.842760
O O7 0.308255 0.469962 0.000000
O O8 0.837351 0.234687 0.225896
O O9 0.000000 0.124311 0.250000
#
# Coordination Sequence:
#
# PCOD9499347 Si02
#       4
#    16  16   8  16
#     4  11  19  41  72 103 135 181 245 295 350 437
#     4  12  26  43  67 107 148 182 238 317 374 415
#     4  12  23  46  69  94 140 196 244 288 361 456
#     4  12  23  43  76 103 136 194 254 292 351 446
#
# _framework density 21.481884999999998
#
# number of rings (size 3 to 8) (size 9 to 14) (size 15 to 20)
#    0.000    0.286    8.571    1.286    0.000    5.143 
#    0.000    7.143    0.000    0.000    0.000    0.000 
#    0.000    0.000    0.000    0.000    0.000    0.000 
#
# Total GULP energy -156309.092697 kJ/mol
# GULP energy per Si atom -5582.467596 kJ/mol
# Density = 2.143299 g / cm^3
# Si number density = 21.481885 Si / 1000 Ang^3
#
#
#
# Elastic Constant Matrix: (Units=GPa)
#
#
# Indices 1 2 3 4 5 6 
#
# 1 185.4528 59.9503 56.8713 0.0000 0.0000 0.0000
# 2 59.9503 174.5943 41.3329 0.0000 0.0000 0.0000
# 3 56.8713 41.3329 84.0508 0.0000 0.0000 0.0000
# 4 0.0000 0.0000 0.0000 -2.4748 0.0000 0.0000
# 5 0.0000 0.0000 0.0000 0.0000 0.8462 0.0000
# 6 0.0000 0.0000 0.0000 0.0000 0.0000 34.8663
#
#
#
# Elastic Compliance Matrix: (Units=1/GPa)
#
#
# Indices 1 2 3 4 5 6 
#
# 1 0.007125 -0.001477 -0.004095 0.000000 0.000000 0.000000
# 2 -0.001477 0.006788 -0.002339 0.000000 0.000000 0.000000
# 3 -0.004095 -0.002339 0.015818 0.000000 0.000000 0.000000
# 4 0.000000 0.000000 0.000000 -0.404068 0.000000 0.000000
# 5 0.000000 0.000000 0.000000 0.000000 1.181703 0.000000
# 6 0.000000 0.000000 0.000000 0.000000 0.000000 0.028681
#
#
# Mechanical properties :
#
#
# Convention : Reuss Voigt Hill
#
# Bulk Modulus (GPa) = 71.88759 84.48963 78.18861
# Shear Modulus (GPa) = 5.83767 25.71042 15.77404
#
# Velocity S-wave (km/s) = 1.65027 3.46329 2.71273
# Velocity P-wave (km/s) = 6.09657 7.44369 6.80355
#
# Compressibility (1/GPa) = 0.01391061
#
# Stress axis : x y z
#
# Youngs Moduli (GPa) = 140.34113 147.30834 63.21762
#
# Poissons Ratio (x) = 0.21761 0.25887
# Poissons Ratio (y) = 0.20732 0.14785
# Poissons Ratio (z) = 0.57468 0.34452
#
# Static dielectric constant tensor:
#      x y z
#    x 1.817370 0.000000 0.000000 
#    y 0.000000 1.922940 0.000000 
#    z 0.000000 0.000000 1.827150 
# 
# From -- ./inp_files/25375.got.cif
#   From: 2010.05.17/outbox.cif.g08.bks.cpg/sg66_13_cif.got.tgz:25375.got - 2010.06.03 17:51:23.
