data_PCOD9499912
_publ_section_title
;
Structure prediction by ZEFSAII (Michael W. Deem and Ramdas Pophale) SiO2 
 PCOD9499912
Probable space group: C C C M
;
_chemical_formula_sum "Si O2"
_cell_formula_units_Z 32
_cell_length_a 4.609784
_cell_length_b 15.228084
_cell_length_c 16.540992
_cell_angle_alpha 90.000000
_cell_angle_beta 90.000000
_cell_angle_gamma 90.000000
_cell_volume 1161.147500
_symmetry_space_group_name_H-M "C C C M"
_symmetry_group_IT_number 66
_symmetry_cell_setting 'orthorhombic'
loop_
_space_group_symop_operation_xyz
x,y,z
-x,-y,z
x,-y,1/2-z
-x,y,1/2-z
-x,-y,-z
x,y,-z
-x,y,1/2+z
x,-y,1/2+z
1/2+x,1/2+y,z
1/2-x,1/2-y,z
1/2+x,1/2-y,1/2-z
1/2-x,1/2+y,1/2-z
1/2-x,1/2-y,-z
1/2+x,1/2+y,-z
1/2-x,1/2+y,1/2+z
1/2+x,1/2-y,1/2+z
loop_
_atom_site_type_symbol
_atom_site_label
_atom_site_fract_x
_atom_site_fract_y
_atom_site_fract_z
Si Si1 0.764513 0.580455 0.091377
Si Si2 0.296767 0.150869 0.320434
O O1 0.507795 0.400689 0.151165
O O2 0.000000 0.500000 0.103729
O O3 0.986935 0.659421 0.104007
O O4 0.656894 0.576344 0.000000
O O5 0.500000 0.108692 0.250000
O O6 0.250000 0.250000 0.293717
#
# Coordination Sequence:
#
# PCOD9499912 Si02
#       2
#    16  16
#     4  11  25  46  74 110 151 196 251 315 381 452
#     4  12  25  45  72 107 153 200 252 310 376 454
#
# _framework density 27.558942999999999
#
# number of rings (size 3 to 8) (size 9 to 14) (size 15 to 20)
#    0.000    0.500    0.000    9.000    0.000   11.000 
#    0.000   10.000    0.000    0.000    0.000    0.000 
#    0.000    6.000    0.000    0.000    0.000    0.000 
#
# Total GULP energy -89190.356787 kJ/mol
# GULP energy per Si atom -5574.397299 kJ/mol
# Density = 2.749622 g / cm^3
# Si number density = 27.558943 Si / 1000 Ang^3
#
#
#
# Elastic Constant Matrix: (Units=GPa)
#
#
# Indices 1 2 3 4 5 6 
#
# 1 283.0615 73.7965 119.7412 0.0000 0.0000 0.0000
# 2 73.7965 93.2170 52.5096 0.0000 0.0000 0.0000
# 3 119.7412 52.5096 172.7270 0.0000 0.0000 0.0000
# 4 0.0000 0.0000 0.0000 159.0489 0.0000 0.0000
# 5 0.0000 0.0000 0.0000 0.0000 34.4366 0.0000
# 6 0.0000 0.0000 0.0000 0.0000 0.0000 57.5724
#
#
#
# Elastic Compliance Matrix: (Units=1/GPa)
#
#
# Indices 1 2 3 4 5 6 
#
# 1 0.005496 -0.002660 -0.003001 0.000000 0.000000 0.000000
# 2 -0.002660 0.014232 -0.002482 0.000000 0.000000 0.000000
# 3 -0.003001 -0.002482 0.008625 0.000000 0.000000 0.000000
# 4 0.000000 0.000000 0.000000 0.006287 0.000000 0.000000
# 5 0.000000 0.000000 0.000000 0.000000 0.029039 0.000000
# 6 0.000000 0.000000 0.000000 0.000000 0.000000 0.017369
#
#
# Mechanical properties :
#
#
# Convention : Reuss Voigt Hill
#
# Bulk Modulus (GPa) = 82.88540 115.67781 99.28160
# Shear Modulus (GPa) = 49.33012 70.40881 59.86947
#
# Velocity S-wave (km/s) = 4.23541 5.06003 4.66597
# Velocity P-wave (km/s) = 7.35250 8.72951 8.07043
#
# Compressibility (1/GPa) = 0.01206485
#
# Stress axis : x y z
#
# Youngs Moduli (GPa) = 181.95116 70.26389 115.94559
#
# Poissons Ratio (x) = 0.18693 0.34799
# Poissons Ratio (y) = 0.48405 0.28782
# Poissons Ratio (z) = 0.54609 0.17442
#
# Static dielectric constant tensor:
#      x y z
#    x 2.258790 0.000000 0.000000 
#    y 0.000000 2.291380 0.000000 
#    z 0.000000 0.000000 2.268030 
# 
# From -- ./inp_files/22841.got.cif
#   From: 2010.05.17/outbox.cif.g08.bks.cpg/sg66_12_cif.got.tgz:22841.got - 2010.06.03 17:51:23.
