data_PCOD9499247
_publ_section_title
;
Structure prediction by ZEFSAII (Michael W. Deem and Ramdas Pophale) SiO2 
 PCOD9499247
Probable space group: C C C M
;
_chemical_formula_sum "Si O2"
_cell_formula_units_Z 68
_cell_length_a 26.188264
_cell_length_b 5.214787
_cell_length_c 20.320762
_cell_angle_alpha 90.000000
_cell_angle_beta 90.000000
_cell_angle_gamma 90.000000
_cell_volume 2775.129627
_symmetry_space_group_name_H-M "C C C M"
_symmetry_group_IT_number 66
_symmetry_cell_setting 'orthorhombic'
loop_
_space_group_symop_operation_xyz
x,y,z
-x,-y,z
x,-y,1/2-z
-x,y,1/2-z
-x,-y,-z
x,y,-z
-x,y,1/2+z
x,-y,1/2+z
1/2+x,1/2+y,z
1/2-x,1/2-y,z
1/2+x,1/2-y,1/2-z
1/2-x,1/2+y,1/2-z
1/2-x,1/2-y,-z
1/2+x,1/2+y,-z
1/2-x,1/2+y,1/2+z
1/2+x,1/2-y,1/2+z
loop_
_atom_site_type_symbol
_atom_site_label
_atom_site_fract_x
_atom_site_fract_y
_atom_site_fract_z
Si Si1 0.750000 0.750000 0.000000
Si Si2 0.142780 0.249267 0.205682
Si Si3 0.364895 0.707054 0.000000
Si Si4 0.208311 0.415129 0.612337
Si Si5 0.969066 0.753240 0.854821
Si Si6 0.931980 0.707604 0.000000
O O1 0.757656 0.535386 0.056048
O O2 0.137192 0.500000 0.250000
O O3 0.182965 0.351717 0.152143
O O4 0.088077 0.216593 0.171521
O O5 0.155116 0.000000 0.250000
O O6 0.335215 0.765476 0.930828
O O7 0.385415 0.416034 0.000000
O O8 0.409274 0.920837 0.000000
O O9 0.250000 0.250000 0.652928
O O10 0.963658 0.748108 0.933967
O O11 0.000000 0.500000 0.834208
O O12 0.000000 0.000000 0.833464
#
# Coordination Sequence:
#
# PCOD9499247 Si02
#       6
#     4  16   8  16  16   8
#     4  10  24  48  80 116 148 192 256 316 406 480
#     4  12  30  52  78 108 155 209 265 321 382 458
#     4  11  24  41  81 114 154 201 246 316 398 475
#     4  11  27  47  81 114 154 200 264 320 397 472
#     4  12  26  47  78 113 153 201 261 324 395 466
#     4  12  24  44  75 115 162 195 244 329 400 466
#
# _framework density 24.503359
#
# number of rings (size 3 to 8) (size 9 to 14) (size 15 to 20)
#    0.000    0.471    2.353    4.941   13.176    2.824 
#    2.118    0.000    0.000    0.000    0.000    0.000 
#    0.000    0.000    0.000    0.000    0.000    0.000 
#
# Total GULP energy -189857.667685 kJ/mol
# GULP energy per Si atom -5584.049050 kJ/mol
# Density = 2.444759 g / cm^3
# Si number density = 24.503359 Si / 1000 Ang^3
#
#
#
# Elastic Constant Matrix: (Units=GPa)
#
#
# Indices 1 2 3 4 5 6 
#
# 1 99.1634 71.3172 44.9389 0.0000 0.0000 0.0000
# 2 71.3172 152.1093 56.9744 0.0000 0.0000 0.0000
# 3 44.9389 56.9744 106.4259 0.0000 0.0000 0.0000
# 4 0.0000 0.0000 0.0000 114.0015 0.0000 0.0000
# 5 0.0000 0.0000 0.0000 0.0000 -3.5636 0.0000
# 6 0.0000 0.0000 0.0000 0.0000 0.0000 54.2474
#
#
#
# Elastic Compliance Matrix: (Units=1/GPa)
#
#
# Indices 1 2 3 4 5 6 
#
# 1 0.016176 -0.006286 -0.003465 0.000000 0.000000 0.000000
# 2 -0.006286 0.010666 -0.003056 0.000000 0.000000 0.000000
# 3 -0.003465 -0.003056 0.012495 0.000000 0.000000 0.000000
# 4 0.000000 0.000000 0.000000 0.008772 0.000000 0.000000
# 5 0.000000 0.000000 0.000000 0.000000 -0.280619 0.000000
# 6 0.000000 0.000000 0.000000 0.000000 0.000000 0.018434
#
#
# Mechanical properties :
#
#
# Convention : Reuss Voigt Hill
#
# Bulk Modulus (GPa) = 72.86921 78.23998 75.55459
# Shear Modulus (GPa) = -27.19041 45.23495 9.02227
#
# Velocity S-wave (km/s) = -3.33477 4.30125 1.92095
# Velocity P-wave (km/s) = 3.86981 7.52777 5.98510
#
# Compressibility (1/GPa) = 0.01372322
#
# Stress axis : x y z
#
# Youngs Moduli (GPa) = 61.82176 93.75555 80.03119
#
# Poissons Ratio (x) = 0.58936 0.27730
# Poissons Ratio (y) = 0.38862 0.24455
# Poissons Ratio (z) = 0.21421 0.28648
#
# Static dielectric constant tensor:
#      x y z
#    x 1.924230 0.000000 0.000000 
#    y 0.000000 1.903160 0.000000 
#    z 0.000000 0.000000 1.835170 
# 
# From -- ./inp_files/52844.got.cif
#   From: 2010.05.17/outbox.cif.g08.bks.cpg/sg66_27_cif.got.tgz:52844.got - 2010.06.03 17:51:23.
