data_PCOD9499222
_publ_section_title
;
Structure prediction by ZEFSAII (Michael W. Deem and Ramdas Pophale) SiO2 
 PCOD9499222
Probable space group: C C C M
;
_chemical_formula_sum "Si O2"
_cell_formula_units_Z 88
_cell_length_a 11.478792
_cell_length_b 15.033040
_cell_length_c 24.316227
_cell_angle_alpha 90.000000
_cell_angle_beta 90.000000
_cell_angle_gamma 90.000000
_cell_volume 4196.035834
_symmetry_space_group_name_H-M "C C C M"
_symmetry_group_IT_number 66
_symmetry_cell_setting 'orthorhombic'
loop_
_space_group_symop_operation_xyz
x,y,z
-x,-y,z
x,-y,1/2-z
-x,y,1/2-z
-x,-y,-z
x,y,-z
-x,y,1/2+z
x,-y,1/2+z
1/2+x,1/2+y,z
1/2-x,1/2-y,z
1/2+x,1/2-y,1/2-z
1/2-x,1/2+y,1/2-z
1/2-x,1/2-y,-z
1/2+x,1/2+y,-z
1/2-x,1/2+y,1/2+z
1/2+x,1/2-y,1/2+z
loop_
_atom_site_type_symbol
_atom_site_label
_atom_site_fract_x
_atom_site_fract_y
_atom_site_fract_z
Si Si1 0.664055 0.664001 0.378261
Si Si2 0.315269 0.888646 0.385685
Si Si3 0.328468 0.956731 0.193043
Si Si4 0.409207 0.713244 0.654990
Si Si5 0.861810 0.517311 0.000000
Si Si6 0.000000 0.319225 0.250000
Si Si7 0.702767 0.650074 0.500000
O O1 0.750000 0.750000 0.377763
O O2 0.731037 0.590083 0.343600
O O3 0.539657 0.680784 0.351962
O O4 0.640602 0.637680 0.441681
O O5 0.387470 0.797310 0.384981
O O6 0.189887 0.858231 0.360324
O O7 0.318284 0.930564 0.445970
O O8 0.369446 0.961534 0.344784
O O9 0.423606 0.883476 0.210975
O O10 0.285480 0.000000 0.250000
O O11 0.410018 0.757875 0.715590
O O12 0.806717 0.419874 0.000000
O O13 0.000000 0.500000 0.000000
O O14 0.750000 0.750000 0.500000
#
# Coordination Sequence:
#
# PCOD9499222 Si02
#       7
#    16  16  16  16   8   8   8
#     4  11  24  44  74 105 143 187 244 292 367 448
#     4  11  28  48  70 109 146 192 246 309 368 433
#     4  12  25  42  72 107 141 189 251 302 363 430
#     4  11  27  46  71 104 151 192 243 299 372 437
#     4  12  28  46  80 108 147 192 256 309 367 440
#     4  12  25  42  76 101 146 200 236 311 356 442
#     4  10  24  45  70 109 139 181 230 296 367 425
#
# _framework density 20.972176000000001
#
# number of rings (size 3 to 8) (size 9 to 14) (size 15 to 20)
#    0.000    0.727    5.455    0.273   10.182    2.909 
#    0.000    1.818    0.000    0.000    0.000    0.000 
#    0.000    0.000    0.000    0.000    0.000    0.000 
#
# Total GULP energy -245826.224250 kJ/mol
# GULP energy per Si atom -5586.959642 kJ/mol
# Density = 2.092444 g / cm^3
# Si number density = 20.972176 Si / 1000 Ang^3
#
#
#
# Elastic Constant Matrix: (Units=GPa)
#
#
# Indices 1 2 3 4 5 6 
#
# 1 100.6861 46.7077 24.1246 0.0000 0.0000 0.0000
# 2 46.7077 97.7976 54.8818 0.0000 0.0000 0.0000
# 3 24.1246 54.8818 154.4345 0.0000 0.0000 0.0000
# 4 0.0000 0.0000 0.0000 32.4560 0.0000 0.0000
# 5 0.0000 0.0000 0.0000 0.0000 -3.1950 0.0000
# 6 0.0000 0.0000 0.0000 0.0000 0.0000 36.7891
#
#
#
# Elastic Compliance Matrix: (Units=1/GPa)
#
#
# Indices 1 2 3 4 5 6 
#
# 1 0.012764 -0.006217 0.000215 0.000000 0.000000 0.000000
# 2 -0.006217 0.015800 -0.004644 0.000000 0.000000 0.000000
# 3 0.000215 -0.004644 0.008092 0.000000 0.000000 0.000000
# 4 0.000000 0.000000 0.000000 0.030811 0.000000 0.000000
# 5 0.000000 0.000000 0.000000 0.000000 -0.312992 0.000000
# 6 0.000000 0.000000 0.000000 0.000000 0.000000 0.027182
#
#
# Mechanical properties :
#
#
# Convention : Reuss Voigt Hill
#
# Bulk Modulus (GPa) = 65.08023 67.14959 66.11491
# Shear Modulus (GPa) = -26.05126 28.35698 1.15286
#
# Velocity S-wave (km/s) = -3.52828 3.68111 0.74223
# Velocity P-wave (km/s) = 3.80798 7.08205 5.68577
#
# Compressibility (1/GPa) = 0.01536565
#
# Stress axis : x y z
#
# Youngs Moduli (GPa) = 78.34357 63.28930 123.58058
#
# Poissons Ratio (x) = 0.39347 -0.02662
# Poissons Ratio (y) = 0.48707 0.57389
# Poissons Ratio (z) = -0.01688 0.29391
#
# Static dielectric constant tensor:
#      x y z
#    x 1.722620 0.000000 0.000000 
#    y 0.000000 1.727080 0.000000 
#    z 0.000000 0.000000 1.791170 
# 
# From -- ./inp_files/56773.got.cif
#   From: 2010.05.17/outbox.cif.g08.bks.cpg/sg66_29_cif.got.tgz:56773.got - 2010.06.03 17:51:23.
