data_PCOD9499680
_publ_section_title
;
Structure prediction by ZEFSAII (Michael W. Deem and Ramdas Pophale) SiO2 
 PCOD9499680
Probable space group: C C C M
;
_chemical_formula_sum "Si O2"
_cell_formula_units_Z 88
_cell_length_a 12.302566
_cell_length_b 21.346420
_cell_length_c 15.874372
_cell_angle_alpha 90.000000
_cell_angle_beta 90.000000
_cell_angle_gamma 90.000000
_cell_volume 4168.859964
_symmetry_space_group_name_H-M "C C C M"
_symmetry_group_IT_number 66
_symmetry_cell_setting 'orthorhombic'
loop_
_space_group_symop_operation_xyz
x,y,z
-x,-y,z
x,-y,1/2-z
-x,y,1/2-z
-x,-y,-z
x,y,-z
-x,y,1/2+z
x,-y,1/2+z
1/2+x,1/2+y,z
1/2-x,1/2-y,z
1/2+x,1/2-y,1/2-z
1/2-x,1/2+y,1/2-z
1/2-x,1/2-y,-z
1/2+x,1/2+y,-z
1/2-x,1/2+y,1/2+z
1/2+x,1/2-y,1/2+z
loop_
_atom_site_type_symbol
_atom_site_label
_atom_site_fract_x
_atom_site_fract_y
_atom_site_fract_z
Si Si1 0.189203 0.147806 0.000000
Si Si2 0.283947 0.912759 0.824467
Si Si3 0.150252 0.792512 0.830468
Si Si4 0.706379 0.050638 0.628921
Si Si5 0.994886 0.373080 0.596810
Si Si6 0.909525 0.760159 0.862413
O O1 0.218663 0.094677 0.072626
O O2 0.160342 0.200214 0.073050
O O3 0.189076 0.863390 0.839923
O O4 0.282184 0.930796 0.726580
O O5 0.399524 0.880381 0.845825
O O6 0.273644 0.976582 0.877268
O O7 0.250000 0.750000 0.861943
O O8 0.129273 0.774328 0.732447
O O9 0.035132 0.781210 0.873668
O O10 0.582436 0.066945 0.604402
O O11 0.028293 0.364324 0.500000
O O12 0.918372 0.314204 0.621372
#
# Coordination Sequence:
#
# PCOD9499680 Si02
#       6
#     8  16  16  16  16  16
#     4  12  24  47  67 102 136 179 232 287 337 397
#     4  11  24  45  67 100 135 186 222 276 345 418
#     4  11  22  44  70  98 138 182 227 277 343 410
#     4  11  25  42  69  96 142 181 228 275 343 409
#     4  12  24  40  67 107 141 172 226 289 347 403
#     4  11  25  40  70 106 134 177 232 284 338 402
#
# _framework density 21.108889000000001
#
# number of rings (size 3 to 8) (size 9 to 14) (size 15 to 20)
#    0.000    0.727    5.455    2.182    3.818    2.909 
#    1.636    3.182    0.000    0.000    0.000    0.000 
#    0.000    0.000    0.000    0.000    0.000    0.000 
#
# Total GULP energy -245166.736841 kJ/mol
# GULP energy per Si atom -5571.971292 kJ/mol
# Density = 2.106084 g / cm^3
# Si number density = 21.108889 Si / 1000 Ang^3
#
#
#
# Elastic Constant Matrix: (Units=GPa)
#
#
# Indices 1 2 3 4 5 6 
#
# 1 81.2105 52.1968 7.3446 0.0000 0.0000 0.0000
# 2 52.1968 151.7022 47.8740 0.0000 0.0000 0.0000
# 3 7.3446 47.8740 71.0046 0.0000 0.0000 0.0000
# 4 0.0000 0.0000 0.0000 35.3685 0.0000 0.0000
# 5 0.0000 0.0000 0.0000 0.0000 2.4770 0.0000
# 6 0.0000 0.0000 0.0000 0.0000 0.0000 35.3885
#
#
#
# Elastic Compliance Matrix: (Units=1/GPa)
#
#
# Indices 1 2 3 4 5 6 
#
# 1 0.016192 -0.006406 0.002644 0.000000 0.000000 0.000000
# 2 -0.006406 0.010908 -0.006692 0.000000 0.000000 0.000000
# 3 0.002644 -0.006692 0.018322 0.000000 0.000000 0.000000
# 4 0.000000 0.000000 0.000000 0.028274 0.000000 0.000000
# 5 0.000000 0.000000 0.000000 0.000000 0.403714 0.000000
# 6 0.000000 0.000000 0.000000 0.000000 0.000000 0.028258
#
#
# Mechanical properties :
#
#
# Convention : Reuss Voigt Hill
#
# Bulk Modulus (GPa) = 40.79193 57.63866 49.21529
# Shear Modulus (GPa) = 9.35026 27.74693 18.54860
#
# Velocity S-wave (km/s) = 2.10693 3.62949 2.96752
# Velocity P-wave (km/s) = 5.02845 6.70291 5.92513
#
# Compressibility (1/GPa) = 0.02451465
#
# Stress axis : x y z
#
# Youngs Moduli (GPa) = 61.76039 91.67912 54.57939
#
# Poissons Ratio (x) = 0.58725 -0.14431
# Poissons Ratio (y) = 0.39561 0.36523
# Poissons Ratio (z) = -0.16330 0.61349
#
# Static dielectric constant tensor:
#      x y z
#    x 1.766410 0.000000 0.000000 
#    y 0.000000 1.772680 0.000000 
#    z 0.000000 0.000000 1.765610 
# 
# From -- ./inp_files/38660.got.cif
#   From: 2010.05.17/outbox.cif.g08.bks.cpg/sg66_20_cif.got.tgz:38660.got - 2010.06.03 17:51:23.
