data_PCOD9499814
_publ_section_title
;
Structure prediction by ZEFSAII (Michael W. Deem and Ramdas Pophale) SiO2 
 PCOD9499814
Probable space group: C C C M
;
_chemical_formula_sum "Si O2"
_cell_formula_units_Z 64
_cell_length_a 19.756419
_cell_length_b 8.754825
_cell_length_c 18.986532
_cell_angle_alpha 90.000000
_cell_angle_beta 90.000000
_cell_angle_gamma 90.000000
_cell_volume 3283.986349
_symmetry_space_group_name_H-M "C C C M"
_symmetry_group_IT_number 66
_symmetry_cell_setting 'orthorhombic'
loop_
_space_group_symop_operation_xyz
x,y,z
-x,-y,z
x,-y,1/2-z
-x,y,1/2-z
-x,-y,-z
x,y,-z
-x,y,1/2+z
x,-y,1/2+z
1/2+x,1/2+y,z
1/2-x,1/2-y,z
1/2+x,1/2-y,1/2-z
1/2-x,1/2+y,1/2-z
1/2-x,1/2-y,-z
1/2+x,1/2+y,-z
1/2-x,1/2+y,1/2+z
1/2+x,1/2-y,1/2+z
loop_
_atom_site_type_symbol
_atom_site_label
_atom_site_fract_x
_atom_site_fract_y
_atom_site_fract_z
Si Si1 0.577093 0.174942 0.831171
Si Si2 0.578316 0.826580 0.839660
Si Si3 0.810378 0.869375 0.920918
Si Si4 0.802186 0.884207 0.684600
O O1 0.500559 0.206211 0.855598
O O2 0.580663 0.175934 0.745498
O O3 0.631073 0.304220 0.846762
O O4 0.594325 0.003929 0.857264
O O5 0.629027 0.708981 0.876141
O O6 0.750000 0.750000 0.925136
O O7 0.778426 0.010588 0.878998
O O8 0.833265 0.907356 0.000000
O O9 0.750000 0.750000 0.705274
O O10 0.813694 0.000000 0.750000
#
# Coordination Sequence:
#
# PCOD9499814 Si02
#       4
#    16  16  16  16
#     4   9  19  35  63  90 122 150 202 260 301 356
#     4   9  18  38  61  90 120 161 197 247 311 363
#     4  11  24  42  61  87 129 169 204 250 309 369
#     4  12  24  37  61  91 121 157 209 263 306 358
#
# _framework density 19.488510000000002
#
# number of rings (size 3 to 8) (size 9 to 14) (size 15 to 20)
#    0.000    1.750    2.500    3.750    3.500    1.500 
#    0.000    6.250    0.000    0.000    0.000    0.000 
#    0.000    0.000    0.000    0.000    0.000    0.000 
#
# Total GULP energy -178402.363819 kJ/mol
# GULP energy per Si atom -5575.073869 kJ/mol
# Density = 1.944415 g / cm^3
# Si number density = 19.488510 Si / 1000 Ang^3
#
#
#
# Elastic Constant Matrix: (Units=GPa)
#
#
# Indices 1 2 3 4 5 6 
#
# 1 67.8493 32.7638 14.8807 0.0000 0.0000 0.0000
# 2 32.7638 84.1222 22.4208 0.0000 0.0000 0.0000
# 3 14.8807 22.4208 57.2779 0.0000 0.0000 0.0000
# 4 0.0000 0.0000 0.0000 14.2505 0.0000 0.0000
# 5 0.0000 0.0000 0.0000 0.0000 18.7645 0.0000
# 6 0.0000 0.0000 0.0000 0.0000 0.0000 37.3373
#
#
#
# Elastic Compliance Matrix: (Units=1/GPa)
#
#
# Indices 1 2 3 4 5 6 
#
# 1 0.018399 -0.006578 -0.002205 0.000000 0.000000 0.000000
# 2 -0.006578 0.015624 -0.004407 0.000000 0.000000 0.000000
# 3 -0.002205 -0.004407 0.019757 0.000000 0.000000 0.000000
# 4 0.000000 0.000000 0.000000 0.070173 0.000000 0.000000
# 5 0.000000 0.000000 0.000000 0.000000 0.053292 0.000000
# 6 0.000000 0.000000 0.000000 0.000000 0.000000 0.026783
#
#
# Mechanical properties :
#
#
# Convention : Reuss Voigt Hill
#
# Bulk Modulus (GPa) = 36.49732 38.82000 37.65866
# Shear Modulus (GPa) = 20.87330 23.34941 22.11135
#
# Velocity S-wave (km/s) = 3.27625 3.46513 3.37201
# Velocity P-wave (km/s) = 5.75152 5.99768 5.87589
#
# Compressibility (1/GPa) = 0.02739927
#
# Stress axis : x y z
#
# Youngs Moduli (GPa) = 54.35169 64.00372 50.61603
#
# Poissons Ratio (x) = 0.42103 0.11161
# Poissons Ratio (y) = 0.35754 0.22306
# Poissons Ratio (z) = 0.11984 0.28206
#
# Static dielectric constant tensor:
#      x y z
#    x 1.720100 0.000000 0.000000 
#    y 0.000000 1.723300 0.000000 
#    z 0.000000 0.000000 1.684120 
# 
# From -- ./inp_files/42383.got.cif
#   From: 2010.05.17/outbox.cif.g08.bks.cpg/sg66_22_cif.got.tgz:42383.got - 2010.06.03 17:51:23.
