data_PCOD9499109
_publ_section_title
;
Structure prediction by ZEFSAII (Michael W. Deem and Ramdas Pophale) SiO2 
 PCOD9499109
Probable space group: C C C M
;
_chemical_formula_sum "Si O2"
_cell_formula_units_Z 88
_cell_length_a 21.541624
_cell_length_b 14.168562
_cell_length_c 14.763902
_cell_angle_alpha 90.000000
_cell_angle_beta 90.000000
_cell_angle_gamma 90.000000
_cell_volume 4506.147152
_symmetry_space_group_name_H-M "C C C M"
_symmetry_group_IT_number 66
_symmetry_cell_setting 'orthorhombic'
loop_
_space_group_symop_operation_xyz
x,y,z
-x,-y,z
x,-y,1/2-z
-x,y,1/2-z
-x,-y,-z
x,y,-z
-x,y,1/2+z
x,-y,1/2+z
1/2+x,1/2+y,z
1/2-x,1/2-y,z
1/2+x,1/2-y,1/2-z
1/2-x,1/2+y,1/2-z
1/2-x,1/2-y,-z
1/2+x,1/2+y,-z
1/2-x,1/2+y,1/2+z
1/2+x,1/2-y,1/2+z
loop_
_atom_site_type_symbol
_atom_site_label
_atom_site_fract_x
_atom_site_fract_y
_atom_site_fract_z
Si Si1 0.571039 0.535347 0.500000
Si Si2 0.181386 0.707778 0.000000
Si Si3 0.680313 0.015642 0.500000
Si Si4 0.109218 0.582026 0.323200
Si Si5 0.180868 0.777399 0.308227
Si Si6 0.897571 0.187143 0.848940
Si Si7 0.500000 0.186666 0.750000
Si Si8 0.183756 0.115765 0.000000
O O1 0.500000 0.500000 0.500000
O O2 0.581391 0.600950 0.588279
O O3 0.624965 0.455545 0.500000
O O4 0.250000 0.750000 0.000000
O O5 0.187765 0.596119 0.000000
O O6 0.143566 0.745104 0.913038
O O7 0.639093 0.045581 0.414800
O O8 0.748752 0.063983 0.500000
O O9 0.117597 0.500000 0.250000
O O10 0.145540 0.678362 0.303387
O O11 0.038583 0.618491 0.316953
O O12 0.250000 0.750000 0.281272
O O13 0.145765 0.842686 0.235571
O O14 0.180390 0.821207 0.408799
O O15 0.955207 0.246045 0.808650
#
# Coordination Sequence:
#
# PCOD9499109 Si02
#       8
#     8   8   8  16  16  16   8   8
#     4  11  28  46  68 104 142 177 250 283 334 435
#     4  11  23  44  68  95 138 172 229 277 347 410
#     4  12  22  41  71 101 131 176 227 285 344 403
#     4  11  24  40  65 100 133 170 226 278 336 414
#     4  11  22  44  68  96 139 178 223 283 358 406
#     4  10  24  45  68  97 131 189 222 283 352 402
#     4  10  23  44  67  96 140 176 226 273 345 410
#     4  12  26  44  66 105 137 178 231 292 339 419
#
# _framework density 19.528879
#
# number of rings (size 3 to 8) (size 9 to 14) (size 15 to 20)
#    0.000    1.091    1.818    4.909    5.091    3.636 
#    0.000    2.727    0.000    0.000    0.000    0.000 
#    0.000    0.000    0.000    0.000    0.000    0.000 
#
# Total GULP energy -245740.219286 kJ/mol
# GULP energy per Si atom -5585.004984 kJ/mol
# Density = 1.948443 g / cm^3
# Si number density = 19.528879 Si / 1000 Ang^3
#
#
#
# Elastic Constant Matrix: (Units=GPa)
#
#
# Indices 1 2 3 4 5 6 
#
# 1 169.3154 63.8924 75.0381 0.0000 0.0000 0.0000
# 2 63.8924 93.6888 36.7508 0.0000 0.0000 0.0000
# 3 75.0381 36.7508 132.4266 0.0000 0.0000 0.0000
# 4 0.0000 0.0000 0.0000 3.1306 0.0000 0.0000
# 5 0.0000 0.0000 0.0000 0.0000 30.2272 0.0000
# 6 0.0000 0.0000 0.0000 0.0000 0.0000 34.5884
#
#
#
# Elastic Compliance Matrix: (Units=1/GPa)
#
#
# Indices 1 2 3 4 5 6 
#
# 1 0.009562 -0.004933 -0.004049 0.000000 0.000000 0.000000
# 2 -0.004933 0.014522 -0.001235 0.000000 0.000000 0.000000
# 3 -0.004049 -0.001235 0.010189 0.000000 0.000000 0.000000
# 4 0.000000 0.000000 0.000000 0.319424 0.000000 0.000000
# 5 0.000000 0.000000 0.000000 0.000000 0.033083 0.000000
# 6 0.000000 0.000000 0.000000 0.000000 0.000000 0.028911
#
#
# Mechanical properties :
#
#
# Convention : Reuss Voigt Hill
#
# Bulk Modulus (GPa) = 72.26178 82.97704 77.61941
# Shear Modulus (GPa) = 11.34462 28.23920 19.79191
#
# Velocity S-wave (km/s) = 2.41283 3.80679 3.18696
# Velocity P-wave (km/s) = 6.69666 7.86790 7.30579
#
# Compressibility (1/GPa) = 0.01383857
#
# Stress axis : x y z
#
# Youngs Moduli (GPa) = 104.57947 68.86115 98.14834
#
# Poissons Ratio (x) = 0.33966 0.39744
# Poissons Ratio (y) = 0.51585 0.12122
# Poissons Ratio (z) = 0.42348 0.08505
#
# Static dielectric constant tensor:
#      x y z
#    x 1.724700 0.000000 0.000000 
#    y 0.000000 1.693960 0.000000 
#    z 0.000000 0.000000 1.709080 
# 
# From -- ./inp_files/31142.got.cif
#   From: 2010.05.17/outbox.cif.g08.bks.cpg/sg66_16_cif.got.tgz:31142.got - 2010.06.03 17:51:23.
