data_PCOD9499355
_publ_section_title
;
Structure prediction by ZEFSAII (Michael W. Deem and Ramdas Pophale) SiO2 
 PCOD9499355
Probable space group: C C C M
;
_chemical_formula_sum "Si O2"
_cell_formula_units_Z 84
_cell_length_a 8.298027
_cell_length_b 21.606679
_cell_length_c 24.242318
_cell_angle_alpha 90.000000
_cell_angle_beta 90.000000
_cell_angle_gamma 90.000000
_cell_volume 4346.473211
_symmetry_space_group_name_H-M "C C C M"
_symmetry_group_IT_number 66
_symmetry_cell_setting 'orthorhombic'
loop_
_space_group_symop_operation_xyz
x,y,z
-x,-y,z
x,-y,1/2-z
-x,y,1/2-z
-x,-y,-z
x,y,-z
-x,y,1/2+z
x,-y,1/2+z
1/2+x,1/2+y,z
1/2-x,1/2-y,z
1/2+x,1/2-y,1/2-z
1/2-x,1/2+y,1/2-z
1/2-x,1/2-y,-z
1/2+x,1/2+y,-z
1/2-x,1/2+y,1/2+z
1/2+x,1/2-y,1/2+z
loop_
_atom_site_type_symbol
_atom_site_label
_atom_site_fract_x
_atom_site_fract_y
_atom_site_fract_z
Si Si1 0.166330 0.025464 0.381121
Si Si2 0.315890 0.891380 0.623529
Si Si3 0.394781 0.901865 0.500000
Si Si4 0.854046 0.611023 0.686639
Si Si5 0.824914 0.183872 0.719895
Si Si6 0.500000 0.000000 0.250000
Si Si7 0.239381 0.541544 0.000000
O O1 0.214888 0.089689 0.353771
O O2 0.156396 0.043211 0.445200
O O3 0.287488 0.966226 0.375676
O O4 0.000000 0.000000 0.358599
O O5 0.329740 0.874688 0.558333
O O6 0.486476 0.874293 0.652004
O O7 0.187747 0.858975 0.664836
O O8 0.590437 0.909643 0.500000
O O9 0.337085 0.973023 0.500000
O O10 0.795880 0.657317 0.733131
O O11 0.890610 0.546256 0.716405
O O12 0.750000 0.250000 0.704350
O O13 0.000000 0.186601 0.750000
#
# Coordination Sequence:
#
# PCOD9499355 Si02
#       7
#    16  16   8  16  16   4   8
#     4  11  20  31  52  88 128 163 197 248 308 371
#     4  11  20  38  59  88 121 160 203 249 305 368
#     4   9  18  32  59  86 117 164 207 244 303 371
#     4  12  20  35  59  86 120 160 200 253 307 367
#     4  12  26  44  64  89 117 160 213 263 313 368
#     4  12  20  32  58  90 120 152 198 238 318 360
#     4   9  17  30  50  84 126 164 202 241 296 374
#
# _framework density 19.326014000000001
#
# number of rings (size 3 to 8) (size 9 to 14) (size 15 to 20)
#    0.000    0.952    5.714    2.571    0.000    0.000 
#    0.000    2.381    0.000    0.000    0.000    4.667 
#    0.000    0.000    0.000    0.000    0.000    0.000 
#
# Total GULP energy -233964.253002 kJ/mol
# GULP energy per Si atom -5570.577452 kJ/mol
# Density = 1.928203 g / cm^3
# Si number density = 19.326014 Si / 1000 Ang^3
#
#
#
# Elastic Constant Matrix: (Units=GPa)
#
#
# Indices 1 2 3 4 5 6 
#
# 1 68.5167 -4.5044 17.9409 0.0000 0.0000 0.0000
# 2 -4.5044 45.5347 32.6594 0.0000 0.0000 0.0000
# 3 17.9409 32.6594 129.1562 0.0000 0.0000 0.0000
# 4 0.0000 0.0000 0.0000 1.6721 0.0000 0.0000
# 5 0.0000 0.0000 0.0000 0.0000 18.5437 0.0000
# 6 0.0000 0.0000 0.0000 0.0000 0.0000 17.7960
#
#
#
# Elastic Compliance Matrix: (Units=1/GPa)
#
#
# Indices 1 2 3 4 5 6 
#
# 1 0.015666 0.003800 -0.003137 0.000000 0.000000 0.000000
# 2 0.003800 0.027748 -0.007544 0.000000 0.000000 0.000000
# 3 -0.003137 -0.007544 0.010086 0.000000 0.000000 0.000000
# 4 0.000000 0.000000 0.000000 0.598042 0.000000 0.000000
# 5 0.000000 0.000000 0.000000 0.000000 0.053927 0.000000
# 6 0.000000 0.000000 0.000000 0.000000 0.000000 0.056192
#
#
# Mechanical properties :
#
#
# Convention : Reuss Voigt Hill
#
# Bulk Modulus (GPa) = 25.16538 37.26661 31.21599
# Shear Modulus (GPa) = 6.33978 20.74315 13.54147
#
# Velocity S-wave (km/s) = 1.81316 3.27972 2.64992
# Velocity P-wave (km/s) = 4.17531 5.80234 5.05472
#
# Compressibility (1/GPa) = 0.03973713
#
# Stress axis : x y z
#
# Youngs Moduli (GPa) = 63.83174 36.03817 99.14667
#
# Poissons Ratio (x) = -0.13694 0.31102
# Poissons Ratio (y) = -0.24254 0.74801
# Poissons Ratio (z) = 0.20024 0.27189
#
# Static dielectric constant tensor:
#      x y z
#    x 2.244040 0.000000 0.000000 
#    y 0.000000 1.644300 0.000000 
#    z 0.000000 0.000000 1.526780 
# 
# From -- ./inp_files/55455.got.cif
#   From: 2010.05.17/outbox.cif.g08.bks.cpg/sg66_28_cif.got.tgz:55455.got - 2010.06.03 17:51:23.
