data_PCOD9499629
_publ_section_title
;
Structure prediction by ZEFSAII (Michael W. Deem and Ramdas Pophale) SiO2 
 PCOD9499629
Probable space group: C C C M
;
_chemical_formula_sum "Si O2"
_cell_formula_units_Z 64
_cell_length_a 5.262180
_cell_length_b 19.626159
_cell_length_c 24.995582
_cell_angle_alpha 90.000000
_cell_angle_beta 90.000000
_cell_angle_gamma 90.000000
_cell_volume 2581.453259
_symmetry_space_group_name_H-M "C C C M"
_symmetry_group_IT_number 66
_symmetry_cell_setting 'orthorhombic'
loop_
_space_group_symop_operation_xyz
x,y,z
-x,-y,z
x,-y,1/2-z
-x,y,1/2-z
-x,-y,-z
x,y,-z
-x,y,1/2+z
x,-y,1/2+z
1/2+x,1/2+y,z
1/2-x,1/2-y,z
1/2+x,1/2-y,1/2-z
1/2-x,1/2+y,1/2-z
1/2-x,1/2-y,-z
1/2+x,1/2+y,-z
1/2-x,1/2+y,1/2+z
1/2+x,1/2-y,1/2+z
loop_
_atom_site_type_symbol
_atom_site_label
_atom_site_fract_x
_atom_site_fract_y
_atom_site_fract_z
Si Si1 0.418596 0.687414 0.310065
Si Si2 0.211966 0.588088 0.441190
Si Si3 0.706838 0.327440 0.914803
Si Si4 0.751499 0.538599 0.173725
O O1 0.500000 0.703847 0.250000
O O2 0.250000 0.750000 0.331639
O O3 0.651312 0.673997 0.350692
O O4 0.261868 0.617203 0.309482
O O5 0.210924 0.556486 0.500000
O O6 0.449158 0.640144 0.437751
O O7 0.247376 0.538589 0.391150
O O8 0.950007 0.628371 0.430594
O O9 0.750000 0.250000 0.932131
O O10 0.500000 0.500000 0.191388
O O11 0.000000 0.500000 0.191825
#
# Coordination Sequence:
#
# PCOD9499629 Si02
#       4
#    16  16  16  16
#     4  11  25  46  75 107 140 184 235 286 348 415
#     4  11  24  41  65  97 135 183 235 285 342 410
#     4  11  22  40  64  98 141 180 227 288 348 412
#     4  11  25  47  71 101 142 183 229 287 347 411
#
# _framework density 24.792235000000002
#
# number of rings (size 3 to 8) (size 9 to 14) (size 15 to 20)
#    0.000    1.000    0.000    8.250    0.000    6.500 
#    0.000    3.750    0.000    0.000    0.000    0.000 
#    0.000    0.000    0.000    0.000    0.000    0.000 
#
# Total GULP energy -179532.232892 kJ/mol
# GULP energy per Si atom -5610.382278 kJ/mol
# Density = 2.473581 g / cm^3
# Si number density = 24.792235 Si / 1000 Ang^3
#
#
#
# Elastic Constant Matrix: (Units=GPa)
#
#
# Indices 1 2 3 4 5 6 
#
# 1 207.4831 74.7628 17.1415 0.0000 0.0000 0.0000
# 2 74.7628 131.5513 -15.1377 0.0000 0.0000 0.0000
# 3 17.1415 -15.1377 156.1109 0.0000 0.0000 0.0000
# 4 0.0000 0.0000 0.0000 21.7604 0.0000 0.0000
# 5 0.0000 0.0000 0.0000 0.0000 182.3645 0.0000
# 6 0.0000 0.0000 0.0000 0.0000 0.0000 53.1684
#
#
#
# Elastic Compliance Matrix: (Units=1/GPa)
#
#
# Indices 1 2 3 4 5 6 
#
# 1 0.006223 -0.003656 -0.001038 0.000000 0.000000 0.000000
# 2 -0.003656 0.009835 0.001355 0.000000 0.000000 0.000000
# 3 -0.001038 0.001355 0.006651 0.000000 0.000000 0.000000
# 4 0.000000 0.000000 0.000000 0.045955 0.000000 0.000000
# 5 0.000000 0.000000 0.000000 0.000000 0.005484 0.000000
# 6 0.000000 0.000000 0.000000 0.000000 0.000000 0.018808
#
#
# Mechanical properties :
#
#
# Convention : Reuss Voigt Hill
#
# Bulk Modulus (GPa) = 62.37550 72.07539 67.22544
# Shear Modulus (GPa) = 47.62949 79.35057 63.49003
#
# Velocity S-wave (km/s) = 4.38784 5.66354 5.06601
# Velocity P-wave (km/s) = 7.13336 8.47953 7.83541
#
# Compressibility (1/GPa) = 0.01603194
#
# Stress axis : x y z
#
# Youngs Moduli (GPa) = 160.70062 101.67508 150.35193
#
# Poissons Ratio (x) = 0.37172 0.15603
# Poissons Ratio (y) = 0.58751 -0.20375
# Poissons Ratio (z) = 0.16677 -0.13778
#
# Static dielectric constant tensor:
#      x y z
#    x 1.932280 0.000000 0.000000 
#    y 0.000000 1.916990 0.000000 
#    z 0.000000 0.000000 1.995840 
# 
# From -- ./inp_files/61234.got.cif
#   From: 2010.05.17/outbox.cif.g08.bks.cpg/sg66_31_cif.got.tgz:61234.got - 2010.06.03 17:51:23.
