data_PCOD9499025
_publ_section_title
;
Structure prediction by ZEFSAII (Michael W. Deem and Ramdas Pophale) SiO2 
 PCOD9499025
Probable space group: C C C M
;
_chemical_formula_sum "Si O2"
_cell_formula_units_Z 88
_cell_length_a 5.270984
_cell_length_b 25.779418
_cell_length_c 32.269622
_cell_angle_alpha 90.000000
_cell_angle_beta 90.000000
_cell_angle_gamma 90.000000
_cell_volume 4384.889813
_symmetry_space_group_name_H-M "C C C M"
_symmetry_group_IT_number 66
_symmetry_cell_setting 'orthorhombic'
loop_
_space_group_symop_operation_xyz
x,y,z
-x,-y,z
x,-y,1/2-z
-x,y,1/2-z
-x,-y,-z
x,y,-z
-x,y,1/2+z
x,-y,1/2+z
1/2+x,1/2+y,z
1/2-x,1/2-y,z
1/2+x,1/2-y,1/2-z
1/2-x,1/2+y,1/2-z
1/2-x,1/2-y,-z
1/2+x,1/2+y,-z
1/2-x,1/2+y,1/2+z
1/2+x,1/2-y,1/2+z
loop_
_atom_site_type_symbol
_atom_site_label
_atom_site_fract_x
_atom_site_fract_y
_atom_site_fract_z
Si Si1 0.000987 0.714735 0.203189
Si Si2 0.022120 0.365327 0.628884
Si Si3 0.253243 0.533886 0.382467
Si Si4 0.923181 0.103248 0.930928
Si Si5 0.743289 0.965387 0.500000
Si Si6 0.710248 0.811506 0.046871
O O1 0.250000 0.750000 0.200205
O O2 0.019764 0.672905 0.167174
O O3 0.000000 0.692552 0.250000
O O4 0.750000 0.750000 0.197957
O O5 0.294567 0.386016 0.613379
O O6 0.846473 0.414484 0.640740
O O7 0.933780 0.334765 0.586952
O O8 0.500000 0.500000 0.368333
O O9 0.351429 0.561751 0.424204
O O10 0.000000 0.500000 0.387268
O O11 0.028714 0.155834 0.950292
O O12 0.737902 0.072882 0.960772
O O13 0.500000 0.000000 0.500000
O O14 0.000000 0.000000 0.500000
O O15 0.750000 0.750000 0.052055
O O16 0.605185 0.819626 0.000000
#
# Coordination Sequence:
#
# PCOD9499025 Si02
#       6
#    16  16  16  16   8  16
#     4  10  24  46  74 107 138 168 214 276 343 409
#     4  11  25  38  69  95 133 172 227 273 334 403
#     4  11  23  41  62  92 128 169 219 270 327 386
#     4  11  25  40  60  96 123 177 227 280 329 398
#     4  12  30  40  63  85 129 175 228 294 329 373
#     4  10  23  41  58  87 136 183 223 269 322 396
#
# _framework density 20.068919000000001
#
# number of rings (size 3 to 8) (size 9 to 14) (size 15 to 20)
#    0.000    1.273    2.727    1.091   16.545    0.000 
#    0.000    1.818    0.000    0.545    4.727    0.000 
#    0.000    0.000    0.000    0.000    0.000    0.000 
#
# Total GULP energy -245450.465441 kJ/mol
# GULP energy per Si atom -5578.419669 kJ/mol
# Density = 2.002324 g / cm^3
# Si number density = 20.068919 Si / 1000 Ang^3
#
#
#
# Elastic Constant Matrix: (Units=GPa)
#
#
# Indices 1 2 3 4 5 6 
#
# 1 133.6914 64.5215 50.5252 0.0000 0.0000 0.0000
# 2 64.5215 143.5919 82.5752 0.0000 0.0000 0.0000
# 3 50.5252 82.5752 138.2170 0.0000 0.0000 0.0000
# 4 0.0000 0.0000 0.0000 27.2884 0.0000 0.0000
# 5 0.0000 0.0000 0.0000 0.0000 20.2628 0.0000
# 6 0.0000 0.0000 0.0000 0.0000 0.0000 28.2459
#
#
#
# Elastic Compliance Matrix: (Units=1/GPa)
#
#
# Indices 1 2 3 4 5 6 
#
# 1 0.009736 -0.003547 -0.001440 0.000000 0.000000 0.000000
# 2 -0.003547 0.011901 -0.005814 0.000000 0.000000 0.000000
# 3 -0.001440 -0.005814 0.011235 0.000000 0.000000 0.000000
# 4 0.000000 0.000000 0.000000 0.036646 0.000000 0.000000
# 5 0.000000 0.000000 0.000000 0.000000 0.049351 0.000000
# 6 0.000000 0.000000 0.000000 0.000000 0.000000 0.035403
#
#
# Mechanical properties :
#
#
# Convention : Reuss Voigt Hill
#
# Bulk Modulus (GPa) = 88.72346 90.08269 89.40308
# Shear Modulus (GPa) = 27.83511 29.68465 28.75988
#
# Velocity S-wave (km/s) = 3.72825 3.85013 3.78968
# Velocity P-wave (km/s) = 7.92708 8.04666 7.98709
#
# Compressibility (1/GPa) = 0.01127098
#
# Stress axis : x y z
#
# Youngs Moduli (GPa) = 102.71408 84.02660 89.01021
#
# Poissons Ratio (x) = 0.29800 0.12818
# Poissons Ratio (y) = 0.36428 0.51747
# Poissons Ratio (z) = 0.14792 0.48850
#
# Static dielectric constant tensor:
#      x y z
#    x 1.817780 0.000000 0.000000 
#    y 0.000000 1.722160 0.000000 
#    z 0.000000 0.000000 1.695030 
# 
# From -- ./inp_files/67257.got.cif
#   From: 2010.05.17/outbox.cif.g08.bks.cpg/sg66_34_cif.got.tgz:67257.got - 2010.06.03 17:51:23.
