data_PCOD9499074
_publ_section_title
;
Structure prediction by ZEFSAII (Michael W. Deem and Ramdas Pophale) SiO2 
 PCOD9499074
Probable space group: C C C M
;
_chemical_formula_sum "Si O2"
_cell_formula_units_Z 56
_cell_length_a 8.306892
_cell_length_b 10.672949
_cell_length_c 28.542062
_cell_angle_alpha 90.000000
_cell_angle_beta 90.000000
_cell_angle_gamma 90.000000
_cell_volume 2530.511664
_symmetry_space_group_name_H-M "C C C M"
_symmetry_group_IT_number 66
_symmetry_cell_setting 'orthorhombic'
loop_
_space_group_symop_operation_xyz
x,y,z
-x,-y,z
x,-y,1/2-z
-x,y,1/2-z
-x,-y,-z
x,y,-z
-x,y,1/2+z
x,-y,1/2+z
1/2+x,1/2+y,z
1/2-x,1/2-y,z
1/2+x,1/2-y,1/2-z
1/2-x,1/2+y,1/2-z
1/2-x,1/2-y,-z
1/2+x,1/2+y,-z
1/2-x,1/2+y,1/2+z
1/2+x,1/2-y,1/2+z
loop_
_atom_site_type_symbol
_atom_site_label
_atom_site_fract_x
_atom_site_fract_y
_atom_site_fract_z
Si Si1 0.434621 0.642112 0.552906
Si Si2 0.750000 0.250000 0.900684
Si Si3 0.175277 0.525368 0.380304
Si Si4 0.328023 0.883120 0.725133
O O1 0.500000 0.500000 0.550243
O O2 0.392669 0.678873 0.500000
O O3 0.583198 0.728449 0.570539
O O4 0.285242 0.615681 0.587875
O O5 0.758346 0.382979 0.873833
O O6 0.156013 0.587268 0.329671
O O7 0.000000 0.500000 0.401957
O O8 0.500000 0.875802 0.750000
O O9 0.250000 0.750000 0.731840
O O10 0.239755 0.000000 0.750000
#
# Coordination Sequence:
#
# PCOD9499074 Si02
#       4
#    16   8  16  16
#     4   9  20  40  66 100 139 186 236 283 343 418
#     4  10  23  42  70  98 138 188 228 288 349 414
#     4  11  24  42  68 101 141 178 232 293 351 420
#     4  11  26  48  70 100 134 178 230 290 355 427
#
# _framework density 22.129912999999998
#
# number of rings (size 3 to 8) (size 9 to 14) (size 15 to 20)
#    0.000    1.714    2.857    0.429    6.000    2.286 
#   10.286    1.429    0.000    0.000    0.000    0.000 
#    0.000    0.000    0.000    0.000    0.000    0.000 
#
# Total GULP energy -156211.094433 kJ/mol
# GULP energy per Si atom -5578.967658 kJ/mol
# Density = 2.207954 g / cm^3
# Si number density = 22.129913 Si / 1000 Ang^3
#
#
#
# Elastic Constant Matrix: (Units=GPa)
#
#
# Indices 1 2 3 4 5 6 
#
# 1 141.5305 62.4721 86.5592 0.0000 0.0000 0.0000
# 2 62.4721 196.0628 49.3676 0.0000 0.0000 0.0000
# 3 86.5592 49.3676 152.2711 0.0000 0.0000 0.0000
# 4 0.0000 0.0000 0.0000 24.7774 0.0000 0.0000
# 5 0.0000 0.0000 0.0000 0.0000 26.5469 0.0000
# 6 0.0000 0.0000 0.0000 0.0000 0.0000 40.0760
#
#
#
# Elastic Compliance Matrix: (Units=1/GPa)
#
#
# Indices 1 2 3 4 5 6 
#
# 1 0.011662 -0.002229 -0.005907 0.000000 0.000000 0.000000
# 2 -0.002229 0.005980 -0.000672 0.000000 0.000000 0.000000
# 3 -0.005907 -0.000672 0.010143 0.000000 0.000000 0.000000
# 4 0.000000 0.000000 0.000000 0.040359 0.000000 0.000000
# 5 0.000000 0.000000 0.000000 0.000000 0.037669 0.000000
# 6 0.000000 0.000000 0.000000 0.000000 0.000000 0.024953
#
#
# Mechanical properties :
#
#
# Convention : Reuss Voigt Hill
#
# Bulk Modulus (GPa) = 98.32792 98.51803 98.42298
# Shear Modulus (GPa) = 32.94470 37.71110 35.32790
#
# Velocity S-wave (km/s) = 3.86255 4.13253 3.99982
# Velocity P-wave (km/s) = 8.02627 8.20884 8.11807
#
# Compressibility (1/GPa) = 0.01017005
#
# Stress axis : x y z
#
# Youngs Moduli (GPa) = 85.74995 167.23352 98.59277
#
# Poissons Ratio (x) = 0.37269 0.58236
# Poissons Ratio (y) = 0.19110 0.06624
# Poissons Ratio (z) = 0.50650 0.11235
#
# Static dielectric constant tensor:
#      x y z
#    x 1.740010 0.000000 0.000000 
#    y 0.000000 1.886080 0.000000 
#    z 0.000000 0.000000 1.784890 
# 
# From -- ./inp_files/61970.got.cif
#   From: 2010.05.17/outbox.cif.g08.bks.cpg/sg66_31_cif.got.tgz:61970.got - 2010.06.03 17:51:23.
