data_PCOD9499343
_publ_section_title
;
Structure prediction by ZEFSAII (Michael W. Deem and Ramdas Pophale) SiO2 
 PCOD9499343
Probable space group: C C C M
;
_chemical_formula_sum "Si O2"
_cell_formula_units_Z 72
_cell_length_a 15.724345
_cell_length_b 13.422274
_cell_length_c 18.022294
_cell_angle_alpha 90.000000
_cell_angle_beta 90.000000
_cell_angle_gamma 90.000000
_cell_volume 3803.721700
_symmetry_space_group_name_H-M "C C C M"
_symmetry_group_IT_number 66
_symmetry_cell_setting 'orthorhombic'
loop_
_space_group_symop_operation_xyz
x,y,z
-x,-y,z
x,-y,1/2-z
-x,y,1/2-z
-x,-y,-z
x,y,-z
-x,y,1/2+z
x,-y,1/2+z
1/2+x,1/2+y,z
1/2-x,1/2-y,z
1/2+x,1/2-y,1/2-z
1/2-x,1/2+y,1/2-z
1/2-x,1/2-y,-z
1/2+x,1/2+y,-z
1/2-x,1/2+y,1/2+z
1/2+x,1/2-y,1/2+z
loop_
_atom_site_type_symbol
_atom_site_label
_atom_site_fract_x
_atom_site_fract_y
_atom_site_fract_z
Si Si1 0.340092 0.954453 0.332696
Si Si2 0.342397 0.592883 0.298005
Si Si3 0.388638 0.855771 0.086732
Si Si4 0.544128 0.236464 0.668876
Si Si5 0.750000 0.250000 0.189121
O O1 0.238655 0.945300 0.345310
O O2 0.382162 0.846398 0.333058
O O3 0.350671 0.000000 0.250000
O O4 0.387532 0.028626 0.388457
O O5 0.375674 0.500000 0.250000
O O6 0.413927 0.655101 0.340573
O O7 0.300617 0.671985 0.240364
O O8 0.474200 0.798841 0.110285
O O9 0.314985 0.808209 0.137000
O O10 0.372500 0.846284 0.000000
O O11 0.500000 0.233814 0.750000
#
# Coordination Sequence:
#
# PCOD9499343 Si02
#       5
#    16  16  16  16   8
#     4  11  19  37  65  90 121 159 214 261 305 372
#     4  11  20  37  67  99 119 158 223 264 314 361
#     4  12  26  40  61  95 131 168 206 260 326 386
#     4  12  21  36  63  92 127 162 204 263 319 367
#     4  12  19  42  66  90 119 172 208 262 309 388
#
# _framework density 18.928829
#
# number of rings (size 3 to 8) (size 9 to 14) (size 15 to 20)
#    0.000    0.444   11.111    1.000    0.000    2.222 
#    0.000    1.111    0.000    4.000    0.000    0.000 
#    0.000    0.000    0.000    0.000    0.000    0.000 
#
# Total GULP energy -201154.639360 kJ/mol
# GULP energy per Si atom -5587.628871 kJ/mol
# Density = 1.888575 g / cm^3
# Si number density = 18.928829 Si / 1000 Ang^3
#
#
#
# Elastic Constant Matrix: (Units=GPa)
#
#
# Indices 1 2 3 4 5 6 
#
# 1 70.0525 32.7155 6.7098 0.0000 0.0000 0.0000
# 2 32.7155 116.0713 7.5752 0.0000 0.0000 0.0000
# 3 6.7098 7.5752 61.9321 0.0000 0.0000 0.0000
# 4 0.0000 0.0000 0.0000 13.5774 0.0000 0.0000
# 5 0.0000 0.0000 0.0000 0.0000 7.6322 0.0000
# 6 0.0000 0.0000 0.0000 0.0000 0.0000 43.2249
#
#
#
# Elastic Compliance Matrix: (Units=1/GPa)
#
#
# Indices 1 2 3 4 5 6 
#
# 1 0.016531 -0.004579 -0.001231 0.000000 0.000000 0.000000
# 2 -0.004579 0.009953 -0.000721 0.000000 0.000000 0.000000
# 3 -0.001231 -0.000721 0.016368 0.000000 0.000000 0.000000
# 4 0.000000 0.000000 0.000000 0.073652 0.000000 0.000000
# 5 0.000000 0.000000 0.000000 0.000000 0.131023 0.000000
# 6 0.000000 0.000000 0.000000 0.000000 0.000000 0.023135
#
#
# Mechanical properties :
#
#
# Convention : Reuss Voigt Hill
#
# Bulk Modulus (GPa) = 33.56823 38.00633 35.78728
# Shear Modulus (GPa) = 17.02675 26.29060 21.65868
#
# Velocity S-wave (km/s) = 3.00244 3.73086 3.38630
# Velocity P-wave (km/s) = 5.45820 6.21942 5.85121
#
# Compressibility (1/GPa) = 0.02979007
#
# Stress axis : x y z
#
# Youngs Moduli (GPa) = 60.49073 100.47084 61.09366
#
# Poissons Ratio (x) = 0.46007 0.07520
# Poissons Ratio (y) = 0.27700 0.04407
# Poissons Ratio (z) = 0.07446 0.07247
#
# Static dielectric constant tensor:
#      x y z
#    x 1.706780 0.000000 0.000000 
#    y 0.000000 1.698270 0.000000 
#    z 0.000000 0.000000 1.606860 
# 
# From -- ./inp_files/38295.got.cif
#   From: 2010.05.17/outbox.cif.g08.bks.cpg/sg66_20_cif.got.tgz:38295.got - 2010.06.03 17:51:23.
