data_PCOD9499982
_publ_section_title
;
Structure prediction by ZEFSAII (Michael W. Deem and Ramdas Pophale) SiO2 
 PCOD9499982
Probable space group: C C C M
;
_chemical_formula_sum "Si O2"
_cell_formula_units_Z 60
_cell_length_a 13.491673
_cell_length_b 15.472166
_cell_length_c 14.527404
_cell_angle_alpha 90.000000
_cell_angle_beta 90.000000
_cell_angle_gamma 90.000000
_cell_volume 3032.528821
_symmetry_space_group_name_H-M "C C C M"
_symmetry_group_IT_number 66
_symmetry_cell_setting 'orthorhombic'
loop_
_space_group_symop_operation_xyz
x,y,z
-x,-y,z
x,-y,1/2-z
-x,y,1/2-z
-x,-y,-z
x,y,-z
-x,y,1/2+z
x,-y,1/2+z
1/2+x,1/2+y,z
1/2-x,1/2-y,z
1/2+x,1/2-y,1/2-z
1/2-x,1/2+y,1/2-z
1/2-x,1/2-y,-z
1/2+x,1/2+y,-z
1/2-x,1/2+y,1/2+z
1/2+x,1/2-y,1/2+z
loop_
_atom_site_type_symbol
_atom_site_label
_atom_site_fract_x
_atom_site_fract_y
_atom_site_fract_z
Si Si1 0.000000 0.500000 0.000000
Si Si2 0.500000 0.221400 0.750000
Si Si3 0.129802 0.429338 0.170758
Si Si4 0.154846 0.961751 0.389899
Si Si5 0.947531 0.135685 0.889704
O O1 0.075816 0.463967 0.919788
O O2 0.420364 0.159871 0.799096
O O3 0.553884 0.280556 0.826366
O O4 0.114386 0.500000 0.250000
O O5 0.247265 0.423747 0.154358
O O6 0.167793 0.962631 0.500000
O O7 0.055489 0.907199 0.372639
O O8 0.131159 0.061212 0.363295
O O9 0.938659 0.152764 0.000000
#
# Coordination Sequence:
#
# PCOD9499982 Si02
#       5
#     4   8  16  16  16
#     4  12  22  48  64  84 132 186 218 270 310 404
#     4  12  25  39  60 104 134 168 208 279 333 374
#     4  12  25  42  66  93 127 178 226 259 329 401
#     4   9  20  43  70  94 125 180 221 258 327 399
#     4   9  22  42  66  98 135 165 215 276 327 383
#
# _framework density 19.785466
#
# number of rings (size 3 to 8) (size 9 to 14) (size 15 to 20)
#    0.000    1.600    4.000    1.600    5.600    2.133 
#    0.000    2.667    0.000    4.800    0.000    0.000 
#    0.000    0.000    0.000    0.000    0.000    0.000 
#
# Total GULP energy -167143.439740 kJ/mol
# GULP energy per Si atom -5571.447991 kJ/mol
# Density = 1.974043 g / cm^3
# Si number density = 19.785466 Si / 1000 Ang^3
#
#
#
# Elastic Constant Matrix: (Units=GPa)
#
#
# Indices 1 2 3 4 5 6 
#
# 1 113.5280 31.6852 32.4827 0.0000 0.0000 0.0000
# 2 31.6852 75.1048 46.5383 0.0000 0.0000 0.0000
# 3 32.4827 46.5383 116.9050 0.0000 0.0000 0.0000
# 4 0.0000 0.0000 0.0000 3.4864 0.0000 0.0000
# 5 0.0000 0.0000 0.0000 0.0000 37.4162 0.0000
# 6 0.0000 0.0000 0.0000 0.0000 0.0000 13.5946
#
#
#
# Elastic Compliance Matrix: (Units=1/GPa)
#
#
# Indices 1 2 3 4 5 6 
#
# 1 0.010174 -0.003373 -0.001484 0.000000 0.000000 0.000000
# 2 -0.003373 0.018792 -0.006544 0.000000 0.000000 0.000000
# 3 -0.001484 -0.006544 0.011571 0.000000 0.000000 0.000000
# 4 0.000000 0.000000 0.000000 0.286833 0.000000 0.000000
# 5 0.000000 0.000000 0.000000 0.000000 0.026726 0.000000
# 6 0.000000 0.000000 0.000000 0.000000 0.000000 0.073559
#
#
# Mechanical properties :
#
#
# Convention : Reuss Voigt Hill
#
# Bulk Modulus (GPa) = 56.38107 58.55004 57.46556
# Shear Modulus (GPa) = 10.95602 23.88821 17.42212
#
# Velocity S-wave (km/s) = 2.35572 3.47848 2.97063
# Velocity P-wave (km/s) = 5.99644 6.76682 6.39324
#
# Compressibility (1/GPa) = 0.01773645
#
# Stress axis : x y z
#
# Youngs Moduli (GPa) = 98.28589 53.21285 86.41946
#
# Poissons Ratio (x) = 0.17946 0.12829
# Poissons Ratio (y) = 0.33147 0.56552
# Poissons Ratio (z) = 0.14590 0.34822
#
# Static dielectric constant tensor:
#      x y z
#    x 1.703420 0.000000 0.000000 
#    y 0.000000 1.692920 0.000000 
#    z 0.000000 0.000000 1.712490 
# 
# From -- ./inp_files/27773.got.cif
#   From: 2010.05.17/outbox.cif.g08.bks.cpg/sg66_14_cif.got.tgz:27773.got - 2010.06.03 17:51:23.
