data_PCOD9499142
_publ_section_title
;
Structure prediction by ZEFSAII (Michael W. Deem and Ramdas Pophale) SiO2 
 PCOD9499142
Probable space group: C C C M
;
_chemical_formula_sum "Si O2"
_cell_formula_units_Z 60
_cell_length_a 5.027779
_cell_length_b 23.539110
_cell_length_c 23.437543
_cell_angle_alpha 90.000000
_cell_angle_beta 90.000000
_cell_angle_gamma 90.000000
_cell_volume 2773.820158
_symmetry_space_group_name_H-M "C C C M"
_symmetry_group_IT_number 66
_symmetry_cell_setting 'orthorhombic'
loop_
_space_group_symop_operation_xyz
x,y,z
-x,-y,z
x,-y,1/2-z
-x,y,1/2-z
-x,-y,-z
x,y,-z
-x,y,1/2+z
x,-y,1/2+z
1/2+x,1/2+y,z
1/2-x,1/2-y,z
1/2+x,1/2-y,1/2-z
1/2-x,1/2+y,1/2-z
1/2-x,1/2-y,-z
1/2+x,1/2+y,-z
1/2-x,1/2+y,1/2+z
1/2+x,1/2-y,1/2+z
loop_
_atom_site_type_symbol
_atom_site_label
_atom_site_fract_x
_atom_site_fract_y
_atom_site_fract_z
Si Si1 0.780465 0.644938 0.414309
Si Si2 0.500000 0.000000 0.343575
Si Si3 0.216235 0.070988 0.936870
Si Si4 0.250000 0.750000 0.000000
Si Si5 0.762532 0.612608 0.288234
O O1 0.578614 0.595348 0.433076
O O2 0.723739 0.700577 0.450345
O O3 0.735870 0.648182 0.346407
O O4 0.078163 0.623348 0.427895
O O5 0.287816 0.970660 0.385630
O O6 0.641341 0.950371 0.307984
O O7 0.259307 0.046615 0.000000
O O8 0.500000 0.609181 0.250000
O O9 0.000000 0.636619 0.250000
#
# Coordination Sequence:
#
# PCOD9499142 Si02
#       5
#    16   8  16   4  16
#     4  11  25  41  69  96 126 168 220 276 328 384
#     4  10  24  36  68  94 136 185 217 250 322 392
#     4  11  21  41  58 101 137 169 211 267 326 390
#     4  12  24  50  72  96 124 162 224 276 356 388
#     4  11  24  44  63  94 135 174 217 258 307 387
#
# _framework density 21.63082
#
# number of rings (size 3 to 8) (size 9 to 14) (size 15 to 20)
#    0.000    1.067    2.667    4.000    0.000   14.933 
#    0.000    8.000    0.000    0.000    0.000    0.000 
#    0.000    0.000    0.000    0.000    0.000    0.000 
#
# Total GULP energy -167389.641633 kJ/mol
# GULP energy per Si atom -5579.654721 kJ/mol
# Density = 2.158159 g / cm^3
# Si number density = 21.630820 Si / 1000 Ang^3
#
#
#
# Elastic Constant Matrix: (Units=GPa)
#
#
# Indices 1 2 3 4 5 6 
#
# 1 74.9441 10.1480 49.4357 0.0000 0.0000 0.0000
# 2 10.1480 90.5556 56.3397 0.0000 0.0000 0.0000
# 3 49.4357 56.3397 227.5449 0.0000 0.0000 0.0000
# 4 0.0000 0.0000 0.0000 16.5252 0.0000 0.0000
# 5 0.0000 0.0000 0.0000 0.0000 33.7460 0.0000
# 6 0.0000 0.0000 0.0000 0.0000 0.0000 -8.8721
#
#
#
# Elastic Compliance Matrix: (Units=1/GPa)
#
#
# Indices 1 2 3 4 5 6 
#
# 1 0.015589 0.000426 -0.003492 0.000000 0.000000 0.000000
# 2 0.000426 0.013065 -0.003327 0.000000 0.000000 0.000000
# 3 -0.003492 -0.003327 0.005977 0.000000 0.000000 0.000000
# 4 0.000000 0.000000 0.000000 0.060514 0.000000 0.000000
# 5 0.000000 0.000000 0.000000 0.000000 0.029633 0.000000
# 6 0.000000 0.000000 0.000000 0.000000 0.000000 -0.112713
#
#
# Mechanical properties :
#
#
# Convention : Reuss Voigt Hill
#
# Bulk Modulus (GPa) = 45.77911 69.43237 57.60574
# Shear Modulus (GPa) = 155.59198 26.75456 91.17327
#
# Velocity S-wave (km/s) = 8.49040 3.52073 6.49932
# Velocity P-wave (km/s) = 10.83169 6.97825 9.11102
#
# Compressibility (1/GPa) = 0.02184402
#
# Stress axis : x y z
#
# Youngs Moduli (GPa) = 64.14667 76.53786 167.29852
#
# Poissons Ratio (x) = -0.03259 0.58426
# Poissons Ratio (y) = -0.02731 0.55668
# Poissons Ratio (z) = 0.22402 0.25468
#
# Static dielectric constant tensor:
#      x y z
#    x 1.799260 0.000000 0.000000 
#    y 0.000000 1.744140 0.000000 
#    z 0.000000 0.000000 1.820120 
# 
# From -- ./inp_files/45574.got.cif
#   From: 2010.05.17/outbox.cif.g08.bks.cpg/sg66_23_cif.got.tgz:45574.got - 2010.06.03 17:51:23.
