data_PCOD9499950
_publ_section_title
;
Structure prediction by ZEFSAII (Michael W. Deem and Ramdas Pophale) SiO2 
 PCOD9499950
Probable space group: C C C M
;
_chemical_formula_sum "Si O2"
_cell_formula_units_Z 32
_cell_length_a 7.528903
_cell_length_b 7.197901
_cell_length_c 23.170066
_cell_angle_alpha 90.000000
_cell_angle_beta 90.000000
_cell_angle_gamma 90.000000
_cell_volume 1255.639131
_symmetry_space_group_name_H-M "C C C M"
_symmetry_group_IT_number 66
_symmetry_cell_setting 'orthorhombic'
loop_
_space_group_symop_operation_xyz
x,y,z
-x,-y,z
x,-y,1/2-z
-x,y,1/2-z
-x,-y,-z
x,y,-z
-x,y,1/2+z
x,-y,1/2+z
1/2+x,1/2+y,z
1/2-x,1/2-y,z
1/2+x,1/2-y,1/2-z
1/2-x,1/2+y,1/2-z
1/2-x,1/2-y,-z
1/2+x,1/2+y,-z
1/2-x,1/2+y,1/2+z
1/2+x,1/2-y,1/2+z
loop_
_atom_site_type_symbol
_atom_site_label
_atom_site_fract_x
_atom_site_fract_y
_atom_site_fract_z
Si Si1 0.544496 0.781285 0.814558
Si Si2 0.287531 0.467208 0.000000
Si Si3 0.250000 0.250000 0.596879
O O1 0.500000 0.712617 0.750000
O O2 0.750000 0.750000 0.826849
O O3 0.413657 0.699542 0.862093
O O4 0.500000 0.000000 0.814772
O O5 0.500000 0.500000 0.000000
O O6 0.250000 0.250000 0.000000
O O7 0.211476 0.576105 0.944665
#
# Coordination Sequence:
#
# PCOD9499950 Si02
#       3
#    16   8   8
#     4  11  26  49  81 123 170 219 278 345 431 520
#     4  11  30  53  83 120 166 228 296 350 426 494
#     4  11  28  50  84 120 174 219 286 356 426 509
#
# _framework density 25.485029000000001
#
# number of rings (size 3 to 8) (size 9 to 14) (size 15 to 20)
#    0.000    1.000    2.500    0.000   14.000    2.000 
#    0.000    3.750    0.000    0.000    0.000    0.000 
#    0.000    0.000    0.000    0.000    0.000    0.000 
#
# Total GULP energy -89940.424042 kJ/mol
# GULP energy per Si atom -5621.276503 kJ/mol
# Density = 2.542702 g / cm^3
# Si number density = 25.485029 Si / 1000 Ang^3
#
#
#
# Elastic Constant Matrix: (Units=GPa)
#
#
# Indices 1 2 3 4 5 6 
#
# 1 243.1078 53.6858 97.7230 0.0000 0.0000 0.0000
# 2 53.6858 200.6196 71.2897 0.0000 0.0000 0.0000
# 3 97.7230 71.2897 238.8718 0.0000 0.0000 0.0000
# 4 0.0000 0.0000 0.0000 17.8690 0.0000 0.0000
# 5 0.0000 0.0000 0.0000 0.0000 22.7178 0.0000
# 6 0.0000 0.0000 0.0000 0.0000 0.0000 44.1613
#
#
#
# Elastic Compliance Matrix: (Units=1/GPa)
#
#
# Indices 1 2 3 4 5 6 
#
# 1 0.005006 -0.000684 -0.001844 0.000000 0.000000 0.000000
# 2 -0.000684 0.005669 -0.001412 0.000000 0.000000 0.000000
# 3 -0.001844 -0.001412 0.005362 0.000000 0.000000 0.000000
# 4 0.000000 0.000000 0.000000 0.055963 0.000000 0.000000
# 5 0.000000 0.000000 0.000000 0.000000 0.044018 0.000000
# 6 0.000000 0.000000 0.000000 0.000000 0.000000 0.022644
#
#
# Mechanical properties :
#
#
# Convention : Reuss Voigt Hill
#
# Bulk Modulus (GPa) = 122.59297 125.33292 123.96295
# Shear Modulus (GPa) = 33.49826 47.60966 40.55396
#
# Velocity S-wave (km/s) = 3.62944 4.32689 3.99342
# Velocity P-wave (km/s) = 8.11000 8.61675 8.36721
#
# Compressibility (1/GPa) = 0.00815707
#
# Stress axis : x y z
#
# Youngs Moduli (GPa) = 199.77646 176.38361 186.49921
#
# Poissons Ratio (x) = 0.12072 0.34382
# Poissons Ratio (y) = 0.13673 0.26334
# Poissons Ratio (z) = 0.36830 0.24906
#
# Static dielectric constant tensor:
#      x y z
#    x 1.957360 0.000000 0.000000 
#    y 0.000000 1.877240 0.000000 
#    z 0.000000 0.000000 1.989230 
# 
# From -- ./inp_files/46007.got.cif
#   From: 2010.05.17/outbox.cif.g08.bks.cpg/sg66_24_cif.got.tgz:46007.got - 2010.06.03 17:51:23.
