data_PCOD9499013
_publ_section_title
;
Structure prediction by ZEFSAII (Michael W. Deem and Ramdas Pophale) SiO2 
 PCOD9499013
Probable space group: C C C M
;
_chemical_formula_sum "Si O2"
_cell_formula_units_Z 52
_cell_length_a 7.171729
_cell_length_b 18.096188
_cell_length_c 15.555481
_cell_angle_alpha 90.000000
_cell_angle_beta 90.000000
_cell_angle_gamma 90.000000
_cell_volume 2018.805199
_symmetry_space_group_name_H-M "C C C M"
_symmetry_group_IT_number 66
_symmetry_cell_setting 'orthorhombic'
loop_
_space_group_symop_operation_xyz
x,y,z
-x,-y,z
x,-y,1/2-z
-x,y,1/2-z
-x,-y,-z
x,y,-z
-x,y,1/2+z
x,-y,1/2+z
1/2+x,1/2+y,z
1/2-x,1/2-y,z
1/2+x,1/2-y,1/2-z
1/2-x,1/2+y,1/2-z
1/2-x,1/2-y,-z
1/2+x,1/2+y,-z
1/2-x,1/2+y,1/2+z
1/2+x,1/2-y,1/2+z
loop_
_atom_site_type_symbol
_atom_site_label
_atom_site_fract_x
_atom_site_fract_y
_atom_site_fract_z
Si Si1 0.525877 0.242599 0.099013
Si Si2 0.513329 0.397137 0.152395
Si Si3 0.000000 0.000000 0.500000
Si Si4 0.950805 0.581412 0.351249
O O1 0.750000 0.250000 0.112244
O O2 0.448794 0.311879 0.151519
O O3 0.464790 0.159088 0.117203
O O4 0.489298 0.259312 0.000000
O O5 0.500000 0.423205 0.250000
O O6 0.421242 0.444247 0.077073
O O7 0.732374 0.406124 0.130071
O O8 0.000000 0.500000 0.386442
O O9 0.000000 0.579172 0.250000
#
# Coordination Sequence:
#
# PCOD9499013 Si02
#       4
#    16  16   4  16
#     4   9  18  39  64  94 127 169 218 268 326 393
#     4  11  24  44  72  92 132 176 223 275 319 397
#     4  12  26  40  68 104 122 172 236 268 322 388
#     4  10  23  40  64  98 134 169 217 265 342 391
#
# _framework density 25.757812000000001
#
# number of rings (size 3 to 8) (size 9 to 14) (size 15 to 20)
#    0.000    1.846    1.538    1.385   10.769    0.615 
#    0.000    0.000    0.000    3.692    0.000    0.000 
#    0.000    0.000    0.000    0.000    0.000    0.000 
#
# Total GULP energy -144770.355688 kJ/mol
# GULP energy per Si atom -5568.090603 kJ/mol
# Density = 2.569919 g / cm^3
# Si number density = 25.757812 Si / 1000 Ang^3
#
#
#
# Elastic Constant Matrix: (Units=GPa)
#
#
# Indices 1 2 3 4 5 6 
#
# 1 94.4714 18.2550 -31.5560 0.0000 0.0000 0.0000
# 2 18.2550 291.4255 74.5222 0.0000 0.0000 0.0000
# 3 -31.5560 74.5222 138.1945 0.0000 0.0000 0.0000
# 4 0.0000 0.0000 0.0000 48.2456 0.0000 0.0000
# 5 0.0000 0.0000 0.0000 0.0000 -4.4432 0.0000
# 6 0.0000 0.0000 0.0000 0.0000 0.0000 32.5801
#
#
#
# Elastic Compliance Matrix: (Units=1/GPa)
#
#
# Indices 1 2 3 4 5 6 
#
# 1 0.012149 -0.001706 0.003694 0.000000 0.000000 0.000000
# 2 -0.001706 0.004220 -0.002665 0.000000 0.000000 0.000000
# 3 0.003694 -0.002665 0.009517 0.000000 0.000000 0.000000
# 4 0.000000 0.000000 0.000000 0.020727 0.000000 0.000000
# 5 0.000000 0.000000 0.000000 0.000000 -0.225062 0.000000
# 6 0.000000 0.000000 0.000000 0.000000 0.000000 0.030694
#
#
# Mechanical properties :
#
#
# Convention : Reuss Voigt Hill
#
# Bulk Modulus (GPa) = 40.76368 71.83709 56.30039
# Shear Modulus (GPa) = -36.17290 46.13451 4.98080
#
# Velocity S-wave (km/s) = -3.75153 4.23672 1.39209
# Velocity P-wave (km/s) = 1.70445 7.20299 4.94863
#
# Compressibility (1/GPa) = 0.02453164
#
# Stress axis : x y z
#
# Youngs Moduli (GPa) = 82.31391 236.98250 105.07799
#
# Poissons Ratio (x) = 0.40419 -0.38814
# Poissons Ratio (y) = 0.14039 0.28003
# Poissons Ratio (z) = -0.30405 0.63155
#
# Static dielectric constant tensor:
#      x y z
#    x 2.085950 0.000000 0.000000 
#    y 0.000000 2.081080 0.000000 
#    z 0.000000 0.000000 2.002300 
# 
# From -- ./inp_files/30630.got.cif
#   From: 2010.05.17/outbox.cif.g08.bks.cpg/sg66_16_cif.got.tgz:30630.got - 2010.06.03 17:51:23.
