data_PCOD9499378
_publ_section_title
;
Structure prediction by ZEFSAII (Michael W. Deem and Ramdas Pophale) SiO2 
 PCOD9499378
Probable space group: C C C M
;
_chemical_formula_sum "Si O2"
_cell_formula_units_Z 112
_cell_length_a 11.819498
_cell_length_b 27.754110
_cell_length_c 18.381358
_cell_angle_alpha 90.000000
_cell_angle_beta 90.000000
_cell_angle_gamma 90.000000
_cell_volume 6029.814201
_symmetry_space_group_name_H-M "C C C M"
_symmetry_group_IT_number 66
_symmetry_cell_setting 'orthorhombic'
loop_
_space_group_symop_operation_xyz
x,y,z
-x,-y,z
x,-y,1/2-z
-x,y,1/2-z
-x,-y,-z
x,y,-z
-x,y,1/2+z
x,-y,1/2+z
1/2+x,1/2+y,z
1/2-x,1/2-y,z
1/2+x,1/2-y,1/2-z
1/2-x,1/2+y,1/2-z
1/2-x,1/2-y,-z
1/2+x,1/2+y,-z
1/2-x,1/2+y,1/2+z
1/2+x,1/2-y,1/2+z
loop_
_atom_site_type_symbol
_atom_site_label
_atom_site_fract_x
_atom_site_fract_y
_atom_site_fract_z
Si Si1 0.332640 0.207788 0.583488
Si Si2 0.530770 0.662135 0.835706
Si Si3 0.049705 0.727348 0.331224
Si Si4 0.591395 0.929399 0.085791
Si Si5 0.833478 0.462171 0.084902
Si Si6 0.278040 0.855233 0.315012
Si Si7 0.209339 0.878608 0.148381
O O1 0.350597 0.220645 0.500000
O O2 0.250000 0.250000 0.615952
O O3 0.453315 0.202659 0.620968
O O4 0.271560 0.157179 0.593066
O O5 0.500000 0.664565 0.750000
O O6 0.548313 0.717613 0.858754
O O7 0.652626 0.638958 0.847762
O O8 0.422527 0.633445 0.863969
O O9 0.165935 0.697450 0.327779
O O10 0.000000 0.727645 0.250000
O O11 0.457751 0.938788 0.096174
O O12 0.639322 0.891832 0.143778
O O13 0.651839 0.981035 0.098223
O O14 0.607993 0.915897 0.000000
O O15 0.744380 0.433146 0.132800
O O16 0.804850 0.456149 0.000000
O O17 0.256156 0.863981 0.228850
#
# Coordination Sequence:
#
# PCOD9499378 Si02
#       7
#    16  16  16  16  16  16  16
#     4  11  22  35  54  84 118 147 184 241 289 330
#     4   9  21  36  53  77 116 156 189 230 283 336
#     4  11  20  35  58  82 113 152 196 236 278 343
#     4   9  20  39  58  83 114 143 183 236 298 353
#     4   9  19  37  62  83 109 147 180 234 306 353
#     4  11  22  34  57  85 112 151 193 236 285 338
#     4  11  20  36  57  84 113 148 196 236 283 345
#
# _framework density 18.574370999999999
#
# number of rings (size 3 to 8) (size 9 to 14) (size 15 to 20)
#    0.000    1.857    2.857    2.571    0.000    2.286 
#    0.000    4.286    0.000    6.000    0.000    0.000 
#    0.000    0.000    0.000    0.000    0.000    0.000 
#
# Total GULP energy -312130.899168 kJ/mol
# GULP energy per Si atom -5573.766057 kJ/mol
# Density = 1.853209 g / cm^3
# Si number density = 18.574371 Si / 1000 Ang^3
#
#
#
# Elastic Constant Matrix: (Units=GPa)
#
#
# Indices 1 2 3 4 5 6 
#
# 1 75.4419 22.2993 26.9558 0.0000 0.0000 0.0000
# 2 22.2993 61.2349 16.3309 0.0000 0.0000 0.0000
# 3 26.9558 16.3309 34.3127 0.0000 0.0000 0.0000
# 4 0.0000 0.0000 0.0000 41.4855 0.0000 0.0000
# 5 0.0000 0.0000 0.0000 0.0000 8.5340 0.0000
# 6 0.0000 0.0000 0.0000 0.0000 0.0000 18.8428
#
#
#
# Elastic Compliance Matrix: (Units=1/GPa)
#
#
# Indices 1 2 3 4 5 6 
#
# 1 0.019016 -0.003368 -0.013335 0.000000 0.000000 0.000000
# 2 -0.003368 0.019301 -0.006540 0.000000 0.000000 0.000000
# 3 -0.013335 -0.006540 0.042733 0.000000 0.000000 0.000000
# 4 0.000000 0.000000 0.000000 0.024105 0.000000 0.000000
# 5 0.000000 0.000000 0.000000 0.000000 0.117179 0.000000
# 6 0.000000 0.000000 0.000000 0.000000 0.000000 0.053071
#
#
# Mechanical properties :
#
#
# Convention : Reuss Voigt Hill
#
# Bulk Modulus (GPa) = 28.93367 33.57350 31.25359
# Shear Modulus (GPa) = 14.99643 20.79934 17.89789
#
# Velocity S-wave (km/s) = 2.84451 3.34995 3.10753
# Velocity P-wave (km/s) = 5.13803 5.75129 5.45329
#
# Compressibility (1/GPa) = 0.03456181
#
# Stress axis : x y z
#
# Youngs Moduli (GPa) = 52.58830 51.80965 23.40126
#
# Poissons Ratio (x) = 0.17451 0.31207
# Poissons Ratio (y) = 0.17713 0.15305
# Poissons Ratio (z) = 0.70129 0.33885
#
# Static dielectric constant tensor:
#      x y z
#    x 1.656370 0.000000 0.000000 
#    y 0.000000 1.690210 0.000000 
#    z 0.000000 0.000000 1.646140 
# 
# From -- ./inp_files/49158.got.cif
#   From: 2010.05.17/outbox.cif.g08.bks.cpg/sg66_25_cif.got.tgz:49158.got - 2010.06.03 17:51:23.
