data_PCOD9499799
_publ_section_title
;
Structure prediction by ZEFSAII (Michael W. Deem and Ramdas Pophale) SiO2 
 PCOD9499799
Probable space group: C C C M
;
_chemical_formula_sum "Si O2"
_cell_formula_units_Z 64
_cell_length_a 10.419585
_cell_length_b 17.219550
_cell_length_c 16.781425
_cell_angle_alpha 90.000000
_cell_angle_beta 90.000000
_cell_angle_gamma 90.000000
_cell_volume 3010.932753
_symmetry_space_group_name_H-M "C C C M"
_symmetry_group_IT_number 66
_symmetry_cell_setting 'orthorhombic'
loop_
_space_group_symop_operation_xyz
x,y,z
-x,-y,z
x,-y,1/2-z
-x,y,1/2-z
-x,-y,-z
x,y,-z
-x,y,1/2+z
x,-y,1/2+z
1/2+x,1/2+y,z
1/2-x,1/2-y,z
1/2+x,1/2-y,1/2-z
1/2-x,1/2+y,1/2-z
1/2-x,1/2-y,-z
1/2+x,1/2+y,-z
1/2-x,1/2+y,1/2+z
1/2+x,1/2-y,1/2+z
loop_
_atom_site_type_symbol
_atom_site_label
_atom_site_fract_x
_atom_site_fract_y
_atom_site_fract_z
Si Si1 0.793977 0.147521 0.592267
Si Si2 0.546845 0.777853 0.840043
Si Si3 0.653040 0.486405 0.159133
Si Si4 0.792439 0.664540 0.594729
O O1 0.766938 0.165419 0.500000
O O2 0.681998 0.178537 0.649733
O O3 0.922848 0.194567 0.618115
O O4 0.798906 0.055954 0.603690
O O5 0.500000 0.766214 0.750000
O O6 0.442457 0.832152 0.883390
O O7 0.500000 0.500000 0.157159
O O8 0.694791 0.500000 0.250000
O O9 0.709373 0.404021 0.132601
O O10 0.775863 0.660264 0.500000
O O11 0.750000 0.750000 0.623303
#
# Coordination Sequence:
#
# PCOD9499799 Si02
#       4
#    16  16  16  16
#     4  11  24  44  68  99 139 182 230 286 352 415
#     4  11  24  40  70  97 134 176 231 278 344 412
#     4  11  25  42  67  99 138 177 229 284 352 412
#     4  11  24  42  66  96 132 174 226 278 336 404
#
# _framework density 21.255870999999999
#
# number of rings (size 3 to 8) (size 9 to 14) (size 15 to 20)
#    0.000    1.000    0.000    6.750   10.500    5.000 
#    0.000    5.000    0.000    0.000    0.000    0.000 
#    0.000    0.000    0.000    0.000    0.000    0.000 
#
# Total GULP energy -178770.945766 kJ/mol
# GULP energy per Si atom -5586.592055 kJ/mol
# Density = 2.120749 g / cm^3
# Si number density = 21.255871 Si / 1000 Ang^3
#
#
#
# Elastic Constant Matrix: (Units=GPa)
#
#
# Indices 1 2 3 4 5 6 
#
# 1 94.0861 56.7370 36.9569 0.0000 0.0000 0.0000
# 2 56.7370 183.6196 55.3459 0.0000 0.0000 0.0000
# 3 36.9569 55.3459 114.6774 0.0000 0.0000 0.0000
# 4 0.0000 0.0000 0.0000 24.9026 0.0000 0.0000
# 5 0.0000 0.0000 0.0000 0.0000 29.8892 0.0000
# 6 0.0000 0.0000 0.0000 0.0000 0.0000 41.2703
#
#
#
# Elastic Compliance Matrix: (Units=1/GPa)
#
#
# Indices 1 2 3 4 5 6 
#
# 1 0.013787 -0.003418 -0.002793 0.000000 0.000000 0.000000
# 2 -0.003418 0.007221 -0.002383 0.000000 0.000000 0.000000
# 3 -0.002793 -0.002383 0.010771 0.000000 0.000000 0.000000
# 4 0.000000 0.000000 0.000000 0.040157 0.000000 0.000000
# 5 0.000000 0.000000 0.000000 0.000000 0.033457 0.000000
# 6 0.000000 0.000000 0.000000 0.000000 0.000000 0.024230
#
#
# Mechanical properties :
#
#
# Convention : Reuss Voigt Hill
#
# Bulk Modulus (GPa) = 68.54703 76.71809 72.63256
# Shear Modulus (GPa) = 32.96530 35.43529 34.20030
#
# Velocity S-wave (km/s) = 3.94239 4.08742 4.01556
# Velocity P-wave (km/s) = 7.28298 7.64507 7.46622
#
# Compressibility (1/GPa) = 0.01458852
#
# Stress axis : x y z
#
# Youngs Moduli (GPa) = 72.53170 138.49334 92.84545
#
# Poissons Ratio (x) = 0.47338 0.25936
# Poissons Ratio (y) = 0.24792 0.22128
# Poissons Ratio (z) = 0.20262 0.33007
#
# Static dielectric constant tensor:
#      x y z
#    x 1.860280 0.000000 0.000000 
#    y 0.000000 1.774360 0.000000 
#    z 0.000000 0.000000 1.745440 
# 
# From -- ./inp_files/25790.got.cif
#   From: 2010.05.17/outbox.cif.g08.bks.cpg/sg66_13_cif.got.tgz:25790.got - 2010.06.03 17:51:23.
