data_PCOD9499676
_publ_section_title
;
Structure prediction by ZEFSAII (Michael W. Deem and Ramdas Pophale) SiO2 
 PCOD9499676
Probable space group: C C C M
;
_chemical_formula_sum "Si O2"
_cell_formula_units_Z 116
_cell_length_a 16.810933
_cell_length_b 12.546071
_cell_length_c 26.118644
_cell_angle_alpha 90.000000
_cell_angle_beta 90.000000
_cell_angle_gamma 90.000000
_cell_volume 5508.713477
_symmetry_space_group_name_H-M "C C C M"
_symmetry_group_IT_number 66
_symmetry_cell_setting 'orthorhombic'
loop_
_space_group_symop_operation_xyz
x,y,z
-x,-y,z
x,-y,1/2-z
-x,y,1/2-z
-x,-y,-z
x,y,-z
-x,y,1/2+z
x,-y,1/2+z
1/2+x,1/2+y,z
1/2-x,1/2-y,z
1/2+x,1/2-y,1/2-z
1/2-x,1/2+y,1/2-z
1/2-x,1/2-y,-z
1/2+x,1/2+y,-z
1/2-x,1/2+y,1/2+z
1/2+x,1/2-y,1/2+z
loop_
_atom_site_type_symbol
_atom_site_label
_atom_site_fract_x
_atom_site_fract_y
_atom_site_fract_z
Si Si1 0.537018 0.811610 0.303908
Si Si2 0.000000 0.500000 0.500000
Si Si3 0.148443 0.615076 0.122352
Si Si4 0.125710 0.815386 0.439190
Si Si5 0.180136 0.031569 0.604382
Si Si6 0.071824 0.388130 0.099724
Si Si7 0.426541 0.439724 0.303878
Si Si8 0.564245 0.695976 0.558739
O O1 0.500000 0.847273 0.250000
O O2 0.624000 0.856817 0.319345
O O3 0.478921 0.848263 0.350777
O O4 0.549085 0.683791 0.300895
O O5 0.973868 0.413828 0.453996
O O6 0.237537 0.595684 0.103384
O O7 0.108575 0.501313 0.112935
O O8 0.107626 0.711760 0.091299
O O9 0.139978 0.814775 0.500000
O O10 0.137813 0.700059 0.413817
O O11 0.029140 0.825623 0.430617
O O12 0.175444 0.909657 0.413426
O O13 0.150291 0.043475 0.662283
O O14 0.114463 0.090776 0.570154
O O15 0.500000 0.500000 0.330628
O O16 0.417010 0.500000 0.250000
O O17 0.572374 0.725058 0.500000
#
# Coordination Sequence:
#
# PCOD9499676 Si02
#       8
#    16   4  16  16  16  16  16  16
#     4  12  24  45  76 104 135 183 249 309 358 437
#     4  12  20  44  74 106 144 184 260 312 356 446
#     4  12  27  43  68 105 146 188 239 308 370 439
#     4  11  23  41  70 102 140 194 251 305 359 444
#     4  12  25  44  66 102 150 183 235 304 386 447
#     4  12  24  44  71 106 139 192 249 299 362 441
#     4  11  22  43  74 103 132 183 236 290 364 444
#     4  11  23  41  70 104 144 197 248 301 365 448
#
# _framework density 21.057549000000002
#
# number of rings (size 3 to 8) (size 9 to 14) (size 15 to 20)
#    0.000    0.414    6.207    2.897    2.897    4.414 
#    2.483    0.690    0.000    0.000    0.000    0.000 
#    0.000    0.000    0.000    0.000    0.000    0.000 
#
# Total GULP energy -323180.607365 kJ/mol
# GULP energy per Si atom -5572.079437 kJ/mol
# Density = 2.100962 g / cm^3
# Si number density = 21.057549 Si / 1000 Ang^3
#
#
#
# Elastic Constant Matrix: (Units=GPa)
#
#
# Indices 1 2 3 4 5 6 
#
# 1 50.4073 11.6931 18.8714 0.0000 0.0000 0.0000
# 2 11.6931 107.1159 16.7639 0.0000 0.0000 0.0000
# 3 18.8714 16.7639 116.2717 0.0000 0.0000 0.0000
# 4 0.0000 0.0000 0.0000 40.8196 0.0000 0.0000
# 5 0.0000 0.0000 0.0000 0.0000 12.9019 0.0000
# 6 0.0000 0.0000 0.0000 0.0000 0.0000 15.2500
#
#
#
# Elastic Compliance Matrix: (Units=1/GPa)
#
#
# Indices 1 2 3 4 5 6 
#
# 1 0.021471 -0.001840 -0.003219 0.000000 0.000000 0.000000
# 2 -0.001840 0.009709 -0.001101 0.000000 0.000000 0.000000
# 3 -0.003219 -0.001101 0.009282 0.000000 0.000000 0.000000
# 4 0.000000 0.000000 0.000000 0.024498 0.000000 0.000000
# 5 0.000000 0.000000 0.000000 0.000000 0.077508 0.000000
# 6 0.000000 0.000000 0.000000 0.000000 0.000000 0.065574
#
#
# Mechanical properties :
#
#
# Convention : Reuss Voigt Hill
#
# Bulk Modulus (GPa) = 35.53654 40.93907 38.23780
# Shear Modulus (GPa) = 21.76352 28.89206 25.32779
#
# Velocity S-wave (km/s) = 3.21834 3.70814 3.47189
# Velocity P-wave (km/s) = 5.54282 6.14959 5.85407
#
# Compressibility (1/GPa) = 0.02814005
#
# Stress axis : x y z
#
# Youngs Moduli (GPa) = 46.57550 102.99858 107.73718
#
# Poissons Ratio (x) = 0.18951 0.34686
# Poissons Ratio (y) = 0.08570 0.11864
# Poissons Ratio (z) = 0.14995 0.11342
#
# Static dielectric constant tensor:
#      x y z
#    x 1.872510 0.000000 0.000000 
#    y 0.000000 1.797000 0.000000 
#    z 0.000000 0.000000 1.773340 
# 
# From -- ./inp_files/65326.got.cif
#   From: 2010.05.17/outbox.cif.g08.bks.cpg/sg66_33_cif.got.tgz:65326.got - 2010.06.03 17:51:23.
