data_PCOD9499383
_publ_section_title
;
Structure prediction by ZEFSAII (Michael W. Deem and Ramdas Pophale) SiO2 
 PCOD9499383
Probable space group: C C C M
;
_chemical_formula_sum "Si O2"
_cell_formula_units_Z 80
_cell_length_a 9.671006
_cell_length_b 16.320285
_cell_length_c 26.213705
_cell_angle_alpha 90.000000
_cell_angle_beta 90.000000
_cell_angle_gamma 90.000000
_cell_volume 4137.402752
_symmetry_space_group_name_H-M "C C C M"
_symmetry_group_IT_number 66
_symmetry_cell_setting 'orthorhombic'
loop_
_space_group_symop_operation_xyz
x,y,z
-x,-y,z
x,-y,1/2-z
-x,y,1/2-z
-x,-y,-z
x,y,-z
-x,y,1/2+z
x,-y,1/2+z
1/2+x,1/2+y,z
1/2-x,1/2-y,z
1/2+x,1/2-y,1/2-z
1/2-x,1/2+y,1/2-z
1/2-x,1/2-y,-z
1/2+x,1/2+y,-z
1/2-x,1/2+y,1/2+z
1/2+x,1/2-y,1/2+z
loop_
_atom_site_type_symbol
_atom_site_label
_atom_site_fract_x
_atom_site_fract_y
_atom_site_fract_z
Si Si1 0.484399 0.742910 0.500000
Si Si2 0.757416 0.391100 0.388995
Si Si3 0.019706 0.754596 0.387758
Si Si4 0.624672 0.202790 0.210186
Si Si5 0.663300 0.980255 0.307498
Si Si6 0.254367 0.887423 0.500000
O O1 0.551710 0.746676 0.443855
O O2 0.372661 0.817155 0.500000
O O3 0.390463 0.661249 0.500000
O O4 0.886596 0.328185 0.383113
O O5 0.624929 0.331384 0.386521
O O6 0.760576 0.461179 0.347020
O O7 0.766116 0.430393 0.445621
O O8 0.925358 0.755158 0.338150
O O9 0.500000 0.188398 0.250000
O O10 0.750000 0.250000 0.237177
O O11 0.675557 0.116716 0.187629
O O12 0.500000 0.000000 0.312357
O O13 0.707174 0.000000 0.250000
#
# Coordination Sequence:
#
# PCOD9499383 Si02
#       6
#     8  16  16  16  16   8
#     4   7  12  26  50  81 116 145 185 228 272 330
#     4   9  16  30  59  84 116 147 189 233 278 328
#     4   9  17  32  57  86 113 152 190 229 278 337
#     4  12  26  40  59  83 114 150 195 234 286 348
#     4  11  20  36  55  81 111 148 186 234 294 334
#     4   7  12  24  46  88 114 142 184 230 269 328
#
# _framework density 19.335802000000001
#
# number of rings (size 3 to 8) (size 9 to 14) (size 15 to 20)
#    0.000    2.400    4.000    2.400    5.600    0.000 
#    0.000    3.000    0.000    0.000    0.000    4.200 
#    0.000    0.000    0.000    0.000    0.000    0.000 
#
# Total GULP energy -222859.039645 kJ/mol
# GULP energy per Si atom -5571.475991 kJ/mol
# Density = 1.929179 g / cm^3
# Si number density = 19.335802 Si / 1000 Ang^3
#
#
#
# Elastic Constant Matrix: (Units=GPa)
#
#
# Indices 1 2 3 4 5 6 
#
# 1 24.7343 25.4547 19.2117 0.0000 0.0000 0.0000
# 2 25.4547 82.6393 42.5089 0.0000 0.0000 0.0000
# 3 19.2117 42.5089 144.4293 0.0000 0.0000 0.0000
# 4 0.0000 0.0000 0.0000 37.2226 0.0000 0.0000
# 5 0.0000 0.0000 0.0000 0.0000 15.4422 0.0000
# 6 0.0000 0.0000 0.0000 0.0000 0.0000 9.9273
#
#
#
# Elastic Compliance Matrix: (Units=1/GPa)
#
#
# Indices 1 2 3 4 5 6 
#
# 1 0.060284 -0.017021 -0.003009 0.000000 0.000000 0.000000
# 2 -0.017021 0.019065 -0.003347 0.000000 0.000000 0.000000
# 3 -0.003009 -0.003347 0.008309 0.000000 0.000000 0.000000
# 4 0.000000 0.000000 0.000000 0.026865 0.000000 0.000000
# 5 0.000000 0.000000 0.000000 0.000000 0.064758 0.000000
# 6 0.000000 0.000000 0.000000 0.000000 0.000000 0.100732
#
#
# Mechanical properties :
#
#
# Convention : Reuss Voigt Hill
#
# Bulk Modulus (GPa) = 24.44770 47.35039 35.89904
# Shear Modulus (GPa) = 14.68849 23.49359 19.09104
#
# Velocity S-wave (km/s) = 2.75917 3.48951 3.14561
# Velocity P-wave (km/s) = 4.77723 6.38570 5.63911
#
# Compressibility (1/GPa) = 0.04090364
#
# Stress axis : x y z
#
# Youngs Moduli (GPa) = 16.58828 52.45107 120.34751
#
# Poissons Ratio (x) = 0.89276 0.36215
# Poissons Ratio (y) = 0.28235 0.40284
# Poissons Ratio (z) = 0.04992 0.17557
#
# Static dielectric constant tensor:
#      x y z
#    x 1.707420 0.000000 0.000000 
#    y 0.000000 1.665090 0.000000 
#    z 0.000000 0.000000 1.723810 
# 
# From -- ./inp_files/56666.got.cif
#   From: 2010.05.17/outbox.cif.g08.bks.cpg/sg66_29_cif.got.tgz:56666.got - 2010.06.03 17:51:23.
