data_PCOD9499031
_publ_section_title
;
Structure prediction by ZEFSAII (Michael W. Deem and Ramdas Pophale) SiO2 
 PCOD9499031
Probable space group: C C C M
;
_chemical_formula_sum "Si O2"
_cell_formula_units_Z 52
_cell_length_a 5.396286
_cell_length_b 28.537067
_cell_length_c 14.924516
_cell_angle_alpha 90.000000
_cell_angle_beta 90.000000
_cell_angle_gamma 90.000000
_cell_volume 2298.288531
_symmetry_space_group_name_H-M "C C C M"
_symmetry_group_IT_number 66
_symmetry_cell_setting 'orthorhombic'
loop_
_space_group_symop_operation_xyz
x,y,z
-x,-y,z
x,-y,1/2-z
-x,y,1/2-z
-x,-y,-z
x,y,-z
-x,y,1/2+z
x,-y,1/2+z
1/2+x,1/2+y,z
1/2-x,1/2-y,z
1/2+x,1/2-y,1/2-z
1/2-x,1/2+y,1/2-z
1/2-x,1/2-y,-z
1/2+x,1/2+y,-z
1/2-x,1/2+y,1/2+z
1/2+x,1/2-y,1/2+z
loop_
_atom_site_type_symbol
_atom_site_label
_atom_site_fract_x
_atom_site_fract_y
_atom_site_fract_z
Si Si1 0.123579 0.700029 0.609566
Si Si2 0.390900 0.347222 0.393937
Si Si3 0.000000 0.500000 0.250000
Si Si4 0.804725 0.043055 0.902412
O O1 0.105917 0.699451 0.500000
O O2 0.250000 0.750000 0.632901
O O3 0.340315 0.665906 0.643026
O O4 0.851604 0.681630 0.640473
O O5 0.398843 0.334607 0.500000
O O6 0.384025 0.403362 0.391240
O O7 0.851653 0.467431 0.183877
O O8 0.675088 0.041884 0.000000
O O9 0.000000 0.000000 0.904288
#
# Coordination Sequence:
#
# PCOD9499031 Si02
#       4
#    16  16   4  16
#     4   9  16  28  49  81 120 157 200 255 310 372
#     4   9  18  31  52  82 119 162 203 251 316 376
#     4  12  24  40  64  92 124 164 224 268 314 390
#     4  10  23  41  62  90 130 171 212 268 327 387
#
# _framework density 22.625533000000001
#
# number of rings (size 3 to 8) (size 9 to 14) (size 15 to 20)
#    0.000    2.462    0.000    1.846    4.308    3.692 
#    0.000    0.000    0.000    0.000    0.000    4.308 
#    0.000    0.000    0.000    0.000    0.000    0.000 
#
# Total GULP energy -144779.342775 kJ/mol
# GULP energy per Si atom -5568.436261 kJ/mol
# Density = 2.257404 g / cm^3
# Si number density = 22.625533 Si / 1000 Ang^3
#
#
#
# Elastic Constant Matrix: (Units=GPa)
#
#
# Indices 1 2 3 4 5 6 
#
# 1 67.6574 6.8037 23.1148 0.0000 0.0000 0.0000
# 2 6.8037 74.9230 13.3276 0.0000 0.0000 0.0000
# 3 23.1148 13.3276 93.1799 0.0000 0.0000 0.0000
# 4 0.0000 0.0000 0.0000 -38.8017 0.0000 0.0000
# 5 0.0000 0.0000 0.0000 0.0000 28.1320 0.0000
# 6 0.0000 0.0000 0.0000 0.0000 0.0000 17.1031
#
#
#
# Elastic Compliance Matrix: (Units=1/GPa)
#
#
# Indices 1 2 3 4 5 6 
#
# 1 0.016193 -0.000776 -0.003906 0.000000 0.000000 0.000000
# 2 -0.000776 0.013733 -0.001772 0.000000 0.000000 0.000000
# 3 -0.003906 -0.001772 0.011954 0.000000 0.000000 0.000000
# 4 0.000000 0.000000 0.000000 -0.025772 0.000000 0.000000
# 5 0.000000 0.000000 0.000000 0.000000 0.035547 0.000000
# 6 0.000000 0.000000 0.000000 0.000000 0.000000 0.058469
#
#
# Mechanical properties :
#
#
# Convention : Reuss Voigt Hill
#
# Bulk Modulus (GPa) = 34.51491 35.80581 35.16036
# Shear Modulus (GPa) = 37.68247 14.12096 25.90172
#
# Velocity S-wave (km/s) = 4.08546 2.50094 3.38716
# Velocity P-wave (km/s) = 6.12720 4.91929 5.55617
#
# Compressibility (1/GPa) = 0.02897299
#
# Stress axis : x y z
#
# Youngs Moduli (GPa) = 61.75585 72.81921 83.65200
#
# Poissons Ratio (x) = 0.05648 0.32674
# Poissons Ratio (y) = 0.04790 0.14821
# Poissons Ratio (z) = 0.24122 0.12902
#
# Static dielectric constant tensor:
#      x y z
#    x 2.395260 0.000000 0.000000 
#    y 0.000000 1.857880 0.000000 
#    z 0.000000 0.000000 1.861790 
# 
# From -- ./inp_files/22531.got.cif
#   From: 2010.05.17/outbox.cif.g08.bks.cpg/sg66_12_cif.got.tgz:22531.got - 2010.06.03 17:51:23.
