data_PCOD9499542
_publ_section_title
;
Structure prediction by ZEFSAII (Michael W. Deem and Ramdas Pophale) SiO2 
 PCOD9499542
Probable space group: C C C M
;
_chemical_formula_sum "Si O2"
_cell_formula_units_Z 68
_cell_length_a 9.112414
_cell_length_b 20.973460
_cell_length_c 14.012085
_cell_angle_alpha 90.000000
_cell_angle_beta 90.000000
_cell_angle_gamma 90.000000
_cell_volume 2677.973579
_symmetry_space_group_name_H-M "C C C M"
_symmetry_group_IT_number 66
_symmetry_cell_setting 'orthorhombic'
loop_
_space_group_symop_operation_xyz
x,y,z
-x,-y,z
x,-y,1/2-z
-x,y,1/2-z
-x,-y,-z
x,y,-z
-x,y,1/2+z
x,-y,1/2+z
1/2+x,1/2+y,z
1/2-x,1/2-y,z
1/2+x,1/2-y,1/2-z
1/2-x,1/2+y,1/2-z
1/2-x,1/2-y,-z
1/2+x,1/2+y,-z
1/2-x,1/2+y,1/2+z
1/2+x,1/2-y,1/2+z
loop_
_atom_site_type_symbol
_atom_site_label
_atom_site_fract_x
_atom_site_fract_y
_atom_site_fract_z
Si Si1 0.022121 0.892590 0.862694
Si Si2 0.689119 0.930441 0.708182
Si Si3 0.084592 0.621442 0.392523
Si Si4 0.929461 0.752434 0.644972
Si Si5 0.500000 0.500000 0.500000
O O1 0.193592 0.910861 0.870979
O O2 0.012573 0.819763 0.895439
O O3 0.945085 0.948590 0.918405
O O4 0.000000 0.897258 0.750000
O O5 0.537083 0.926173 0.650903
O O6 0.692993 0.881521 0.800025
O O7 0.716088 0.000000 0.750000
O O8 0.134247 0.605783 0.500000
O O9 0.001830 0.689233 0.397656
O O10 0.750000 0.750000 0.643209
O O11 0.000000 0.752377 0.750000
#
# Coordination Sequence:
#
# PCOD9499542 Si02
#       5
#    16  16  16  16   4
#     4  11  25  45  70  99 144 184 237 290 357 440
#     4  11  23  44  68  98 141 185 230 300 364 424
#     4  11  23  40  67 104 135 173 242 294 361 427
#     4  11  21  42  73 100 141 192 242 306 371 426
#     4  12  26  44  66 106 136 184 242 282 354 430
#
# _framework density 25.392332
#
# number of rings (size 3 to 8) (size 9 to 14) (size 15 to 20)
#    0.000    0.941    4.706    3.176    3.294    2.353 
#    6.353    0.000    0.000    3.529    0.000    0.000 
#    0.000    0.000    0.000    0.000    0.000    0.000 
#
# Total GULP energy -189391.815420 kJ/mol
# GULP energy per Si atom -5570.347512 kJ/mol
# Density = 2.533454 g / cm^3
# Si number density = 25.392332 Si / 1000 Ang^3
#
#
#
# Elastic Constant Matrix: (Units=GPa)
#
#
# Indices 1 2 3 4 5 6 
#
# 1 52.5687 -0.0044 12.0108 0.0000 0.0000 0.0000
# 2 -0.0044 202.2756 42.6597 0.0000 0.0000 0.0000
# 3 12.0108 42.6597 160.0999 0.0000 0.0000 0.0000
# 4 0.0000 0.0000 0.0000 43.3556 0.0000 0.0000
# 5 0.0000 0.0000 0.0000 0.0000 273.6083 0.0000
# 6 0.0000 0.0000 0.0000 0.0000 0.0000 24.9270
#
#
#
# Elastic Compliance Matrix: (Units=1/GPa)
#
#
# Indices 1 2 3 4 5 6 
#
# 1 0.019375 0.000325 -0.001540 0.000000 0.000000 0.000000
# 2 0.000325 0.005244 -0.001422 0.000000 0.000000 0.000000
# 3 -0.001540 -0.001422 0.006740 0.000000 0.000000 0.000000
# 4 0.000000 0.000000 0.000000 0.023065 0.000000 0.000000
# 5 0.000000 0.000000 0.000000 0.000000 0.003655 0.000000
# 6 0.000000 0.000000 0.000000 0.000000 0.000000 0.040117
#
#
# Mechanical properties :
#
#
# Convention : Reuss Voigt Hill
#
# Bulk Modulus (GPa) = 38.33528 58.25293 48.29411
# Shear Modulus (GPa) = 44.57761 92.39672 68.48717
#
# Velocity S-wave (km/s) = 4.19448 6.03876 5.19905
# Velocity P-wave (km/s) = 6.21194 8.46245 7.42298
#
# Compressibility (1/GPa) = 0.02608563
#
# Stress axis : x y z
#
# Youngs Moduli (GPa) = 51.61389 190.70989 148.35840
#
# Poissons Ratio (x) = -0.06203 0.22849
# Poissons Ratio (y) = -0.01679 0.21090
# Poissons Ratio (z) = 0.07949 0.27111
#
# Static dielectric constant tensor:
#      x y z
#    x 2.222220 0.000000 0.000000 
#    y 0.000000 1.992040 0.000000 
#    z 0.000000 0.000000 1.987900 
# 
# From -- ./inp_files/26131.got.cif
#   From: 2010.05.17/outbox.cif.g08.bks.cpg/sg66_14_cif.got.tgz:26131.got - 2010.06.03 17:51:23.
