data_PCOD9499262
_publ_section_title
;
Structure prediction by ZEFSAII (Michael W. Deem and Ramdas Pophale) SiO2 
 PCOD9499262
Probable space group: C C C M
;
_chemical_formula_sum "Si O2"
_cell_formula_units_Z 32
_cell_length_a 16.022577
_cell_length_b 7.045974
_cell_length_c 10.522381
_cell_angle_alpha 90.000000
_cell_angle_beta 90.000000
_cell_angle_gamma 90.000000
_cell_volume 1187.920635
_symmetry_space_group_name_H-M "C C C M"
_symmetry_group_IT_number 66
_symmetry_cell_setting 'orthorhombic'
loop_
_space_group_symop_operation_xyz
x,y,z
-x,-y,z
x,-y,1/2-z
-x,y,1/2-z
-x,-y,-z
x,y,-z
-x,y,1/2+z
x,-y,1/2+z
1/2+x,1/2+y,z
1/2-x,1/2-y,z
1/2+x,1/2-y,1/2-z
1/2-x,1/2+y,1/2-z
1/2-x,1/2-y,-z
1/2+x,1/2+y,-z
1/2-x,1/2+y,1/2+z
1/2+x,1/2-y,1/2+z
loop_
_atom_site_type_symbol
_atom_site_label
_atom_site_fract_x
_atom_site_fract_y
_atom_site_fract_z
Si Si1 0.156493 0.276926 0.718994
Si Si2 0.150880 0.786648 0.500000
Si Si3 0.025129 0.221798 0.500000
O O1 0.154187 0.500000 0.750000
O O2 0.250000 0.250000 0.664557
O O3 0.146430 0.155799 0.849553
O O4 0.082484 0.247976 0.621586
O O5 0.250000 0.750000 0.500000
O O6 0.063266 0.668214 0.500000
O O7 0.000000 0.000000 0.500000
#
# Coordination Sequence:
#
# PCOD9499262 Si02
#       3
#    16   8   8
#     4  11  26  47  80 113 160 212 270 330 407 477
#     4  10  25  44  71 106 160 195 260 321 400 456
#     4  12  28  46  81 117 161 208 274 329 410 483
#
# _framework density 26.937828
#
# number of rings (size 3 to 8) (size 9 to 14) (size 15 to 20)
#    0.000    1.000    0.000    3.750   14.000    8.000 
#    0.000    0.000    0.000    0.000    0.000    0.000 
#    0.000    0.000    0.000    0.000    0.000    0.000 
#
# Total GULP energy -89245.433325 kJ/mol
# GULP energy per Si atom -5577.839583 kJ/mol
# Density = 2.687652 g / cm^3
# Si number density = 26.937828 Si / 1000 Ang^3
#
#
#
# Elastic Constant Matrix: (Units=GPa)
#
#
# Indices 1 2 3 4 5 6 
#
# 1 316.5551 34.9778 121.0977 0.0000 0.0000 0.0000
# 2 34.9778 107.9016 8.3414 0.0000 0.0000 0.0000
# 3 121.0977 8.3414 211.4689 0.0000 0.0000 0.0000
# 4 0.0000 0.0000 0.0000 15.1200 0.0000 0.0000
# 5 0.0000 0.0000 0.0000 0.0000 66.7671 0.0000
# 6 0.0000 0.0000 0.0000 0.0000 0.0000 49.1516
#
#
#
# Elastic Compliance Matrix: (Units=1/GPa)
#
#
# Indices 1 2 3 4 5 6 
#
# 1 0.004189 -0.001176 -0.002352 0.000000 0.000000 0.000000
# 2 -0.001176 0.009626 0.000294 0.000000 0.000000 0.000000
# 3 -0.002352 0.000294 0.006064 0.000000 0.000000 0.000000
# 4 0.000000 0.000000 0.000000 0.066138 0.000000 0.000000
# 5 0.000000 0.000000 0.000000 0.000000 0.014977 0.000000
# 6 0.000000 0.000000 0.000000 0.000000 0.000000 0.020345
#
#
# Mechanical properties :
#
#
# Convention : Reuss Voigt Hill
#
# Bulk Modulus (GPa) = 74.57055 107.19546 90.88301
# Shear Modulus (GPa) = 37.79891 57.64164 47.72028
#
# Velocity S-wave (km/s) = 3.74998 4.63082 4.21348
# Velocity P-wave (km/s) = 6.81853 8.27482 7.58172
#
# Compressibility (1/GPa) = 0.01341012
#
# Stress axis : x y z
#
# Youngs Moduli (GPa) = 238.72950 103.88293 164.89903
#
# Poissons Ratio (x) = 0.12217 0.38790
# Poissons Ratio (y) = 0.28075 -0.04844
# Poissons Ratio (z) = 0.56158 -0.03051
#
# Static dielectric constant tensor:
#      x y z
#    x 2.178540 0.000000 0.000000 
#    y 0.000000 3.552850 0.000000 
#    z 0.000000 0.000000 2.069740 
# 
# From -- ./inp_files/12639.got.cif
#   From: 2010.05.17/outbox.cif.g08.bks.cpg/sg66_7_cif.got.tgz:12639.got - 2010.06.03 17:51:23.
