data_PCOD9499777
_publ_section_title
;
Structure prediction by ZEFSAII (Michael W. Deem and Ramdas Pophale) SiO2 
 PCOD9499777
Probable space group: C C C M
;
_chemical_formula_sum "Si O2"
_cell_formula_units_Z 48
_cell_length_a 14.455580
_cell_length_b 12.181563
_cell_length_c 12.862640
_cell_angle_alpha 90.000000
_cell_angle_beta 90.000000
_cell_angle_gamma 90.000000
_cell_volume 2265.002324
_symmetry_space_group_name_H-M "C C C M"
_symmetry_group_IT_number 66
_symmetry_cell_setting 'orthorhombic'
loop_
_space_group_symop_operation_xyz
x,y,z
-x,-y,z
x,-y,1/2-z
-x,y,1/2-z
-x,-y,-z
x,y,-z
-x,y,1/2+z
x,-y,1/2+z
1/2+x,1/2+y,z
1/2-x,1/2-y,z
1/2+x,1/2-y,1/2-z
1/2-x,1/2+y,1/2-z
1/2-x,1/2-y,-z
1/2+x,1/2+y,-z
1/2-x,1/2+y,1/2+z
1/2+x,1/2-y,1/2+z
loop_
_atom_site_type_symbol
_atom_site_label
_atom_site_fract_x
_atom_site_fract_y
_atom_site_fract_z
Si Si1 0.988311 0.370028 0.500000
Si Si2 0.695579 0.634005 0.500000
Si Si3 0.919552 0.777382 0.323963
Si Si4 0.250000 0.250000 0.818722
Si Si5 0.726552 0.098251 0.500000
O O1 0.877912 0.356037 0.500000
O O2 0.000000 0.500000 0.500000
O O3 0.034604 0.312841 0.400035
O O4 0.750000 0.750000 0.500000
O O5 0.630423 0.635518 0.398904
O O6 0.764231 0.531982 0.500000
O O7 0.838128 0.727194 0.253297
O O8 0.000000 0.821439 0.250000
O O9 0.229307 0.148895 0.895984
#
# Coordination Sequence:
#
# PCOD9499777 Si02
#       5
#     8   8  16   8   8
#     4  11  24  41  69 106 140 174 236 299 352 405
#     4  11  24  45  70 104 150 180 230 297 359 413
#     4  11  23  45  68 100 145 184 231 287 347 430
#     4  11  24  45  70 100 144 183 232 287 354 416
#     4  11  24  45  72 104 139 186 233 294 348 419
#
# _framework density 21.192029999999999
#
# number of rings (size 3 to 8) (size 9 to 14) (size 15 to 20)
#    0.000    1.000    5.000    2.000    0.000    2.000 
#    6.000    5.000    0.000    0.000    0.000    0.000 
#    0.000    0.000    0.000    0.000    0.000    0.000 
#
# Total GULP energy -134166.379681 kJ/mol
# GULP energy per Si atom -5590.265820 kJ/mol
# Density = 2.114380 g / cm^3
# Si number density = 21.192030 Si / 1000 Ang^3
#
#
#
# Elastic Constant Matrix: (Units=GPa)
#
#
# Indices 1 2 3 4 5 6 
#
# 1 132.3572 34.7787 65.1117 0.0000 0.0000 0.0000
# 2 34.7787 92.6588 33.0075 0.0000 0.0000 0.0000
# 3 65.1117 33.0075 147.4006 0.0000 0.0000 0.0000
# 4 0.0000 0.0000 0.0000 -1.2954 0.0000 0.0000
# 5 0.0000 0.0000 0.0000 0.0000 41.8209 0.0000
# 6 0.0000 0.0000 0.0000 0.0000 0.0000 33.4862
#
#
#
# Elastic Compliance Matrix: (Units=1/GPa)
#
#
# Indices 1 2 3 4 5 6 
#
# 1 0.010120 -0.002397 -0.003934 0.000000 0.000000 0.000000
# 2 -0.002397 0.012296 -0.001694 0.000000 0.000000 0.000000
# 3 -0.003934 -0.001694 0.008901 0.000000 0.000000 0.000000
# 4 0.000000 0.000000 0.000000 -0.771992 0.000000 0.000000
# 5 0.000000 0.000000 0.000000 0.000000 0.023911 0.000000
# 6 0.000000 0.000000 0.000000 0.000000 0.000000 0.029863
#
#
# Mechanical properties :
#
#
# Convention : Reuss Voigt Hill
#
# Bulk Modulus (GPa) = 65.50264 70.91252 68.20758
# Shear Modulus (GPa) = -7.51021 30.77026 11.63003
#
# Velocity S-wave (km/s) = -1.88456 3.81461 2.34517
# Velocity P-wave (km/s) = 5.12257 7.27573 6.29194
#
# Compressibility (1/GPa) = 0.01526656
#
# Stress axis : x y z
#
# Youngs Moduli (GPa) = 98.81065 81.32932 112.34325
#
# Poissons Ratio (x) = 0.19497 0.44192
# Poissons Ratio (y) = 0.23688 0.19035
# Poissons Ratio (z) = 0.38869 0.13780
#
# Static dielectric constant tensor:
#      x y z
#    x 1.809330 0.000000 0.000000 
#    y 0.000000 1.729140 0.000000 
#    z 0.000000 0.000000 1.783500 
# 
# From -- ./inp_files/15593.got.cif
#   From: 2010.05.17/outbox.cif.g08.bks.cpg/sg66_8_cif.got.tgz:15593.got - 2010.06.03 17:51:23.
