data_PCOD9499114
_publ_section_title
;
Structure prediction by ZEFSAII (Michael W. Deem and Ramdas Pophale) SiO2 
 PCOD9499114
Probable space group: C C C M
;
_chemical_formula_sum "Si O2"
_cell_formula_units_Z 52
_cell_length_a 25.755131
_cell_length_b 4.911929
_cell_length_c 18.806127
_cell_angle_alpha 90.000000
_cell_angle_beta 90.000000
_cell_angle_gamma 90.000000
_cell_volume 2379.113758
_symmetry_space_group_name_H-M "C C C M"
_symmetry_group_IT_number 66
_symmetry_cell_setting 'orthorhombic'
loop_
_space_group_symop_operation_xyz
x,y,z
-x,-y,z
x,-y,1/2-z
-x,y,1/2-z
-x,-y,-z
x,y,-z
-x,y,1/2+z
x,-y,1/2+z
1/2+x,1/2+y,z
1/2-x,1/2-y,z
1/2+x,1/2-y,1/2-z
1/2-x,1/2+y,1/2-z
1/2-x,1/2-y,-z
1/2+x,1/2+y,-z
1/2-x,1/2+y,1/2+z
1/2+x,1/2-y,1/2+z
loop_
_atom_site_type_symbol
_atom_site_label
_atom_site_fract_x
_atom_site_fract_y
_atom_site_fract_z
Si Si1 0.000000 0.500000 0.250000
Si Si2 0.949370 0.160718 0.126492
Si Si3 0.788485 0.500113 0.831594
Si Si4 0.612662 0.837703 0.918942
O O1 0.034297 0.698782 0.200782
O O2 0.929615 0.420281 0.082951
O O3 0.906281 0.923308 0.126440
O O4 0.000000 0.000000 0.098530
O O5 0.808408 0.500000 0.750000
O O6 0.750000 0.750000 0.839141
O O7 0.836147 0.533005 0.884547
O O8 0.750000 0.250000 0.843577
O O9 0.620796 0.747744 0.000000
#
# Coordination Sequence:
#
# PCOD9499114 Si02
#       4
#     4  16  16  16
#     4  12  26  48  68 104 134 196 240 300 358 400
#     4  12  26  45  70 100 142 182 237 290 347 416
#     4  10  23  44  69 100 135 179 233 295 348 407
#     4  12  27  44  70 105 142 191 231 282 361 426
#
# _framework density 21.856876
#
# number of rings (size 3 to 8) (size 9 to 14) (size 15 to 20)
#    0.000    0.615    3.077    3.231    2.154    4.923 
#    0.000    0.000    0.000    0.000    0.000    0.000 
#    0.000    0.000    0.000    0.000    0.000    0.000 
#
# Total GULP energy -145390.428987 kJ/mol
# GULP energy per Si atom -5591.939576 kJ/mol
# Density = 2.180713 g / cm^3
# Si number density = 21.856876 Si / 1000 Ang^3
#
#
#
# Elastic Constant Matrix: (Units=GPa)
#
#
# Indices 1 2 3 4 5 6 
#
# 1 83.7228 39.2530 70.4221 0.0000 0.0000 0.0000
# 2 39.2530 177.5641 51.3931 0.0000 0.0000 0.0000
# 3 70.4221 51.3931 124.1713 0.0000 0.0000 0.0000
# 4 0.0000 0.0000 0.0000 32.0046 0.0000 0.0000
# 5 0.0000 0.0000 0.0000 0.0000 81.5105 0.0000
# 6 0.0000 0.0000 0.0000 0.0000 0.0000 102.2612
#
#
#
# Elastic Compliance Matrix: (Units=1/GPa)
#
#
# Indices 1 2 3 4 5 6 
#
# 1 0.023186 -0.001499 -0.012529 0.000000 0.000000 0.000000
# 2 -0.001499 0.006495 -0.001838 0.000000 0.000000 0.000000
# 3 -0.012529 -0.001838 0.015920 0.000000 0.000000 0.000000
# 4 0.000000 0.000000 0.000000 0.031246 0.000000 0.000000
# 5 0.000000 0.000000 0.000000 0.000000 0.012268 0.000000
# 6 0.000000 0.000000 0.000000 0.000000 0.000000 0.009779
#
#
# Mechanical properties :
#
#
# Convention : Reuss Voigt Hill
#
# Bulk Modulus (GPa) = 72.10726 78.62163 75.36444
# Shear Modulus (GPa) = 36.96908 58.11459 47.54184
#
# Velocity S-wave (km/s) = 4.11715 5.16202 4.66890
# Velocity P-wave (km/s) = 7.46079 8.46036 7.97625
#
# Compressibility (1/GPa) = 0.01386823
#
# Stress axis : x y z
#
# Youngs Moduli (GPa) = 43.13031 153.96038 62.81518
#
# Poissons Ratio (x) = 0.23082 0.78700
# Poissons Ratio (y) = 0.06466 0.11546
# Poissons Ratio (z) = 0.54037 0.28298
#
# Static dielectric constant tensor:
#      x y z
#    x 1.781090 0.000000 0.000000 
#    y 0.000000 1.761840 0.000000 
#    z 0.000000 0.000000 1.765260 
# 
# From -- ./inp_files/51468.got.cif
#   From: 2010.05.17/outbox.cif.g08.bks.cpg/sg66_26_cif.got.tgz:51468.got - 2010.06.03 17:51:23.
