data_PCOD9499856
_publ_section_title
;
Structure prediction by ZEFSAII (Michael W. Deem and Ramdas Pophale) SiO2 
 PCOD9499856
Probable space group: C C C M
;
_chemical_formula_sum "Si O2"
_cell_formula_units_Z 88
_cell_length_a 27.548444
_cell_length_b 5.246995
_cell_length_c 25.122047
_cell_angle_alpha 90.000000
_cell_angle_beta 90.000000
_cell_angle_gamma 90.000000
_cell_volume 3631.305171
_symmetry_space_group_name_H-M "C C C M"
_symmetry_group_IT_number 66
_symmetry_cell_setting 'orthorhombic'
loop_
_space_group_symop_operation_xyz
x,y,z
-x,-y,z
x,-y,1/2-z
-x,y,1/2-z
-x,-y,-z
x,y,-z
-x,y,1/2+z
x,-y,1/2+z
1/2+x,1/2+y,z
1/2-x,1/2-y,z
1/2+x,1/2-y,1/2-z
1/2-x,1/2+y,1/2-z
1/2-x,1/2-y,-z
1/2+x,1/2+y,-z
1/2-x,1/2+y,1/2+z
1/2+x,1/2-y,1/2+z
loop_
_atom_site_type_symbol
_atom_site_label
_atom_site_fract_x
_atom_site_fract_y
_atom_site_fract_z
Si Si1 0.445167 0.959736 0.908952
Si Si2 0.835607 0.000000 0.250000
Si Si3 0.750000 0.250000 0.312153
Si Si4 0.116713 0.037340 0.061236
Si Si5 0.898951 0.373586 0.192249
Si Si6 0.679597 0.895859 0.887660
Si Si7 0.283542 0.994174 0.000000
O O1 0.414772 0.717231 0.930485
O O2 0.445556 0.893132 0.845311
O O3 0.500000 0.000000 0.927811
O O4 0.417965 0.220759 0.925200
O O5 0.796555 0.190472 0.276298
O O6 0.872258 0.110627 0.206347
O O7 0.728696 0.052549 0.354847
O O8 0.163553 0.103104 0.098063
O O9 0.131966 0.047443 0.000000
O O10 0.904991 0.500000 0.250000
O O11 0.860830 0.506659 0.152757
O O12 0.684941 0.011564 0.946123
O O13 0.250000 0.750000 0.000000
O O14 0.250000 0.250000 0.000000
#
# Coordination Sequence:
#
# PCOD9499856 Si02
#       7
#    16   8   8  16  16  16   8
#     4  11  26  45  74 108 141 181 239 304 374 446
#     4  12  24  42  68 103 142 194 251 300 370 428
#     4  12  22  37  68  96 140 185 244 300 340 420
#     4  11  24  46  72 104 147 195 238 295 364 447
#     4  11  25  46  71  97 138 186 237 302 367 442
#     4  11  24  45  66 104 144 192 248 299 366 431
#     4  12  28  44  68 102 145 196 251 304 364 436
#
# _framework density 24.233709000000001
#
# number of rings (size 3 to 8) (size 9 to 14) (size 15 to 20)
#    0.000    0.727    3.636    3.273    5.091    5.455 
#    0.000    0.000    0.000    0.000    0.000    0.000 
#    0.000    0.000    0.000    0.000    0.000    0.000 
#
# Total GULP energy -245532.517533 kJ/mol
# GULP energy per Si atom -5580.284489 kJ/mol
# Density = 2.417855 g / cm^3
# Si number density = 24.233709 Si / 1000 Ang^3
#
#
#
# Elastic Constant Matrix: (Units=GPa)
#
#
# Indices 1 2 3 4 5 6 
#
# 1 90.0658 28.5045 -3.0006 0.0000 0.0000 0.0000
# 2 28.5045 122.5010 23.6947 0.0000 0.0000 0.0000
# 3 -3.0006 23.6947 146.7604 0.0000 0.0000 0.0000
# 4 0.0000 0.0000 0.0000 35.8421 0.0000 0.0000
# 5 0.0000 0.0000 0.0000 0.0000 39.6431 0.0000
# 6 0.0000 0.0000 0.0000 0.0000 0.0000 28.7707
#
#
#
# Elastic Compliance Matrix: (Units=1/GPa)
#
#
# Indices 1 2 3 4 5 6 
#
# 1 0.012059 -0.002946 0.000722 0.000000 0.000000 0.000000
# 2 -0.002946 0.009146 -0.001537 0.000000 0.000000 0.000000
# 3 0.000722 -0.001537 0.007077 0.000000 0.000000 0.000000
# 4 0.000000 0.000000 0.000000 0.027900 0.000000 0.000000
# 5 0.000000 0.000000 0.000000 0.000000 0.025225 0.000000
# 6 0.000000 0.000000 0.000000 0.000000 0.000000 0.034758
#
#
# Mechanical properties :
#
#
# Convention : Reuss Voigt Hill
#
# Bulk Modulus (GPa) = 48.16704 50.85827 49.51265
# Shear Modulus (GPa) = 38.28308 41.52641 39.90474
#
# Velocity S-wave (km/s) = 3.97891 4.14403 4.06231
# Velocity P-wave (km/s) = 6.40532 6.62793 6.51758
#
# Compressibility (1/GPa) = 0.02076109
#
# Stress axis : x y z
#
# Youngs Moduli (GPa) = 82.92328 109.33864 141.30841
#
# Poissons Ratio (x) = 0.32208 -0.10205
# Poissons Ratio (y) = 0.24427 0.21717
# Poissons Ratio (z) = -0.05988 0.16804
#
# Static dielectric constant tensor:
#      x y z
#    x 2.028390 0.000000 0.000000 
#    y 0.000000 2.046460 0.000000 
#    z 0.000000 0.000000 1.978400 
# 
# From -- ./inp_files/60435.got.cif
#   From: 2010.05.17/outbox.cif.g08.bks.cpg/sg66_31_cif.got.tgz:60435.got - 2010.06.03 17:51:23.
