data_PCOD9499938
_publ_section_title
;
Structure prediction by ZEFSAII (Michael W. Deem and Ramdas Pophale) SiO2 
 PCOD9499938
Probable space group: C C C M
;
_chemical_formula_sum "Si O2"
_cell_formula_units_Z 56
_cell_length_a 25.915812
_cell_length_b 4.901548
_cell_length_c 18.546269
_cell_angle_alpha 90.000000
_cell_angle_beta 90.000000
_cell_angle_gamma 90.000000
_cell_volume 2355.887975
_symmetry_space_group_name_H-M "C C C M"
_symmetry_group_IT_number 66
_symmetry_cell_setting 'orthorhombic'
loop_
_space_group_symop_operation_xyz
x,y,z
-x,-y,z
x,-y,1/2-z
-x,y,1/2-z
-x,-y,-z
x,y,-z
-x,y,1/2+z
x,-y,1/2+z
1/2+x,1/2+y,z
1/2-x,1/2-y,z
1/2+x,1/2-y,1/2-z
1/2-x,1/2+y,1/2-z
1/2-x,1/2-y,-z
1/2+x,1/2+y,-z
1/2-x,1/2+y,1/2+z
1/2+x,1/2-y,1/2+z
loop_
_atom_site_type_symbol
_atom_site_label
_atom_site_fract_x
_atom_site_fract_y
_atom_site_fract_z
Si Si1 0.109814 0.500000 0.750000
Si Si2 0.675079 0.846757 0.500000
Si Si3 0.812885 0.000000 0.750000
Si Si4 0.250000 0.250000 0.626799
Si Si5 0.104091 0.846656 0.500000
Si Si6 0.465615 0.749075 0.368731
O O1 0.148806 0.251892 0.738274
O O2 0.072076 0.604857 0.687587
O O3 0.708838 0.883524 0.571969
O O4 0.653279 0.541408 0.500000
O O5 0.626226 0.042347 0.500000
O O6 0.776514 0.969630 0.679916
O O7 0.068998 0.885795 0.430407
O O8 0.500000 0.500000 0.338169
O O9 0.500000 0.000000 0.398051
#
# Coordination Sequence:
#
# PCOD9499938 Si02
#       6
#     8   8   8   8   8  16
#     4  12  26  44  68 101 142 185 234 288 350 420
#     4  11  26  45  72 105 142 185 239 298 357 422
#     4  12  25  44  69 101 142 189 235 288 353 424
#     4  11  26  46  72 105 144 190 240 297 360 428
#     4  12  24  46  72 103 140 183 236 296 356 422
#     4  12  25  44  71 103 140 185 237 293 356 425
#
# _framework density 23.770227999999999
#
# number of rings (size 3 to 8) (size 9 to 14) (size 15 to 20)
#    0.000    0.286    0.000    9.000    0.000    8.000 
#    0.000    0.000    0.000    0.000    0.000    0.000 
#    0.000    0.000    0.000    0.000    0.000    0.000 
#
# Total GULP energy -156852.568737 kJ/mol
# GULP energy per Si atom -5601.877455 kJ/mol
# Density = 2.371613 g / cm^3
# Si number density = 23.770228 Si / 1000 Ang^3
#
#
#
# Elastic Constant Matrix: (Units=GPa)
#
#
# Indices 1 2 3 4 5 6 
#
# 1 123.1701 38.6562 80.2353 0.0000 0.0000 0.0000
# 2 38.6562 117.8607 31.7378 0.0000 0.0000 0.0000
# 3 80.2353 31.7378 174.9158 0.0000 0.0000 0.0000
# 4 0.0000 0.0000 0.0000 15.6765 0.0000 0.0000
# 5 0.0000 0.0000 0.0000 0.0000 41.3993 0.0000
# 6 0.0000 0.0000 0.0000 0.0000 0.0000 69.1760
#
#
#
# Elastic Compliance Matrix: (Units=1/GPa)
#
#
# Indices 1 2 3 4 5 6 
#
# 1 0.012317 -0.002648 -0.005170 0.000000 0.000000 0.000000
# 2 -0.002648 0.009490 -0.000507 0.000000 0.000000 0.000000
# 3 -0.005170 -0.000507 0.008180 0.000000 0.000000 0.000000
# 4 0.000000 0.000000 0.000000 0.063790 0.000000 0.000000
# 5 0.000000 0.000000 0.000000 0.000000 0.024155 0.000000
# 6 0.000000 0.000000 0.000000 0.000000 0.000000 0.014456
#
#
# Mechanical properties :
#
#
# Convention : Reuss Voigt Hill
#
# Bulk Modulus (GPa) = 74.97375 79.68946 77.33160
# Shear Modulus (GPa) = 32.57673 42.93818 37.75745
#
# Velocity S-wave (km/s) = 3.70602 4.25477 3.98984
# Velocity P-wave (km/s) = 7.06557 7.59836 7.33680
#
# Compressibility (1/GPa) = 0.01333800
#
# Stress axis : x y z
#
# Youngs Moduli (GPa) = 81.18538 105.37817 122.24247
#
# Poissons Ratio (x) = 0.27902 0.63196
# Poissons Ratio (y) = 0.21496 0.06201
# Poissons Ratio (z) = 0.41970 0.05346
#
# Static dielectric constant tensor:
#      x y z
#    x 1.969210 0.000000 0.000000 
#    y 0.000000 1.875720 0.000000 
#    z 0.000000 0.000000 1.859640 
# 
# From -- ./inp_files/52179.got.cif
#   From: 2010.05.17/outbox.cif.g08.bks.cpg/sg66_27_cif.got.tgz:52179.got - 2010.06.03 17:51:23.
