data_PCOD9499047
_publ_section_title
;
Structure prediction by ZEFSAII (Michael W. Deem and Ramdas Pophale) SiO2 
 PCOD9499047
Probable space group: C C C M
;
_chemical_formula_sum "Si O2"
_cell_formula_units_Z 48
_cell_length_a 10.448605
_cell_length_b 15.480370
_cell_length_c 13.749057
_cell_angle_alpha 90.000000
_cell_angle_beta 90.000000
_cell_angle_gamma 90.000000
_cell_volume 2223.886203
_symmetry_space_group_name_H-M "C C C M"
_symmetry_group_IT_number 66
_symmetry_cell_setting 'orthorhombic'
loop_
_space_group_symop_operation_xyz
x,y,z
-x,-y,z
x,-y,1/2-z
-x,y,1/2-z
-x,-y,-z
x,y,-z
-x,y,1/2+z
x,-y,1/2+z
1/2+x,1/2+y,z
1/2-x,1/2-y,z
1/2+x,1/2-y,1/2-z
1/2-x,1/2+y,1/2-z
1/2-x,1/2-y,-z
1/2+x,1/2+y,-z
1/2-x,1/2+y,1/2+z
1/2+x,1/2-y,1/2+z
loop_
_atom_site_type_symbol
_atom_site_label
_atom_site_fract_x
_atom_site_fract_y
_atom_site_fract_z
Si Si1 0.965102 0.101181 0.000000
Si Si2 0.743755 0.149383 0.500000
Si Si3 0.395322 0.270237 0.336240
Si Si4 0.473939 0.902197 0.364765
O O1 0.898025 0.145954 0.093580
O O2 0.109469 0.131078 0.000000
O O3 0.000000 0.000000 0.000000
O O4 0.750000 0.250000 0.500000
O O5 0.666866 0.116659 0.405630
O O6 0.500000 0.283480 0.250000
O O7 0.250000 0.250000 0.302380
O O8 0.443058 0.182885 0.392165
O O9 0.500000 0.904524 0.250000
O O10 0.500000 0.000000 0.398205
#
# Coordination Sequence:
#
# PCOD9499047 Si02
#       4
#     8   8  16  16
#     4  12  29  46  70 104 146 193 236 292 358 418
#     4  12  23  44  72 100 141 184 236 284 351 415
#     4  11  26  47  74 104 144 186 236 294 356 420
#     4  10  23  41  70 104 137 180 230 287 346 420
#
# _framework density 21.583836999999999
#
# number of rings (size 3 to 8) (size 9 to 14) (size 15 to 20)
#    0.000    1.000    3.333    1.000   14.000    0.667 
#    0.000    0.000    0.000    0.000    0.000    0.000 
#    0.000    0.000    0.000    0.000    0.000    0.000 
#
# Total GULP energy -133626.770281 kJ/mol
# GULP energy per Si atom -5567.782095 kJ/mol
# Density = 2.153471 g / cm^3
# Si number density = 21.583837 Si / 1000 Ang^3
#
#
#
# Elastic Constant Matrix: (Units=GPa)
#
#
# Indices 1 2 3 4 5 6 
#
# 1 124.5086 -10.8162 31.3893 0.0000 0.0000 0.0000
# 2 -10.8162 166.7647 18.0411 0.0000 0.0000 0.0000
# 3 31.3893 18.0411 153.6242 0.0000 0.0000 0.0000
# 4 0.0000 0.0000 0.0000 -23.5681 0.0000 0.0000
# 5 0.0000 0.0000 0.0000 0.0000 81.8949 0.0000
# 6 0.0000 0.0000 0.0000 0.0000 0.0000 36.5092
#
#
#
# Elastic Compliance Matrix: (Units=1/GPa)
#
#
# Indices 1 2 3 4 5 6 
#
# 1 0.008560 0.000754 -0.001838 0.000000 0.000000 0.000000
# 2 0.000754 0.006140 -0.000875 0.000000 0.000000 0.000000
# 3 -0.001838 -0.000875 0.006988 0.000000 0.000000 0.000000
# 4 0.000000 0.000000 0.000000 -0.042430 0.000000 0.000000
# 5 0.000000 0.000000 0.000000 0.000000 0.012211 0.000000
# 6 0.000000 0.000000 0.000000 0.000000 0.000000 0.027390
#
#
# Mechanical properties :
#
#
# Convention : Reuss Voigt Hill
#
# Bulk Modulus (GPa) = 56.27292 58.01397 57.14345
# Shear Modulus (GPa) = 174.21606 46.05274 110.13440
#
# Velocity S-wave (km/s) = 8.99395 4.62418 7.15102
# Velocity P-wave (km/s) = 11.57512 7.44630 9.73218
#
# Compressibility (1/GPa) = 0.01777054
#
# Stress axis : x y z
#
# Youngs Moduli (GPa) = 116.81759 162.86509 143.10979
#
# Poissons Ratio (x) = -0.12280 0.26298
# Poissons Ratio (y) = -0.08808 0.12524
# Poissons Ratio (z) = 0.21467 0.14253
#
# Static dielectric constant tensor:
#      x y z
#    x 1.745460 0.000000 0.000000 
#    y 0.000000 1.816040 0.000000 
#    z 0.000000 0.000000 1.842200 
# 
# From -- ./inp_files/25284.got.cif
#   From: 2010.05.17/outbox.cif.g08.bks.cpg/sg66_13_cif.got.tgz:25284.got - 2010.06.03 17:51:23.
