data_PCOD9499614
_publ_section_title
;
Structure prediction by ZEFSAII (Michael W. Deem and Ramdas Pophale) SiO2 
 PCOD9499614
Probable space group: C C C M
;
_chemical_formula_sum "Si O2"
_cell_formula_units_Z 96
_cell_length_a 24.119668
_cell_length_b 11.300091
_cell_length_c 17.312723
_cell_angle_alpha 90.000000
_cell_angle_beta 90.000000
_cell_angle_gamma 90.000000
_cell_volume 4718.659579
_symmetry_space_group_name_H-M "C C C M"
_symmetry_group_IT_number 66
_symmetry_cell_setting 'orthorhombic'
loop_
_space_group_symop_operation_xyz
x,y,z
-x,-y,z
x,-y,1/2-z
-x,y,1/2-z
-x,-y,-z
x,y,-z
-x,y,1/2+z
x,-y,1/2+z
1/2+x,1/2+y,z
1/2-x,1/2-y,z
1/2+x,1/2-y,1/2-z
1/2-x,1/2+y,1/2-z
1/2-x,1/2-y,-z
1/2+x,1/2+y,-z
1/2-x,1/2+y,1/2+z
1/2+x,1/2-y,1/2+z
loop_
_atom_site_type_symbol
_atom_site_label
_atom_site_fract_x
_atom_site_fract_y
_atom_site_fract_z
Si Si1 0.065580 0.985604 0.418292
Si Si2 0.732612 0.389554 0.410536
Si Si3 0.125681 0.207689 0.154478
Si Si4 0.554296 0.676910 0.700090
Si Si5 0.047745 0.401037 0.407892
Si Si6 0.156941 0.524297 0.657363
O O1 0.090198 0.023887 0.500000
O O2 0.079825 0.069121 0.347628
O O3 0.080641 0.850872 0.401544
O O4 0.000000 0.000000 0.422423
O O5 0.721183 0.420836 0.500000
O O6 0.750000 0.250000 0.411454
O O7 0.677698 0.379680 0.358456
O O8 0.780256 0.474497 0.376000
O O9 0.100810 0.213172 0.239316
O O10 0.139422 0.341817 0.136074
O O11 0.500000 0.643187 0.750000
O O12 0.538103 0.783427 0.642745
O O13 0.046364 0.378583 0.500000
O O14 0.109073 0.445836 0.382311
O O15 0.000000 0.500000 0.390672
O O16 0.157125 0.500000 0.750000
#
# Coordination Sequence:
#
# PCOD9499614 Si02
#       6
#    16  16  16  16  16  16
#     4  11  24  39  59  87 123 165 212 263 320 379
#     4   9  20  39  63  91 123 160 211 265 317 375
#     4  11  22  39  65  91 126 166 215 266 321 386
#     4  12  23  40  61  91 128 167 215 270 324 388
#     4  11  25  41  63  94 133 179 217 261 331 401
#     4  11  22  40  65  99 129 168 211 271 324 388
#
# _framework density 20.344760000000001
#
# number of rings (size 3 to 8) (size 9 to 14) (size 15 to 20)
#    0.000    1.167    3.333    3.000    0.000    3.333 
#    0.000    0.000    0.000    0.000    0.000    4.667 
#    0.000    0.000    0.000    0.000    0.000    0.000 
#
# Total GULP energy -267770.518299 kJ/mol
# GULP energy per Si atom -5578.552465 kJ/mol
# Density = 2.029845 g / cm^3
# Si number density = 20.344760 Si / 1000 Ang^3
#
#
#
# Elastic Constant Matrix: (Units=GPa)
#
#
# Indices 1 2 3 4 5 6 
#
# 1 94.3675 25.4056 32.9117 0.0000 0.0000 0.0000
# 2 25.4056 66.7119 28.9054 0.0000 0.0000 0.0000
# 3 32.9117 28.9054 110.1775 0.0000 0.0000 0.0000
# 4 0.0000 0.0000 0.0000 58.6713 0.0000 0.0000
# 5 0.0000 0.0000 0.0000 0.0000 49.4313 0.0000
# 6 0.0000 0.0000 0.0000 0.0000 0.0000 36.7756
#
#
#
# Elastic Compliance Matrix: (Units=1/GPa)
#
#
# Indices 1 2 3 4 5 6 
#
# 1 0.012535 -0.003555 -0.002812 0.000000 0.000000 0.000000
# 2 -0.003555 0.017921 -0.003640 0.000000 0.000000 0.000000
# 3 -0.002812 -0.003640 0.010871 0.000000 0.000000 0.000000
# 4 0.000000 0.000000 0.000000 0.017044 0.000000 0.000000
# 5 0.000000 0.000000 0.000000 0.000000 0.020230 0.000000
# 6 0.000000 0.000000 0.000000 0.000000 0.000000 0.027192
#
#
# Mechanical properties :
#
#
# Convention : Reuss Voigt Hill
#
# Bulk Modulus (GPa) = 46.91850 49.52248 48.22049
# Shear Modulus (GPa) = 37.61954 41.24459 39.43207
#
# Velocity S-wave (km/s) = 4.30478 4.50742 4.40727
# Velocity P-wave (km/s) = 6.91520 7.17521 7.04640
#
# Compressibility (1/GPa) = 0.02131355
#
# Stress axis : x y z
#
# Youngs Moduli (GPa) = 79.77932 55.80125 91.98824
#
# Poissons Ratio (x) = 0.19839 0.25863
# Poissons Ratio (y) = 0.28364 0.33479
# Poissons Ratio (z) = 0.22430 0.20309
#
# Static dielectric constant tensor:
#      x y z
#    x 1.798900 0.000000 0.000000 
#    y 0.000000 1.741660 0.000000 
#    z 0.000000 0.000000 1.742710 
# 
# From -- ./inp_files/43569.got.cif
#   From: 2010.05.17/outbox.cif.g08.bks.cpg/sg66_22_cif.got.tgz:43569.got - 2010.06.03 17:51:23.
