data_PCOD9499394
_publ_section_title
;
Structure prediction by ZEFSAII (Michael W. Deem and Ramdas Pophale) SiO2 
 PCOD9499394
Probable space group: C C C M
;
_chemical_formula_sum "Si O2"
_cell_formula_units_Z 56
_cell_length_a 22.475398
_cell_length_b 7.468604
_cell_length_c 17.857782
_cell_angle_alpha 90.000000
_cell_angle_beta 90.000000
_cell_angle_gamma 90.000000
_cell_volume 2997.604562
_symmetry_space_group_name_H-M "C C C M"
_symmetry_group_IT_number 66
_symmetry_cell_setting 'orthorhombic'
loop_
_space_group_symop_operation_xyz
x,y,z
-x,-y,z
x,-y,1/2-z
-x,y,1/2-z
-x,-y,-z
x,y,-z
-x,y,1/2+z
x,-y,1/2+z
1/2+x,1/2+y,z
1/2-x,1/2-y,z
1/2+x,1/2-y,1/2-z
1/2-x,1/2+y,1/2-z
1/2-x,1/2-y,-z
1/2+x,1/2+y,-z
1/2-x,1/2+y,1/2+z
1/2+x,1/2-y,1/2+z
loop_
_atom_site_type_symbol
_atom_site_label
_atom_site_fract_x
_atom_site_fract_y
_atom_site_fract_z
Si Si1 0.914296 0.419779 0.588436
Si Si2 0.183851 0.325254 0.196552
Si Si3 0.398225 0.500000 0.250000
Si Si4 0.478260 0.248450 0.665985
O O1 0.916260 0.444466 0.500000
O O2 0.849496 0.372048 0.619414
O O3 0.934696 0.599057 0.631819
O O4 0.963832 0.273337 0.613517
O O5 0.184173 0.500000 0.250000
O O6 0.250000 0.250000 0.187406
O O7 0.142837 0.168197 0.230699
O O8 0.440701 0.427903 0.316987
O O9 0.500000 0.199928 0.750000
#
# Coordination Sequence:
#
# PCOD9499394 Si02
#       4
#    16  16   8  16
#     4  11  23  40  63  97 141 174 202 258 340 395
#     4  12  24  43  69  95 124 169 225 276 313 373
#     4  12  23  38  70  98 124 159 226 282 312 361
#     4  11  20  37  66  96 125 166 217 268 314 372
#
# _framework density 18.681581999999999
#
# number of rings (size 3 to 8) (size 9 to 14) (size 15 to 20)
#    0.000    0.571    7.143    3.857    0.000    0.571 
#    0.000    4.286    0.000    2.571    0.000    0.000 
#    0.000    0.000    0.000    0.000    0.000    0.000 
#
# Total GULP energy -156210.344463 kJ/mol
# GULP energy per Si atom -5578.940874 kJ/mol
# Density = 1.863906 g / cm^3
# Si number density = 18.681582 Si / 1000 Ang^3
#
#
#
# Elastic Constant Matrix: (Units=GPa)
#
#
# Indices 1 2 3 4 5 6 
#
# 1 160.8893 63.8944 54.0291 0.0000 0.0000 0.0000
# 2 63.8944 141.3287 50.9316 0.0000 0.0000 0.0000
# 3 54.0291 50.9316 137.0743 0.0000 0.0000 0.0000
# 4 0.0000 0.0000 0.0000 5.6760 0.0000 0.0000
# 5 0.0000 0.0000 0.0000 0.0000 13.2778 0.0000
# 6 0.0000 0.0000 0.0000 0.0000 0.0000 45.9506
#
#
#
# Elastic Compliance Matrix: (Units=1/GPa)
#
#
# Indices 1 2 3 4 5 6 
#
# 1 0.008071 -0.002889 -0.002108 0.000000 0.000000 0.000000
# 2 -0.002889 0.009204 -0.002281 0.000000 0.000000 0.000000
# 3 -0.002108 -0.002281 0.008974 0.000000 0.000000 0.000000
# 4 0.000000 0.000000 0.000000 0.176182 0.000000 0.000000
# 5 0.000000 0.000000 0.000000 0.000000 0.075314 0.000000
# 6 0.000000 0.000000 0.000000 0.000000 0.000000 0.021762
#
#
# Mechanical properties :
#
#
# Convention : Reuss Voigt Hill
#
# Bulk Modulus (GPa) = 85.52486 86.33362 85.92924
# Shear Modulus (GPa) = 15.72528 31.01001 23.36764
#
# Velocity S-wave (km/s) = 2.90445 4.07864 3.54056
# Velocity P-wave (km/s) = 7.55827 8.27611 7.92532
#
# Compressibility (1/GPa) = 0.01169251
#
# Stress axis : x y z
#
# Youngs Moduli (GPa) = 123.90646 108.64928 111.43814
#
# Poissons Ratio (x) = 0.31391 0.23487
# Poissons Ratio (y) = 0.35799 0.25419
# Poissons Ratio (z) = 0.26114 0.24783
#
# Static dielectric constant tensor:
#      x y z
#    x 1.672680 0.000000 0.000000 
#    y 0.000000 1.724590 0.000000 
#    z 0.000000 0.000000 1.605390 
# 
# From -- ./inp_files/31814.got.cif
#   From: 2010.05.17/outbox.cif.g08.bks.cpg/sg66_16_cif.got.tgz:31814.got - 2010.06.03 17:51:23.
