data_PCOD9499431
_publ_section_title
;
Structure prediction by ZEFSAII (Michael W. Deem and Ramdas Pophale) SiO2 
 PCOD9499431
Probable space group: C C C M
;
_chemical_formula_sum "Si O2"
_cell_formula_units_Z 64
_cell_length_a 18.558818
_cell_length_b 7.145260
_cell_length_c 23.780444
_cell_angle_alpha 90.000000
_cell_angle_beta 90.000000
_cell_angle_gamma 90.000000
_cell_volume 3153.467128
_symmetry_space_group_name_H-M "C C C M"
_symmetry_group_IT_number 66
_symmetry_cell_setting 'orthorhombic'
loop_
_space_group_symop_operation_xyz
x,y,z
-x,-y,z
x,-y,1/2-z
-x,y,1/2-z
-x,-y,-z
x,y,-z
-x,y,1/2+z
x,-y,1/2+z
1/2+x,1/2+y,z
1/2-x,1/2-y,z
1/2+x,1/2-y,1/2-z
1/2-x,1/2+y,1/2-z
1/2-x,1/2-y,-z
1/2+x,1/2+y,-z
1/2-x,1/2+y,1/2+z
1/2+x,1/2-y,1/2+z
loop_
_atom_site_type_symbol
_atom_site_label
_atom_site_fract_x
_atom_site_fract_y
_atom_site_fract_z
Si Si1 0.081805 0.225213 0.741049
Si Si2 0.417372 0.045842 0.435222
Si Si3 0.665118 0.778750 0.148118
Si Si4 0.579947 0.591839 0.377620
O O1 0.131955 0.310820 0.789207
O O2 0.096166 0.231013 0.674966
O O3 0.000000 0.287614 0.750000
O O4 0.084253 0.000000 0.750000
O O5 0.408459 0.987305 0.500000
O O6 0.411537 0.270040 0.429625
O O7 0.500000 0.000000 0.417625
O O8 0.362533 0.934764 0.395288
O O9 0.750000 0.750000 0.152074
O O10 0.632254 0.583334 0.125872
O O11 0.500000 0.500000 0.372806
#
# Coordination Sequence:
#
# PCOD9499431 Si02
#       4
#    16  16  16  16
#     4   9  15  35  65  87 122 164 209 252 320 397
#     4  11  24  42  68  99 125 172 238 270 312 395
#     4  11  24  42  64 100 137 169 210 275 336 383
#     4  11  20  41  69  93 131 173 214 271 325 387
#
# _framework density 20.295121000000002
#
# number of rings (size 3 to 8) (size 9 to 14) (size 15 to 20)
#    0.000    1.500    7.500    0.000    0.000    4.000 
#   13.500    3.750    0.000    0.000    0.000    0.000 
#    0.000    0.000    0.000    0.000    0.000    0.000 
#
# Total GULP energy -178578.116430 kJ/mol
# GULP energy per Si atom -5580.566138 kJ/mol
# Density = 2.024893 g / cm^3
# Si number density = 20.295121 Si / 1000 Ang^3
#
#
#
# Elastic Constant Matrix: (Units=GPa)
#
#
# Indices 1 2 3 4 5 6 
#
# 1 167.2048 39.6080 52.4326 0.0000 0.0000 0.0000
# 2 39.6080 92.5865 30.5063 0.0000 0.0000 0.0000
# 3 52.4326 30.5063 92.2944 0.0000 0.0000 0.0000
# 4 0.0000 0.0000 0.0000 35.2782 0.0000 0.0000
# 5 0.0000 0.0000 0.0000 0.0000 -82.6766 0.0000
# 6 0.0000 0.0000 0.0000 0.0000 0.0000 18.0687
#
#
#
# Elastic Compliance Matrix: (Units=1/GPa)
#
#
# Indices 1 2 3 4 5 6 
#
# 1 0.007610 -0.002055 -0.003644 0.000000 0.000000 0.000000
# 2 -0.002055 0.012676 -0.003022 0.000000 0.000000 0.000000
# 3 -0.003644 -0.003022 0.013904 0.000000 0.000000 0.000000
# 4 0.000000 0.000000 0.000000 0.028346 0.000000 0.000000
# 5 0.000000 0.000000 0.000000 0.000000 -0.012095 0.000000
# 6 0.000000 0.000000 0.000000 0.000000 0.000000 0.055344
#
#
# Mechanical properties :
#
#
# Convention : Reuss Voigt Hill
#
# Bulk Modulus (GPa) = 59.71150 66.35328 63.03239
# Shear Modulus (GPa) = 38.81681 9.43666 24.12673
#
# Velocity S-wave (km/s) = 4.37809 2.15866 3.45163
# Velocity P-wave (km/s) = 7.41906 6.24326 6.85641
#
# Compressibility (1/GPa) = 0.01674719
#
# Stress axis : x y z
#
# Youngs Moduli (GPa) = 131.40260 78.89175 71.92116
#
# Poissons Ratio (x) = 0.16211 0.26209
# Poissons Ratio (y) = 0.27002 0.21737
# Poissons Ratio (z) = 0.47885 0.23844
#
# Static dielectric constant tensor:
#      x y z
#    x 1.621280 0.000000 0.000000 
#    y 0.000000 1.748190 0.000000 
#    z 0.000000 0.000000 1.770240 
# 
# From -- ./inp_files/55149.got.cif
#   From: 2010.05.17/outbox.cif.g08.bks.cpg/sg66_28_cif.got.tgz:55149.got - 2010.06.03 17:51:23.
