data_PCOD9499399
_publ_section_title
;
Structure prediction by ZEFSAII (Michael W. Deem and Ramdas Pophale) SiO2 
 PCOD9499399
Probable space group: C C C M
;
_chemical_formula_sum "Si O2"
_cell_formula_units_Z 104
_cell_length_a 17.396624
_cell_length_b 20.159462
_cell_length_c 14.935301
_cell_angle_alpha 90.000000
_cell_angle_beta 90.000000
_cell_angle_gamma 90.000000
_cell_volume 5237.908342
_symmetry_space_group_name_H-M "C C C M"
_symmetry_group_IT_number 66
_symmetry_cell_setting 'orthorhombic'
loop_
_space_group_symop_operation_xyz
x,y,z
-x,-y,z
x,-y,1/2-z
-x,y,1/2-z
-x,-y,-z
x,y,-z
-x,y,1/2+z
x,-y,1/2+z
1/2+x,1/2+y,z
1/2-x,1/2-y,z
1/2+x,1/2-y,1/2-z
1/2-x,1/2+y,1/2-z
1/2-x,1/2-y,-z
1/2+x,1/2+y,-z
1/2-x,1/2+y,1/2+z
1/2+x,1/2-y,1/2+z
loop_
_atom_site_type_symbol
_atom_site_label
_atom_site_fract_x
_atom_site_fract_y
_atom_site_fract_z
Si Si1 0.486245 0.742645 0.647141
Si Si2 0.823898 0.440079 0.500000
Si Si3 0.539781 0.150405 0.500000
Si Si4 0.304832 0.147898 0.659259
Si Si5 0.894117 0.424039 0.000000
Si Si6 0.750826 0.934392 0.808820
Si Si7 0.648761 0.291949 0.105627
Si Si8 0.184812 0.193425 0.107376
O O1 0.500000 0.758471 0.750000
O O2 0.486089 0.806841 0.584968
O O3 0.558195 0.695351 0.619712
O O4 0.401266 0.716051 0.628207
O O5 0.870968 0.370650 0.500000
O O6 0.883246 0.498852 0.500000
O O7 0.778255 0.451345 0.591970
O O8 0.483212 0.089778 0.500000
O O9 0.351279 0.109694 0.583693
O O10 0.311764 0.105390 0.749294
O O11 0.334058 0.223657 0.659069
O O12 0.213589 0.155308 0.634681
O O13 0.806844 0.873341 0.834164
O O14 0.772657 0.000000 0.750000
O O15 0.661047 0.278582 0.000000
O O16 0.250000 0.250000 0.128987
O O17 0.192464 0.180432 0.000000
#
# Coordination Sequence:
#
# PCOD9499399 Si02
#       8
#    16   8   8  16   8  16  16  16
#     4  12  24  40  64 102 140 176 215 282 351 413
#     4  12  27  45  61  90 133 186 237 275 333 413
#     4  12  25  40  64  95 142 178 225 278 347 408
#     4  11  21  37  65  99 127 171 223 274 340 408
#     4  12  21  42  64  92 134 178 223 278 329 411
#     4  12  26  43  69  96 132 184 234 283 342 419
#     4  11  20  38  65  99 135 164 213 286 349 404
#     4  11  24  44  70 102 141 183 234 293 356 421
#
# _framework density 19.855253999999999
#
# number of rings (size 3 to 8) (size 9 to 14) (size 15 to 20)
#    0.000    0.462    6.923    2.538    6.462    0.000 
#    0.000    0.000    0.000    4.154    0.000    6.462 
#    0.000    0.000    0.000    0.000    0.000    0.000 
#
# Total GULP energy -290034.661156 kJ/mol
# GULP energy per Si atom -5577.589638 kJ/mol
# Density = 1.981006 g / cm^3
# Si number density = 19.855254 Si / 1000 Ang^3
#
#
#
# Elastic Constant Matrix: (Units=GPa)
#
#
# Indices 1 2 3 4 5 6 
#
# 1 132.8989 33.1674 21.4265 0.0000 0.0000 0.0000
# 2 33.1674 72.9573 28.2720 0.0000 0.0000 0.0000
# 3 21.4265 28.2720 125.7601 0.0000 0.0000 0.0000
# 4 0.0000 0.0000 0.0000 17.5514 0.0000 0.0000
# 5 0.0000 0.0000 0.0000 0.0000 43.3593 0.0000
# 6 0.0000 0.0000 0.0000 0.0000 0.0000 31.1016
#
#
#
# Elastic Compliance Matrix: (Units=1/GPa)
#
#
# Indices 1 2 3 4 5 6 
#
# 1 0.008534 -0.003633 -0.000637 0.000000 0.000000 0.000000
# 2 -0.003633 0.016561 -0.003104 0.000000 0.000000 0.000000
# 3 -0.000637 -0.003104 0.008758 0.000000 0.000000 0.000000
# 4 0.000000 0.000000 0.000000 0.056976 0.000000 0.000000
# 5 0.000000 0.000000 0.000000 0.000000 0.023063 0.000000
# 6 0.000000 0.000000 0.000000 0.000000 0.000000 0.032153
#
#
# Mechanical properties :
#
#
# Convention : Reuss Voigt Hill
#
# Bulk Modulus (GPa) = 52.34309 55.26090 53.80199
# Shear Modulus (GPa) = 29.91132 34.98580 32.44856
#
# Velocity S-wave (km/s) = 3.88554 4.20222 4.04698
# Velocity P-wave (km/s) = 6.82271 7.17197 6.99952
#
# Compressibility (1/GPa) = 0.01910472
#
# Stress axis : x y z
#
# Youngs Moduli (GPa) = 117.18023 60.38285 114.18041
#
# Poissons Ratio (x) = 0.21935 0.07277
# Poissons Ratio (y) = 0.42567 0.35443
# Poissons Ratio (z) = 0.07468 0.18744
#
# Static dielectric constant tensor:
#      x y z
#    x 1.742830 0.000000 0.000000 
#    y 0.000000 1.711930 0.000000 
#    z 0.000000 0.000000 1.750980 
# 
# From -- ./inp_files/30223.got.cif
#   From: 2010.05.17/outbox.cif.g08.bks.cpg/sg66_16_cif.got.tgz:30223.got - 2010.06.03 17:51:23.
