data_PCOD9499174
_publ_section_title
;
Structure prediction by ZEFSAII (Michael W. Deem and Ramdas Pophale) SiO2 
 PCOD9499174
Probable space group: C C C M
;
_chemical_formula_sum "Si O2"
_cell_formula_units_Z 60
_cell_length_a 6.086004
_cell_length_b 19.360587
_cell_length_c 22.696718
_cell_angle_alpha 90.000000
_cell_angle_beta 90.000000
_cell_angle_gamma 90.000000
_cell_volume 2674.322732
_symmetry_space_group_name_H-M "C C C M"
_symmetry_group_IT_number 66
_symmetry_cell_setting 'orthorhombic'
loop_
_space_group_symop_operation_xyz
x,y,z
-x,-y,z
x,-y,1/2-z
-x,y,1/2-z
-x,-y,-z
x,y,-z
-x,y,1/2+z
x,-y,1/2+z
1/2+x,1/2+y,z
1/2-x,1/2-y,z
1/2+x,1/2-y,1/2-z
1/2-x,1/2+y,1/2-z
1/2-x,1/2-y,-z
1/2+x,1/2+y,-z
1/2-x,1/2+y,1/2+z
1/2+x,1/2-y,1/2+z
loop_
_atom_site_type_symbol
_atom_site_label
_atom_site_fract_x
_atom_site_fract_y
_atom_site_fract_z
Si Si1 0.659969 0.174222 0.123846
Si Si2 0.500000 0.500000 0.250000
Si Si3 0.997084 0.281473 0.500000
Si Si4 0.360247 0.930214 0.329625
Si Si5 0.543358 0.418428 0.432980
O O1 0.750000 0.250000 0.141113
O O2 0.524456 0.134782 0.174994
O O3 0.857224 0.124266 0.101689
O O4 0.515921 0.184923 0.064595
O O5 0.657699 0.449136 0.287285
O O6 0.250000 0.250000 0.500000
O O7 0.750000 0.250000 0.500000
O O8 0.257133 0.918176 0.393391
O O9 0.500000 0.000000 0.328590
O O10 0.500000 0.500000 0.436894
O O11 0.560453 0.391835 0.500000
#
# Coordination Sequence:
#
# PCOD9499174 Si02
#       5
#    16   4   8  16  16
#     4  11  25  41  69 115 157 201 242 295 383 468
#     4  12  26  52  74 106 128 188 282 332 400 446
#     4  10  24  42  64 107 171 222 241 287 379 487
#     4  12  25  45  75 109 138 199 248 324 380 466
#     4  11  23  41  66 114 159 191 239 294 374 468
#
# _framework density 22.435589
#
# number of rings (size 3 to 8) (size 9 to 14) (size 15 to 20)
#    0.000    0.800    5.333    0.400    9.333    0.533 
#    0.000    0.000    0.000    0.000   97.067    0.000 
#    0.000    0.000    0.000    0.000    0.000    0.000 
#
# Total GULP energy -167222.005504 kJ/mol
# GULP energy per Si atom -5574.066850 kJ/mol
# Density = 2.238452 g / cm^3
# Si number density = 22.435589 Si / 1000 Ang^3
#
#
#
# Elastic Constant Matrix: (Units=GPa)
#
#
# Indices 1 2 3 4 5 6 
#
# 1 143.6579 92.6257 67.1858 0.0000 0.0000 0.0000
# 2 92.6257 178.9504 51.5592 0.0000 0.0000 0.0000
# 3 67.1858 51.5592 80.7677 0.0000 0.0000 0.0000
# 4 0.0000 0.0000 0.0000 6.8206 0.0000 0.0000
# 5 0.0000 0.0000 0.0000 0.0000 65.4818 0.0000
# 6 0.0000 0.0000 0.0000 0.0000 0.0000 27.6878
#
#
#
# Elastic Compliance Matrix: (Units=1/GPa)
#
#
# Indices 1 2 3 4 5 6 
#
# 1 0.014118 -0.004808 -0.008675 0.000000 0.000000 0.000000
# 2 -0.004808 0.008485 -0.001417 0.000000 0.000000 0.000000
# 3 -0.008675 -0.001417 0.020502 0.000000 0.000000 0.000000
# 4 0.000000 0.000000 0.000000 0.146615 0.000000 0.000000
# 5 0.000000 0.000000 0.000000 0.000000 0.015271 0.000000
# 6 0.000000 0.000000 0.000000 0.000000 0.000000 0.036117
#
#
# Mechanical properties :
#
#
# Convention : Reuss Voigt Hill
#
# Bulk Modulus (GPa) = 75.15799 91.79082 83.47440
# Shear Modulus (GPa) = 18.15917 32.79839 25.47878
#
# Velocity S-wave (km/s) = 2.84807 3.82762 3.37358
# Velocity P-wave (km/s) = 6.66239 7.78049 7.24305
#
# Compressibility (1/GPa) = 0.01330531
#
# Stress axis : x y z
#
# Youngs Moduli (GPa) = 70.83096 117.85254 48.77678
#
# Poissons Ratio (x) = 0.56667 0.42312
# Poissons Ratio (y) = 0.34058 0.06911
# Poissons Ratio (z) = 0.61443 0.16699
#
# Static dielectric constant tensor:
#      x y z
#    x 1.820870 0.000000 0.000000 
#    y 0.000000 1.762750 0.000000 
#    z 0.000000 0.000000 1.832320 
# 
# From -- ./inp_files/54000.got.cif
#   From: 2010.05.17/outbox.cif.g08.bks.cpg/sg66_27_cif.got.tgz:54000.got - 2010.06.03 17:51:23.
