data_PCOD9499188
_publ_section_title
;
Structure prediction by ZEFSAII (Michael W. Deem and Ramdas Pophale) SiO2 
 PCOD9499188
Probable space group: C C C M
;
_chemical_formula_sum "Si O2"
_cell_formula_units_Z 84
_cell_length_a 21.336104
_cell_length_b 11.959630
_cell_length_c 17.092187
_cell_angle_alpha 90.000000
_cell_angle_beta 90.000000
_cell_angle_gamma 90.000000
_cell_volume 4361.445994
_symmetry_space_group_name_H-M "C C C M"
_symmetry_group_IT_number 66
_symmetry_cell_setting 'orthorhombic'
loop_
_space_group_symop_operation_xyz
x,y,z
-x,-y,z
x,-y,1/2-z
-x,y,1/2-z
-x,-y,-z
x,y,-z
-x,y,1/2+z
x,-y,1/2+z
1/2+x,1/2+y,z
1/2-x,1/2-y,z
1/2+x,1/2-y,1/2-z
1/2-x,1/2+y,1/2-z
1/2-x,1/2-y,-z
1/2+x,1/2+y,-z
1/2-x,1/2+y,1/2+z
1/2+x,1/2-y,1/2+z
loop_
_atom_site_type_symbol
_atom_site_label
_atom_site_fract_x
_atom_site_fract_y
_atom_site_fract_z
Si Si1 0.500000 0.000000 0.250000
Si Si2 0.068189 0.944359 0.000000
Si Si3 0.893291 0.518688 0.500000
Si Si4 0.670044 0.540280 0.369308
Si Si5 0.917703 0.348482 0.635578
Si Si6 0.507547 0.212888 0.000000
Si Si7 0.182168 0.809680 0.723119
Si Si8 0.761928 0.379877 0.000000
O O1 0.542194 0.080222 0.303261
O O2 0.109205 0.973821 0.923990
O O3 0.056898 0.811894 0.000000
O O4 0.000000 0.000000 0.000000
O O5 0.888960 0.438876 0.575453
O O6 0.955753 0.594673 0.500000
O O7 0.834822 0.599139 0.500000
O O8 0.684442 0.423895 0.326753
O O9 0.662121 0.642695 0.308252
O O10 0.728128 0.568152 0.424970
O O11 0.867566 0.272711 0.681296
O O12 0.964094 0.280415 0.577327
O O13 0.250000 0.750000 0.727596
O O14 0.750000 0.250000 0.000000
#
# Coordination Sequence:
#
# PCOD9499188 Si02
#       8
#     4   8   8  16  16   8  16   8
#     4  12  24  38  64  98 132 166 216 270 324 400
#     4  11  23  42  66  88 124 172 210 266 322 390
#     4  11  21  42  64  94 128 172 215 269 318 391
#     4  10  24  43  60  98 127 159 224 263 318 398
#     4  11  24  41  63  94 129 168 217 261 329 392
#     4  11  22  42  62  90 130 168 213 267 319 388
#     4  11  24  43  66  91 131 169 208 273 327 382
#     4  11  22  38  68  92 124 171 217 263 326 387
#
# _framework density 19.259668000000001
#
# number of rings (size 3 to 8) (size 9 to 14) (size 15 to 20)
#    0.000    1.143    1.905    4.571    2.667    6.857 
#    0.000    5.714    0.000    0.000    0.000    0.000 
#    0.000    0.000    0.000    0.000    0.000    0.000 
#
# Total GULP energy -234650.697446 kJ/mol
# GULP energy per Si atom -5586.921368 kJ/mol
# Density = 1.921583 g / cm^3
# Si number density = 19.259668 Si / 1000 Ang^3
#
#
#
# Elastic Constant Matrix: (Units=GPa)
#
#
# Indices 1 2 3 4 5 6 
#
# 1 120.2469 47.0959 61.2948 0.0000 0.0000 0.0000
# 2 47.0959 101.9333 49.2221 0.0000 0.0000 0.0000
# 3 61.2948 49.2221 143.0597 0.0000 0.0000 0.0000
# 4 0.0000 0.0000 0.0000 121.6097 0.0000 0.0000
# 5 0.0000 0.0000 0.0000 0.0000 -12.9784 0.0000
# 6 0.0000 0.0000 0.0000 0.0000 0.0000 52.4353
#
#
#
# Elastic Compliance Matrix: (Units=1/GPa)
#
#
# Indices 1 2 3 4 5 6 
#
# 1 0.011624 -0.003557 -0.003757 0.000000 0.000000 0.000000
# 2 -0.003557 0.012853 -0.002899 0.000000 0.000000 0.000000
# 3 -0.003757 -0.002899 0.009597 0.000000 0.000000 0.000000
# 4 0.000000 0.000000 0.000000 0.008223 0.000000 0.000000
# 5 0.000000 0.000000 0.000000 0.000000 -0.077051 0.000000
# 6 0.000000 0.000000 0.000000 0.000000 0.000000 0.019071
#
#
# Mechanical properties :
#
#
# Convention : Reuss Voigt Hill
#
# Bulk Modulus (GPa) = 73.25658 75.60726 74.43192
# Shear Modulus (GPa) = 538.14176 46.05514 292.09845
#
# Velocity S-wave (km/s) = 16.73381 4.89537 12.32853
# Velocity P-wave (km/s) = 20.28495 8.44363 15.53664
#
# Compressibility (1/GPa) = 0.01365065
#
# Stress axis : x y z
#
# Youngs Moduli (GPa) = 86.02766 77.80148 104.19949
#
# Poissons Ratio (x) = 0.27671 0.39145
# Poissons Ratio (y) = 0.30597 0.30202
# Poissons Ratio (z) = 0.32318 0.22551
#
# Static dielectric constant tensor:
#      x y z
#    x 1.633470 0.000000 0.000000 
#    y 0.000000 1.658750 0.000000 
#    z 0.000000 0.000000 4.478400 
# 
# From -- ./inp_files/42743.got.cif
#   From: 2010.05.17/outbox.cif.g08.bks.cpg/sg66_22_cif.got.tgz:42743.got - 2010.06.03 17:51:23.
