data_PCOD9499674
_publ_section_title
;
Structure prediction by ZEFSAII (Michael W. Deem and Ramdas Pophale) SiO2 
 PCOD9499674
Probable space group: C C C M
;
_chemical_formula_sum "Si O2"
_cell_formula_units_Z 64
_cell_length_a 22.230928
_cell_length_b 10.550109
_cell_length_c 13.799003
_cell_angle_alpha 90.000000
_cell_angle_beta 90.000000
_cell_angle_gamma 90.000000
_cell_volume 3236.400412
_symmetry_space_group_name_H-M "C C C M"
_symmetry_group_IT_number 66
_symmetry_cell_setting 'orthorhombic'
loop_
_space_group_symop_operation_xyz
x,y,z
-x,-y,z
x,-y,1/2-z
-x,y,1/2-z
-x,-y,-z
x,y,-z
-x,y,1/2+z
x,-y,1/2+z
1/2+x,1/2+y,z
1/2-x,1/2-y,z
1/2+x,1/2-y,1/2-z
1/2-x,1/2+y,1/2-z
1/2-x,1/2-y,-z
1/2+x,1/2+y,-z
1/2-x,1/2+y,1/2+z
1/2+x,1/2-y,1/2+z
loop_
_atom_site_type_symbol
_atom_site_label
_atom_site_fract_x
_atom_site_fract_y
_atom_site_fract_z
Si Si1 0.849938 0.367758 0.290110
Si Si2 0.250000 0.250000 0.663356
Si Si3 0.194993 0.916913 0.000000
Si Si4 0.205019 0.369212 0.000000
Si Si5 0.068639 0.140949 0.716852
Si Si6 0.563350 0.423542 0.000000
O O1 0.875445 0.500000 0.250000
O O2 0.788164 0.342618 0.231100
O O3 0.834605 0.371671 0.403222
O O4 0.892134 0.249529 0.265202
O O5 0.204886 0.172290 0.593747
O O6 0.250805 0.010981 0.000000
O O7 0.130422 0.987256 0.000000
O O8 0.250000 0.250000 0.000000
O O9 0.066106 0.151038 0.600622
O O10 0.000000 0.150445 0.750000
O O11 0.090054 0.000000 0.750000
O O12 0.500000 0.500000 0.000000
#
# Coordination Sequence:
#
# PCOD9499674 Si02
#       6
#    16   8   8   8  16   8
#     4  12  26  44  67 102 146 182 237 289 360 425
#     4  11  22  43  70  94 136 193 230 281 350 438
#     4  11  24  42  70 100 137 184 239 279 356 418
#     4  12  27  37  66 104 136 183 227 291 359 417
#     4  11  26  45  71 102 137 185 240 294 351 410
#     4  12  23  43  76 103 133 184 251 288 340 420
#
# _framework density 19.775055999999999
#
# number of rings (size 3 to 8) (size 9 to 14) (size 15 to 20)
#    0.000    0.500    8.750    0.000    3.500    3.500 
#    0.000    0.000    0.000    3.000    0.000    0.000 
#    0.000    0.000    0.000    0.000    0.000    0.000 
#
# Total GULP energy -178772.933087 kJ/mol
# GULP energy per Si atom -5586.654159 kJ/mol
# Density = 1.973005 g / cm^3
# Si number density = 19.775056 Si / 1000 Ang^3
#
#
#
# Elastic Constant Matrix: (Units=GPa)
#
#
# Indices 1 2 3 4 5 6 
#
# 1 109.5265 52.8490 51.0661 0.0000 0.0000 0.0000
# 2 52.8490 128.8120 58.5129 0.0000 0.0000 0.0000
# 3 51.0661 58.5129 197.2438 0.0000 0.0000 0.0000
# 4 0.0000 0.0000 0.0000 6.6949 0.0000 0.0000
# 5 0.0000 0.0000 0.0000 0.0000 14.6163 0.0000
# 6 0.0000 0.0000 0.0000 0.0000 0.0000 39.7894
#
#
#
# Elastic Compliance Matrix: (Units=1/GPa)
#
#
# Indices 1 2 3 4 5 6 
#
# 1 0.011968 -0.004048 -0.001898 0.000000 0.000000 0.000000
# 2 -0.004048 0.010342 -0.002020 0.000000 0.000000 0.000000
# 3 -0.001898 -0.002020 0.006160 0.000000 0.000000 0.000000
# 4 0.000000 0.000000 0.000000 0.149368 0.000000 0.000000
# 5 0.000000 0.000000 0.000000 0.000000 0.068417 0.000000
# 6 0.000000 0.000000 0.000000 0.000000 0.000000 0.025132
#
#
# Mechanical properties :
#
#
# Convention : Reuss Voigt Hill
#
# Bulk Modulus (GPa) = 79.75216 84.49314 82.12265
# Shear Modulus (GPa) = 17.15277 30.43042 23.79159
#
# Velocity S-wave (km/s) = 2.94835 3.92705 3.47235
# Velocity P-wave (km/s) = 7.21163 7.96129 7.59571
#
# Compressibility (1/GPa) = 0.01253884
#
# Stress axis : x y z
#
# Youngs Moduli (GPa) = 83.55322 96.69576 162.32891
#
# Poissons Ratio (x) = 0.39146 0.30804
# Poissons Ratio (y) = 0.33826 0.32787
# Poissons Ratio (z) = 0.15855 0.19530
#
# Static dielectric constant tensor:
#      x y z
#    x 1.716810 0.000000 0.000000 
#    y 0.000000 1.752540 0.000000 
#    z 0.000000 0.000000 1.701020 
# 
# From -- ./inp_files/31950.got.cif
#   From: 2010.05.17/outbox.cif.g08.bks.cpg/sg66_16_cif.got.tgz:31950.got - 2010.06.03 17:51:23.
