data_PCOD9499053
_publ_section_title
;
Structure prediction by ZEFSAII (Michael W. Deem and Ramdas Pophale) SiO2 
 PCOD9499053
Probable space group: C C C M
;
_chemical_formula_sum "Si O2"
_cell_formula_units_Z 104
_cell_length_a 23.778851
_cell_length_b 23.778857
_cell_length_c 9.602189
_cell_angle_alpha 90.000000
_cell_angle_beta 90.000000
_cell_angle_gamma 90.000000
_cell_volume 5429.403151
_symmetry_space_group_name_H-M "C C C M"
_symmetry_group_IT_number 66
_symmetry_cell_setting 'orthorhombic'
loop_
_space_group_symop_operation_xyz
x,y,z
-x,-y,z
x,-y,1/2-z
-x,y,1/2-z
-x,-y,-z
x,y,-z
-x,y,1/2+z
x,-y,1/2+z
1/2+x,1/2+y,z
1/2-x,1/2-y,z
1/2+x,1/2-y,1/2-z
1/2-x,1/2+y,1/2-z
1/2-x,1/2-y,-z
1/2+x,1/2+y,-z
1/2-x,1/2+y,1/2+z
1/2+x,1/2-y,1/2+z
loop_
_atom_site_type_symbol
_atom_site_label
_atom_site_fract_x
_atom_site_fract_y
_atom_site_fract_z
Si Si1 0.750000 0.750000 0.250000
Si Si2 0.246880 0.375784 0.842189
Si Si3 0.657948 0.942235 0.333556
Si Si4 0.137845 0.056692 0.162998
Si Si5 0.624216 0.253120 0.842189
Si Si6 0.056692 0.637845 0.162998
Si Si7 0.942235 0.842052 0.833556
O O1 0.748170 0.691419 0.166806
O O2 0.691419 0.751830 0.333194
O O3 0.203158 0.398971 0.729697
O O4 0.306472 0.405675 0.813563
O O5 0.229314 0.391234 0.000000
O O6 0.665540 0.948957 0.500000
O O7 0.596696 0.915231 0.307771
O O8 0.664638 0.000000 0.250000
O O9 0.084770 0.096696 0.192229
O O10 0.139033 0.000000 0.250000
O O11 0.137004 0.042189 0.000000
O O12 0.594325 0.193528 0.813564
O O13 0.601029 0.296842 0.729697
O O14 0.608766 0.270686 0.000000
O O15 0.000000 0.639034 0.250000
O O16 0.042189 0.637003 0.000000
O O17 0.000000 0.835362 0.750000
O O18 0.948957 0.834460 0.000000
#
# Coordination Sequence:
#
# PCOD9499053 Si02
#       7
#     8  16  16  16  16  16  16
#     4  12  22  40  68 102 134 160 204 258 314 376
#     4  11  23  41  65  96 130 167 207 254 316 379
#     4  11  24  43  64  92 127 165 212 263 314 374
#     4  10  23  42  62  90 125 163 210 258 309 369
#     4  11  23  41  65  96 130 167 207 254 316 379
#     4  10  23  42  62  90 125 163 210 258 309 369
#     4  11  24  43  64  92 127 165 212 263 314 374
#
# _framework density 19.154961
#
# number of rings (size 3 to 8) (size 9 to 14) (size 15 to 20)
#    0.000    1.231    3.077    2.308    0.000    8.000 
#    0.000    3.077    0.000    0.000    0.000    0.000 
#    0.000    0.000    0.000    0.000    0.000    0.000 
#
# Total GULP energy -290534.007250 kJ/mol
# GULP energy per Si atom -5587.192447 kJ/mol
# Density = 1.911136 g / cm^3
# Si number density = 19.154961 Si / 1000 Ang^3
#
#
#
# Elastic Constant Matrix: (Units=GPa)
#
#
# Indices 1 2 3 4 5 6 
#
# 1 114.3836 32.0063 55.5162 0.0000 0.0000 0.0000
# 2 32.0063 114.3834 55.5161 0.0000 0.0000 0.0000
# 3 55.5162 55.5161 83.9875 0.0000 0.0000 0.0000
# 4 0.0000 0.0000 0.0000 -172.2275 0.0000 0.0000
# 5 0.0000 0.0000 0.0000 0.0000 -172.2156 0.0000
# 6 0.0000 0.0000 0.0000 0.0000 0.0000 13.1913
#
#
#
# Elastic Compliance Matrix: (Units=1/GPa)
#
#
# Indices 1 2 3 4 5 6 
#
# 1 0.012919 0.000780 -0.009055 0.000000 0.000000 0.000000
# 2 0.000780 0.012919 -0.009055 0.000000 0.000000 0.000000
# 3 -0.009055 -0.009055 0.023878 0.000000 0.000000 0.000000
# 4 0.000000 0.000000 0.000000 -0.005806 0.000000 0.000000
# 5 0.000000 0.000000 0.000000 0.000000 -0.005807 0.000000
# 6 0.000000 0.000000 0.000000 0.000000 0.000000 0.075808
#
#
# Mechanical properties :
#
#
# Convention : Reuss Voigt Hill
#
# Bulk Modulus (GPa) = 66.42268 66.53685 66.47976
# Shear Modulus (GPa) = 32.55418 -54.93597 -11.19090
#
# Velocity S-wave (km/s) = 4.12699 -5.36116 -2.41971
# Velocity P-wave (km/s) = 7.58032 1.87382 5.19375
#
# Compressibility (1/GPa) = 0.01505510
#
# Stress axis : x y z
#
# Youngs Moduli (GPa) = 77.40404 77.40377 41.88017
#
# Poissons Ratio (x) = -0.06037 0.37923
# Poissons Ratio (y) = -0.06037 0.37924
# Poissons Ratio (z) = 0.70091 0.70091
#
# Static dielectric constant tensor:
#      x y z
#    x 1.658050 0.000000 0.000000 
#    y 0.000000 1.658050 0.000000 
#    z 0.000000 0.000000 1.645890 
# 
# From -- ./inp_files/10351.got.cif
#   From: 2010.05.17/outbox.cif.g08.bks.cpg/sg66_6_cif.got.tgz:10351.got - 2010.06.03 17:51:23.
