data_PCOD9499838
_publ_section_title
;
Structure prediction by ZEFSAII (Michael W. Deem and Ramdas Pophale) SiO2 
 PCOD9499838
Probable space group: C C C M
;
_chemical_formula_sum "Si O2"
_cell_formula_units_Z 72
_cell_length_a 9.433888
_cell_length_b 13.595363
_cell_length_c 26.414857
_cell_angle_alpha 90.000000
_cell_angle_beta 90.000000
_cell_angle_gamma 90.000000
_cell_volume 3387.893797
_symmetry_space_group_name_H-M "C C C M"
_symmetry_group_IT_number 66
_symmetry_cell_setting 'orthorhombic'
loop_
_space_group_symop_operation_xyz
x,y,z
-x,-y,z
x,-y,1/2-z
-x,y,1/2-z
-x,-y,-z
x,y,-z
-x,y,1/2+z
x,-y,1/2+z
1/2+x,1/2+y,z
1/2-x,1/2-y,z
1/2+x,1/2-y,1/2-z
1/2-x,1/2+y,1/2-z
1/2-x,1/2-y,-z
1/2+x,1/2+y,-z
1/2-x,1/2+y,1/2+z
1/2+x,1/2-y,1/2+z
loop_
_atom_site_type_symbol
_atom_site_label
_atom_site_fract_x
_atom_site_fract_y
_atom_site_fract_z
Si Si1 0.422379 0.234440 0.500000
Si Si2 0.372296 0.576786 0.500000
Si Si3 0.500000 0.500000 0.825708
Si Si4 0.403834 0.708961 0.795841
Si Si5 0.235084 0.465363 0.892320
Si Si6 0.454846 0.846239 0.111310
O O1 0.250000 0.250000 0.500000
O O2 0.537535 0.322735 0.500000
O O3 0.453236 0.180473 0.447587
O O4 0.500000 0.500000 0.500000
O O5 0.277929 0.558143 0.549798
O O6 0.424760 0.591218 0.797789
O O7 0.376426 0.453061 0.859945
O O8 0.500000 0.746576 0.750000
O O9 0.250000 0.750000 0.783934
O O10 0.437455 0.755267 0.850887
O O11 0.173317 0.575279 0.883904
O O12 0.104848 0.396559 0.876771
#
# Coordination Sequence:
#
# PCOD9499838 Si02
#       6
#     8   8   8  16  16  16
#     4  12  25  40  71 102 144 196 238 299 365 438
#     4  12  23  38  61 103 143 192 248 291 359 437
#     4  12  25  47  76 104 144 185 248 296 369 438
#     4  12  28  51  76 109 144 192 245 304 370 440
#     4  11  24  43  70 105 145 192 238 304 362 439
#     4  11  25  47  71 106 149 184 244 301 369 436
#
# _framework density 21.252143
#
# number of rings (size 3 to 8) (size 9 to 14) (size 15 to 20)
#    0.000    0.444    3.333    5.000    3.111    5.333 
#    0.000    2.222    0.000    0.000    0.000    0.000 
#    0.000    0.000    0.000    0.000    0.000    0.000 
#
# Total GULP energy -201188.085166 kJ/mol
# GULP energy per Si atom -5588.557921 kJ/mol
# Density = 2.120377 g / cm^3
# Si number density = 21.252143 Si / 1000 Ang^3
#
#
#
# Elastic Constant Matrix: (Units=GPa)
#
#
# Indices 1 2 3 4 5 6 
#
# 1 140.5015 48.6722 37.7373 0.0000 0.0000 0.0000
# 2 48.6722 104.5835 20.3767 0.0000 0.0000 0.0000
# 3 37.7373 20.3767 86.3279 0.0000 0.0000 0.0000
# 4 0.0000 0.0000 0.0000 112.9595 0.0000 0.0000
# 5 0.0000 0.0000 0.0000 0.0000 212.7827 0.0000
# 6 0.0000 0.0000 0.0000 0.0000 0.0000 31.3253
#
#
#
# Elastic Compliance Matrix: (Units=1/GPa)
#
#
# Indices 1 2 3 4 5 6 
#
# 1 0.009246 -0.003685 -0.003172 0.000000 0.000000 0.000000
# 2 -0.003685 0.011491 -0.001102 0.000000 0.000000 0.000000
# 3 -0.003172 -0.001102 0.013230 0.000000 0.000000 0.000000
# 4 0.000000 0.000000 0.000000 0.008853 0.000000 0.000000
# 5 0.000000 0.000000 0.000000 0.000000 0.004700 0.000000
# 6 0.000000 0.000000 0.000000 0.000000 0.000000 0.031923
#
#
# Mechanical properties :
#
#
# Convention : Reuss Voigt Hill
#
# Bulk Modulus (GPa) = 55.39976 60.55391 57.97683
# Shear Modulus (GPa) = 49.32106 86.38861 67.85483
#
# Velocity S-wave (km/s) = 4.82265 6.38260 5.65666
# Velocity P-wave (km/s) = 7.55877 9.10339 8.36680
#
# Compressibility (1/GPa) = 0.01805062
#
# Stress axis : x y z
#
# Youngs Moduli (GPa) = 108.15690 87.02249 75.58393
#
# Poissons Ratio (x) = 0.32067 0.23975
# Poissons Ratio (y) = 0.39855 0.08326
# Poissons Ratio (z) = 0.34307 0.09586
#
# Static dielectric constant tensor:
#      x y z
#    x 1.758490 0.000000 0.000000 
#    y 0.000000 1.754680 0.000000 
#    z 0.000000 0.000000 1.772330 
# 
# From -- ./inp_files/62231.got.cif
#   From: 2010.05.17/outbox.cif.g08.bks.cpg/sg66_32_cif.got.tgz:62231.got - 2010.06.03 17:51:23.
