data_PCOD9499108
_publ_section_title
;
Structure prediction by ZEFSAII (Michael W. Deem and Ramdas Pophale) SiO2 
 PCOD9499108
Probable space group: C C C M
;
_chemical_formula_sum "Si O2"
_cell_formula_units_Z 112
_cell_length_a 15.621804
_cell_length_b 24.488996
_cell_length_c 14.891752
_cell_angle_alpha 90.000000
_cell_angle_beta 90.000000
_cell_angle_gamma 90.000000
_cell_volume 5697.022832
_symmetry_space_group_name_H-M "C C C M"
_symmetry_group_IT_number 66
_symmetry_cell_setting 'orthorhombic'
loop_
_space_group_symop_operation_xyz
x,y,z
-x,-y,z
x,-y,1/2-z
-x,y,1/2-z
-x,-y,-z
x,y,-z
-x,y,1/2+z
x,-y,1/2+z
1/2+x,1/2+y,z
1/2-x,1/2-y,z
1/2+x,1/2-y,1/2-z
1/2-x,1/2+y,1/2-z
1/2-x,1/2-y,-z
1/2+x,1/2+y,-z
1/2-x,1/2+y,1/2+z
1/2+x,1/2-y,1/2+z
loop_
_atom_site_type_symbol
_atom_site_label
_atom_site_fract_x
_atom_site_fract_y
_atom_site_fract_z
Si Si1 0.304604 0.195847 0.595495
Si Si2 0.402865 0.935435 0.257811
Si Si3 0.273758 0.410046 0.338439
Si Si4 0.400954 0.238814 0.231751
Si Si5 0.367400 0.466490 0.500000
Si Si6 0.150576 0.858915 0.335325
Si Si7 0.341988 0.145018 0.101294
Si Si8 0.945691 0.912450 0.000000
O O1 0.350254 0.185555 0.500000
O O2 0.250000 0.250000 0.588111
O O3 0.237303 0.147811 0.612868
O O4 0.362129 0.208004 0.681577
O O5 0.500000 0.912964 0.250000
O O6 0.325088 0.921323 0.189952
O O7 0.371115 0.910457 0.350911
O O8 0.408971 0.000000 0.250000
O O9 0.314108 0.451625 0.409860
O O10 0.330022 0.400388 0.248095
O O11 0.500000 0.244981 0.250000
O O12 0.367066 0.299327 0.207890
O O13 0.379664 0.197321 0.151950
O O14 0.394068 0.529993 0.500000
O O15 0.454323 0.429736 0.500000
O O16 0.239823 0.853193 0.388005
O O17 0.081596 0.879850 0.408868
O O18 0.369285 0.145653 0.000000
#
# Coordination Sequence:
#
# PCOD9499108 Si02
#       8
#    16  16  16  16   8  16  16   8
#     4  11  21  40  64  93 129 173 216 271 332 404
#     4  10  23  44  66  97 136 176 226 285 333 407
#     4  11  23  41  73  98 133 181 224 281 342 420
#     4  12  25  41  62  99 140 177 222 283 339 420
#     4  11  28  48  69 104 137 182 240 290 353 405
#     4  11  24  43  69  96 132 181 229 282 352 407
#     4  11  23  41  67  97 134 180 227 277 348 417
#     4  11  28  48  69 101 142 173 239 304 335 424
#
# _framework density 19.659392
#
# number of rings (size 3 to 8) (size 9 to 14) (size 15 to 20)
#    0.000    1.000    5.714    0.857    7.000    1.143 
#    1.286    2.143    0.000    0.000    0.000    0.000 
#    0.000    0.000    0.000    0.000    0.000    0.000 
#
# Total GULP energy -312343.844428 kJ/mol
# GULP energy per Si atom -5577.568650 kJ/mol
# Density = 1.961465 g / cm^3
# Si number density = 19.659392 Si / 1000 Ang^3
#
#
#
# Elastic Constant Matrix: (Units=GPa)
#
#
# Indices 1 2 3 4 5 6 
#
# 1 71.8477 9.2884 40.0365 0.0000 0.0000 0.0000
# 2 9.2884 60.7729 32.1471 0.0000 0.0000 0.0000
# 3 40.0365 32.1471 142.0269 0.0000 0.0000 0.0000
# 4 0.0000 0.0000 0.0000 22.0405 0.0000 0.0000
# 5 0.0000 0.0000 0.0000 0.0000 8.6504 0.0000
# 6 0.0000 0.0000 0.0000 0.0000 0.0000 -20.4988
#
#
#
# Elastic Compliance Matrix: (Units=1/GPa)
#
#
# Indices 1 2 3 4 5 6 
#
# 1 0.016512 -0.000070 -0.004639 0.000000 0.000000 0.000000
# 2 -0.000070 0.018693 -0.004211 0.000000 0.000000 0.000000
# 3 -0.004639 -0.004211 0.009302 0.000000 0.000000 0.000000
# 4 0.000000 0.000000 0.000000 0.045371 0.000000 0.000000
# 5 0.000000 0.000000 0.000000 0.000000 0.115602 0.000000
# 6 0.000000 0.000000 0.000000 0.000000 0.000000 -0.048783
#
#
# Mechanical properties :
#
#
# Convention : Reuss Voigt Hill
#
# Bulk Modulus (GPa) = 37.49964 48.62129 43.06047
# Shear Modulus (GPa) = 27.25889 14.91678 21.08783
#
# Velocity S-wave (km/s) = 3.72769 2.75755 3.27870
# Velocity P-wave (km/s) = 6.13544 5.90968 6.02362
#
# Compressibility (1/GPa) = 0.02666692
#
# Stress axis : x y z
#
# Youngs Moduli (GPa) = 60.56072 53.49570 107.50571
#
# Poissons Ratio (x) = 0.00374 0.49871
# Poissons Ratio (y) = 0.00423 0.45275
# Poissons Ratio (z) = 0.28094 0.22529
#
# Static dielectric constant tensor:
#      x y z
#    x 1.701480 0.000000 0.000000 
#    y 0.000000 1.727540 0.000000 
#    z 0.000000 0.000000 1.682420 
# 
# From -- ./inp_files/28922.got.cif
#   From: 2010.05.17/outbox.cif.g08.bks.cpg/sg66_15_cif.got.tgz:28922.got - 2010.06.03 17:51:23.
