data_PCOD9499034
_publ_section_title
;
Structure prediction by ZEFSAII (Michael W. Deem and Ramdas Pophale) SiO2 
 PCOD9499034
Probable space group: C C C M
;
_chemical_formula_sum "Si O2"
_cell_formula_units_Z 112
_cell_length_a 24.722290
_cell_length_b 14.493109
_cell_length_c 14.844281
_cell_angle_alpha 90.000000
_cell_angle_beta 90.000000
_cell_angle_gamma 90.000000
_cell_volume 5318.748095
_symmetry_space_group_name_H-M "C C C M"
_symmetry_group_IT_number 66
_symmetry_cell_setting 'orthorhombic'
loop_
_space_group_symop_operation_xyz
x,y,z
-x,-y,z
x,-y,1/2-z
-x,y,1/2-z
-x,-y,-z
x,y,-z
-x,y,1/2+z
x,-y,1/2+z
1/2+x,1/2+y,z
1/2-x,1/2-y,z
1/2+x,1/2-y,1/2-z
1/2-x,1/2+y,1/2-z
1/2-x,1/2-y,-z
1/2+x,1/2+y,-z
1/2-x,1/2+y,1/2+z
1/2+x,1/2-y,1/2+z
loop_
_atom_site_type_symbol
_atom_site_label
_atom_site_fract_x
_atom_site_fract_y
_atom_site_fract_z
Si Si1 0.696456 0.195486 0.904394
Si Si2 0.558431 0.531254 0.646931
Si Si3 0.864122 0.304077 0.396276
Si Si4 0.273719 0.900507 0.283876
Si Si5 0.836175 0.089972 0.602646
Si Si6 0.917186 0.238413 0.102350
Si Si7 0.064034 0.605549 0.753176
O O1 0.750000 0.250000 0.918518
O O2 0.709277 0.152822 0.807294
O O3 0.647582 0.267336 0.897878
O O4 0.685985 0.140543 0.000000
O O5 0.500000 0.500000 0.607123
O O6 0.557706 0.500000 0.750000
O O7 0.613662 0.482252 0.611172
O O8 0.560966 0.642198 0.640068
O O9 0.873891 0.327597 0.500000
O O10 0.808904 0.351599 0.361264
O O11 0.859508 0.193630 0.388423
O O12 0.910534 0.341505 0.331193
O O13 0.212607 0.912692 0.323762
O O14 0.290923 0.000000 0.250000
O O15 0.814229 0.079866 0.500000
O O16 0.924639 0.331480 0.159684
O O17 0.937012 0.249478 0.000000
O O18 0.084399 0.500000 0.750000
O O19 0.000000 0.601437 0.750000
#
# Coordination Sequence:
#
# PCOD9499034 Si02
#       7
#    16  16  16  16  16  16  16
#     4  10  23  41  64  94 132 175 223 280 352 429
#     4  11  26  45  72 108 148 197 246 297 361 439
#     4  11  24  44  71 100 138 185 237 299 364 431
#     4  12  25  41  67 100 138 183 234 296 361 433
#     4  11  25  44  68 101 143 188 235 291 358 436
#     4  11  25  45  73 104 143 187 237 299 364 432
#     4  11  26  47  70  99 137 182 237 296 361 436
#
# _framework density 21.057587999999999
#
# number of rings (size 3 to 8) (size 9 to 14) (size 15 to 20)
#    0.000    1.000    1.429    3.857    8.000    4.571 
#    0.000    1.429    0.000    0.000    0.000    0.000 
#    0.000    0.000    0.000    0.000    0.000    0.000 
#
# Total GULP energy -312026.905528 kJ/mol
# GULP energy per Si atom -5571.909027 kJ/mol
# Density = 2.100966 g / cm^3
# Si number density = 21.057588 Si / 1000 Ang^3
#
#
#
# Elastic Constant Matrix: (Units=GPa)
#
#
# Indices 1 2 3 4 5 6 
#
# 1 100.6490 20.2342 21.3610 0.0000 0.0000 0.0000
# 2 20.2342 120.1677 51.1747 0.0000 0.0000 0.0000
# 3 21.3610 51.1747 161.0042 0.0000 0.0000 0.0000
# 4 0.0000 0.0000 0.0000 722.8243 0.0000 0.0000
# 5 0.0000 0.0000 0.0000 0.0000 -29.6310 0.0000
# 6 0.0000 0.0000 0.0000 0.0000 0.0000 24.1613
#
#
#
# Elastic Compliance Matrix: (Units=1/GPa)
#
#
# Indices 1 2 3 4 5 6 
#
# 1 0.010409 -0.001347 -0.000953 0.000000 0.000000 0.000000
# 2 -0.001347 0.009799 -0.002936 0.000000 0.000000 0.000000
# 3 -0.000953 -0.002936 0.007271 0.000000 0.000000 0.000000
# 4 0.000000 0.000000 0.000000 0.001383 0.000000 0.000000
# 5 0.000000 0.000000 0.000000 0.000000 -0.033748 0.000000
# 6 0.000000 0.000000 0.000000 0.000000 0.000000 0.041388
#
#
# Mechanical properties :
#
#
# Convention : Reuss Voigt Hill
#
# Bulk Modulus (GPa) = 58.79991 63.04010 60.92000
# Shear Modulus (GPa) = 94.98262 162.74100 128.86181
#
# Velocity S-wave (km/s) = 6.72340 8.80066 7.83121
# Velocity P-wave (km/s) = 9.39447 11.54429 10.52442
#
# Compressibility (1/GPa) = 0.01700683
#
# Stress axis : x y z
#
# Youngs Moduli (GPa) = 96.07525 102.05401 137.54075
#
# Poissons Ratio (x) = 0.13745 0.13106
# Poissons Ratio (y) = 0.12940 0.40379
# Poissons Ratio (z) = 0.09155 0.29961
#
# Static dielectric constant tensor:
#      x y z
#    x 1.779600 0.000000 0.000000 
#    y 0.000000 1.604410 0.000000 
#    z 0.000000 0.000000 1.356040 
# 
# From -- ./inp_files/32456.got.cif
#   From: 2010.05.17/outbox.cif.g08.bks.cpg/sg66_17_cif.got.tgz:32456.got - 2010.06.03 17:51:23.
