data_PCOD9499279
_publ_section_title
;
Structure prediction by ZEFSAII (Michael W. Deem and Ramdas Pophale) SiO2 
 PCOD9499279
Probable space group: C C C M
;
_chemical_formula_sum "Si O2"
_cell_formula_units_Z 68
_cell_length_a 5.261935
_cell_length_b 21.028465
_cell_length_c 25.368577
_cell_angle_alpha 90.000000
_cell_angle_beta 90.000000
_cell_angle_gamma 90.000000
_cell_volume 2807.043598
_symmetry_space_group_name_H-M "C C C M"
_symmetry_group_IT_number 66
_symmetry_cell_setting 'orthorhombic'
loop_
_space_group_symop_operation_xyz
x,y,z
-x,-y,z
x,-y,1/2-z
-x,y,1/2-z
-x,-y,-z
x,y,-z
-x,y,1/2+z
x,-y,1/2+z
1/2+x,1/2+y,z
1/2-x,1/2-y,z
1/2+x,1/2-y,1/2-z
1/2-x,1/2+y,1/2-z
1/2-x,1/2-y,-z
1/2+x,1/2+y,-z
1/2-x,1/2+y,1/2+z
1/2+x,1/2-y,1/2+z
loop_
_atom_site_type_symbol
_atom_site_label
_atom_site_fract_x
_atom_site_fract_y
_atom_site_fract_z
Si Si1 0.605548 0.598527 0.669574
Si Si2 0.000000 0.000000 0.750000
Si Si3 0.102008 0.613131 0.608061
Si Si4 0.939308 0.192945 0.000000
Si Si5 0.250000 0.750000 0.406472
Si Si6 0.500000 0.290488 0.250000
Si Si7 0.139838 0.932482 0.500000
O O1 0.662236 0.546078 0.713366
O O2 0.326125 0.587818 0.645666
O O3 0.584152 0.665192 0.700847
O O4 0.820484 0.594393 0.625440
O O5 0.099435 0.690828 0.617823
O O6 0.185869 0.585927 0.550802
O O7 0.750000 0.250000 0.000000
O O8 0.080796 0.208152 0.945867
O O9 0.905555 0.118486 0.000000
O O10 0.250000 0.250000 0.235904
O O11 0.000000 0.000000 0.500000
#
# Coordination Sequence:
#
# PCOD9499279 Si02
#       7
#    16   4  16   8   8   8   8
#     4  11  27  48  78 109 148 201 256 307 389 463
#     4  10  28  58  76 104 152 204 260 328 380 478
#     4  11  26  45  77 114 148 205 250 312 379 468
#     4   9  19  40  67  97 144 205 244 299 365 433
#     4   9  22  38  64 104 148 188 244 296 364 445
#     4  11  24  45  76 115 152 183 244 328 390 441
#     4  10  25  50  74 114 160 206 258 323 374 460
#
# _framework density 24.224777
#
# number of rings (size 3 to 8) (size 9 to 14) (size 15 to 20)
#    0.000    1.647    0.000    2.118   13.176    5.647 
#    0.000    1.176    0.000    0.000    0.000    0.000 
#    0.000    0.000    0.000    0.000    0.000    0.000 
#
# Total GULP energy -189790.724783 kJ/mol
# GULP energy per Si atom -5582.080141 kJ/mol
# Density = 2.416964 g / cm^3
# Si number density = 24.224777 Si / 1000 Ang^3
#
#
#
# Elastic Constant Matrix: (Units=GPa)
#
#
# Indices 1 2 3 4 5 6 
#
# 1 111.2174 52.8381 33.2910 0.0000 0.0000 0.0000
# 2 52.8381 178.6329 40.7753 0.0000 0.0000 0.0000
# 3 33.2910 40.7753 108.3193 0.0000 0.0000 0.0000
# 4 0.0000 0.0000 0.0000 29.3297 0.0000 0.0000
# 5 0.0000 0.0000 0.0000 0.0000 32.5361 0.0000
# 6 0.0000 0.0000 0.0000 0.0000 0.0000 8.4313
#
#
#
# Elastic Compliance Matrix: (Units=1/GPa)
#
#
# Indices 1 2 3 4 5 6 
#
# 1 0.010985 -0.002712 -0.002355 0.000000 0.000000 0.000000
# 2 -0.002712 0.006794 -0.001724 0.000000 0.000000 0.000000
# 3 -0.002355 -0.001724 0.010605 0.000000 0.000000 0.000000
# 4 0.000000 0.000000 0.000000 0.034095 0.000000 0.000000
# 5 0.000000 0.000000 0.000000 0.000000 0.030735 0.000000
# 6 0.000000 0.000000 0.000000 0.000000 0.000000 0.118605
#
#
# Mechanical properties :
#
#
# Convention : Reuss Voigt Hill
#
# Bulk Modulus (GPa) = 67.56114 72.44204 70.00159
# Shear Modulus (GPa) = 21.70758 32.14377 26.92567
#
# Velocity S-wave (km/s) = 2.99672 3.64661 3.33752
# Velocity P-wave (km/s) = 6.31851 6.90647 6.61903
#
# Compressibility (1/GPa) = 0.01480141
#
# Stress axis : x y z
#
# Youngs Moduli (GPa) = 91.03621 147.19636 94.29669
#
# Poissons Ratio (x) = 0.39913 0.22210
# Poissons Ratio (y) = 0.24685 0.16257
# Poissons Ratio (z) = 0.21442 0.25377
#
# Static dielectric constant tensor:
#      x y z
#    x 1.836080 0.000000 0.000000 
#    y 0.000000 1.872170 0.000000 
#    z 0.000000 0.000000 0.736320 
# 
# From -- ./inp_files/61381.got.cif
#   From: 2010.05.17/outbox.cif.g08.bks.cpg/sg66_31_cif.got.tgz:61381.got - 2010.06.03 17:51:23.
