data_PCOD9499284
_publ_section_title
;
Structure prediction by ZEFSAII (Michael W. Deem and Ramdas Pophale) SiO2 
 PCOD9499284
Probable space group: C C C M
;
_chemical_formula_sum "Si O2"
_cell_formula_units_Z 48
_cell_length_a 18.355548
_cell_length_b 9.729432
_cell_length_c 9.431901
_cell_angle_alpha 90.000000
_cell_angle_beta 90.000000
_cell_angle_gamma 90.000000
_cell_volume 1684.434297
_symmetry_space_group_name_H-M "C C C M"
_symmetry_group_IT_number 66
_symmetry_cell_setting 'orthorhombic'
loop_
_space_group_symop_operation_xyz
x,y,z
-x,-y,z
x,-y,1/2-z
-x,y,1/2-z
-x,-y,-z
x,y,-z
-x,y,1/2+z
x,-y,1/2+z
1/2+x,1/2+y,z
1/2-x,1/2-y,z
1/2+x,1/2-y,1/2-z
1/2-x,1/2+y,1/2-z
1/2-x,1/2-y,-z
1/2+x,1/2+y,-z
1/2-x,1/2+y,1/2+z
1/2+x,1/2-y,1/2+z
loop_
_atom_site_type_symbol
_atom_site_label
_atom_site_fract_x
_atom_site_fract_y
_atom_site_fract_z
Si Si1 0.767850 0.048657 0.500000
Si Si2 0.750000 0.750000 0.758702
Si Si3 0.594710 0.126098 0.500000
Si Si4 0.500000 0.000000 0.750000
Si Si5 0.000000 0.000000 0.250000
Si Si6 0.840282 0.258885 0.000000
Si Si7 0.482625 0.680015 0.000000
O O1 0.785597 0.135491 0.641478
O O2 0.677978 0.075254 0.500000
O O3 0.810464 0.902188 0.500000
O O4 0.808129 0.688203 0.648497
O O5 0.553003 0.082242 0.356437
O O6 0.567491 0.287031 0.500000
O O7 0.959821 0.902356 0.360097
O O8 0.924150 0.299926 0.000000
#
# Coordination Sequence:
#
# PCOD9499284 Si02
#       7
#     8   8   8   4   4   8   8
#     4  11  26  45  74 104 147 190 245 301 366 434
#     4  10  26  42  70 108 140 194 238 308 356 444
#     4  11  26  45  74 104 147 190 245 301 366 434
#     4  10  26  42  70 108 140 194 238 308 356 444
#     4  10  26  42  70 108 140 194 238 308 356 444
#     4  11  26  45  74 104 147 190 245 301 366 434
#     4  11  26  45  74 104 147 190 245 301 366 434
#
# _framework density 28.496212
#
# number of rings (size 3 to 8) (size 9 to 14) (size 15 to 20)
#    0.000    1.333    0.000    2.000   18.667    5.333 
#    0.000    0.000    0.000    0.000    0.000    0.000 
#    0.000    0.000    0.000    0.000    0.000    0.000 
#
# Total GULP energy -134055.201014 kJ/mol
# GULP energy per Si atom -5585.633376 kJ/mol
# Density = 2.843135 g / cm^3
# Si number density = 28.496212 Si / 1000 Ang^3
#
#
#
# Elastic Constant Matrix: (Units=GPa)
#
#
# Indices 1 2 3 4 5 6 
#
# 1 178.7967 8.2450 49.9299 0.0000 0.0000 0.0000
# 2 8.2450 99.5240 35.8619 0.0000 0.0000 0.0000
# 3 49.9299 35.8619 224.3627 0.0000 0.0000 0.0000
# 4 0.0000 0.0000 0.0000 34.9244 0.0000 0.0000
# 5 0.0000 0.0000 0.0000 0.0000-1566.6640 0.0000
# 6 0.0000 0.0000 0.0000 0.0000 0.0000 26.3897
#
#
#
# Elastic Compliance Matrix: (Units=1/GPa)
#
#
# Indices 1 2 3 4 5 6 
#
# 1 0.005964 -0.000017 -0.001324 0.000000 0.000000 0.000000
# 2 -0.000017 0.010662 -0.001700 0.000000 0.000000 0.000000
# 3 -0.001324 -0.001700 0.005024 0.000000 0.000000 0.000000
# 4 0.000000 0.000000 0.000000 0.028633 0.000000 0.000000
# 5 0.000000 0.000000 0.000000 0.000000 -0.000638 0.000000
# 6 0.000000 0.000000 0.000000 0.000000 0.000000 0.037894
#
#
# Mechanical properties :
#
#
# Convention : Reuss Voigt Hill
#
# Bulk Modulus (GPa) = 64.24376 76.75080 70.49728
# Shear Modulus (GPa) = 50.60230 -273.82688 -111.61229
#
# Velocity S-wave (km/s) = 4.21854 -9.81331 -6.26518
# Velocity P-wave (km/s) = 6.80601 10.07021 5.24821
#
# Compressibility (1/GPa) = 0.01556571
#
# Stress axis : x y z
#
# Youngs Moduli (GPa) = 167.68453 93.79145 199.05984
#
# Poissons Ratio (x) = 0.00158 0.26365
# Poissons Ratio (y) = 0.00282 0.33849
# Poissons Ratio (z) = 0.22209 0.15949
#
# Static dielectric constant tensor:
#      x y z
#    x 2.267940 0.000000 0.000000 
#    y 0.000000 2.434990 0.000000 
#    z 0.000000 0.000000 2.075510 
# 
# From -- ./inp_files/3823.got.cif
#   From: 2010.05.17/outbox.cif.g08.bks.cpg/sg66_2_cif.got.tgz:3823.got - 2010.06.03 17:51:23.
