data_PCOD9499863
_publ_section_title
;
Structure prediction by ZEFSAII (Michael W. Deem and Ramdas Pophale) SiO2 
 PCOD9499863
Probable space group: C C C M
;
_chemical_formula_sum "Si O2"
_cell_formula_units_Z 64
_cell_length_a 15.647998
_cell_length_b 12.042417
_cell_length_c 14.845349
_cell_angle_alpha 90.000000
_cell_angle_beta 90.000000
_cell_angle_gamma 90.000000
_cell_volume 2797.453366
_symmetry_space_group_name_H-M "C C C M"
_symmetry_group_IT_number 66
_symmetry_cell_setting 'orthorhombic'
loop_
_space_group_symop_operation_xyz
x,y,z
-x,-y,z
x,-y,1/2-z
-x,y,1/2-z
-x,-y,-z
x,y,-z
-x,y,1/2+z
x,-y,1/2+z
1/2+x,1/2+y,z
1/2-x,1/2-y,z
1/2+x,1/2-y,1/2-z
1/2-x,1/2+y,1/2-z
1/2-x,1/2-y,-z
1/2+x,1/2+y,-z
1/2-x,1/2+y,1/2+z
1/2+x,1/2-y,1/2+z
loop_
_atom_site_type_symbol
_atom_site_label
_atom_site_fract_x
_atom_site_fract_y
_atom_site_fract_z
Si Si1 0.101394 0.019611 0.109594
Si Si2 0.758981 0.368189 0.833544
Si Si3 0.661583 0.237266 0.351642
Si Si4 0.410831 0.018911 0.899430
O O1 0.122439 0.140717 0.151074
O O2 0.167430 0.931050 0.155164
O O3 0.116372 0.019633 0.000000
O O4 0.000000 0.000000 0.123835
O O5 0.750000 0.250000 0.884275
O O6 0.806104 0.324429 0.740693
O O7 0.826927 0.458626 0.864707
O O8 0.750000 0.250000 0.403600
O O9 0.601253 0.150164 0.398320
O O10 0.500000 0.000000 0.850381
O O11 0.419041 0.973453 0.000000
#
# Coordination Sequence:
#
# PCOD9499863 Si02
#       4
#    16  16  16  16
#     4  11  26  49  78 112 150 198 255 311 373 444
#     4  11  26  45  70 106 148 191 242 305 375 443
#     4  11  24  45  73 104 143 193 244 301 370 445
#     4  11  25  44  71 105 142 190 246 306 369 435
#
# _framework density 22.877949999999998
#
# number of rings (size 3 to 8) (size 9 to 14) (size 15 to 20)
#    0.000    1.000    2.500    2.250    7.000    5.000 
#    4.500    5.000    0.000    0.000    0.000    0.000 
#    0.000    0.000    0.000    0.000    0.000    0.000 
#
# Total GULP energy -178184.570586 kJ/mol
# GULP energy per Si atom -5568.267831 kJ/mol
# Density = 2.282588 g / cm^3
# Si number density = 22.877950 Si / 1000 Ang^3
#
#
#
# Elastic Constant Matrix: (Units=GPa)
#
#
# Indices 1 2 3 4 5 6 
#
# 1 194.4765 99.2971 31.4870 0.0000 0.0000 0.0000
# 2 99.2971 201.6122 25.2884 0.0000 0.0000 0.0000
# 3 31.4870 25.2884 117.9802 0.0000 0.0000 0.0000
# 4 0.0000 0.0000 0.0000 -33.3539 0.0000 0.0000
# 5 0.0000 0.0000 0.0000 0.0000 2.2962 0.0000
# 6 0.0000 0.0000 0.0000 0.0000 0.0000 45.0064
#
#
#
# Elastic Compliance Matrix: (Units=1/GPa)
#
#
# Indices 1 2 3 4 5 6 
#
# 1 0.007022 -0.003312 -0.001164 0.000000 0.000000 0.000000
# 2 -0.003312 0.006660 -0.000543 0.000000 0.000000 0.000000
# 3 -0.001164 -0.000543 0.008903 0.000000 0.000000 0.000000
# 4 0.000000 0.000000 0.000000 -0.029981 0.000000 0.000000
# 5 0.000000 0.000000 0.000000 0.000000 0.435502 0.000000
# 6 0.000000 0.000000 0.000000 0.000000 0.000000 0.022219
#
#
# Mechanical properties :
#
#
# Convention : Reuss Voigt Hill
#
# Bulk Modulus (GPa) = 79.71369 91.80153 85.75761
# Shear Modulus (GPa) = 10.76322 26.65617 18.70969
#
# Velocity S-wave (km/s) = 2.17137 3.41713 2.86283
# Velocity P-wave (km/s) = 6.41912 7.46879 6.96376
#
# Compressibility (1/GPa) = 0.01254490
#
# Stress axis : x y z
#
# Youngs Moduli (GPa) = 142.41617 150.16078 112.32003
#
# Poissons Ratio (x) = 0.49737 0.13074
# Poissons Ratio (y) = 0.47172 0.06104
# Poissons Ratio (z) = 0.16577 0.08160
#
# Static dielectric constant tensor:
#      x y z
#    x 1.981420 0.000000 0.000000 
#    y 0.000000 1.823020 0.000000 
#    z 0.000000 0.000000 2.039440 
# 
# From -- ./inp_files/39782.got.cif
#   From: 2010.05.17/outbox.cif.g08.bks.cpg/sg66_20_cif.got.tgz:39782.got - 2010.06.03 17:51:23.
