data_PCOD9499041
_publ_section_title
;
Structure prediction by ZEFSAII (Michael W. Deem and Ramdas Pophale) SiO2 
 PCOD9499041
Probable space group: C C C M
;
_chemical_formula_sum "Si O2"
_cell_formula_units_Z 72
_cell_length_a 12.228262
_cell_length_b 9.456039
_cell_length_c 28.078138
_cell_angle_alpha 90.000000
_cell_angle_beta 90.000000
_cell_angle_gamma 90.000000
_cell_volume 3246.700995
_symmetry_space_group_name_H-M "C C C M"
_symmetry_group_IT_number 66
_symmetry_cell_setting 'orthorhombic'
loop_
_space_group_symop_operation_xyz
x,y,z
-x,-y,z
x,-y,1/2-z
-x,y,1/2-z
-x,-y,-z
x,y,-z
-x,y,1/2+z
x,-y,1/2+z
1/2+x,1/2+y,z
1/2-x,1/2-y,z
1/2+x,1/2-y,1/2-z
1/2-x,1/2+y,1/2-z
1/2-x,1/2-y,-z
1/2+x,1/2+y,-z
1/2-x,1/2+y,1/2+z
1/2+x,1/2-y,1/2+z
loop_
_atom_site_type_symbol
_atom_site_label
_atom_site_fract_x
_atom_site_fract_y
_atom_site_fract_z
Si Si1 0.923545 0.293328 0.101053
Si Si2 0.328570 0.467790 0.000000
Si Si3 0.000000 0.500000 0.175262
Si Si4 0.533883 0.737374 0.500000
Si Si5 0.793857 0.979243 0.604152
Si Si6 0.739934 0.914613 0.794144
O O1 0.898582 0.126117 0.103484
O O2 0.810685 0.377191 0.106415
O O3 0.995838 0.360525 0.141947
O O4 0.968115 0.322663 0.048499
O O5 0.280747 0.443383 0.052974
O O6 0.434929 0.371121 0.000000
O O7 0.358095 0.636162 0.000000
O O8 0.115691 0.476771 0.201194
O O9 0.792634 0.064092 0.653370
O O10 0.750000 0.750000 0.782416
O O11 0.792105 0.000000 0.750000
#
# Coordination Sequence:
#
# PCOD9499041 Si02
#       6
#    16   8   8   8  16  16
#     4   9  18  34  60  86 124 169 207 261 320 389
#     4   9  17  31  55  89 125 163 202 271 307 389
#     4  10  23  41  66  92 132 163 214 278 331 386
#     4   9  17  28  52  87 127 164 210 254 320 379
#     4   9  19  37  62  90 122 165 219 255 326 390
#     4  11  26  45  71  94 130 172 218 275 335 391
#
# _framework density 22.176356999999999
#
# number of rings (size 3 to 8) (size 9 to 14) (size 15 to 20)
#    0.000    2.444    0.000    1.000    9.333    3.111 
#    0.000    1.667    0.000    0.000    0.000    0.000 
#    0.000    0.000    0.000    0.000    0.000    0.000 
#
# Total GULP energy -200669.534611 kJ/mol
# GULP energy per Si atom -5574.153739 kJ/mol
# Density = 2.212588 g / cm^3
# Si number density = 22.176357 Si / 1000 Ang^3
#
#
#
# Elastic Constant Matrix: (Units=GPa)
#
#
# Indices 1 2 3 4 5 6 
#
# 1 15.7610 -3.5231 11.6899 0.0000 0.0000 0.0000
# 2 -3.5231 88.4370 54.3317 0.0000 0.0000 0.0000
# 3 11.6899 54.3317 190.1388 0.0000 0.0000 0.0000
# 4 0.0000 0.0000 0.0000 35.1145 0.0000 0.0000
# 5 0.0000 0.0000 0.0000 0.0000 98.5850 0.0000
# 6 0.0000 0.0000 0.0000 0.0000 0.0000 14.8045
#
#
#
# Elastic Compliance Matrix: (Units=1/GPa)
#
#
# Indices 1 2 3 4 5 6 
#
# 1 0.069463 0.006539 -0.006139 0.000000 0.000000 0.000000
# 2 0.006539 0.014331 -0.004497 0.000000 0.000000 0.000000
# 3 -0.006139 -0.004497 0.006922 0.000000 0.000000 0.000000
# 4 0.000000 0.000000 0.000000 0.028478 0.000000 0.000000
# 5 0.000000 0.000000 0.000000 0.000000 0.010144 0.000000
# 6 0.000000 0.000000 0.000000 0.000000 0.000000 0.067547
#
#
# Mechanical properties :
#
#
# Convention : Reuss Voigt Hill
#
# Bulk Modulus (GPa) = 12.11819 46.59264 29.35542
# Shear Modulus (GPa) = 21.49749 45.15668 33.32708
#
# Velocity S-wave (km/s) = 3.11688 4.51738 3.88083
# Velocity P-wave (km/s) = 4.29297 6.94728 5.77469
#
# Compressibility (1/GPa) = 0.08252056
#
# Stress axis : x y z
#
# Youngs Moduli (GPa) = 14.39624 69.78021 144.47210
#
# Poissons Ratio (x) = -0.45628 0.88692
# Poissons Ratio (y) = -0.09413 0.64969
# Poissons Ratio (z) = 0.08838 0.31380
#
# Static dielectric constant tensor:
#      x y z
#    x 1.851190 0.000000 0.000000 
#    y 0.000000 1.833750 0.000000 
#    z 0.000000 0.000000 1.870420 
# 
# From -- ./inp_files/64364.got.cif
#   From: 2010.05.17/outbox.cif.g08.bks.cpg/sg66_33_cif.got.tgz:64364.got - 2010.06.03 17:51:23.
