data_PCOD9499880
_publ_section_title
;
Structure prediction by ZEFSAII (Michael W. Deem and Ramdas Pophale) SiO2 
 PCOD9499880
Probable space group: C C C M
;
_chemical_formula_sum "Si O2"
_cell_formula_units_Z 80
_cell_length_a 9.063567
_cell_length_b 15.953156
_cell_length_c 25.498602
_cell_angle_alpha 90.000000
_cell_angle_beta 90.000000
_cell_angle_gamma 90.000000
_cell_volume 3686.906566
_symmetry_space_group_name_H-M "C C C M"
_symmetry_group_IT_number 66
_symmetry_cell_setting 'orthorhombic'
loop_
_space_group_symop_operation_xyz
x,y,z
-x,-y,z
x,-y,1/2-z
-x,y,1/2-z
-x,-y,-z
x,y,-z
-x,y,1/2+z
x,-y,1/2+z
1/2+x,1/2+y,z
1/2-x,1/2-y,z
1/2+x,1/2-y,1/2-z
1/2-x,1/2+y,1/2-z
1/2-x,1/2-y,-z
1/2+x,1/2+y,-z
1/2-x,1/2+y,1/2+z
1/2+x,1/2-y,1/2+z
loop_
_atom_site_type_symbol
_atom_site_label
_atom_site_fract_x
_atom_site_fract_y
_atom_site_fract_z
Si Si1 0.597686 0.704972 0.640379
Si Si2 0.157231 0.537097 0.376726
Si Si3 0.347666 0.334748 0.061672
Si Si4 0.147769 0.047647 0.695758
Si Si5 0.385269 0.184527 0.797291
O O1 0.750000 0.750000 0.625567
O O2 0.500515 0.661985 0.594648
O O3 0.614396 0.646305 0.692827
O O4 0.486738 0.775974 0.658492
O O5 0.245719 0.587480 0.420480
O O6 0.240587 0.458424 0.352033
O O7 0.163694 0.599253 0.325805
O O8 0.000000 0.500000 0.392276
O O9 0.250000 0.250000 0.072248
O O10 0.378345 0.336372 0.000000
O O11 0.187702 0.000000 0.750000
O O12 0.000000 0.000000 0.679775
O O13 0.500000 0.167951 0.750000
O O14 0.250000 0.250000 0.786872
#
# Coordination Sequence:
#
# PCOD9499880 Si02
#       5
#    16  16  16  16  16
#     4  12  24  44  70 101 136 182 235 284 339 418
#     4  12  25  44  66 100 140 172 229 284 341 421
#     4  11  24  49  75  97 131 179 233 297 356 408
#     4  11  25  41  62  97 143 182 214 275 349 402
#     4  12  25  42  66  98 138 187 236 272 332 419
#
# _framework density 21.698405999999999
#
# number of rings (size 3 to 8) (size 9 to 14) (size 15 to 20)
#    0.000    0.400    6.000    1.800   11.200    0.800 
#    0.000    2.000    0.000    0.000    0.000    0.000 
#    0.000    0.000    0.000    0.000    0.000    0.000 
#
# Total GULP energy -223059.816589 kJ/mol
# GULP energy per Si atom -5576.495415 kJ/mol
# Density = 2.164902 g / cm^3
# Si number density = 21.698406 Si / 1000 Ang^3
#
#
#
# Elastic Constant Matrix: (Units=GPa)
#
#
# Indices 1 2 3 4 5 6 
#
# 1 532.4775 -118.0630 165.8980 0.0000 0.0000 0.0000
# 2 -118.0630 107.1616 -26.5797 0.0000 0.0000 0.0000
# 3 165.8980 -26.5797 143.0085 0.0000 0.0000 0.0000
# 4 0.0000 0.0000 0.0000 29.0305 0.0000 0.0000
# 5 0.0000 0.0000 0.0000 0.0000 27.7066 0.0000
# 6 0.0000 0.0000 0.0000 0.0000 0.0000 39.6264
#
#
#
# Elastic Compliance Matrix: (Units=1/GPa)
#
#
# Indices 1 2 3 4 5 6 
#
# 1 0.003765 0.003213 -0.003771 0.000000 0.000000 0.000000
# 2 0.003213 0.012524 -0.001399 0.000000 0.000000 0.000000
# 3 -0.003771 -0.001399 0.011107 0.000000 0.000000 0.000000
# 4 0.000000 0.000000 0.000000 0.034447 0.000000 0.000000
# 5 0.000000 0.000000 0.000000 0.000000 0.036093 0.000000
# 6 0.000000 0.000000 0.000000 0.000000 0.000000 0.025236
#
#
# Mechanical properties :
#
#
# Convention : Reuss Voigt Hill
#
# Bulk Modulus (GPa) = 42.58575 91.68424 67.13499
# Shear Modulus (GPa) = 37.06102 70.03219 53.54660
#
# Velocity S-wave (km/s) = 4.13729 5.68730 4.97305
# Velocity P-wave (km/s) = 6.51856 9.24515 7.99889
#
# Compressibility (1/GPa) = 0.02348203
#
# Stress axis : x y z
#
# Youngs Moduli (GPa) = 265.59086 79.84401 90.03593
#
# Poissons Ratio (x) = -0.25654 0.33950
# Poissons Ratio (y) = -0.85333 0.12600
# Poissons Ratio (z) = 1.00145 0.11174
#
# Static dielectric constant tensor:
#      x y z
#    x 1.790580 0.000000 0.000000 
#    y 0.000000 1.799570 0.000000 
#    z 0.000000 0.000000 1.798900 
# 
# From -- ./inp_files/62393.got.cif
#   From: 2010.05.17/outbox.cif.g08.bks.cpg/sg66_32_cif.got.tgz:62393.got - 2010.06.03 17:51:23.
