data_PCOD9499776
_publ_section_title
;
Structure prediction by ZEFSAII (Michael W. Deem and Ramdas Pophale) SiO2 
 PCOD9499776
Probable space group: C C C M
;
_chemical_formula_sum "Si O2"
_cell_formula_units_Z 68
_cell_length_a 8.710305
_cell_length_b 16.737405
_cell_length_c 17.404251
_cell_angle_alpha 90.000000
_cell_angle_beta 90.000000
_cell_angle_gamma 90.000000
_cell_volume 2537.329247
_symmetry_space_group_name_H-M "C C C M"
_symmetry_group_IT_number 66
_symmetry_cell_setting 'orthorhombic'
loop_
_space_group_symop_operation_xyz
x,y,z
-x,-y,z
x,-y,1/2-z
-x,y,1/2-z
-x,-y,-z
x,y,-z
-x,y,1/2+z
x,-y,1/2+z
1/2+x,1/2+y,z
1/2-x,1/2-y,z
1/2+x,1/2-y,1/2-z
1/2-x,1/2+y,1/2-z
1/2-x,1/2-y,-z
1/2+x,1/2+y,-z
1/2-x,1/2+y,1/2+z
1/2+x,1/2-y,1/2+z
loop_
_atom_site_type_symbol
_atom_site_label
_atom_site_fract_x
_atom_site_fract_y
_atom_site_fract_z
Si Si1 0.981340 0.335954 0.913356
Si Si2 0.406487 0.697937 0.307632
Si Si3 0.771867 0.903725 0.330245
Si Si4 0.000000 0.500000 0.250000
Si Si5 0.284850 0.563118 0.411066
O O1 0.806020 0.363060 0.903703
O O2 0.999526 0.271731 0.846280
O O3 0.104434 0.409475 0.903407
O O4 0.012186 0.305770 0.000000
O O5 0.250000 0.750000 0.297254
O O6 0.385833 0.651589 0.220315
O O7 0.375127 0.636624 0.375835
O O8 0.624730 0.935637 0.282663
O O9 0.833153 0.987273 0.361369
O O10 0.313910 0.549602 0.500000
#
# Coordination Sequence:
#
# PCOD9499776 Si02
#       5
#    16  16  16   4  16
#     4  11  25  45  74 109 145 193 247 309 374 436
#     4  12  28  43  68 106 154 199 240 295 371 450
#     4  12  23  44  73 108 142 187 252 312 353 422
#     4  12  20  40  72 104 136 164 244 302 340 404
#     4  11  23  44  74 105 141 189 249 311 369 433
#
# _framework density 26.799833
#
# number of rings (size 3 to 8) (size 9 to 14) (size 15 to 20)
#    0.000    0.471    4.706    2.118    8.235    5.647 
#    0.000    7.059    0.000    0.000    0.000    0.000 
#    0.000    0.000    0.000    0.000    0.000    0.000 
#
# Total GULP energy -189741.797454 kJ/mol
# GULP energy per Si atom -5580.641102 kJ/mol
# Density = 2.673884 g / cm^3
# Si number density = 26.799833 Si / 1000 Ang^3
#
#
#
# Elastic Constant Matrix: (Units=GPa)
#
#
# Indices 1 2 3 4 5 6 
#
# 1 94.8621 33.2988 53.5207 0.0000 0.0000 0.0000
# 2 33.2988 165.0938 63.4156 0.0000 0.0000 0.0000
# 3 53.5207 63.4156 110.3391 0.0000 0.0000 0.0000
# 4 0.0000 0.0000 0.0000 35.6877 0.0000 0.0000
# 5 0.0000 0.0000 0.0000 0.0000 36.3561 0.0000
# 6 0.0000 0.0000 0.0000 0.0000 0.0000 30.4602
#
#
#
# Elastic Compliance Matrix: (Units=1/GPa)
#
#
# Indices 1 2 3 4 5 6 
#
# 1 0.014524 -0.000287 -0.006880 0.000000 0.000000 0.000000
# 2 -0.000287 0.007779 -0.004332 0.000000 0.000000 0.000000
# 3 -0.006880 -0.004332 0.014890 0.000000 0.000000 0.000000
# 4 0.000000 0.000000 0.000000 0.028021 0.000000 0.000000
# 5 0.000000 0.000000 0.000000 0.000000 0.027506 0.000000
# 6 0.000000 0.000000 0.000000 0.000000 0.000000 0.032830
#
#
# Mechanical properties :
#
#
# Convention : Reuss Voigt Hill
#
# Bulk Modulus (GPa) = 70.44460 74.52947 72.48704
# Shear Modulus (GPa) = 32.62043 35.17147 33.89595
#
# Velocity S-wave (km/s) = 3.49261 3.62660 3.56024
# Velocity P-wave (km/s) = 6.52740 6.73843 6.63375
#
# Compressibility (1/GPa) = 0.01419555
#
# Stress axis : x y z
#
# Youngs Moduli (GPa) = 68.85141 128.55322 67.15963
#
# Poissons Ratio (x) = 0.03684 0.46208
# Poissons Ratio (y) = 0.01973 0.29092
# Poissons Ratio (z) = 0.47372 0.55686
#
# Static dielectric constant tensor:
#      x y z
#    x -7.538680 0.000000 0.000000 
#    y 0.000000 1.694530 0.000000 
#    z 0.000000 0.000000 2.057770 
# 
# From -- ./inp_files/48226.got.cif
#   From: 2010.05.17/outbox.cif.g08.bks.cpg/sg66_25_cif.got.tgz:48226.got - 2010.06.03 17:51:23.
