data_PCOD9499393
_publ_section_title
;
Structure prediction by ZEFSAII (Michael W. Deem and Ramdas Pophale) SiO2 
 PCOD9499393
Probable space group: C C C M
;
_chemical_formula_sum "Si O2"
_cell_formula_units_Z 100
_cell_length_a 27.861088
_cell_length_b 9.935082
_cell_length_c 18.086546
_cell_angle_alpha 90.000000
_cell_angle_beta 90.000000
_cell_angle_gamma 90.000000
_cell_volume 5006.395613
_symmetry_space_group_name_H-M "C C C M"
_symmetry_group_IT_number 66
_symmetry_cell_setting 'orthorhombic'
loop_
_space_group_symop_operation_xyz
x,y,z
-x,-y,z
x,-y,1/2-z
-x,y,1/2-z
-x,-y,-z
x,y,-z
-x,y,1/2+z
x,-y,1/2+z
1/2+x,1/2+y,z
1/2-x,1/2-y,z
1/2+x,1/2-y,1/2-z
1/2-x,1/2+y,1/2-z
1/2-x,1/2-y,-z
1/2+x,1/2+y,-z
1/2-x,1/2+y,1/2+z
1/2+x,1/2-y,1/2+z
loop_
_atom_site_type_symbol
_atom_site_label
_atom_site_fract_x
_atom_site_fract_y
_atom_site_fract_z
Si Si1 0.640701 0.532564 0.338577
Si Si2 0.206255 0.356141 0.911234
Si Si3 0.500000 0.500000 0.750000
Si Si4 0.896996 0.251232 0.358972
Si Si5 0.431643 0.273424 0.306666
Si Si6 0.252003 0.414262 0.673226
Si Si7 0.497658 0.157760 0.078759
O O1 0.640002 0.500000 0.250000
O O2 0.612983 0.407008 0.372555
O O3 0.614123 0.672715 0.350320
O O4 0.695593 0.549099 0.358496
O O5 0.250000 0.250000 0.889948
O O6 0.154757 0.314778 0.876943
O O7 0.216812 0.507057 0.882129
O O8 0.203121 0.351778 0.000000
O O9 0.534960 0.595643 0.705197
O O10 0.913087 0.273930 0.273335
O O11 0.943206 0.298324 0.404203
O O12 0.466123 0.182888 0.354132
O O13 0.246789 0.500000 0.750000
O O14 0.250000 0.250000 0.682636
O O15 0.500000 0.000000 0.070981
O O16 0.512800 0.221259 0.000000
#
# Coordination Sequence:
#
# PCOD9499393 Si02
#       7
#    16  16   4  16  16  16  16
#     4   9  19  36  62  93 128 166 215 282 331 396
#     4  11  24  43  68 100 138 178 229 285 343 414
#     4  12  16  36  60  92 120 152 206 286 316 380
#     4  11  20  40  69  93 129 176 229 272 340 405
#     4  11  20  37  66  94 127 167 220 279 328 396
#     4  11  24  41  66  99 137 178 231 288 341 403
#     4  11  25  43  60  90 138 178 219 279 340 406
#
# _framework density 19.974450000000001
#
# number of rings (size 3 to 8) (size 9 to 14) (size 15 to 20)
#    0.000    1.280    5.600    0.960    4.480    2.880 
#    0.000    5.200    0.000    0.000    0.000    0.000 
#    0.000    0.640    0.000    0.000    0.000    0.000 
#
# Total GULP energy -278573.425197 kJ/mol
# GULP energy per Si atom -5571.468504 kJ/mol
# Density = 1.992899 g / cm^3
# Si number density = 19.974450 Si / 1000 Ang^3
#
#
#
# Elastic Constant Matrix: (Units=GPa)
#
#
# Indices 1 2 3 4 5 6 
#
# 1 106.2743 23.4050 54.5629 0.0000 0.0000 0.0000
# 2 23.4050 98.7884 45.7922 0.0000 0.0000 0.0000
# 3 54.5629 45.7922 84.8746 0.0000 0.0000 0.0000
# 4 0.0000 0.0000 0.0000 41.9318 0.0000 0.0000
# 5 0.0000 0.0000 0.0000 0.0000 4.2797 0.0000
# 6 0.0000 0.0000 0.0000 0.0000 0.0000 21.0496
#
#
#
# Elastic Compliance Matrix: (Units=1/GPa)
#
#
# Indices 1 2 3 4 5 6 
#
# 1 0.014143 0.001152 -0.009713 0.000000 0.000000 0.000000
# 2 0.001152 0.013592 -0.008074 0.000000 0.000000 0.000000
# 3 -0.009713 -0.008074 0.022383 0.000000 0.000000 0.000000
# 4 0.000000 0.000000 0.000000 0.023848 0.000000 0.000000
# 5 0.000000 0.000000 0.000000 0.000000 0.233662 0.000000
# 6 0.000000 0.000000 0.000000 0.000000 0.000000 0.047507
#
#
# Mechanical properties :
#
#
# Convention : Reuss Voigt Hill
#
# Bulk Modulus (GPa) = 59.35836 59.71752 59.53794
# Shear Modulus (GPa) = 12.68965 24.53069 18.61017
#
# Velocity S-wave (km/s) = 2.52324 3.50823 3.05569
# Velocity P-wave (km/s) = 6.18633 6.80971 6.50549
#
# Compressibility (1/GPa) = 0.01684683
#
# Stress axis : x y z
#
# Youngs Moduli (GPa) = 70.70640 73.57099 44.67757
#
# Poissons Ratio (x) = -0.08474 0.43397
# Poissons Ratio (y) = -0.08144 0.36072
# Poissons Ratio (z) = 0.68680 0.59400
#
# Static dielectric constant tensor:
#      x y z
#    x 1.698400 0.000000 0.000000 
#    y 0.000000 1.711260 0.000000 
#    z 0.000000 0.000000 0.892300 
# 
# From -- ./inp_files/53064.got.cif
#   From: 2010.05.17/outbox.cif.g08.bks.cpg/sg66_27_cif.got.tgz:53064.got - 2010.06.03 17:51:23.
