data_PCOD9499769
_publ_section_title
;
Structure prediction by ZEFSAII (Michael W. Deem and Ramdas Pophale) SiO2 
 PCOD9499769
Probable space group: C C C M
;
_chemical_formula_sum "Si O2"
_cell_formula_units_Z 64
_cell_length_a 13.432588
_cell_length_b 8.521587
_cell_length_c 26.046081
_cell_angle_alpha 90.000000
_cell_angle_beta 90.000000
_cell_angle_gamma 90.000000
_cell_volume 2981.415902
_symmetry_space_group_name_H-M "C C C M"
_symmetry_group_IT_number 66
_symmetry_cell_setting 'orthorhombic'
loop_
_space_group_symop_operation_xyz
x,y,z
-x,-y,z
x,-y,1/2-z
-x,y,1/2-z
-x,-y,-z
x,y,-z
-x,y,1/2+z
x,-y,1/2+z
1/2+x,1/2+y,z
1/2-x,1/2-y,z
1/2+x,1/2-y,1/2-z
1/2-x,1/2+y,1/2-z
1/2-x,1/2-y,-z
1/2+x,1/2+y,-z
1/2-x,1/2+y,1/2+z
1/2+x,1/2-y,1/2+z
loop_
_atom_site_type_symbol
_atom_site_label
_atom_site_fract_x
_atom_site_fract_y
_atom_site_fract_z
Si Si1 0.047363 0.172570 0.057025
Si Si2 0.076639 0.375808 0.359447
Si Si3 0.109485 0.077376 0.698514
Si Si4 0.737340 0.584783 0.884752
O O1 0.164413 0.144081 0.069480
O O2 0.986730 0.273549 0.099038
O O3 0.036972 0.242234 0.000000
O O4 0.000000 0.000000 0.056872
O O5 0.108206 0.263138 0.312306
O O6 0.163493 0.477830 0.388078
O O7 0.000000 0.500000 0.337311
O O8 0.153499 0.000000 0.750000
O O9 0.167562 0.020465 0.649418
O O10 0.000000 0.000000 0.695534
O O11 0.750000 0.750000 0.855489
#
# Coordination Sequence:
#
# PCOD9499769 Si02
#       4
#    16  16  16  16
#     4  11  24  44  68  99 139 182 232 282 341 406
#     4  12  23  44  71 100 139 183 227 283 347 405
#     4  11  23  44  70  97 134 175 224 285 339 412
#     4  12  23  42  68  97 140 178 226 284 342 404
#
# _framework density 21.46631
#
# number of rings (size 3 to 8) (size 9 to 14) (size 15 to 20)
#    0.000    0.500    7.500    0.750    0.000    4.000 
#    0.000   10.000    0.000    0.000    0.000    0.000 
#    0.000    0.000    0.000    0.000    0.000    0.000 
#
# Total GULP energy -178180.750478 kJ/mol
# GULP energy per Si atom -5568.148452 kJ/mol
# Density = 2.141745 g / cm^3
# Si number density = 21.466310 Si / 1000 Ang^3
#
#
#
# Elastic Constant Matrix: (Units=GPa)
#
#
# Indices 1 2 3 4 5 6 
#
# 1 100.7650 31.9442 11.6336 0.0000 0.0000 0.0000
# 2 31.9442 131.7570 27.2357 0.0000 0.0000 0.0000
# 3 11.6336 27.2357 75.8002 0.0000 0.0000 0.0000
# 4 0.0000 0.0000 0.0000 25.6146 0.0000 0.0000
# 5 0.0000 0.0000 0.0000 0.0000 11.8915 0.0000
# 6 0.0000 0.0000 0.0000 0.0000 0.0000 48.7527
#
#
#
# Elastic Compliance Matrix: (Units=1/GPa)
#
#
# Indices 1 2 3 4 5 6 
#
# 1 0.010792 -0.002457 -0.000774 0.000000 0.000000 0.000000
# 2 -0.002457 0.008758 -0.002770 0.000000 0.000000 0.000000
# 3 -0.000774 -0.002770 0.014307 0.000000 0.000000 0.000000
# 4 0.000000 0.000000 0.000000 0.039040 0.000000 0.000000
# 5 0.000000 0.000000 0.000000 0.000000 0.084093 0.000000
# 6 0.000000 0.000000 0.000000 0.000000 0.000000 0.020512
#
#
# Mechanical properties :
#
#
# Convention : Reuss Voigt Hill
#
# Bulk Modulus (GPa) = 45.75298 49.99438 47.87368
# Shear Modulus (GPa) = 25.40812 33.08567 29.24689
#
# Velocity S-wave (km/s) = 3.44412 3.93018 3.69515
# Velocity P-wave (km/s) = 6.09722 6.62837 6.36834
#
# Compressibility (1/GPa) = 0.02185650
#
# Stress axis : x y z
#
# Youngs Moduli (GPa) = 92.65960 114.18303 69.89818
#
# Poissons Ratio (x) = 0.28050 0.05408
# Poissons Ratio (y) = 0.22763 0.19360
# Poissons Ratio (z) = 0.07169 0.31626
#
# Static dielectric constant tensor:
#      x y z
#    x 1.895990 0.000000 0.000000 
#    y 0.000000 1.579310 0.000000 
#    z 0.000000 0.000000 1.796780 
# 
# From -- ./inp_files/67925.got.cif
#   From: 2010.05.17/outbox.cif.g08.bks.cpg/sg66_34_cif.got.tgz:67925.got - 2010.06.03 17:51:23.
