data_PCOD9499132
_publ_section_title
;
Structure prediction by ZEFSAII (Michael W. Deem and Ramdas Pophale) SiO2 
 PCOD9499132
Probable space group: C C C M
;
_chemical_formula_sum "Si O2"
_cell_formula_units_Z 48
_cell_length_a 26.259339
_cell_length_b 8.281677
_cell_length_c 9.086054
_cell_angle_alpha 90.000000
_cell_angle_beta 90.000000
_cell_angle_gamma 90.000000
_cell_volume 1975.956555
_symmetry_space_group_name_H-M "C C C M"
_symmetry_group_IT_number 66
_symmetry_cell_setting 'orthorhombic'
loop_
_space_group_symop_operation_xyz
x,y,z
-x,-y,z
x,-y,1/2-z
-x,y,1/2-z
-x,-y,-z
x,y,-z
-x,y,1/2+z
x,-y,1/2+z
1/2+x,1/2+y,z
1/2-x,1/2-y,z
1/2+x,1/2-y,1/2-z
1/2-x,1/2+y,1/2-z
1/2-x,1/2-y,-z
1/2+x,1/2+y,-z
1/2-x,1/2+y,1/2+z
1/2+x,1/2-y,1/2+z
loop_
_atom_site_type_symbol
_atom_site_label
_atom_site_fract_x
_atom_site_fract_y
_atom_site_fract_z
Si Si1 0.570448 0.805656 0.000000
Si Si2 0.254897 0.500000 0.750000
Si Si3 0.318919 0.677877 0.000000
Si Si4 0.500000 0.235547 0.250000
Si Si5 0.815170 0.434845 0.500000
Si Si6 0.064069 0.916900 0.000000
O O1 0.539022 0.857850 0.856369
O O2 0.628606 0.861615 0.000000
O O3 0.566262 0.610506 0.000000
O O4 0.290615 0.399409 0.640124
O O5 0.217105 0.603273 0.645492
O O6 0.377849 0.635796 0.000000
O O7 0.316693 0.870409 0.000000
O O8 0.535141 0.343212 0.141169
#
# Coordination Sequence:
#
# PCOD9499132 Si02
#       6
#     8   8   8   8   8   8
#     4  11  23  43  75 105 143 197 237 300 363 428
#     4  10  24  50  74 102 146 192 240 296 364 438
#     4  11  27  47  77 109 146 190 248 307 359 442
#     4  10  23  46  71 110 147 193 250 293 350 449
#     4  11  27  47  75 111 151 183 245 310 373 427
#     4  11  23  41  75 103 146 192 250 289 353 438
#
# _framework density 24.292031000000001
#
# number of rings (size 3 to 8) (size 9 to 14) (size 15 to 20)
#    0.000    1.333    0.000    6.000    9.333    2.667 
#    0.000   13.333    0.000    0.000    0.000    0.000 
#    0.000    0.000    0.000    0.000    0.000    0.000 
#
# Total GULP energy -134568.519888 kJ/mol
# GULP energy per Si atom -5607.021662 kJ/mol
# Density = 2.423674 g / cm^3
# Si number density = 24.292031 Si / 1000 Ang^3
#
#
#
# Elastic Constant Matrix: (Units=GPa)
#
#
# Indices 1 2 3 4 5 6 
#
# 1 293.0719 69.9680 129.5295 0.0000 0.0000 0.0000
# 2 69.9680 91.8554 64.0958 0.0000 0.0000 0.0000
# 3 129.5295 64.0958 233.5305 0.0000 0.0000 0.0000
# 4 0.0000 0.0000 0.0000 34.3442 0.0000 0.0000
# 5 0.0000 0.0000 0.0000 0.0000 14.9475 0.0000
# 6 0.0000 0.0000 0.0000 0.0000 0.0000 60.6592
#
#
#
# Elastic Compliance Matrix: (Units=1/GPa)
#
#
# Indices 1 2 3 4 5 6 
#
# 1 0.004871 -0.002258 -0.002082 0.000000 0.000000 0.000000
# 2 -0.002258 0.014512 -0.002731 0.000000 0.000000 0.000000
# 3 -0.002082 -0.002731 0.006187 0.000000 0.000000 0.000000
# 4 0.000000 0.000000 0.000000 0.029117 0.000000 0.000000
# 5 0.000000 0.000000 0.000000 0.000000 0.066901 0.000000
# 6 0.000000 0.000000 0.000000 0.000000 0.000000 0.016486
#
#
# Mechanical properties :
#
#
# Convention : Reuss Voigt Hill
#
# Bulk Modulus (GPa) = 87.50141 127.29382 107.39761
# Shear Modulus (GPa) = 32.04632 45.64782 38.84707
#
# Velocity S-wave (km/s) = 3.63603 4.33959 4.00330
# Velocity P-wave (km/s) = 7.32984 8.81049 8.10405
#
# Compressibility (1/GPa) = 0.01142839
#
# Stress axis : x y z
#
# Youngs Moduli (GPa) = 205.27715 68.90914 161.64000
#
# Poissons Ratio (x) = 0.15557 0.33659
# Poissons Ratio (y) = 0.46344 0.44140
# Poissons Ratio (z) = 0.42746 0.18818
#
# Static dielectric constant tensor:
#      x y z
#    x 1.876630 0.000000 0.000000 
#    y 0.000000 2.042680 0.000000 
#    z 0.000000 0.000000 1.946700 
# 
# From -- ./inp_files/2819.got.cif
#   From: 2010.05.17/outbox.cif.g08.bks.cpg/sg66_2_cif.got.tgz:2819.got - 2010.06.03 17:51:23.
