data_PCOD9499068
_publ_section_title
;
Structure prediction by ZEFSAII (Michael W. Deem and Ramdas Pophale) SiO2 
 PCOD9499068
Probable space group: C C C M
;
_chemical_formula_sum "Si O2"
_cell_formula_units_Z 88
_cell_length_a 22.380591
_cell_length_b 7.226343
_cell_length_c 25.699990
_cell_angle_alpha 90.000000
_cell_angle_beta 90.000000
_cell_angle_gamma 90.000000
_cell_volume 4156.454939
_symmetry_space_group_name_H-M "C C C M"
_symmetry_group_IT_number 66
_symmetry_cell_setting 'orthorhombic'
loop_
_space_group_symop_operation_xyz
x,y,z
-x,-y,z
x,-y,1/2-z
-x,y,1/2-z
-x,-y,-z
x,y,-z
-x,y,1/2+z
x,-y,1/2+z
1/2+x,1/2+y,z
1/2-x,1/2-y,z
1/2+x,1/2-y,1/2-z
1/2-x,1/2+y,1/2-z
1/2-x,1/2-y,-z
1/2+x,1/2+y,-z
1/2-x,1/2+y,1/2+z
1/2+x,1/2-y,1/2+z
loop_
_atom_site_type_symbol
_atom_site_label
_atom_site_fract_x
_atom_site_fract_y
_atom_site_fract_z
Si Si1 0.647504 0.689973 0.394068
Si Si2 0.565576 0.018022 0.416923
Si Si3 0.684033 0.184670 0.783877
Si Si4 0.707004 0.450405 0.000000
Si Si5 0.592603 0.500000 0.750000
Si Si6 0.837239 0.630212 0.000000
Si Si7 0.057805 0.891592 0.640451
O O1 0.681457 0.800798 0.347432
O O2 0.684362 0.653034 0.447301
O O3 0.619378 0.491780 0.377610
O O4 0.589064 0.817647 0.401132
O O5 0.619843 0.087999 0.451999
O O6 0.557686 0.176040 0.373555
O O7 0.500000 0.000000 0.441588
O O8 0.750000 0.250000 0.768257
O O9 0.634904 0.334239 0.768560
O O10 0.672136 0.000000 0.750000
O O11 0.678199 0.654281 0.000000
O O12 0.722589 0.995168 0.000000
O O13 0.556876 0.419869 0.701876
O O14 0.000000 0.000000 0.617971
#
# Coordination Sequence:
#
# PCOD9499068 Si02
#       7
#    16  16  16   8   8   8  16
#     4  11  25  43  72  98 141 183 233 289 352 420
#     4  12  24  43  68 103 136 182 234 288 347 421
#     4  11  23  43  66 102 136 180 230 289 356 419
#     4  11  25  50  69 103 137 195 238 288 353 420
#     4  10  23  42  68  94 132 182 229 286 356 420
#     4  11  26  44  70 100 143 183 242 287 343 426
#     4  11  22  44  67  99 135 178 233 288 356 423
#
# _framework density 21.171890000000001
#
# number of rings (size 3 to 8) (size 9 to 14) (size 15 to 20)
#    0.000    0.909    4.545    2.182    2.545    0.727 
#    0.000    1.818    0.000    0.000    0.000    0.000 
#    0.000    0.000    0.000    0.000    0.000    0.000 
#
# Total GULP energy -245362.998208 kJ/mol
# GULP energy per Si atom -5576.431777 kJ/mol
# Density = 2.112370 g / cm^3
# Si number density = 21.171890 Si / 1000 Ang^3
#
#
#
# Elastic Constant Matrix: (Units=GPa)
#
#
# Indices 1 2 3 4 5 6 
#
# 1 116.2710 34.8293 44.9006 0.0000 0.0000 0.0000
# 2 34.8293 123.6804 61.5085 0.0000 0.0000 0.0000
# 3 44.9006 61.5085 137.9910 0.0000 0.0000 0.0000
# 4 0.0000 0.0000 0.0000 106.9008 0.0000 0.0000
# 5 0.0000 0.0000 0.0000 0.0000 18.9063 0.0000
# 6 0.0000 0.0000 0.0000 0.0000 0.0000 36.0952
#
#
#
# Elastic Compliance Matrix: (Units=1/GPa)
#
#
# Indices 1 2 3 4 5 6 
#
# 1 0.010062 -0.001549 -0.002584 0.000000 0.000000 0.000000
# 2 -0.001549 0.010627 -0.004233 0.000000 0.000000 0.000000
# 3 -0.002584 -0.004233 0.009974 0.000000 0.000000 0.000000
# 4 0.000000 0.000000 0.000000 0.009354 0.000000 0.000000
# 5 0.000000 0.000000 0.000000 0.000000 0.052892 0.000000
# 6 0.000000 0.000000 0.000000 0.000000 0.000000 0.027705
#
#
# Mechanical properties :
#
#
# Convention : Reuss Voigt Hill
#
# Bulk Modulus (GPa) = 71.77408 73.37993 72.57701
# Shear Modulus (GPa) = 35.21395 48.16073 41.68734
#
# Velocity S-wave (km/s) = 4.08271 4.77461 4.44215
# Velocity P-wave (km/s) = 7.49659 8.07033 7.78875
#
# Compressibility (1/GPa) = 0.01393261
#
# Stress axis : x y z
#
# Youngs Moduli (GPa) = 99.38081 94.10435 100.25721
#
# Poissons Ratio (x) = 0.14573 0.25905
# Poissons Ratio (y) = 0.15390 0.42437
# Poissons Ratio (z) = 0.25679 0.39832
#
# Static dielectric constant tensor:
#      x y z
#    x 1.760670 0.000000 0.000000 
#    y 0.000000 1.762970 0.000000 
#    z 0.000000 0.000000 1.815440 
# 
# From -- ./inp_files/66426.got.cif
#   From: 2010.05.17/outbox.cif.g08.bks.cpg/sg66_34_cif.got.tgz:66426.got - 2010.06.03 17:51:23.
