data_PCOD9499237
_publ_section_title
;
Structure prediction by ZEFSAII (Michael W. Deem and Ramdas Pophale) SiO2 
 PCOD9499237
Probable space group: C C C M
;
_chemical_formula_sum "Si O2"
_cell_formula_units_Z 88
_cell_length_a 22.791434
_cell_length_b 8.274661
_cell_length_c 23.260080
_cell_angle_alpha 90.000000
_cell_angle_beta 90.000000
_cell_angle_gamma 90.000000
_cell_volume 4386.650820
_symmetry_space_group_name_H-M "C C C M"
_symmetry_group_IT_number 66
_symmetry_cell_setting 'orthorhombic'
loop_
_space_group_symop_operation_xyz
x,y,z
-x,-y,z
x,-y,1/2-z
-x,y,1/2-z
-x,-y,-z
x,y,-z
-x,y,1/2+z
x,-y,1/2+z
1/2+x,1/2+y,z
1/2-x,1/2-y,z
1/2+x,1/2-y,1/2-z
1/2-x,1/2+y,1/2-z
1/2-x,1/2-y,-z
1/2+x,1/2+y,-z
1/2-x,1/2+y,1/2+z
1/2+x,1/2-y,1/2+z
loop_
_atom_site_type_symbol
_atom_site_label
_atom_site_fract_x
_atom_site_fract_y
_atom_site_fract_z
Si Si1 0.750000 0.250000 0.900505
Si Si2 0.314463 0.676505 0.280553
Si Si3 0.009117 0.191984 0.682524
Si Si4 0.260520 0.494461 0.000000
Si Si5 0.892515 0.688783 0.127378
Si Si6 0.352345 0.764099 0.500000
Si Si7 0.364268 0.830400 0.170827
O O1 0.746158 0.401341 0.942738
O O2 0.691750 0.240205 0.862533
O O3 0.312337 0.500000 0.250000
O O4 0.250000 0.750000 0.289891
O O5 0.351029 0.681120 0.339570
O O6 0.348204 0.796849 0.237108
O O7 0.073689 0.241950 0.662226
O O8 0.000000 0.233759 0.750000
O O9 0.958687 0.280888 0.647159
O O10 0.000000 0.000000 0.677344
O O11 0.324105 0.413220 0.000000
O O12 0.205725 0.374464 0.000000
O O13 0.871641 0.513976 0.150063
O O14 0.885968 0.702965 0.059078
#
# Coordination Sequence:
#
# PCOD9499237 Si02
#       7
#     8  16  16   8  16   8  16
#     4  11  24  44  72 106 144 177 238 294 352 415
#     4  12  26  40  66 105 144 180 230 298 359 419
#     4  11  25  46  72 102 141 188 235 289 353 424
#     4  10  24  46  68  98 142 197 231 281 345 424
#     4  12  26  46  70 103 143 185 239 285 353 419
#     4  11  26  44  70 104 141 189 237 279 344 420
#     4  12  24  43  72 108 138 178 231 294 362 416
#
# _framework density 20.060863999999999
#
# number of rings (size 3 to 8) (size 9 to 14) (size 15 to 20)
#    0.000    0.545    4.545    3.273    7.636    0.727 
#    0.000    4.091    0.000    0.000    0.000    0.000 
#    0.000    0.000    0.000    0.000    0.000    0.000 
#
# Total GULP energy -246160.359739 kJ/mol
# GULP energy per Si atom -5594.553630 kJ/mol
# Density = 2.001520 g / cm^3
# Si number density = 20.060864 Si / 1000 Ang^3
#
#
#
# Elastic Constant Matrix: (Units=GPa)
#
#
# Indices 1 2 3 4 5 6 
#
# 1 181.7263 38.5801 67.1194 0.0000 0.0000 0.0000
# 2 38.5801 59.9733 41.8496 0.0000 0.0000 0.0000
# 3 67.1194 41.8496 155.7357 0.0000 0.0000 0.0000
# 4 0.0000 0.0000 0.0000 20.1198 0.0000 0.0000
# 5 0.0000 0.0000 0.0000 0.0000 10.6664 0.0000
# 6 0.0000 0.0000 0.0000 0.0000 0.0000 29.1047
#
#
#
# Elastic Compliance Matrix: (Units=1/GPa)
#
#
# Indices 1 2 3 4 5 6 
#
# 1 0.006938 -0.002925 -0.002204 0.000000 0.000000 0.000000
# 2 -0.002925 0.021756 -0.004586 0.000000 0.000000 0.000000
# 3 -0.002204 -0.004586 0.008603 0.000000 0.000000 0.000000
# 4 0.000000 0.000000 0.000000 0.049702 0.000000 0.000000
# 5 0.000000 0.000000 0.000000 0.000000 0.093753 0.000000
# 6 0.000000 0.000000 0.000000 0.000000 0.000000 0.034359
#
#
# Mechanical properties :
#
#
# Convention : Reuss Voigt Hill
#
# Bulk Modulus (GPa) = 55.96795 76.94818 66.45807
# Shear Modulus (GPa) = 20.79043 28.63725 24.71384
#
# Velocity S-wave (km/s) = 3.22276 3.78235 3.51371
# Velocity P-wave (km/s) = 6.46590 7.58390 7.04711
#
# Compressibility (1/GPa) = 0.01786737
#
# Stress axis : x y z
#
# Youngs Moduli (GPa) = 144.13766 45.96530 116.23460
#
# Poissons Ratio (x) = 0.13445 0.25619
# Poissons Ratio (y) = 0.42160 0.53300
# Poissons Ratio (z) = 0.31769 0.21078
#
# Static dielectric constant tensor:
#      x y z
#    x 1.694820 0.000000 0.000000 
#    y 0.000000 1.751730 0.000000 
#    z 0.000000 0.000000 1.700070 
# 
# From -- ./inp_files/59411.got.cif
#   From: 2010.05.17/outbox.cif.g08.bks.cpg/sg66_30_cif.got.tgz:59411.got - 2010.06.03 17:51:23.
