data_PCOD9499462
_publ_section_title
;
Structure prediction by ZEFSAII (Michael W. Deem and Ramdas Pophale) SiO2 
 PCOD9499462
Probable space group: C C C M
;
_chemical_formula_sum "Si O2"
_cell_formula_units_Z 80
_cell_length_a 11.925450
_cell_length_b 21.995675
_cell_length_c 16.284180
_cell_angle_alpha 90.000000
_cell_angle_beta 90.000000
_cell_angle_gamma 90.000000
_cell_volume 4271.475938
_symmetry_space_group_name_H-M "C C C M"
_symmetry_group_IT_number 66
_symmetry_cell_setting 'orthorhombic'
loop_
_space_group_symop_operation_xyz
x,y,z
-x,-y,z
x,-y,1/2-z
-x,y,1/2-z
-x,-y,-z
x,y,-z
-x,y,1/2+z
x,-y,1/2+z
1/2+x,1/2+y,z
1/2-x,1/2-y,z
1/2+x,1/2-y,1/2-z
1/2-x,1/2+y,1/2-z
1/2-x,1/2-y,-z
1/2+x,1/2+y,-z
1/2-x,1/2+y,1/2+z
1/2+x,1/2-y,1/2+z
loop_
_atom_site_type_symbol
_atom_site_label
_atom_site_fract_x
_atom_site_fract_y
_atom_site_fract_z
Si Si1 0.660466 0.702642 0.659228
Si Si2 0.349930 0.463908 0.164674
Si Si3 0.067047 0.252277 0.904585
Si Si4 0.575312 0.420805 0.908562
Si Si5 0.243258 0.836636 0.340833
O O1 0.750000 0.750000 0.623882
O O2 0.540461 0.735212 0.649640
O O3 0.644347 0.638799 0.613382
O O4 0.702494 0.685331 0.750576
O O5 0.339813 0.500000 0.250000
O O6 0.351505 0.518117 0.098942
O O7 0.471319 0.431222 0.153299
O O8 0.263154 0.409198 0.156016
O O9 0.151902 0.194862 0.900176
O O10 0.138376 0.307529 0.865994
O O11 0.037218 0.263074 0.000000
O O12 0.529020 0.415247 0.000000
#
# Coordination Sequence:
#
# PCOD9499462 Si02
#       5
#    16  16  16  16  16
#     4  12  24  39  63  91 126 166 208 254 307 372
#     4  11  21  35  60  88 119 159 205 254 307 371
#     4  11  24  39  60  93 125 159 207 255 310 367
#     4  11  23  34  53  88 126 159 197 251 319 369
#     4  11  22  37  63  86 122 164 204 250 304 367
#
# _framework density 18.728888999999999
#
# number of rings (size 3 to 8) (size 9 to 14) (size 15 to 20)
#    0.000    0.800    6.000    4.800    0.000    4.000 
#    0.000    0.000    0.000    1.200    0.000    2.800 
#    0.000    0.000    0.000    0.000    0.000    0.000 
#
# Total GULP energy -223256.298379 kJ/mol
# GULP energy per Si atom -5581.407459 kJ/mol
# Density = 1.868626 g / cm^3
# Si number density = 18.728889 Si / 1000 Ang^3
#
#
#
# Elastic Constant Matrix: (Units=GPa)
#
#
# Indices 1 2 3 4 5 6 
#
# 1 65.5113 53.3951 7.8454 0.0000 0.0000 0.0000
# 2 53.3951 169.8801 24.4202 0.0000 0.0000 0.0000
# 3 7.8454 24.4202 83.9344 0.0000 0.0000 0.0000
# 4 0.0000 0.0000 0.0000 14.7219 0.0000 0.0000
# 5 0.0000 0.0000 0.0000 0.0000 11.2481 0.0000
# 6 0.0000 0.0000 0.0000 0.0000 0.0000 36.8273
#
#
#
# Elastic Compliance Matrix: (Units=1/GPa)
#
#
# Indices 1 2 3 4 5 6 
#
# 1 0.020522 -0.006444 -0.000043 0.000000 0.000000 0.000000
# 2 -0.006444 0.008167 -0.001774 0.000000 0.000000 0.000000
# 3 -0.000043 -0.001774 0.012434 0.000000 0.000000 0.000000
# 4 0.000000 0.000000 0.000000 0.067926 0.000000 0.000000
# 5 0.000000 0.000000 0.000000 0.000000 0.088904 0.000000
# 6 0.000000 0.000000 0.000000 0.000000 0.000000 0.027154
#
#
# Mechanical properties :
#
#
# Convention : Reuss Voigt Hill
#
# Bulk Modulus (GPa) = 40.64921 54.51634 47.58277
# Shear Modulus (GPa) = 20.01366 28.13714 24.07540
#
# Velocity S-wave (km/s) = 3.27249 3.88021 3.58923
# Velocity P-wave (km/s) = 6.00250 7.01755 6.52978
#
# Compressibility (1/GPa) = 0.02460072
#
# Stress axis : x y z
#
# Youngs Moduli (GPa) = 48.72834 122.44529 80.42341
#
# Poissons Ratio (x) = 0.78904 0.00349
# Poissons Ratio (y) = 0.31401 0.14265
# Poissons Ratio (z) = 0.00211 0.21719
#
# Static dielectric constant tensor:
#      x y z
#    x 1.645560 0.000000 0.000000 
#    y 0.000000 1.680470 0.000000 
#    z 0.000000 0.000000 1.690970 
# 
# From -- ./inp_files/26427.got.cif
#   From: 2010.05.17/outbox.cif.g08.bks.cpg/sg66_14_cif.got.tgz:26427.got - 2010.06.03 17:51:23.
