data_PCOD9499049
_publ_section_title
;
Structure prediction by ZEFSAII (Michael W. Deem and Ramdas Pophale) SiO2 
 PCOD9499049
Probable space group: C C C M
;
_chemical_formula_sum "Si O2"
_cell_formula_units_Z 80
_cell_length_a 10.387446
_cell_length_b 23.715343
_cell_length_c 14.222027
_cell_angle_alpha 90.000000
_cell_angle_beta 90.000000
_cell_angle_gamma 90.000000
_cell_volume 3503.480368
_symmetry_space_group_name_H-M "C C C M"
_symmetry_group_IT_number 66
_symmetry_cell_setting 'orthorhombic'
loop_
_space_group_symop_operation_xyz
x,y,z
-x,-y,z
x,-y,1/2-z
-x,y,1/2-z
-x,-y,-z
x,y,-z
-x,y,1/2+z
x,-y,1/2+z
1/2+x,1/2+y,z
1/2-x,1/2-y,z
1/2+x,1/2-y,1/2-z
1/2-x,1/2+y,1/2-z
1/2-x,1/2-y,-z
1/2+x,1/2+y,-z
1/2-x,1/2+y,1/2+z
1/2+x,1/2-y,1/2+z
loop_
_atom_site_type_symbol
_atom_site_label
_atom_site_fract_x
_atom_site_fract_y
_atom_site_fract_z
Si Si1 0.642116 0.794862 0.388367
Si Si2 0.770262 0.384017 0.756875
Si Si3 0.207533 0.035327 0.894199
Si Si4 0.423894 0.412672 0.604334
Si Si5 0.857537 0.703252 0.103379
O O1 0.661684 0.799833 0.500000
O O2 0.750000 0.750000 0.353169
O O3 0.645415 0.857528 0.342051
O O4 0.497727 0.773068 0.370546
O O5 0.782395 0.442207 0.697586
O O6 0.631432 0.379615 0.807444
O O7 0.803362 0.340652 0.675970
O O8 0.072270 0.069800 0.889779
O O9 0.161194 0.970389 0.890199
O O10 0.262677 0.043906 0.000000
O O11 0.404150 0.387196 0.500000
O O12 0.750000 0.750000 0.097609
O O13 0.872909 0.676950 0.000000
#
# Coordination Sequence:
#
# PCOD9499049 Si02
#       5
#    16  16  16  16  16
#     4  10  23  42  61  84 118 157 196 242 296 354
#     4  12  20  31  57  89 114 146 192 244 294 348
#     4   9  19  35  54  82 122 161 197 242 294 347
#     4   9  19  35  54  82 122 161 197 242 294 347
#     4  10  23  42  61  84 118 157 196 242 296 354
#
# _framework density 22.834437999999999
#
# number of rings (size 3 to 8) (size 9 to 14) (size 15 to 20)
#    0.000    2.000    0.000    4.800    0.000    4.800 
#    0.000    4.000    0.000    9.600    0.000   22.400 
#    0.000    0.000    0.000    0.000    0.000    0.000 
#
# Total GULP energy -222835.644817 kJ/mol
# GULP energy per Si atom -5570.891120 kJ/mol
# Density = 2.278247 g / cm^3
# Si number density = 22.834438 Si / 1000 Ang^3
#
#
#
# Elastic Constant Matrix: (Units=GPa)
#
#
# Indices 1 2 3 4 5 6 
#
# 1 93.4690 36.6873 27.6614 0.0000 0.0000 0.0000
# 2 36.6873 43.3456 27.3549 0.0000 0.0000 0.0000
# 3 27.6614 27.3549 137.8516 0.0000 0.0000 0.0000
# 4 0.0000 0.0000 0.0000 66.1735 0.0000 0.0000
# 5 0.0000 0.0000 0.0000 0.0000 93.3276 0.0000
# 6 0.0000 0.0000 0.0000 0.0000 0.0000 29.2591
#
#
#
# Elastic Compliance Matrix: (Units=1/GPa)
#
#
# Indices 1 2 3 4 5 6 
#
# 1 0.016065 -0.013218 -0.000601 0.000000 0.000000 0.000000
# 2 -0.013218 0.037249 -0.004739 0.000000 0.000000 0.000000
# 3 -0.000601 -0.004739 0.008315 0.000000 0.000000 0.000000
# 4 0.000000 0.000000 0.000000 0.015112 0.000000 0.000000
# 5 0.000000 0.000000 0.000000 0.000000 0.010715 0.000000
# 6 0.000000 0.000000 0.000000 0.000000 0.000000 0.034177
#
#
# Mechanical properties :
#
#
# Convention : Reuss Voigt Hill
#
# Bulk Modulus (GPa) = 40.79463 50.89705 45.84584
# Shear Modulus (GPa) = 29.95461 49.94954 39.95207
#
# Velocity S-wave (km/s) = 3.62583 4.68211 4.18741
# Velocity P-wave (km/s) = 5.95257 7.18105 6.59547
#
# Compressibility (1/GPa) = 0.02451303
#
# Stress axis : x y z
#
# Youngs Moduli (GPa) = 62.24863 26.84651 120.26261
#
# Poissons Ratio (x) = 0.35485 0.07223
# Poissons Ratio (y) = 0.82280 0.56995
# Poissons Ratio (z) = 0.03739 0.12723
#
# Static dielectric constant tensor:
#      x y z
#    x 1.876530 0.000000 0.000000 
#    y 0.000000 1.920900 0.000000 
#    z 0.000000 0.000000 1.922990 
# 
# From -- ./inp_files/26338.got.cif
#   From: 2010.05.17/outbox.cif.g08.bks.cpg/sg66_14_cif.got.tgz:26338.got - 2010.06.03 17:51:23.
