data_PCOD9499506
_publ_section_title
;
Structure prediction by ZEFSAII (Michael W. Deem and Ramdas Pophale) SiO2 
 PCOD9499506
Probable space group: C C C M
;
_chemical_formula_sum "Si O2"
_cell_formula_units_Z 64
_cell_length_a 9.991766
_cell_length_b 9.686876
_cell_length_c 29.292056
_cell_angle_alpha 90.000000
_cell_angle_beta 90.000000
_cell_angle_gamma 90.000000
_cell_volume 2835.148757
_symmetry_space_group_name_H-M "C C C M"
_symmetry_group_IT_number 66
_symmetry_cell_setting 'orthorhombic'
loop_
_space_group_symop_operation_xyz
x,y,z
-x,-y,z
x,-y,1/2-z
-x,y,1/2-z
-x,-y,-z
x,y,-z
-x,y,1/2+z
x,-y,1/2+z
1/2+x,1/2+y,z
1/2-x,1/2-y,z
1/2+x,1/2-y,1/2-z
1/2-x,1/2+y,1/2-z
1/2-x,1/2-y,-z
1/2+x,1/2+y,-z
1/2-x,1/2+y,1/2+z
1/2+x,1/2-y,1/2+z
loop_
_atom_site_type_symbol
_atom_site_label
_atom_site_fract_x
_atom_site_fract_y
_atom_site_fract_z
Si Si1 0.862999 0.862490 0.000000
Si Si2 0.642894 0.914375 0.500000
Si Si3 0.000000 0.000000 0.641383
Si Si4 0.762282 0.087865 0.295459
Si Si5 0.546830 0.257402 0.081237
Si Si6 0.500000 0.000000 0.148142
O O1 0.750000 0.750000 0.000000
O O2 0.943436 0.830737 0.954016
O O3 0.781345 0.003298 0.000000
O O4 0.636481 0.825948 0.454343
O O5 0.500000 0.000000 0.500000
O O6 0.889940 0.076031 0.671557
O O7 0.083598 0.113077 0.612489
O O8 0.750000 0.250000 0.284532
O O9 0.785994 0.000000 0.250000
O O10 0.631295 0.023865 0.320561
O O11 0.501736 0.135532 0.115590
#
# Coordination Sequence:
#
# PCOD9499506 Si02
#       6
#     8   8   8  16  16   8
#     4  11  21  40  70 101 156 198 251 317 362 432
#     4  11  21  38  68 102 149 202 252 307 365 431
#     4  12  29  49  78 110 162 190 254 321 373 458
#     4  12  30  53  79 114 151 193 246 318 392 459
#     4  11  25  43  70 111 145 204 255 303 375 438
#     4  12  25  47  84 108 148 200 258 301 377 470
#
# _framework density 22.573771000000001
#
# number of rings (size 3 to 8) (size 9 to 14) (size 15 to 20)
#    0.000    0.500    6.250    0.750   10.500    4.000 
#    0.000    1.250    0.000    0.000    0.000    0.000 
#    0.000    0.000    0.000    0.000    0.000    0.000 
#
# Total GULP energy -178865.768652 kJ/mol
# GULP energy per Si atom -5589.555270 kJ/mol
# Density = 2.252239 g / cm^3
# Si number density = 22.573771 Si / 1000 Ang^3
#
#
#
# Elastic Constant Matrix: (Units=GPa)
#
#
# Indices 1 2 3 4 5 6 
#
# 1 77.2092 28.6978 12.0395 0.0000 0.0000 0.0000
# 2 28.6978 181.9759 66.6468 0.0000 0.0000 0.0000
# 3 12.0395 66.6468 114.3347 0.0000 0.0000 0.0000
# 4 0.0000 0.0000 0.0000 6.4274 0.0000 0.0000
# 5 0.0000 0.0000 0.0000 0.0000 -29.4429 0.0000
# 6 0.0000 0.0000 0.0000 0.0000 0.0000 53.5391
#
#
#
# Elastic Compliance Matrix: (Units=1/GPa)
#
#
# Indices 1 2 3 4 5 6 
#
# 1 0.013763 -0.002085 -0.000234 0.000000 0.000000 0.000000
# 2 -0.002085 0.007303 -0.004037 0.000000 0.000000 0.000000
# 3 -0.000234 -0.004037 0.011124 0.000000 0.000000 0.000000
# 4 0.000000 0.000000 0.000000 0.155583 0.000000 0.000000
# 5 0.000000 0.000000 0.000000 0.000000 -0.033964 0.000000
# 6 0.000000 0.000000 0.000000 0.000000 0.000000 0.018678
#
#
# Mechanical properties :
#
#
# Convention : Reuss Voigt Hill
#
# Bulk Modulus (GPa) = 51.34004 65.36533 58.35269
# Shear Modulus (GPa) = 26.08352 23.84710 24.96531
#
# Velocity S-wave (km/s) = 3.40292 3.25377 3.32918
# Velocity P-wave (km/s) = 6.18324 6.56774 6.37839
#
# Compressibility (1/GPa) = 0.01947797
#
# Stress axis : x y z
#
# Youngs Moduli (GPa) = 72.65748 136.93763 89.89387
#
# Poissons Ratio (x) = 0.28548 0.02104
# Poissons Ratio (y) = 0.15147 0.36292
# Poissons Ratio (z) = 0.01701 0.55285
#
# Static dielectric constant tensor:
#      x y z
#    x 1.914620 0.000000 0.000000 
#    y 0.000000 1.823900 0.000000 
#    z 0.000000 0.000000 1.732200 
# 
# From -- ./inp_files/68643.got.cif
#   From: 2010.05.17/outbox.cif.g08.bks.cpg/sg66_35_cif.got.tgz:68643.got - 2010.06.03 17:51:23.
