data_PCOD9499401
_publ_section_title
;
Structure prediction by ZEFSAII (Michael W. Deem and Ramdas Pophale) SiO2 
 PCOD9499401
Probable space group: C C C M
;
_chemical_formula_sum "Si O2"
_cell_formula_units_Z 56
_cell_length_a 10.389977
_cell_length_b 15.510502
_cell_length_c 17.594787
_cell_angle_alpha 90.000000
_cell_angle_beta 90.000000
_cell_angle_gamma 90.000000
_cell_volume 2835.466065
_symmetry_space_group_name_H-M "C C C M"
_symmetry_group_IT_number 66
_symmetry_cell_setting 'orthorhombic'
loop_
_space_group_symop_operation_xyz
x,y,z
-x,-y,z
x,-y,1/2-z
-x,y,1/2-z
-x,-y,-z
x,y,-z
-x,y,1/2+z
x,-y,1/2+z
1/2+x,1/2+y,z
1/2-x,1/2-y,z
1/2+x,1/2-y,1/2-z
1/2-x,1/2+y,1/2-z
1/2-x,1/2-y,-z
1/2+x,1/2+y,-z
1/2-x,1/2+y,1/2+z
1/2+x,1/2-y,1/2+z
loop_
_atom_site_type_symbol
_atom_site_label
_atom_site_fract_x
_atom_site_fract_y
_atom_site_fract_z
Si Si1 0.250000 0.750000 0.299228
Si Si2 0.454752 0.621820 0.338524
Si Si3 0.858182 0.413043 0.785106
Si Si4 0.808723 0.956936 0.589566
O O1 0.371712 0.709674 0.343763
O O2 0.207832 0.671477 0.246469
O O3 0.500000 0.610260 0.250000
O O4 0.585315 0.614867 0.386975
O O5 0.366342 0.544460 0.372142
O O6 0.799184 0.500000 0.750000
O O7 0.826516 0.427822 0.873173
O O8 0.000000 0.409351 0.750000
O O9 0.801827 0.968290 0.500000
#
# Coordination Sequence:
#
# PCOD9499401 Si02
#       4
#     8  16  16  16
#     4  12  22  38  70  98 126 170 242 270 310 382
#     4  11  20  38  69 100 126 174 229 272 314 389
#     4  11  23  42  67  94 128 173 224 271 324 394
#     4  11  22  42  68  99 132 173 218 278 343 394
#
# _framework density 19.749839000000001
#
# number of rings (size 3 to 8) (size 9 to 14) (size 15 to 20)
#    0.000    0.857    5.714    4.286    0.000    0.000 
#    0.000    6.429    0.000    0.000    0.000    0.000 
#    0.000    0.000    0.000    0.000    0.000    0.000 
#
# Total GULP energy -155974.856681 kJ/mol
# GULP energy per Si atom -5570.530596 kJ/mol
# Density = 1.970489 g / cm^3
# Si number density = 19.749839 Si / 1000 Ang^3
#
#
#
# Elastic Constant Matrix: (Units=GPa)
#
#
# Indices 1 2 3 4 5 6 
#
# 1 95.2802 32.6672 67.2733 0.0000 0.0000 0.0000
# 2 32.6672 127.2450 32.1568 0.0000 0.0000 0.0000
# 3 67.2733 32.1568 131.2516 0.0000 0.0000 0.0000
# 4 0.0000 0.0000 0.0000 -8.8541 0.0000 0.0000
# 5 0.0000 0.0000 0.0000 0.0000 27.3324 0.0000
# 6 0.0000 0.0000 0.0000 0.0000 0.0000 33.8961
#
#
#
# Elastic Compliance Matrix: (Units=1/GPa)
#
#
# Indices 1 2 3 4 5 6 
#
# 1 0.017064 -0.002314 -0.008179 0.000000 0.000000 0.000000
# 2 -0.002314 0.008691 -0.000943 0.000000 0.000000 0.000000
# 3 -0.008179 -0.000943 0.012042 0.000000 0.000000 0.000000
# 4 0.000000 0.000000 0.000000 -0.112943 0.000000 0.000000
# 5 0.000000 0.000000 0.000000 0.000000 0.036587 0.000000
# 6 0.000000 0.000000 0.000000 0.000000 0.000000 0.029502
#
#
# Mechanical properties :
#
#
# Convention : Reuss Voigt Hill
#
# Bulk Modulus (GPa) = 67.00350 68.66349 67.83349
# Shear Modulus (GPa) = 266.09176 25.25352 145.67264
#
# Velocity S-wave (km/s) = 11.61997 3.57973 8.59762
# Velocity P-wave (km/s) = 14.62981 7.20611 11.53168
#
# Compressibility (1/GPa) = 0.01492459
#
# Stress axis : x y z
#
# Youngs Moduli (GPa) = 58.60459 115.05797 83.04044
#
# Poissons Ratio (x) = 0.26621 0.67920
# Poissons Ratio (y) = 0.13559 0.07835
# Poissons Ratio (z) = 0.47933 0.10856
#
# Static dielectric constant tensor:
#      x y z
#    x 2.749320 0.000000 0.000000 
#    y 0.000000 1.712230 0.000000 
#    z 0.000000 0.000000 1.680970 
# 
# From -- ./inp_files/25414.got.cif
#   From: 2010.05.17/outbox.cif.g08.bks.cpg/sg66_13_cif.got.tgz:25414.got - 2010.06.03 17:51:23.
