data_PCOD9499944
_publ_section_title
;
Structure prediction by ZEFSAII (Michael W. Deem and Ramdas Pophale) SiO2 
 PCOD9499944
Probable space group: C C C M
;
_chemical_formula_sum "Si O2"
_cell_formula_units_Z 60
_cell_length_a 20.527700
_cell_length_b 5.061767
_cell_length_c 25.290579
_cell_angle_alpha 90.000000
_cell_angle_beta 90.000000
_cell_angle_gamma 90.000000
_cell_volume 2627.853889
_symmetry_space_group_name_H-M "C C C M"
_symmetry_group_IT_number 66
_symmetry_cell_setting 'orthorhombic'
loop_
_space_group_symop_operation_xyz
x,y,z
-x,-y,z
x,-y,1/2-z
-x,y,1/2-z
-x,-y,-z
x,y,-z
-x,y,1/2+z
x,-y,1/2+z
1/2+x,1/2+y,z
1/2-x,1/2-y,z
1/2+x,1/2-y,1/2-z
1/2-x,1/2+y,1/2-z
1/2-x,1/2-y,-z
1/2+x,1/2+y,-z
1/2-x,1/2+y,1/2+z
1/2+x,1/2-y,1/2+z
loop_
_atom_site_type_symbol
_atom_site_label
_atom_site_fract_x
_atom_site_fract_y
_atom_site_fract_z
Si Si1 0.678859 0.146655 0.000000
Si Si2 0.389637 0.596517 0.164993
Si Si3 0.000000 0.000000 0.250000
Si Si4 0.250000 0.250000 0.286459
Si Si5 0.113198 0.419275 0.095928
Si Si6 0.069139 0.111975 0.000000
O O1 0.750000 0.250000 0.000000
O O2 0.672253 0.984416 0.055172
O O3 0.625989 0.387593 0.000000
O O4 0.446275 0.624577 0.209376
O O5 0.316942 0.684453 0.182916
O O6 0.381686 0.299035 0.142318
O O7 0.408491 0.803877 0.119780
O O8 0.235323 0.500000 0.250000
O O9 0.069053 0.288704 0.052180
O O10 0.000000 0.000000 0.000000
#
# Coordination Sequence:
#
# PCOD9499944 Si02
#       6
#     8  16   4   8  16   8
#     4  11  26  48  77 115 159 198 252 314 371 457
#     4  12  28  49  80 107 153 200 253 318 388 450
#     4  12  32  54  76 116 152 196 268 334 380 452
#     4  12  26  52  74 107 146 201 252 318 382 458
#     4  11  27  50  76 114 151 200 252 308 380 458
#     4  11  26  48  73 111 151 198 246 306 367 461
#
# _framework density 22.832322000000001
#
# number of rings (size 3 to 8) (size 9 to 14) (size 15 to 20)
#    0.000    0.533    4.000    1.600    3.733   10.667 
#    0.000    0.000    0.000    0.000    0.000    0.000 
#    0.000    0.000    0.000    0.000    0.000    0.000 
#
# Total GULP energy -167317.627665 kJ/mol
# GULP energy per Si atom -5577.254256 kJ/mol
# Density = 2.278035 g / cm^3
# Si number density = 22.832322 Si / 1000 Ang^3
#
#
#
# Elastic Constant Matrix: (Units=GPa)
#
#
# Indices 1 2 3 4 5 6 
#
# 1 170.0726 27.6315 53.8771 0.0000 0.0000 0.0000
# 2 27.6315 110.2425 34.3153 0.0000 0.0000 0.0000
# 3 53.8771 34.3153 109.3000 0.0000 0.0000 0.0000
# 4 0.0000 0.0000 0.0000 53.1377 0.0000 0.0000
# 5 0.0000 0.0000 0.0000 0.0000 160.2848 0.0000
# 6 0.0000 0.0000 0.0000 0.0000 0.0000 28.3695
#
#
#
# Elastic Compliance Matrix: (Units=1/GPa)
#
#
# Indices 1 2 3 4 5 6 
#
# 1 0.007024 -0.000757 -0.003225 0.000000 0.000000 0.000000
# 2 -0.000757 0.010135 -0.002809 0.000000 0.000000 0.000000
# 3 -0.003225 -0.002809 0.011621 0.000000 0.000000 0.000000
# 4 0.000000 0.000000 0.000000 0.018819 0.000000 0.000000
# 5 0.000000 0.000000 0.000000 0.000000 0.006239 0.000000
# 6 0.000000 0.000000 0.000000 0.000000 0.000000 0.035249
#
#
# Mechanical properties :
#
#
# Convention : Reuss Voigt Hill
#
# Bulk Modulus (GPa) = 65.79468 69.02921 67.41194
# Shear Modulus (GPa) = 46.41041 66.61116 56.51078
#
# Velocity S-wave (km/s) = 4.51340 5.40716 4.98037
# Velocity P-wave (km/s) = 7.48599 8.32358 7.91587
#
# Compressibility (1/GPa) = 0.01519880
#
# Stress axis : x y z
#
# Youngs Moduli (GPa) = 142.36046 98.66886 86.05372
#
# Poissons Ratio (x) = 0.07467 0.27752
# Poissons Ratio (y) = 0.10774 0.24171
# Poissons Ratio (z) = 0.45910 0.27715
#
# Static dielectric constant tensor:
#      x y z
#    x 1.848120 0.000000 0.000000 
#    y 0.000000 1.838570 0.000000 
#    z 0.000000 0.000000 1.911150 
# 
# From -- ./inp_files/59212.got.cif
#   From: 2010.05.17/outbox.cif.g08.bks.cpg/sg66_30_cif.got.tgz:59212.got - 2010.06.03 17:51:23.
