data_PCOD9499779
_publ_section_title
;
Structure prediction by ZEFSAII (Michael W. Deem and Ramdas Pophale) SiO2 
 PCOD9499779
Probable space group: C C C M
;
_chemical_formula_sum "Si O2"
_cell_formula_units_Z 68
_cell_length_a 21.793502
_cell_length_b 8.420664
_cell_length_c 15.424070
_cell_angle_alpha 90.000000
_cell_angle_beta 90.000000
_cell_angle_gamma 90.000000
_cell_volume 2830.559893
_symmetry_space_group_name_H-M "C C C M"
_symmetry_group_IT_number 66
_symmetry_cell_setting 'orthorhombic'
loop_
_space_group_symop_operation_xyz
x,y,z
-x,-y,z
x,-y,1/2-z
-x,y,1/2-z
-x,-y,-z
x,y,-z
-x,y,1/2+z
x,-y,1/2+z
1/2+x,1/2+y,z
1/2-x,1/2-y,z
1/2+x,1/2-y,1/2-z
1/2-x,1/2+y,1/2-z
1/2-x,1/2-y,-z
1/2+x,1/2+y,-z
1/2-x,1/2+y,1/2+z
1/2+x,1/2-y,1/2+z
loop_
_atom_site_type_symbol
_atom_site_label
_atom_site_fract_x
_atom_site_fract_y
_atom_site_fract_z
Si Si1 0.853546 0.118590 0.872238
Si Si2 0.023493 0.247039 0.654544
Si Si3 0.750000 0.750000 0.500000
Si Si4 0.321030 0.280755 0.179545
Si Si5 0.086533 0.558501 0.400862
O O1 0.926511 0.133609 0.889671
O O2 0.804238 0.219151 0.925875
O O3 0.849072 0.176187 0.772548
O O4 0.832837 0.936114 0.878583
O O5 0.060935 0.414169 0.655972
O O6 0.000000 0.198417 0.750000
O O7 0.962699 0.298423 0.603545
O O8 0.250000 0.250000 0.190736
O O9 0.351534 0.127790 0.136945
O O10 0.092069 0.504299 0.500000
#
# Coordination Sequence:
#
# PCOD9499779 Si02
#       5
#    16  16   4  16  16
#     4  11  27  45  71 107 137 193 240 299 375 433
#     4  11  23  45  71 103 142 193 242 296 366 441
#     4  12  28  48  78 112 142 194 250 320 360 460
#     4  11  26  48  69 101 149 190 237 301 374 445
#     4  11  25  42  70 108 144 190 242 303 361 435
#
# _framework density 24.023516000000001
#
# number of rings (size 3 to 8) (size 9 to 14) (size 15 to 20)
#    0.000    0.941    3.529    2.824    8.235    1.412 
#    0.000    1.176    0.000    0.000    0.000    0.000 
#    0.000    0.000    0.000    0.000    0.000    0.000 
#
# Total GULP energy -189752.972822 kJ/mol
# GULP energy per Si atom -5580.969789 kJ/mol
# Density = 2.396884 g / cm^3
# Si number density = 24.023516 Si / 1000 Ang^3
#
#
#
# Elastic Constant Matrix: (Units=GPa)
#
#
# Indices 1 2 3 4 5 6 
#
# 1 100.5453 0.5256 11.9032 0.0000 0.0000 0.0000
# 2 0.5256 49.8677 6.9610 0.0000 0.0000 0.0000
# 3 11.9032 6.9610 84.4208 0.0000 0.0000 0.0000
# 4 0.0000 0.0000 0.0000 -8.4453 0.0000 0.0000
# 5 0.0000 0.0000 0.0000 0.0000 27.8059 0.0000
# 6 0.0000 0.0000 0.0000 0.0000 0.0000 33.8453
#
#
#
# Elastic Compliance Matrix: (Units=1/GPa)
#
#
# Indices 1 2 3 4 5 6 
#
# 1 0.010115 0.000094 -0.001434 0.000000 0.000000 0.000000
# 2 0.000094 0.020287 -0.001686 0.000000 0.000000 0.000000
# 3 -0.001434 -0.001686 0.012187 0.000000 0.000000 0.000000
# 4 0.000000 0.000000 0.000000 -0.118409 0.000000 0.000000
# 5 0.000000 0.000000 0.000000 0.000000 0.035964 0.000000
# 6 0.000000 0.000000 0.000000 0.000000 0.000000 0.029546
#
#
# Mechanical properties :
#
#
# Convention : Reuss Voigt Hill
#
# Bulk Modulus (GPa) = 27.37000 30.40147 28.88573
# Shear Modulus (GPa) = 631.18524 25.00412 328.09468
#
# Velocity S-wave (km/s) = 16.22673 3.22967 11.69909
# Velocity P-wave (km/s) = 19.03926 5.15655 13.94782
#
# Compressibility (1/GPa) = 0.03653636
#
# Stress axis : x y z
#
# Youngs Moduli (GPa) = 98.86270 49.29160 82.05714
#
# Poissons Ratio (x) = -0.00461 0.11766
# Poissons Ratio (y) = -0.00925 0.13835
# Poissons Ratio (z) = 0.14176 0.08311
#
# Static dielectric constant tensor:
#      x y z
#    x 1.887550 0.000000 0.000000 
#    y 0.000000 1.986820 0.000000 
#    z 0.000000 0.000000 1.914390 
# 
# From -- ./inp_files/42490.got.cif
#   From: 2010.05.17/outbox.cif.g08.bks.cpg/sg66_22_cif.got.tgz:42490.got - 2010.06.03 17:51:23.
