data_PCOD9499486
_publ_section_title
;
Structure prediction by ZEFSAII (Michael W. Deem and Ramdas Pophale) SiO2 
 PCOD9499486
Probable space group: C C C M
;
_chemical_formula_sum "Si O2"
_cell_formula_units_Z 64
_cell_length_a 9.283794
_cell_length_b 20.532733
_cell_length_c 14.560145
_cell_angle_alpha 90.000000
_cell_angle_beta 90.000000
_cell_angle_gamma 90.000000
_cell_volume 2775.479060
_symmetry_space_group_name_H-M "C C C M"
_symmetry_group_IT_number 66
_symmetry_cell_setting 'orthorhombic'
loop_
_space_group_symop_operation_xyz
x,y,z
-x,-y,z
x,-y,1/2-z
-x,y,1/2-z
-x,-y,-z
x,y,-z
-x,y,1/2+z
x,-y,1/2+z
1/2+x,1/2+y,z
1/2-x,1/2-y,z
1/2+x,1/2-y,1/2-z
1/2-x,1/2+y,1/2-z
1/2-x,1/2-y,-z
1/2+x,1/2+y,-z
1/2-x,1/2+y,1/2+z
1/2+x,1/2-y,1/2+z
loop_
_atom_site_type_symbol
_atom_site_label
_atom_site_fract_x
_atom_site_fract_y
_atom_site_fract_z
Si Si1 0.961764 0.594180 0.396153
Si Si2 0.735328 0.068828 0.272717
Si Si3 0.836689 0.818262 0.101234
Si Si4 0.579338 0.760864 0.651489
O O1 0.943131 0.571080 0.500000
O O2 0.831159 0.586301 0.325499
O O3 0.970966 0.672696 0.397125
O O4 0.099705 0.562704 0.344293
O O5 0.815780 0.129059 0.319064
O O6 0.809267 0.000000 0.250000
O O7 0.750000 0.750000 0.116018
O O8 0.003336 0.798855 0.101538
O O9 0.793625 0.843558 0.000000
O O10 0.500000 0.764396 0.750000
O O11 0.750000 0.750000 0.656932
#
# Coordination Sequence:
#
# PCOD9499486 Si02
#       4
#    16  16  16  16
#     4  11  21  37  63  98 143 193 246 302 359 430
#     4  11  23  40  64 100 147 193 248 295 361 440
#     4  11  22  42  71 105 149 196 244 304 377 444
#     4  12  23  40  69 108 151 187 238 305 375 441
#
# _framework density 23.059083000000001
#
# number of rings (size 3 to 8) (size 9 to 14) (size 15 to 20)
#    0.000    0.750    5.000    5.250    0.000    5.000 
#    0.000    0.000    0.000    8.250    0.000    8.750 
#    0.000    0.000    0.000    0.000    0.000    0.000 
#
# Total GULP energy -178792.467258 kJ/mol
# GULP energy per Si atom -5587.264602 kJ/mol
# Density = 2.300660 g / cm^3
# Si number density = 23.059083 Si / 1000 Ang^3
#
#
#
# Elastic Constant Matrix: (Units=GPa)
#
#
# Indices 1 2 3 4 5 6 
#
# 1 115.0990 38.7400 32.2732 0.0000 0.0000 0.0000
# 2 38.7400 143.5731 50.1669 0.0000 0.0000 0.0000
# 3 32.2732 50.1669 200.7951 0.0000 0.0000 0.0000
# 4 0.0000 0.0000 0.0000 -6.6395 0.0000 0.0000
# 5 0.0000 0.0000 0.0000 0.0000 14.5255 0.0000
# 6 0.0000 0.0000 0.0000 0.0000 0.0000 24.8351
#
#
#
# Elastic Compliance Matrix: (Units=1/GPa)
#
#
# Indices 1 2 3 4 5 6 
#
# 1 0.009734 -0.002279 -0.000995 0.000000 0.000000 0.000000
# 2 -0.002279 0.008165 -0.001674 0.000000 0.000000 0.000000
# 3 -0.000995 -0.001674 0.005558 0.000000 0.000000 0.000000
# 4 0.000000 0.000000 0.000000 -0.150614 0.000000 0.000000
# 5 0.000000 0.000000 0.000000 0.000000 0.068844 0.000000
# 6 0.000000 0.000000 0.000000 0.000000 0.000000 0.040266
#
#
# Mechanical properties :
#
#
# Convention : Reuss Voigt Hill
#
# Bulk Modulus (GPa) = 73.73551 77.98081 75.85816
# Shear Modulus (GPa) = -1377.15725 29.09669 -674.03028
#
# Velocity S-wave (km/s) = -24.46480 3.55608 -17.11550
# Velocity P-wave (km/s) = 27.67651 7.12406 18.91080
#
# Compressibility (1/GPa) = 0.01356199
#
# Stress axis : x y z
#
# Youngs Moduli (GPa) = 102.73029 122.47732 179.91107
#
# Poissons Ratio (x) = 0.27910 0.17905
# Poissons Ratio (y) = 0.23410 0.30110
# Poissons Ratio (z) = 0.10224 0.20498
#
# Static dielectric constant tensor:
#      x y z
#    x 1.924770 0.000000 0.000000 
#    y 0.000000 1.974660 0.000000 
#    z 0.000000 0.000000 1.881600 
# 
# From -- ./inp_files/25992.got.cif
#   From: 2010.05.17/outbox.cif.g08.bks.cpg/sg66_13_cif.got.tgz:25992.got - 2010.06.03 17:51:23.
