data_PCOD9499698
_publ_section_title
;
Structure prediction by ZEFSAII (Michael W. Deem and Ramdas Pophale) SiO2 
 PCOD9499698
Probable space group: C C C M
;
_chemical_formula_sum "Si O2"
_cell_formula_units_Z 88
_cell_length_a 13.426715
_cell_length_b 13.641973
_cell_length_c 23.894920
_cell_angle_alpha 90.000000
_cell_angle_beta 90.000000
_cell_angle_gamma 90.000000
_cell_volume 4376.758028
_symmetry_space_group_name_H-M "C C C M"
_symmetry_group_IT_number 66
_symmetry_cell_setting 'orthorhombic'
loop_
_space_group_symop_operation_xyz
x,y,z
-x,-y,z
x,-y,1/2-z
-x,y,1/2-z
-x,-y,-z
x,y,-z
-x,y,1/2+z
x,-y,1/2+z
1/2+x,1/2+y,z
1/2-x,1/2-y,z
1/2+x,1/2-y,1/2-z
1/2-x,1/2+y,1/2-z
1/2-x,1/2-y,-z
1/2+x,1/2+y,-z
1/2-x,1/2+y,1/2+z
1/2+x,1/2-y,1/2+z
loop_
_atom_site_type_symbol
_atom_site_label
_atom_site_fract_x
_atom_site_fract_y
_atom_site_fract_z
Si Si1 0.756133 0.500000 0.750000
Si Si2 0.149842 0.309820 0.734362
Si Si3 0.034408 0.267623 0.158260
Si Si4 0.096782 0.685174 0.934783
Si Si5 0.809913 0.902747 0.434128
Si Si6 0.397638 0.449073 0.156282
O O1 0.824670 0.579035 0.719213
O O2 0.683295 0.551623 0.794374
O O3 0.250000 0.250000 0.727513
O O4 0.113724 0.311766 0.798641
O O5 0.065209 0.261059 0.696550
O O6 0.074542 0.161649 0.140484
O O7 0.997309 0.329006 0.105269
O O8 0.132895 0.798616 0.927043
O O9 0.194086 0.620423 0.921292
O O10 0.073518 0.671498 0.000000
O O11 0.817584 0.928362 0.500000
O O12 0.855815 0.984936 0.394305
O O13 0.500000 0.500000 0.176176
#
# Coordination Sequence:
#
# PCOD9499698 Si02
#       6
#     8  16  16  16  16  16
#     4  12  25  41  64  82 120 172 196 246 312 360
#     4  11  24  42  59  87 127 157 204 250 302 371
#     4  11  23  36  59  87 120 160 199 256 302 357
#     4   9  18  35  56  83 120 162 205 251 307 364
#     4   9  19  33  54  85 122 160 199 249 310 369
#     4  12  22  33  57  89 120 153 204 250 310 361
#
# _framework density 20.106206
#
# number of rings (size 3 to 8) (size 9 to 14) (size 15 to 20)
#    0.000    1.455    3.636    3.545    5.091    2.545 
#    0.000    0.000    0.000    1.636    0.000    3.818 
#    0.000    0.000    0.000    0.000    0.000    0.000 
#
# Total GULP energy -245798.667411 kJ/mol
# GULP energy per Si atom -5586.333350 kJ/mol
# Density = 2.006044 g / cm^3
# Si number density = 20.106206 Si / 1000 Ang^3
#
#
#
# Elastic Constant Matrix: (Units=GPa)
#
#
# Indices 1 2 3 4 5 6 
#
# 1 63.5524 35.4977 24.4404 0.0000 0.0000 0.0000
# 2 35.4977 59.1307 26.5113 0.0000 0.0000 0.0000
# 3 24.4404 26.5113 86.7464 0.0000 0.0000 0.0000
# 4 0.0000 0.0000 0.0000 21.1729 0.0000 0.0000
# 5 0.0000 0.0000 0.0000 0.0000 23.8750 0.0000
# 6 0.0000 0.0000 0.0000 0.0000 0.0000 30.1022
#
#
#
# Elastic Compliance Matrix: (Units=1/GPa)
#
#
# Indices 1 2 3 4 5 6 
#
# 1 0.024230 -0.013309 -0.002759 0.000000 0.000000 0.000000
# 2 -0.013309 0.026907 -0.004474 0.000000 0.000000 0.000000
# 3 -0.002759 -0.004474 0.013672 0.000000 0.000000 0.000000
# 4 0.000000 0.000000 0.000000 0.047230 0.000000 0.000000
# 5 0.000000 0.000000 0.000000 0.000000 0.041885 0.000000
# 6 0.000000 0.000000 0.000000 0.000000 0.000000 0.033220
#
#
# Mechanical properties :
#
#
# Convention : Reuss Voigt Hill
#
# Bulk Modulus (GPa) = 42.14751 42.48092 42.31421
# Shear Modulus (GPa) = 21.17421 23.22869 22.20145
#
# Velocity S-wave (km/s) = 3.24870 3.40266 3.32657
# Velocity P-wave (km/s) = 5.92284 6.05075 5.98713
#
# Compressibility (1/GPa) = 0.02372619
#
# Stress axis : x y z
#
# Youngs Moduli (GPa) = 41.27144 37.16504 73.13954
#
# Poissons Ratio (x) = 0.49462 0.20181
# Poissons Ratio (y) = 0.54927 0.32720
# Poissons Ratio (z) = 0.11388 0.16626
#
# Static dielectric constant tensor:
#      x y z
#    x 1.717900 0.000000 0.000000 
#    y 0.000000 1.712750 0.000000 
#    z 0.000000 0.000000 1.730710 
# 
# From -- ./inp_files/63619.got.cif
#   From: 2010.05.17/outbox.cif.g08.bks.cpg/sg66_32_cif.got.tgz:63619.got - 2010.06.03 17:51:23.
