data_PCOD9499599
_publ_section_title
;
Structure prediction by ZEFSAII (Michael W. Deem and Ramdas Pophale) SiO2 
 PCOD9499599
Probable space group: C C C M
;
_chemical_formula_sum "Si O2"
_cell_formula_units_Z 56
_cell_length_a 17.461760
_cell_length_b 6.967909
_cell_length_c 19.365124
_cell_angle_alpha 90.000000
_cell_angle_beta 90.000000
_cell_angle_gamma 90.000000
_cell_volume 2356.192489
_symmetry_space_group_name_H-M "C C C M"
_symmetry_group_IT_number 66
_symmetry_cell_setting 'orthorhombic'
loop_
_space_group_symop_operation_xyz
x,y,z
-x,-y,z
x,-y,1/2-z
-x,y,1/2-z
-x,-y,-z
x,y,-z
-x,y,1/2+z
x,-y,1/2+z
1/2+x,1/2+y,z
1/2-x,1/2-y,z
1/2+x,1/2-y,1/2-z
1/2-x,1/2+y,1/2-z
1/2-x,1/2-y,-z
1/2+x,1/2+y,-z
1/2-x,1/2+y,1/2+z
1/2+x,1/2-y,1/2+z
loop_
_atom_site_type_symbol
_atom_site_label
_atom_site_fract_x
_atom_site_fract_y
_atom_site_fract_z
Si Si1 0.393039 0.204721 0.500000
Si Si2 0.135749 0.000000 0.250000
Si Si3 0.167775 0.259533 0.125164
Si Si4 0.067765 0.247078 0.000000
Si Si5 0.338437 0.202753 0.650588
O O1 0.478131 0.288019 0.500000
O O2 0.349991 0.255073 0.570249
O O3 0.409453 0.974918 0.500000
O O4 0.175985 0.123215 0.190775
O O5 0.105446 0.174468 0.299298
O O6 0.250000 0.250000 0.088383
O O7 0.149154 0.473801 0.151554
O O8 0.105330 0.183352 0.071606
O O9 0.250000 0.250000 0.669695
#
# Coordination Sequence:
#
# PCOD9499599 Si02
#       5
#     8   8  16   8  16
#     4   9  21  43  65  88 120 163 207 252 301 355
#     4  12  24  38  61  96 127 162 196 244 312 362
#     4  11  22  38  65  92 124 157 202 252 303 357
#     4   9  21  43  65  88 120 163 207 252 301 355
#     4  11  22  38  65  92 124 157 202 252 303 357
#
# _framework density 23.767158999999999
#
# number of rings (size 3 to 8) (size 9 to 14) (size 15 to 20)
#    0.000    1.429    2.857    2.571    0.000    1.143 
#    0.000    5.714    0.000    6.857    0.000    0.000 
#    0.000    0.000    0.000    0.000    0.000    0.000 
#
# Total GULP energy -156183.161128 kJ/mol
# GULP energy per Si atom -5577.970040 kJ/mol
# Density = 2.371306 g / cm^3
# Si number density = 23.767159 Si / 1000 Ang^3
#
#
#
# Elastic Constant Matrix: (Units=GPa)
#
#
# Indices 1 2 3 4 5 6 
#
# 1 52.0301 -5.8029 33.6814 0.0000 0.0000 0.0000
# 2 -5.8029 162.4324 32.9326 0.0000 0.0000 0.0000
# 3 33.6814 32.9326 153.7889 0.0000 0.0000 0.0000
# 4 0.0000 0.0000 0.0000 13.3662 0.0000 0.0000
# 5 0.0000 0.0000 0.0000 0.0000 4.7105 0.0000
# 6 0.0000 0.0000 0.0000 0.0000 0.0000 13.1082
#
#
#
# Elastic Compliance Matrix: (Units=1/GPa)
#
#
# Indices 1 2 3 4 5 6 
#
# 1 0.022955 0.001923 -0.005439 0.000000 0.000000 0.000000
# 2 0.001923 0.006597 -0.001834 0.000000 0.000000 0.000000
# 3 -0.005439 -0.001834 0.008086 0.000000 0.000000 0.000000
# 4 0.000000 0.000000 0.000000 0.074816 0.000000 0.000000
# 5 0.000000 0.000000 0.000000 0.000000 0.212290 0.000000
# 6 0.000000 0.000000 0.000000 0.000000 0.000000 0.076288
#
#
# Mechanical properties :
#
#
# Convention : Reuss Voigt Hill
#
# Bulk Modulus (GPa) = 37.12213 54.43041 45.77627
# Shear Modulus (GPa) = 11.88462 26.73300 19.30881
#
# Velocity S-wave (km/s) = 2.23859 3.35742 2.85338
# Velocity P-wave (km/s) = 4.72596 6.16287 5.49162
#
# Compressibility (1/GPa) = 0.02693811
#
# Stress axis : x y z
#
# Youngs Moduli (GPa) = 43.56325 151.58646 123.66516
#
# Poissons Ratio (x) = -0.29148 0.67264
# Poissons Ratio (y) = -0.08377 0.22678
# Poissons Ratio (z) = 0.23695 0.27798
#
# Static dielectric constant tensor:
#      x y z
#    x 1.883640 0.000000 0.000000 
#    y 0.000000 2.013650 0.000000 
#    z 0.000000 0.000000 1.860810 
# 
# From -- ./inp_files/36099.got.cif
#   From: 2010.05.17/outbox.cif.g08.bks.cpg/sg66_19_cif.got.tgz:36099.got - 2010.06.03 17:51:23.
