data_PCOD9499292
_publ_section_title
;
Structure prediction by ZEFSAII (Michael W. Deem and Ramdas Pophale) SiO2 
 PCOD9499292
Probable space group: C C C M
;
_chemical_formula_sum "Si O2"
_cell_formula_units_Z 28
_cell_length_a 5.021928
_cell_length_b 21.629009
_cell_length_c 10.651798
_cell_angle_alpha 90.000000
_cell_angle_beta 90.000000
_cell_angle_gamma 90.000000
_cell_volume 1156.991118
_symmetry_space_group_name_H-M "C C C M"
_symmetry_group_IT_number 66
_symmetry_cell_setting 'orthorhombic'
loop_
_space_group_symop_operation_xyz
x,y,z
-x,-y,z
x,-y,1/2-z
-x,y,1/2-z
-x,-y,-z
x,y,-z
-x,y,1/2+z
x,-y,1/2+z
1/2+x,1/2+y,z
1/2-x,1/2-y,z
1/2+x,1/2-y,1/2-z
1/2-x,1/2+y,1/2-z
1/2-x,1/2-y,-z
1/2+x,1/2+y,-z
1/2-x,1/2+y,1/2+z
1/2+x,1/2-y,1/2+z
loop_
_atom_site_type_symbol
_atom_site_label
_atom_site_fract_x
_atom_site_fract_y
_atom_site_fract_z
Si Si1 0.498881 0.705033 0.000000
Si Si2 0.198288 0.387514 0.138812
Si Si3 0.500000 0.500000 0.750000
O O1 0.750000 0.750000 0.000000
O O2 0.554209 0.659045 0.883909
O O3 0.250000 0.750000 0.000000
O O4 0.316421 0.454622 0.168727
O O5 0.000000 0.369531 0.250000
O O6 0.063130 0.387820 0.000000
#
# Coordination Sequence:
#
# PCOD9499292 Si02
#       3
#     8  16   4
#     4  10  26  53  83 115 163 228 292 342 428 517
#     4  10  26  47  81 119 168 225 289 358 435 501
#     4  12  24  44  76 124 174 212 310 336 444 500
#
# _framework density 24.200706
#
# number of rings (size 3 to 8) (size 9 to 14) (size 15 to 20)
#    1.714    0.000    0.000    1.714    8.000    6.857 
#    5.143    0.000    0.000    1.714    0.000    0.000 
#    0.000    0.000    0.000    0.000    0.000    0.000 
#
# Total GULP energy -78206.904741 kJ/mol
# GULP energy per Si atom -5586.207481 kJ/mol
# Density = 2.414562 g / cm^3
# Si number density = 24.200706 Si / 1000 Ang^3
#
#
#
# Elastic Constant Matrix: (Units=GPa)
#
#
# Indices 1 2 3 4 5 6 
#
# 1 173.3373 80.9531 85.8859 0.0000 0.0000 0.0000
# 2 80.9531 189.9041 59.2407 0.0000 0.0000 0.0000
# 3 85.8859 59.2407 226.1609 0.0000 0.0000 0.0000
# 4 0.0000 0.0000 0.0000 117.0695 0.0000 0.0000
# 5 0.0000 0.0000 0.0000 0.0000 48.8116 0.0000
# 6 0.0000 0.0000 0.0000 0.0000 0.0000 51.8549
#
#
#
# Elastic Compliance Matrix: (Units=1/GPa)
#
#
# Indices 1 2 3 4 5 6 
#
# 1 0.008256 -0.002767 -0.002410 0.000000 0.000000 0.000000
# 2 -0.002767 0.006662 -0.000694 0.000000 0.000000 0.000000
# 3 -0.002410 -0.000694 0.005519 0.000000 0.000000 0.000000
# 4 0.000000 0.000000 0.000000 0.008542 0.000000 0.000000
# 5 0.000000 0.000000 0.000000 0.000000 0.020487 0.000000
# 6 0.000000 0.000000 0.000000 0.000000 0.000000 0.019285
#
#
# Mechanical properties :
#
#
# Convention : Reuss Voigt Hill
#
# Bulk Modulus (GPa) = 115.03550 115.72910 115.38230
# Shear Modulus (GPa) = 59.95816 67.76868 63.86342
#
# Velocity S-wave (km/s) = 4.98289 5.29751 5.14260
# Velocity P-wave (km/s) = 8.98569 9.23810 9.11277
#
# Compressibility (1/GPa) = 0.00869297
#
# Stress axis : x y z
#
# Youngs Moduli (GPa) = 121.12657 150.10371 181.19978
#
# Poissons Ratio (x) = 0.41540 0.43674
# Poissons Ratio (y) = 0.33521 0.12577
# Poissons Ratio (z) = 0.29195 0.10419
#
# Static dielectric constant tensor:
#      x y z
#    x 2.018890 0.000000 0.000000 
#    y 0.000000 1.955670 0.000000 
#    z 0.000000 0.000000 1.953480 
# 
# From -- ./inp_files/12051.got.cif
#   From: 2010.05.17/outbox.cif.g08.bks.cpg/sg66_7_cif.got.tgz:12051.got - 2010.06.03 17:51:23.
