data_PCOD9499965
_publ_section_title
;
Structure prediction by ZEFSAII (Michael W. Deem and Ramdas Pophale) SiO2 
 PCOD9499965
Probable space group: C C C M
;
_chemical_formula_sum "Si O2"
_cell_formula_units_Z 40
_cell_length_a 10.859113
_cell_length_b 15.266895
_cell_length_c 10.022393
_cell_angle_alpha 90.000000
_cell_angle_beta 90.000000
_cell_angle_gamma 90.000000
_cell_volume 1661.561802
_symmetry_space_group_name_H-M "C C C M"
_symmetry_group_IT_number 66
_symmetry_cell_setting 'orthorhombic'
loop_
_space_group_symop_operation_xyz
x,y,z
-x,-y,z
x,-y,1/2-z
-x,y,1/2-z
-x,-y,-z
x,y,-z
-x,y,1/2+z
x,-y,1/2+z
1/2+x,1/2+y,z
1/2-x,1/2-y,z
1/2+x,1/2-y,1/2-z
1/2-x,1/2+y,1/2-z
1/2-x,1/2-y,-z
1/2+x,1/2+y,-z
1/2-x,1/2+y,1/2+z
1/2+x,1/2-y,1/2+z
loop_
_atom_site_type_symbol
_atom_site_label
_atom_site_fract_x
_atom_site_fract_y
_atom_site_fract_z
Si Si1 0.844501 0.669317 0.778666
Si Si2 0.992029 0.769291 0.000000
Si Si3 0.296180 0.572206 0.500000
Si Si4 0.758495 0.876925 0.500000
O O1 0.750000 0.750000 0.778849
O O2 0.954167 0.712216 0.869843
O O3 0.787536 0.594644 0.873014
O O4 0.826652 0.630645 0.630468
O O5 0.906786 0.856884 0.000000
O O6 0.131756 0.804410 0.000000
O O7 0.327286 0.470521 0.500000
#
# Coordination Sequence:
#
# PCOD9499965 Si02
#       4
#    16   8   8   8
#     4   9  20  38  56  89 137 173 205 261 330 396
#     4   9  21  40  57  89 138 176 208 269 334 392
#     4   9  19  36  58  93 135 158 201 279 335 378
#     4  12  20  34  67  98 121 170 225 268 323 390
#
# _framework density 24.073734999999999
#
# number of rings (size 3 to 8) (size 9 to 14) (size 15 to 20)
#    0.000    2.400    0.000    4.800    0.000    6.400 
#    0.000   12.000    0.000    0.000    0.000  193.200 
#    0.000    0.000    0.000    0.000    0.000    0.000 
#
# Total GULP energy -111567.217052 kJ/mol
# GULP energy per Si atom -5578.360853 kJ/mol
# Density = 2.401894 g / cm^3
# Si number density = 24.073735 Si / 1000 Ang^3
#
#
#
# Elastic Constant Matrix: (Units=GPa)
#
#
# Indices 1 2 3 4 5 6 
#
# 1 130.8515 43.2218 66.2396 0.0000 0.0000 0.0000
# 2 43.2218 97.8624 49.6090 0.0000 0.0000 0.0000
# 3 66.2396 49.6090 289.2451 0.0000 0.0000 0.0000
# 4 0.0000 0.0000 0.0000 0.1999 0.0000 0.0000
# 5 0.0000 0.0000 0.0000 0.0000 -37.7558 0.0000
# 6 0.0000 0.0000 0.0000 0.0000 0.0000 31.5043
#
#
#
# Elastic Compliance Matrix: (Units=1/GPa)
#
#
# Indices 1 2 3 4 5 6 
#
# 1 0.009586 -0.003418 -0.001609 0.000000 0.000000 0.000000
# 2 -0.003418 0.012410 -0.001346 0.000000 0.000000 0.000000
# 3 -0.001609 -0.001346 0.004057 0.000000 0.000000 0.000000
# 4 0.000000 0.000000 0.000000 5.001983 0.000000 0.000000
# 5 0.000000 0.000000 0.000000 0.000000 -0.026486 0.000000
# 6 0.000000 0.000000 0.000000 0.000000 0.000000 0.031742
#
#
# Mechanical properties :
#
#
# Convention : Reuss Voigt Hill
#
# Bulk Modulus (GPa) = 75.14811 92.89998 84.02404
# Shear Modulus (GPa) = 0.99001 22.71561 11.85281
#
# Velocity S-wave (km/s) = 0.64198 3.07511 2.22131
# Velocity P-wave (km/s) = 5.64208 7.16114 6.44651
#
# Compressibility (1/GPa) = 0.01330705
#
# Stress axis : x y z
#
# Youngs Moduli (GPa) = 104.32149 80.57883 246.51420
#
# Poissons Ratio (x) = 0.27542 0.39664
# Poissons Ratio (y) = 0.35657 0.33175
# Poissons Ratio (z) = 0.16785 0.10844
#
# Static dielectric constant tensor:
#      x y z
#    x 2.016150 0.000000 0.000000 
#    y 0.000000 1.825970 0.000000 
#    z 0.000000 0.000000 1.977690 
# 
# From -- ./inp_files/3201.got.cif
#   From: 2010.05.17/outbox.cif.g08.bks.cpg/sg66_2_cif.got.tgz:3201.got - 2010.06.03 17:51:23.
