data_PCOD9499377
_publ_section_title
;
Structure prediction by ZEFSAII (Michael W. Deem and Ramdas Pophale) SiO2 
 PCOD9499377
Probable space group: C C C M
;
_chemical_formula_sum "Si O2"
_cell_formula_units_Z 88
_cell_length_a 13.326416
_cell_length_b 13.092937
_cell_length_c 21.364157
_cell_angle_alpha 90.000000
_cell_angle_beta 90.000000
_cell_angle_gamma 90.000000
_cell_volume 3727.659242
_symmetry_space_group_name_H-M "C C C M"
_symmetry_group_IT_number 66
_symmetry_cell_setting 'orthorhombic'
loop_
_space_group_symop_operation_xyz
x,y,z
-x,-y,z
x,-y,1/2-z
-x,y,1/2-z
-x,-y,-z
x,y,-z
-x,y,1/2+z
x,-y,1/2+z
1/2+x,1/2+y,z
1/2-x,1/2-y,z
1/2+x,1/2-y,1/2-z
1/2-x,1/2+y,1/2-z
1/2-x,1/2-y,-z
1/2+x,1/2+y,-z
1/2-x,1/2+y,1/2+z
1/2+x,1/2-y,1/2+z
loop_
_atom_site_type_symbol
_atom_site_label
_atom_site_fract_x
_atom_site_fract_y
_atom_site_fract_z
Si Si1 0.800923 0.000000 0.750000
Si Si2 0.360515 0.725719 0.751430
Si Si3 0.095078 0.938292 0.072070
Si Si4 0.802966 0.479632 0.116139
Si Si5 0.073183 0.275222 0.620378
Si Si6 0.144453 0.701892 0.391229
O O1 0.866047 0.896812 0.756124
O O2 0.731590 0.986088 0.688851
O O3 0.250000 0.750000 0.779039
O O4 0.433735 0.770667 0.803876
O O5 0.356132 0.775150 0.683250
O O6 0.199017 0.997057 0.079120
O O7 0.124032 0.831958 0.104400
O O8 0.072133 0.918761 0.000000
O O9 0.000000 0.000000 0.099780
O O10 0.865393 0.376637 0.102915
O O11 0.863845 0.580971 0.100743
O O12 0.964543 0.259722 0.587900
O O13 0.250000 0.750000 0.414801
#
# Coordination Sequence:
#
# PCOD9499377 Si02
#       6
#     8  16  16  16  16  16
#     4  12  20  36  62  98 140 172 214 271 325 392
#     4  11  20  35  57  94 133 177 215 258 322 397
#     4  11  26  47  70  96 127 170 223 279 338 401
#     4  12  22  41  66  96 135 172 218 274 328 400
#     4  12  23  39  66  97 129 173 224 271 333 390
#     4  11  23  39  59  93 138 178 216 266 329 403
#
# _framework density 23.607308
#
# number of rings (size 3 to 8) (size 9 to 14) (size 15 to 20)
#    0.000    0.545    7.273    2.727    0.000    1.455 
#    0.000    5.000    0.000    5.455    0.000    0.000 
#    0.000    0.000    0.000    0.000    0.000    0.000 
#
# Total GULP energy -245673.714170 kJ/mol
# GULP energy per Si atom -5583.493504 kJ/mol
# Density = 2.355358 g / cm^3
# Si number density = 23.607308 Si / 1000 Ang^3
#
#
#
# Elastic Constant Matrix: (Units=GPa)
#
#
# Indices 1 2 3 4 5 6 
#
# 1 114.3811 11.9124 -1.3606 0.0000 0.0000 0.0000
# 2 11.9124 131.0976 -3.5001 0.0000 0.0000 0.0000
# 3 -1.3606 -3.5001 32.6168 0.0000 0.0000 0.0000
# 4 0.0000 0.0000 0.0000 3.8969 0.0000 0.0000
# 5 0.0000 0.0000 0.0000 0.0000 -266.6677 0.0000
# 6 0.0000 0.0000 0.0000 0.0000 0.0000 6.5537
#
#
#
# Elastic Compliance Matrix: (Units=1/GPa)
#
#
# Indices 1 2 3 4 5 6 
#
# 1 0.008829 -0.000795 0.000283 0.000000 0.000000 0.000000
# 2 -0.000795 0.007721 0.000795 0.000000 0.000000 0.000000
# 3 0.000283 0.000795 0.030756 0.000000 0.000000 0.000000
# 4 0.000000 0.000000 0.000000 0.256615 0.000000 0.000000
# 5 0.000000 0.000000 0.000000 0.000000 -0.003750 0.000000
# 6 0.000000 0.000000 0.000000 0.000000 0.000000 0.152585
#
#
# Mechanical properties :
#
#
# Convention : Reuss Voigt Hill
#
# Bulk Modulus (GPa) = 20.88823 32.46656 26.67739
# Shear Modulus (GPa) = 10.68041 -33.17382 -11.24670
#
# Velocity S-wave (km/s) = 2.12932 -3.75271 -2.18504
# Velocity P-wave (km/s) = 3.86171 2.23484 2.22691
#
# Compressibility (1/GPa) = 0.04787385
#
# Stress axis : x y z
#
# Youngs Moduli (GPa) = 113.26527 129.51100 32.51381
#
# Poissons Ratio (x) = 0.10292 -0.00920
# Poissons Ratio (y) = 0.09001 -0.02586
# Poissons Ratio (z) = -0.03206 -0.10302
#
# Static dielectric constant tensor:
#      x y z
#    x 1.990410 0.000000 0.000000 
#    y 0.000000 1.856750 0.000000 
#    z 0.000000 0.000000 1.923590 
# 
# From -- ./inp_files/64531.got.cif
#   From: 2010.05.17/outbox.cif.g08.bks.cpg/sg66_33_cif.got.tgz:64531.got - 2010.06.03 17:51:23.
