data_PCOD9499385
_publ_section_title
;
Structure prediction by ZEFSAII (Michael W. Deem and Ramdas Pophale) SiO2 
 PCOD9499385
Probable space group: C C C M
;
_chemical_formula_sum "Si O2"
_cell_formula_units_Z 64
_cell_length_a 11.227369
_cell_length_b 9.307681
_cell_length_c 27.860227
_cell_angle_alpha 90.000000
_cell_angle_beta 90.000000
_cell_angle_gamma 90.000000
_cell_volume 2911.415149
_symmetry_space_group_name_H-M "C C C M"
_symmetry_group_IT_number 66
_symmetry_cell_setting 'orthorhombic'
loop_
_space_group_symop_operation_xyz
x,y,z
-x,-y,z
x,-y,1/2-z
-x,y,1/2-z
-x,-y,-z
x,y,-z
-x,y,1/2+z
x,-y,1/2+z
1/2+x,1/2+y,z
1/2-x,1/2-y,z
1/2+x,1/2-y,1/2-z
1/2-x,1/2+y,1/2-z
1/2-x,1/2-y,-z
1/2+x,1/2+y,-z
1/2-x,1/2+y,1/2+z
1/2+x,1/2-y,1/2+z
loop_
_atom_site_type_symbol
_atom_site_label
_atom_site_fract_x
_atom_site_fract_y
_atom_site_fract_z
Si Si1 0.094283 0.108346 0.369403
Si Si2 0.257818 0.580621 0.555346
Si Si3 0.386510 0.181441 0.447676
Si Si4 0.134973 0.166736 0.735791
O O1 0.051583 0.235508 0.404608
O O2 0.146813 0.175712 0.321850
O O3 0.166098 0.000415 0.404391
O O4 0.000000 0.000000 0.347932
O O5 0.302115 0.559834 0.500000
O O6 0.250000 0.750000 0.563519
O O7 0.135459 0.488384 0.557139
O O8 0.438551 0.213869 0.500000
O O9 0.250000 0.250000 0.447410
O O10 0.250000 0.250000 0.757091
O O11 0.000000 0.216523 0.750000
O O12 0.145471 0.000000 0.750000
#
# Coordination Sequence:
#
# PCOD9499385 Si02
#       4
#    16  16  16  16
#     4  11  20  36  59  88 122 165 219 272 328 399
#     4   9  18  33  55  86 124 168 214 267 329 394
#     4   8  15  29  52  82 117 162 209 252 313 391
#     4  11  24  46  71 100 134 172 223 284 346 412
#
# _framework density 21.982437000000001
#
# number of rings (size 3 to 8) (size 9 to 14) (size 15 to 20)
#    0.000    2.250    2.500    4.500    0.000    3.500 
#    0.000    1.250    5.500    4.500    0.000    0.000 
#    0.000    0.000    0.000    0.000    0.000    0.000 
#
# Total GULP energy -178216.024197 kJ/mol
# GULP energy per Si atom -5569.250756 kJ/mol
# Density = 2.193240 g / cm^3
# Si number density = 21.982437 Si / 1000 Ang^3
#
#
#
# Elastic Constant Matrix: (Units=GPa)
#
#
# Indices 1 2 3 4 5 6 
#
# 1 104.3634 41.0828 17.9751 0.0000 0.0000 0.0000
# 2 41.0828 132.0752 48.0256 0.0000 0.0000 0.0000
# 3 17.9751 48.0256 118.0755 0.0000 0.0000 0.0000
# 4 0.0000 0.0000 0.0000 5.3740 0.0000 0.0000
# 5 0.0000 0.0000 0.0000 0.0000 36.5653 0.0000
# 6 0.0000 0.0000 0.0000 0.0000 0.0000 41.1081
#
#
#
# Elastic Compliance Matrix: (Units=1/GPa)
#
#
# Indices 1 2 3 4 5 6 
#
# 1 0.010930 -0.003280 -0.000330 0.000000 0.000000 0.000000
# 2 -0.003280 0.009870 -0.003515 0.000000 0.000000 0.000000
# 3 -0.000330 -0.003515 0.009949 0.000000 0.000000 0.000000
# 4 0.000000 0.000000 0.000000 0.186082 0.000000 0.000000
# 5 0.000000 0.000000 0.000000 0.000000 0.027348 0.000000
# 6 0.000000 0.000000 0.000000 0.000000 0.000000 0.024326
#
#
# Mechanical properties :
#
#
# Convention : Reuss Voigt Hill
#
# Bulk Modulus (GPa) = 60.60928 63.18678 61.89803
# Shear Modulus (GPa) = 17.34581 33.10486 25.22533
#
# Velocity S-wave (km/s) = 2.81210 3.88489 3.39118
# Velocity P-wave (km/s) = 6.17862 6.99498 6.59944
#
# Compressibility (1/GPa) = 0.01649912
#
# Stress axis : x y z
#
# Youngs Moduli (GPa) = 91.49268 101.31874 100.51165
#
# Poissons Ratio (x) = 0.33231 0.03315
# Poissons Ratio (y) = 0.30008 0.35331
# Poissons Ratio (z) = 0.03018 0.35615
#
# Static dielectric constant tensor:
#      x y z
#    x 2.004120 0.000000 0.000000 
#    y 0.000000 1.826460 0.000000 
#    z 0.000000 0.000000 1.545910 
# 
# From -- ./inp_files/68581.got.cif
#   From: 2010.05.17/outbox.cif.g08.bks.cpg/sg66_35_cif.got.tgz:68581.got - 2010.06.03 17:51:23.
