data_PCOD9499376
_publ_section_title
;
Structure prediction by ZEFSAII (Michael W. Deem and Ramdas Pophale) SiO2 
 PCOD9499376
Probable space group: C C C M
;
_chemical_formula_sum "Si O2"
_cell_formula_units_Z 116
_cell_length_a 23.290532
_cell_length_b 9.763348
_cell_length_c 28.111404
_cell_angle_alpha 90.000000
_cell_angle_beta 90.000000
_cell_angle_gamma 90.000000
_cell_volume 6392.352486
_symmetry_space_group_name_H-M "C C C M"
_symmetry_group_IT_number 66
_symmetry_cell_setting 'orthorhombic'
loop_
_space_group_symop_operation_xyz
x,y,z
-x,-y,z
x,-y,1/2-z
-x,y,1/2-z
-x,-y,-z
x,y,-z
-x,y,1/2+z
x,-y,1/2+z
1/2+x,1/2+y,z
1/2-x,1/2-y,z
1/2+x,1/2-y,1/2-z
1/2-x,1/2+y,1/2-z
1/2-x,1/2-y,-z
1/2+x,1/2+y,-z
1/2-x,1/2+y,1/2+z
1/2+x,1/2-y,1/2+z
loop_
_atom_site_type_symbol
_atom_site_label
_atom_site_fract_x
_atom_site_fract_y
_atom_site_fract_z
Si Si1 0.870656 0.210877 0.351777
Si Si2 0.318253 0.001818 0.867706
Si Si3 0.567360 0.663757 0.754958
Si Si4 0.214916 0.998462 0.806290
Si Si5 0.901766 0.029405 0.918553
Si Si6 0.000000 0.000000 0.500000
Si Si7 0.230704 0.091550 0.554411
Si Si8 0.372661 0.725854 0.839962
O O1 0.853495 0.359368 0.369808
O O2 0.911959 0.213771 0.306175
O O3 0.896416 0.118734 0.393766
O O4 0.815656 0.128055 0.330974
O O5 0.281272 0.000188 0.819317
O O6 0.270665 0.991261 0.909180
O O7 0.356763 0.866446 0.865384
O O8 0.579964 0.500000 0.750000
O O9 0.500000 0.680876 0.750000
O O10 0.598451 0.739318 0.711443
O O11 0.184348 0.865272 0.829258
O O12 0.206655 0.000000 0.750000
O O13 0.837304 0.069711 0.936656
O O14 0.911979 0.134894 0.874939
O O15 0.950353 0.029030 0.958315
O O16 0.242843 0.052355 0.500000
O O17 0.250000 0.250000 0.560412
#
# Coordination Sequence:
#
# PCOD9499376 Si02
#       8
#    16  16  16  16  16   4  16  16
#     4  11  23  39  58  92 132 160 203 253 315 377
#     4  12  24  36  59  93 133 169 190 251 328 373
#     4  11  22  40  64  88 115 170 220 260 298 355
#     4  11  20  35  56  90 131 170 206 241 297 379
#     4  11  23  42  65  93 124 155 209 268 305 369
#     4  12  28  44  74  98 108 160 224 272 302 344
#     4  11  21  40  66  96 122 161 209 260 315 385
#     4  11  21  39  62  90 125 161 214 251 303 377
#
# _framework density 18.146682999999999
#
# number of rings (size 3 to 8) (size 9 to 14) (size 15 to 20)
#    0.000    0.828    8.966    0.828    3.862    1.103 
#    1.241    2.069    0.000    0.828    0.000    0.000 
#    0.000    0.000    0.000    0.000    0.000    0.000 
#
# Total GULP energy -323369.581534 kJ/mol
# GULP energy per Si atom -5575.337613 kJ/mol
# Density = 1.810538 g / cm^3
# Si number density = 18.146683 Si / 1000 Ang^3
#
#
#
# Elastic Constant Matrix: (Units=GPa)
#
#
# Indices 1 2 3 4 5 6 
#
# 1 95.6536 33.1875 43.9343 0.0000 0.0000 0.0000
# 2 33.1875 96.4919 34.0837 0.0000 0.0000 0.0000
# 3 43.9343 34.0837 114.8152 0.0000 0.0000 0.0000
# 4 0.0000 0.0000 0.0000 13.8481 0.0000 0.0000
# 5 0.0000 0.0000 0.0000 0.0000 37.6734 0.0000
# 6 0.0000 0.0000 0.0000 0.0000 0.0000 11.6365
#
#
#
# Elastic Compliance Matrix: (Units=1/GPa)
#
#
# Indices 1 2 3 4 5 6 
#
# 1 0.013487 -0.003146 -0.004227 0.000000 0.000000 0.000000
# 2 -0.003146 0.012311 -0.002451 0.000000 0.000000 0.000000
# 3 -0.004227 -0.002451 0.011055 0.000000 0.000000 0.000000
# 4 0.000000 0.000000 0.000000 0.072212 0.000000 0.000000
# 5 0.000000 0.000000 0.000000 0.000000 0.026544 0.000000
# 6 0.000000 0.000000 0.000000 0.000000 0.000000 0.085936
#
#
# Mechanical properties :
#
#
# Convention : Reuss Voigt Hill
#
# Bulk Modulus (GPa) = 58.12015 58.81907 58.46961
# Shear Modulus (GPa) = 20.24877 25.68195 22.96536
#
# Velocity S-wave (km/s) = 3.34404 3.76605 3.56130
# Velocity P-wave (km/s) = 6.85621 7.16899 7.01434
#
# Compressibility (1/GPa) = 0.01720574
#
# Stress axis : x y z
#
# Youngs Moduli (GPa) = 74.14347 81.22650 90.45879
#
# Poissons Ratio (x) = 0.25551 0.38238
# Poissons Ratio (y) = 0.23323 0.22171
# Poissons Ratio (z) = 0.31342 0.19908
#
# Static dielectric constant tensor:
#      x y z
#    x 1.625240 0.000000 0.000000 
#    y 0.000000 1.622260 0.000000 
#    z 0.000000 0.000000 1.619700 
# 
# From -- ./inp_files/70463.got.cif
#   From: 2010.05.17/outbox.cif.g08.bks.cpg/sg66_36_cif.got.tgz:70463.got - 2010.06.03 17:51:23.
