data_PCOD9499761
_publ_section_title
;
Structure prediction by ZEFSAII (Michael W. Deem and Ramdas Pophale) SiO2 
 PCOD9499761
Probable space group: C C C M
;
_chemical_formula_sum "Si O2"
_cell_formula_units_Z 56
_cell_length_a 10.774714
_cell_length_b 14.974623
_cell_length_c 14.095535
_cell_angle_alpha 90.000000
_cell_angle_beta 90.000000
_cell_angle_gamma 90.000000
_cell_volume 2274.276234
_symmetry_space_group_name_H-M "C C C M"
_symmetry_group_IT_number 66
_symmetry_cell_setting 'orthorhombic'
loop_
_space_group_symop_operation_xyz
x,y,z
-x,-y,z
x,-y,1/2-z
-x,y,1/2-z
-x,-y,-z
x,y,-z
-x,y,1/2+z
x,-y,1/2+z
1/2+x,1/2+y,z
1/2-x,1/2-y,z
1/2+x,1/2-y,1/2-z
1/2-x,1/2+y,1/2-z
1/2-x,1/2-y,-z
1/2+x,1/2+y,-z
1/2-x,1/2+y,1/2+z
1/2+x,1/2-y,1/2+z
loop_
_atom_site_type_symbol
_atom_site_label
_atom_site_fract_x
_atom_site_fract_y
_atom_site_fract_z
Si Si1 0.372359 0.810376 0.296067
Si Si2 0.974841 0.696745 0.000000
Si Si3 0.547347 0.395677 0.000000
Si Si4 0.135362 0.462680 0.500000
Si Si5 0.285380 0.560499 0.829561
O O1 0.500000 0.772526 0.250000
O O2 0.250000 0.750000 0.299666
O O3 0.410367 0.832218 0.402930
O O4 0.322308 0.887595 0.226826
O O5 0.968273 0.805106 0.000000
O O6 0.109805 0.645889 0.000000
O O7 0.500000 0.500000 0.000000
O O8 0.622973 0.386955 0.900192
O O9 0.211346 0.493150 0.590675
O O10 0.000000 0.500000 0.500000
O O11 0.349593 0.500000 0.750000
#
# Coordination Sequence:
#
# PCOD9499761 Si02
#       5
#    16   8   8   8  16
#     4  12  26  46  77 114 152 203 260 322 398 476
#     4  12  25  47  77 112 156 197 261 330 399 468
#     4  11  29  53  71 109 163 215 267 326 391 476
#     4  11  23  43  74 109 151 190 252 328 395 462
#     4  11  26  45  75 107 154 203 263 323 397 466
#
# _framework density 24.623217
#
# number of rings (size 3 to 8) (size 9 to 14) (size 15 to 20)
#    0.000    0.571    2.857    3.857    4.000    2.857 
#    0.000    0.000    0.000    0.000    0.000    0.000 
#    0.000    0.000    0.000    0.000    0.000    0.000 
#
# Total GULP energy -156214.202007 kJ/mol
# GULP energy per Si atom -5579.078643 kJ/mol
# Density = 2.456717 g / cm^3
# Si number density = 24.623217 Si / 1000 Ang^3
#
#
#
# Elastic Constant Matrix: (Units=GPa)
#
#
# Indices 1 2 3 4 5 6 
#
# 1 97.5148 19.2355 50.0438 0.0000 0.0000 0.0000
# 2 19.2355 82.6027 29.6404 0.0000 0.0000 0.0000
# 3 50.0438 29.6404 243.0566 0.0000 0.0000 0.0000
# 4 0.0000 0.0000 0.0000 91.6547 0.0000 0.0000
# 5 0.0000 0.0000 0.0000 0.0000 21.9432 0.0000
# 6 0.0000 0.0000 0.0000 0.0000 0.0000 42.4029
#
#
#
# Elastic Compliance Matrix: (Units=1/GPa)
#
#
# Indices 1 2 3 4 5 6 
#
# 1 0.011761 -0.001955 -0.002183 0.000000 0.000000 0.000000
# 2 -0.001955 0.012985 -0.001181 0.000000 0.000000 0.000000
# 3 -0.002183 -0.001181 0.004708 0.000000 0.000000 0.000000
# 4 0.000000 0.000000 0.000000 0.010911 0.000000 0.000000
# 5 0.000000 0.000000 0.000000 0.000000 0.045572 0.000000
# 6 0.000000 0.000000 0.000000 0.000000 0.000000 0.023583
#
#
# Mechanical properties :
#
#
# Convention : Reuss Voigt Hill
#
# Bulk Modulus (GPa) = 53.14858 69.00148 61.07503
# Shear Modulus (GPa) = 39.54746 52.81713 46.18230
#
# Velocity S-wave (km/s) = 4.01197 4.63645 4.33547
# Velocity P-wave (km/s) = 6.56451 7.53300 7.06537
#
# Compressibility (1/GPa) = 0.01881518
#
# Stress axis : x y z
#
# Youngs Moduli (GPa) = 85.02760 77.01055 212.41559
#
# Poissons Ratio (x) = 0.15059 0.46371
# Poissons Ratio (y) = 0.16626 0.25085
# Poissons Ratio (z) = 0.18562 0.09094
#
# Static dielectric constant tensor:
#      x y z
#    x 1.945850 0.000000 0.000000 
#    y 0.000000 2.240240 0.000000 
#    z 0.000000 0.000000 1.950430 
# 
# From -- ./inp_files/25436.got.cif
#   From: 2010.05.17/outbox.cif.g08.bks.cpg/sg66_13_cif.got.tgz:25436.got - 2010.06.03 17:51:23.
