data_PCOD9499411
_publ_section_title
;
Structure prediction by ZEFSAII (Michael W. Deem and Ramdas Pophale) SiO2 
 PCOD9499411
Probable space group: C C C M
;
_chemical_formula_sum "Si O2"
_cell_formula_units_Z 72
_cell_length_a 6.765065
_cell_length_b 16.750323
_cell_length_c 22.361149
_cell_angle_alpha 90.000000
_cell_angle_beta 90.000000
_cell_angle_gamma 90.000000
_cell_volume 2533.898855
_symmetry_space_group_name_H-M "C C C M"
_symmetry_group_IT_number 66
_symmetry_cell_setting 'orthorhombic'
loop_
_space_group_symop_operation_xyz
x,y,z
-x,-y,z
x,-y,1/2-z
-x,y,1/2-z
-x,-y,-z
x,y,-z
-x,y,1/2+z
x,-y,1/2+z
1/2+x,1/2+y,z
1/2-x,1/2-y,z
1/2+x,1/2-y,1/2-z
1/2-x,1/2+y,1/2-z
1/2-x,1/2-y,-z
1/2+x,1/2+y,-z
1/2-x,1/2+y,1/2+z
1/2+x,1/2-y,1/2+z
loop_
_atom_site_type_symbol
_atom_site_label
_atom_site_fract_x
_atom_site_fract_y
_atom_site_fract_z
Si Si1 0.963368 0.819578 0.000000
Si Si2 0.500000 0.258905 0.750000
Si Si3 0.075366 0.357248 0.500000
Si Si4 0.352253 0.170273 0.627246
Si Si5 0.773622 0.413300 0.728279
Si Si6 0.451101 0.586196 0.611822
O O1 0.963190 0.726084 0.000000
O O2 0.187437 0.853337 0.000000
O O3 0.883600 0.854526 0.939170
O O4 0.469030 0.212047 0.684240
O O5 0.722775 0.420152 0.659073
O O6 0.049508 0.378660 0.571603
O O7 0.250000 0.250000 0.599722
O O8 0.176282 0.173952 0.757587
O O9 0.697653 0.500000 0.750000
O O10 0.657316 0.383274 0.857273
O O11 0.000000 0.414754 0.750000
O O12 0.500000 0.500000 0.585565
#
# Coordination Sequence:
#
# PCOD9499411 Si02
#       6
#     8   8   8  16  16  16
#     4   9  15  30  64 110 145 201 263 328 394 475
#     4  12  23  44  72 110 155 196 264 330 392 477
#     4   9  14  32  64 103 154 195 253 321 402 457
#     4  11  20  39  68 109 152 202 256 329 396 470
#     4  11  25  45  70 100 151 210 258 317 398 477
#     4  11  21  40  69 107 157 206 265 329 403 486
#
# _framework density 28.414708999999998
#
# number of rings (size 3 to 8) (size 9 to 14) (size 15 to 20)
#    0.000    1.333    6.667    2.000    0.000    0.000 
#    4.000    1.111    0.000    4.000    0.000    5.444 
#    0.000    0.000    0.000    2.556    0.000    0.333 
#
# Total GULP energy -200492.105592 kJ/mol
# GULP energy per Si atom -5569.225155 kJ/mol
# Density = 2.835004 g / cm^3
# Si number density = 28.414709 Si / 1000 Ang^3
#
#
#
# Elastic Constant Matrix: (Units=GPa)
#
#
# Indices 1 2 3 4 5 6 
#
# 1 197.3566 14.8025 72.6347 0.0000 0.0000 0.0000
# 2 14.8025 128.3525 39.3315 0.0000 0.0000 0.0000
# 3 72.6347 39.3315 243.2264 0.0000 0.0000 0.0000
# 4 0.0000 0.0000 0.0000 50.5513 0.0000 0.0000
# 5 0.0000 0.0000 0.0000 0.0000 -3.1965 0.0000
# 6 0.0000 0.0000 0.0000 0.0000 0.0000 22.9765
#
#
#
# Elastic Compliance Matrix: (Units=1/GPa)
#
#
# Indices 1 2 3 4 5 6 
#
# 1 0.005695 -0.000143 -0.001678 0.000000 0.000000 0.000000
# 2 -0.000143 0.008201 -0.001284 0.000000 0.000000 0.000000
# 3 -0.001678 -0.001284 0.004820 0.000000 0.000000 0.000000
# 4 0.000000 0.000000 0.000000 0.019782 0.000000 0.000000
# 5 0.000000 0.000000 0.000000 0.000000 -0.312840 0.000000
# 6 0.000000 0.000000 0.000000 0.000000 0.000000 0.043523
#
#
# Mechanical properties :
#
#
# Convention : Reuss Voigt Hill
#
# Bulk Modulus (GPa) = 79.94809 91.38586 85.66698
# Shear Modulus (GPa) = -22.68164 43.54404 10.43120
#
# Velocity S-wave (km/s) = -2.82837 3.91890 1.91808
# Velocity P-wave (km/s) = 4.18700 7.26005 5.92618
#
# Compressibility (1/GPa) = 0.01250812
#
# Stress axis : x y z
#
# Youngs Moduli (GPa) = 175.58909 121.93916 207.47118
#
# Poissons Ratio (x) = 0.01740 0.34806
# Poissons Ratio (y) = 0.02506 0.26629
# Poissons Ratio (z) = 0.29458 0.15651
#
# Static dielectric constant tensor:
#      x y z
#    x 2.758030 0.000000 0.000000 
#    y 0.000000 2.244170 0.000000 
#    z 0.000000 0.000000 2.336560 
# 
# From -- ./inp_files/38357.got.cif
#   From: 2010.05.17/outbox.cif.g08.bks.cpg/sg66_20_cif.got.tgz:38357.got - 2010.06.03 17:51:23.
