data_PCOD9499099
_publ_section_title
;
Structure prediction by ZEFSAII (Michael W. Deem and Ramdas Pophale) SiO2 
 PCOD9499099
Probable space group: C C C M
;
_chemical_formula_sum "Si O2"
_cell_formula_units_Z 84
_cell_length_a 20.511057
_cell_length_b 16.075050
_cell_length_c 13.149790
_cell_angle_alpha 90.000000
_cell_angle_beta 90.000000
_cell_angle_gamma 90.000000
_cell_volume 4335.699668
_symmetry_space_group_name_H-M "C C C M"
_symmetry_group_IT_number 66
_symmetry_cell_setting 'orthorhombic'
loop_
_space_group_symop_operation_xyz
x,y,z
-x,-y,z
x,-y,1/2-z
-x,y,1/2-z
-x,-y,-z
x,y,-z
-x,y,1/2+z
x,-y,1/2+z
1/2+x,1/2+y,z
1/2-x,1/2-y,z
1/2+x,1/2-y,1/2-z
1/2-x,1/2+y,1/2-z
1/2-x,1/2-y,-z
1/2+x,1/2+y,-z
1/2-x,1/2+y,1/2+z
1/2+x,1/2-y,1/2+z
loop_
_atom_site_type_symbol
_atom_site_label
_atom_site_fract_x
_atom_site_fract_y
_atom_site_fract_z
Si Si1 0.116399 0.457729 0.000000
Si Si2 0.893123 0.898820 0.617959
Si Si3 0.751468 0.351703 0.878356
Si Si4 0.030730 0.385954 0.500000
Si Si5 0.359347 0.911865 0.718737
Si Si6 0.941016 0.272302 0.189361
Si Si7 0.000000 0.000000 0.750000
O O1 0.094387 0.554124 0.000000
O O2 0.154152 0.427618 0.100160
O O3 0.042124 0.422507 0.000000
O O4 0.902558 0.919956 0.500000
O O5 0.815834 0.902786 0.641090
O O6 0.902335 0.800574 0.636353
O O7 0.948388 0.946944 0.681827
O O8 0.750000 0.250000 0.860378
O O9 0.802452 0.392345 0.799602
O O10 0.766026 0.360368 0.000000
O O11 0.035870 0.332395 0.399151
O O12 0.403754 0.831127 0.731889
O O13 0.392348 0.000000 0.750000
O O14 0.000000 0.232278 0.250000
#
# Coordination Sequence:
#
# PCOD9499099 Si02
#       7
#     8  16  16   8  16  16   4
#     4  11  24  38  55  91 142 180 209 258 326 398
#     4  11  24  44  70  95 125 166 219 279 333 393
#     4  10  23  43  69  95 122 168 230 280 321 385
#     4  11  22  36  58  91 131 174 219 259 313 395
#     4  12  25  38  61  94 136 173 219 267 329 388
#     4  12  22  38  65  96 127 171 217 270 321 388
#     4  12  26  44  68 102 134 164 212 276 352 414
#
# _framework density 19.374034999999999
#
# number of rings (size 3 to 8) (size 9 to 14) (size 15 to 20)
#    0.000    0.762    7.619    0.286    4.000    0.381 
#    0.000    0.476    2.095    0.000    0.000    0.000 
#    0.000    0.000    0.000    0.000    0.000    0.000 
#
# Total GULP energy -233962.868034 kJ/mol
# GULP energy per Si atom -5570.544477 kJ/mol
# Density = 1.932994 g / cm^3
# Si number density = 19.374035 Si / 1000 Ang^3
#
#
#
# Elastic Constant Matrix: (Units=GPa)
#
#
# Indices 1 2 3 4 5 6 
#
# 1 89.3945 32.9538 45.9464 0.0000 0.0000 0.0000
# 2 32.9538 57.4632 12.9056 0.0000 0.0000 0.0000
# 3 45.9464 12.9056 105.2788 0.0000 0.0000 0.0000
# 4 0.0000 0.0000 0.0000 33.3110 0.0000 0.0000
# 5 0.0000 0.0000 0.0000 0.0000 8.4768 0.0000
# 6 0.0000 0.0000 0.0000 0.0000 0.0000 24.6796
#
#
#
# Elastic Compliance Matrix: (Units=1/GPa)
#
#
# Indices 1 2 3 4 5 6 
#
# 1 0.017862 -0.008733 -0.006725 0.000000 0.000000 0.000000
# 2 -0.008733 0.022165 0.001094 0.000000 0.000000 0.000000
# 3 -0.006725 0.001094 0.012299 0.000000 0.000000 0.000000
# 4 0.000000 0.000000 0.000000 0.030020 0.000000 0.000000
# 5 0.000000 0.000000 0.000000 0.000000 0.117969 0.000000
# 6 0.000000 0.000000 0.000000 0.000000 0.000000 0.040519
#
#
# Mechanical properties :
#
#
# Convention : Reuss Voigt Hill
#
# Bulk Modulus (GPa) = 42.37497 48.41642 45.39570
# Shear Modulus (GPa) = 18.02265 23.98220 21.00242
#
# Velocity S-wave (km/s) = 3.05330 3.52213 3.29606
# Velocity P-wave (km/s) = 5.86087 6.44865 6.16177
#
# Compressibility (1/GPa) = 0.02359884
#
# Stress axis : x y z
#
# Youngs Moduli (GPa) = 55.98429 45.11628 81.30486
#
# Poissons Ratio (x) = 0.39401 0.54677
# Poissons Ratio (y) = 0.48892 -0.08897
# Poissons Ratio (z) = 0.37649 -0.04937
#
# Static dielectric constant tensor:
#      x y z
#    x 1.731450 0.000000 0.000000 
#    y 0.000000 1.708570 0.000000 
#    z 0.000000 0.000000 1.651420 
# 
# From -- ./inp_files/18768.got.cif
#   From: 2010.05.17/outbox.cif.g08.bks.cpg/sg66_10_cif.got.tgz:18768.got - 2010.06.03 17:51:23.
