data_PCOD9499573
_publ_section_title
;
Structure prediction by ZEFSAII (Michael W. Deem and Ramdas Pophale) SiO2 
 PCOD9499573
Probable space group: C C C M
;
_chemical_formula_sum "Si O2"
_cell_formula_units_Z 80
_cell_length_a 10.414123
_cell_length_b 10.938560
_cell_length_c 32.009426
_cell_angle_alpha 90.000000
_cell_angle_beta 90.000000
_cell_angle_gamma 90.000000
_cell_volume 3646.370065
_symmetry_space_group_name_H-M "C C C M"
_symmetry_group_IT_number 66
_symmetry_cell_setting 'orthorhombic'
loop_
_space_group_symop_operation_xyz
x,y,z
-x,-y,z
x,-y,1/2-z
-x,y,1/2-z
-x,-y,-z
x,y,-z
-x,y,1/2+z
x,-y,1/2+z
1/2+x,1/2+y,z
1/2-x,1/2-y,z
1/2+x,1/2-y,1/2-z
1/2-x,1/2+y,1/2-z
1/2-x,1/2-y,-z
1/2+x,1/2+y,-z
1/2-x,1/2+y,1/2+z
1/2+x,1/2-y,1/2+z
loop_
_atom_site_type_symbol
_atom_site_label
_atom_site_fract_x
_atom_site_fract_y
_atom_site_fract_z
Si Si1 0.931470 0.622505 0.647031
Si Si2 0.438659 0.309099 0.906987
Si Si3 0.205671 0.548467 0.000000
Si Si4 0.954414 0.703075 0.000000
Si Si5 0.150102 0.644352 0.762085
Si Si6 0.300846 0.455210 0.409318
O O1 0.856931 0.664014 0.687943
O O2 0.826712 0.596292 0.611312
O O3 0.000000 0.500000 0.661271
O O4 0.043732 0.700102 0.625310
O O5 0.572584 0.379983 0.898729
O O6 0.325626 0.403925 0.898162
O O7 0.430455 0.270588 0.955873
O O8 0.288218 0.554901 0.958807
O O9 0.131780 0.419091 0.000000
O O10 0.100510 0.655433 0.000000
O O11 0.182049 0.500000 0.750000
O O12 0.250000 0.750000 0.745704
O O13 0.000000 0.664872 0.750000
#
# Coordination Sequence:
#
# PCOD9499573 Si02
#       6
#    16  16   8   8  16  16
#     4  12  24  44  70  98 135 175 219 277 342 406
#     4  11  24  40  62  94 130 174 226 278 333 396
#     4  11  22  37  58  87 126 177 226 275 335 391
#     4  11  22  37  58  87 126 177 226 275 335 391
#     4  11  25  50  78 110 146 185 231 289 359 436
#     4  11  24  40  62  94 130 174 226 278 333 396
#
# _framework density 21.939627000000002
#
# number of rings (size 3 to 8) (size 9 to 14) (size 15 to 20)
#    0.000    0.800    4.000    4.200    0.000    8.400 
#    0.000    0.000    0.000    0.000    0.000    0.000 
#    0.000    0.000    0.000    0.000    0.000    0.000 
#
# Total GULP energy -223497.123626 kJ/mol
# GULP energy per Si atom -5587.428091 kJ/mol
# Density = 2.188969 g / cm^3
# Si number density = 21.939627 Si / 1000 Ang^3
#
#
#
# Elastic Constant Matrix: (Units=GPa)
#
#
# Indices 1 2 3 4 5 6 
#
# 1 75.1672 40.5426 -0.1148 0.0000 0.0000 0.0000
# 2 40.5426 110.1914 22.5252 0.0000 0.0000 0.0000
# 3 -0.1148 22.5252 80.2489 0.0000 0.0000 0.0000
# 4 0.0000 0.0000 0.0000 8.0291 0.0000 0.0000
# 5 0.0000 0.0000 0.0000 0.0000 13.7204 0.0000
# 6 0.0000 0.0000 0.0000 0.0000 0.0000 39.3671
#
#
#
# Elastic Compliance Matrix: (Units=1/GPa)
#
#
# Indices 1 2 3 4 5 6 
#
# 1 0.016859 -0.006586 0.001873 0.000000 0.000000 0.000000
# 2 -0.006586 0.012200 -0.003434 0.000000 0.000000 0.000000
# 3 0.001873 -0.003434 0.013428 0.000000 0.000000 0.000000
# 4 0.000000 0.000000 0.000000 0.124546 0.000000 0.000000
# 5 0.000000 0.000000 0.000000 0.000000 0.072884 0.000000
# 6 0.000000 0.000000 0.000000 0.000000 0.000000 0.025402
#
#
# Mechanical properties :
#
#
# Convention : Reuss Voigt Hill
#
# Bulk Modulus (GPa) = 38.17844 43.50151 40.83997
# Shear Modulus (GPa) = 17.22100 25.73362 21.47731
#
# Velocity S-wave (km/s) = 2.80469 3.42852 3.13218
# Velocity P-wave (km/s) = 5.28467 5.96187 5.63346
#
# Compressibility (1/GPa) = 0.02619280
#
# Stress axis : x y z
#
# Youngs Moduli (GPa) = 59.31707 81.96666 74.47247
#
# Poissons Ratio (x) = 0.53980 -0.13946
# Poissons Ratio (y) = 0.39064 0.25573
# Poissons Ratio (z) = -0.11108 0.28146
#
# Static dielectric constant tensor:
#      x y z
#    x 1.788390 0.000000 0.000000 
#    y 0.000000 1.921930 0.000000 
#    z 0.000000 0.000000 1.935000 
# 
# From -- ./inp_files/68809.got.cif
#   From: 2010.05.17/outbox.cif.g08.bks.cpg/sg66_35_cif.got.tgz:68809.got - 2010.06.03 17:51:23.
