data_PCOD9499326
_publ_section_title
;
Structure prediction by ZEFSAII (Michael W. Deem and Ramdas Pophale) SiO2 
 PCOD9499326
Probable space group: C C C M
;
_chemical_formula_sum "Si O2"
_cell_formula_units_Z 128
_cell_length_a 11.158465
_cell_length_b 22.607760
_cell_length_c 28.229681
_cell_angle_alpha 90.000000
_cell_angle_beta 90.000000
_cell_angle_gamma 90.000000
_cell_volume 7121.442307
_symmetry_space_group_name_H-M "C C C M"
_symmetry_group_IT_number 66
_symmetry_cell_setting 'orthorhombic'
loop_
_space_group_symop_operation_xyz
x,y,z
-x,-y,z
x,-y,1/2-z
-x,y,1/2-z
-x,-y,-z
x,y,-z
-x,y,1/2+z
x,-y,1/2+z
1/2+x,1/2+y,z
1/2-x,1/2-y,z
1/2+x,1/2-y,1/2-z
1/2-x,1/2+y,1/2-z
1/2-x,1/2-y,-z
1/2+x,1/2+y,-z
1/2-x,1/2+y,1/2+z
1/2+x,1/2-y,1/2+z
loop_
_atom_site_type_symbol
_atom_site_label
_atom_site_fract_x
_atom_site_fract_y
_atom_site_fract_z
Si Si1 0.974356 0.183424 0.368741
Si Si2 0.360062 0.498295 0.306643
Si Si3 0.310586 0.475466 0.945389
Si Si4 0.107156 0.121417 0.714981
Si Si5 0.238662 0.602214 0.364668
Si Si6 0.434884 0.594282 0.055420
Si Si7 0.179358 0.695014 0.232532
Si Si8 0.453899 0.808526 0.328642
O O1 0.844249 0.151487 0.368753
O O2 0.962791 0.254327 0.365635
O O3 0.042081 0.166145 0.320230
O O4 0.047899 0.151257 0.411076
O O5 0.500000 0.500000 0.320997
O O6 0.346223 0.500000 0.250000
O O7 0.333465 0.429974 0.316577
O O8 0.288043 0.551165 0.329582
O O9 0.225985 0.435743 0.912782
O O10 0.438151 0.440889 0.942577
O O11 0.338897 0.543260 0.930409
O O12 0.273536 0.476616 0.000000
O O13 0.216313 0.148724 0.743683
O O14 0.000000 0.101049 0.750000
O O15 0.120072 0.636266 0.348717
O O16 0.414418 0.609534 0.000000
O O17 0.250000 0.750000 0.211097
O O18 0.118201 0.713541 0.281751
O O19 0.081289 0.674380 0.194663
#
# Coordination Sequence:
#
# PCOD9499326 Si02
#       8
#    16  16  16  16  16  16  16  16
#     4  11  19  30  51  76 104 139 180 225 272 320
#     4  11  19  30  47  78 106 135 170 222 274 317
#     4   8  15  28  48  75 108 144 174 216 284 354
#     4  12  20  32  54  80 103 133 181 231 272 321
#     4  11  20  32  51  76 113 143 178 225 277 341
#     4   8  15  28  48  77 110 137 172 223 286 345
#     4  11  22  37  52  70 103 147 185 230 269 326
#     4  11  23  36  49  73 105 147 191 222 275 329
#
# _framework density 17.973887999999999
#
# number of rings (size 3 to 8) (size 9 to 14) (size 15 to 20)
#    0.000    1.625    3.750    4.875    1.750    0.000 
#    0.000    1.250    0.000    5.250    0.000    2.625 
#    0.000    3.000    0.000    0.000    0.000    0.000 
#
# Total GULP energy -356489.805480 kJ/mol
# GULP energy per Si atom -5570.153211 kJ/mol
# Density = 1.793298 g / cm^3
# Si number density = 17.973888 Si / 1000 Ang^3
#
#
#
# Elastic Constant Matrix: (Units=GPa)
#
#
# Indices 1 2 3 4 5 6 
#
# 1 67.8538 41.9974 29.7347 0.0000 0.0000 0.0000
# 2 41.9974 107.5069 42.8674 0.0000 0.0000 0.0000
# 3 29.7347 42.8674 84.0995 0.0000 0.0000 0.0000
# 4 0.0000 0.0000 0.0000 19.1584 0.0000 0.0000
# 5 0.0000 0.0000 0.0000 0.0000 11.5041 0.0000
# 6 0.0000 0.0000 0.0000 0.0000 0.0000 24.7100
#
#
#
# Elastic Compliance Matrix: (Units=1/GPa)
#
#
# Indices 1 2 3 4 5 6 
#
# 1 0.020437 -0.006404 -0.003962 0.000000 0.000000 0.000000
# 2 -0.006404 0.013681 -0.004709 0.000000 0.000000 0.000000
# 3 -0.003962 -0.004709 0.015692 0.000000 0.000000 0.000000
# 4 0.000000 0.000000 0.000000 0.052196 0.000000 0.000000
# 5 0.000000 0.000000 0.000000 0.000000 0.086926 0.000000
# 6 0.000000 0.000000 0.000000 0.000000 0.000000 0.040469
#
#
# Mechanical properties :
#
#
# Convention : Reuss Voigt Hill
#
# Bulk Modulus (GPa) = 50.86410 54.29547 52.57978
# Shear Modulus (GPa) = 18.78949 20.73187 19.76068
#
# Velocity S-wave (km/s) = 3.23674 3.39992 3.31933
# Velocity P-wave (km/s) = 6.50607 6.75916 6.63382
#
# Compressibility (1/GPa) = 0.01966023
#
# Stress axis : x y z
#
# Youngs Moduli (GPa) = 48.92988 73.09220 63.72741
#
# Poissons Ratio (x) = 0.46810 0.25246
# Poissons Ratio (y) = 0.31336 0.30012
# Poissons Ratio (z) = 0.19384 0.34422
#
# Static dielectric constant tensor:
#      x y z
#    x 1.622960 0.000000 0.000000 
#    y 0.000000 1.684870 0.000000 
#    z 0.000000 0.000000 1.652770 
# 
# From -- ./inp_files/63997.got.cif
#   From: 2010.05.17/outbox.cif.g08.bks.cpg/sg66_32_cif.got.tgz:63997.got - 2010.06.03 17:51:23.
