data_PCOD9499894
_publ_section_title
;
Structure prediction by ZEFSAII (Michael W. Deem and Ramdas Pophale) SiO2 
 PCOD9499894
Probable space group: C C C M
;
_chemical_formula_sum "Si O2"
_cell_formula_units_Z 64
_cell_length_a 21.118865
_cell_length_b 5.193720
_cell_length_c 27.234387
_cell_angle_alpha 90.000000
_cell_angle_beta 90.000000
_cell_angle_gamma 90.000000
_cell_volume 2987.216580
_symmetry_space_group_name_H-M "C C C M"
_symmetry_group_IT_number 66
_symmetry_cell_setting 'orthorhombic'
loop_
_space_group_symop_operation_xyz
x,y,z
-x,-y,z
x,-y,1/2-z
-x,y,1/2-z
-x,-y,-z
x,y,-z
-x,y,1/2+z
x,-y,1/2+z
1/2+x,1/2+y,z
1/2-x,1/2-y,z
1/2+x,1/2-y,1/2-z
1/2-x,1/2+y,1/2-z
1/2-x,1/2-y,-z
1/2+x,1/2+y,-z
1/2-x,1/2+y,1/2+z
1/2+x,1/2-y,1/2+z
loop_
_atom_site_type_symbol
_atom_site_label
_atom_site_fract_x
_atom_site_fract_y
_atom_site_fract_z
Si Si1 0.675638 0.324672 0.942540
Si Si2 0.647309 0.156438 0.616999
Si Si3 0.073043 0.970988 0.690636
Si Si4 0.683467 0.868697 0.700799
O O1 0.750000 0.250000 0.938693
O O2 0.663218 0.592176 0.914485
O O3 0.637412 0.084100 0.919397
O O4 0.660885 0.355729 0.000000
O O5 0.594042 0.226496 0.657776
O O6 0.699410 0.053164 0.655468
O O7 0.131010 0.169690 0.681031
O O8 0.071858 0.000000 0.750000
O O9 0.000000 0.000000 0.675969
O O10 0.750000 0.750000 0.716645
O O11 0.657164 0.000000 0.750000
#
# Coordination Sequence:
#
# PCOD9499894 Si02
#       4
#    16  16  16  16
#     4  11  25  43  69 104 141 181 236 301 366 424
#     4  12  24  43  69 100 141 186 231 290 355 420
#     4  11  25  46  69 103 146 195 242 284 342 430
#     4  12  26  41  68 106 148 188 231 295 358 428
#
# _framework density 21.424624000000001
#
# number of rings (size 3 to 8) (size 9 to 14) (size 15 to 20)
#    0.000    0.500    5.000    3.000    3.500    3.000 
#    0.000    0.000    0.000    4.500    0.000    0.000 
#    0.000    0.000    0.000    0.000    0.000    0.000 
#
# Total GULP energy -178320.097650 kJ/mol
# GULP energy per Si atom -5572.503052 kJ/mol
# Density = 2.137586 g / cm^3
# Si number density = 21.424624 Si / 1000 Ang^3
#
#
#
# Elastic Constant Matrix: (Units=GPa)
#
#
# Indices 1 2 3 4 5 6 
#
# 1 71.8275 20.4689 1.2788 0.0000 0.0000 0.0000
# 2 20.4689 116.4621 54.4008 0.0000 0.0000 0.0000
# 3 1.2788 54.4008 167.6402 0.0000 0.0000 0.0000
# 4 0.0000 0.0000 0.0000 48.2412 0.0000 0.0000
# 5 0.0000 0.0000 0.0000 0.0000 -111.1876 0.0000
# 6 0.0000 0.0000 0.0000 0.0000 0.0000 5.2002
#
#
#
# Elastic Compliance Matrix: (Units=1/GPa)
#
#
# Indices 1 2 3 4 5 6 
#
# 1 0.014761 -0.002996 0.000860 0.000000 0.000000 0.000000
# 2 -0.002996 0.010729 -0.003459 0.000000 0.000000 0.000000
# 3 0.000860 -0.003459 0.007081 0.000000 0.000000 0.000000
# 4 0.000000 0.000000 0.000000 0.020729 0.000000 0.000000
# 5 0.000000 0.000000 0.000000 0.000000 -0.008994 0.000000
# 6 0.000000 0.000000 0.000000 0.000000 0.000000 0.192299
#
#
# Mechanical properties :
#
#
# Convention : Reuss Voigt Hill
#
# Bulk Modulus (GPa) = 46.77177 56.46966 51.62071
# Shear Modulus (GPa) = 19.61391 7.10285 13.35838
#
# Velocity S-wave (km/s) = 3.02898 1.82276 2.49972
# Velocity P-wave (km/s) = 5.84048 5.55379 5.69894
#
# Compressibility (1/GPa) = 0.02138042
#
# Stress axis : x y z
#
# Youngs Moduli (GPa) = 67.74767 93.20884 141.22354
#
# Poissons Ratio (x) = 0.27923 -0.12139
# Poissons Ratio (y) = 0.20296 0.48845
# Poissons Ratio (z) = -0.05823 0.32238
#
# Static dielectric constant tensor:
#      x y z
#    x 1.897970 0.000000 0.000000 
#    y 0.000000 1.917640 0.000000 
#    z 0.000000 0.000000 1.787910 
# 
# From -- ./inp_files/61229.got.cif
#   From: 2010.05.17/outbox.cif.g08.bks.cpg/sg66_31_cif.got.tgz:61229.got - 2010.06.03 17:51:23.
