data_PCOD9499790
_publ_section_title
;
Structure prediction by ZEFSAII (Michael W. Deem and Ramdas Pophale) SiO2 
 PCOD9499790
Probable space group: C C C M
;
_chemical_formula_sum "Si O2"
_cell_formula_units_Z 48
_cell_length_a 8.932489
_cell_length_b 11.087275
_cell_length_c 18.497947
_cell_angle_alpha 90.000000
_cell_angle_beta 90.000000
_cell_angle_gamma 90.000000
_cell_volume 1831.980474
_symmetry_space_group_name_H-M "C C C M"
_symmetry_group_IT_number 66
_symmetry_cell_setting 'orthorhombic'
loop_
_space_group_symop_operation_xyz
x,y,z
-x,-y,z
x,-y,1/2-z
-x,y,1/2-z
-x,-y,-z
x,y,-z
-x,y,1/2+z
x,-y,1/2+z
1/2+x,1/2+y,z
1/2-x,1/2-y,z
1/2+x,1/2-y,1/2-z
1/2-x,1/2+y,1/2-z
1/2-x,1/2-y,-z
1/2+x,1/2+y,-z
1/2-x,1/2+y,1/2+z
1/2+x,1/2-y,1/2+z
loop_
_atom_site_type_symbol
_atom_site_label
_atom_site_fract_x
_atom_site_fract_y
_atom_site_fract_z
Si Si1 0.135848 0.660672 0.199347
Si Si2 0.175970 0.991249 0.915457
Si Si3 0.562270 0.857407 0.921337
O O1 0.250000 0.750000 0.238391
O O2 0.247785 0.575936 0.153260
O O3 0.000000 0.617423 0.250000
O O4 0.034693 0.715831 0.135133
O O5 0.262761 0.119019 0.912176
O O6 0.204730 0.947721 0.000000
O O7 0.000000 0.000000 0.907008
O O8 0.500000 0.000000 0.918234
O O9 0.530846 0.809232 0.000000
#
# Coordination Sequence:
#
# PCOD9499790 Si02
#       3
#    16  16  16
#     4  11  24  39  55  82 124 164 199 239 293 358
#     4   9  19  39  68  96 116 144 198 258 305 356
#     4   8  16  34  60  87 111 142 191 244 291 345
#
# _framework density 26.201152
#
# number of rings (size 3 to 8) (size 9 to 14) (size 15 to 20)
#    0.000    2.667    0.000    3.000    0.000   11.333 
#    0.000    1.667    0.000   10.000    0.000    0.000 
#    0.000    0.000    0.000    0.000    0.000    0.000 
#
# Total GULP energy -133668.952887 kJ/mol
# GULP energy per Si atom -5569.539704 kJ/mol
# Density = 2.614152 g / cm^3
# Si number density = 26.201152 Si / 1000 Ang^3
#
#
#
# Elastic Constant Matrix: (Units=GPa)
#
#
# Indices 1 2 3 4 5 6 
#
# 1 241.0260 49.9959 74.4419 0.0000 0.0000 0.0000
# 2 49.9959 71.8442 39.7545 0.0000 0.0000 0.0000
# 3 74.4419 39.7545 133.8541 0.0000 0.0000 0.0000
# 4 0.0000 0.0000 0.0000 10.8648 0.0000 0.0000
# 5 0.0000 0.0000 0.0000 0.0000 63.3651 0.0000
# 6 0.0000 0.0000 0.0000 0.0000 0.0000 25.1271
#
#
#
# Elastic Compliance Matrix: (Units=1/GPa)
#
#
# Indices 1 2 3 4 5 6 
#
# 1 0.005357 -0.002488 -0.002240 0.000000 0.000000 0.000000
# 2 -0.002488 0.017812 -0.003906 0.000000 0.000000 0.000000
# 3 -0.002240 -0.003906 0.009877 0.000000 0.000000 0.000000
# 4 0.000000 0.000000 0.000000 0.092040 0.000000 0.000000
# 5 0.000000 0.000000 0.000000 0.000000 0.015782 0.000000
# 6 0.000000 0.000000 0.000000 0.000000 0.000000 0.039798
#
#
# Mechanical properties :
#
#
# Convention : Reuss Voigt Hill
#
# Bulk Modulus (GPa) = 63.38625 86.12323 74.75474
# Shear Modulus (GPa) = 24.60706 38.70688 31.65697
#
# Velocity S-wave (km/s) = 3.06790 3.84773 3.47973
# Velocity P-wave (km/s) = 6.06581 7.25820 6.68863
#
# Compressibility (1/GPa) = 0.01577629
#
# Stress axis : x y z
#
# Youngs Moduli (GPa) = 186.67260 56.14156 101.24649
#
# Poissons Ratio (x) = 0.13969 0.22682
# Poissons Ratio (y) = 0.46449 0.39550
# Poissons Ratio (z) = 0.41819 0.21931
#
# Static dielectric constant tensor:
#      x y z
#    x 2.110890 0.000000 0.000000 
#    y 0.000000 2.251530 0.000000 
#    z 0.000000 0.000000 2.134700 
# 
# From -- ./inp_files/23387.got.cif
#   From: 2010.05.17/outbox.cif.g08.bks.cpg/sg66_12_cif.got.tgz:23387.got - 2010.06.03 17:51:23.
