data_PCOD9499877
_publ_section_title
;
Structure prediction by ZEFSAII (Michael W. Deem and Ramdas Pophale) SiO2 
 PCOD9499877
Probable space group: C C C M
;
_chemical_formula_sum "Si O2"
_cell_formula_units_Z 36
_cell_length_a 7.468727
_cell_length_b 7.586225
_cell_length_c 24.904305
_cell_angle_alpha 90.000000
_cell_angle_beta 90.000000
_cell_angle_gamma 90.000000
_cell_volume 1411.064062
_symmetry_space_group_name_H-M "C C C M"
_symmetry_group_IT_number 66
_symmetry_cell_setting 'orthorhombic'
loop_
_space_group_symop_operation_xyz
x,y,z
-x,-y,z
x,-y,1/2-z
-x,y,1/2-z
-x,-y,-z
x,y,-z
-x,y,1/2+z
x,-y,1/2+z
1/2+x,1/2+y,z
1/2-x,1/2-y,z
1/2+x,1/2-y,1/2-z
1/2-x,1/2+y,1/2-z
1/2-x,1/2-y,-z
1/2+x,1/2+y,-z
1/2-x,1/2+y,1/2+z
1/2+x,1/2-y,1/2+z
loop_
_atom_site_type_symbol
_atom_site_label
_atom_site_fract_x
_atom_site_fract_y
_atom_site_fract_z
Si Si1 0.789421 0.545826 0.809414
Si Si2 0.250000 0.750000 0.500000
Si Si3 0.299982 0.553373 0.074901
O O1 0.719992 0.500000 0.750000
O O2 0.750000 0.750000 0.817775
O O3 0.707675 0.450270 0.860736
O O4 0.000000 0.500000 0.810072
O O5 0.191634 0.604467 0.452854
O O6 0.500000 0.500000 0.057307
O O7 0.250000 0.750000 0.057956
#
# Coordination Sequence:
#
# PCOD9499877 Si02
#       3
#    16   4  16
#     4  11  24  47  76 111 149 194 245 315 386 459
#     4  12  28  50  72 104 158 192 258 312 386 446
#     4  12  27  47  75 109 145 199 255 310 380 458
#
# _framework density 25.512661999999999
#
# number of rings (size 3 to 8) (size 9 to 14) (size 15 to 20)
#    0.000    0.444    2.222    5.333    0.000    6.222 
#    0.000    0.000    0.000    0.000    0.000    0.000 
#    0.000    0.000    0.000    0.000    0.000    0.000 
#
# Total GULP energy -100358.533626 kJ/mol
# GULP energy per Si atom -5575.474090 kJ/mol
# Density = 2.545459 g / cm^3
# Si number density = 25.512662 Si / 1000 Ang^3
#
#
#
# Elastic Constant Matrix: (Units=GPa)
#
#
# Indices 1 2 3 4 5 6 
#
# 1 101.3444 36.8918 10.9317 0.0000 0.0000 0.0000
# 2 36.8918 285.0557 51.1011 0.0000 0.0000 0.0000
# 3 10.9317 51.1011 257.6623 0.0000 0.0000 0.0000
# 4 0.0000 0.0000 0.0000 128.8210 0.0000 0.0000
# 5 0.0000 0.0000 0.0000 0.0000 747.7593 0.0000
# 6 0.0000 0.0000 0.0000 0.0000 0.0000 44.6600
#
#
#
# Elastic Compliance Matrix: (Units=1/GPa)
#
#
# Indices 1 2 3 4 5 6 
#
# 1 0.010363 -0.001309 -0.000180 0.000000 0.000000 0.000000
# 2 -0.001309 0.003803 -0.000699 0.000000 0.000000 0.000000
# 3 -0.000180 -0.000699 0.004027 0.000000 0.000000 0.000000
# 4 0.000000 0.000000 0.000000 0.007763 0.000000 0.000000
# 5 0.000000 0.000000 0.000000 0.000000 0.001337 0.000000
# 6 0.000000 0.000000 0.000000 0.000000 0.000000 0.022391
#
#
# Mechanical properties :
#
#
# Convention : Reuss Voigt Hill
#
# Bulk Modulus (GPa) = 72.36979 93.54574 82.95776
# Shear Modulus (GPa) = 85.22834 220.59060 152.90947
#
# Velocity S-wave (km/s) = 5.78609 9.30865 7.75015
# Velocity P-wave (km/s) = 8.54788 12.34020 10.61477
#
# Compressibility (1/GPa) = 0.01381792
#
# Stress axis : x y z
#
# Youngs Moduli (GPa) = 96.49482 262.96894 248.30845
#
# Poissons Ratio (x) = 0.34421 0.04472
# Poissons Ratio (y) = 0.12630 0.17348
# Poissons Ratio (z) = 0.01738 0.18372
#
# Static dielectric constant tensor:
#      x y z
#    x 2.216990 0.000000 0.000000 
#    y 0.000000 1.983820 0.000000 
#    z 0.000000 0.000000 2.038780 
# 
# From -- ./inp_files/61745.got.cif
#   From: 2010.05.17/outbox.cif.g08.bks.cpg/sg66_31_cif.got.tgz:61745.got - 2010.06.03 17:51:23.
