data_PCOD9499417
_publ_section_title
;
Structure prediction by ZEFSAII (Michael W. Deem and Ramdas Pophale) SiO2 
 PCOD9499417
Probable space group: C C C M
;
_chemical_formula_sum "Si O2"
_cell_formula_units_Z 96
_cell_length_a 24.683673
_cell_length_b 22.495714
_cell_length_c 9.864004
_cell_angle_alpha 90.000000
_cell_angle_beta 90.000000
_cell_angle_gamma 90.000000
_cell_volume 5477.253053
_symmetry_space_group_name_H-M "C C C M"
_symmetry_group_IT_number 66
_symmetry_cell_setting 'orthorhombic'
loop_
_space_group_symop_operation_xyz
x,y,z
-x,-y,z
x,-y,1/2-z
-x,y,1/2-z
-x,-y,-z
x,y,-z
-x,y,1/2+z
x,-y,1/2+z
1/2+x,1/2+y,z
1/2-x,1/2-y,z
1/2+x,1/2-y,1/2-z
1/2-x,1/2+y,1/2-z
1/2-x,1/2-y,-z
1/2+x,1/2+y,-z
1/2-x,1/2+y,1/2+z
1/2+x,1/2-y,1/2+z
loop_
_atom_site_type_symbol
_atom_site_label
_atom_site_fract_x
_atom_site_fract_y
_atom_site_fract_z
Si Si1 0.058448 0.385153 0.229486
Si Si2 0.261101 0.075696 0.000000
Si Si3 0.248473 0.849056 0.769663
Si Si4 0.242526 0.440161 0.500000
Si Si5 0.613104 0.042445 0.500000
Si Si6 0.051797 0.250995 0.159363
Si Si7 0.386288 0.909097 0.000000
Si Si8 0.338748 0.752925 0.836010
O O1 0.093000 0.426296 0.134439
O O2 0.047392 0.322604 0.157269
O O3 0.090468 0.376356 0.369108
O O4 0.000000 0.413560 0.250000
O O5 0.249634 0.118415 0.873825
O O6 0.323283 0.054666 0.000000
O O7 0.237102 0.008344 0.000000
O O8 0.304642 0.812756 0.797249
O O9 0.202129 0.800519 0.797084
O O10 0.238854 0.903477 0.870806
O O11 0.177311 0.425564 0.500000
O O12 0.590966 0.975915 0.500000
O O13 0.107282 0.242653 0.246029
O O14 0.000000 0.229686 0.250000
O O15 0.052977 0.230829 0.000000
O O16 0.347910 0.753627 0.000000
#
# Coordination Sequence:
#
# PCOD9499417 Si02
#       8
#    16   8  16   8   8  16   8  16
#     4  11  23  35  50  70  99 137 189 238 289 334
#     4  11  24  34  57  81 114 152 190 250 282 352
#     4  11  22  37  58  87 116 154 199 237 299 340
#     4  11  20  40  55  79 112 152 198 234 290 354
#     4  11  21  38  46  72  99 136 194 238 290 322
#     4  11  24  39  60  84 111 145 183 226 283 345
#     4  11  23  32  54  68  95 146 188 242 282 330
#     4  11  22  39  62  84 119 153 191 242 287 349
#
# _framework density 17.527032999999999
#
# number of rings (size 3 to 8) (size 9 to 14) (size 15 to 20)
#    0.000    1.000    2.500    5.500    7.000    5.333 
#    0.000    0.000    0.000    0.000    0.000    0.000 
#    0.000    4.000    0.000    0.000    0.000    0.000 
#
# Total GULP energy -267626.050172 kJ/mol
# GULP energy per Si atom -5575.542712 kJ/mol
# Density = 1.748714 g / cm^3
# Si number density = 17.527033 Si / 1000 Ang^3
#
#
#
# Elastic Constant Matrix: (Units=GPa)
#
#
# Indices 1 2 3 4 5 6 
#
# 1 86.9374 18.4377 47.5845 0.0000 0.0000 0.0000
# 2 18.4377 75.6296 49.0989 0.0000 0.0000 0.0000
# 3 47.5845 49.0989 175.1612 0.0000 0.0000 0.0000
# 4 0.0000 0.0000 0.0000 39.7984 0.0000 0.0000
# 5 0.0000 0.0000 0.0000 0.0000 30.0658 0.0000
# 6 0.0000 0.0000 0.0000 0.0000 0.0000 24.5686
#
#
#
# Elastic Compliance Matrix: (Units=1/GPa)
#
#
# Indices 1 2 3 4 5 6 
#
# 1 0.013589 -0.001120 -0.003378 0.000000 0.000000 0.000000
# 2 -0.001120 0.016256 -0.004252 0.000000 0.000000 0.000000
# 3 -0.003378 -0.004252 0.007819 0.000000 0.000000 0.000000
# 4 0.000000 0.000000 0.000000 0.025127 0.000000 0.000000
# 5 0.000000 0.000000 0.000000 0.000000 0.033260 0.000000
# 6 0.000000 0.000000 0.000000 0.000000 0.000000 0.040702
#
#
# Mechanical properties :
#
#
# Convention : Reuss Voigt Hill
#
# Bulk Modulus (GPa) = 49.59508 63.10781 56.35145
# Shear Modulus (GPa) = 31.06093 33.72704 32.39398
#
# Velocity S-wave (km/s) = 4.21428 4.39143 4.30377
# Velocity P-wave (km/s) = 7.21374 7.86111 7.54437
#
# Compressibility (1/GPa) = 0.02016329
#
# Stress axis : x y z
#
# Youngs Moduli (GPa) = 73.59020 61.51549 127.90067
#
# Poissons Ratio (x) = 0.06890 0.43199
# Poissons Ratio (y) = 0.08243 0.54389
# Poissons Ratio (z) = 0.24856 0.26159
#
# Static dielectric constant tensor:
#      x y z
#    x 1.641850 0.000000 0.000000 
#    y 0.000000 1.598430 0.000000 
#    z 0.000000 0.000000 1.671700 
# 
# From -- ./inp_files/9198.got.cif
#   From: 2010.05.17/outbox.cif.g08.bks.cpg/sg66_5_cif.got.tgz:9198.got - 2010.06.03 17:51:23.
