data_PCOD9499208
_publ_section_title
;
Structure prediction by ZEFSAII (Michael W. Deem and Ramdas Pophale) SiO2 
 PCOD9499208
Probable space group: C C C M
;
_chemical_formula_sum "Si O2"
_cell_formula_units_Z 104
_cell_length_a 24.523069
_cell_length_b 9.226021
_cell_length_c 22.159042
_cell_angle_alpha 90.000000
_cell_angle_beta 90.000000
_cell_angle_gamma 90.000000
_cell_volume 5013.490999
_symmetry_space_group_name_H-M "C C C M"
_symmetry_group_IT_number 66
_symmetry_cell_setting 'orthorhombic'
loop_
_space_group_symop_operation_xyz
x,y,z
-x,-y,z
x,-y,1/2-z
-x,y,1/2-z
-x,-y,-z
x,y,-z
-x,y,1/2+z
x,-y,1/2+z
1/2+x,1/2+y,z
1/2-x,1/2-y,z
1/2+x,1/2-y,1/2-z
1/2-x,1/2+y,1/2-z
1/2-x,1/2-y,-z
1/2+x,1/2+y,-z
1/2-x,1/2+y,1/2+z
1/2+x,1/2-y,1/2+z
loop_
_atom_site_type_symbol
_atom_site_label
_atom_site_fract_x
_atom_site_fract_y
_atom_site_fract_z
Si Si1 0.482549 0.336923 0.819391
Si Si2 0.443162 0.159215 0.500000
Si Si3 0.080026 0.302842 0.631806
Si Si4 0.750000 0.750000 0.323169
Si Si5 0.929598 0.691132 0.000000
Si Si6 0.330214 0.003866 0.677260
Si Si7 0.367706 0.717751 0.623604
Si Si8 0.347701 0.443718 0.687754
O O1 0.500000 0.500000 0.840307
O O2 0.500000 0.327377 0.750000
O O3 0.516818 0.214786 0.854237
O O4 0.420115 0.302898 0.832794
O O5 0.413464 0.204311 0.560678
O O6 0.504997 0.226694 0.500000
O O7 0.436938 0.983747 0.500000
O O8 0.109092 0.439335 0.661809
O O9 0.109444 0.165872 0.660390
O O10 0.710684 0.875165 0.351121
O O11 0.705278 0.648324 0.291995
O O12 0.895414 0.747408 0.058573
O O13 0.321980 0.000000 0.750000
O O14 0.329242 0.847197 0.646809
O O15 0.336691 0.566473 0.637642
O O16 0.371245 0.500000 0.750000
#
# Coordination Sequence:
#
# PCOD9499208 Si02
#       8
#    16   8  16   8   8  16  16  16
#     4  11  21  36  58  94 141 177 206 258 329 391
#     4  11  22  43  61  86 139 186 236 252 310 384
#     4  11  22  39  62  92 134 183 213 264 316 390
#     4  10  24  44  68  95 130 171 204 274 356 404
#     4  11  24  41  61  92 134 182 232 274 301 368
#     4  11  23  40  65  99 126 165 218 271 340 399
#     4  12  23  39  65  96 133 171 224 274 315 384
#     4  11  23  42  67 101 133 164 215 273 339 403
#
# _framework density 20.744029000000001
#
# number of rings (size 3 to 8) (size 9 to 14) (size 15 to 20)
#    0.000    0.923    4.615    4.154    0.000    1.846 
#    0.000    3.077    0.000   17.538    0.000    0.000 
#    0.000    0.000    0.000    0.000    0.000    0.000 
#
# Total GULP energy -289806.054654 kJ/mol
# GULP energy per Si atom -5573.193359 kJ/mol
# Density = 2.069681 g / cm^3
# Si number density = 20.744029 Si / 1000 Ang^3
#
#
#
# Elastic Constant Matrix: (Units=GPa)
#
#
# Indices 1 2 3 4 5 6 
#
# 1 56.6863 8.2073 22.9051 0.0000 0.0000 0.0000
# 2 8.2073 70.3594 24.1421 0.0000 0.0000 0.0000
# 3 22.9051 24.1421 121.1558 0.0000 0.0000 0.0000
# 4 0.0000 0.0000 0.0000 19.9897 0.0000 0.0000
# 5 0.0000 0.0000 0.0000 0.0000 9.5294 0.0000
# 6 0.0000 0.0000 0.0000 0.0000 0.0000 42.3561
#
#
#
# Elastic Compliance Matrix: (Units=1/GPa)
#
#
# Indices 1 2 3 4 5 6 
#
# 1 0.019174 -0.001066 -0.003413 0.000000 0.000000 0.000000
# 2 -0.001066 0.015315 -0.002850 0.000000 0.000000 0.000000
# 3 -0.003413 -0.002850 0.009467 0.000000 0.000000 0.000000
# 4 0.000000 0.000000 0.000000 0.050026 0.000000 0.000000
# 5 0.000000 0.000000 0.000000 0.000000 0.104938 0.000000
# 6 0.000000 0.000000 0.000000 0.000000 0.000000 0.023609
#
#
# Mechanical properties :
#
#
# Convention : Reuss Voigt Hill
#
# Bulk Modulus (GPa) = 34.13081 39.85671 36.99376
# Shear Modulus (GPa) = 20.24675 27.23817 23.74246
#
# Velocity S-wave (km/s) = 3.12753 3.62755 3.38678
# Velocity P-wave (km/s) = 5.43424 6.06636 5.75898
#
# Compressibility (1/GPa) = 0.02929904
#
# Stress axis : x y z
#
# Youngs Moduli (GPa) = 52.15348 65.29522 105.63048
#
# Poissons Ratio (x) = 0.06958 0.36048
# Poissons Ratio (y) = 0.05558 0.30108
# Poissons Ratio (z) = 0.17798 0.18611
#
# Static dielectric constant tensor:
#      x y z
#    x 1.812010 0.000000 0.000000 
#    y 0.000000 1.816240 0.000000 
#    z 0.000000 0.000000 1.734780 
# 
# From -- ./inp_files/53090.got.cif
#   From: 2010.05.17/outbox.cif.g08.bks.cpg/sg66_27_cif.got.tgz:53090.got - 2010.06.03 17:51:23.
