data_PCOD9499458
_publ_section_title
;
Structure prediction by ZEFSAII (Michael W. Deem and Ramdas Pophale) SiO2 
 PCOD9499458
Probable space group: C C C M
;
_chemical_formula_sum "Si O2"
_cell_formula_units_Z 64
_cell_length_a 43.177796
_cell_length_b 9.630995
_cell_length_c 8.585312
_cell_angle_alpha 90.000000
_cell_angle_beta 90.000000
_cell_angle_gamma 90.000000
_cell_volume 3570.160248
_symmetry_space_group_name_H-M "C C C M"
_symmetry_group_IT_number 66
_symmetry_cell_setting 'orthorhombic'
loop_
_space_group_symop_operation_xyz
x,y,z
-x,-y,z
x,-y,1/2-z
-x,y,1/2-z
-x,-y,-z
x,y,-z
-x,y,1/2+z
x,-y,1/2+z
1/2+x,1/2+y,z
1/2-x,1/2-y,z
1/2+x,1/2-y,1/2-z
1/2-x,1/2+y,1/2-z
1/2-x,1/2-y,-z
1/2+x,1/2+y,-z
1/2-x,1/2+y,1/2+z
1/2+x,1/2-y,1/2+z
loop_
_atom_site_type_symbol
_atom_site_label
_atom_site_fract_x
_atom_site_fract_y
_atom_site_fract_z
Si Si1 0.088846 0.842470 0.185860
Si Si2 0.778513 0.843406 0.188031
Si Si3 0.033438 0.343996 0.813687
Si Si4 0.653360 0.657850 0.813015
O O1 0.060809 0.753375 0.253594
O O2 0.122112 0.781470 0.240181
O O3 0.086833 0.000000 0.250000
O O4 0.087667 0.845894 0.000000
O O5 0.750000 0.750000 0.243468
O O6 0.812682 0.784492 0.229772
O O7 0.775842 0.000000 0.250000
O O8 0.777548 0.849342 0.000000
O O9 0.038091 0.500000 0.750000
O O10 0.000000 0.296157 0.750000
O O11 0.032733 0.346741 0.000000
O O12 0.654313 0.500000 0.750000
O O13 0.650343 0.656858 0.000000
#
# Coordination Sequence:
#
# PCOD9499458 Si02
#       4
#    16  16  16  16
#     4  11  21  35  55  81 108 137 175 219 263 308
#     4   9  18  32  50  73 101 133 170 212 257 307
#     4  11  22  39  59  81 108 141 176 211 256 310
#     4   9  16  29  49  72 100 134 170 211 259 309
#
# _framework density 17.926366999999999
#
# number of rings (size 3 to 8) (size 9 to 14) (size 15 to 20)
#    0.000    2.000    0.000    7.500    0.000    2.000 
#    0.000    3.750    0.000    3.000    0.000    0.000 
#    0.000    0.000    0.000    0.000    0.000    0.000 
#
# Total GULP energy -178491.036580 kJ/mol
# GULP energy per Si atom -5577.844893 kJ/mol
# Density = 1.788557 g / cm^3
# Si number density = 17.926367 Si / 1000 Ang^3
#
#
#
# Elastic Constant Matrix: (Units=GPa)
#
#
# Indices 1 2 3 4 5 6 
#
# 1 223.6090 75.1333 74.9473 0.0000 0.0000 0.0000
# 2 75.1333 44.9662 27.9558 0.0000 0.0000 0.0000
# 3 74.9473 27.9558 135.2630 0.0000 0.0000 0.0000
# 4 0.0000 0.0000 0.0000 20.8954 0.0000 0.0000
# 5 0.0000 0.0000 0.0000 0.0000 27.6032 0.0000
# 6 0.0000 0.0000 0.0000 0.0000 0.0000 31.3435
#
#
#
# Elastic Compliance Matrix: (Units=1/GPa)
#
#
# Indices 1 2 3 4 5 6 
#
# 1 0.010952 -0.016669 -0.002623 0.000000 0.000000 0.000000
# 2 -0.016669 0.050887 -0.001281 0.000000 0.000000 0.000000
# 3 -0.002623 -0.001281 0.009111 0.000000 0.000000 0.000000
# 4 0.000000 0.000000 0.000000 0.047857 0.000000 0.000000
# 5 0.000000 0.000000 0.000000 0.000000 0.036228 0.000000
# 6 0.000000 0.000000 0.000000 0.000000 0.000000 0.031905
#
#
# Mechanical properties :
#
#
# Convention : Reuss Voigt Hill
#
# Bulk Modulus (GPa) = 33.55276 84.43457 58.99367
# Shear Modulus (GPa) = 21.00648 31.02188 26.01418
#
# Velocity S-wave (km/s) = 3.42690 4.16446 3.81355
# Velocity P-wave (km/s) = 5.86650 8.38610 7.23680
#
# Compressibility (1/GPa) = 0.02980380
#
# Stress axis : x y z
#
# Youngs Moduli (GPa) = 91.30637 19.65132 109.75284
#
# Poissons Ratio (x) = 0.32756 0.28792
# Poissons Ratio (y) = 1.52197 0.14062
# Poissons Ratio (z) = 0.23953 0.02518
#
# Static dielectric constant tensor:
#      x y z
#    x 1.663350 0.000000 0.000000 
#    y 0.000000 1.512500 0.000000 
#    z 0.000000 0.000000 1.600730 
# 
# From -- ./inp_files/11201.got.cif
#   From: 2010.05.17/outbox.cif.g08.bks.cpg/sg66_6_cif.got.tgz:11201.got - 2010.06.03 17:51:23.
