data_PCOD9499027
_publ_section_title
;
Structure prediction by ZEFSAII (Michael W. Deem and Ramdas Pophale) SiO2 
 PCOD9499027
Probable space group: C C C M
;
_chemical_formula_sum "Si O2"
_cell_formula_units_Z 36
_cell_length_a 9.450331
_cell_length_b 20.012527
_cell_length_c 10.542425
_cell_angle_alpha 90.000000
_cell_angle_beta 90.000000
_cell_angle_gamma 90.000000
_cell_volume 1993.836173
_symmetry_space_group_name_H-M "C C C M"
_symmetry_group_IT_number 66
_symmetry_cell_setting 'orthorhombic'
loop_
_space_group_symop_operation_xyz
x,y,z
-x,-y,z
x,-y,1/2-z
-x,y,1/2-z
-x,-y,-z
x,y,-z
-x,y,1/2+z
x,-y,1/2+z
1/2+x,1/2+y,z
1/2-x,1/2-y,z
1/2+x,1/2-y,1/2-z
1/2-x,1/2+y,1/2-z
1/2-x,1/2-y,-z
1/2+x,1/2+y,-z
1/2-x,1/2+y,1/2+z
1/2+x,1/2-y,1/2+z
loop_
_atom_site_type_symbol
_atom_site_label
_atom_site_fract_x
_atom_site_fract_y
_atom_site_fract_z
Si Si1 0.500000 0.500000 0.750000
Si Si2 0.778003 0.449790 0.356412
Si Si3 0.383747 0.201414 0.855026
O O1 0.391962 0.544275 0.666935
O O2 0.836385 0.500000 0.250000
O O3 0.810071 0.471295 0.500000
O O4 0.831871 0.374942 0.338525
O O5 0.500000 0.216923 0.750000
O O6 0.250000 0.250000 0.841978
O O7 0.437873 0.208110 0.000000
#
# Coordination Sequence:
#
# PCOD9499027 Si02
#       3
#     4  16  16
#     4   8  18  32  56  80 114 152 182 232 282 332
#     4   9  19  34  56  83 112 147 188 234 280 335
#     4  10  23  41  59  85 118 152 194 241 289 344
#
# _framework density 18.055645999999999
#
# number of rings (size 3 to 8) (size 9 to 14) (size 15 to 20)
#    1.333    1.333    0.000    0.667    3.111    3.556 
#    0.000    4.444    0.000    0.000    0.000    0.000 
#    0.000    0.000    0.000    0.000    0.000    0.000 
#
# Total GULP energy -100239.829752 kJ/mol
# GULP energy per Si atom -5568.879431 kJ/mol
# Density = 1.801455 g / cm^3
# Si number density = 18.055646 Si / 1000 Ang^3
#
#
#
# Elastic Constant Matrix: (Units=GPa)
#
#
# Indices 1 2 3 4 5 6 
#
# 1 76.1709 17.7220 66.8313 0.0000 0.0000 0.0000
# 2 17.7220 78.8291 83.2420 0.0000 0.0000 0.0000
# 3 66.8313 83.2420 180.6412 0.0000 0.0000 0.0000
# 4 0.0000 0.0000 0.0000 76.9101 0.0000 0.0000
# 5 0.0000 0.0000 0.0000 0.0000 14.0970 0.0000
# 6 0.0000 0.0000 0.0000 0.0000 0.0000 20.0561
#
#
#
# Elastic Compliance Matrix: (Units=1/GPa)
#
#
# Indices 1 2 3 4 5 6 
#
# 1 0.021177 0.006842 -0.010987 0.000000 0.000000 0.000000
# 2 0.006842 0.026920 -0.014936 0.000000 0.000000 0.000000
# 3 -0.010987 -0.014936 0.016484 0.000000 0.000000 0.000000
# 4 0.000000 0.000000 0.000000 0.013002 0.000000 0.000000
# 5 0.000000 0.000000 0.000000 0.000000 0.070937 0.000000
# 6 0.000000 0.000000 0.000000 0.000000 0.000000 0.049860
#
#
# Mechanical properties :
#
#
# Convention : Reuss Voigt Hill
#
# Bulk Modulus (GPa) = 37.85531 74.58131 56.21831
# Shear Modulus (GPa) = 20.37909 33.40238 26.89073
#
# Velocity S-wave (km/s) = 3.36323 4.30579 3.86336
# Velocity P-wave (km/s) = 6.00776 8.13116 7.14874
#
# Compressibility (1/GPa) = 0.02641637
#
# Stress axis : x y z
#
# Youngs Moduli (GPa) = 47.22139 37.14701 60.66586
#
# Poissons Ratio (x) = -0.25415 0.66657
# Poissons Ratio (y) = -0.32308 0.90613
# Poissons Ratio (z) = 0.51884 0.55484
#
# Static dielectric constant tensor:
#      x y z
#    x 1.629370 0.000000 0.000000 
#    y 0.000000 1.585020 0.000000 
#    z 0.000000 0.000000 1.622100 
# 
# From -- ./inp_files/2332.got.cif
#   From: 2010.05.17/outbox.cif.g08.bks.cpg/sg66_2_cif.got.tgz:2332.got - 2010.06.03 17:51:23.
