data_PCOD9499487
_publ_section_title
;
Structure prediction by ZEFSAII (Michael W. Deem and Ramdas Pophale) SiO2 
 PCOD9499487
Probable space group: C C C M
;
_chemical_formula_sum "Si O2"
_cell_formula_units_Z 56
_cell_length_a 14.527003
_cell_length_b 13.338180
_cell_length_c 14.599523
_cell_angle_alpha 90.000000
_cell_angle_beta 90.000000
_cell_angle_gamma 90.000000
_cell_volume 2828.858775
_symmetry_space_group_name_H-M "C C C M"
_symmetry_group_IT_number 66
_symmetry_cell_setting 'orthorhombic'
loop_
_space_group_symop_operation_xyz
x,y,z
-x,-y,z
x,-y,1/2-z
-x,y,1/2-z
-x,-y,-z
x,y,-z
-x,y,1/2+z
x,-y,1/2+z
1/2+x,1/2+y,z
1/2-x,1/2-y,z
1/2+x,1/2-y,1/2-z
1/2-x,1/2+y,1/2-z
1/2-x,1/2-y,-z
1/2+x,1/2+y,-z
1/2-x,1/2+y,1/2+z
1/2+x,1/2-y,1/2+z
loop_
_atom_site_type_symbol
_atom_site_label
_atom_site_fract_x
_atom_site_fract_y
_atom_site_fract_z
Si Si1 0.028070 0.609649 0.855967
Si Si2 0.769107 0.529450 0.355326
Si Si3 0.323726 0.340419 0.500000
Si Si4 0.530323 0.268405 0.500000
Si Si5 0.276976 0.365626 0.000000
O O1 0.138548 0.597986 0.863172
O O2 0.974891 0.694124 0.912434
O O3 0.000000 0.500000 0.890318
O O4 0.000000 0.617864 0.750000
O O5 0.755831 0.500000 0.250000
O O6 0.694480 0.595144 0.408623
O O7 0.765120 0.426337 0.413904
O O8 0.250000 0.250000 0.500000
O O9 0.429082 0.313318 0.500000
O O10 0.611472 0.350804 0.500000
O O11 0.250000 0.250000 0.000000
#
# Coordination Sequence:
#
# PCOD9499487 Si02
#       5
#    16  16   8   8   8
#     4  11  21  37  66  97 124 162 221 280 327 370
#     4  11  23  43  65  96 132 173 217 269 325 391
#     4  11  23  43  68  94 132 178 216 268 329 397
#     4  12  24  42  64  97 131 170 220 266 328 396
#     4  11  26  42  66  97 135 173 211 275 332 386
#
# _framework density 19.795970000000001
#
# number of rings (size 3 to 8) (size 9 to 14) (size 15 to 20)
#    0.000    0.857    5.714    3.000    0.000    5.714 
#    0.000    1.429    0.000    0.000    0.000    0.000 
#    0.000    0.000    0.000    0.000    0.000    0.000 
#
# Total GULP energy -156089.385043 kJ/mol
# GULP energy per Si atom -5574.620894 kJ/mol
# Density = 1.975091 g / cm^3
# Si number density = 19.795970 Si / 1000 Ang^3
#
#
#
# Elastic Constant Matrix: (Units=GPa)
#
#
# Indices 1 2 3 4 5 6 
#
# 1 101.0524 6.6767 18.1434 0.0000 0.0000 0.0000
# 2 6.6767 63.7527 36.0320 0.0000 0.0000 0.0000
# 3 18.1434 36.0320 154.9207 0.0000 0.0000 0.0000
# 4 0.0000 0.0000 0.0000 33.4868 0.0000 0.0000
# 5 0.0000 0.0000 0.0000 0.0000 2.1143 0.0000
# 6 0.0000 0.0000 0.0000 0.0000 0.0000 45.7477
#
#
#
# Elastic Compliance Matrix: (Units=1/GPa)
#
#
# Indices 1 2 3 4 5 6 
#
# 1 0.010120 -0.000449 -0.001081 0.000000 0.000000 0.000000
# 2 -0.000449 0.018079 -0.004152 0.000000 0.000000 0.000000
# 3 -0.001081 -0.004152 0.007547 0.000000 0.000000 0.000000
# 4 0.000000 0.000000 0.000000 0.029863 0.000000 0.000000
# 5 0.000000 0.000000 0.000000 0.000000 0.472966 0.000000
# 6 0.000000 0.000000 0.000000 0.000000 0.000000 0.021859
#
#
# Mechanical properties :
#
#
# Convention : Reuss Voigt Hill
#
# Bulk Modulus (GPa) = 41.01373 49.04777 45.03075
# Shear Modulus (GPa) = 8.62180 33.52802 21.07491
#
# Velocity S-wave (km/s) = 2.08921 4.11990 3.26637
# Velocity P-wave (km/s) = 5.15586 6.88926 6.08460
#
# Compressibility (1/GPa) = 0.02438208
#
# Stress axis : x y z
#
# Youngs Moduli (GPa) = 98.81850 55.31131 132.49843
#
# Poissons Ratio (x) = 0.02483 0.14319
# Poissons Ratio (y) = 0.04437 0.55019
# Poissons Ratio (z) = 0.10679 0.22967
#
# Static dielectric constant tensor:
#      x y z
#    x 1.773010 0.000000 0.000000 
#    y 0.000000 1.746070 0.000000 
#    z 0.000000 0.000000 1.675380 
# 
# From -- ./inp_files/25449.got.cif
#   From: 2010.05.17/outbox.cif.g08.bks.cpg/sg66_13_cif.got.tgz:25449.got - 2010.06.03 17:51:23.
