data_PCOD9499860
_publ_section_title
;
Structure prediction by ZEFSAII (Michael W. Deem and Ramdas Pophale) SiO2 
 PCOD9499860
Probable space group: C C C M
;
_chemical_formula_sum "Si O2"
_cell_formula_units_Z 60
_cell_length_a 20.925655
_cell_length_b 5.255525
_cell_length_c 24.726791
_cell_angle_alpha 90.000000
_cell_angle_beta 90.000000
_cell_angle_gamma 90.000000
_cell_volume 2719.336332
_symmetry_space_group_name_H-M "C C C M"
_symmetry_group_IT_number 66
_symmetry_cell_setting 'orthorhombic'
loop_
_space_group_symop_operation_xyz
x,y,z
-x,-y,z
x,-y,1/2-z
-x,y,1/2-z
-x,-y,-z
x,y,-z
-x,y,1/2+z
x,-y,1/2+z
1/2+x,1/2+y,z
1/2-x,1/2-y,z
1/2+x,1/2-y,1/2-z
1/2-x,1/2+y,1/2-z
1/2-x,1/2-y,-z
1/2+x,1/2+y,-z
1/2-x,1/2+y,1/2+z
1/2+x,1/2-y,1/2+z
loop_
_atom_site_type_symbol
_atom_site_label
_atom_site_fract_x
_atom_site_fract_y
_atom_site_fract_z
Si Si1 0.750000 0.250000 0.214015
Si Si2 0.000000 0.000000 0.250000
Si Si3 0.960563 0.246109 0.500000
Si Si4 0.118417 0.607607 0.400502
Si Si5 0.889054 0.123089 0.165409
Si Si6 0.209089 0.499877 0.500000
O O1 0.756938 0.500000 0.250000
O O2 0.817897 0.216374 0.183477
O O3 0.052939 0.873639 0.209262
O O4 0.922485 0.247795 0.444987
O O5 0.000000 0.500000 0.500000
O O6 0.000000 0.000000 0.500000
O O7 0.091148 0.344997 0.376671
O O8 0.173765 0.511881 0.441690
O O9 0.123923 0.831817 0.355395
O O10 0.250000 0.750000 0.500000
O O11 0.250000 0.250000 0.500000
#
# Coordination Sequence:
#
# PCOD9499860 Si02
#       6
#     8   4   8  16  16   8
#     4  12  26  52  74 109 146 201 250 318 380 454
#     4  12  32  54  76 116 152 196 268 338 372 444
#     4  11  24  45  72 103 149 192 242 303 366 460
#     4  11  27  46  72 112 144 199 249 305 378 455
#     4  12  28  49  79 106 152 199 253 314 386 446
#     4  11  24  45  74 111 155 190 248 312 365 453
#
# _framework density 22.064209000000002
#
# number of rings (size 3 to 8) (size 9 to 14) (size 15 to 20)
#    0.000    0.533    1.333    4.800   11.200    5.333 
#    0.000    0.000    0.000    0.000    0.000    0.000 
#    0.000    0.000    0.000    0.000    0.000    0.000 
#
# Total GULP energy -167060.126816 kJ/mol
# GULP energy per Si atom -5568.670894 kJ/mol
# Density = 2.201399 g / cm^3
# Si number density = 22.064209 Si / 1000 Ang^3
#
#
#
# Elastic Constant Matrix: (Units=GPa)
#
#
# Indices 1 2 3 4 5 6 
#
# 1 119.2588 29.7147 46.4177 0.0000 0.0000 0.0000
# 2 29.7147 167.1388 45.1217 0.0000 0.0000 0.0000
# 3 46.4177 45.1217 103.7938 0.0000 0.0000 0.0000
# 4 0.0000 0.0000 0.0000 61.6605 0.0000 0.0000
# 5 0.0000 0.0000 0.0000 0.0000 76.6584 0.0000
# 6 0.0000 0.0000 0.0000 0.0000 0.0000 36.8998
#
#
#
# Elastic Compliance Matrix: (Units=1/GPa)
#
#
# Indices 1 2 3 4 5 6 
#
# 1 0.010216 -0.000660 -0.004282 0.000000 0.000000 0.000000
# 2 -0.000660 0.006821 -0.002670 0.000000 0.000000 0.000000
# 3 -0.004282 -0.002670 0.012710 0.000000 0.000000 0.000000
# 4 0.000000 0.000000 0.000000 0.016218 0.000000 0.000000
# 5 0.000000 0.000000 0.000000 0.000000 0.013045 0.000000
# 6 0.000000 0.000000 0.000000 0.000000 0.000000 0.027100
#
#
# Mechanical properties :
#
#
# Convention : Reuss Voigt Hill
#
# Bulk Modulus (GPa) = 68.85509 70.29995 69.57752
# Shear Modulus (GPa) = 47.09163 52.97289 50.03226
#
# Velocity S-wave (km/s) = 4.62486 4.90516 4.76707
# Velocity P-wave (km/s) = 7.73263 8.00072 7.86782
#
# Compressibility (1/GPa) = 0.01452325
#
# Stress axis : x y z
#
# Youngs Moduli (GPa) = 97.88391 146.60011 78.67789
#
# Poissons Ratio (x) = 0.09681 0.33688
# Poissons Ratio (y) = 0.06464 0.21007
# Poissons Ratio (z) = 0.41911 0.39143
#
# Static dielectric constant tensor:
#      x y z
#    x 1.920060 0.000000 0.000000 
#    y 0.000000 2.451680 0.000000 
#    z 0.000000 0.000000 1.638710 
# 
# From -- ./inp_files/59196.got.cif
#   From: 2010.05.17/outbox.cif.g08.bks.cpg/sg66_30_cif.got.tgz:59196.got - 2010.06.03 17:51:23.
