data_PCOD9499649
_publ_section_title
;
Structure prediction by ZEFSAII (Michael W. Deem and Ramdas Pophale) SiO2 
 PCOD9499649
Probable space group: C C C M
;
_chemical_formula_sum "Si O2"
_cell_formula_units_Z 96
_cell_length_a 15.731631
_cell_length_b 14.125643
_cell_length_c 21.284993
_cell_angle_alpha 90.000000
_cell_angle_beta 90.000000
_cell_angle_gamma 90.000000
_cell_volume 4729.938444
_symmetry_space_group_name_H-M "C C C M"
_symmetry_group_IT_number 66
_symmetry_cell_setting 'orthorhombic'
loop_
_space_group_symop_operation_xyz
x,y,z
-x,-y,z
x,-y,1/2-z
-x,y,1/2-z
-x,-y,-z
x,y,-z
-x,y,1/2+z
x,-y,1/2+z
1/2+x,1/2+y,z
1/2-x,1/2-y,z
1/2+x,1/2-y,1/2-z
1/2-x,1/2+y,1/2-z
1/2-x,1/2-y,-z
1/2+x,1/2+y,-z
1/2-x,1/2+y,1/2+z
1/2+x,1/2-y,1/2+z
loop_
_atom_site_type_symbol
_atom_site_label
_atom_site_fract_x
_atom_site_fract_y
_atom_site_fract_z
Si Si1 0.983982 0.149754 0.363091
Si Si2 0.194237 0.467722 0.123550
Si Si3 0.038005 0.892512 0.500000
Si Si4 0.373461 0.523784 0.177539
Si Si5 0.057317 0.594873 0.930540
Si Si6 0.760897 0.137410 0.500000
Si Si7 0.950959 0.340985 0.314704
O O1 0.989856 0.163543 0.437654
O O2 0.935887 0.228648 0.321336
O O3 0.077151 0.121376 0.337250
O O4 0.925369 0.056734 0.359005
O O5 0.276339 0.508253 0.158532
O O6 0.146917 0.556783 0.092870
O O7 0.218892 0.402405 0.063880
O O8 0.129453 0.408042 0.168684
O O9 0.140615 0.893011 0.500000
O O10 0.000000 0.000000 0.500000
O O11 0.384657 0.500000 0.250000
O O12 0.000000 0.500000 0.935111
O O13 0.015385 0.649519 0.873325
O O14 0.059908 0.637291 0.000000
O O15 0.750000 0.250000 0.500000
O O16 0.000000 0.364730 0.250000
#
# Coordination Sequence:
#
# PCOD9499649 Si02
#       7
#    16  16   8  16  16   8  16
#     4  11  22  42  61  93 126 168 201 264 318 392
#     4  11  23  39  65  92 122 163 211 267 313 380
#     4  12  20  38  65  93 125 163 216 255 320 385
#     4  11  23  39  64  87 128 168 208 252 323 388
#     4   9  20  39  60  86 120 163 204 252 317 375
#     4  12  22  38  60 101 131 153 205 277 329 371
#     4  11  25  40  64  90 127 164 216 264 315 384
#
# _framework density 20.296247000000001
#
# number of rings (size 3 to 8) (size 9 to 14) (size 15 to 20)
#    0.000    1.167    4.167    3.000    4.667    2.333 
#    0.000    0.833    0.000    1.000    0.000    0.000 
#    0.000    0.000    0.000    0.000    0.000    0.000 
#
# Total GULP energy -267751.872135 kJ/mol
# GULP energy per Si atom -5578.164003 kJ/mol
# Density = 2.025005 g / cm^3
# Si number density = 20.296247 Si / 1000 Ang^3
#
#
#
# Elastic Constant Matrix: (Units=GPa)
#
#
# Indices 1 2 3 4 5 6 
#
# 1 116.1842 12.8931 43.9875 0.0000 0.0000 0.0000
# 2 12.8931 22.0140 -3.2706 0.0000 0.0000 0.0000
# 3 43.9875 -3.2706 138.4916 0.0000 0.0000 0.0000
# 4 0.0000 0.0000 0.0000 27.8106 0.0000 0.0000
# 5 0.0000 0.0000 0.0000 0.0000 144.7707 0.0000
# 6 0.0000 0.0000 0.0000 0.0000 0.0000 17.2877
#
#
#
# Elastic Compliance Matrix: (Units=1/GPa)
#
#
# Indices 1 2 3 4 5 6 
#
# 1 0.010711 -0.006802 -0.003563 0.000000 0.000000 0.000000
# 2 -0.006802 0.049906 0.003339 0.000000 0.000000 0.000000
# 3 -0.003563 0.003339 0.008431 0.000000 0.000000 0.000000
# 4 0.000000 0.000000 0.000000 0.035957 0.000000 0.000000
# 5 0.000000 0.000000 0.000000 0.000000 0.006907 0.000000
# 6 0.000000 0.000000 0.000000 0.000000 0.000000 0.057845
#
#
# Mechanical properties :
#
#
# Convention : Reuss Voigt Hill
#
# Bulk Modulus (GPa) = 18.18313 42.65663 30.41988
# Shear Modulus (GPa) = 24.73528 52.84580 38.79054
#
# Velocity S-wave (km/s) = 3.49479 5.10820 4.37649
# Velocity P-wave (km/s) = 5.02624 7.47357 6.36857
#
# Compressibility (1/GPa) = 0.05499603
#
# Stress axis : x y z
#
# Youngs Moduli (GPa) = 93.36494 20.03777 118.60931
#
# Poissons Ratio (x) = 0.13630 0.42255
# Poissons Ratio (y) = 0.63509 -0.39605
# Poissons Ratio (z) = 0.33262 -0.06691
#
# Static dielectric constant tensor:
#      x y z
#    x 1.658500 0.000000 0.000000 
#    y 0.000000 1.883670 0.000000 
#    z 0.000000 0.000000 1.771340 
# 
# From -- ./inp_files/49923.got.cif
#   From: 2010.05.17/outbox.cif.g08.bks.cpg/sg66_25_cif.got.tgz:49923.got - 2010.06.03 17:51:23.
