data_PCOD9499612
_publ_section_title
;
Structure prediction by ZEFSAII (Michael W. Deem and Ramdas Pophale) SiO2 
 PCOD9499612
Probable space group: C C C M
;
_chemical_formula_sum "Si O2"
_cell_formula_units_Z 68
_cell_length_a 23.201162
_cell_length_b 16.510523
_cell_length_c 8.235418
_cell_angle_alpha 90.000000
_cell_angle_beta 90.000000
_cell_angle_gamma 90.000000
_cell_volume 3154.686551
_symmetry_space_group_name_H-M "C C C M"
_symmetry_group_IT_number 66
_symmetry_cell_setting 'orthorhombic'
loop_
_space_group_symop_operation_xyz
x,y,z
-x,-y,z
x,-y,1/2-z
-x,y,1/2-z
-x,-y,-z
x,y,-z
-x,y,1/2+z
x,-y,1/2+z
1/2+x,1/2+y,z
1/2-x,1/2-y,z
1/2+x,1/2-y,1/2-z
1/2-x,1/2+y,1/2-z
1/2-x,1/2-y,-z
1/2+x,1/2+y,-z
1/2-x,1/2+y,1/2+z
1/2+x,1/2-y,1/2+z
loop_
_atom_site_type_symbol
_atom_site_label
_atom_site_fract_x
_atom_site_fract_y
_atom_site_fract_z
Si Si1 0.500000 0.500000 0.750000
Si Si2 0.058986 0.690969 0.191594
Si Si3 0.582557 0.367509 0.687710
Si Si4 0.169729 0.593386 0.693740
Si Si5 0.206365 0.093466 0.693260
O O1 0.547954 0.431586 0.799950
O O2 0.061943 0.776836 0.282831
O O3 0.115799 0.641027 0.234643
O O4 0.000000 0.649016 0.250000
O O5 0.056896 0.705346 0.000000
O O6 0.572044 0.392556 0.500000
O O7 0.650268 0.368252 0.725688
O O8 0.166454 0.500000 0.750000
O O9 0.168285 0.596535 0.500000
O O10 0.231484 0.626917 0.753739
O O11 0.201122 0.097873 0.500000
O O12 0.205764 0.000000 0.750000
#
# Coordination Sequence:
#
# PCOD9499612 Si02
#       5
#     4  16  16  16  16
#     4  12  26  40  72  98 140 176 228 260 322 376
#     4  12  26  45  67  97 134 172 218 272 330 391
#     4  12  25  42  66  98 135 177 224 272 325 386
#     4  11  23  44  71  99 131 170 218 271 331 393
#     4  11  22  39  64  96 132 173 221 272 326 388
#
# _framework density 21.555232
#
# number of rings (size 3 to 8) (size 9 to 14) (size 15 to 20)
#    0.000    0.471    2.353    8.824    0.000    3.294 
#    0.000    7.059    0.000    0.000    0.000    0.000 
#    0.000    0.000    0.000    0.000    0.000    0.000 
#
# Total GULP energy -189981.317256 kJ/mol
# GULP energy per Si atom -5587.685802 kJ/mol
# Density = 2.150617 g / cm^3
# Si number density = 21.555232 Si / 1000 Ang^3
#
#
#
# Elastic Constant Matrix: (Units=GPa)
#
#
# Indices 1 2 3 4 5 6 
#
# 1 207.5176 40.0255 26.8691 0.0000 0.0000 0.0000
# 2 40.0255 48.0596 0.5995 0.0000 0.0000 0.0000
# 3 26.8691 0.5995 143.2166 0.0000 0.0000 0.0000
# 4 0.0000 0.0000 0.0000 32.2867 0.0000 0.0000
# 5 0.0000 0.0000 0.0000 0.0000 26.8285 0.0000
# 6 0.0000 0.0000 0.0000 0.0000 0.0000 52.1987
#
#
#
# Elastic Compliance Matrix: (Units=1/GPa)
#
#
# Indices 1 2 3 4 5 6 
#
# 1 0.005906 -0.004905 -0.001087 0.000000 0.000000 0.000000
# 2 -0.004905 0.024882 0.000816 0.000000 0.000000 0.000000
# 3 -0.001087 0.000816 0.007183 0.000000 0.000000 0.000000
# 4 0.000000 0.000000 0.000000 0.030973 0.000000 0.000000
# 5 0.000000 0.000000 0.000000 0.000000 0.037274 0.000000
# 6 0.000000 0.000000 0.000000 0.000000 0.000000 0.019158
#
#
# Mechanical properties :
#
#
# Convention : Reuss Voigt Hill
#
# Bulk Modulus (GPa) = 36.20767 59.30910 47.75839
# Shear Modulus (GPa) = 34.49854 44.34941 39.42397
#
# Velocity S-wave (km/s) = 4.00493 4.54086 4.28129
# Velocity P-wave (km/s) = 6.18224 7.42073 6.82962
#
# Compressibility (1/GPa) = 0.02761846
#
# Stress axis : x y z
#
# Youngs Moduli (GPa) = 169.32749 40.18924 139.21699
#
# Poissons Ratio (x) = 0.19712 0.15139
# Poissons Ratio (y) = 0.83053 -0.11361
# Poissons Ratio (z) = 0.18414 -0.03280
#
# Static dielectric constant tensor:
#      x y z
#    x 1.801860 0.000000 0.000000 
#    y 0.000000 1.711490 0.000000 
#    z 0.000000 0.000000 1.798830 
# 
# From -- ./inp_files/6277.got.cif
#   From: 2010.05.17/outbox.cif.g08.bks.cpg/sg66_4_cif.got.tgz:6277.got - 2010.06.03 17:51:23.
