data_PCOD9499929
_publ_section_title
;
Structure prediction by ZEFSAII (Michael W. Deem and Ramdas Pophale) SiO2 
 PCOD9499929
Probable space group: C C C M
;
_chemical_formula_sum "Si O2"
_cell_formula_units_Z 64
_cell_length_a 7.826170
_cell_length_b 29.134124
_cell_length_c 11.187056
_cell_angle_alpha 90.000000
_cell_angle_beta 90.000000
_cell_angle_gamma 90.000000
_cell_volume 2550.745058
_symmetry_space_group_name_H-M "C C C M"
_symmetry_group_IT_number 66
_symmetry_cell_setting 'orthorhombic'
loop_
_space_group_symop_operation_xyz
x,y,z
-x,-y,z
x,-y,1/2-z
-x,y,1/2-z
-x,-y,-z
x,y,-z
-x,y,1/2+z
x,-y,1/2+z
1/2+x,1/2+y,z
1/2-x,1/2-y,z
1/2+x,1/2-y,1/2-z
1/2-x,1/2+y,1/2-z
1/2-x,1/2-y,-z
1/2+x,1/2+y,-z
1/2-x,1/2+y,1/2+z
1/2+x,1/2-y,1/2+z
loop_
_atom_site_type_symbol
_atom_site_label
_atom_site_fract_x
_atom_site_fract_y
_atom_site_fract_z
Si Si1 0.242945 0.695899 0.313415
Si Si2 0.560927 0.804125 0.500000
Si Si3 0.793299 0.453263 0.000000
Si Si4 0.548864 0.304295 0.000000
Si Si5 0.701120 0.400592 0.756584
Si Si6 0.302535 0.943655 0.500000
O O1 0.250000 0.750000 0.273904
O O2 0.417557 0.687720 0.389927
O O3 0.241939 0.652036 0.229309
O O4 0.070969 0.688632 0.390279
O O5 0.577182 0.749600 0.500000
O O6 0.756139 0.822823 0.500000
O O7 0.747655 0.429151 0.874662
O O8 0.722941 0.505295 0.000000
O O9 0.996761 0.451680 0.000000
O O10 0.500000 0.402884 0.750000
O O11 0.762369 0.418339 0.625482
#
# Coordination Sequence:
#
# PCOD9499929 Si02
#       6
#    16   8   8   8  16   8
#     4   9  19  39  65 101 161 210 258 324 379 456
#     4   8  14  30  63 103 140 201 269 329 381 441
#     4  11  27  51  82 116 159 198 252 327 408 489
#     4   8  14  30  62 105 140 196 274 328 381 436
#     4  12  26  48  77 118 159 203 263 325 395 477
#     4  11  25  53  85 116 149 199 261 329 405 482
#
# _framework density 25.090706999999998
#
# number of rings (size 3 to 8) (size 9 to 14) (size 15 to 20)
#    0.000    2.000    0.000    5.250    0.000    5.000 
#   13.500    3.125    5.500    0.000    0.000    0.000 
#    0.000    0.000    0.000    0.000    0.000    0.000 
#
# Total GULP energy -178752.639611 kJ/mol
# GULP energy per Si atom -5586.019988 kJ/mol
# Density = 2.503360 g / cm^3
# Si number density = 25.090707 Si / 1000 Ang^3
#
#
#
# Elastic Constant Matrix: (Units=GPa)
#
#
# Indices 1 2 3 4 5 6 
#
# 1 214.8002 45.2128 62.5577 0.0000 0.0000 0.0000
# 2 45.2128 180.8852 121.6316 0.0000 0.0000 0.0000
# 3 62.5577 121.6316 224.2726 0.0000 0.0000 0.0000
# 4 0.0000 0.0000 0.0000 257.6666 0.0000 0.0000
# 5 0.0000 0.0000 0.0000 0.0000 32.7332 0.0000
# 6 0.0000 0.0000 0.0000 0.0000 0.0000 29.6961
#
#
#
# Elastic Compliance Matrix: (Units=1/GPa)
#
#
# Indices 1 2 3 4 5 6 
#
# 1 0.005096 -0.000500 -0.001150 0.000000 0.000000 0.000000
# 2 -0.000500 0.008751 -0.004606 0.000000 0.000000 0.000000
# 3 -0.001150 -0.004606 0.007278 0.000000 0.000000 0.000000
# 4 0.000000 0.000000 0.000000 0.003881 0.000000 0.000000
# 5 0.000000 0.000000 0.000000 0.000000 0.030550 0.000000
# 6 0.000000 0.000000 0.000000 0.000000 0.000000 0.033674
#
#
# Mechanical properties :
#
#
# Convention : Reuss Voigt Hill
#
# Bulk Modulus (GPa) = 116.13141 119.86247 117.99694
# Shear Modulus (GPa) = 47.79491 90.05625 68.92558
#
# Velocity S-wave (km/s) = 4.36923 5.99752 5.24692
# Velocity P-wave (km/s) = 8.47577 9.78957 9.15626
#
# Compressibility (1/GPa) = 0.00861093
#
# Stress axis : x y z
#
# Youngs Moduli (GPa) = 196.24231 114.27437 137.40355
#
# Poissons Ratio (x) = 0.05718 0.15801
# Poissons Ratio (y) = 0.09820 0.63293
# Poissons Ratio (z) = 0.22568 0.52639
#
# Static dielectric constant tensor:
#      x y z
#    x 1.978010 0.000000 0.000000 
#    y 0.000000 2.001220 0.000000 
#    z 0.000000 0.000000 1.733320 
# 
# From -- ./inp_files/13634.got.cif
#   From: 2010.05.17/outbox.cif.g08.bks.cpg/sg66_7_cif.got.tgz:13634.got - 2010.06.03 17:51:23.
