data_PCOD9499823
_publ_section_title
;
Structure prediction by ZEFSAII (Michael W. Deem and Ramdas Pophale) SiO2 
 PCOD9499823
Probable space group: C C C M
;
_chemical_formula_sum "Si O2"
_cell_formula_units_Z 52
_cell_length_a 5.455938
_cell_length_b 14.670569
_cell_length_c 28.387679
_cell_angle_alpha 90.000000
_cell_angle_beta 90.000000
_cell_angle_gamma 90.000000
_cell_volume 2272.198509
_symmetry_space_group_name_H-M "C C C M"
_symmetry_group_IT_number 66
_symmetry_cell_setting 'orthorhombic'
loop_
_space_group_symop_operation_xyz
x,y,z
-x,-y,z
x,-y,1/2-z
-x,y,1/2-z
-x,-y,-z
x,y,-z
-x,y,1/2+z
x,-y,1/2+z
1/2+x,1/2+y,z
1/2-x,1/2-y,z
1/2+x,1/2-y,1/2-z
1/2-x,1/2+y,1/2-z
1/2-x,1/2-y,-z
1/2+x,1/2+y,-z
1/2-x,1/2+y,1/2+z
1/2+x,1/2-y,1/2+z
loop_
_atom_site_type_symbol
_atom_site_label
_atom_site_fract_x
_atom_site_fract_y
_atom_site_fract_z
Si Si1 0.329061 0.355143 0.295267
Si Si2 0.000000 0.500000 0.250000
Si Si3 0.204606 0.858732 0.097620
Si Si4 0.790614 0.359753 0.445742
O O1 0.500000 0.369548 0.250000
O O2 0.250000 0.250000 0.292472
O O3 0.127945 0.430173 0.285214
O O4 0.400375 0.369962 0.349348
O O5 0.250000 0.750000 0.090670
O O6 0.480103 0.892973 0.086077
O O7 0.983056 0.894422 0.065588
O O8 0.857447 0.376002 0.500000
O O9 0.750000 0.250000 0.439413
#
# Coordination Sequence:
#
# PCOD9499823 Si02
#       4
#    16   4  16  16
#     4  11  24  42  67  95 137 178 225 281 336 401
#     4  12  26  44  68  96 130 180 230 276 338 402
#     4   9  19  31  54  85 123 169 213 265 331 390
#     4   9  16  29  50  83 123 163 212 268 323 390
#
# _framework density 22.885325999999999
#
# number of rings (size 3 to 8) (size 9 to 14) (size 15 to 20)
#    0.000    2.154    1.538    1.385    4.308    4.923 
#    0.000    0.000    0.000    0.000    0.000    6.462 
#    0.000    0.000    0.000    0.000    0.000    0.308 
#
# Total GULP energy -144807.866099 kJ/mol
# GULP energy per Si atom -5569.533311 kJ/mol
# Density = 2.283324 g / cm^3
# Si number density = 22.885326 Si / 1000 Ang^3
#
#
#
# Elastic Constant Matrix: (Units=GPa)
#
#
# Indices 1 2 3 4 5 6 
#
# 1 120.4688 6.6988 58.2399 0.0000 0.0000 0.0000
# 2 6.6988 108.3848 6.6690 0.0000 0.0000 0.0000
# 3 58.2399 6.6690 88.9473 0.0000 0.0000 0.0000
# 4 0.0000 0.0000 0.0000 -86.4852 0.0000 0.0000
# 5 0.0000 0.0000 0.0000 0.0000 42.1805 0.0000
# 6 0.0000 0.0000 0.0000 0.0000 0.0000 -5.2535
#
#
#
# Elastic Compliance Matrix: (Units=1/GPa)
#
#
# Indices 1 2 3 4 5 6 
#
# 1 0.012153 -0.000263 -0.007938 0.000000 0.000000 0.000000
# 2 -0.000263 0.009275 -0.000523 0.000000 0.000000 0.000000
# 3 -0.007938 -0.000523 0.016479 0.000000 0.000000 0.000000
# 4 0.000000 0.000000 0.000000 -0.011563 0.000000 0.000000
# 5 0.000000 0.000000 0.000000 0.000000 0.023708 0.000000
# 6 0.000000 0.000000 0.000000 0.000000 0.000000 -0.190349
#
#
# Mechanical properties :
#
#
# Convention : Reuss Voigt Hill
#
# Bulk Modulus (GPa) = 48.87722 51.22404 50.05063
# Shear Modulus (GPa) = -43.09254 6.50123 -18.29565
#
# Velocity S-wave (km/s) = -4.34404 1.68729 -2.83052
# Velocity P-wave (km/s) = 1.93831 5.12127 3.35190
#
# Compressibility (1/GPa) = 0.02045943
#
# Stress axis : x y z
#
# Youngs Moduli (GPa) = 82.28472 107.81870 60.68261
#
# Poissons Ratio (x) = 0.02833 0.48168
# Poissons Ratio (y) = 0.02162 0.03176
# Poissons Ratio (z) = 0.65315 0.05643
#
# Static dielectric constant tensor:
#      x y z
#    x 1.260260 0.000000 0.000000 
#    y 0.000000 1.846510 0.000000 
#    z 0.000000 0.000000 1.902350 
# 
# From -- ./inp_files/60987.got.cif
#   From: 2010.05.17/outbox.cif.g08.bks.cpg/sg66_31_cif.got.tgz:60987.got - 2010.06.03 17:51:23.
