data_PCOD9499931
_publ_section_title
;
Structure prediction by ZEFSAII (Michael W. Deem and Ramdas Pophale) SiO2 
 PCOD9499931
Probable space group: C C C M
;
_chemical_formula_sum "Si O2"
_cell_formula_units_Z 112
_cell_length_a 16.235659
_cell_length_b 12.197820
_cell_length_c 27.079626
_cell_angle_alpha 90.000000
_cell_angle_beta 90.000000
_cell_angle_gamma 90.000000
_cell_volume 5362.839549
_symmetry_space_group_name_H-M "C C C M"
_symmetry_group_IT_number 66
_symmetry_cell_setting 'orthorhombic'
loop_
_space_group_symop_operation_xyz
x,y,z
-x,-y,z
x,-y,1/2-z
-x,y,1/2-z
-x,-y,-z
x,y,-z
-x,y,1/2+z
x,-y,1/2+z
1/2+x,1/2+y,z
1/2-x,1/2-y,z
1/2+x,1/2-y,1/2-z
1/2-x,1/2+y,1/2-z
1/2-x,1/2-y,-z
1/2+x,1/2+y,-z
1/2-x,1/2+y,1/2+z
1/2+x,1/2-y,1/2+z
loop_
_atom_site_type_symbol
_atom_site_label
_atom_site_fract_x
_atom_site_fract_y
_atom_site_fract_z
Si Si1 0.497379 0.370908 0.634088
Si Si2 0.374959 0.291719 0.796197
Si Si3 0.165310 0.188562 0.684088
Si Si4 0.913852 0.459172 0.306854
Si Si5 0.236083 0.974047 0.660987
Si Si6 0.254470 0.926177 0.444984
Si Si7 0.890510 0.746272 0.944598
O O1 0.500000 0.500000 0.619121
O O2 0.548779 0.364544 0.685299
O O3 0.409382 0.315613 0.645422
O O4 0.546353 0.297163 0.594254
O O5 0.361373 0.273682 0.738313
O O6 0.400628 0.170333 0.813226
O O7 0.296750 0.354484 0.821590
O O8 0.250000 0.250000 0.669656
O O9 0.184935 0.060664 0.691536
O O10 0.914119 0.500000 0.250000
O O11 0.830137 0.503678 0.329001
O O12 0.000000 0.500000 0.328696
O O13 0.225802 0.992873 0.602610
O O14 0.259821 0.975630 0.500000
O O15 0.184552 0.832821 0.447413
O O16 0.341750 0.866625 0.432758
O O17 0.925804 0.736295 0.000000
#
# Coordination Sequence:
#
# PCOD9499931 Si02
#       7
#    16  16  16  16  16  16  16
#     4  12  24  40  62  96 128 172 218 270 334 391
#     4  12  24  42  66  89 131 171 219 274 316 387
#     4  12  27  41  62  91 134 180 220 265 320 400
#     4  11  26  41  61  93 128 171 221 266 327 389
#     4  12  22  41  66  96 126 173 216 268 339 390
#     4   9  18  36  64  98 128 159 214 281 338 391
#     4   9  18  35  62  95 128 160 211 278 335 389
#
# _framework density 20.884457999999999
#
# number of rings (size 3 to 8) (size 9 to 14) (size 15 to 20)
#    0.000    1.000    2.857    5.571    8.000    0.857 
#    0.000    0.714    0.000    2.143    0.000    0.000 
#    0.000    0.000    0.000    0.000    0.000    0.000 
#
# Total GULP energy -312252.007431 kJ/mol
# GULP energy per Si atom -5575.928704 kJ/mol
# Density = 2.083692 g / cm^3
# Si number density = 20.884458 Si / 1000 Ang^3
#
#
#
# Elastic Constant Matrix: (Units=GPa)
#
#
# Indices 1 2 3 4 5 6 
#
# 1 139.5929 27.1842 36.5629 0.0000 0.0000 0.0000
# 2 27.1842 53.6868 12.1043 0.0000 0.0000 0.0000
# 3 36.5629 12.1043 78.6517 0.0000 0.0000 0.0000
# 4 0.0000 0.0000 0.0000 11.8006 0.0000 0.0000
# 5 0.0000 0.0000 0.0000 0.0000 25.9159 0.0000
# 6 0.0000 0.0000 0.0000 0.0000 0.0000 24.6170
#
#
#
# Elastic Compliance Matrix: (Units=1/GPa)
#
#
# Indices 1 2 3 4 5 6 
#
# 1 0.008801 -0.003661 -0.003528 0.000000 0.000000 0.000000
# 2 -0.003661 0.020819 -0.001502 0.000000 0.000000 0.000000
# 3 -0.003528 -0.001502 0.014585 0.000000 0.000000 0.000000
# 4 0.000000 0.000000 0.000000 0.084742 0.000000 0.000000
# 5 0.000000 0.000000 0.000000 0.000000 0.038586 0.000000
# 6 0.000000 0.000000 0.000000 0.000000 0.000000 0.040622
#
#
# Mechanical properties :
#
#
# Convention : Reuss Voigt Hill
#
# Bulk Modulus (GPa) = 37.28082 47.07046 42.17564
# Shear Modulus (GPa) = 21.32397 25.53868 23.43133
#
# Velocity S-wave (km/s) = 3.19885 3.50073 3.35319
# Velocity P-wave (km/s) = 5.61545 6.23920 5.93552
#
# Compressibility (1/GPa) = 0.02682345
#
# Stress axis : x y z
#
# Youngs Moduli (GPa) = 113.62862 48.03337 68.56159
#
# Poissons Ratio (x) = 0.17584 0.24187
# Poissons Ratio (y) = 0.41597 0.10299
# Poissons Ratio (z) = 0.40085 0.07215
#
# Static dielectric constant tensor:
#      x y z
#    x 1.808010 0.000000 0.000000 
#    y 0.000000 1.806080 0.000000 
#    z 0.000000 0.000000 1.758240 
# 
# From -- ./inp_files/69565.got.cif
#   From: 2010.05.17/outbox.cif.g08.bks.cpg/sg66_35_cif.got.tgz:69565.got - 2010.06.03 17:51:23.
