data_PCOD9499802
_publ_section_title
;
Structure prediction by ZEFSAII (Michael W. Deem and Ramdas Pophale) SiO2 
 PCOD9499802
Probable space group: C C C M
;
_chemical_formula_sum "Si O2"
_cell_formula_units_Z 48
_cell_length_a 11.533887
_cell_length_b 16.755555
_cell_length_c 10.550122
_cell_angle_alpha 90.000000
_cell_angle_beta 90.000000
_cell_angle_gamma 90.000000
_cell_volume 2038.881530
_symmetry_space_group_name_H-M "C C C M"
_symmetry_group_IT_number 66
_symmetry_cell_setting 'orthorhombic'
loop_
_space_group_symop_operation_xyz
x,y,z
-x,-y,z
x,-y,1/2-z
-x,y,1/2-z
-x,-y,-z
x,y,-z
-x,y,1/2+z
x,-y,1/2+z
1/2+x,1/2+y,z
1/2-x,1/2-y,z
1/2+x,1/2-y,1/2-z
1/2-x,1/2+y,1/2-z
1/2-x,1/2-y,-z
1/2+x,1/2+y,-z
1/2-x,1/2+y,1/2+z
1/2+x,1/2-y,1/2+z
loop_
_atom_site_type_symbol
_atom_site_label
_atom_site_fract_x
_atom_site_fract_y
_atom_site_fract_z
Si Si1 0.736689 0.843914 0.651161
Si Si2 0.123525 0.459932 0.000000
Si Si3 0.500000 0.201236 0.250000
Si Si4 0.113576 0.730078 0.500000
Si Si5 0.733430 0.500000 0.750000
O O1 0.746666 0.850258 0.500000
O O2 0.750000 0.750000 0.683241
O O3 0.604369 0.853872 0.699019
O O4 0.816184 0.911016 0.718478
O O5 0.109876 0.365479 0.000000
O O6 0.194537 0.485352 0.877002
O O7 0.000000 0.500000 0.000000
O O8 0.545480 0.251907 0.371036
O O9 0.250000 0.750000 0.500000
#
# Coordination Sequence:
#
# PCOD9499802 Si02
#       5
#    16   8   8   8   8
#     4  11  24  41  62  94 134 179 224 282 360 437
#     4  12  24  36  58  97 140 171 226 275 368 431
#     4  12  22  41  64  95 138 178 232 285 354 437
#     4  12  26  42  66 103 144 187 235 296 366 447
#     4  12  23  36  60  93 130 172 220 285 352 421
#
# _framework density 23.54232
#
# number of rings (size 3 to 8) (size 9 to 14) (size 15 to 20)
#    0.000    0.333    6.667    3.500    0.000    0.000 
#    0.000    0.000    0.000    1.000    0.000    7.000 
#    0.000    0.000    0.000    0.000    0.000    0.000 
#
# Total GULP energy -133994.681551 kJ/mol
# GULP energy per Si atom -5583.111731 kJ/mol
# Density = 2.348874 g / cm^3
# Si number density = 23.542320 Si / 1000 Ang^3
#
#
#
# Elastic Constant Matrix: (Units=GPa)
#
#
# Indices 1 2 3 4 5 6 
#
# 1 33.5243 14.4343 23.8510 0.0000 0.0000 0.0000
# 2 14.4343 187.1450 29.2415 0.0000 0.0000 0.0000
# 3 23.8510 29.2415 193.2016 0.0000 0.0000 0.0000
# 4 0.0000 0.0000 0.0000 39.9541 0.0000 0.0000
# 5 0.0000 0.0000 0.0000 0.0000 21.0820 0.0000
# 6 0.0000 0.0000 0.0000 0.0000 0.0000 29.6387
#
#
#
# Elastic Compliance Matrix: (Units=1/GPa)
#
#
# Indices 1 2 3 4 5 6 
#
# 1 0.033402 -0.001979 -0.003824 0.000000 0.000000 0.000000
# 2 -0.001979 0.005590 -0.000602 0.000000 0.000000 0.000000
# 3 -0.003824 -0.000602 0.005739 0.000000 0.000000 0.000000
# 4 0.000000 0.000000 0.000000 0.025029 0.000000 0.000000
# 5 0.000000 0.000000 0.000000 0.000000 0.047434 0.000000
# 6 0.000000 0.000000 0.000000 0.000000 0.000000 0.033740
#
#
# Mechanical properties :
#
#
# Convention : Reuss Voigt Hill
#
# Bulk Modulus (GPa) = 31.32654 60.99163 46.15908
# Shear Modulus (GPa) = 28.67255 41.22456 34.94856
#
# Velocity S-wave (km/s) = 3.49365 4.18913 3.85710
# Velocity P-wave (km/s) = 5.44146 7.02580 6.28377
#
# Compressibility (1/GPa) = 0.03192181
#
# Stress axis : x y z
#
# Youngs Moduli (GPa) = 29.93862 178.88770 174.24324
#
# Poissons Ratio (x) = 0.35397 0.66631
# Poissons Ratio (y) = 0.05924 0.10486
# Poissons Ratio (z) = 0.11449 0.10765
#
# Static dielectric constant tensor:
#      x y z
#    x 2.041070 0.000000 0.000000 
#    y 0.000000 2.563940 0.000000 
#    z 0.000000 0.000000 1.938020 
# 
# From -- ./inp_files/14246.got.cif
#   From: 2010.05.17/outbox.cif.g08.bks.cpg/sg66_8_cif.got.tgz:14246.got - 2010.06.03 17:51:23.
