data_PCOD9499699
_publ_section_title
;
Structure prediction by ZEFSAII (Michael W. Deem and Ramdas Pophale) SiO2 
 PCOD9499699
Probable space group: C C C M
;
_chemical_formula_sum "Si O2"
_cell_formula_units_Z 112
_cell_length_a 15.506645
_cell_length_b 13.838138
_cell_length_c 27.341208
_cell_angle_alpha 90.000000
_cell_angle_beta 90.000000
_cell_angle_gamma 90.000000
_cell_volume 5866.960991
_symmetry_space_group_name_H-M "C C C M"
_symmetry_group_IT_number 66
_symmetry_cell_setting 'orthorhombic'
loop_
_space_group_symop_operation_xyz
x,y,z
-x,-y,z
x,-y,1/2-z
-x,y,1/2-z
-x,-y,-z
x,y,-z
-x,y,1/2+z
x,-y,1/2+z
1/2+x,1/2+y,z
1/2-x,1/2-y,z
1/2+x,1/2-y,1/2-z
1/2-x,1/2+y,1/2-z
1/2-x,1/2-y,-z
1/2+x,1/2+y,-z
1/2-x,1/2+y,1/2+z
1/2+x,1/2-y,1/2+z
loop_
_atom_site_type_symbol
_atom_site_label
_atom_site_fract_x
_atom_site_fract_y
_atom_site_fract_z
Si Si1 0.359366 0.506371 0.555993
Si Si2 0.175802 0.819926 0.196503
Si Si3 0.157140 0.210772 0.810654
Si Si4 0.404469 0.028711 0.307689
Si Si5 0.228986 0.982919 0.344574
Si Si6 0.496988 0.668063 0.055877
Si Si7 0.026697 0.727841 0.152515
O O1 0.326863 0.510426 0.500000
O O2 0.290160 0.496954 0.598827
O O3 0.416703 0.603505 0.564275
O O4 0.421942 0.413138 0.559371
O O5 0.250000 0.750000 0.175051
O O6 0.160887 0.789367 0.252139
O O7 0.084331 0.818206 0.169801
O O8 0.212228 0.926572 0.190780
O O9 0.250000 0.250000 0.828794
O O10 0.163802 0.100765 0.828473
O O11 0.069804 0.264433 0.826199
O O12 0.414401 0.141364 0.324383
O O13 0.500000 0.000000 0.322432
O O14 0.394835 0.000000 0.250000
O O15 0.330615 0.969476 0.335463
O O16 0.483414 0.753893 0.094628
O O17 0.498911 0.703200 0.000000
#
# Coordination Sequence:
#
# PCOD9499699 Si02
#       7
#    16  16  16  16  16  16  16
#     4   9  18  35  61  93 127 162 200 252 327 399
#     4  11  23  37  58  89 129 164 200 260 324 380
#     4  11  25  38  58  87 126 168 215 257 311 378
#     4  11  26  41  63  83 121 176 221 240 301 391
#     4  12  21  40  62  90 128 162 204 268 321 375
#     4   9  18  36  61  92 127 163 202 254 326 390
#     4  12  22  39  63  92 124 161 210 269 308 380
#
# _framework density 19.089950999999999
#
# number of rings (size 3 to 8) (size 9 to 14) (size 15 to 20)
#    0.000    1.286    4.286    3.429    6.000    0.571 
#    0.000    2.143    0.000    7.714    0.000    0.000 
#    0.000    0.000    0.000    0.000    0.000    0.000 
#
# Total GULP energy -311888.727316 kJ/mol
# GULP energy per Si atom -5569.441559 kJ/mol
# Density = 1.904650 g / cm^3
# Si number density = 19.089951 Si / 1000 Ang^3
#
#
#
# Elastic Constant Matrix: (Units=GPa)
#
#
# Indices 1 2 3 4 5 6 
#
# 1 110.8434 2.1162 50.4133 0.0000 0.0000 0.0000
# 2 2.1162 54.6354 18.2257 0.0000 0.0000 0.0000
# 3 50.4133 18.2257 98.2573 0.0000 0.0000 0.0000
# 4 0.0000 0.0000 0.0000 20.2446 0.0000 0.0000
# 5 0.0000 0.0000 0.0000 0.0000 15.4246 0.0000
# 6 0.0000 0.0000 0.0000 0.0000 0.0000 20.8674
#
#
#
# Elastic Compliance Matrix: (Units=1/GPa)
#
#
# Indices 1 2 3 4 5 6 
#
# 1 0.011911 0.001681 -0.006423 0.000000 0.000000 0.000000
# 2 0.001681 0.019748 -0.004526 0.000000 0.000000 0.000000
# 3 -0.006423 -0.004526 0.014312 0.000000 0.000000 0.000000
# 4 0.000000 0.000000 0.000000 0.049396 0.000000 0.000000
# 5 0.000000 0.000000 0.000000 0.000000 0.064832 0.000000
# 6 0.000000 0.000000 0.000000 0.000000 0.000000 0.047922
#
#
# Mechanical properties :
#
#
# Convention : Reuss Voigt Hill
#
# Bulk Modulus (GPa) = 36.44818 45.02739 40.73778
# Shear Modulus (GPa) = 21.20438 24.17271 22.68855
#
# Velocity S-wave (km/s) = 3.33642 3.56231 3.45121
# Velocity P-wave (km/s) = 5.82895 6.36853 6.10470
#
# Compressibility (1/GPa) = 0.02743621
#
# Stress axis : x y z
#
# Youngs Moduli (GPa) = 83.95640 50.63878 69.86988
#
# Poissons Ratio (x) = -0.08514 0.44878
# Poissons Ratio (y) = -0.14116 0.31621
# Poissons Ratio (z) = 0.53926 0.22917
#
# Static dielectric constant tensor:
#      x y z
#    x 1.708730 0.000000 0.000000 
#    y 0.000000 1.875140 0.000000 
#    z 0.000000 0.000000 1.660600 
# 
# From -- ./inp_files/64658.got.cif
#   From: 2010.05.17/outbox.cif.g08.bks.cpg/sg66_33_cif.got.tgz:64658.got - 2010.06.03 17:51:23.
