data_PCOD9499783
_publ_section_title
;
Structure prediction by ZEFSAII (Michael W. Deem and Ramdas Pophale) SiO2 
 PCOD9499783
Probable space group: C C C M
;
_chemical_formula_sum "Si O2"
_cell_formula_units_Z 60
_cell_length_a 5.439877
_cell_length_b 23.726346
_cell_length_c 19.658557
_cell_angle_alpha 90.000000
_cell_angle_beta 90.000000
_cell_angle_gamma 90.000000
_cell_volume 2537.298575
_symmetry_space_group_name_H-M "C C C M"
_symmetry_group_IT_number 66
_symmetry_cell_setting 'orthorhombic'
loop_
_space_group_symop_operation_xyz
x,y,z
-x,-y,z
x,-y,1/2-z
-x,y,1/2-z
-x,-y,-z
x,y,-z
-x,y,1/2+z
x,-y,1/2+z
1/2+x,1/2+y,z
1/2-x,1/2-y,z
1/2+x,1/2-y,1/2-z
1/2-x,1/2+y,1/2-z
1/2-x,1/2-y,-z
1/2+x,1/2+y,-z
1/2-x,1/2+y,1/2+z
1/2+x,1/2-y,1/2+z
loop_
_atom_site_type_symbol
_atom_site_label
_atom_site_fract_x
_atom_site_fract_y
_atom_site_fract_z
Si Si1 0.151033 0.942985 0.144357
Si Si2 0.000000 0.145944 0.250000
Si Si3 0.250000 0.750000 0.802499
Si Si4 0.661052 0.659633 0.000000
Si Si5 0.500000 0.000000 0.250000
Si Si6 0.250000 0.250000 0.886605
Si Si7 0.342363 0.098730 0.500000
O O1 0.997155 0.893163 0.182258
O O2 0.345744 0.959522 0.201702
O O3 0.273807 0.929353 0.072229
O O4 0.000000 0.000000 0.134427
O O5 0.218578 0.191247 0.261506
O O6 0.494655 0.753865 0.846817
O O7 0.726357 0.696008 0.934488
O O8 0.369259 0.647652 0.000000
O O9 0.864979 0.610156 0.000000
#
# Coordination Sequence:
#
# PCOD9499783 Si02
#       7
#    16   8   8   8   4   8   8
#     4  12  27  53  77 119 159 220 271 349 407 498
#     4  12  25  49  74 112 168 200 282 322 418 478
#     4  12  27  43  75 117 153 220 261 354 393 498
#     4  11  24  46  74 112 155 219 252 345 396 494
#     4  12  26  48  88 110 158 222 270 336 424 466
#     4  11  23  46  71 108 163 205 285 312 421 479
#     4  12  29  46  82 118 161 203 280 333 420 478
#
# _framework density 23.647199000000001
#
# number of rings (size 3 to 8) (size 9 to 14) (size 15 to 20)
#    0.000    0.267    2.667    6.000    3.733    8.000 
#    0.000    0.000    0.000    0.000    0.000    0.000 
#    0.000    0.000    0.000    0.000    0.000    0.000 
#
# Total GULP energy -167696.063524 kJ/mol
# GULP energy per Si atom -5589.868784 kJ/mol
# Density = 2.359338 g / cm^3
# Si number density = 23.647199 Si / 1000 Ang^3
#
#
#
# Elastic Constant Matrix: (Units=GPa)
#
#
# Indices 1 2 3 4 5 6 
#
# 1 101.6845 9.0329 36.4818 0.0000 0.0000 0.0000
# 2 9.0329 105.8375 46.3356 0.0000 0.0000 0.0000
# 3 36.4818 46.3356 156.9244 0.0000 0.0000 0.0000
# 4 0.0000 0.0000 0.0000 33.2748 0.0000 0.0000
# 5 0.0000 0.0000 0.0000 0.0000 102.8239 0.0000
# 6 0.0000 0.0000 0.0000 0.0000 0.0000 85.8925
#
#
#
# Elastic Compliance Matrix: (Units=1/GPa)
#
#
# Indices 1 2 3 4 5 6 
#
# 1 0.010733 0.000203 -0.002555 0.000000 0.000000 0.000000
# 2 0.000203 0.010855 -0.003252 0.000000 0.000000 0.000000
# 3 -0.002555 -0.003252 0.007927 0.000000 0.000000 0.000000
# 4 0.000000 0.000000 0.000000 0.030053 0.000000 0.000000
# 5 0.000000 0.000000 0.000000 0.000000 0.009725 0.000000
# 6 0.000000 0.000000 0.000000 0.000000 0.000000 0.011642
#
#
# Mechanical properties :
#
#
# Convention : Reuss Voigt Hill
#
# Bulk Modulus (GPa) = 54.62893 60.90524 57.76709
# Shear Modulus (GPa) = 50.89229 62.57131 56.73180
#
# Velocity S-wave (km/s) = 4.64416 5.14954 4.90337
# Velocity P-wave (km/s) = 7.20482 7.82105 7.51925
#
# Compressibility (1/GPa) = 0.01830532
#
# Stress axis : x y z
#
# Youngs Moduli (GPa) = 93.17043 92.12339 126.15424
#
# Poissons Ratio (x) = -0.01866 0.32233
# Poissons Ratio (y) = -0.01887 0.41029
# Poissons Ratio (z) = 0.23805 0.29961
#
# Static dielectric constant tensor:
#      x y z
#    x 1.907860 0.000000 0.000000 
#    y 0.000000 1.942480 0.000000 
#    z 0.000000 0.000000 1.707880 
# 
# From -- ./inp_files/45619.got.cif
#   From: 2010.05.17/outbox.cif.g08.bks.cpg/sg66_23_cif.got.tgz:45619.got - 2010.06.03 17:51:23.
