data_PCOD9499007
_publ_section_title
;
Structure prediction by ZEFSAII (Michael W. Deem and Ramdas Pophale) SiO2 
 PCOD9499007
Probable space group: C C C M
;
_chemical_formula_sum "Si O2"
_cell_formula_units_Z 48
_cell_length_a 5.353261
_cell_length_b 14.270993
_cell_length_c 31.636693
_cell_angle_alpha 90.000000
_cell_angle_beta 90.000000
_cell_angle_gamma 90.000000
_cell_volume 2416.927879
_symmetry_space_group_name_H-M "C C C M"
_symmetry_group_IT_number 66
_symmetry_cell_setting 'orthorhombic'
loop_
_space_group_symop_operation_xyz
x,y,z
-x,-y,z
x,-y,1/2-z
-x,y,1/2-z
-x,-y,-z
x,y,-z
-x,y,1/2+z
x,-y,1/2+z
1/2+x,1/2+y,z
1/2-x,1/2-y,z
1/2+x,1/2-y,1/2-z
1/2-x,1/2+y,1/2-z
1/2-x,1/2-y,-z
1/2+x,1/2+y,-z
1/2-x,1/2+y,1/2+z
1/2+x,1/2-y,1/2+z
loop_
_atom_site_type_symbol
_atom_site_label
_atom_site_fract_x
_atom_site_fract_y
_atom_site_fract_z
Si Si1 0.750000 0.750000 0.721471
Si Si2 0.000000 0.000000 0.101327
Si Si3 0.750241 0.953140 0.684283
Si Si4 0.998850 0.191969 0.949336
O O1 0.500000 0.750453 0.750000
O O2 0.751070 0.843467 0.693357
O O3 0.221808 0.978523 0.134637
O O4 0.976331 0.907711 0.073333
O O5 0.500000 0.000000 0.700892
O O6 0.000000 0.000000 0.702909
O O7 0.750000 0.250000 0.936537
O O8 0.250000 0.250000 0.940120
O O9 0.983248 0.178158 0.000000
#
# Coordination Sequence:
#
# PCOD9499007 Si02
#       4
#     8   8  16  16
#     4  12  26  44  68  90 123 164 201 254 314 380
#     4  10  25  38  69  90 130 162 208 258 305 366
#     4  10  25  42  63  95 122 159 204 256 307 366
#     4  10  23  40  62  92 128 169 209 252 303 361
#
# _framework density 19.859923999999999
#
# number of rings (size 3 to 8) (size 9 to 14) (size 15 to 20)
#    1.000    0.667    0.000    2.500    7.000    4.000 
#    0.000    5.000    0.000    0.000    0.000    0.000 
#    0.000    0.000    0.000    0.000    0.000    0.000 
#
# Total GULP energy -133928.234799 kJ/mol
# GULP energy per Si atom -5580.343117 kJ/mol
# Density = 1.981472 g / cm^3
# Si number density = 19.859924 Si / 1000 Ang^3
#
#
#
# Elastic Constant Matrix: (Units=GPa)
#
#
# Indices 1 2 3 4 5 6 
#
# 1 186.1726 99.5566 56.9733 0.0000 0.0000 0.0000
# 2 99.5566 235.7741 86.2304 0.0000 0.0000 0.0000
# 3 56.9733 86.2304 72.6496 0.0000 0.0000 0.0000
# 4 0.0000 0.0000 0.0000 -1.7742 0.0000 0.0000
# 5 0.0000 0.0000 0.0000 0.0000 -21.0561 0.0000
# 6 0.0000 0.0000 0.0000 0.0000 0.0000 18.6400
#
#
#
# Elastic Compliance Matrix: (Units=1/GPa)
#
#
# Indices 1 2 3 4 5 6 
#
# 1 0.007471 -0.001788 -0.003737 0.000000 0.000000 0.000000
# 2 -0.001788 0.007923 -0.008002 0.000000 0.000000 0.000000
# 3 -0.003737 -0.008002 0.026192 0.000000 0.000000 0.000000
# 4 0.000000 0.000000 0.000000 -0.563641 0.000000 0.000000
# 5 0.000000 0.000000 0.000000 0.000000 -0.047492 0.000000
# 6 0.000000 0.000000 0.000000 0.000000 0.000000 0.053648
#
#
# Mechanical properties :
#
#
# Convention : Reuss Voigt Hill
#
# Bulk Modulus (GPa) = 68.80574 108.90188 88.85381
# Shear Modulus (GPa) = -10.33054 15.95102 2.81024
#
# Velocity S-wave (km/s) = -2.28320 2.83711 1.19084
# Velocity P-wave (km/s) = 5.26973 8.10471 6.83580
#
# Compressibility (1/GPa) = 0.01453367
#
# Stress axis : x y z
#
# Youngs Moduli (GPa) = 133.85030 126.21727 38.17890
#
# Poissons Ratio (x) = 0.22569 0.14266
# Poissons Ratio (y) = 0.23933 0.30549
# Poissons Ratio (z) = 0.50015 1.00995
#
# Static dielectric constant tensor:
#      x y z
#    x 1.702650 0.000000 0.000000 
#    y 0.000000 1.646230 0.000000 
#    z 0.000000 0.000000 1.720820 
# 
# From -- ./inp_files/66723.got.cif
#   From: 2010.05.17/outbox.cif.g08.bks.cpg/sg66_34_cif.got.tgz:66723.got - 2010.06.03 17:51:23.
