data_PCOD9499586
_publ_section_title
;
Structure prediction by ZEFSAII (Michael W. Deem and Ramdas Pophale) SiO2 
 PCOD9499586
Probable space group: C C C M
;
_chemical_formula_sum "Si O2"
_cell_formula_units_Z 64
_cell_length_a 10.976314
_cell_length_b 14.775767
_cell_length_c 17.840456
_cell_angle_alpha 90.000000
_cell_angle_beta 90.000000
_cell_angle_gamma 90.000000
_cell_volume 2893.426850
_symmetry_space_group_name_H-M "C C C M"
_symmetry_group_IT_number 66
_symmetry_cell_setting 'orthorhombic'
loop_
_space_group_symop_operation_xyz
x,y,z
-x,-y,z
x,-y,1/2-z
-x,y,1/2-z
-x,-y,-z
x,y,-z
-x,y,1/2+z
x,-y,1/2+z
1/2+x,1/2+y,z
1/2-x,1/2-y,z
1/2+x,1/2-y,1/2-z
1/2-x,1/2+y,1/2-z
1/2-x,1/2-y,-z
1/2+x,1/2+y,-z
1/2-x,1/2+y,1/2+z
1/2+x,1/2-y,1/2+z
loop_
_atom_site_type_symbol
_atom_site_label
_atom_site_fract_x
_atom_site_fract_y
_atom_site_fract_z
Si Si1 0.032910 0.630194 0.836243
Si Si2 0.781178 0.648879 0.088750
Si Si3 0.711394 0.475872 0.162384
Si Si4 0.619426 0.301486 0.914588
O O1 0.153158 0.569656 0.848289
O O2 0.055061 0.734560 0.856974
O O3 0.000000 0.618420 0.750000
O O4 0.914527 0.613675 0.886590
O O5 0.750000 0.750000 0.117895
O O6 0.695638 0.570818 0.120520
O O7 0.774692 0.651929 0.000000
O O8 0.694700 0.500000 0.250000
O O9 0.630168 0.398957 0.123455
O O10 0.750000 0.250000 0.921810
O O11 0.568370 0.304428 0.000000
#
# Coordination Sequence:
#
# PCOD9499586 Si02
#       4
#    16  16  16  16
#     4  11  22  37  64  95 123 161 204 256 312 373
#     4  11  25  41  61  89 126 167 208 257 310 359
#     4  11  22  37  64  95 123 161 204 256 312 373
#     4   9  20  38  61  89 122 161 205 251 307 369
#
# _framework density 22.119102000000002
#
# number of rings (size 3 to 8) (size 9 to 14) (size 15 to 20)
#    0.000    1.500    2.500    2.250    3.500    4.000 
#    0.000    1.250    0.000    4.500    0.000    0.000 
#    0.000    0.000    0.000    0.000    0.000    0.000 
#
# Total GULP energy -178578.593623 kJ/mol
# GULP energy per Si atom -5580.581051 kJ/mol
# Density = 2.206876 g / cm^3
# Si number density = 22.119102 Si / 1000 Ang^3
#
#
#
# Elastic Constant Matrix: (Units=GPa)
#
#
# Indices 1 2 3 4 5 6 
#
# 1 15.4931 -7.9292 5.0851 0.0000 0.0000 0.0000
# 2 -7.9292 186.8719 60.8100 0.0000 0.0000 0.0000
# 3 5.0851 60.8100 93.6163 0.0000 0.0000 0.0000
# 4 0.0000 0.0000 0.0000 51.0778 0.0000 0.0000
# 5 0.0000 0.0000 0.0000 0.0000 76.6644 0.0000
# 6 0.0000 0.0000 0.0000 0.0000 0.0000 21.2200
#
#
#
# Elastic Compliance Matrix: (Units=1/GPa)
#
#
# Indices 1 2 3 4 5 6 
#
# 1 0.069634 0.005307 -0.007230 0.000000 0.000000 0.000000
# 2 0.005307 0.007190 -0.004959 0.000000 0.000000 0.000000
# 3 -0.007230 -0.004959 0.014296 0.000000 0.000000 0.000000
# 4 0.000000 0.000000 0.000000 0.019578 0.000000 0.000000
# 5 0.000000 0.000000 0.000000 0.000000 0.013044 0.000000
# 6 0.000000 0.000000 0.000000 0.000000 0.000000 0.047125
#
#
# Mechanical properties :
#
#
# Convention : Reuss Voigt Hill
#
# Bulk Modulus (GPa) = 12.92705 45.76814 29.34759
# Shear Modulus (GPa) = 23.76253 45.66013 34.71133
#
# Velocity S-wave (km/s) = 3.28121 4.54837 3.96573
# Velocity P-wave (km/s) = 4.49578 6.95127 5.85373
#
# Compressibility (1/GPa) = 0.07735717
#
# Stress axis : x y z
#
# Youngs Moduli (GPa) = 14.36079 139.08064 69.95138
#
# Poissons Ratio (x) = -0.73815 0.50574
# Poissons Ratio (y) = -0.07622 0.34687
# Poissons Ratio (z) = 0.10383 0.68966
#
# Static dielectric constant tensor:
#      x y z
#    x 1.913830 0.000000 0.000000 
#    y 0.000000 1.926220 0.000000 
#    z 0.000000 0.000000 1.731020 
# 
# From -- ./inp_files/27727.got.cif
#   From: 2010.05.17/outbox.cif.g08.bks.cpg/sg66_14_cif.got.tgz:27727.got - 2010.06.03 17:51:23.
