data_PCOD9499206
_publ_section_title
;
Structure prediction by ZEFSAII (Michael W. Deem and Ramdas Pophale) SiO2 
 PCOD9499206
Probable space group: C C C M
;
_chemical_formula_sum "Si O2"
_cell_formula_units_Z 60
_cell_length_a 8.145734
_cell_length_b 16.863215
_cell_length_c 20.258769
_cell_angle_alpha 90.000000
_cell_angle_beta 90.000000
_cell_angle_gamma 90.000000
_cell_volume 2782.810630
_symmetry_space_group_name_H-M "C C C M"
_symmetry_group_IT_number 66
_symmetry_cell_setting 'orthorhombic'
loop_
_space_group_symop_operation_xyz
x,y,z
-x,-y,z
x,-y,1/2-z
-x,y,1/2-z
-x,-y,-z
x,y,-z
-x,y,1/2+z
x,-y,1/2+z
1/2+x,1/2+y,z
1/2-x,1/2-y,z
1/2+x,1/2-y,1/2-z
1/2-x,1/2+y,1/2-z
1/2-x,1/2-y,-z
1/2+x,1/2+y,-z
1/2-x,1/2+y,1/2+z
1/2+x,1/2-y,1/2+z
loop_
_atom_site_type_symbol
_atom_site_label
_atom_site_fract_x
_atom_site_fract_y
_atom_site_fract_z
Si Si1 0.934068 0.608428 0.823724
Si Si2 0.755886 0.948116 0.360210
Si Si3 0.000000 0.000000 0.250000
Si Si4 0.250000 0.250000 0.882328
Si Si5 0.267436 0.389474 0.500000
Si Si6 0.005816 0.262445 0.500000
O O1 0.838903 0.531015 0.849412
O O2 0.806171 0.678323 0.835631
O O3 0.000000 0.596363 0.750000
O O4 0.112260 0.617961 0.857385
O O5 0.814644 0.939018 0.434852
O O6 0.887790 0.948229 0.300631
O O7 0.399726 0.254024 0.934160
O O8 0.080694 0.352211 0.500000
O O9 0.366108 0.308359 0.500000
#
# Coordination Sequence:
#
# PCOD9499206 Si02
#       6
#    16  16   4   8   8   8
#     4  11  23  48  69 103 141 189 240 299 360 440
#     4  11  24  44  75 101 143 184 239 304 361 431
#     4  12  24  44  68 108 144 180 240 310 368 432
#     4  11  24  46  70 100 136 197 236 286 374 437
#     4  11  24  44  70 108 143 188 238 306 372 432
#     4  10  24  44  68 102 151 179 237 305 365 439
#
# _framework density 21.560934
#
# number of rings (size 3 to 8) (size 9 to 14) (size 15 to 20)
#    0.000    1.067    5.333    0.800    3.733    4.800 
#    7.200    0.000    0.000    0.000    0.000    0.000 
#    0.000    0.000    0.000    0.000    0.000    0.000 
#
# Total GULP energy -167039.228018 kJ/mol
# GULP energy per Si atom -5567.974267 kJ/mol
# Density = 2.151186 g / cm^3
# Si number density = 21.560934 Si / 1000 Ang^3
#
#
#
# Elastic Constant Matrix: (Units=GPa)
#
#
# Indices 1 2 3 4 5 6 
#
# 1 91.2028 40.2943 40.2741 0.0000 0.0000 0.0000
# 2 40.2943 96.9848 49.0733 0.0000 0.0000 0.0000
# 3 40.2741 49.0733 183.0686 0.0000 0.0000 0.0000
# 4 0.0000 0.0000 0.0000 292.6485 0.0000 0.0000
# 5 0.0000 0.0000 0.0000 0.0000 36.5573 0.0000
# 6 0.0000 0.0000 0.0000 0.0000 0.0000 37.2323
#
#
#
# Elastic Compliance Matrix: (Units=1/GPa)
#
#
# Indices 1 2 3 4 5 6 
#
# 1 0.013896 -0.004890 -0.001746 0.000000 0.000000 0.000000
# 2 -0.004890 0.013650 -0.002583 0.000000 0.000000 0.000000
# 3 -0.001746 -0.002583 0.006539 0.000000 0.000000 0.000000
# 4 0.000000 0.000000 0.000000 0.003417 0.000000 0.000000
# 5 0.000000 0.000000 0.000000 0.000000 0.027354 0.000000
# 6 0.000000 0.000000 0.000000 0.000000 0.000000 0.026858
#
#
# Mechanical properties :
#
#
# Convention : Reuss Voigt Hill
#
# Bulk Modulus (GPa) = 63.91355 70.05995 66.98675
# Shear Modulus (GPa) = 43.33946 89.39524 66.36735
#
# Velocity S-wave (km/s) = 4.48827 6.44606 5.55411
# Velocity P-wave (km/s) = 7.52110 9.37906 8.50099
#
# Compressibility (1/GPa) = 0.01564613
#
# Stress axis : x y z
#
# Youngs Moduli (GPa) = 71.96273 73.26273 152.92741
#
# Poissons Ratio (x) = 0.35824 0.26706
# Poissons Ratio (y) = 0.35188 0.39504
# Poissons Ratio (z) = 0.12567 0.18925
#
# Static dielectric constant tensor:
#      x y z
#    x 1.898530 0.000000 0.000000 
#    y 0.000000 1.762850 0.000000 
#    z 0.000000 0.000000 1.886950 
# 
# From -- ./inp_files/36172.got.cif
#   From: 2010.05.17/outbox.cif.g08.bks.cpg/sg66_19_cif.got.tgz:36172.got - 2010.06.03 17:51:23.
