data_PCOD9499351
_publ_section_title
;
Structure prediction by ZEFSAII (Michael W. Deem and Ramdas Pophale) SiO2 
 PCOD9499351
Probable space group: C C C M
;
_chemical_formula_sum "Si O2"
_cell_formula_units_Z 80
_cell_length_a 23.991148
_cell_length_b 24.756403
_cell_length_c 8.709299
_cell_angle_alpha 90.000000
_cell_angle_beta 90.000000
_cell_angle_gamma 90.000000
_cell_volume 5172.753394
_symmetry_space_group_name_H-M "C C C M"
_symmetry_group_IT_number 66
_symmetry_cell_setting 'orthorhombic'
loop_
_space_group_symop_operation_xyz
x,y,z
-x,-y,z
x,-y,1/2-z
-x,y,1/2-z
-x,-y,-z
x,y,-z
-x,y,1/2+z
x,-y,1/2+z
1/2+x,1/2+y,z
1/2-x,1/2-y,z
1/2+x,1/2-y,1/2-z
1/2-x,1/2+y,1/2-z
1/2-x,1/2-y,-z
1/2+x,1/2+y,-z
1/2-x,1/2+y,1/2+z
1/2+x,1/2-y,1/2+z
loop_
_atom_site_type_symbol
_atom_site_label
_atom_site_fract_x
_atom_site_fract_y
_atom_site_fract_z
Si Si1 0.273452 0.164308 0.316235
Si Si2 0.736818 0.443486 0.682483
Si Si3 0.388097 0.557608 0.183827
Si Si4 0.440444 0.334458 0.182462
Si Si5 0.339584 0.268679 0.315950
O O1 0.275644 0.155442 0.500000
O O2 0.273511 0.107800 0.229578
O O3 0.320840 0.207889 0.275545
O O4 0.214278 0.193704 0.283857
O O5 0.758470 0.500000 0.750000
O O6 0.730417 0.447333 0.500000
O O7 0.675549 0.435430 0.757513
O O8 0.407758 0.500000 0.250000
O O9 0.423180 0.607820 0.245574
O O10 0.388462 0.556665 0.000000
O O11 0.500000 0.318206 0.250000
O O12 0.392601 0.292331 0.230528
O O13 0.443145 0.339478 0.000000
O O14 0.348717 0.271014 0.500000
#
# Coordination Sequence:
#
# PCOD9499351 Si02
#       5
#    16  16  16  16  16
#     4   9  17  31  52  74  99 128 158 196 245 295
#     4  11  20  30  47  72 100 131 164 200 242 288
#     4  11  21  35  51  68  93 125 165 208 249 290
#     4  12  24  37  52  71  95 127 166 208 248 289
#     4   9  18  33  52  73  97 127 160 199 246 293
#
# _framework density 15.465650999999999
#
# number of rings (size 3 to 8) (size 9 to 14) (size 15 to 20)
#    0.000    1.600    2.000    7.800    0.000    1.200 
#    0.000    4.000    0.000    0.000    0.000    0.000 
#    0.000    0.800    0.000    8.400    0.000    3.600 
#
# Total GULP energy -223389.844975 kJ/mol
# GULP energy per Si atom -5584.746124 kJ/mol
# Density = 1.543045 g / cm^3
# Si number density = 15.465651 Si / 1000 Ang^3
#
#
#
# Elastic Constant Matrix: (Units=GPa)
#
#
# Indices 1 2 3 4 5 6 
#
# 1 71.3717 48.3151 49.0001 0.0000 0.0000 0.0000
# 2 48.3151 100.9442 62.5637 0.0000 0.0000 0.0000
# 3 49.0001 62.5637 127.5878 0.0000 0.0000 0.0000
# 4 0.0000 0.0000 0.0000 34.0015 0.0000 0.0000
# 5 0.0000 0.0000 0.0000 0.0000 -7.3627 0.0000
# 6 0.0000 0.0000 0.0000 0.0000 0.0000 16.4655
#
#
#
# Elastic Compliance Matrix: (Units=1/GPa)
#
#
# Indices 1 2 3 4 5 6 
#
# 1 0.022646 -0.007828 -0.004859 0.000000 0.000000 0.000000
# 2 -0.007828 0.016937 -0.005299 0.000000 0.000000 0.000000
# 3 -0.004859 -0.005299 0.012302 0.000000 0.000000 0.000000
# 4 0.000000 0.000000 0.000000 0.029410 0.000000 0.000000
# 5 0.000000 0.000000 0.000000 0.000000 -0.135819 0.000000
# 6 0.000000 0.000000 0.000000 0.000000 0.000000 0.060733
#
#
# Mechanical properties :
#
#
# Convention : Reuss Voigt Hill
#
# Bulk Modulus (GPa) = 62.83663 68.85129 65.84396
# Shear Modulus (GPa) = 105.29466 17.95584 61.62525
#
# Velocity S-wave (km/s) = 8.26019 3.41106 6.31926
# Velocity P-wave (km/s) = 11.47573 7.75431 9.79341
#
# Compressibility (1/GPa) = 0.01591428
#
# Stress axis : x y z
#
# Youngs Moduli (GPa) = 44.15813 59.04109 81.28586
#
# Poissons Ratio (x) = 0.46215 0.39495
# Poissons Ratio (y) = 0.34565 0.43075
# Poissons Ratio (z) = 0.21456 0.31287
#
# Static dielectric constant tensor:
#      x y z
#    x 1.493810 0.000000 0.000000 
#    y 0.000000 1.530980 0.000000 
#    z 0.000000 0.000000 1.513330 
# 
# From -- ./inp_files/6907.got.cif
#   From: 2010.05.17/outbox.cif.g08.bks.cpg/sg66_4_cif.got.tgz:6907.got - 2010.06.03 17:51:23.
