data_PCOD9499159
_publ_section_title
;
Structure prediction by ZEFSAII (Michael W. Deem and Ramdas Pophale) SiO2 
 PCOD9499159
Probable space group: C C C M
;
_chemical_formula_sum "Si O2"
_cell_formula_units_Z 96
_cell_length_a 16.190070
_cell_length_b 9.660658
_cell_length_c 27.538743
_cell_angle_alpha 90.000000
_cell_angle_beta 90.000000
_cell_angle_gamma 90.000000
_cell_volume 4307.244721
_symmetry_space_group_name_H-M "C C C M"
_symmetry_group_IT_number 66
_symmetry_cell_setting 'orthorhombic'
loop_
_space_group_symop_operation_xyz
x,y,z
-x,-y,z
x,-y,1/2-z
-x,y,1/2-z
-x,-y,-z
x,y,-z
-x,y,1/2+z
x,-y,1/2+z
1/2+x,1/2+y,z
1/2-x,1/2-y,z
1/2+x,1/2-y,1/2-z
1/2-x,1/2+y,1/2-z
1/2-x,1/2-y,-z
1/2+x,1/2+y,-z
1/2-x,1/2+y,1/2+z
1/2+x,1/2-y,1/2+z
loop_
_atom_site_type_symbol
_atom_site_label
_atom_site_fract_x
_atom_site_fract_y
_atom_site_fract_z
Si Si1 0.650418 0.609104 0.286100
Si Si2 0.747517 0.978454 0.444536
Si Si3 0.221083 0.590269 0.661972
Si Si4 0.514379 0.655779 0.362938
Si Si5 0.391491 0.741461 0.946171
Si Si6 0.081552 0.314183 0.782790
O O1 0.605517 0.500000 0.250000
O O2 0.725575 0.478939 0.192484
O O3 0.597418 0.650347 0.331910
O O4 0.648958 0.746460 0.253463
O O5 0.747393 0.038823 0.500000
O O6 0.673864 0.865704 0.443516
O O7 0.833987 0.894932 0.438840
O O8 0.732138 0.064939 0.395601
O O9 0.250000 0.750000 0.668989
O O10 0.129700 0.572900 0.685410
O O11 0.500000 0.500000 0.380080
O O12 0.534993 0.751544 0.408025
O O13 0.446550 0.707831 0.325170
O O14 0.426293 0.735341 0.000000
O O15 0.000000 0.344061 0.750000
#
# Coordination Sequence:
#
# PCOD9499159 Si02
#       6
#    16  16  16  16  16  16
#     4  11  20  39  58  88 118 173 208 255 300 378
#     4   9  20  41  66  92 125 161 211 270 319 374
#     4  12  22  39  65  99 125 164 220 266 314 389
#     4  11  19  35  64  90 123 163 207 259 320 364
#     4   9  19  39  65  94 120 159 211 261 312 381
#     4  10  24  41  60  89 134 170 208 263 319 374
#
# _framework density 22.288029000000002
#
# number of rings (size 3 to 8) (size 9 to 14) (size 15 to 20)
#    0.000    1.667    5.000    1.000    0.000    0.667 
#    9.000    1.667    0.000    2.000    0.000    0.000 
#    0.000    0.000    0.000    0.000    0.000    0.000 
#
# Total GULP energy -267626.473305 kJ/mol
# GULP energy per Si atom -5575.551527 kJ/mol
# Density = 2.223730 g / cm^3
# Si number density = 22.288029 Si / 1000 Ang^3
#
#
#
# Elastic Constant Matrix: (Units=GPa)
#
#
# Indices 1 2 3 4 5 6 
#
# 1 79.1118 26.7179 56.8523 0.0000 0.0000 0.0000
# 2 26.7179 45.9976 37.9336 0.0000 0.0000 0.0000
# 3 56.8523 37.9336 179.1447 0.0000 0.0000 0.0000
# 4 0.0000 0.0000 0.0000 27.9731 0.0000 0.0000
# 5 0.0000 0.0000 0.0000 0.0000 23.5112 0.0000
# 6 0.0000 0.0000 0.0000 0.0000 0.0000 25.4971
#
#
#
# Elastic Compliance Matrix: (Units=1/GPa)
#
#
# Indices 1 2 3 4 5 6 
#
# 1 0.018053 -0.006980 -0.004251 0.000000 0.000000 0.000000
# 2 -0.006980 0.029039 -0.003934 0.000000 0.000000 0.000000
# 3 -0.004251 -0.003934 0.007764 0.000000 0.000000 0.000000
# 4 0.000000 0.000000 0.000000 0.035749 0.000000 0.000000
# 5 0.000000 0.000000 0.000000 0.000000 0.042533 0.000000
# 6 0.000000 0.000000 0.000000 0.000000 0.000000 0.039220
#
#
# Mechanical properties :
#
#
# Convention : Reuss Voigt Hill
#
# Bulk Modulus (GPa) = 40.77359 60.80686 50.79022
# Shear Modulus (GPa) = 23.71214 27.57963 25.64589
#
# Velocity S-wave (km/s) = 3.26528 3.52151 3.39581
# Velocity P-wave (km/s) = 5.70524 6.62392 6.18167
#
# Compressibility (1/GPa) = 0.02452568
#
# Stress axis : x y z
#
# Youngs Moduli (GPa) = 55.39359 34.43666 128.79756
#
# Poissons Ratio (x) = 0.24037 0.54752
# Poissons Ratio (y) = 0.38666 0.50666
# Poissons Ratio (z) = 0.23548 0.13546
#
# Static dielectric constant tensor:
#      x y z
#    x 1.856480 0.000000 0.000000 
#    y 0.000000 1.879460 0.000000 
#    z 0.000000 0.000000 1.857690 
# 
# From -- ./inp_files/58789.got.cif
#   From: 2010.05.17/outbox.cif.g08.bks.cpg/sg66_30_cif.got.tgz:58789.got - 2010.06.03 17:51:23.
