data_PCOD9499756
_publ_section_title
;
Structure prediction by ZEFSAII (Michael W. Deem and Ramdas Pophale) SiO2 
 PCOD9499756
Probable space group: C C C M
;
_chemical_formula_sum "Si O2"
_cell_formula_units_Z 80
_cell_length_a 14.668911
_cell_length_b 15.147270
_cell_length_c 17.344851
_cell_angle_alpha 90.000000
_cell_angle_beta 90.000000
_cell_angle_gamma 90.000000
_cell_volume 3853.921052
_symmetry_space_group_name_H-M "C C C M"
_symmetry_group_IT_number 66
_symmetry_cell_setting 'orthorhombic'
loop_
_space_group_symop_operation_xyz
x,y,z
-x,-y,z
x,-y,1/2-z
-x,y,1/2-z
-x,-y,-z
x,y,-z
-x,y,1/2+z
x,-y,1/2+z
1/2+x,1/2+y,z
1/2-x,1/2-y,z
1/2+x,1/2-y,1/2-z
1/2-x,1/2+y,1/2-z
1/2-x,1/2-y,-z
1/2+x,1/2+y,-z
1/2-x,1/2+y,1/2+z
1/2+x,1/2-y,1/2+z
loop_
_atom_site_type_symbol
_atom_site_label
_atom_site_fract_x
_atom_site_fract_y
_atom_site_fract_z
Si Si1 0.582980 0.068688 0.090604
Si Si2 0.950072 0.093206 0.908333
Si Si3 0.981268 0.273505 0.340387
Si Si4 0.727642 0.512316 0.659447
Si Si5 0.700038 0.842425 0.086336
O O1 0.551731 0.166074 0.112955
O O2 0.500000 0.000000 0.105876
O O3 0.670915 0.046075 0.140962
O O4 0.604744 0.063878 0.000000
O O5 0.004683 0.173599 0.869454
O O6 0.848796 0.077076 0.874876
O O7 0.946175 0.108565 0.000000
O O8 0.000000 0.000000 0.894403
O O9 0.885137 0.320243 0.359450
O O10 0.000000 0.277397 0.250000
O O11 0.712584 0.500000 0.750000
O O12 0.731690 0.416742 0.617705
O O13 0.750000 0.750000 0.080093
O O14 0.667492 0.868196 0.000000
#
# Coordination Sequence:
#
# PCOD9499756 Si02
#       5
#    16  16  16  16  16
#     4  11  23  43  71  99 135 178 229 287 346 411
#     4  11  26  47  71  99 138 186 231 277 341 415
#     4  12  26  42  69 102 141 177 228 283 351 406
#     4  12  26  42  69 102 141 177 228 283 351 406
#     4  11  23  43  71  97 128 178 237 281 327 404
#
# _framework density 20.758081000000001
#
# number of rings (size 3 to 8) (size 9 to 14) (size 15 to 20)
#    0.000    0.600    2.000    6.000    5.600    4.000 
#    0.000    2.000    0.000    0.000    0.000    0.000 
#    0.000    0.000    0.000    0.000    0.000    0.000 
#
# Total GULP energy -223719.562387 kJ/mol
# GULP energy per Si atom -5592.989060 kJ/mol
# Density = 2.071083 g / cm^3
# Si number density = 20.758081 Si / 1000 Ang^3
#
#
#
# Elastic Constant Matrix: (Units=GPa)
#
#
# Indices 1 2 3 4 5 6 
#
# 1 49.6874 -11.9824 6.5073 0.0000 0.0000 0.0000
# 2 -11.9824 88.9668 16.7460 0.0000 0.0000 0.0000
# 3 6.5073 16.7460 103.6511 0.0000 0.0000 0.0000
# 4 0.0000 0.0000 0.0000 20.4987 0.0000 0.0000
# 5 0.0000 0.0000 0.0000 0.0000 40.9433 0.0000
# 6 0.0000 0.0000 0.0000 0.0000 0.0000 36.2496
#
#
#
# Elastic Compliance Matrix: (Units=1/GPa)
#
#
# Indices 1 2 3 4 5 6 
#
# 1 0.021137 0.003194 -0.001843 0.000000 0.000000 0.000000
# 2 0.003194 0.012075 -0.002151 0.000000 0.000000 0.000000
# 3 -0.001843 -0.002151 0.010111 0.000000 0.000000 0.000000
# 4 0.000000 0.000000 0.000000 0.048784 0.000000 0.000000
# 5 0.000000 0.000000 0.000000 0.000000 0.024424 0.000000
# 6 0.000000 0.000000 0.000000 0.000000 0.000000 0.027587
#
#
# Mechanical properties :
#
#
# Convention : Reuss Voigt Hill
#
# Bulk Modulus (GPa) = 23.96791 29.42743 26.69767
# Shear Modulus (GPa) = 31.32309 34.94060 33.13185
#
# Velocity S-wave (km/s) = 3.88875 4.10717 3.99945
# Velocity P-wave (km/s) = 5.63334 6.05796 5.84951
#
# Compressibility (1/GPa) = 0.04172246
#
# Stress axis : x y z
#
# Youngs Moduli (GPa) = 47.30946 82.81397 98.90176
#
# Poissons Ratio (x) = -0.26449 0.18228
# Poissons Ratio (y) = -0.15110 0.21278
# Poissons Ratio (z) = 0.08719 0.17817
#
# Static dielectric constant tensor:
#      x y z
#    x 1.783180 0.000000 0.000000 
#    y 0.000000 1.767710 0.000000 
#    z 0.000000 0.000000 1.696450 
# 
# From -- ./inp_files/40201.got.cif
#   From: 2010.05.17/outbox.cif.g08.bks.cpg/sg66_21_cif.got.tgz:40201.got - 2010.06.03 17:51:23.
