data_PCOD9499061
_publ_section_title
;
Structure prediction by ZEFSAII (Michael W. Deem and Ramdas Pophale) SiO2 
 PCOD9499061
Probable space group: C C C M
;
_chemical_formula_sum "Si O2"
_cell_formula_units_Z 96
_cell_length_a 14.550338
_cell_length_b 13.721882
_cell_length_c 22.714857
_cell_angle_alpha 90.000000
_cell_angle_beta 90.000000
_cell_angle_gamma 90.000000
_cell_volume 4535.203398
_symmetry_space_group_name_H-M "C C C M"
_symmetry_group_IT_number 66
_symmetry_cell_setting 'orthorhombic'
loop_
_space_group_symop_operation_xyz
x,y,z
-x,-y,z
x,-y,1/2-z
-x,y,1/2-z
-x,-y,-z
x,y,-z
-x,y,1/2+z
x,-y,1/2+z
1/2+x,1/2+y,z
1/2-x,1/2-y,z
1/2+x,1/2-y,1/2-z
1/2-x,1/2+y,1/2-z
1/2-x,1/2-y,-z
1/2+x,1/2+y,-z
1/2-x,1/2+y,1/2+z
1/2+x,1/2-y,1/2+z
loop_
_atom_site_type_symbol
_atom_site_label
_atom_site_fract_x
_atom_site_fract_y
_atom_site_fract_z
Si Si1 0.390211 0.996923 0.319985
Si Si2 0.500000 0.500000 0.401052
Si Si3 0.149810 0.703773 0.375042
Si Si4 0.848078 0.303031 0.874318
Si Si5 0.642257 0.490453 0.500000
Si Si6 0.488820 0.673919 0.817733
Si Si7 0.357835 0.272568 0.500000
Si Si8 0.313543 0.846036 0.500000
O O1 0.344508 0.083449 0.358160
O O2 0.500000 0.000000 0.331698
O O3 0.377185 0.000000 0.250000
O O4 0.350392 0.893996 0.338128
O O5 0.581526 0.461094 0.443199
O O6 0.537982 0.583816 0.358918
O O7 0.250000 0.750000 0.375908
O O8 0.127665 0.666314 0.441061
O O9 0.079497 0.778926 0.346144
O O10 0.750000 0.250000 0.872392
O O11 0.911815 0.256229 0.824334
O O12 0.891036 0.275345 0.938548
O O13 0.637368 0.609299 0.500000
O O14 0.742072 0.438315 0.500000
O O15 0.500000 0.646031 0.750000
O O16 0.250000 0.250000 0.500000
O O17 0.250000 0.750000 0.500000
#
# Coordination Sequence:
#
# PCOD9499061 Si02
#       8
#    16   8  16  16   8  16   8   8
#     4  11  24  45  68  95 137 186 229 277 342 416
#     4  11  23  40  68 100 135 183 228 280 360 419
#     4  11  25  44  70 100 135 179 231 291 347 416
#     4  11  25  44  70 101 136 180 233 289 356 421
#     4  11  22  42  69  98 137 181 224 281 364 430
#     4  12  25  44  66  98 141 184 237 290 340 416
#     4  10  23  42  68  99 135 171 221 291 351 418
#     4  10  23  42  65  99 136 173 225 287 346 417
#
# _framework density 21.167738
#
# number of rings (size 3 to 8) (size 9 to 14) (size 15 to 20)
#    0.000    1.000    3.333    3.250    4.667    5.333 
#    0.000    0.833    0.000    0.000    0.000    0.000 
#    0.000    0.000    0.000    0.000    0.000    0.000 
#
# Total GULP energy -268160.154534 kJ/mol
# GULP energy per Si atom -5586.669886 kJ/mol
# Density = 2.111956 g / cm^3
# Si number density = 21.167738 Si / 1000 Ang^3
#
#
#
# Elastic Constant Matrix: (Units=GPa)
#
#
# Indices 1 2 3 4 5 6 
#
# 1 63.8592 0.6749 28.8646 0.0000 0.0000 0.0000
# 2 0.6749 87.3995 33.1975 0.0000 0.0000 0.0000
# 3 28.8646 33.1975 146.6815 0.0000 0.0000 0.0000
# 4 0.0000 0.0000 0.0000 25.8676 0.0000 0.0000
# 5 0.0000 0.0000 0.0000 0.0000 30.3254 0.0000
# 6 0.0000 0.0000 0.0000 0.0000 0.0000 28.3795
#
#
#
# Elastic Compliance Matrix: (Units=1/GPa)
#
#
# Indices 1 2 3 4 5 6 
#
# 1 0.017316 0.001270 -0.003695 0.000000 0.000000 0.000000
# 2 0.001270 0.012611 -0.003104 0.000000 0.000000 0.000000
# 3 -0.003695 -0.003104 0.008247 0.000000 0.000000 0.000000
# 4 0.000000 0.000000 0.000000 0.038658 0.000000 0.000000
# 5 0.000000 0.000000 0.000000 0.000000 0.032976 0.000000
# 6 0.000000 0.000000 0.000000 0.000000 0.000000 0.035237
#
#
# Mechanical properties :
#
#
# Convention : Reuss Voigt Hill
#
# Bulk Modulus (GPa) = 36.87886 47.04602 41.96244
# Shear Modulus (GPa) = 30.27699 32.59471 31.43585
#
# Velocity S-wave (km/s) = 3.78608 3.92832 3.85786
# Velocity P-wave (km/s) = 6.04753 6.54593 6.30166
#
# Compressibility (1/GPa) = 0.02711581
#
# Stress axis : x y z
#
# Youngs Moduli (GPa) = 57.74956 79.29632 121.25461
#
# Poissons Ratio (x) = -0.10069 0.44803
# Poissons Ratio (y) = -0.07333 0.37638
# Poissons Ratio (z) = 0.21338 0.24614
#
# Static dielectric constant tensor:
#      x y z
#    x 1.739000 0.000000 0.000000 
#    y 0.000000 1.536160 0.000000 
#    z 0.000000 0.000000 1.755680 
# 
# From -- ./inp_files/49933.got.cif
#   From: 2010.05.17/outbox.cif.g08.bks.cpg/sg66_25_cif.got.tgz:49933.got - 2010.06.03 17:51:23.
