data_PCOD9499947
_publ_section_title
;
Structure prediction by ZEFSAII (Michael W. Deem and Ramdas Pophale) SiO2 
 PCOD9499947
Probable space group: C C C M
;
_chemical_formula_sum "Si O2"
_cell_formula_units_Z 80
_cell_length_a 19.200783
_cell_length_b 7.335596
_cell_length_c 27.772084
_cell_angle_alpha 90.000000
_cell_angle_beta 90.000000
_cell_angle_gamma 90.000000
_cell_volume 3911.675452
_symmetry_space_group_name_H-M "C C C M"
_symmetry_group_IT_number 66
_symmetry_cell_setting 'orthorhombic'
loop_
_space_group_symop_operation_xyz
x,y,z
-x,-y,z
x,-y,1/2-z
-x,y,1/2-z
-x,-y,-z
x,y,-z
-x,y,1/2+z
x,-y,1/2+z
1/2+x,1/2+y,z
1/2-x,1/2-y,z
1/2+x,1/2-y,1/2-z
1/2-x,1/2+y,1/2-z
1/2-x,1/2-y,-z
1/2+x,1/2+y,-z
1/2-x,1/2+y,1/2+z
1/2+x,1/2-y,1/2+z
loop_
_atom_site_type_symbol
_atom_site_label
_atom_site_fract_x
_atom_site_fract_y
_atom_site_fract_z
Si Si1 0.071578 0.260619 0.808172
Si Si2 0.419106 0.446271 0.093187
Si Si3 0.169656 0.283175 0.391713
Si Si4 0.323553 0.153549 0.945058
Si Si5 0.589890 0.799780 0.298129
O O1 0.097088 0.145752 0.853924
O O2 0.102703 0.222118 0.755263
O O3 0.082029 0.480747 0.806110
O O4 0.988059 0.230025 0.809327
O O5 0.500000 0.500000 0.089737
O O6 0.376875 0.630541 0.083331
O O7 0.386823 0.295884 0.058065
O O8 0.250000 0.250000 0.400033
O O9 0.156767 0.485487 0.410950
O O10 0.148680 0.253996 0.336174
O O11 0.250000 0.250000 0.930370
O O12 0.313712 0.089877 0.000000
#
# Coordination Sequence:
#
# PCOD9499947 Si02
#       5
#    16  16  16  16  16
#     4   9  18  36  63  93 133 179 219 269 321 393
#     4  12  24  41  72 104 137 176 227 281 337 407
#     4  12  24  41  68 102 133 177 229 282 341 412
#     4  11  26  49  72  95 133 179 226 289 360 421
#     4   9  18  36  63  94 131 179 227 261 318 396
#
# _framework density 20.451592999999999
#
# number of rings (size 3 to 8) (size 9 to 14) (size 15 to 20)
#    0.000    1.400    6.000    1.200    0.000    3.200 
#    0.000    6.000    0.000    0.000    0.000    0.000 
#    0.000    0.000    0.000    0.000    0.000    0.000 
#
# Total GULP energy -222884.831181 kJ/mol
# GULP energy per Si atom -5572.120780 kJ/mol
# Density = 2.040504 g / cm^3
# Si number density = 20.451593 Si / 1000 Ang^3
#
#
#
# Elastic Constant Matrix: (Units=GPa)
#
#
# Indices 1 2 3 4 5 6 
#
# 1 91.4475 50.6893 17.8371 0.0000 0.0000 0.0000
# 2 50.6893 108.0321 22.9005 0.0000 0.0000 0.0000
# 3 17.8371 22.9005 71.6107 0.0000 0.0000 0.0000
# 4 0.0000 0.0000 0.0000 12.5808 0.0000 0.0000
# 5 0.0000 0.0000 0.0000 0.0000 23.1378 0.0000
# 6 0.0000 0.0000 0.0000 0.0000 0.0000 26.8017
#
#
#
# Elastic Compliance Matrix: (Units=1/GPa)
#
#
# Indices 1 2 3 4 5 6 
#
# 1 0.014945 -0.006676 -0.001588 0.000000 0.000000 0.000000
# 2 -0.006676 0.012912 -0.002466 0.000000 0.000000 0.000000
# 3 -0.001588 -0.002466 0.015149 0.000000 0.000000 0.000000
# 4 0.000000 0.000000 0.000000 0.079486 0.000000 0.000000
# 5 0.000000 0.000000 0.000000 0.000000 0.043219 0.000000
# 6 0.000000 0.000000 0.000000 0.000000 0.000000 0.037311
#
#
# Mechanical properties :
#
#
# Convention : Reuss Voigt Hill
#
# Bulk Modulus (GPa) = 46.41253 50.43823 48.42538
# Shear Modulus (GPa) = 21.58301 24.48163 23.03232
#
# Velocity S-wave (km/s) = 3.25210 3.46360 3.35951
# Velocity P-wave (km/s) = 6.06998 6.38053 6.22719
#
# Compressibility (1/GPa) = 0.02154590
#
# Stress axis : x y z
#
# Youngs Moduli (GPa) = 66.91038 77.44946 66.01297
#
# Poissons Ratio (x) = 0.51704 0.10481
# Poissons Ratio (y) = 0.44669 0.16280
# Poissons Ratio (z) = 0.10624 0.19100
#
# Static dielectric constant tensor:
#      x y z
#    x 1.710420 0.000000 0.000000 
#    y 0.000000 1.795580 0.000000 
#    z 0.000000 0.000000 1.777000 
# 
# From -- ./inp_files/70144.got.cif
#   From: 2010.05.17/outbox.cif.g08.bks.cpg/sg66_36_cif.got.tgz:70144.got - 2010.06.03 17:51:23.
