data_PCOD9499409
_publ_section_title
;
Structure prediction by ZEFSAII (Michael W. Deem and Ramdas Pophale) SiO2 
 PCOD9499409
Probable space group: C C C M
;
_chemical_formula_sum "Si O2"
_cell_formula_units_Z 64
_cell_length_a 16.757663
_cell_length_b 11.258203
_cell_length_c 14.203548
_cell_angle_alpha 90.000000
_cell_angle_beta 90.000000
_cell_angle_gamma 90.000000
_cell_volume 2679.658010
_symmetry_space_group_name_H-M "C C C M"
_symmetry_group_IT_number 66
_symmetry_cell_setting 'orthorhombic'
loop_
_space_group_symop_operation_xyz
x,y,z
-x,-y,z
x,-y,1/2-z
-x,y,1/2-z
-x,-y,-z
x,y,-z
-x,y,1/2+z
x,-y,1/2+z
1/2+x,1/2+y,z
1/2-x,1/2-y,z
1/2+x,1/2-y,1/2-z
1/2-x,1/2+y,1/2-z
1/2-x,1/2-y,-z
1/2+x,1/2+y,-z
1/2-x,1/2+y,1/2+z
1/2+x,1/2-y,1/2+z
loop_
_atom_site_type_symbol
_atom_site_label
_atom_site_fract_x
_atom_site_fract_y
_atom_site_fract_z
Si Si1 0.429250 0.354125 0.000000
Si Si2 0.878386 0.892095 0.500000
Si Si3 0.467164 0.807492 0.656878
Si Si4 0.112193 0.528966 0.106642
Si Si5 0.776546 0.119311 0.185592
O O1 0.373377 0.465936 0.000000
O O2 0.525865 0.373507 0.000000
O O3 0.417978 0.279888 0.093514
O O4 0.839279 0.853987 0.400262
O O5 0.500000 0.747349 0.750000
O O6 0.544237 0.870067 0.610421
O O7 0.411670 0.920731 0.674575
O O8 0.197420 0.577145 0.131766
O O9 0.110798 0.481067 0.000000
O O10 0.750000 0.250000 0.229089
O O11 0.798695 0.000000 0.250000
#
# Coordination Sequence:
#
# PCOD9499409 Si02
#       5
#     8   8  16  16  16
#     4  11  24  44  65  97 134 185 240 274 344 421
#     4  11  27  45  69  96 139 189 228 283 350 426
#     4  11  21  38  66 101 139 177 228 293 342 396
#     4  11  20  39  68 101 134 178 231 287 345 404
#     4  12  27  48  73 104 139 185 233 287 352 420
#
# _framework density 23.883645000000001
#
# number of rings (size 3 to 8) (size 9 to 14) (size 15 to 20)
#    0.000    0.750    3.750    5.625    0.000    6.000 
#    0.000    4.375    0.000    0.000    0.000    0.000 
#    0.000    0.000    0.000    0.000    0.000    0.000 
#
# Total GULP energy -178646.427374 kJ/mol
# GULP energy per Si atom -5582.700855 kJ/mol
# Density = 2.382928 g / cm^3
# Si number density = 23.883645 Si / 1000 Ang^3
#
#
#
# Elastic Constant Matrix: (Units=GPa)
#
#
# Indices 1 2 3 4 5 6 
#
# 1 63.5292 -4.4629 -17.9883 0.0000 0.0000 0.0000
# 2 -4.4629 122.5586 39.5813 0.0000 0.0000 0.0000
# 3 -17.9883 39.5813 92.1791 0.0000 0.0000 0.0000
# 4 0.0000 0.0000 0.0000 445.6319 0.0000 0.0000
# 5 0.0000 0.0000 0.0000 0.0000 17.4576 0.0000
# 6 0.0000 0.0000 0.0000 0.0000 0.0000 34.1144
#
#
#
# Elastic Compliance Matrix: (Units=1/GPa)
#
#
# Indices 1 2 3 4 5 6 
#
# 1 0.016689 -0.000516 0.003478 0.000000 0.000000 0.000000
# 2 -0.000516 0.009489 -0.004175 0.000000 0.000000 0.000000
# 3 0.003478 -0.004175 0.013320 0.000000 0.000000 0.000000
# 4 0.000000 0.000000 0.000000 0.002244 0.000000 0.000000
# 5 0.000000 0.000000 0.000000 0.000000 0.057282 0.000000
# 6 0.000000 0.000000 0.000000 0.000000 0.000000 0.029313
#
#
# Mechanical properties :
#
#
# Convention : Reuss Voigt Hill
#
# Bulk Modulus (GPa) = 26.97346 34.72523 30.84935
# Shear Modulus (GPa) = 34.93572 116.84989 75.89280
#
# Velocity S-wave (km/s) = 3.82874 7.00220 5.64314
# Velocity P-wave (km/s) = 5.55552 8.94122 7.44343
#
# Compressibility (1/GPa) = 0.03707348
#
# Stress axis : x y z
#
# Youngs Moduli (GPa) = 59.91809 105.38541 75.07508
#
# Poissons Ratio (x) = 0.05434 -0.26113
# Poissons Ratio (y) = 0.03089 0.31345
# Poissons Ratio (z) = -0.20841 0.44000
#
# Static dielectric constant tensor:
#      x y z
#    x 1.866400 0.000000 0.000000 
#    y 0.000000 1.936110 0.000000 
#    z 0.000000 0.000000 1.992000 
# 
# From -- ./inp_files/29616.got.cif
#   From: 2010.05.17/outbox.cif.g08.bks.cpg/sg66_15_cif.got.tgz:29616.got - 2010.06.03 17:51:23.
