data_PCOD9499423
_publ_section_title
;
Structure prediction by ZEFSAII (Michael W. Deem and Ramdas Pophale) SiO2 
 PCOD9499423
Probable space group: C C C M
;
_chemical_formula_sum "Si O2"
_cell_formula_units_Z 96
_cell_length_a 22.923703
_cell_length_b 11.924079
_cell_length_c 17.347121
_cell_angle_alpha 90.000000
_cell_angle_beta 90.000000
_cell_angle_gamma 90.000000
_cell_volume 4741.732233
_symmetry_space_group_name_H-M "C C C M"
_symmetry_group_IT_number 66
_symmetry_cell_setting 'orthorhombic'
loop_
_space_group_symop_operation_xyz
x,y,z
-x,-y,z
x,-y,1/2-z
-x,y,1/2-z
-x,-y,-z
x,y,-z
-x,y,1/2+z
x,-y,1/2+z
1/2+x,1/2+y,z
1/2-x,1/2-y,z
1/2+x,1/2-y,1/2-z
1/2-x,1/2+y,1/2-z
1/2-x,1/2-y,-z
1/2+x,1/2+y,-z
1/2-x,1/2+y,1/2+z
1/2+x,1/2-y,1/2+z
loop_
_atom_site_type_symbol
_atom_site_label
_atom_site_fract_x
_atom_site_fract_y
_atom_site_fract_z
Si Si1 0.813620 0.054761 0.333336
Si Si2 0.692010 0.325240 0.916045
Si Si3 0.635859 0.851261 0.321970
Si Si4 0.604362 0.734075 0.912262
Si Si5 0.681008 0.909157 0.845261
Si Si6 0.004238 0.629706 0.842977
O O1 0.865157 0.136512 0.361469
O O2 0.749139 0.110921 0.329172
O O3 0.825328 0.000000 0.250000
O O4 0.803834 0.955219 0.395302
O O5 0.750000 0.250000 0.921428
O O6 0.662403 0.266843 0.843417
O O7 0.662596 0.313145 0.000000
O O8 0.643711 0.875598 0.231312
O O9 0.571434 0.842507 0.355597
O O10 0.668694 0.959046 0.358281
O O11 0.652786 0.832949 0.910069
O O12 0.544608 0.789541 0.879366
O O13 0.595081 0.696143 0.000000
O O14 0.000000 0.500000 0.868658
O O15 0.000000 0.631877 0.750000
#
# Coordination Sequence:
#
# PCOD9499423 Si02
#       6
#    16  16  16  16  16  16
#     4  12  24  42  68  96 133 183 231 276 338 416
#     4  11  23  39  61  92 130 170 216 272 330 398
#     4  11  20  40  67  99 123 169 234 282 321 393
#     4  12  27  42  64 104 145 179 217 282 364 421
#     4  11  20  40  68 101 134 170 221 286 345 407
#     4  11  21  43  71  96 131 174 229 282 329 406
#
# _framework density 20.245764999999999
#
# number of rings (size 3 to 8) (size 9 to 14) (size 15 to 20)
#    0.000    0.667    6.667    3.000    0.000    3.667 
#    0.000    0.833    0.000    2.000    0.000    0.000 
#    0.000    0.000    0.000    0.000    0.000    0.000 
#
# Total GULP energy -267651.215538 kJ/mol
# GULP energy per Si atom -5576.066990 kJ/mol
# Density = 2.019968 g / cm^3
# Si number density = 20.245765 Si / 1000 Ang^3
#
#
#
# Elastic Constant Matrix: (Units=GPa)
#
#
# Indices 1 2 3 4 5 6 
#
# 1 134.0337 47.0679 38.1059 0.0000 0.0000 0.0000
# 2 47.0679 92.9114 28.4627 0.0000 0.0000 0.0000
# 3 38.1059 28.4627 79.9992 0.0000 0.0000 0.0000
# 4 0.0000 0.0000 0.0000 46.3418 0.0000 0.0000
# 5 0.0000 0.0000 0.0000 0.0000 9.2623 0.0000
# 6 0.0000 0.0000 0.0000 0.0000 0.0000 27.6135
#
#
#
# Elastic Compliance Matrix: (Units=1/GPa)
#
#
# Indices 1 2 3 4 5 6 
#
# 1 0.009773 -0.003956 -0.003248 0.000000 0.000000 0.000000
# 2 -0.003956 0.013681 -0.002983 0.000000 0.000000 0.000000
# 3 -0.003248 -0.002983 0.015108 0.000000 0.000000 0.000000
# 4 0.000000 0.000000 0.000000 0.021579 0.000000 0.000000
# 5 0.000000 0.000000 0.000000 0.000000 0.107964 0.000000
# 6 0.000000 0.000000 0.000000 0.000000 0.000000 0.036214
#
#
# Mechanical properties :
#
#
# Convention : Reuss Voigt Hill
#
# Bulk Modulus (GPa) = 54.97900 59.35747 57.16824
# Shear Modulus (GPa) = 21.66781 29.53071 25.59926
#
# Velocity S-wave (km/s) = 3.27500 3.82332 3.55973
# Velocity P-wave (km/s) = 6.44326 6.99089 6.72265
#
# Compressibility (1/GPa) = 0.01818876
#
# Stress axis : x y z
#
# Youngs Moduli (GPa) = 102.31819 73.09440 66.18805
#
# Poissons Ratio (x) = 0.28917 0.21497
# Poissons Ratio (y) = 0.40479 0.19744
# Poissons Ratio (z) = 0.33231 0.21804
#
# Static dielectric constant tensor:
#      x y z
#    x 1.549860 0.000000 0.000000 
#    y 0.000000 1.694170 0.000000 
#    z 0.000000 0.000000 1.760490 
# 
# From -- ./inp_files/43549.got.cif
#   From: 2010.05.17/outbox.cif.g08.bks.cpg/sg66_22_cif.got.tgz:43549.got - 2010.06.03 17:51:23.
