data_PCOD9499713
_publ_section_title
;
Structure prediction by ZEFSAII (Michael W. Deem and Ramdas Pophale) SiO2 
 PCOD9499713
Probable space group: C C C M
;
_chemical_formula_sum "Si O2"
_cell_formula_units_Z 56
_cell_length_a 12.693384
_cell_length_b 21.207080
_cell_length_c 9.719321
_cell_angle_alpha 90.000000
_cell_angle_beta 90.000000
_cell_angle_gamma 90.000000
_cell_volume 2616.340229
_symmetry_space_group_name_H-M "C C C M"
_symmetry_group_IT_number 66
_symmetry_cell_setting 'orthorhombic'
loop_
_space_group_symop_operation_xyz
x,y,z
-x,-y,z
x,-y,1/2-z
-x,y,1/2-z
-x,-y,-z
x,y,-z
-x,y,1/2+z
x,-y,1/2+z
1/2+x,1/2+y,z
1/2-x,1/2-y,z
1/2+x,1/2-y,1/2-z
1/2-x,1/2+y,1/2-z
1/2-x,1/2-y,-z
1/2+x,1/2+y,-z
1/2-x,1/2+y,1/2+z
1/2+x,1/2-y,1/2+z
loop_
_atom_site_type_symbol
_atom_site_label
_atom_site_fract_x
_atom_site_fract_y
_atom_site_fract_z
Si Si1 0.868849 0.226258 0.649365
Si Si2 0.599059 0.392092 0.164770
Si Si3 0.500000 0.162533 0.250000
Si Si4 0.166446 0.440850 0.340326
O O1 0.881703 0.193735 0.500000
O O2 0.750000 0.250000 0.660949
O O3 0.890461 0.178896 0.774582
O O4 0.940415 0.288306 0.652086
O O5 0.500000 0.419646 0.250000
O O6 0.712430 0.423333 0.194470
O O7 0.583379 0.393551 0.000000
O O8 0.410906 0.117929 0.314686
O O9 0.132695 0.500000 0.250000
O O10 0.162371 0.458016 0.500000
#
# Coordination Sequence:
#
# PCOD9499713 Si02
#       4
#    16  16   8  16
#     4  11  23  39  64 100 137 177 219 269 336 409
#     4  11  24  43  67  99 135 176 228 283 345 404
#     4  12  23  42  70 106 139 174 222 276 342 402
#     4  11  27  47  68  97 136 183 231 283 337 402
#
# _framework density 21.403945
#
# number of rings (size 3 to 8) (size 9 to 14) (size 15 to 20)
#    0.000    0.857    4.286    2.143    0.000    8.000 
#    0.000    2.857    0.000    0.000    0.000    0.000 
#    0.000    0.000    0.000    0.000    0.000    0.000 
#
# Total GULP energy -156454.412409 kJ/mol
# GULP energy per Si atom -5587.657586 kJ/mol
# Density = 2.135523 g / cm^3
# Si number density = 21.403945 Si / 1000 Ang^3
#
#
#
# Elastic Constant Matrix: (Units=GPa)
#
#
# Indices 1 2 3 4 5 6 
#
# 1 139.4786 19.8525 40.2160 0.0000 0.0000 0.0000
# 2 19.8525 84.7317 35.4950 0.0000 0.0000 0.0000
# 3 40.2160 35.4950 109.5006 0.0000 0.0000 0.0000
# 4 0.0000 0.0000 0.0000 18.9461 0.0000 0.0000
# 5 0.0000 0.0000 0.0000 0.0000 33.6847 0.0000
# 6 0.0000 0.0000 0.0000 0.0000 0.0000 10.5764
#
#
#
# Elastic Compliance Matrix: (Units=1/GPa)
#
#
# Indices 1 2 3 4 5 6 
#
# 1 0.008060 -0.000750 -0.002717 0.000000 0.000000 0.000000
# 2 -0.000750 0.013726 -0.004174 0.000000 0.000000 0.000000
# 3 -0.002717 -0.004174 0.011483 0.000000 0.000000 0.000000
# 4 0.000000 0.000000 0.000000 0.052781 0.000000 0.000000
# 5 0.000000 0.000000 0.000000 0.000000 0.029687 0.000000
# 6 0.000000 0.000000 0.000000 0.000000 0.000000 0.094550
#
#
# Mechanical properties :
#
#
# Convention : Reuss Voigt Hill
#
# Bulk Modulus (GPa) = 55.59532 58.31531 56.95532
# Shear Modulus (GPa) = 21.59218 28.51792 25.05505
#
# Velocity S-wave (km/s) = 3.17960 3.65412 3.42509
# Velocity P-wave (km/s) = 6.28574 6.71623 6.50455
#
# Compressibility (1/GPa) = 0.01798712
#
# Stress axis : x y z
#
# Youngs Moduli (GPa) = 124.07399 72.85330 87.08402
#
# Poissons Ratio (x) = 0.05466 0.23660
# Poissons Ratio (y) = 0.09309 0.36348
# Poissons Ratio (z) = 0.33709 0.30408
#
# Static dielectric constant tensor:
#      x y z
#    x 1.817720 0.000000 0.000000 
#    y 0.000000 1.735100 0.000000 
#    z 0.000000 0.000000 1.754770 
# 
# From -- ./inp_files/4849.got.cif
#   From: 2010.05.17/outbox.cif.g08.bks.cpg/sg66_3_cif.got.tgz:4849.got - 2010.06.03 17:51:23.
