data_PCOD9499253
_publ_section_title
;
Structure prediction by ZEFSAII (Michael W. Deem and Ramdas Pophale) SiO2 
 PCOD9499253
Probable space group: C C C M
;
_chemical_formula_sum "Si O2"
_cell_formula_units_Z 56
_cell_length_a 5.377156
_cell_length_b 18.638303
_cell_length_c 27.683089
_cell_angle_alpha 90.000000
_cell_angle_beta 90.000000
_cell_angle_gamma 90.000000
_cell_volume 2774.428601
_symmetry_space_group_name_H-M "C C C M"
_symmetry_group_IT_number 66
_symmetry_cell_setting 'orthorhombic'
loop_
_space_group_symop_operation_xyz
x,y,z
-x,-y,z
x,-y,1/2-z
-x,y,1/2-z
-x,-y,-z
x,y,-z
-x,y,1/2+z
x,-y,1/2+z
1/2+x,1/2+y,z
1/2-x,1/2-y,z
1/2+x,1/2-y,1/2-z
1/2-x,1/2+y,1/2-z
1/2-x,1/2-y,-z
1/2+x,1/2+y,-z
1/2-x,1/2+y,1/2+z
1/2+x,1/2-y,1/2+z
loop_
_atom_site_type_symbol
_atom_site_label
_atom_site_fract_x
_atom_site_fract_y
_atom_site_fract_z
Si Si1 0.000226 0.701657 0.053222
Si Si2 0.598426 0.174349 0.656891
Si Si3 0.747614 0.529804 0.194678
Si Si4 0.250000 0.250000 0.280472
O O1 0.750000 0.750000 0.050979
O O2 0.958384 0.655291 0.101419
O O3 0.250000 0.750000 0.060543
O O4 0.026167 0.667171 0.000000
O O5 0.750000 0.250000 0.656322
O O6 0.740193 0.114711 0.687745
O O7 0.338422 0.186528 0.684552
O O8 0.500000 0.500000 0.171237
O O9 0.747663 0.500000 0.250000
O O10 0.000000 0.500000 0.172255
O O11 0.500000 0.264049 0.250000
#
# Coordination Sequence:
#
# PCOD9499253 Si02
#       4
#    16  16  16   8
#     4   9  18  34  59  94 125 151 199 271 331 370
#     4  11  24  41  67  92 124 166 221 262 318 379
#     4  10  25  41  58  82 124 168 209 255 310 374
#     4  12  26  34  55  94 127 156 212 272 306 370
#
# _framework density 20.184336999999999
#
# number of rings (size 3 to 8) (size 9 to 14) (size 15 to 20)
#    0.000    1.714    2.857    0.000    8.000    2.286 
#    0.000    0.000    0.000    1.714    0.000    0.000 
#    0.000    0.000    0.000    0.000    0.000    0.000 
#
# Total GULP energy -155978.848945 kJ/mol
# GULP energy per Si atom -5570.673177 kJ/mol
# Density = 2.013840 g / cm^3
# Si number density = 20.184337 Si / 1000 Ang^3
#
#
#
# Elastic Constant Matrix: (Units=GPa)
#
#
# Indices 1 2 3 4 5 6 
#
# 1 163.3819 32.0409 18.3195 0.0000 0.0000 0.0000
# 2 32.0409 95.2697 31.5059 0.0000 0.0000 0.0000
# 3 18.3195 31.5059 160.4416 0.0000 0.0000 0.0000
# 4 0.0000 0.0000 0.0000 21.1589 0.0000 0.0000
# 5 0.0000 0.0000 0.0000 0.0000 4.3688 0.0000
# 6 0.0000 0.0000 0.0000 0.0000 0.0000 32.5160
#
#
#
# Elastic Compliance Matrix: (Units=1/GPa)
#
#
# Indices 1 2 3 4 5 6 
#
# 1 0.006570 -0.002098 -0.000338 0.000000 0.000000 0.000000
# 2 -0.002098 0.011895 -0.002096 0.000000 0.000000 0.000000
# 3 -0.000338 -0.002096 0.006683 0.000000 0.000000 0.000000
# 4 0.000000 0.000000 0.000000 0.047261 0.000000 0.000000
# 5 0.000000 0.000000 0.000000 0.000000 0.228894 0.000000
# 6 0.000000 0.000000 0.000000 0.000000 0.000000 0.030754
#
#
# Mechanical properties :
#
#
# Convention : Reuss Voigt Hill
#
# Bulk Modulus (GPa) = 62.17489 64.75844 63.46666
# Shear Modulus (GPa) = 14.43070 34.09054 24.26062
#
# Velocity S-wave (km/s) = 2.67675 4.11415 3.47068
# Velocity P-wave (km/s) = 6.35796 7.39740 6.89729
#
# Compressibility (1/GPa) = 0.01608366
#
# Stress axis : x y z
#
# Youngs Moduli (GPa) = 152.20839 84.06684 149.63162
#
# Poissons Ratio (x) = 0.17635 0.05061
# Poissons Ratio (y) = 0.31929 0.31368
# Poissons Ratio (z) = 0.05148 0.17623
#
# Static dielectric constant tensor:
#      x y z
#    x 1.715680 0.000000 0.000000 
#    y 0.000000 1.843290 0.000000 
#    z 0.000000 0.000000 1.780740 
# 
# From -- ./inp_files/61075.got.cif
#   From: 2010.05.17/outbox.cif.g08.bks.cpg/sg66_31_cif.got.tgz:61075.got - 2010.06.03 17:51:23.
