data_PCOD9499227
_publ_section_title
;
Structure prediction by ZEFSAII (Michael W. Deem and Ramdas Pophale) SiO2 
 PCOD9499227
Probable space group: C C C M
;
_chemical_formula_sum "Si O2"
_cell_formula_units_Z 52
_cell_length_a 9.736351
_cell_length_b 15.723670
_cell_length_c 14.950714
_cell_angle_alpha 90.000000
_cell_angle_beta 90.000000
_cell_angle_gamma 90.000000
_cell_volume 2288.822301
_symmetry_space_group_name_H-M "C C C M"
_symmetry_group_IT_number 66
_symmetry_cell_setting 'orthorhombic'
loop_
_space_group_symop_operation_xyz
x,y,z
-x,-y,z
x,-y,1/2-z
-x,y,1/2-z
-x,-y,-z
x,y,-z
-x,y,1/2+z
x,-y,1/2+z
1/2+x,1/2+y,z
1/2-x,1/2-y,z
1/2+x,1/2-y,1/2-z
1/2-x,1/2+y,1/2-z
1/2-x,1/2-y,-z
1/2+x,1/2+y,-z
1/2-x,1/2+y,1/2+z
1/2+x,1/2-y,1/2+z
loop_
_atom_site_type_symbol
_atom_site_label
_atom_site_fract_x
_atom_site_fract_y
_atom_site_fract_z
Si Si1 0.000000 0.000000 0.750000
Si Si2 0.728095 0.103368 0.000000
Si Si3 0.472806 0.265867 0.500000
Si Si4 0.612508 0.790440 0.827080
Si Si5 0.731640 0.967214 0.157060
O O1 0.891760 0.048710 0.686087
O O2 0.721137 0.041364 0.085088
O O3 0.869904 0.155180 0.000000
O O4 0.386088 0.822663 0.000000
O O5 0.560687 0.264983 0.590043
O O6 0.500000 0.797949 0.750000
O O7 0.750000 0.750000 0.786075
O O8 0.655289 0.881478 0.867405
O O9 0.668759 0.000000 0.250000
#
# Coordination Sequence:
#
# PCOD9499227 Si02
#       5
#     4   8   8  16  16
#     4   8  24  42  70 108 146 180 264 290 380 432
#     4  11  25  47  79 101 158 189 253 314 372 444
#     4  11  28  46  73 117 144 203 246 314 385 438
#     4  12  29  47  78 109 157 196 253 313 378 447
#     4  10  24  45  73 107 142 202 247 303 367 451
#
# _framework density 22.719107999999999
#
# number of rings (size 3 to 8) (size 9 to 14) (size 15 to 20)
#    0.923    0.308    0.000    3.231   15.077    6.154 
#    0.000    0.000    0.000    0.000    0.000    0.000 
#    0.000    0.000    0.000    0.000    0.000    0.000 
#
# Total GULP energy -145403.701378 kJ/mol
# GULP energy per Si atom -5592.450053 kJ/mol
# Density = 2.266740 g / cm^3
# Si number density = 22.719108 Si / 1000 Ang^3
#
#
#
# Elastic Constant Matrix: (Units=GPa)
#
#
# Indices 1 2 3 4 5 6 
#
# 1 128.8591 48.6934 45.1399 0.0000 0.0000 0.0000
# 2 48.6934 134.0363 59.3690 0.0000 0.0000 0.0000
# 3 45.1399 59.3690 133.8879 0.0000 0.0000 0.0000
# 4 0.0000 0.0000 0.0000 89.7513 0.0000 0.0000
# 5 0.0000 0.0000 0.0000 0.0000 47.3864 0.0000
# 6 0.0000 0.0000 0.0000 0.0000 0.0000 25.8339
#
#
#
# Elastic Compliance Matrix: (Units=1/GPa)
#
#
# Indices 1 2 3 4 5 6 
#
# 1 0.009434 -0.002512 -0.002067 0.000000 0.000000 0.000000
# 2 -0.002512 0.009953 -0.003567 0.000000 0.000000 0.000000
# 3 -0.002067 -0.003567 0.009747 0.000000 0.000000 0.000000
# 4 0.000000 0.000000 0.000000 0.011142 0.000000 0.000000
# 5 0.000000 0.000000 0.000000 0.000000 0.021103 0.000000
# 6 0.000000 0.000000 0.000000 0.000000 0.000000 0.038709
#
#
# Mechanical properties :
#
#
# Convention : Reuss Voigt Hill
#
# Bulk Modulus (GPa) = 77.85901 78.13197 77.99549
# Shear Modulus (GPa) = 41.43928 48.83305 45.13617
#
# Velocity S-wave (km/s) = 4.27545 4.64122 4.46208
# Velocity P-wave (km/s) = 7.66272 7.94898 7.80716
#
# Compressibility (1/GPa) = 0.01284373
#
# Stress axis : x y z
#
# Youngs Moduli (GPa) = 106.00513 100.47397 102.59335
#
# Poissons Ratio (x) = 0.25235 0.21204
# Poissons Ratio (y) = 0.26624 0.36590
# Poissons Ratio (z) = 0.21909 0.35834
#
# Static dielectric constant tensor:
#      x y z
#    x 1.861070 0.000000 0.000000 
#    y 0.000000 1.838610 0.000000 
#    z 0.000000 0.000000 1.768810 
# 
# From -- ./inp_files/25572.got.cif
#   From: 2010.05.17/outbox.cif.g08.bks.cpg/sg66_13_cif.got.tgz:25572.got - 2010.06.03 17:51:23.
