data_PCOD9499079
_publ_section_title
;
Structure prediction by ZEFSAII (Michael W. Deem and Ramdas Pophale) SiO2 
 PCOD9499079
Probable space group: C C C M
;
_chemical_formula_sum "Si O2"
_cell_formula_units_Z 52
_cell_length_a 7.740115
_cell_length_b 19.294860
_cell_length_c 14.640350
_cell_angle_alpha 90.000000
_cell_angle_beta 90.000000
_cell_angle_gamma 90.000000
_cell_volume 2186.454803
_symmetry_space_group_name_H-M "C C C M"
_symmetry_group_IT_number 66
_symmetry_cell_setting 'orthorhombic'
loop_
_space_group_symop_operation_xyz
x,y,z
-x,-y,z
x,-y,1/2-z
-x,y,1/2-z
-x,-y,-z
x,y,-z
-x,y,1/2+z
x,-y,1/2+z
1/2+x,1/2+y,z
1/2-x,1/2-y,z
1/2+x,1/2-y,1/2-z
1/2-x,1/2+y,1/2-z
1/2-x,1/2-y,-z
1/2+x,1/2+y,-z
1/2-x,1/2+y,1/2+z
1/2+x,1/2-y,1/2+z
loop_
_atom_site_type_symbol
_atom_site_label
_atom_site_fract_x
_atom_site_fract_y
_atom_site_fract_z
Si Si1 0.500000 0.500000 0.750000
Si Si2 0.842486 0.897652 0.605059
Si Si3 0.976196 0.578744 0.857885
Si Si4 0.831972 0.181121 0.391810
O O1 0.379727 0.456608 0.680597
O O2 0.886083 0.918579 0.500000
O O3 0.641390 0.879041 0.605958
O O4 0.974479 0.838070 0.635760
O O5 0.000000 0.500000 0.893120
O O6 0.000000 0.576762 0.750000
O O7 0.796055 0.615871 0.878475
O O8 0.844168 0.192239 0.500000
O O9 0.750000 0.250000 0.349122
#
# Coordination Sequence:
#
# PCOD9499079 Si02
#       4
#     4  16  16  16
#     4  12  22  40  66  98 144 162 216 288 330 390
#     4  11  23  40  67  97 132 181 223 270 341 403
#     4  11  23  41  65  96 132 172 223 277 332 398
#     4  10  23  43  63  91 130 169 220 279 332 400
#
# _framework density 23.782792000000001
#
# number of rings (size 3 to 8) (size 9 to 14) (size 15 to 20)
#    0.000    1.231    0.000    6.923    0.000    6.154 
#    8.308    4.615    0.000    0.000    0.000    0.000 
#    0.000    0.000    0.000    0.000    0.000    0.000 
#
# Total GULP energy -145370.869068 kJ/mol
# GULP energy per Si atom -5591.187272 kJ/mol
# Density = 2.372866 g / cm^3
# Si number density = 23.782792 Si / 1000 Ang^3
#
#
#
# Elastic Constant Matrix: (Units=GPa)
#
#
# Indices 1 2 3 4 5 6 
#
# 1 140.1420 29.6005 -14.1751 0.0000 0.0000 0.0000
# 2 29.6005 83.3957 -6.4352 0.0000 0.0000 0.0000
# 3 -14.1751 -6.4352 107.7785 0.0000 0.0000 0.0000
# 4 0.0000 0.0000 0.0000 27.1638 0.0000 0.0000
# 5 0.0000 0.0000 0.0000 0.0000 29.4660 0.0000
# 6 0.0000 0.0000 0.0000 0.0000 0.0000 19.3327
#
#
#
# Elastic Compliance Matrix: (Units=1/GPa)
#
#
# Indices 1 2 3 4 5 6 
#
# 1 0.007793 -0.002699 0.000864 0.000000 0.000000 0.000000
# 2 -0.002699 0.012982 0.000420 0.000000 0.000000 0.000000
# 3 0.000864 0.000420 0.009417 0.000000 0.000000 0.000000
# 4 0.000000 0.000000 0.000000 0.036814 0.000000 0.000000
# 5 0.000000 0.000000 0.000000 0.000000 0.033937 0.000000
# 6 0.000000 0.000000 0.000000 0.000000 0.000000 0.051726
#
#
# Mechanical properties :
#
#
# Convention : Reuss Voigt Hill
#
# Bulk Modulus (GPa) = 36.54900 38.81072 37.67986
# Shear Modulus (GPa) = 30.37298 36.68091 33.52694
#
# Velocity S-wave (km/s) = 3.57753 3.93151 3.75869
# Velocity P-wave (km/s) = 5.69791 6.07974 5.89192
#
# Compressibility (1/GPa) = 0.02736053
#
# Stress axis : x y z
#
# Youngs Moduli (GPa) = 128.31760 77.03213 106.19116
#
# Poissons Ratio (x) = 0.20795 -0.09173
# Poissons Ratio (y) = 0.34639 -0.04461
# Poissons Ratio (z) = -0.11084 -0.03236
#
# Static dielectric constant tensor:
#      x y z
#    x 1.950160 0.000000 0.000000 
#    y 0.000000 1.967990 0.000000 
#    z 0.000000 0.000000 1.905490 
# 
# From -- ./inp_files/35981.got.cif
#   From: 2010.05.17/outbox.cif.g08.bks.cpg/sg66_18_cif.got.tgz:35981.got - 2010.06.03 17:51:23.
