data_PCOD9499040
_publ_section_title
;
Structure prediction by ZEFSAII (Michael W. Deem and Ramdas Pophale) SiO2 
 PCOD9499040
Probable space group: C C C M
;
_chemical_formula_sum "Si O2"
_cell_formula_units_Z 52
_cell_length_a 29.783797
_cell_length_b 4.972698
_cell_length_c 14.493861
_cell_angle_alpha 90.000000
_cell_angle_beta 90.000000
_cell_angle_gamma 90.000000
_cell_volume 2146.625281
_symmetry_space_group_name_H-M "C C C M"
_symmetry_group_IT_number 66
_symmetry_cell_setting 'orthorhombic'
loop_
_space_group_symop_operation_xyz
x,y,z
-x,-y,z
x,-y,1/2-z
-x,y,1/2-z
-x,-y,-z
x,y,-z
-x,y,1/2+z
x,-y,1/2+z
1/2+x,1/2+y,z
1/2-x,1/2-y,z
1/2+x,1/2-y,1/2-z
1/2-x,1/2+y,1/2-z
1/2-x,1/2-y,-z
1/2+x,1/2+y,-z
1/2-x,1/2+y,1/2+z
1/2+x,1/2-y,1/2+z
loop_
_atom_site_type_symbol
_atom_site_label
_atom_site_fract_x
_atom_site_fract_y
_atom_site_fract_z
Si Si1 0.250000 0.750000 0.000000
Si Si2 0.959090 0.678765 0.891139
Si Si3 0.826444 0.000000 0.750000
Si Si4 0.098679 0.827816 0.890854
Si Si5 0.750000 0.750000 0.858316
O O1 0.247031 0.514400 0.920466
O O2 0.917071 0.478313 0.881518
O O3 0.000000 0.500000 0.852760
O O4 0.942074 0.971098 0.860780
O O5 0.969749 0.715282 0.000000
O O6 0.858602 0.113579 0.829656
O O7 0.793984 0.216299 0.703886
O O8 0.107106 0.879312 0.000000
#
# Coordination Sequence:
#
# PCOD9499040 Si02
#       5
#     4  16   8  16   8
#     4  10  26  50  78 106 134 190 252 298 370 462
#     4   9  18  38  66  97 140 192 239 285 358 440
#     4  12  28  50  73 110 144 190 245 316 368 462
#     4  10  23  41  66 104 141 187 237 303 364 428
#     4  11  27  50  76 108 144 196 246 304 386 448
#
# _framework density 24.224070000000001
#
# number of rings (size 3 to 8) (size 9 to 14) (size 15 to 20)
#    0.000    1.846    0.000    1.846    4.308   12.308 
#    5.538    4.615    0.000    0.000    0.000    0.000 
#    0.000    0.000    0.000    0.000    0.000    0.000 
#
# Total GULP energy -145043.838576 kJ/mol
# GULP energy per Si atom -5578.609176 kJ/mol
# Density = 2.416894 g / cm^3
# Si number density = 24.224070 Si / 1000 Ang^3
#
#
#
# Elastic Constant Matrix: (Units=GPa)
#
#
# Indices 1 2 3 4 5 6 
#
# 1 79.9435 1.8702 36.8714 0.0000 0.0000 0.0000
# 2 1.8702 177.8135 32.6391 0.0000 0.0000 0.0000
# 3 36.8714 32.6391 112.8593 0.0000 0.0000 0.0000
# 4 0.0000 0.0000 0.0000 0.4269 0.0000 0.0000
# 5 0.0000 0.0000 0.0000 0.0000 -39.1255 0.0000
# 6 0.0000 0.0000 0.0000 0.0000 0.0000 16.3957
#
#
#
# Elastic Compliance Matrix: (Units=1/GPa)
#
#
# Indices 1 2 3 4 5 6 
#
# 1 0.014828 0.000774 -0.005068 0.000000 0.000000 0.000000
# 2 0.000774 0.005980 -0.001982 0.000000 0.000000 0.000000
# 3 -0.005068 -0.001982 0.011090 0.000000 0.000000 0.000000
# 4 0.000000 0.000000 0.000000 2.342333 0.000000 0.000000
# 5 0.000000 0.000000 0.000000 0.000000 -0.025559 0.000000
# 6 0.000000 0.000000 0.000000 0.000000 0.000000 0.060992
#
#
# Mechanical properties :
#
#
# Convention : Reuss Voigt Hill
#
# Bulk Modulus (GPa) = 51.69286 57.04196 54.36741
# Shear Modulus (GPa) = 2.05874 15.48847 8.77361
#
# Velocity S-wave (km/s) = 0.92289 2.53135 1.90518
# Velocity P-wave (km/s) = 4.74567 5.66942 5.22799
#
# Compressibility (1/GPa) = 0.01934503
#
# Stress axis : x y z
#
# Youngs Moduli (GPa) = 67.43838 167.23547 90.17348
#
# Poissons Ratio (x) = -0.12950 0.45704
# Poissons Ratio (y) = -0.05222 0.17875
# Poissons Ratio (z) = 0.34181 0.33151
#
# Static dielectric constant tensor:
#      x y z
#    x 0.802610 0.000000 0.000000 
#    y 0.000000 1.857230 0.000000 
#    z 0.000000 0.000000 1.928810 
# 
# From -- ./inp_files/44440.got.cif
#   From: 2010.05.17/outbox.cif.g08.bks.cpg/sg66_23_cif.got.tgz:44440.got - 2010.06.03 17:51:23.
