data_PCOD9499020
_publ_section_title
;
Structure prediction by ZEFSAII (Michael W. Deem and Ramdas Pophale) SiO2 
 PCOD9499020
Probable space group: C C C M
;
_chemical_formula_sum "Si O2"
_cell_formula_units_Z 88
_cell_length_a 21.022800
_cell_length_b 11.934267
_cell_length_c 18.106737
_cell_angle_alpha 90.000000
_cell_angle_beta 90.000000
_cell_angle_gamma 90.000000
_cell_volume 4542.830177
_symmetry_space_group_name_H-M "C C C M"
_symmetry_group_IT_number 66
_symmetry_cell_setting 'orthorhombic'
loop_
_space_group_symop_operation_xyz
x,y,z
-x,-y,z
x,-y,1/2-z
-x,y,1/2-z
-x,-y,-z
x,y,-z
-x,y,1/2+z
x,-y,1/2+z
1/2+x,1/2+y,z
1/2-x,1/2-y,z
1/2+x,1/2-y,1/2-z
1/2-x,1/2+y,1/2-z
1/2-x,1/2-y,-z
1/2+x,1/2+y,-z
1/2-x,1/2+y,1/2+z
1/2+x,1/2-y,1/2+z
loop_
_atom_site_type_symbol
_atom_site_label
_atom_site_fract_x
_atom_site_fract_y
_atom_site_fract_z
Si Si1 0.684182 0.293171 0.681659
Si Si2 0.387291 0.676153 0.825849
Si Si3 0.673103 0.116760 0.912421
Si Si4 0.387978 0.932936 0.323697
Si Si5 0.189434 0.990654 0.087692
Si Si6 0.500000 0.801752 0.250000
O O1 0.750000 0.250000 0.714318
O O2 0.643726 0.347588 0.746625
O O3 0.650374 0.179118 0.657363
O O4 0.694681 0.384061 0.618746
O O5 0.348797 0.776333 0.865878
O O6 0.371846 0.570045 0.876567
O O7 0.456401 0.725161 0.803834
O O8 0.744412 0.074106 0.893067
O O9 0.623130 0.019866 0.889259
O O10 0.671719 0.140017 0.000000
O O11 0.455660 0.882850 0.299078
O O12 0.364087 0.000000 0.250000
O O13 0.184232 0.989706 0.000000
#
# Coordination Sequence:
#
# PCOD9499020 Si02
#       6
#    16  16  16  16  16   8
#     4  11  21  35  64  93 121 164 216 263 322 384
#     4  11  23  39  63  91 124 170 224 266 317 379
#     4  11  22  37  63  97 132 166 205 267 340 391
#     4  11  21  39  63  91 127 160 213 274 323 371
#     4  11  24  40  60  94 140 171 205 265 330 397
#     4  10  23  40  67  90 126 173 221 276 310 364
#
# _framework density 19.371182999999998
#
# number of rings (size 3 to 8) (size 9 to 14) (size 15 to 20)
#    0.000    1.091    5.455    3.000    0.000    2.545 
#    0.000   10.000    0.000    6.545    0.000    0.000 
#    0.000    0.000    0.000    0.000    0.000    0.000 
#
# Total GULP energy -245475.710253 kJ/mol
# GULP energy per Si atom -5578.993415 kJ/mol
# Density = 1.932709 g / cm^3
# Si number density = 19.371183 Si / 1000 Ang^3
#
#
#
# Elastic Constant Matrix: (Units=GPa)
#
#
# Indices 1 2 3 4 5 6 
#
# 1 75.9330 35.0994 15.3130 0.0000 0.0000 0.0000
# 2 35.0994 86.8599 30.6993 0.0000 0.0000 0.0000
# 3 15.3130 30.6993 56.8223 0.0000 0.0000 0.0000
# 4 0.0000 0.0000 0.0000 18.9755 0.0000 0.0000
# 5 0.0000 0.0000 0.0000 0.0000 14.7286 0.0000
# 6 0.0000 0.0000 0.0000 0.0000 0.0000 16.7635
#
#
#
# Elastic Compliance Matrix: (Units=1/GPa)
#
#
# Indices 1 2 3 4 5 6 
#
# 1 0.016243 -0.006200 -0.001027 0.000000 0.000000 0.000000
# 2 -0.006200 0.016597 -0.007296 0.000000 0.000000 0.000000
# 3 -0.001027 -0.007296 0.021817 0.000000 0.000000 0.000000
# 4 0.000000 0.000000 0.000000 0.052700 0.000000 0.000000
# 5 0.000000 0.000000 0.000000 0.000000 0.067895 0.000000
# 6 0.000000 0.000000 0.000000 0.000000 0.000000 0.059653
#
#
# Mechanical properties :
#
#
# Convention : Reuss Voigt Hill
#
# Bulk Modulus (GPa) = 39.04767 42.42650 40.73708
# Shear Modulus (GPa) = 18.34936 19.32709 18.83822
#
# Velocity S-wave (km/s) = 3.08108 3.16210 3.12186
# Velocity P-wave (km/s) = 5.73226 5.93980 5.83695
#
# Compressibility (1/GPa) = 0.02560972
#
# Stress axis : x y z
#
# Youngs Moduli (GPa) = 61.56577 60.25197 45.83523
#
# Poissons Ratio (x) = 0.37359 0.04709
# Poissons Ratio (y) = 0.38174 0.33441
# Poissons Ratio (z) = 0.06325 0.43959
#
# Static dielectric constant tensor:
#      x y z
#    x 1.726810 0.000000 0.000000 
#    y 0.000000 1.710020 0.000000 
#    z 0.000000 0.000000 1.648830 
# 
# From -- ./inp_files/42796.got.cif
#   From: 2010.05.17/outbox.cif.g08.bks.cpg/sg66_22_cif.got.tgz:42796.got - 2010.06.03 17:51:23.
