data_PCOD9499741
_publ_section_title
;
Structure prediction by ZEFSAII (Michael W. Deem and Ramdas Pophale) SiO2 
 PCOD9499741
Probable space group: C C C M
;
_chemical_formula_sum "Si O2"
_cell_formula_units_Z 92
_cell_length_a 14.305506
_cell_length_b 15.831436
_cell_length_c 20.812620
_cell_angle_alpha 90.000000
_cell_angle_beta 90.000000
_cell_angle_gamma 90.000000
_cell_volume 4713.573552
_symmetry_space_group_name_H-M "C C C M"
_symmetry_group_IT_number 66
_symmetry_cell_setting 'orthorhombic'
loop_
_space_group_symop_operation_xyz
x,y,z
-x,-y,z
x,-y,1/2-z
-x,y,1/2-z
-x,-y,-z
x,y,-z
-x,y,1/2+z
x,-y,1/2+z
1/2+x,1/2+y,z
1/2-x,1/2-y,z
1/2+x,1/2-y,1/2-z
1/2-x,1/2+y,1/2-z
1/2-x,1/2-y,-z
1/2+x,1/2+y,-z
1/2-x,1/2+y,1/2+z
1/2+x,1/2-y,1/2+z
loop_
_atom_site_type_symbol
_atom_site_label
_atom_site_fract_x
_atom_site_fract_y
_atom_site_fract_z
Si Si1 0.250000 0.250000 0.301875
Si Si2 0.458039 0.252032 0.322401
Si Si3 0.000000 0.500000 0.750000
Si Si4 0.098497 0.611481 0.360364
Si Si5 0.363531 0.332306 0.000000
Si Si6 0.458221 0.410430 0.875310
Si Si7 0.145720 0.371617 0.000000
Si Si8 0.718187 0.588715 0.785487
O O1 0.350638 0.222331 0.331489
O O2 0.282092 0.332034 0.262180
O O3 0.500000 0.248655 0.250000
O O4 0.532830 0.193692 0.359194
O O5 0.464992 0.346883 0.347582
O O6 0.057692 0.555910 0.698842
O O7 0.104882 0.586298 0.435153
O O8 0.205621 0.618279 0.338151
O O9 0.412728 0.367231 0.936758
O O10 0.258453 0.369718 0.000000
O O11 0.370932 0.230287 0.000000
O O12 0.500000 0.500000 0.892635
O O13 0.380182 0.421556 0.820532
O O14 0.741352 0.500000 0.750000
#
# Coordination Sequence:
#
# PCOD9499741 Si02
#       8
#     8  16   4  16   8  16   8  16
#     4  12  24  40  62  94 142 172 226 292 340 412
#     4  12  23  40  65  96 132 178 220 282 345 399
#     4  12  24  42  72  92 132 174 216 268 356 402
#     4  12  23  43  67 101 130 172 222 285 340 403
#     4  11  23  42  68  96 128 186 221 280 336 406
#     4  12  25  41  64  97 140 178 229 275 346 412
#     4  11  24  41  72  98 133 170 234 282 341 402
#     4  12  23  38  66 100 134 177 226 285 341 410
#
# _framework density 19.5181
#
# number of rings (size 3 to 8) (size 9 to 14) (size 15 to 20)
#    0.000    0.174    8.696    1.304    0.000    0.348 
#    0.000    0.000    0.000    2.087    0.000    0.000 
#    0.000    0.000    0.000    0.000    0.000    0.000 
#
# Total GULP energy -256525.733677 kJ/mol
# GULP energy per Si atom -5576.646384 kJ/mol
# Density = 1.947368 g / cm^3
# Si number density = 19.518100 Si / 1000 Ang^3
#
#
#
# Elastic Constant Matrix: (Units=GPa)
#
#
# Indices 1 2 3 4 5 6 
#
# 1 91.3987 20.5751 36.5542 0.0000 0.0000 0.0000
# 2 20.5751 66.1597 16.7804 0.0000 0.0000 0.0000
# 3 36.5542 16.7804 112.1739 0.0000 0.0000 0.0000
# 4 0.0000 0.0000 0.0000 22.7702 0.0000 0.0000
# 5 0.0000 0.0000 0.0000 0.0000 27.9737 0.0000
# 6 0.0000 0.0000 0.0000 0.0000 0.0000 22.9185
#
#
#
# Elastic Compliance Matrix: (Units=1/GPa)
#
#
# Indices 1 2 3 4 5 6 
#
# 1 0.013175 -0.003127 -0.003826 0.000000 0.000000 0.000000
# 2 -0.003127 0.016453 -0.001442 0.000000 0.000000 0.000000
# 3 -0.003826 -0.001442 0.010377 0.000000 0.000000 0.000000
# 4 0.000000 0.000000 0.000000 0.043917 0.000000 0.000000
# 5 0.000000 0.000000 0.000000 0.000000 0.035748 0.000000
# 6 0.000000 0.000000 0.000000 0.000000 0.000000 0.043633
#
#
# Mechanical properties :
#
#
# Convention : Reuss Voigt Hill
#
# Bulk Modulus (GPa) = 43.07444 46.39464 44.73454
# Shear Modulus (GPa) = 26.61961 27.78732 27.20347
#
# Velocity S-wave (km/s) = 3.69703 3.77725 3.73735
# Velocity P-wave (km/s) = 6.35145 6.54562 6.44927
#
# Compressibility (1/GPa) = 0.02321562
#
# Stress axis : x y z
#
# Youngs Moduli (GPa) = 75.90121 60.77836 96.36580
#
# Poissons Ratio (x) = 0.19006 0.36865
# Poissons Ratio (y) = 0.23734 0.13899
# Poissons Ratio (z) = 0.29037 0.08766
#
# Static dielectric constant tensor:
#      x y z
#    x 1.890060 0.000000 0.000000 
#    y 0.000000 1.691620 0.000000 
#    z 0.000000 0.000000 1.689790 
# 
# From -- ./inp_files/49954.got.cif
#   From: 2010.05.17/outbox.cif.g08.bks.cpg/sg66_25_cif.got.tgz:49954.got - 2010.06.03 17:51:23.
