data_PCOD9499269
_publ_section_title
;
Structure prediction by ZEFSAII (Michael W. Deem and Ramdas Pophale) SiO2 
 PCOD9499269
Probable space group: C C C M
;
_chemical_formula_sum "Si O2"
_cell_formula_units_Z 36
_cell_length_a 8.723269
_cell_length_b 6.764158
_cell_length_c 27.205149
_cell_angle_alpha 90.000000
_cell_angle_beta 90.000000
_cell_angle_gamma 90.000000
_cell_volume 1605.255318
_symmetry_space_group_name_H-M "C C C M"
_symmetry_group_IT_number 66
_symmetry_cell_setting 'orthorhombic'
loop_
_space_group_symop_operation_xyz
x,y,z
-x,-y,z
x,-y,1/2-z
-x,y,1/2-z
-x,-y,-z
x,y,-z
-x,y,1/2+z
x,-y,1/2+z
1/2+x,1/2+y,z
1/2-x,1/2-y,z
1/2+x,1/2-y,1/2-z
1/2-x,1/2+y,1/2-z
1/2-x,1/2-y,-z
1/2+x,1/2+y,-z
1/2-x,1/2+y,1/2+z
1/2+x,1/2-y,1/2+z
loop_
_atom_site_type_symbol
_atom_site_label
_atom_site_fract_x
_atom_site_fract_y
_atom_site_fract_z
Si Si1 0.179737 0.972320 0.000000
Si Si2 0.177067 0.468332 0.399574
Si Si3 0.500000 0.500000 0.250000
Si Si4 0.250000 0.750000 0.311006
O O1 0.250000 0.750000 0.000000
O O2 0.233686 0.048189 0.947150
O O3 0.000000 0.000000 0.000000
O O4 0.250000 0.250000 0.391965
O O5 0.193424 0.581895 0.348457
O O6 0.000000 0.500000 0.413419
O O7 0.386200 0.646357 0.280237
#
# Coordination Sequence:
#
# PCOD9499269 Si02
#       4
#     8  16   4   8
#     4  10  25  45  75 115 162 198 248 303 375 457
#     4  11  26  48  78 113 154 202 250 310 378 461
#     4  12  32  52  80 110 150 198 260 334 380 448
#     4  12  30  51  80 108 150 199 260 320 390 446
#
# _framework density 22.426342000000002
#
# number of rings (size 3 to 8) (size 9 to 14) (size 15 to 20)
#    0.000    0.889    0.000    3.333   24.889    0.889 
#    0.000    0.000    0.000    0.000    0.000    0.000 
#    0.000    0.000    0.000    0.000    0.000    0.000 
#
# Total GULP energy -100455.290345 kJ/mol
# GULP energy per Si atom -5580.849464 kJ/mol
# Density = 2.237530 g / cm^3
# Si number density = 22.426342 Si / 1000 Ang^3
#
#
#
# Elastic Constant Matrix: (Units=GPa)
#
#
# Indices 1 2 3 4 5 6 
#
# 1 260.4424 77.0421 118.9025 0.0000 0.0000 0.0000
# 2 77.0421 189.0375 68.0621 0.0000 0.0000 0.0000
# 3 118.9025 68.0621 196.1793 0.0000 0.0000 0.0000
# 4 0.0000 0.0000 0.0000 316.2163 0.0000 0.0000
# 5 0.0000 0.0000 0.0000 0.0000 79.7004 0.0000
# 6 0.0000 0.0000 0.0000 0.0000 0.0000 44.1707
#
#
#
# Elastic Compliance Matrix: (Units=1/GPa)
#
#
# Indices 1 2 3 4 5 6 
#
# 1 0.005536 -0.001198 -0.002940 0.000000 0.000000 0.000000
# 2 -0.001198 0.006304 -0.001461 0.000000 0.000000 0.000000
# 3 -0.002940 -0.001461 0.007386 0.000000 0.000000 0.000000
# 4 0.000000 0.000000 0.000000 0.003162 0.000000 0.000000
# 5 0.000000 0.000000 0.000000 0.000000 0.012547 0.000000
# 6 0.000000 0.000000 0.000000 0.000000 0.000000 0.022639
#
#
# Mechanical properties :
#
#
# Convention : Reuss Voigt Hill
#
# Bulk Modulus (GPa) = 124.55130 130.40806 127.47968
# Shear Modulus (GPa) = 69.97992 113.46099 91.72045
#
# Velocity S-wave (km/s) = 5.59214 7.12057 6.40213
# Velocity P-wave (km/s) = 9.86684 11.21959 10.56489
#
# Compressibility (1/GPa) = 0.00802882
#
# Stress axis : x y z
#
# Youngs Moduli (GPa) = 180.63328 158.62423 135.38896
#
# Poissons Ratio (x) = 0.18999 0.39802
# Poissons Ratio (y) = 0.21635 0.19783
# Poissons Ratio (z) = 0.53103 0.23179
#
# Static dielectric constant tensor:
#      x y z
#    x 1.754720 0.000000 0.000000 
#    y 0.000000 1.943630 0.000000 
#    z 0.000000 0.000000 1.807160 
# 
# From -- ./inp_files/46031.got.cif
#   From: 2010.05.17/outbox.cif.g08.bks.cpg/sg66_24_cif.got.tgz:46031.got - 2010.06.03 17:51:23.
