data_PCOD9499469
_publ_section_title
;
Structure prediction by ZEFSAII (Michael W. Deem and Ramdas Pophale) SiO2 
 PCOD9499469
Probable space group: C C C M
;
_chemical_formula_sum "Si O2"
_cell_formula_units_Z 112
_cell_length_a 10.096560
_cell_length_b 19.828163
_cell_length_c 28.990608
_cell_angle_alpha 90.000000
_cell_angle_beta 90.000000
_cell_angle_gamma 90.000000
_cell_volume 5803.810642
_symmetry_space_group_name_H-M "C C C M"
_symmetry_group_IT_number 66
_symmetry_cell_setting 'orthorhombic'
loop_
_space_group_symop_operation_xyz
x,y,z
-x,-y,z
x,-y,1/2-z
-x,y,1/2-z
-x,-y,-z
x,y,-z
-x,y,1/2+z
x,-y,1/2+z
1/2+x,1/2+y,z
1/2-x,1/2-y,z
1/2+x,1/2-y,1/2-z
1/2-x,1/2+y,1/2-z
1/2-x,1/2-y,-z
1/2+x,1/2+y,-z
1/2-x,1/2+y,1/2+z
1/2+x,1/2-y,1/2+z
loop_
_atom_site_type_symbol
_atom_site_label
_atom_site_fract_x
_atom_site_fract_y
_atom_site_fract_z
Si Si1 0.170381 0.643319 0.949748
Si Si2 0.716829 0.914794 0.643967
Si Si3 0.528388 0.678522 0.347881
Si Si4 0.770144 0.826901 0.795055
Si Si5 0.038934 0.214038 0.551485
Si Si6 0.149497 0.529115 0.700203
Si Si7 0.112757 0.691882 0.790169
O O1 0.162020 0.593532 0.907239
O O2 0.071501 0.706521 0.944874
O O3 0.317269 0.677056 0.948678
O O4 0.151693 0.612207 0.000000
O O5 0.854790 0.875181 0.647540
O O6 0.619636 0.874265 0.678520
O O7 0.728797 0.990506 0.660685
O O8 0.414627 0.655095 0.313042
O O9 0.474606 0.691993 0.400005
O O10 0.588239 0.747729 0.326213
O O11 0.750000 0.750000 0.814475
O O12 0.675339 0.891031 0.804573
O O13 0.746552 0.816219 0.740532
O O14 0.980082 0.201354 0.500000
O O15 0.196306 0.500000 0.750000
O O16 0.000000 0.500000 0.696629
O O17 0.000000 0.696556 0.750000
#
# Coordination Sequence:
#
# PCOD9499469 Si02
#       7
#    16  16  16  16  16  16  16
#     4   8  14  27  51  84 117 151 194 255 305 360
#     4  11  21  36  57  85 122 155 204 243 307 363
#     4  11  23  34  58  89 122 161 197 252 306 361
#     4  12  25  40  58  87 124 166 206 247 299 363
#     4   8  14  28  51  83 119 152 198 253 312 361
#     4  11  25  42  61  84 119 166 207 252 300 361
#     4  12  22  34  54  83 119 163 201 240 288 359
#
# _framework density 19.297666
#
# number of rings (size 3 to 8) (size 9 to 14) (size 15 to 20)
#    0.000    1.571    4.286    3.000    0.000    0.571 
#    0.000    0.714    0.000    1.714    0.000    4.000 
#    0.000    0.000    0.000    0.000    0.000    0.000 
#
# Total GULP energy -311774.240781 kJ/mol
# GULP energy per Si atom -5567.397157 kJ/mol
# Density = 1.925374 g / cm^3
# Si number density = 19.297666 Si / 1000 Ang^3
#
#
#
# Elastic Constant Matrix: (Units=GPa)
#
#
# Indices 1 2 3 4 5 6 
#
# 1 41.3896 15.2676 25.1347 0.0000 0.0000 0.0000
# 2 15.2676 120.0437 38.4078 0.0000 0.0000 0.0000
# 3 25.1347 38.4078 146.5127 0.0000 0.0000 0.0000
# 4 0.0000 0.0000 0.0000 22.5696 0.0000 0.0000
# 5 0.0000 0.0000 0.0000 0.0000 8.7257 0.0000
# 6 0.0000 0.0000 0.0000 0.0000 0.0000 15.9802
#
#
#
# Elastic Compliance Matrix: (Units=1/GPa)
#
#
# Indices 1 2 3 4 5 6 
#
# 1 0.027478 -0.002168 -0.004145 0.000000 0.000000 0.000000
# 2 -0.002168 0.009264 -0.002057 0.000000 0.000000 0.000000
# 3 -0.004145 -0.002057 0.008076 0.000000 0.000000 0.000000
# 4 0.000000 0.000000 0.000000 0.044307 0.000000 0.000000
# 5 0.000000 0.000000 0.000000 0.000000 0.114604 0.000000
# 6 0.000000 0.000000 0.000000 0.000000 0.000000 0.062577
#
#
# Mechanical properties :
#
#
# Convention : Reuss Voigt Hill
#
# Bulk Modulus (GPa) = 35.61662 51.72957 43.67309
# Shear Modulus (GPa) = 17.09948 24.73082 20.91515
#
# Velocity S-wave (km/s) = 2.97996 3.58375 3.29571
# Velocity P-wave (km/s) = 5.50788 6.63240 6.09612
#
# Compressibility (1/GPa) = 0.02807678
#
# Stress axis : x y z
#
# Youngs Moduli (GPa) = 36.39281 107.94385 123.82929
#
# Poissons Ratio (x) = 0.23407 0.51333
# Poissons Ratio (y) = 0.07891 0.25466
# Poissons Ratio (z) = 0.15087 0.22199
#
# Static dielectric constant tensor:
#      x y z
#    x 1.770740 0.000000 0.000000 
#    y 0.000000 1.708660 0.000000 
#    z 0.000000 0.000000 1.711610 
# 
# From -- ./inp_files/63920.got.cif
#   From: 2010.05.17/outbox.cif.g08.bks.cpg/sg66_32_cif.got.tgz:63920.got - 2010.06.03 17:51:23.
