data_PCOD9499221
_publ_section_title
;
Structure prediction by ZEFSAII (Michael W. Deem and Ramdas Pophale) SiO2 
 PCOD9499221
Probable space group: C C C M
;
_chemical_formula_sum "Si O2"
_cell_formula_units_Z 40
_cell_length_a 7.400820
_cell_length_b 7.097217
_cell_length_c 28.121737
_cell_angle_alpha 90.000000
_cell_angle_beta 90.000000
_cell_angle_gamma 90.000000
_cell_volume 1477.100578
_symmetry_space_group_name_H-M "C C C M"
_symmetry_group_IT_number 66
_symmetry_cell_setting 'orthorhombic'
loop_
_space_group_symop_operation_xyz
x,y,z
-x,-y,z
x,-y,1/2-z
-x,y,1/2-z
-x,-y,-z
x,y,-z
-x,y,1/2+z
x,-y,1/2+z
1/2+x,1/2+y,z
1/2-x,1/2-y,z
1/2+x,1/2-y,1/2-z
1/2-x,1/2+y,1/2-z
1/2-x,1/2-y,-z
1/2+x,1/2+y,-z
1/2-x,1/2+y,1/2+z
1/2+x,1/2-y,1/2+z
loop_
_atom_site_type_symbol
_atom_site_label
_atom_site_fract_x
_atom_site_fract_y
_atom_site_fract_z
Si Si1 0.792508 0.973544 0.944603
Si Si2 0.500000 0.000000 0.874694
Si Si3 0.790396 0.031361 0.806033
O O1 0.750000 0.750000 0.940079
O O2 0.645105 0.079191 0.912627
O O3 0.773121 0.024888 0.000000
O O4 0.000000 0.000000 0.930278
O O5 0.644357 0.916928 0.836923
O O6 0.750000 0.250000 0.816122
O O7 0.760919 0.000000 0.750000
O O8 0.000000 0.000000 0.816792
#
# Coordination Sequence:
#
# PCOD9499221 Si02
#       3
#    16   8  16
#     4  10  24  45  70 104 148 193 241 303 370 439
#     4  12  26  40  78 104 148 190 256 304 370 440
#     4  11  29  49  76 108 153 198 251 310 380 445
#
# _framework density 27.080079999999999
#
# number of rings (size 3 to 8) (size 9 to 14) (size 15 to 20)
#    0.000    1.200    0.000    2.400   22.400    0.000 
#    0.000    6.000    0.000    0.000    0.000    0.000 
#    0.000    0.000    0.000    0.000    0.000    0.000 
#
# Total GULP energy -111914.409762 kJ/mol
# GULP energy per Si atom -5595.720488 kJ/mol
# Density = 2.701844 g / cm^3
# Si number density = 27.080080 Si / 1000 Ang^3
#
#
#
# Elastic Constant Matrix: (Units=GPa)
#
#
# Indices 1 2 3 4 5 6 
#
# 1 337.5917 67.0948 134.9007 0.0000 0.0000 0.0000
# 2 67.0948 127.5788 -2.3748 0.0000 0.0000 0.0000
# 3 134.9007 -2.3748 238.2793 0.0000 0.0000 0.0000
# 4 0.0000 0.0000 0.0000 0.3158 0.0000 0.0000
# 5 0.0000 0.0000 0.0000 0.0000 43.2975 0.0000
# 6 0.0000 0.0000 0.0000 0.0000 0.0000 54.5214
#
#
#
# Elastic Compliance Matrix: (Units=1/GPa)
#
#
# Indices 1 2 3 4 5 6 
#
# 1 0.004454 -0.002390 -0.002546 0.000000 0.000000 0.000000
# 2 -0.002390 0.009122 0.001444 0.000000 0.000000 0.000000
# 3 -0.002546 0.001444 0.005652 0.000000 0.000000 0.000000
# 4 0.000000 0.000000 0.000000 3.166253 0.000000 0.000000
# 5 0.000000 0.000000 0.000000 0.000000 0.023096 0.000000
# 6 0.000000 0.000000 0.000000 0.000000 0.000000 0.018341
#
#
# Mechanical properties :
#
#
# Convention : Reuss Voigt Hill
#
# Bulk Modulus (GPa) = 81.66234 122.52124 102.09179
# Shear Modulus (GPa) = 1.54417 53.21556 27.37987
#
# Velocity S-wave (km/s) = 0.75595 4.43777 3.18318
# Velocity P-wave (km/s) = 5.56626 8.46172 7.16184
#
# Compressibility (1/GPa) = 0.01224555
#
# Stress axis : x y z
#
# Youngs Moduli (GPa) = 224.49740 109.62402 176.91731
#
# Poissons Ratio (x) = 0.26200 0.45037
# Poissons Ratio (y) = 0.53655 -0.25547
# Poissons Ratio (z) = 0.57149 -0.15830
#
# Static dielectric constant tensor:
#      x y z
#    x 2.037960 0.000000 0.000000 
#    y 0.000000 2.295740 0.000000 
#    z 0.000000 0.000000 2.067820 
# 
# From -- ./inp_files/61784.got.cif
#   From: 2010.05.17/outbox.cif.g08.bks.cpg/sg66_31_cif.got.tgz:61784.got - 2010.06.03 17:51:23.
