data_PCOD9499832
_publ_section_title
;
Structure prediction by ZEFSAII (Michael W. Deem and Ramdas Pophale) SiO2 
 PCOD9499832
Probable space group: C C C M
;
_chemical_formula_sum "Si O2"
_cell_formula_units_Z 60
_cell_length_a 7.280907
_cell_length_b 14.625880
_cell_length_c 24.554176
_cell_angle_alpha 90.000000
_cell_angle_beta 90.000000
_cell_angle_gamma 90.000000
_cell_volume 2614.766150
_symmetry_space_group_name_H-M "C C C M"
_symmetry_group_IT_number 66
_symmetry_cell_setting 'orthorhombic'
loop_
_space_group_symop_operation_xyz
x,y,z
-x,-y,z
x,-y,1/2-z
-x,y,1/2-z
-x,-y,-z
x,y,-z
-x,y,1/2+z
x,-y,1/2+z
1/2+x,1/2+y,z
1/2-x,1/2-y,z
1/2+x,1/2-y,1/2-z
1/2-x,1/2+y,1/2-z
1/2-x,1/2-y,-z
1/2+x,1/2+y,-z
1/2-x,1/2+y,1/2+z
1/2+x,1/2-y,1/2+z
loop_
_atom_site_type_symbol
_atom_site_label
_atom_site_fract_x
_atom_site_fract_y
_atom_site_fract_z
Si Si1 0.866134 0.413453 0.941051
Si Si2 0.000000 0.000000 0.599044
Si Si3 0.012512 0.341680 0.326123
Si Si4 0.573594 0.641115 0.193399
Si Si5 0.000000 0.500000 0.750000
O O1 0.668308 0.460529 0.934879
O O2 0.000000 0.500000 0.940386
O O3 0.926332 0.355354 0.888369
O O4 0.881238 0.365913 0.000000
O O5 0.960977 0.082329 0.640219
O O6 0.794596 0.349447 0.311512
O O7 0.039929 0.236409 0.310472
O O8 0.095226 0.427607 0.291922
O O9 0.500000 0.600854 0.250000
#
# Coordination Sequence:
#
# PCOD9499832 Si02
#       5
#    16   8  16  16   4
#     4  11  24  46  71 100 138 186 236 292 347 409
#     4  12  24  44  72 102 136 183 241 290 348 414
#     4  11  24  43  66 100 140 187 222 286 357 416
#     4  11  25  40  64 105 144 177 230 284 352 428
#     4  12  20  40  64  90 128 180 226 266 344 420
#
# _framework density 22.946601000000001
#
# number of rings (size 3 to 8) (size 9 to 14) (size 15 to 20)
#    0.000    0.800    5.333    0.800    7.467    1.067 
#    0.000    6.667    0.000    0.000    0.000    0.000 
#    0.000    0.000    0.000    0.000    0.000    0.000 
#
# Total GULP energy -167396.843283 kJ/mol
# GULP energy per Si atom -5579.894776 kJ/mol
# Density = 2.289437 g / cm^3
# Si number density = 22.946601 Si / 1000 Ang^3
#
#
#
# Elastic Constant Matrix: (Units=GPa)
#
#
# Indices 1 2 3 4 5 6 
#
# 1 106.0119 -6.3598 19.7316 0.0000 0.0000 0.0000
# 2 -6.3598 117.3641 38.0595 0.0000 0.0000 0.0000
# 3 19.7316 38.0595 192.9290 0.0000 0.0000 0.0000
# 4 0.0000 0.0000 0.0000 34.4418 0.0000 0.0000
# 5 0.0000 0.0000 0.0000 0.0000 123.0465 0.0000
# 6 0.0000 0.0000 0.0000 0.0000 0.0000 17.0150
#
#
#
# Elastic Compliance Matrix: (Units=1/GPa)
#
#
# Indices 1 2 3 4 5 6 
#
# 1 0.009705 0.000906 -0.001171 0.000000 0.000000 0.000000
# 2 0.000906 0.009187 -0.001905 0.000000 0.000000 0.000000
# 3 -0.001171 -0.001905 0.005679 0.000000 0.000000 0.000000
# 4 0.000000 0.000000 0.000000 0.029034 0.000000 0.000000
# 5 0.000000 0.000000 0.000000 0.000000 0.008127 0.000000
# 6 0.000000 0.000000 0.000000 0.000000 0.000000 0.058772
#
#
# Mechanical properties :
#
#
# Convention : Reuss Voigt Hill
#
# Bulk Modulus (GPa) = 49.43080 57.68530 53.55805
# Shear Modulus (GPa) = 37.99707 59.22557 48.61132
#
# Velocity S-wave (km/s) = 4.07368 5.08588 4.60766
# Velocity P-wave (km/s) = 6.61173 7.72540 7.19016
#
# Compressibility (1/GPa) = 0.02023030
#
# Stress axis : x y z
#
# Youngs Moduli (GPa) = 103.03707 108.84527 176.09178
#
# Poissons Ratio (x) = -0.09859 0.20625
# Poissons Ratio (y) = -0.09332 0.33546
# Poissons Ratio (z) = 0.12068 0.20735
#
# Static dielectric constant tensor:
#      x y z
#    x 1.899570 0.000000 0.000000 
#    y 0.000000 1.891420 0.000000 
#    z 0.000000 0.000000 1.863300 
# 
# From -- ./inp_files/54892.got.cif
#   From: 2010.05.17/outbox.cif.g08.bks.cpg/sg66_28_cif.got.tgz:54892.got - 2010.06.03 17:51:23.
