data_PCOD9499589
_publ_section_title
;
Structure prediction by ZEFSAII (Michael W. Deem and Ramdas Pophale) SiO2 
 PCOD9499589
Probable space group: C C C M
;
_chemical_formula_sum "Si O2"
_cell_formula_units_Z 64
_cell_length_a 12.258056
_cell_length_b 15.977477
_cell_length_c 13.227449
_cell_angle_alpha 90.000000
_cell_angle_beta 90.000000
_cell_angle_gamma 90.000000
_cell_volume 2590.633027
_symmetry_space_group_name_H-M "C C C M"
_symmetry_group_IT_number 66
_symmetry_cell_setting 'orthorhombic'
loop_
_space_group_symop_operation_xyz
x,y,z
-x,-y,z
x,-y,1/2-z
-x,y,1/2-z
-x,-y,-z
x,y,-z
-x,y,1/2+z
x,-y,1/2+z
1/2+x,1/2+y,z
1/2-x,1/2-y,z
1/2+x,1/2-y,1/2-z
1/2-x,1/2+y,1/2-z
1/2-x,1/2-y,-z
1/2+x,1/2+y,-z
1/2-x,1/2+y,1/2+z
1/2+x,1/2-y,1/2+z
loop_
_atom_site_type_symbol
_atom_site_label
_atom_site_fract_x
_atom_site_fract_y
_atom_site_fract_z
Si Si1 0.377195 0.280583 0.611484
Si Si2 0.333548 0.403668 0.216761
Si Si3 0.104934 0.608598 0.810009
Si Si4 0.370153 0.000143 0.000000
Si Si5 0.290538 0.652981 0.500000
O O1 0.403036 0.311962 0.500000
O O2 0.250000 0.250000 0.610718
O O3 0.390816 0.346991 0.698970
O O4 0.435163 0.193965 0.637582
O O5 0.352000 0.500000 0.250000
O O6 0.204537 0.382329 0.232781
O O7 0.355221 0.373500 0.102402
O O8 0.000000 0.579051 0.750000
O O9 0.155817 0.551189 0.898474
O O10 0.500000 0.000000 0.000000
O O11 0.312610 0.089008 0.000000
O O12 0.250000 0.750000 0.500000
#
# Coordination Sequence:
#
# PCOD9499589 Si02
#       5
#    16  16  16   8   8
#     4   9  19  37  61  86 120 165 215 264 319 388
#     4  11  23  37  61  89 124 169 214 266 320 393
#     4  11  22  38  58  92 127 164 209 260 327 392
#     4  12  24  36  58  90 131 173 206 258 329 402
#     4  12  24  40  55  87 132 170 218 267 333 395
#
# _framework density 24.704386
#
# number of rings (size 3 to 8) (size 9 to 14) (size 15 to 20)
#    0.000    1.250    3.750    3.750    3.500    0.000 
#    0.000    0.000    0.000    0.750    0.000    1.750 
#    0.000    0.000    0.000    0.000    0.000    0.000 
#
# Total GULP energy -179081.689577 kJ/mol
# GULP energy per Si atom -5596.302799 kJ/mol
# Density = 2.464816 g / cm^3
# Si number density = 24.704386 Si / 1000 Ang^3
#
#
#
# Elastic Constant Matrix: (Units=GPa)
#
#
# Indices 1 2 3 4 5 6 
#
# 1 58.4196 10.6296 28.7555 0.0000 0.0000 0.0000
# 2 10.6296 203.4607 107.2868 0.0000 0.0000 0.0000
# 3 28.7555 107.2868 265.6941 0.0000 0.0000 0.0000
# 4 0.0000 0.0000 0.0000 31.5796 0.0000 0.0000
# 5 0.0000 0.0000 0.0000 0.0000 24.6634 0.0000
# 6 0.0000 0.0000 0.0000 0.0000 0.0000 9.7255
#
#
#
# Elastic Compliance Matrix: (Units=1/GPa)
#
#
# Indices 1 2 3 4 5 6 
#
# 1 0.018083 0.000111 -0.002002 0.000000 0.000000 0.000000
# 2 0.000111 0.006245 -0.002534 0.000000 0.000000 0.000000
# 3 -0.002002 -0.002534 0.005004 0.000000 0.000000 0.000000
# 4 0.000000 0.000000 0.000000 0.031666 0.000000 0.000000
# 5 0.000000 0.000000 0.000000 0.000000 0.040546 0.000000
# 6 0.000000 0.000000 0.000000 0.000000 0.000000 0.102823
#
#
# Mechanical properties :
#
#
# Convention : Reuss Voigt Hill
#
# Bulk Modulus (GPa) = 48.82344 91.21315 70.01829
# Shear Modulus (GPa) = 22.72281 38.58719 30.65500
#
# Velocity S-wave (km/s) = 3.03609 3.95645 3.52642
# Velocity P-wave (km/s) = 5.66537 7.60745 6.70708
#
# Compressibility (1/GPa) = 0.02048196
#
# Stress axis : x y z
#
# Youngs Moduli (GPa) = 55.30139 160.12106 199.85862
#
# Poissons Ratio (x) = -0.01775 0.40008
# Poissons Ratio (y) = -0.00613 0.50641
# Poissons Ratio (z) = 0.11070 0.40572
#
# Static dielectric constant tensor:
#      x y z
#    x 1.969770 0.000000 0.000000 
#    y 0.000000 2.050620 0.000000 
#    z 0.000000 0.000000 2.201390 
# 
# From -- ./inp_files/15932.got.cif
#   From: 2010.05.17/outbox.cif.g08.bks.cpg/sg66_8_cif.got.tgz:15932.got - 2010.06.03 17:51:23.
