data_PCOD9499794
_publ_section_title
;
Structure prediction by ZEFSAII (Michael W. Deem and Ramdas Pophale) SiO2 
 PCOD9499794
Probable space group: C C C M
;
_chemical_formula_sum "Si O2"
_cell_formula_units_Z 64
_cell_length_a 9.384302
_cell_length_b 18.276160
_cell_length_c 20.046051
_cell_angle_alpha 90.000000
_cell_angle_beta 90.000000
_cell_angle_gamma 90.000000
_cell_volume 3438.078258
_symmetry_space_group_name_H-M "C C C M"
_symmetry_group_IT_number 66
_symmetry_cell_setting 'orthorhombic'
loop_
_space_group_symop_operation_xyz
x,y,z
-x,-y,z
x,-y,1/2-z
-x,y,1/2-z
-x,-y,-z
x,y,-z
-x,y,1/2+z
x,-y,1/2+z
1/2+x,1/2+y,z
1/2-x,1/2-y,z
1/2+x,1/2-y,1/2-z
1/2-x,1/2+y,1/2-z
1/2-x,1/2-y,-z
1/2+x,1/2+y,-z
1/2-x,1/2+y,1/2+z
1/2+x,1/2-y,1/2+z
loop_
_atom_site_type_symbol
_atom_site_label
_atom_site_fract_x
_atom_site_fract_y
_atom_site_fract_z
Si Si1 0.902527 0.714792 0.804091
Si Si2 0.918404 0.762239 0.422873
Si Si3 0.260789 0.418999 0.245785
Si Si4 0.011412 0.917264 0.863139
O O1 0.750000 0.750000 0.818513
O O2 0.856316 0.641561 0.766330
O O3 0.000000 0.757897 0.750000
O O4 0.992315 0.712917 0.871442
O O5 0.943813 0.743830 0.500000
O O6 0.750000 0.750000 0.409349
O O7 0.968672 0.846302 0.409441
O O8 0.198632 0.500000 0.250000
O O9 0.371967 0.412751 0.184066
O O10 0.354798 0.411994 0.312520
O O11 0.000000 0.000000 0.892931
#
# Coordination Sequence:
#
# PCOD9499794 Si02
#       4
#    16  16  16  16
#     4  12  22  35  60  87 116 155 197 245 305 362
#     4  11  24  40  58  86 123 162 207 257 308 365
#     4   9  18  33  56  88 118 146 190 250 302 358
#     4   9  17  35  59  85 117 154 200 249 302 363
#
# _framework density 18.61505
#
# number of rings (size 3 to 8) (size 9 to 14) (size 15 to 20)
#    0.000    1.750    2.500    5.250    0.000    1.500 
#    0.000    0.000    0.000    0.000    0.000    8.750 
#    0.000    0.000    0.000    0.000    0.000    0.000 
#
# Total GULP energy -178382.623755 kJ/mol
# GULP energy per Si atom -5574.456992 kJ/mol
# Density = 1.857268 g / cm^3
# Si number density = 18.615050 Si / 1000 Ang^3
#
#
#
# Elastic Constant Matrix: (Units=GPa)
#
#
# Indices 1 2 3 4 5 6 
#
# 1 99.3888 17.0623 45.3748 0.0000 0.0000 0.0000
# 2 17.0623 88.6765 4.5817 0.0000 0.0000 0.0000
# 3 45.3748 4.5817 67.4758 0.0000 0.0000 0.0000
# 4 0.0000 0.0000 0.0000 13.8945 0.0000 0.0000
# 5 0.0000 0.0000 0.0000 0.0000 18.0654 0.0000
# 6 0.0000 0.0000 0.0000 0.0000 0.0000 26.3660
#
#
#
# Elastic Compliance Matrix: (Units=1/GPa)
#
#
# Indices 1 2 3 4 5 6 
#
# 1 0.015001 -0.002373 -0.009926 0.000000 0.000000 0.000000
# 2 -0.002373 0.011692 0.000802 0.000000 0.000000 0.000000
# 3 -0.009926 0.000802 0.021441 0.000000 0.000000 0.000000
# 4 0.000000 0.000000 0.000000 0.071971 0.000000 0.000000
# 5 0.000000 0.000000 0.000000 0.000000 0.055354 0.000000
# 6 0.000000 0.000000 0.000000 0.000000 0.000000 0.037928
#
#
# Mechanical properties :
#
#
# Convention : Reuss Voigt Hill
#
# Bulk Modulus (GPa) = 39.77965 43.28651 41.53308
# Shear Modulus (GPa) = 20.42813 24.23335 22.33074
#
# Velocity S-wave (km/s) = 3.31629 3.61198 3.46729
# Velocity P-wave (km/s) = 6.00664 6.37959 6.19592
#
# Compressibility (1/GPa) = 0.02513848
#
# Stress axis : x y z
#
# Youngs Moduli (GPa) = 66.66394 85.52731 46.64048
#
# Poissons Ratio (x) = 0.20299 0.46296
# Poissons Ratio (y) = 0.15822 -0.03741
# Poissons Ratio (z) = 0.66172 -0.06860
#
# Static dielectric constant tensor:
#      x y z
#    x 1.635630 0.000000 0.000000 
#    y 0.000000 1.762030 0.000000 
#    z 0.000000 0.000000 1.618920 
# 
# From -- ./inp_files/36312.got.cif
#   From: 2010.05.17/outbox.cif.g08.bks.cpg/sg66_19_cif.got.tgz:36312.got - 2010.06.03 17:51:23.
