data_PCOD9499760
_publ_section_title
;
Structure prediction by ZEFSAII (Michael W. Deem and Ramdas Pophale) SiO2 
 PCOD9499760
Probable space group: C C C M
;
_chemical_formula_sum "Si O2"
_cell_formula_units_Z 60
_cell_length_a 8.922094
_cell_length_b 13.424361
_cell_length_c 19.237626
_cell_angle_alpha 90.000000
_cell_angle_beta 90.000000
_cell_angle_gamma 90.000000
_cell_volume 2304.156080
_symmetry_space_group_name_H-M "C C C M"
_symmetry_group_IT_number 66
_symmetry_cell_setting 'orthorhombic'
loop_
_space_group_symop_operation_xyz
x,y,z
-x,-y,z
x,-y,1/2-z
-x,y,1/2-z
-x,-y,-z
x,y,-z
-x,y,1/2+z
x,-y,1/2+z
1/2+x,1/2+y,z
1/2-x,1/2-y,z
1/2+x,1/2-y,1/2-z
1/2-x,1/2+y,1/2-z
1/2-x,1/2-y,-z
1/2+x,1/2+y,-z
1/2-x,1/2+y,1/2+z
1/2+x,1/2-y,1/2+z
loop_
_atom_site_type_symbol
_atom_site_label
_atom_site_fract_x
_atom_site_fract_y
_atom_site_fract_z
Si Si1 0.500000 0.500000 0.750000
Si Si2 0.799037 0.544941 0.421452
Si Si3 0.081394 0.654085 0.367350
Si Si4 0.518022 0.358558 0.137915
Si Si5 0.250000 0.750000 0.241119
O O1 0.574015 0.572250 0.807627
O O2 0.845869 0.568558 0.500000
O O3 0.820879 0.427932 0.407385
O O4 0.628997 0.580389 0.411205
O O5 0.916013 0.603261 0.371474
O O6 0.151246 0.679429 0.292096
O O7 0.065438 0.766316 0.397261
O O8 0.635418 0.306751 0.191156
#
# Coordination Sequence:
#
# PCOD9499760 Si02
#       5
#     4  16  16  16   8
#     4  12  24  44  66 104 148 168 236 294 382 442
#     4  11  26  47  70 104 140 192 248 285 354 442
#     4  11  23  43  72  99 140 187 230 299 355 419
#     4  12  24  43  71 103 144 185 228 309 361 427
#     4  12  22  44  66 106 134 172 236 286 372 418
#
# _framework density 26.039902999999999
#
# number of rings (size 3 to 8) (size 9 to 14) (size 15 to 20)
#    0.000    0.533    5.333    3.200    0.000    3.200 
#    4.800    3.333    0.000    0.000    0.000    0.000 
#    0.000    0.000    0.000    0.000    0.000    0.000 
#
# Total GULP energy -167472.451050 kJ/mol
# GULP energy per Si atom -5582.415035 kJ/mol
# Density = 2.598064 g / cm^3
# Si number density = 26.039903 Si / 1000 Ang^3
#
#
#
# Elastic Constant Matrix: (Units=GPa)
#
#
# Indices 1 2 3 4 5 6 
#
# 1 108.7836 49.9253 32.0195 0.0000 0.0000 0.0000
# 2 49.9253 175.1867 29.8484 0.0000 0.0000 0.0000
# 3 32.0195 29.8484 95.1299 0.0000 0.0000 0.0000
# 4 0.0000 0.0000 0.0000 14.5012 0.0000 0.0000
# 5 0.0000 0.0000 0.0000 0.0000 9.4045 0.0000
# 6 0.0000 0.0000 0.0000 0.0000 0.0000 69.0501
#
#
#
# Elastic Compliance Matrix: (Units=1/GPa)
#
#
# Indices 1 2 3 4 5 6 
#
# 1 0.011310 -0.002720 -0.002953 0.000000 0.000000 0.000000
# 2 -0.002720 0.006685 -0.001182 0.000000 0.000000 0.000000
# 3 -0.002953 -0.001182 0.011877 0.000000 0.000000 0.000000
# 4 0.000000 0.000000 0.000000 0.068960 0.000000 0.000000
# 5 0.000000 0.000000 0.000000 0.000000 0.106332 0.000000
# 6 0.000000 0.000000 0.000000 0.000000 0.000000 0.014482
#
#
# Mechanical properties :
#
#
# Convention : Reuss Voigt Hill
#
# Bulk Modulus (GPa) = 61.87698 66.96519 64.42108
# Shear Modulus (GPa) = 20.94298 36.41164 28.67731
#
# Velocity S-wave (km/s) = 2.83903 3.74344 3.32216
# Velocity P-wave (km/s) = 5.87884 6.66759 6.28560
#
# Compressibility (1/GPa) = 0.01616110
#
# Stress axis : x y z
#
# Youngs Moduli (GPa) = 88.41572 149.59472 84.19730
#
# Poissons Ratio (x) = 0.40690 0.24867
# Poissons Ratio (y) = 0.24049 0.09951
# Poissons Ratio (z) = 0.26113 0.17681
#
# Static dielectric constant tensor:
#      x y z
#    x 2.169890 0.000000 0.000000 
#    y 0.000000 2.190830 0.000000 
#    z 0.000000 0.000000 1.951490 
# 
# From -- ./inp_files/48019.got.cif
#   From: 2010.05.17/outbox.cif.g08.bks.cpg/sg66_25_cif.got.tgz:48019.got - 2010.06.03 17:51:23.
