data_PCOD9499304
_publ_section_title
;
Structure prediction by ZEFSAII (Michael W. Deem and Ramdas Pophale) SiO2 
 PCOD9499304
Probable space group: C C C M
;
_chemical_formula_sum "Si O2"
_cell_formula_units_Z 96
_cell_length_a 17.139631
_cell_length_b 21.109900
_cell_length_c 16.434846
_cell_angle_alpha 90.000000
_cell_angle_beta 90.000000
_cell_angle_gamma 90.000000
_cell_volume 5946.388538
_symmetry_space_group_name_H-M "C C C M"
_symmetry_group_IT_number 66
_symmetry_cell_setting 'orthorhombic'
loop_
_space_group_symop_operation_xyz
x,y,z
-x,-y,z
x,-y,1/2-z
-x,y,1/2-z
-x,-y,-z
x,y,-z
-x,y,1/2+z
x,-y,1/2+z
1/2+x,1/2+y,z
1/2-x,1/2-y,z
1/2+x,1/2-y,1/2-z
1/2-x,1/2+y,1/2-z
1/2-x,1/2-y,-z
1/2+x,1/2+y,-z
1/2-x,1/2+y,1/2+z
1/2+x,1/2-y,1/2+z
loop_
_atom_site_type_symbol
_atom_site_label
_atom_site_fract_x
_atom_site_fract_y
_atom_site_fract_z
Si Si1 0.953616 0.762906 0.835802
Si Si2 0.048874 0.617858 0.665425
Si Si3 0.608528 0.884572 0.590867
Si Si4 0.196348 0.570702 0.250387
Si Si5 0.806221 0.810064 0.755680
Si Si6 0.888150 0.768709 0.408739
O O1 0.928672 0.690561 0.853574
O O2 0.878204 0.804505 0.818048
O O3 0.000000 0.760154 0.750000
O O4 0.019987 0.784669 0.898230
O O5 0.125794 0.577839 0.684029
O O6 0.000000 0.618550 0.750000
O O7 0.982847 0.597585 0.601742
O O8 0.635062 0.899595 0.500000
O O9 0.657474 0.915462 0.662642
O O10 0.614682 0.807931 0.602653
O O11 0.228284 0.500000 0.250000
O O12 0.258916 0.625513 0.264414
O O13 0.750000 0.750000 0.769223
O O14 0.839943 0.800882 0.663775
O O15 0.860663 0.783466 0.500000
#
# Coordination Sequence:
#
# PCOD9499304 Si02
#       6
#    16  16  16  16  16  16
#     4   8  14  27  47  68  91 122 158 190 230 280
#     4   8  14  27  44  65  93 126 158 186 222 279
#     4   9  17  30  49  73  99 127 158 195 237 288
#     4  11  21  31  44  69 101 132 164 199 235 280
#     4  11  17  29  50  73  97 129 160 194 241 286
#     4   9  17  29  51  80 101 117 150 203 254 291
#
# _framework density 16.144252000000002
#
# number of rings (size 3 to 8) (size 9 to 14) (size 15 to 20)
#    0.000    2.667    3.333    2.000    0.000    4.000 
#    0.000    1.667    0.000    7.000    0.000    1.167 
#    0.000    0.000    0.000    0.000    0.000    0.000 
#
# Total GULP energy -267310.275912 kJ/mol
# GULP energy per Si atom -5568.964082 kJ/mol
# Density = 1.610751 g / cm^3
# Si number density = 16.144252 Si / 1000 Ang^3
#
#
#
# Elastic Constant Matrix: (Units=GPa)
#
#
# Indices 1 2 3 4 5 6 
#
# 1 61.6301 38.3254 -0.8015 0.0000 0.0000 0.0000
# 2 38.3254 78.8602 -1.8460 0.0000 0.0000 0.0000
# 3 -0.8015 -1.8460 24.4704 0.0000 0.0000 0.0000
# 4 0.0000 0.0000 0.0000 6.7378 0.0000 0.0000
# 5 0.0000 0.0000 0.0000 0.0000 15.6970 0.0000
# 6 0.0000 0.0000 0.0000 0.0000 0.0000 16.5169
#
#
#
# Elastic Compliance Matrix: (Units=1/GPa)
#
#
# Indices 1 2 3 4 5 6 
#
# 1 0.023254 -0.011303 -0.000091 0.000000 0.000000 0.000000
# 2 -0.011303 0.018197 0.001003 0.000000 0.000000 0.000000
# 3 -0.000091 0.001003 0.040938 0.000000 0.000000 0.000000
# 4 0.000000 0.000000 0.000000 0.148417 0.000000 0.000000
# 5 0.000000 0.000000 0.000000 0.000000 0.063706 0.000000
# 6 0.000000 0.000000 0.000000 0.000000 0.000000 0.060544
#
#
# Mechanical properties :
#
#
# Convention : Reuss Voigt Hill
#
# Bulk Modulus (GPa) = 16.23217 26.25738 21.24478
# Shear Modulus (GPa) = 12.61429 16.40919 14.51174
#
# Velocity S-wave (km/s) = 2.79829 3.19158 3.00138
# Velocity P-wave (km/s) = 4.52956 5.46636 5.01986
#
# Compressibility (1/GPa) = 0.06160605
#
# Stress axis : x y z
#
# Youngs Moduli (GPa) = 43.00388 54.95283 24.42694
#
# Poissons Ratio (x) = 0.62115 0.00222
# Poissons Ratio (y) = 0.48608 -0.02449
# Poissons Ratio (z) = 0.00392 -0.05509
#
# Static dielectric constant tensor:
#      x y z
#    x 1.572280 0.000000 0.000000 
#    y 0.000000 1.527830 0.000000 
#    z 0.000000 0.000000 1.562200 
# 
# From -- ./inp_files/41745.got.cif
#   From: 2010.05.17/outbox.cif.g08.bks.cpg/sg66_21_cif.got.tgz:41745.got - 2010.06.03 17:51:23.
