data_PCOD9499857
_publ_section_title
;
Structure prediction by ZEFSAII (Michael W. Deem and Ramdas Pophale) SiO2 
 PCOD9499857
Probable space group: C C C M
;
_chemical_formula_sum "Si O2"
_cell_formula_units_Z 88
_cell_length_a 22.684167
_cell_length_b 11.425777
_cell_length_c 14.043082
_cell_angle_alpha 90.000000
_cell_angle_beta 90.000000
_cell_angle_gamma 90.000000
_cell_volume 3639.745445
_symmetry_space_group_name_H-M "C C C M"
_symmetry_group_IT_number 66
_symmetry_cell_setting 'orthorhombic'
loop_
_space_group_symop_operation_xyz
x,y,z
-x,-y,z
x,-y,1/2-z
-x,y,1/2-z
-x,-y,-z
x,y,-z
-x,y,1/2+z
x,-y,1/2+z
1/2+x,1/2+y,z
1/2-x,1/2-y,z
1/2+x,1/2-y,1/2-z
1/2-x,1/2+y,1/2-z
1/2-x,1/2-y,-z
1/2+x,1/2+y,-z
1/2-x,1/2+y,1/2+z
1/2+x,1/2-y,1/2+z
loop_
_atom_site_type_symbol
_atom_site_label
_atom_site_fract_x
_atom_site_fract_y
_atom_site_fract_z
Si Si1 0.360402 0.482649 0.362250
Si Si2 0.965947 0.372835 0.500000
Si Si3 0.226201 0.505656 0.137371
Si Si4 0.312110 0.184167 0.000000
Si Si5 0.140529 0.708750 0.104408
Si Si6 0.937732 0.633917 0.780128
Si Si7 0.076330 0.142306 0.000000
O O1 0.366016 0.500000 0.250000
O O2 0.293778 0.521719 0.388358
O O3 0.357749 0.348145 0.393537
O O4 0.411832 0.557385 0.411156
O O5 0.936693 0.371500 0.605524
O O6 0.979715 0.229412 0.500000
O O7 0.000000 0.500000 0.500000
O O8 0.221610 0.500000 0.250000
O O9 0.200617 0.632092 0.107494
O O10 0.188198 0.404235 0.089254
O O11 0.250000 0.250000 0.000000
O O12 0.365737 0.273503 0.000000
O O13 0.109589 0.683245 0.205865
O O14 0.112955 0.673774 0.000000
O O15 0.939266 0.500000 0.750000
O O16 0.000000 0.691001 0.750000
#
# Coordination Sequence:
#
# PCOD9499857 Si02
#       7
#    16   8  16   8  16  16   8
#     4  11  24  45  67 103 154 210 255 304 368 461
#     4  12  26  48  77 109 145 187 245 328 395 459
#     4  11  25  40  66 105 154 205 255 311 368 442
#     4  12  24  41  63  95 146 195 250 298 366 441
#     4  12  26  43  73 110 155 199 260 311 380 465
#     4  11  26  46  75 111 143 178 238 317 399 448
#     4  12  26  43  72 103 146 203 253 301 382 455
#
# _framework density 24.177515
#
# number of rings (size 3 to 8) (size 9 to 14) (size 15 to 20)
#    0.000    0.545    5.455    2.182   10.182    0.727 
#    0.000    0.000    0.000    6.000    0.000    0.000 
#    0.000    0.000    0.000    0.000    0.000    0.000 
#
# Total GULP energy -245348.840806 kJ/mol
# GULP energy per Si atom -5576.110018 kJ/mol
# Density = 2.412249 g / cm^3
# Si number density = 24.177515 Si / 1000 Ang^3
#
#
#
# Elastic Constant Matrix: (Units=GPa)
#
#
# Indices 1 2 3 4 5 6 
#
# 1 53.5074 8.0936 22.9014 0.0000 0.0000 0.0000
# 2 8.0936 123.8510 28.7715 0.0000 0.0000 0.0000
# 3 22.9014 28.7715 238.6202 0.0000 0.0000 0.0000
# 4 0.0000 0.0000 0.0000 68.3126 0.0000 0.0000
# 5 0.0000 0.0000 0.0000 0.0000 -80.6156 0.0000
# 6 0.0000 0.0000 0.0000 0.0000 0.0000 36.6679
#
#
#
# Elastic Compliance Matrix: (Units=1/GPa)
#
#
# Indices 1 2 3 4 5 6 
#
# 1 0.019580 -0.000867 -0.001775 0.000000 0.000000 0.000000
# 2 -0.000867 0.008345 -0.000923 0.000000 0.000000 0.000000
# 3 -0.001775 -0.000923 0.004472 0.000000 0.000000 0.000000
# 4 0.000000 0.000000 0.000000 0.014639 0.000000 0.000000
# 5 0.000000 0.000000 0.000000 0.000000 -0.012405 0.000000
# 6 0.000000 0.000000 0.000000 0.000000 0.000000 0.027272
#
#
# Mechanical properties :
#
#
# Convention : Reuss Voigt Hill
#
# Bulk Modulus (GPa) = 39.57626 59.50131 49.53878
# Shear Modulus (GPa) = 64.55323 28.62046 46.58685
#
# Velocity S-wave (km/s) = 5.17278 3.44432 4.39437
# Velocity P-wave (km/s) = 7.21675 6.36250 6.80304
#
# Compressibility (1/GPa) = 0.02526767
#
# Stress axis : x y z
#
# Youngs Moduli (GPa) = 51.07330 119.82778 223.59545
#
# Poissons Ratio (x) = 0.10392 0.39679
# Poissons Ratio (y) = 0.04429 0.20638
# Poissons Ratio (z) = 0.09063 0.11060
#
# Static dielectric constant tensor:
#      x y z
#    x 2.104960 0.000000 0.000000 
#    y 0.000000 1.924380 0.000000 
#    z 0.000000 0.000000 0.727150 
# 
# From -- ./inp_files/32257.got.cif
#   From: 2010.05.17/outbox.cif.g08.bks.cpg/sg66_17_cif.got.tgz:32257.got - 2010.06.03 17:51:23.
