data_PCOD9499587
_publ_section_title
;
Structure prediction by ZEFSAII (Michael W. Deem and Ramdas Pophale) SiO2 
 PCOD9499587
Probable space group: C C C M
;
_chemical_formula_sum "Si O2"
_cell_formula_units_Z 88
_cell_length_a 24.346793
_cell_length_b 12.101239
_cell_length_c 15.167983
_cell_angle_alpha 90.000000
_cell_angle_beta 90.000000
_cell_angle_gamma 90.000000
_cell_volume 4468.887635
_symmetry_space_group_name_H-M "C C C M"
_symmetry_group_IT_number 66
_symmetry_cell_setting 'orthorhombic'
loop_
_space_group_symop_operation_xyz
x,y,z
-x,-y,z
x,-y,1/2-z
-x,y,1/2-z
-x,-y,-z
x,y,-z
-x,y,1/2+z
x,-y,1/2+z
1/2+x,1/2+y,z
1/2-x,1/2-y,z
1/2+x,1/2-y,1/2-z
1/2-x,1/2+y,1/2-z
1/2-x,1/2-y,-z
1/2+x,1/2+y,-z
1/2-x,1/2+y,1/2+z
1/2+x,1/2-y,1/2+z
loop_
_atom_site_type_symbol
_atom_site_label
_atom_site_fract_x
_atom_site_fract_y
_atom_site_fract_z
Si Si1 0.500000 0.287477 0.250000
Si Si2 0.815025 0.266607 0.602525
Si Si3 0.639589 0.990904 0.648914
Si Si4 0.527524 0.887546 0.600119
Si Si5 0.185937 0.273939 0.602895
Si Si6 0.877031 0.870179 0.749159
O O1 0.489696 0.208917 0.334574
O O2 0.442925 0.353699 0.243674
O O3 0.822585 0.237645 0.500000
O O4 0.750000 0.250000 0.622581
O O5 0.838382 0.391583 0.615896
O O6 0.849307 0.189479 0.667453
O O7 0.590534 0.926571 0.600057
O O8 0.685320 0.898170 0.641024
O O9 0.621576 0.000000 0.750000
O O10 0.509935 0.862953 0.500000
O O11 0.500000 0.000000 0.631885
O O12 0.168842 0.267450 0.500000
O O13 0.250000 0.250000 0.606646
O O14 0.148499 0.194390 0.664187
O O15 0.864111 0.000000 0.750000
#
# Coordination Sequence:
#
# PCOD9499587 Si02
#       6
#     8  16  16  16  16  16
#     4  12  24  44  64  94 130 177 227 282 340 398
#     4  11  25  43  67 101 139 177 219 275 342 409
#     4  12  22  40  69 101 136 173 219 278 338 405
#     4  11  22  37  64  98 133 171 217 273 334 397
#     4  11  25  44  70 101 133 173 223 279 336 403
#     4  12  27  45  68  94 133 180 231 276 336 407
#
# _framework density 19.691700000000001
#
# number of rings (size 3 to 8) (size 9 to 14) (size 15 to 20)
#    0.000    0.545    3.636    4.909    2.545    2.909 
#    0.000    0.000    0.000    3.273    0.000    0.000 
#    0.000    0.000    0.000    0.000    0.000    0.000 
#
# Total GULP energy -245626.992267 kJ/mol
# GULP energy per Si atom -5582.431642 kJ/mol
# Density = 1.964688 g / cm^3
# Si number density = 19.691700 Si / 1000 Ang^3
#
#
#
# Elastic Constant Matrix: (Units=GPa)
#
#
# Indices 1 2 3 4 5 6 
#
# 1 95.5040 34.4290 45.1067 0.0000 0.0000 0.0000
# 2 34.4290 152.4654 56.9690 0.0000 0.0000 0.0000
# 3 45.1067 56.9690 121.9396 0.0000 0.0000 0.0000
# 4 0.0000 0.0000 0.0000 12.8892 0.0000 0.0000
# 5 0.0000 0.0000 0.0000 0.0000 18.6985 0.0000
# 6 0.0000 0.0000 0.0000 0.0000 0.0000 17.9511
#
#
#
# Elastic Compliance Matrix: (Units=1/GPa)
#
#
# Indices 1 2 3 4 5 6 
#
# 1 0.012920 -0.001371 -0.004139 0.000000 0.000000 0.000000
# 2 -0.001371 0.008091 -0.003273 0.000000 0.000000 0.000000
# 3 -0.004139 -0.003273 0.011261 0.000000 0.000000 0.000000
# 4 0.000000 0.000000 0.000000 0.077584 0.000000 0.000000
# 5 0.000000 0.000000 0.000000 0.000000 0.053480 0.000000
# 6 0.000000 0.000000 0.000000 0.000000 0.000000 0.055707
#
#
# Mechanical properties :
#
#
# Convention : Reuss Voigt Hill
#
# Bulk Modulus (GPa) = 67.99701 71.43541 69.71621
# Shear Modulus (GPa) = 20.70300 25.46805 23.08552
#
# Velocity S-wave (km/s) = 3.24598 3.60020 3.42767
# Velocity P-wave (km/s) = 6.97526 7.32377 7.15164
#
# Compressibility (1/GPa) = 0.01470653
#
# Stress axis : x y z
#
# Youngs Moduli (GPa) = 77.40127 123.58697 88.80340
#
# Poissons Ratio (x) = 0.16945 0.36752
# Poissons Ratio (y) = 0.10612 0.29066
# Poissons Ratio (z) = 0.32033 0.40451
#
# Static dielectric constant tensor:
#      x y z
#    x 1.637400 0.000000 0.000000 
#    y 0.000000 1.699630 0.000000 
#    z 0.000000 0.000000 1.706540 
# 
# From -- ./inp_files/32198.got.cif
#   From: 2010.05.17/outbox.cif.g08.bks.cpg/sg66_17_cif.got.tgz:32198.got - 2010.06.03 17:51:23.
