data_PCOD9499968
_publ_section_title
;
Structure prediction by ZEFSAII (Michael W. Deem and Ramdas Pophale) SiO2 
 PCOD9499968
Probable space group: C C C M
;
_chemical_formula_sum "Si O2"
_cell_formula_units_Z 64
_cell_length_a 11.440001
_cell_length_b 28.437119
_cell_length_c 10.072396
_cell_angle_alpha 90.000000
_cell_angle_beta 90.000000
_cell_angle_gamma 90.000000
_cell_volume 3276.758613
_symmetry_space_group_name_H-M "C C C M"
_symmetry_group_IT_number 66
_symmetry_cell_setting 'orthorhombic'
loop_
_space_group_symop_operation_xyz
x,y,z
-x,-y,z
x,-y,1/2-z
-x,y,1/2-z
-x,-y,-z
x,y,-z
-x,y,1/2+z
x,-y,1/2+z
1/2+x,1/2+y,z
1/2-x,1/2-y,z
1/2+x,1/2-y,1/2-z
1/2-x,1/2+y,1/2-z
1/2-x,1/2-y,-z
1/2+x,1/2+y,-z
1/2-x,1/2+y,1/2+z
1/2+x,1/2-y,1/2+z
loop_
_atom_site_type_symbol
_atom_site_label
_atom_site_fract_x
_atom_site_fract_y
_atom_site_fract_z
Si Si1 0.639566 0.856762 0.245336
Si Si2 0.251444 0.456242 0.838672
Si Si3 0.491690 0.354273 0.500000
Si Si4 0.746644 0.306387 0.000000
Si Si5 0.000000 0.920980 0.750000
Si Si6 0.752330 0.194128 0.500000
O O1 0.500000 0.858579 0.250000
O O2 0.689019 0.908681 0.211773
O O3 0.693607 0.832480 0.375383
O O4 0.683699 0.824393 0.126564
O O5 0.207430 0.500000 0.750000
O O6 0.387945 0.449689 0.799979
O O7 0.239821 0.461412 0.000000
O O8 0.390913 0.316394 0.500000
O O9 0.472194 0.387057 0.627220
O O10 0.619254 0.330263 0.500000
O O11 0.750000 0.250000 0.000000
O O12 0.750000 0.250000 0.500000
#
# Coordination Sequence:
#
# PCOD9499968 Si02
#       6
#    16  16   8   8   8   8
#     4  12  26  48  70 101 148 186 232 290 344 420
#     4  12  27  46  71 104 138 184 234 289 359 419
#     4  12  22  42  75 100 144 180 227 298 348 406
#     4  12  27  44  71 112 137 184 243 285 342 410
#     4  12  21  44  68 102 144 180 224 292 357 412
#     4  12  25  48  73 102 141 192 233 291 354 408
#
# _framework density 19.531496000000001
#
# number of rings (size 3 to 8) (size 9 to 14) (size 15 to 20)
#    0.000    0.000    7.500    1.875    7.000    1.500 
#    0.000    1.250    0.000    0.000    0.000    0.000 
#    0.000    0.000    0.000    0.000    0.000    0.000 
#
# Total GULP energy -178873.102820 kJ/mol
# GULP energy per Si atom -5589.784463 kJ/mol
# Density = 1.948704 g / cm^3
# Si number density = 19.531496 Si / 1000 Ang^3
#
#
#
# Elastic Constant Matrix: (Units=GPa)
#
#
# Indices 1 2 3 4 5 6 
#
# 1 135.3037 44.7013 51.4614 0.0000 0.0000 0.0000
# 2 44.7013 189.7920 95.7822 0.0000 0.0000 0.0000
# 3 51.4614 95.7822 219.1242 0.0000 0.0000 0.0000
# 4 0.0000 0.0000 0.0000 35.4207 0.0000 0.0000
# 5 0.0000 0.0000 0.0000 0.0000 -6.1633 0.0000
# 6 0.0000 0.0000 0.0000 0.0000 0.0000 28.2857
#
#
#
# Elastic Compliance Matrix: (Units=1/GPa)
#
#
# Indices 1 2 3 4 5 6 
#
# 1 0.008341 -0.001252 -0.001412 0.000000 0.000000 0.000000
# 2 -0.001252 0.006948 -0.002743 0.000000 0.000000 0.000000
# 3 -0.001412 -0.002743 0.006094 0.000000 0.000000 0.000000
# 4 0.000000 0.000000 0.000000 0.028232 0.000000 0.000000
# 5 0.000000 0.000000 0.000000 0.000000 -0.162251 0.000000
# 6 0.000000 0.000000 0.000000 0.000000 0.000000 0.035354
#
#
# Mechanical properties :
#
#
# Convention : Reuss Voigt Hill
#
# Bulk Modulus (GPa) = 94.60793 103.12329 98.86561
# Shear Modulus (GPa) = -79.43489 34.99362 -22.22063
#
# Velocity S-wave (km/s) = -6.38423 4.23738 -3.37661
# Velocity P-wave (km/s) = 2.40848 8.76662 5.96040
#
# Compressibility (1/GPa) = 0.01056994
#
# Stress axis : x y z
#
# Youngs Moduli (GPa) = 119.88428 143.92211 164.09125
#
# Poissons Ratio (x) = 0.18022 0.23163
# Poissons Ratio (y) = 0.15012 0.45011
# Poissons Ratio (z) = 0.16923 0.39479
#
# Static dielectric constant tensor:
#      x y z
#    x 1.672710 0.000000 0.000000 
#    y 0.000000 1.697500 0.000000 
#    z 0.000000 0.000000 1.632720 
# 
# From -- ./inp_files/4034.got.cif
#   From: 2010.05.17/outbox.cif.g08.bks.cpg/sg66_3_cif.got.tgz:4034.got - 2010.06.03 17:51:23.
