data_PCOD9499030
_publ_section_title
;
Structure prediction by ZEFSAII (Michael W. Deem and Ramdas Pophale) SiO2 
 PCOD9499030
Probable space group: C C C M
;
_chemical_formula_sum "Si O2"
_cell_formula_units_Z 96
_cell_length_a 11.835259
_cell_length_b 24.312459
_cell_length_c 17.039271
_cell_angle_alpha 90.000000
_cell_angle_beta 90.000000
_cell_angle_gamma 90.000000
_cell_volume 4902.952241
_symmetry_space_group_name_H-M "C C C M"
_symmetry_group_IT_number 66
_symmetry_cell_setting 'orthorhombic'
loop_
_space_group_symop_operation_xyz
x,y,z
-x,-y,z
x,-y,1/2-z
-x,y,1/2-z
-x,-y,-z
x,y,-z
-x,y,1/2+z
x,-y,1/2+z
1/2+x,1/2+y,z
1/2-x,1/2-y,z
1/2+x,1/2-y,1/2-z
1/2-x,1/2+y,1/2-z
1/2-x,1/2-y,-z
1/2+x,1/2+y,-z
1/2-x,1/2+y,1/2+z
1/2+x,1/2-y,1/2+z
loop_
_atom_site_type_symbol
_atom_site_label
_atom_site_fract_x
_atom_site_fract_y
_atom_site_fract_z
Si Si1 0.868564 0.871784 0.667101
Si Si2 0.623930 0.752896 0.282803
Si Si3 0.736155 0.942954 0.203897
Si Si4 0.535487 0.063904 0.591090
Si Si5 0.656499 0.845742 0.413284
Si Si6 0.439929 0.558624 0.411266
O O1 0.894933 0.809414 0.689274
O O2 0.797192 0.901376 0.736053
O O3 0.781775 0.870110 0.594783
O O4 0.980965 0.903329 0.642615
O O5 0.500000 0.769680 0.250000
O O6 0.750000 0.750000 0.240141
O O7 0.645686 0.796853 0.351445
O O8 0.623597 0.923138 0.160221
O O9 0.822953 0.951336 0.132572
O O10 0.716640 0.000000 0.250000
O O11 0.576789 0.070955 0.500000
O O12 0.430101 0.104618 0.601087
O O13 0.500000 0.000000 0.598567
O O14 0.635790 0.823750 0.500000
O O15 0.500000 0.500000 0.415618
O O16 0.426666 0.580363 0.500000
#
# Coordination Sequence:
#
# PCOD9499030 Si02
#       6
#    16  16  16  16  16  16
#     4  11  23  39  63  92 123 160 207 262 307 371
#     4  10  23  41  65  93 125 164 211 265 321 374
#     4  12  23  37  60  90 124 161 206 254 309 378
#     4  10  23  41  61  89 127 164 205 255 317 381
#     4  10  23  42  66  92 122 162 208 258 312 379
#     4  11  23  38  58  84 123 164 201 247 308 368
#
# _framework density 19.580038999999999
#
# number of rings (size 3 to 8) (size 9 to 14) (size 15 to 20)
#    0.000    1.333    1.667    3.500    4.667    5.333 
#    0.000    0.000    0.000    0.500    0.000    0.000 
#    0.000    0.000    0.000    0.000    0.000    0.000 
#
# Total GULP energy -267798.495587 kJ/mol
# GULP energy per Si atom -5579.135325 kJ/mol
# Density = 1.953547 g / cm^3
# Si number density = 19.580039 Si / 1000 Ang^3
#
#
#
# Elastic Constant Matrix: (Units=GPa)
#
#
# Indices 1 2 3 4 5 6 
#
# 1 89.6480 -14.7939 18.1040 0.0000 0.0000 0.0000
# 2 -14.7939 54.2699 1.2224 0.0000 0.0000 0.0000
# 3 18.1040 1.2224 59.6508 0.0000 0.0000 0.0000
# 4 0.0000 0.0000 0.0000 13.9089 0.0000 0.0000
# 5 0.0000 0.0000 0.0000 0.0000 64.8331 0.0000
# 6 0.0000 0.0000 0.0000 0.0000 0.0000 26.4374
#
#
#
# Elastic Compliance Matrix: (Units=1/GPa)
#
#
# Indices 1 2 3 4 5 6 
#
# 1 0.012513 0.003498 -0.003870 0.000000 0.000000 0.000000
# 2 0.003498 0.019413 -0.001460 0.000000 0.000000 0.000000
# 3 -0.003870 -0.001460 0.017969 0.000000 0.000000 0.000000
# 4 0.000000 0.000000 0.000000 0.071896 0.000000 0.000000
# 5 0.000000 0.000000 0.000000 0.000000 0.015424 0.000000
# 6 0.000000 0.000000 0.000000 0.000000 0.000000 0.037825
#
#
# Mechanical properties :
#
#
# Convention : Reuss Voigt Hill
#
# Bulk Modulus (GPa) = 21.62937 23.62595 22.62766
# Shear Modulus (GPa) = 25.75815 34.30497 30.03156
#
# Velocity S-wave (km/s) = 3.63096 4.19028 3.92060
# Velocity P-wave (km/s) = 5.35249 5.95850 5.66361
#
# Compressibility (1/GPa) = 0.04623344
#
# Stress axis : x y z
#
# Youngs Moduli (GPa) = 79.91390 51.51200 55.65279
#
# Poissons Ratio (x) = -0.18021 0.21535
# Poissons Ratio (y) = -0.27956 0.08123
# Poissons Ratio (z) = 0.30923 0.07519
#
# Static dielectric constant tensor:
#      x y z
#    x 1.737980 0.000000 0.000000 
#    y 0.000000 1.648440 0.000000 
#    z 0.000000 0.000000 1.716030 
# 
# From -- ./inp_files/38862.got.cif
#   From: 2010.05.17/outbox.cif.g08.bks.cpg/sg66_20_cif.got.tgz:38862.got - 2010.06.03 17:51:23.
