data_PCOD9499933
_publ_section_title
;
Structure prediction by ZEFSAII (Michael W. Deem and Ramdas Pophale) SiO2 
 PCOD9499933
Probable space group: C C C M
;
_chemical_formula_sum "Si O2"
_cell_formula_units_Z 64
_cell_length_a 5.275573
_cell_length_b 19.791120
_cell_length_c 26.238686
_cell_angle_alpha 90.000000
_cell_angle_beta 90.000000
_cell_angle_gamma 90.000000
_cell_volume 2739.568042
_symmetry_space_group_name_H-M "C C C M"
_symmetry_group_IT_number 66
_symmetry_cell_setting 'orthorhombic'
loop_
_space_group_symop_operation_xyz
x,y,z
-x,-y,z
x,-y,1/2-z
-x,y,1/2-z
-x,-y,-z
x,y,-z
-x,y,1/2+z
x,-y,1/2+z
1/2+x,1/2+y,z
1/2-x,1/2-y,z
1/2+x,1/2-y,1/2-z
1/2-x,1/2+y,1/2-z
1/2-x,1/2-y,-z
1/2+x,1/2+y,-z
1/2-x,1/2+y,1/2+z
1/2+x,1/2-y,1/2+z
loop_
_atom_site_type_symbol
_atom_site_label
_atom_site_fract_x
_atom_site_fract_y
_atom_site_fract_z
Si Si1 0.524257 0.074090 0.652258
Si Si2 0.878514 0.641765 0.441313
Si Si3 0.664446 0.679914 0.707044
Si Si4 0.621882 0.672083 0.891075
O O1 0.387145 0.077794 0.596719
O O2 0.385684 0.131328 0.686129
O O3 0.803208 0.099772 0.636110
O O4 0.500000 0.000000 0.674194
O O5 0.930768 0.628822 0.500000
O O6 0.598037 0.669882 0.432770
O O7 0.106362 0.687398 0.417095
O O8 0.500000 0.643062 0.750000
O O9 0.750000 0.750000 0.731831
O O10 0.501552 0.705606 0.658357
#
# Coordination Sequence:
#
# PCOD9499933 Si02
#       4
#    16  16  16  16
#     4   9  22  44  67 100 145 178 224 287 351 410
#     4   9  18  36  66 100 140 183 227 276 339 410
#     4  11  26  43  74  99 131 180 239 289 348 421
#     4   9  21  40  62 100 140 174 223 288 339 400
#
# _framework density 23.361349000000001
#
# number of rings (size 3 to 8) (size 9 to 14) (size 15 to 20)
#    1.500    1.000    0.000    0.750    3.500    4.500 
#    0.000    5.000    0.000   24.750    0.000    0.000 
#    0.000    0.000    0.000    0.000    0.000    0.000 
#
# Total GULP energy -178135.319715 kJ/mol
# GULP energy per Si atom -5566.728741 kJ/mol
# Density = 2.330818 g / cm^3
# Si number density = 23.361349 Si / 1000 Ang^3
#
#
#
# Elastic Constant Matrix: (Units=GPa)
#
#
# Indices 1 2 3 4 5 6 
#
# 1 148.9747 26.6417 23.4274 0.0000 0.0000 0.0000
# 2 26.6417 93.0713 -3.6650 0.0000 0.0000 0.0000
# 3 23.4274 -3.6650 105.8593 0.0000 0.0000 0.0000
# 4 0.0000 0.0000 0.0000 9.8871 0.0000 0.0000
# 5 0.0000 0.0000 0.0000 0.0000 34.7271 0.0000
# 6 0.0000 0.0000 0.0000 0.0000 0.0000 18.7242
#
#
#
# Elastic Compliance Matrix: (Units=1/GPa)
#
#
# Indices 1 2 3 4 5 6 
#
# 1 0.007370 -0.002177 -0.001706 0.000000 0.000000 0.000000
# 2 -0.002177 0.011402 0.000877 0.000000 0.000000 0.000000
# 3 -0.001706 0.000877 0.009854 0.000000 0.000000 0.000000
# 4 0.000000 0.000000 0.000000 0.101142 0.000000 0.000000
# 5 0.000000 0.000000 0.000000 0.000000 0.028796 0.000000
# 6 0.000000 0.000000 0.000000 0.000000 0.000000 0.053407
#
#
# Mechanical properties :
#
#
# Convention : Reuss Voigt Hill
#
# Bulk Modulus (GPa) = 44.22209 48.96816 46.59512
# Shear Modulus (GPa) = 22.17072 32.76776 27.46924
#
# Velocity S-wave (km/s) = 3.08398 3.74926 3.43277
# Velocity P-wave (km/s) = 5.62601 6.30470 5.97500
#
# Compressibility (1/GPa) = 0.02261313
#
# Stress axis : x y z
#
# Youngs Moduli (GPa) = 135.68140 87.70307 101.47655
#
# Poissons Ratio (x) = 0.19092 0.17316
# Poissons Ratio (y) = 0.29537 -0.08895
# Poissons Ratio (z) = 0.23153 -0.07687
#
# Static dielectric constant tensor:
#      x y z
#    x 2.063190 0.000000 0.000000 
#    y 0.000000 2.009920 0.000000 
#    z 0.000000 0.000000 1.830050 
# 
# From -- ./inp_files/61215.got.cif
#   From: 2010.05.17/outbox.cif.g08.bks.cpg/sg66_31_cif.got.tgz:61215.got - 2010.06.03 17:51:23.
