data_PCOD9499445
_publ_section_title
;
Structure prediction by ZEFSAII (Michael W. Deem and Ramdas Pophale) SiO2 
 PCOD9499445
Probable space group: C C C M
;
_chemical_formula_sum "Si O2"
_cell_formula_units_Z 84
_cell_length_a 24.604188
_cell_length_b 24.977802
_cell_length_c 9.158078
_cell_angle_alpha 90.000000
_cell_angle_beta 90.000000
_cell_angle_gamma 90.000000
_cell_volume 5628.175010
_symmetry_space_group_name_H-M "C C C M"
_symmetry_group_IT_number 66
_symmetry_cell_setting 'orthorhombic'
loop_
_space_group_symop_operation_xyz
x,y,z
-x,-y,z
x,-y,1/2-z
-x,y,1/2-z
-x,-y,-z
x,y,-z
-x,y,1/2+z
x,-y,1/2+z
1/2+x,1/2+y,z
1/2-x,1/2-y,z
1/2+x,1/2-y,1/2-z
1/2-x,1/2+y,1/2-z
1/2-x,1/2-y,-z
1/2+x,1/2+y,-z
1/2-x,1/2+y,1/2+z
1/2+x,1/2-y,1/2+z
loop_
_atom_site_type_symbol
_atom_site_label
_atom_site_fract_x
_atom_site_fract_y
_atom_site_fract_z
Si Si1 0.500000 0.000000 0.250000
Si Si2 0.299125 0.945240 0.825077
Si Si3 0.839599 0.247381 0.823423
Si Si4 0.252047 0.335160 0.323518
Si Si5 0.943016 0.295226 0.673678
Si Si6 0.408724 0.082036 0.164738
O O1 0.541312 0.959573 0.169502
O O2 0.262990 0.894611 0.775479
O O3 0.361188 0.934193 0.775243
O O4 0.281433 0.000000 0.750000
O O5 0.297278 0.949403 0.000000
O O6 0.797601 0.295415 0.786097
O O7 0.808019 0.193234 0.777935
O O8 0.895438 0.259868 0.743849
O O9 0.846614 0.247400 0.000000
O O10 0.253588 0.335907 0.500000
O O11 0.946187 0.287453 0.500000
O O12 0.928923 0.358093 0.699119
O O13 0.000000 0.283549 0.750000
O O14 0.385990 0.081796 0.000000
#
# Coordination Sequence:
#
# PCOD9499445 Si02
#       6
#     4  16  16  16  16  16
#     4  12  22  36  48  58  86 128 174 208 234 268
#     4  11  21  33  49  69  94 124 157 198 239 283
#     4   9  16  32  53  71  90 121 160 198 239 290
#     4   8  16  30  51  72  92 121 158 194 241 293
#     4  11  22  34  47  69  96 124 159 202 246 285
#     4  11  23  34  45  63  88 122 166 206 240 276
#
# _framework density 14.924909
#
# number of rings (size 3 to 8) (size 9 to 14) (size 15 to 20)
#    0.000    1.905    3.810    2.571    0.000    1.524 
#    0.000    3.810    0.000    0.000    0.000    0.000 
#    0.000    0.762    0.000    8.762    0.000    2.667 
#
# Total GULP energy -234180.823176 kJ/mol
# GULP energy per Si atom -5575.733885 kJ/mol
# Density = 1.489094 g / cm^3
# Si number density = 14.924909 Si / 1000 Ang^3
#
#
#
# Elastic Constant Matrix: (Units=GPa)
#
#
# Indices 1 2 3 4 5 6 
#
# 1 101.7009 73.4259 42.1957 0.0000 0.0000 0.0000
# 2 73.4259 111.3899 41.1548 0.0000 0.0000 0.0000
# 3 42.1957 41.1548 50.4290 0.0000 0.0000 0.0000
# 4 0.0000 0.0000 0.0000 35.3999 0.0000 0.0000
# 5 0.0000 0.0000 0.0000 0.0000 18.1651 0.0000
# 6 0.0000 0.0000 0.0000 0.0000 0.0000 28.4270
#
#
#
# Elastic Compliance Matrix: (Units=1/GPa)
#
#
# Indices 1 2 3 4 5 6 
#
# 1 0.021343 -0.010695 -0.009130 0.000000 0.000000 0.000000
# 2 -0.010695 0.018213 -0.005914 0.000000 0.000000 0.000000
# 3 -0.009130 -0.005914 0.032295 0.000000 0.000000 0.000000
# 4 0.000000 0.000000 0.000000 0.028249 0.000000 0.000000
# 5 0.000000 0.000000 0.000000 0.000000 0.055051 0.000000
# 6 0.000000 0.000000 0.000000 0.000000 0.000000 0.035178
#
#
# Mechanical properties :
#
#
# Convention : Reuss Voigt Hill
#
# Bulk Modulus (GPa) = 49.08586 64.11919 56.60252
# Shear Modulus (GPa) = 20.11291 23.51461 21.81376
#
# Velocity S-wave (km/s) = 3.67496 3.97360 3.82719
# Velocity P-wave (km/s) = 7.13912 8.00669 7.58532
#
# Compressibility (1/GPa) = 0.02037247
#
# Stress axis : x y z
#
# Youngs Moduli (GPa) = 46.85482 54.90657 30.96429
#
# Poissons Ratio (x) = 0.58725 0.28269
# Poissons Ratio (y) = 0.50114 0.18312
# Poissons Ratio (z) = 0.42776 0.32472
#
# Static dielectric constant tensor:
#      x y z
#    x 1.477540 0.000000 0.000000 
#    y 0.000000 1.507110 0.000000 
#    z 0.000000 0.000000 1.500940 
# 
# From -- ./inp_files/7908.got.cif
#   From: 2010.05.17/outbox.cif.g08.bks.cpg/sg66_4_cif.got.tgz:7908.got - 2010.06.03 17:51:23.
