data_PCOD9499826
_publ_section_title
;
Structure prediction by ZEFSAII (Michael W. Deem and Ramdas Pophale) SiO2 
 PCOD9499826
Probable space group: C C C M
;
_chemical_formula_sum "Si O2"
_cell_formula_units_Z 96
_cell_length_a 13.745318
_cell_length_b 21.173685
_cell_length_c 15.229283
_cell_angle_alpha 90.000000
_cell_angle_beta 90.000000
_cell_angle_gamma 90.000000
_cell_volume 4432.315806
_symmetry_space_group_name_H-M "C C C M"
_symmetry_group_IT_number 66
_symmetry_cell_setting 'orthorhombic'
loop_
_space_group_symop_operation_xyz
x,y,z
-x,-y,z
x,-y,1/2-z
-x,y,1/2-z
-x,-y,-z
x,y,-z
-x,y,1/2+z
x,-y,1/2+z
1/2+x,1/2+y,z
1/2-x,1/2-y,z
1/2+x,1/2-y,1/2-z
1/2-x,1/2+y,1/2-z
1/2-x,1/2-y,-z
1/2+x,1/2+y,-z
1/2-x,1/2+y,1/2+z
1/2+x,1/2-y,1/2+z
loop_
_atom_site_type_symbol
_atom_site_label
_atom_site_fract_x
_atom_site_fract_y
_atom_site_fract_z
Si Si1 0.024789 0.817795 0.351940
Si Si2 0.363564 0.160946 0.500000
Si Si3 0.614290 0.986755 0.500000
Si Si4 0.363564 0.660946 0.000000
Si Si5 0.357474 0.053236 0.179611
Si Si6 0.142526 0.053236 0.820389
Si Si7 0.975211 0.317795 0.648060
Si Si8 0.885710 0.013245 0.000000
O O1 0.082922 0.884115 0.348977
O O2 0.000000 0.812458 0.250000
O O3 0.929782 0.821827 0.414831
O O4 0.074036 0.750000 0.376984
O O5 0.362103 0.086003 0.500000
O O6 0.250000 0.182208 0.500000
O O7 0.429782 0.178173 0.585169
O O8 0.500000 0.000000 0.500000
O O9 0.650949 0.016534 0.410971
O O10 0.362103 0.586003 0.000000
O O11 0.250000 0.073077 0.212448
O O12 0.417078 0.115885 0.151023
O O13 0.393870 0.000000 0.250000
O O14 0.150949 0.016534 0.910971
O O15 0.106130 0.000000 0.750000
O O16 0.000000 0.312458 0.750000
O O17 0.000000 0.000000 0.000000
#
# Coordination Sequence:
#
# PCOD9499826 Si02
#       8
#    16   8   8   8  16  16  16   8
#     4  11  25  43  66  98 138 184 228 281 349 412
#     4  12  25  44  71 102 137 184 241 293 342 410
#     4  12  22  39  66  94 127 170 220 280 336 401
#     4  12  25  44  71 102 137 184 241 293 342 410
#     4  11  24  42  68 101 134 173 224 280 343 413
#     4  11  24  42  68 101 134 173 224 280 343 413
#     4  11  25  43  66  98 138 184 228 281 349 412
#     4  12  22  39  66  94 127 170 220 280 336 401
#
# _framework density 21.659108
#
# number of rings (size 3 to 8) (size 9 to 14) (size 15 to 20)
#    0.000    0.667    3.333    4.000    0.000    6.000 
#    0.000    3.333    0.000    5.000    0.000    0.000 
#    0.000    0.000    0.000    0.000    0.000    0.000 
#
# Total GULP energy -267336.756157 kJ/mol
# GULP energy per Si atom -5569.515753 kJ/mol
# Density = 2.160981 g / cm^3
# Si number density = 21.659108 Si / 1000 Ang^3
#
#
#
# Elastic Constant Matrix: (Units=GPa)
#
#
# Indices 1 2 3 4 5 6 
#
# 1 163.1522 58.7903 44.4737 0.0000 0.0000 0.0000
# 2 58.7903 240.8873 54.9783 0.0000 0.0000 0.0000
# 3 44.4737 54.9783 163.0280 0.0000 0.0000 0.0000
# 4 0.0000 0.0000 0.0000 45.6893 0.0000 0.0000
# 5 0.0000 0.0000 0.0000 0.0000 24.6027 0.0000
# 6 0.0000 0.0000 0.0000 0.0000 0.0000 75.6232
#
#
#
# Elastic Compliance Matrix: (Units=1/GPa)
#
#
# Indices 1 2 3 4 5 6 
#
# 1 0.007023 -0.001383 -0.001449 0.000000 0.000000 0.000000
# 2 -0.001383 0.004770 -0.001231 0.000000 0.000000 0.000000
# 3 -0.001449 -0.001231 0.006945 0.000000 0.000000 0.000000
# 4 0.000000 0.000000 0.000000 0.021887 0.000000 0.000000
# 5 0.000000 0.000000 0.000000 0.000000 0.040646 0.000000
# 6 0.000000 0.000000 0.000000 0.000000 0.000000 0.013223
#
#
# Mechanical properties :
#
#
# Convention : Reuss Voigt Hill
#
# Bulk Modulus (GPa) = 94.25381 98.17247 96.21314
# Shear Modulus (GPa) = 47.09979 56.43805 51.76892
#
# Velocity S-wave (km/s) = 4.66831 5.11018 4.89424
# Velocity P-wave (km/s) = 8.52461 8.95786 8.74392
#
# Compressibility (1/GPa) = 0.01060965
#
# Stress axis : x y z
#
# Youngs Moduli (GPa) = 142.39476 209.64803 143.99875
#
# Poissons Ratio (x) = 0.28998 0.20870
# Poissons Ratio (y) = 0.19696 0.17730
# Poissons Ratio (z) = 0.20638 0.25813
#
# Static dielectric constant tensor:
#      x y z
#    x 2.232410 0.000000 0.000000 
#    y 0.000000 1.875770 0.000000 
#    z 0.000000 0.000000 1.747130 
# 
# From -- ./inp_files/28484.got.cif
#   From: 2010.05.17/outbox.cif.g08.bks.cpg/sg66_15_cif.got.tgz:28484.got - 2010.06.03 17:51:23.
