data_PCOD9499810
_publ_section_title
;
Structure prediction by ZEFSAII (Michael W. Deem and Ramdas Pophale) SiO2 
 PCOD9499810
Probable space group: C C C M
;
_chemical_formula_sum "Si O2"
_cell_formula_units_Z 64
_cell_length_a 12.911633
_cell_length_b 15.144675
_cell_length_c 15.837406
_cell_angle_alpha 90.000000
_cell_angle_beta 90.000000
_cell_angle_gamma 90.000000
_cell_volume 3096.885733
_symmetry_space_group_name_H-M "C C C M"
_symmetry_group_IT_number 66
_symmetry_cell_setting 'orthorhombic'
loop_
_space_group_symop_operation_xyz
x,y,z
-x,-y,z
x,-y,1/2-z
-x,y,1/2-z
-x,-y,-z
x,y,-z
-x,y,1/2+z
x,-y,1/2+z
1/2+x,1/2+y,z
1/2-x,1/2-y,z
1/2+x,1/2-y,1/2-z
1/2-x,1/2+y,1/2-z
1/2-x,1/2-y,-z
1/2+x,1/2+y,-z
1/2-x,1/2+y,1/2+z
1/2+x,1/2-y,1/2+z
loop_
_atom_site_type_symbol
_atom_site_label
_atom_site_fract_x
_atom_site_fract_y
_atom_site_fract_z
Si Si1 0.984004 0.397761 0.149024
Si Si2 0.748822 0.146454 0.092055
Si Si3 0.378190 0.402614 0.750746
Si Si4 0.871495 0.231952 0.407268
O O1 0.865365 0.377848 0.125087
O O2 0.000000 0.500000 0.121011
O O3 0.000000 0.394894 0.250000
O O4 0.060966 0.320666 0.113557
O O5 0.750000 0.250000 0.080565
O O6 0.834714 0.133518 0.163398
O O7 0.768587 0.103453 0.000000
O O8 0.327690 0.500000 0.750000
O O9 0.500000 0.413005 0.750000
O O10 0.367556 0.338466 0.830904
O O11 0.909096 0.199154 0.500000
O O12 0.750000 0.250000 0.415747
#
# Coordination Sequence:
#
# PCOD9499810 Si02
#       4
#    16  16  16  16
#     4  11  24  41  70 106 143 188 238 294 358 430
#     4  11  24  42  68  97 134 180 233 295 358 422
#     4  11  25  43  66  95 132 181 236 292 359 440
#     4  11  24  42  67  98 141 188 232 293 366 437
#
# _framework density 20.665921999999998
#
# number of rings (size 3 to 8) (size 9 to 14) (size 15 to 20)
#    0.000    1.000    0.000    6.750    7.000    6.000 
#    0.000    2.500    0.000    0.000    0.000    0.000 
#    0.000    0.000    0.000    0.000    0.000    0.000 
#
# Total GULP energy -178228.497844 kJ/mol
# GULP energy per Si atom -5569.640558 kJ/mol
# Density = 2.061889 g / cm^3
# Si number density = 20.665922 Si / 1000 Ang^3
#
#
#
# Elastic Constant Matrix: (Units=GPa)
#
#
# Indices 1 2 3 4 5 6 
#
# 1 110.4285 35.3832 58.5193 0.0000 0.0000 0.0000
# 2 35.3832 115.4718 75.2014 0.0000 0.0000 0.0000
# 3 58.5193 75.2014 200.1769 0.0000 0.0000 0.0000
# 4 0.0000 0.0000 0.0000 52.2684 0.0000 0.0000
# 5 0.0000 0.0000 0.0000 0.0000 94.1658 0.0000
# 6 0.0000 0.0000 0.0000 0.0000 0.0000 25.5270
#
#
#
# Elastic Compliance Matrix: (Units=1/GPa)
#
#
# Indices 1 2 3 4 5 6 
#
# 1 0.010957 -0.001683 -0.002571 0.000000 0.000000 0.000000
# 2 -0.001683 0.011724 -0.003912 0.000000 0.000000 0.000000
# 3 -0.002571 -0.003912 0.007217 0.000000 0.000000 0.000000
# 4 0.000000 0.000000 0.000000 0.019132 0.000000 0.000000
# 5 0.000000 0.000000 0.000000 0.000000 0.010620 0.000000
# 6 0.000000 0.000000 0.000000 0.000000 0.000000 0.039174
#
#
# Mechanical properties :
#
#
# Convention : Reuss Voigt Hill
#
# Bulk Modulus (GPa) = 73.71801 84.92055 79.31928
# Shear Modulus (GPa) = 41.77864 51.52380 46.65122
#
# Velocity S-wave (km/s) = 4.50112 4.99859 4.75636
# Velocity P-wave (km/s) = 7.92226 8.63109 8.28426
#
# Compressibility (1/GPa) = 0.01356521
#
# Stress axis : x y z
#
# Youngs Moduli (GPa) = 91.26270 85.29675 138.56406
#
# Poissons Ratio (x) = 0.14358 0.35623
# Poissons Ratio (y) = 0.15362 0.54210
# Poissons Ratio (z) = 0.23463 0.33370
#
# Static dielectric constant tensor:
#      x y z
#    x 1.731360 0.000000 0.000000 
#    y 0.000000 1.802160 0.000000 
#    z 0.000000 0.000000 2.336950 
# 
# From -- ./inp_files/25794.got.cif
#   From: 2010.05.17/outbox.cif.g08.bks.cpg/sg66_13_cif.got.tgz:25794.got - 2010.06.03 17:51:23.
