data_PCOD9499718
_publ_section_title
;
Structure prediction by ZEFSAII (Michael W. Deem and Ramdas Pophale) SiO2 
 PCOD9499718
Probable space group: C C C M
;
_chemical_formula_sum "Si O2"
_cell_formula_units_Z 84
_cell_length_a 11.518055
_cell_length_b 10.272795
_cell_length_c 31.894322
_cell_angle_alpha 90.000000
_cell_angle_beta 90.000000
_cell_angle_gamma 90.000000
_cell_volume 3773.819672
_symmetry_space_group_name_H-M "C C C M"
_symmetry_group_IT_number 66
_symmetry_cell_setting 'orthorhombic'
loop_
_space_group_symop_operation_xyz
x,y,z
-x,-y,z
x,-y,1/2-z
-x,y,1/2-z
-x,-y,-z
x,y,-z
-x,y,1/2+z
x,-y,1/2+z
1/2+x,1/2+y,z
1/2-x,1/2-y,z
1/2+x,1/2-y,1/2-z
1/2-x,1/2+y,1/2-z
1/2-x,1/2-y,-z
1/2+x,1/2+y,-z
1/2-x,1/2+y,1/2+z
1/2+x,1/2-y,1/2+z
loop_
_atom_site_type_symbol
_atom_site_label
_atom_site_fract_x
_atom_site_fract_y
_atom_site_fract_z
Si Si1 0.059770 0.301881 0.862404
Si Si2 0.000000 0.000000 0.750000
Si Si3 0.212910 0.037380 0.545564
Si Si4 0.364096 0.315351 0.686994
Si Si5 0.553523 0.210560 0.047025
Si Si6 0.786839 0.053957 0.633987
O O1 0.125223 0.165866 0.851900
O O2 0.155800 0.410861 0.853539
O O3 0.947313 0.292813 0.833365
O O4 0.022445 0.309711 0.911376
O O5 0.924561 0.906094 0.720846
O O6 0.204357 0.975265 0.500000
O O7 0.335774 0.113164 0.548821
O O8 0.111888 0.146167 0.548788
O O9 0.205249 0.941655 0.583911
O O10 0.250000 0.250000 0.705245
O O11 0.325190 0.413130 0.649704
O O12 0.500983 0.193819 0.000000
#
# Coordination Sequence:
#
# PCOD9499718 Si02
#       6
#    16   4  16  16  16  16
#     4  11  23  40  65  98 137 179 226 274 326 391
#     4  12  28  52  76 108 138 164 208 260 344 412
#     4   9  18  33  55  87 129 178 230 280 329 378
#     4  12  26  48  77 103 135 172 211 269 332 399
#     4   9  18  33  55  87 129 178 230 280 329 378
#     4  11  23  40  65  98 137 179 226 274 326 391
#
# _framework density 22.258617000000001
#
# number of rings (size 3 to 8) (size 9 to 14) (size 15 to 20)
#    0.000    1.524    3.810    2.286    0.000    6.095 
#    0.000    5.714    0.000    0.000    0.000    0.000 
#    0.000    0.000    0.000    0.000    0.000    0.000 
#
# Total GULP energy -234926.029657 kJ/mol
# GULP energy per Si atom -5593.476897 kJ/mol
# Density = 2.220796 g / cm^3
# Si number density = 22.258617 Si / 1000 Ang^3
#
#
#
# Elastic Constant Matrix: (Units=GPa)
#
#
# Indices 1 2 3 4 5 6 
#
# 1 99.2123 10.2509 39.7873 0.0000 0.0000 0.0000
# 2 10.2509 28.1944 6.7342 0.0000 0.0000 0.0000
# 3 39.7873 6.7342 82.0377 0.0000 0.0000 0.0000
# 4 0.0000 0.0000 0.0000 -130.8455 0.0000 0.0000
# 5 0.0000 0.0000 0.0000 0.0000 2.8049 0.0000
# 6 0.0000 0.0000 0.0000 0.0000 0.0000 23.4426
#
#
#
# Elastic Compliance Matrix: (Units=1/GPa)
#
#
# Indices 1 2 3 4 5 6 
#
# 1 0.012796 -0.003233 -0.005940 0.000000 0.000000 0.000000
# 2 -0.003233 0.036994 -0.001469 0.000000 0.000000 0.000000
# 3 -0.005940 -0.001469 0.015191 0.000000 0.000000 0.000000
# 4 0.000000 0.000000 0.000000 -0.007643 0.000000 0.000000
# 5 0.000000 0.000000 0.000000 0.000000 0.356520 0.000000
# 6 0.000000 0.000000 0.000000 0.000000 0.000000 0.042657
#
#
# Mechanical properties :
#
#
# Convention : Reuss Voigt Hill
#
# Bulk Modulus (GPa) = 22.88511 35.88768 29.38640
# Shear Modulus (GPa) = 10.15504 -10.74148 -0.29322
#
# Velocity S-wave (km/s) = 2.13827 -2.19914 -0.36334
# Velocity P-wave (km/s) = 4.04970 3.11605 3.61316
#
# Compressibility (1/GPa) = 0.04369654
#
# Stress axis : x y z
#
# Youngs Moduli (GPa) = 78.15082 27.03108 65.82807
#
# Poissons Ratio (x) = 0.08740 0.39104
# Poissons Ratio (y) = 0.25269 0.09667
# Poissons Ratio (z) = 0.46425 0.03970
#
# Static dielectric constant tensor:
#      x y z
#    x 1.850910 0.000000 0.000000 
#    y 0.000000 2.256090 0.000000 
#    z 0.000000 0.000000 1.792570 
# 
# From -- ./inp_files/68899.got.cif
#   From: 2010.05.17/outbox.cif.g08.bks.cpg/sg66_35_cif.got.tgz:68899.got - 2010.06.03 17:51:23.
