data_PCOD9499975
_publ_section_title
;
Structure prediction by ZEFSAII (Michael W. Deem and Ramdas Pophale) SiO2 
 PCOD9499975
Probable space group: C C C M
;
_chemical_formula_sum "Si O2"
_cell_formula_units_Z 68
_cell_length_a 33.066229
_cell_length_b 5.200976
_cell_length_c 19.796539
_cell_angle_alpha 90.000000
_cell_angle_beta 90.000000
_cell_angle_gamma 90.000000
_cell_volume 3404.542725
_symmetry_space_group_name_H-M "C C C M"
_symmetry_group_IT_number 66
_symmetry_cell_setting 'orthorhombic'
loop_
_space_group_symop_operation_xyz
x,y,z
-x,-y,z
x,-y,1/2-z
-x,y,1/2-z
-x,-y,-z
x,y,-z
-x,y,1/2+z
x,-y,1/2+z
1/2+x,1/2+y,z
1/2-x,1/2-y,z
1/2+x,1/2-y,1/2-z
1/2-x,1/2+y,1/2-z
1/2-x,1/2-y,-z
1/2+x,1/2+y,-z
1/2-x,1/2+y,1/2+z
1/2+x,1/2-y,1/2+z
loop_
_atom_site_type_symbol
_atom_site_label
_atom_site_fract_x
_atom_site_fract_y
_atom_site_fract_z
Si Si1 0.336883 0.561593 0.121825
Si Si2 0.000000 0.000000 0.750000
Si Si3 0.720970 0.500000 0.250000
Si Si4 0.722974 0.497905 0.500000
Si Si5 0.114715 0.430978 0.082182
Si Si6 0.954349 0.605147 0.678250
O O1 0.309939 0.552605 0.188715
O O2 0.371117 0.340365 0.114486
O O3 0.354682 0.842760 0.105376
O O4 0.305516 0.494275 0.063831
O O5 0.033509 0.105847 0.696203
O O6 0.750000 0.750000 0.239539
O O7 0.750000 0.250000 0.500000
O O8 0.750000 0.750000 0.500000
O O9 0.072847 0.524735 0.116074
O O10 0.113525 0.414277 0.000000
O O11 0.936982 0.500000 0.750000
O O12 0.000000 0.500000 0.672549
#
# Coordination Sequence:
#
# PCOD9499975 Si02
#       6
#    16   4   8   8  16  16
#     4  12  26  44  66 102 134 171 222 272 335 392
#     4   8  18  42  62  98 128 164 242 262 330 384
#     4  12  26  47  70 100 131 168 225 284 332 400
#     4  12  22  42  70  90 125 177 214 260 322 390
#     4  12  25  44  65  99 140 177 218 273 324 397
#     4   9  22  40  68  97 128 176 225 268 328 392
#
# _framework density 19.973313000000001
#
# number of rings (size 3 to 8) (size 9 to 14) (size 15 to 20)
#    0.000    1.176    2.353    4.235    9.882    0.471 
#    0.000    0.588    0.000    0.000    0.000    0.000 
#    0.000    0.000    0.000    0.000    0.000    0.000 
#
# Total GULP energy -189395.242737 kJ/mol
# GULP energy per Si atom -5570.448316 kJ/mol
# Density = 1.992785 g / cm^3
# Si number density = 19.973313 Si / 1000 Ang^3
#
#
#
# Elastic Constant Matrix: (Units=GPa)
#
#
# Indices 1 2 3 4 5 6 
#
# 1 53.8181 -18.5110 14.9097 0.0000 0.0000 0.0000
# 2 -18.5110 45.7055 -33.3801 0.0000 0.0000 0.0000
# 3 14.9097 -33.3801 94.3195 0.0000 0.0000 0.0000
# 4 0.0000 0.0000 0.0000 24.8520 0.0000 0.0000
# 5 0.0000 0.0000 0.0000 0.0000 48.3763 0.0000
# 6 0.0000 0.0000 0.0000 0.0000 0.0000 249.3810
#
#
#
# Elastic Compliance Matrix: (Units=1/GPa)
#
#
# Indices 1 2 3 4 5 6 
#
# 1 0.021601 0.008435 -0.000429 0.000000 0.000000 0.000000
# 2 0.008435 0.032799 0.010274 0.000000 0.000000 0.000000
# 3 -0.000429 0.010274 0.014306 0.000000 0.000000 0.000000
# 4 0.000000 0.000000 0.000000 0.040238 0.000000 0.000000
# 5 0.000000 0.000000 0.000000 0.000000 0.020671 0.000000
# 6 0.000000 0.000000 0.000000 0.000000 0.000000 0.004010
#
#
# Mechanical properties :
#
#
# Convention : Reuss Voigt Hill
#
# Bulk Modulus (GPa) = 9.49969 13.32004 11.40986
# Shear Modulus (GPa) = 37.83430 79.91016 58.87223
#
# Velocity S-wave (km/s) = 4.35701 6.33209 5.43502
# Velocity P-wave (km/s) = 5.48433 7.75524 6.71646
#
# Compressibility (1/GPa) = 0.10526658
#
# Stress axis : x y z
#
# Youngs Moduli (GPa) = 46.29336 30.48863 69.89925
#
# Poissons Ratio (x) = -0.25717 0.03002
# Poissons Ratio (y) = -0.39048 -0.71817
# Poissons Ratio (z) = 0.01988 -0.31325
#
# Static dielectric constant tensor:
#      x y z
#    x 1.691170 0.000000 0.000000 
#    y 0.000000 2.039930 0.000000 
#    z 0.000000 0.000000 1.778620 
# 
# From -- ./inp_files/52840.got.cif
#   From: 2010.05.17/outbox.cif.g08.bks.cpg/sg66_27_cif.got.tgz:52840.got - 2010.06.03 17:51:23.
