data_PCOD9499733
_publ_section_title
;
Structure prediction by ZEFSAII (Michael W. Deem and Ramdas Pophale) SiO2 
 PCOD9499733
Probable space group: C C C M
;
_chemical_formula_sum "Si O2"
_cell_formula_units_Z 56
_cell_length_a 14.205731
_cell_length_b 5.747216
_cell_length_c 32.949773
_cell_angle_alpha 90.000000
_cell_angle_beta 90.000000
_cell_angle_gamma 90.000000
_cell_volume 2690.131645
_symmetry_space_group_name_H-M "C C C M"
_symmetry_group_IT_number 66
_symmetry_cell_setting 'orthorhombic'
loop_
_space_group_symop_operation_xyz
x,y,z
-x,-y,z
x,-y,1/2-z
-x,y,1/2-z
-x,-y,-z
x,y,-z
-x,y,1/2+z
x,-y,1/2+z
1/2+x,1/2+y,z
1/2-x,1/2-y,z
1/2+x,1/2-y,1/2-z
1/2-x,1/2+y,1/2-z
1/2-x,1/2-y,-z
1/2+x,1/2+y,-z
1/2-x,1/2+y,1/2+z
1/2+x,1/2-y,1/2+z
loop_
_atom_site_type_symbol
_atom_site_label
_atom_site_fract_x
_atom_site_fract_y
_atom_site_fract_z
Si Si1 0.806907 0.002324 0.794594
Si Si2 0.858542 0.831519 0.545826
Si Si3 0.000000 0.500000 0.090395
Si Si4 0.643439 0.655553 0.122352
O O1 0.750000 0.750000 0.794846
O O2 0.864840 0.991250 0.836366
O O3 0.853980 0.000000 0.750000
O O4 0.750000 0.250000 0.796731
O O5 0.879170 0.909570 0.500000
O O6 0.750000 0.750000 0.547015
O O7 0.928429 0.631900 0.560600
O O8 0.870812 0.021198 0.580452
O O9 0.934500 0.648660 0.120037
O O10 0.750000 0.750000 0.120984
#
# Coordination Sequence:
#
# PCOD9499733 Si02
#       4
#    16  16   8  16
#     4   9  19  37  68 105 135 179 229 279 346 414
#     4  11  24  43  67  95 133 180 232 284 343 410
#     4  12  25  42  66  99 130 182 224 287 345 410
#     4  11  23  41  68  98 136 177 229 283 344 413
#
# _framework density 20.816827
#
# number of rings (size 3 to 8) (size 9 to 14) (size 15 to 20)
#    0.000    1.429    2.857    2.143    4.000    4.000 
#    0.000    0.000    0.000    5.143    0.000    0.000 
#    0.000    0.000    0.000    0.000    0.000    0.000 
#
# Total GULP energy -156080.448388 kJ/mol
# GULP energy per Si atom -5574.301728 kJ/mol
# Density = 2.076945 g / cm^3
# Si number density = 20.816827 Si / 1000 Ang^3
#
#
#
# Elastic Constant Matrix: (Units=GPa)
#
#
# Indices 1 2 3 4 5 6 
#
# 1 117.1084 48.5241 44.1591 0.0000 0.0000 0.0000
# 2 48.5241 97.9673 64.4327 0.0000 0.0000 0.0000
# 3 44.1591 64.4327 202.1302 0.0000 0.0000 0.0000
# 4 0.0000 0.0000 0.0000 44.6636 0.0000 0.0000
# 5 0.0000 0.0000 0.0000 0.0000 -14.6915 0.0000
# 6 0.0000 0.0000 0.0000 0.0000 0.0000 31.1552
#
#
#
# Elastic Compliance Matrix: (Units=1/GPa)
#
#
# Indices 1 2 3 4 5 6 
#
# 1 0.010854 -0.004829 -0.000832 0.000000 0.000000 0.000000
# 2 -0.004829 0.015063 -0.003747 0.000000 0.000000 0.000000
# 3 -0.000832 -0.003747 0.006323 0.000000 0.000000 0.000000
# 4 0.000000 0.000000 0.000000 0.022390 0.000000 0.000000
# 5 0.000000 0.000000 0.000000 0.000000 -0.068066 0.000000
# 6 0.000000 0.000000 0.000000 0.000000 0.000000 0.032097
#
#
# Mechanical properties :
#
#
# Convention : Reuss Voigt Hill
#
# Bulk Modulus (GPa) = 74.48500 81.27085 77.87793
# Shear Modulus (GPa) = 119.18636 29.56480 74.37558
#
# Velocity S-wave (km/s) = 7.57490 3.77269 5.98382
# Velocity P-wave (km/s) = 10.60020 7.62255 9.23222
#
# Compressibility (1/GPa) = 0.01342552
#
# Stress axis : x y z
#
# Youngs Moduli (GPa) = 92.13537 66.38575 158.14213
#
# Poissons Ratio (x) = 0.32056 0.13156
# Poissons Ratio (y) = 0.44490 0.59253
# Poissons Ratio (z) = 0.07665 0.24874
#
# Static dielectric constant tensor:
#      x y z
#    x 1.663480 0.000000 0.000000 
#    y 0.000000 1.691700 0.000000 
#    z 0.000000 0.000000 1.746580 
# 
# From -- ./inp_files/66779.got.cif
#   From: 2010.05.17/outbox.cif.g08.bks.cpg/sg66_34_cif.got.tgz:66779.got - 2010.06.03 17:51:23.
