data_PCOD9499626
_publ_section_title
;
Structure prediction by ZEFSAII (Michael W. Deem and Ramdas Pophale) SiO2 
 PCOD9499626
Probable space group: C C C M
;
_chemical_formula_sum "Si O2"
_cell_formula_units_Z 84
_cell_length_a 17.701457
_cell_length_b 13.632989
_cell_length_c 18.206693
_cell_angle_alpha 90.000000
_cell_angle_beta 90.000000
_cell_angle_gamma 90.000000
_cell_volume 4393.707768
_symmetry_space_group_name_H-M "C C C M"
_symmetry_group_IT_number 66
_symmetry_cell_setting 'orthorhombic'
loop_
_space_group_symop_operation_xyz
x,y,z
-x,-y,z
x,-y,1/2-z
-x,y,1/2-z
-x,-y,-z
x,y,-z
-x,y,1/2+z
x,-y,1/2+z
1/2+x,1/2+y,z
1/2-x,1/2-y,z
1/2+x,1/2-y,1/2-z
1/2-x,1/2+y,1/2-z
1/2-x,1/2-y,-z
1/2+x,1/2+y,-z
1/2-x,1/2+y,1/2+z
1/2+x,1/2-y,1/2+z
loop_
_atom_site_type_symbol
_atom_site_label
_atom_site_fract_x
_atom_site_fract_y
_atom_site_fract_z
Si Si1 0.749495 0.013528 0.416304
Si Si2 0.500000 0.000000 0.250000
Si Si3 0.365700 0.888842 0.671409
Si Si4 0.925304 0.109619 0.719220
Si Si5 0.130096 0.816554 0.415108
Si Si6 0.767379 0.857116 0.707932
O O1 0.755405 0.978884 0.500000
O O2 0.665230 0.035669 0.389498
O O3 0.793282 0.118276 0.412734
O O4 0.778902 0.937208 0.355666
O O5 0.556483 0.070325 0.296039
O O6 0.368999 0.785045 0.629389
O O7 0.301361 0.883888 0.736094
O O8 0.926913 0.115950 0.631515
O O9 0.845383 0.150356 0.747149
O O10 0.000000 0.161225 0.750000
O O11 0.925268 0.000000 0.750000
O O12 0.111736 0.800499 0.500000
O O13 0.750000 0.750000 0.676424
#
# Coordination Sequence:
#
# PCOD9499626 Si02
#       6
#    16   4  16  16  16  16
#     4  11  22  40  64  93 130 168 218 274 325 381
#     4  12  28  40  70  96 132 172 214 276 316 416
#     4  12  22  41  66  96 126 170 223 261 329 391
#     4  11  22  40  65  96 127 170 220 269 324 387
#     4  11  23  40  67 100 129 167 220 277 325 381
#     4  12  21  40  68  93 127 175 223 268 319 401
#
# _framework density 19.118248999999999
#
# number of rings (size 3 to 8) (size 9 to 14) (size 15 to 20)
#    0.000    0.571    7.619    1.143    1.333    1.905 
#    0.000    4.762    0.000    0.000    0.000    0.000 
#    0.000    0.000    0.000    0.000    0.000    0.000 
#
# Total GULP energy -234203.826530 kJ/mol
# GULP energy per Si atom -5576.281584 kJ/mol
# Density = 1.907474 g / cm^3
# Si number density = 19.118249 Si / 1000 Ang^3
#
#
#
# Elastic Constant Matrix: (Units=GPa)
#
#
# Indices 1 2 3 4 5 6 
#
# 1 122.5041 22.9375 57.6589 0.0000 0.0000 0.0000
# 2 22.9375 97.0792 59.3407 0.0000 0.0000 0.0000
# 3 57.6589 59.3407 174.8898 0.0000 0.0000 0.0000
# 4 0.0000 0.0000 0.0000 33.7395 0.0000 0.0000
# 5 0.0000 0.0000 0.0000 0.0000 -11.3806 0.0000
# 6 0.0000 0.0000 0.0000 0.0000 0.0000 2.5034
#
#
#
# Elastic Compliance Matrix: (Units=1/GPa)
#
#
# Indices 1 2 3 4 5 6 
#
# 1 0.009676 -0.000424 -0.003046 0.000000 0.000000 0.000000
# 2 -0.000424 0.013015 -0.004276 0.000000 0.000000 0.000000
# 3 -0.003046 -0.004276 0.008173 0.000000 0.000000 0.000000
# 4 0.000000 0.000000 0.000000 0.029639 0.000000 0.000000
# 5 0.000000 0.000000 0.000000 0.000000 -0.087869 0.000000
# 6 0.000000 0.000000 0.000000 0.000000 0.000000 0.399453
#
#
# Mechanical properties :
#
#
# Convention : Reuss Voigt Hill
#
# Bulk Modulus (GPa) = 65.05722 74.92747 69.99235
# Shear Modulus (GPa) = 12.73222 21.94153 17.33687
#
# Velocity S-wave (km/s) = 2.58344 3.39141 3.01462
# Velocity P-wave (km/s) = 6.55756 7.39001 6.98620
#
# Compressibility (1/GPa) = 0.01537108
#
# Stress axis : x y z
#
# Youngs Moduli (GPa) = 103.34682 76.83470 122.35299
#
# Poissons Ratio (x) = 0.03260 0.37271
# Poissons Ratio (y) = 0.04384 0.52320
# Poissons Ratio (z) = 0.31481 0.32856
#
# Static dielectric constant tensor:
#      x y z
#    x 1.719870 0.000000 0.000000 
#    y 0.000000 1.750320 0.000000 
#    z 0.000000 0.000000 1.686880 
# 
# From -- ./inp_files/41564.got.cif
#   From: 2010.05.17/outbox.cif.g08.bks.cpg/sg66_21_cif.got.tgz:41564.got - 2010.06.03 17:51:23.
