data_PCOD9499270
_publ_section_title
;
Structure prediction by ZEFSAII (Michael W. Deem and Ramdas Pophale) SiO2 
 PCOD9499270
Probable space group: C C C M
;
_chemical_formula_sum "Si O2"
_cell_formula_units_Z 32
_cell_length_a 4.839221
_cell_length_b 11.719269
_cell_length_c 23.203742
_cell_angle_alpha 90.000000
_cell_angle_beta 90.000000
_cell_angle_gamma 90.000000
_cell_volume 1315.933694
_symmetry_space_group_name_H-M "C C C M"
_symmetry_group_IT_number 66
_symmetry_cell_setting 'orthorhombic'
loop_
_space_group_symop_operation_xyz
x,y,z
-x,-y,z
x,-y,1/2-z
-x,y,1/2-z
-x,-y,-z
x,y,-z
-x,y,1/2+z
x,-y,1/2+z
1/2+x,1/2+y,z
1/2-x,1/2-y,z
1/2+x,1/2-y,1/2-z
1/2-x,1/2+y,1/2-z
1/2-x,1/2-y,-z
1/2+x,1/2+y,-z
1/2-x,1/2+y,1/2+z
1/2+x,1/2-y,1/2+z
loop_
_atom_site_type_symbol
_atom_site_label
_atom_site_fract_x
_atom_site_fract_y
_atom_site_fract_z
Si Si1 0.250000 0.250000 0.289906
Si Si2 0.022697 0.143641 0.000000
Si Si3 0.748806 0.078544 0.886593
O O1 0.500000 0.289675 0.250000
O O2 0.355439 0.152236 0.333168
O O3 0.250000 0.250000 0.000000
O O4 0.878937 0.152186 0.061940
O O5 0.000000 0.000000 0.000000
O O6 0.500000 0.000000 0.909688
O O7 0.000000 0.000000 0.865468
#
# Coordination Sequence:
#
# PCOD9499270 Si02
#       3
#     8   8  16
#     4  12  28  45  74 105 144 202 260 320 390 476
#     4  10  25  45  79 115 158 204 260 329 413 493
#     4  11  26  47  74 108 151 198 256 325 402 482
#
# _framework density 24.317336999999998
#
# number of rings (size 3 to 8) (size 9 to 14) (size 15 to 20)
#    0.000    1.000    0.000    3.750   17.500    7.000 
#    0.000    0.000    0.000    0.000    0.000    0.000 
#    0.000    0.000    0.000    0.000    0.000    0.000 
#
# Total GULP energy -89114.044108 kJ/mol
# GULP energy per Si atom -5569.627757 kJ/mol
# Density = 2.426199 g / cm^3
# Si number density = 24.317337 Si / 1000 Ang^3
#
#
#
# Elastic Constant Matrix: (Units=GPa)
#
#
# Indices 1 2 3 4 5 6 
#
# 1 114.3314 46.1951 32.5553 0.0000 0.0000 0.0000
# 2 46.1951 146.3990 40.5975 0.0000 0.0000 0.0000
# 3 32.5553 40.5975 152.6224 0.0000 0.0000 0.0000
# 4 0.0000 0.0000 0.0000 16.0606 0.0000 0.0000
# 5 0.0000 0.0000 0.0000 0.0000 114.4078 0.0000
# 6 0.0000 0.0000 0.0000 0.0000 0.0000 70.8828
#
#
#
# Elastic Compliance Matrix: (Units=1/GPa)
#
#
# Indices 1 2 3 4 5 6 
#
# 1 0.010310 -0.002854 -0.001440 0.000000 0.000000 0.000000
# 2 -0.002854 0.008165 -0.001563 0.000000 0.000000 0.000000
# 3 -0.001440 -0.001563 0.007275 0.000000 0.000000 0.000000
# 4 0.000000 0.000000 0.000000 0.062264 0.000000 0.000000
# 5 0.000000 0.000000 0.000000 0.000000 0.008741 0.000000
# 6 0.000000 0.000000 0.000000 0.000000 0.000000 0.014108
#
#
# Mechanical properties :
#
#
# Convention : Reuss Voigt Hill
#
# Bulk Modulus (GPa) = 71.24759 72.44986 71.84872
# Shear Modulus (GPa) = 39.29150 59.87058 49.58104
#
# Velocity S-wave (km/s) = 4.02404 4.96729 4.52034
# Velocity P-wave (km/s) = 7.13815 7.92192 7.54023
#
# Compressibility (1/GPa) = 0.01403556
#
# Stress axis : x y z
#
# Youngs Moduli (GPa) = 96.99704 122.48029 137.45615
#
# Poissons Ratio (x) = 0.34953 0.19794
# Poissons Ratio (y) = 0.27681 0.21485
# Poissons Ratio (z) = 0.13968 0.19144
#
# Static dielectric constant tensor:
#      x y z
#    x 2.013990 0.000000 0.000000 
#    y 0.000000 2.111650 0.000000 
#    z 0.000000 0.000000 1.910980 
# 
# From -- ./inp_files/44972.got.cif
#   From: 2010.05.17/outbox.cif.g08.bks.cpg/sg66_23_cif.got.tgz:44972.got - 2010.06.03 17:51:23.
