data_PCOD9499926
_publ_section_title
;
Structure prediction by ZEFSAII (Michael W. Deem and Ramdas Pophale) SiO2 
 PCOD9499926
Probable space group: C C C M
;
_chemical_formula_sum "Si O2"
_cell_formula_units_Z 56
_cell_length_a 10.274813
_cell_length_b 24.501858
_cell_length_c 9.984409
_cell_angle_alpha 90.000000
_cell_angle_beta 90.000000
_cell_angle_gamma 90.000000
_cell_volume 2513.595025
_symmetry_space_group_name_H-M "C C C M"
_symmetry_group_IT_number 66
_symmetry_cell_setting 'orthorhombic'
loop_
_space_group_symop_operation_xyz
x,y,z
-x,-y,z
x,-y,1/2-z
-x,y,1/2-z
-x,-y,-z
x,y,-z
-x,y,1/2+z
x,-y,1/2+z
1/2+x,1/2+y,z
1/2-x,1/2-y,z
1/2+x,1/2-y,1/2-z
1/2-x,1/2+y,1/2-z
1/2-x,1/2-y,-z
1/2+x,1/2+y,-z
1/2-x,1/2+y,1/2+z
1/2+x,1/2-y,1/2+z
loop_
_atom_site_type_symbol
_atom_site_label
_atom_site_fract_x
_atom_site_fract_y
_atom_site_fract_z
Si Si1 0.220709 0.971237 0.500000
Si Si2 0.705859 0.620291 0.198568
Si Si3 0.571746 0.892800 0.000000
Si Si4 0.393038 0.266017 0.150171
Si Si5 0.761121 0.598518 0.500000
O O1 0.168604 0.062204 0.129906
O O2 0.214726 0.035358 0.500000
O O3 0.374573 0.955235 0.500000
O O4 0.848835 0.630317 0.129220
O O5 0.612530 0.668208 0.149726
O O6 0.712752 0.621228 0.357890
O O7 0.418000 0.892545 0.000000
O O8 0.500000 0.245492 0.250000
O O9 0.250000 0.250000 0.196893
O O10 0.413974 0.246031 0.000000
#
# Coordination Sequence:
#
# PCOD9499926 Si02
#       5
#     8  16   8  16   8
#     4   8  19  34  51  83 136 173 214 263 333 363
#     4   9  21  36  55  90 126 167 213 265 324 385
#     4   8  19  32  49  81 134 167 212 264 322 368
#     4  11  25  49  73  98 131 169 215 277 336 398
#     4  12  17  30  59  92 128 176 225 260 311 392
#
# _framework density 22.278846999999999
#
# number of rings (size 3 to 8) (size 9 to 14) (size 15 to 20)
#    1.714    0.286    2.857    2.143    2.000    2.857 
#    5.143    0.000    0.000    5.143    0.000    0.000 
#    0.000    0.000    0.000    0.000    0.000    0.000 
#
# Total GULP energy -156008.909297 kJ/mol
# GULP energy per Si atom -5571.746761 kJ/mol
# Density = 2.222814 g / cm^3
# Si number density = 22.278847 Si / 1000 Ang^3
#
#
#
# Elastic Constant Matrix: (Units=GPa)
#
#
# Indices 1 2 3 4 5 6 
#
# 1 64.2500 12.8953 48.1638 0.0000 0.0000 0.0000
# 2 12.8953 46.7307 21.0439 0.0000 0.0000 0.0000
# 3 48.1638 21.0439 174.6123 0.0000 0.0000 0.0000
# 4 0.0000 0.0000 0.0000 176.7578 0.0000 0.0000
# 5 0.0000 0.0000 0.0000 0.0000 17.9044 0.0000
# 6 0.0000 0.0000 0.0000 0.0000 0.0000 18.1211
#
#
#
# Elastic Compliance Matrix: (Units=1/GPa)
#
#
# Indices 1 2 3 4 5 6 
#
# 1 0.020069 -0.003220 -0.005148 0.000000 0.000000 0.000000
# 2 -0.003220 0.023144 -0.001901 0.000000 0.000000 0.000000
# 3 -0.005148 -0.001901 0.007376 0.000000 0.000000 0.000000
# 4 0.000000 0.000000 0.000000 0.005657 0.000000 0.000000
# 5 0.000000 0.000000 0.000000 0.000000 0.055852 0.000000
# 6 0.000000 0.000000 0.000000 0.000000 0.000000 0.055184
#
#
# Mechanical properties :
#
#
# Convention : Reuss Voigt Hill
#
# Bulk Modulus (GPa) = 33.27605 49.97766 41.62685
# Shear Modulus (GPa) = 25.27321 56.12266 40.69794
#
# Velocity S-wave (km/s) = 3.37174 5.02451 4.27869
# Velocity P-wave (km/s) = 5.48879 7.49282 6.56769
#
# Compressibility (1/GPa) = 0.03005165
#
# Stress axis : x y z
#
# Youngs Moduli (GPa) = 49.82721 43.20803 135.57496
#
# Poissons Ratio (x) = 0.13913 0.69790
# Poissons Ratio (y) = 0.16044 0.25774
# Poissons Ratio (z) = 0.25650 0.08214
#
# Static dielectric constant tensor:
#      x y z
#    x 1.800500 0.000000 0.000000 
#    y 0.000000 1.867360 0.000000 
#    z 0.000000 0.000000 1.821180 
# 
# From -- ./inp_files/3775.got.cif
#   From: 2010.05.17/outbox.cif.g08.bks.cpg/sg66_2_cif.got.tgz:3775.got - 2010.06.03 17:51:23.
