data_PCOD9499634
_publ_section_title
;
Structure prediction by ZEFSAII (Michael W. Deem and Ramdas Pophale) SiO2 
 PCOD9499634
Probable space group: C C C M
;
_chemical_formula_sum "Si O2"
_cell_formula_units_Z 64
_cell_length_a 8.583228
_cell_length_b 21.794782
_cell_length_c 15.153778
_cell_angle_alpha 90.000000
_cell_angle_beta 90.000000
_cell_angle_gamma 90.000000
_cell_volume 2834.810933
_symmetry_space_group_name_H-M "C C C M"
_symmetry_group_IT_number 66
_symmetry_cell_setting 'orthorhombic'
loop_
_space_group_symop_operation_xyz
x,y,z
-x,-y,z
x,-y,1/2-z
-x,y,1/2-z
-x,-y,-z
x,y,-z
-x,y,1/2+z
x,-y,1/2+z
1/2+x,1/2+y,z
1/2-x,1/2-y,z
1/2+x,1/2-y,1/2-z
1/2-x,1/2+y,1/2-z
1/2-x,1/2-y,-z
1/2+x,1/2+y,-z
1/2-x,1/2+y,1/2+z
1/2+x,1/2-y,1/2+z
loop_
_atom_site_type_symbol
_atom_site_label
_atom_site_fract_x
_atom_site_fract_y
_atom_site_fract_z
Si Si1 0.253994 0.349672 0.000000
Si Si2 0.314857 0.424402 0.650623
Si Si3 0.136043 0.700394 0.821498
Si Si4 0.499078 0.253555 0.500000
Si Si5 0.318856 0.441039 0.860367
O O1 0.426126 0.320563 0.000000
O O2 0.136764 0.295049 0.000000
O O3 0.227938 0.390840 0.085368
O O4 0.221145 0.361014 0.640223
O O5 0.306747 0.432720 0.756288
O O6 0.261603 0.490745 0.614146
O O7 0.497057 0.427284 0.622703
O O8 0.250000 0.750000 0.774001
O O9 0.000000 0.685788 0.750000
O O10 0.082973 0.738629 0.907699
#
# Coordination Sequence:
#
# PCOD9499634 Si02
#       5
#     8  16  16   8  16
#     4  11  22  40  67  91 132 174 233 267 355 401
#     4   9  20  39  63  94 132 164 235 268 342 400
#     4  12  27  43  69 100 138 185 228 284 351 406
#     4  11  27  43  61 100 141 175 228 294 334 408
#     4   9  19  38  66  94 122 179 215 288 325 415
#
# _framework density 22.576461999999999
#
# number of rings (size 3 to 8) (size 9 to 14) (size 15 to 20)
#    0.000    1.750    0.000    4.875   10.500    4.000 
#    0.000   10.000    0.000    0.000    0.000    0.000 
#    0.000    0.000    0.000    0.000    0.000    0.000 
#
# Total GULP energy -178413.081956 kJ/mol
# GULP energy per Si atom -5575.408811 kJ/mol
# Density = 2.252508 g / cm^3
# Si number density = 22.576462 Si / 1000 Ang^3
#
#
#
# Elastic Constant Matrix: (Units=GPa)
#
#
# Indices 1 2 3 4 5 6 
#
# 1 52.6877 44.8997 12.9470 0.0000 0.0000 0.0000
# 2 44.8997 165.7983 26.2912 0.0000 0.0000 0.0000
# 3 12.9470 26.2912 62.8668 0.0000 0.0000 0.0000
# 4 0.0000 0.0000 0.0000 42.9487 0.0000 0.0000
# 5 0.0000 0.0000 0.0000 0.0000 14.9559 0.0000
# 6 0.0000 0.0000 0.0000 0.0000 0.0000 32.4422
#
#
#
# Elastic Compliance Matrix: (Units=1/GPa)
#
#
# Indices 1 2 3 4 5 6 
#
# 1 0.025031 -0.006385 -0.002485 0.000000 0.000000 0.000000
# 2 -0.006385 0.008088 -0.002068 0.000000 0.000000 0.000000
# 3 -0.002485 -0.002068 0.017283 0.000000 0.000000 0.000000
# 4 0.000000 0.000000 0.000000 0.023284 0.000000 0.000000
# 5 0.000000 0.000000 0.000000 0.000000 0.066863 0.000000
# 6 0.000000 0.000000 0.000000 0.000000 0.000000 0.030824
#
#
# Mechanical properties :
#
#
# Convention : Reuss Voigt Hill
#
# Bulk Modulus (GPa) = 35.05305 49.95872 42.50589
# Shear Modulus (GPa) = 24.66001 31.21703 27.93852
#
# Velocity S-wave (km/s) = 3.30856 3.72253 3.52164
# Velocity P-wave (km/s) = 5.49141 6.37598 5.95015
#
# Compressibility (1/GPa) = 0.02852819
#
# Stress axis : x y z
#
# Youngs Moduli (GPa) = 39.94995 123.63480 57.85994
#
# Poissons Ratio (x) = 0.78937 0.14378
# Poissons Ratio (y) = 0.25507 0.11964
# Poissons Ratio (z) = 0.09927 0.25564
#
# Static dielectric constant tensor:
#      x y z
#    x 1.941350 0.000000 0.000000 
#    y 0.000000 1.854000 0.000000 
#    z 0.000000 0.000000 1.800240 
# 
# From -- ./inp_files/36361.got.cif
#   From: 2010.05.17/outbox.cif.g08.bks.cpg/sg66_19_cif.got.tgz:36361.got - 2010.06.03 17:51:23.
