data_PCOD9499032
_publ_section_title
;
Structure prediction by ZEFSAII (Michael W. Deem and Ramdas Pophale) SiO2 
 PCOD9499032
Probable space group: C C C M
;
_chemical_formula_sum "Si O2"
_cell_formula_units_Z 88
_cell_length_a 5.165635
_cell_length_b 32.108976
_cell_length_c 23.358489
_cell_angle_alpha 90.000000
_cell_angle_beta 90.000000
_cell_angle_gamma 90.000000
_cell_volume 3874.314906
_symmetry_space_group_name_H-M "C C C M"
_symmetry_group_IT_number 66
_symmetry_cell_setting 'orthorhombic'
loop_
_space_group_symop_operation_xyz
x,y,z
-x,-y,z
x,-y,1/2-z
-x,y,1/2-z
-x,-y,-z
x,y,-z
-x,y,1/2+z
x,-y,1/2+z
1/2+x,1/2+y,z
1/2-x,1/2-y,z
1/2+x,1/2-y,1/2-z
1/2-x,1/2+y,1/2-z
1/2-x,1/2-y,-z
1/2+x,1/2+y,-z
1/2-x,1/2+y,1/2+z
1/2+x,1/2-y,1/2+z
loop_
_atom_site_type_symbol
_atom_site_label
_atom_site_fract_x
_atom_site_fract_y
_atom_site_fract_z
Si Si1 0.978019 0.450029 0.683527
Si Si2 0.531509 0.868220 0.000000
Si Si3 0.470724 0.429347 0.389978
Si Si4 0.184501 0.540319 0.000000
Si Si5 0.876068 0.160283 0.908129
Si Si6 0.089358 0.791083 0.500000
Si Si7 0.503408 0.722627 0.318370
O O1 0.713797 0.442555 0.648323
O O2 0.000000 0.500000 0.683292
O O3 0.000000 0.436587 0.750000
O O4 0.217815 0.429408 0.650444
O O5 0.503994 0.918470 0.000000
O O6 0.381266 0.854627 0.058655
O O7 0.763018 0.835375 0.000000
O O8 0.370943 0.455827 0.444533
O O9 0.532395 0.383063 0.412335
O O10 0.000000 0.500000 0.000000
O O11 0.941049 0.177352 0.845449
O O12 0.930531 0.202891 0.942878
O O13 0.250000 0.750000 0.500000
O O14 0.500000 0.717997 0.250000
O O15 0.750000 0.750000 0.333460
O O16 0.250000 0.750000 0.335274
#
# Coordination Sequence:
#
# PCOD9499032 Si02
#       7
#    16   8  16   8  16   8  16
#     4  11  25  47  72 101 139 186 245 297 351 427
#     4   9  23  42  65 101 137 181 231 288 341 418
#     4  11  25  44  71 106 139 188 236 291 363 426
#     4  10  23  46  73 107 153 195 233 300 363 447
#     4  10  24  40  65  97 132 175 228 290 336 419
#     4  11  24  41  68  97 134 185 232 283 351 413
#     4  10  23  41  63  93 129 171 221 278 344 412
#
# _framework density 22.713692000000002
#
# number of rings (size 3 to 8) (size 9 to 14) (size 15 to 20)
#    0.000    1.636    0.000    2.727   10.182    4.364 
#    0.000    5.000    0.000    0.000    0.000    0.000 
#    0.000    0.000    0.000    0.000    0.000    0.000 
#
# Total GULP energy -245250.424328 kJ/mol
# GULP energy per Si atom -5573.873280 kJ/mol
# Density = 2.266199 g / cm^3
# Si number density = 22.713692 Si / 1000 Ang^3
#
#
#
# Elastic Constant Matrix: (Units=GPa)
#
#
# Indices 1 2 3 4 5 6 
#
# 1 129.3283 40.2700 68.3436 0.0000 0.0000 0.0000
# 2 40.2700 143.8339 46.4408 0.0000 0.0000 0.0000
# 3 68.3436 46.4408 145.2918 0.0000 0.0000 0.0000
# 4 0.0000 0.0000 0.0000 41.5821 0.0000 0.0000
# 5 0.0000 0.0000 0.0000 0.0000 65.0202 0.0000
# 6 0.0000 0.0000 0.0000 0.0000 0.0000 24.7844
#
#
#
# Elastic Compliance Matrix: (Units=1/GPa)
#
#
# Indices 1 2 3 4 5 6 
#
# 1 0.010577 -0.001511 -0.004492 0.000000 0.000000 0.000000
# 2 -0.001511 0.007968 -0.001836 0.000000 0.000000 0.000000
# 3 -0.004492 -0.001836 0.009583 0.000000 0.000000 0.000000
# 4 0.000000 0.000000 0.000000 0.024049 0.000000 0.000000
# 5 0.000000 0.000000 0.000000 0.000000 0.015380 0.000000
# 6 0.000000 0.000000 0.000000 0.000000 0.000000 0.040348
#
#
# Mechanical properties :
#
#
# Convention : Reuss Voigt Hill
#
# Bulk Modulus (GPa) = 80.32731 80.95143 80.63937
# Shear Modulus (GPa) = 39.14426 43.83731 41.49079
#
# Velocity S-wave (km/s) = 4.15586 4.39794 4.27861
# Velocity P-wave (km/s) = 7.64658 7.84260 7.74521
#
# Compressibility (1/GPa) = 0.01244907
#
# Stress axis : x y z
#
# Youngs Moduli (GPa) = 94.54850 125.49644 104.35416
#
# Poissons Ratio (x) = 0.18959 0.46878
# Poissons Ratio (y) = 0.14284 0.19163
# Poissons Ratio (z) = 0.42473 0.23046
#
# Static dielectric constant tensor:
#      x y z
#    x 2.051490 0.000000 0.000000 
#    y 0.000000 1.536510 0.000000 
#    z 0.000000 0.000000 1.295780 
# 
# From -- ./inp_files/54460.got.cif
#   From: 2010.05.17/outbox.cif.g08.bks.cpg/sg66_28_cif.got.tgz:54460.got - 2010.06.03 17:51:23.
