data_PCOD9499852
_publ_section_title
;
Structure prediction by ZEFSAII (Michael W. Deem and Ramdas Pophale) SiO2 
 PCOD9499852
Probable space group: C C C M
;
_chemical_formula_sum "Si O2"
_cell_formula_units_Z 68
_cell_length_a 16.373997
_cell_length_b 21.950327
_cell_length_c 8.652485
_cell_angle_alpha 90.000000
_cell_angle_beta 90.000000
_cell_angle_gamma 90.000000
_cell_volume 3109.829335
_symmetry_space_group_name_H-M "C C C M"
_symmetry_group_IT_number 66
_symmetry_cell_setting 'orthorhombic'
loop_
_space_group_symop_operation_xyz
x,y,z
-x,-y,z
x,-y,1/2-z
-x,y,1/2-z
-x,-y,-z
x,y,-z
-x,y,1/2+z
x,-y,1/2+z
1/2+x,1/2+y,z
1/2-x,1/2-y,z
1/2+x,1/2-y,1/2-z
1/2-x,1/2+y,1/2-z
1/2-x,1/2-y,-z
1/2+x,1/2+y,-z
1/2-x,1/2+y,1/2+z
1/2+x,1/2-y,1/2+z
loop_
_atom_site_type_symbol
_atom_site_label
_atom_site_fract_x
_atom_site_fract_y
_atom_site_fract_z
Si Si1 0.500000 0.000000 0.750000
Si Si2 0.645359 0.911290 0.173497
Si Si3 0.417171 0.663931 0.317354
Si Si4 0.160824 0.720308 0.816133
Si Si5 0.308300 0.437382 0.320680
O O1 0.563590 0.951888 0.825823
O O2 0.637800 0.840627 0.223094
O O3 0.710980 0.936449 0.295536
O O4 0.680189 0.914736 0.000000
O O5 0.500000 0.635914 0.250000
O O6 0.421369 0.673233 0.500000
O O7 0.401965 0.726950 0.228630
O O8 0.344115 0.619050 0.272838
O O9 0.250000 0.750000 0.777860
O O10 0.160813 0.707484 0.000000
O O11 0.340561 0.500000 0.250000
O O12 0.328185 0.431177 0.500000
#
# Coordination Sequence:
#
# PCOD9499852 Si02
#       5
#     4  16  16  16  16
#     4  12  30  48  72 106 160 192 252 304 370 432
#     4  12  26  45  71 103 142 191 244 297 362 431
#     4  12  26  46  72 104 143 184 236 296 361 428
#     4  11  24  44  72 104 142 186 238 298 362 429
#     4  12  25  45  72 103 139 183 235 289 355 428
#
# _framework density 21.866152
#
# number of rings (size 3 to 8) (size 9 to 14) (size 15 to 20)
#    0.000    0.235    3.529    6.000    1.647    4.235 
#    0.000    2.353    0.000    0.000    0.000    0.000 
#    0.000    0.000    0.000    0.000    0.000    0.000 
#
# Total GULP energy -190086.084344 kJ/mol
# GULP energy per Si atom -5590.767187 kJ/mol
# Density = 2.181638 g / cm^3
# Si number density = 21.866152 Si / 1000 Ang^3
#
#
#
# Elastic Constant Matrix: (Units=GPa)
#
#
# Indices 1 2 3 4 5 6 
#
# 1 83.4924 9.1511 9.8707 0.0000 0.0000 0.0000
# 2 9.1511 126.4993 9.1285 0.0000 0.0000 0.0000
# 3 9.8707 9.1285 94.9972 0.0000 0.0000 0.0000
# 4 0.0000 0.0000 0.0000 5.5242 0.0000 0.0000
# 5 0.0000 0.0000 0.0000 0.0000 26.4928 0.0000
# 6 0.0000 0.0000 0.0000 0.0000 0.0000 17.9317
#
#
#
# Elastic Compliance Matrix: (Units=1/GPa)
#
#
# Indices 1 2 3 4 5 6 
#
# 1 0.012205 -0.000797 -0.001192 0.000000 0.000000 0.000000
# 2 -0.000797 0.008012 -0.000687 0.000000 0.000000 0.000000
# 3 -0.001192 -0.000687 0.010716 0.000000 0.000000 0.000000
# 4 0.000000 0.000000 0.000000 0.181022 0.000000 0.000000
# 5 0.000000 0.000000 0.000000 0.000000 0.037746 0.000000
# 6 0.000000 0.000000 0.000000 0.000000 0.000000 0.055767
#
#
# Mechanical properties :
#
#
# Convention : Reuss Voigt Hill
#
# Bulk Modulus (GPa) = 39.08871 40.14329 39.61600
# Shear Modulus (GPa) = 15.65688 28.44565 22.05127
#
# Velocity S-wave (km/s) = 2.67878 3.61071 3.17908
# Velocity P-wave (km/s) = 5.24242 5.98176 5.62425
#
# Compressibility (1/GPa) = 0.02558284
#
# Stress axis : x y z
#
# Youngs Moduli (GPa) = 81.93120 124.80628 93.31435
#
# Poissons Ratio (x) = 0.09947 0.11120
# Poissons Ratio (y) = 0.06530 0.06412
# Poissons Ratio (z) = 0.09763 0.08576
#
# Static dielectric constant tensor:
#      x y z
#    x 1.837380 0.000000 0.000000 
#    y 0.000000 1.828250 0.000000 
#    z 0.000000 0.000000 1.724900 
# 
# From -- ./inp_files/6289.got.cif
#   From: 2010.05.17/outbox.cif.g08.bks.cpg/sg66_4_cif.got.tgz:6289.got - 2010.06.03 17:51:23.
