data_PCOD9499402
_publ_section_title
;
Structure prediction by ZEFSAII (Michael W. Deem and Ramdas Pophale) SiO2 
 PCOD9499402
Probable space group: C C C M
;
_chemical_formula_sum "Si O2"
_cell_formula_units_Z 96
_cell_length_a 11.766291
_cell_length_b 23.121824
_cell_length_c 15.565503
_cell_angle_alpha 90.000000
_cell_angle_beta 90.000000
_cell_angle_gamma 90.000000
_cell_volume 4234.721322
_symmetry_space_group_name_H-M "C C C M"
_symmetry_group_IT_number 66
_symmetry_cell_setting 'orthorhombic'
loop_
_space_group_symop_operation_xyz
x,y,z
-x,-y,z
x,-y,1/2-z
-x,y,1/2-z
-x,-y,-z
x,y,-z
-x,y,1/2+z
x,-y,1/2+z
1/2+x,1/2+y,z
1/2-x,1/2-y,z
1/2+x,1/2-y,1/2-z
1/2-x,1/2+y,1/2-z
1/2-x,1/2-y,-z
1/2+x,1/2+y,-z
1/2-x,1/2+y,1/2+z
1/2+x,1/2-y,1/2+z
loop_
_atom_site_type_symbol
_atom_site_label
_atom_site_fract_x
_atom_site_fract_y
_atom_site_fract_z
Si Si1 0.785900 0.094310 0.397594
Si Si2 0.373882 0.988099 0.104335
Si Si3 0.257653 0.875501 0.902706
Si Si4 0.586325 0.226953 0.136213
Si Si5 0.840791 0.296985 0.667467
Si Si6 0.525026 0.645554 0.652283
O O1 0.764224 0.103271 0.500000
O O2 0.727251 0.033141 0.373405
O O3 0.721650 0.142539 0.341457
O O4 0.919959 0.108659 0.383768
O O5 0.500000 0.000000 0.137694
O O6 0.346445 0.922580 0.128802
O O7 0.379447 0.990387 0.000000
O O8 0.315573 0.812597 0.903220
O O9 0.144784 0.885809 0.849004
O O10 0.224420 0.889371 0.000000
O O11 0.625680 0.223592 0.236446
O O12 0.462822 0.198504 0.122374
O O13 0.559274 0.292890 0.108991
O O14 0.750000 0.250000 0.632869
O O15 0.500000 0.661070 0.750000
#
# Coordination Sequence:
#
# PCOD9499402 Si02
#       6
#    16  16  16  16  16  16
#     4  11  23  39  65  96 125 162 215 270 316 371
#     4   9  20  42  65  89 127 166 202 258 330 383
#     4  11  24  40  64  95 126 165 215 267 318 376
#     4  11  22  38  64  86 125 174 209 251 317 385
#     4  11  20  39  59  90 123 168 209 251 314 382
#     4  12  23  43  63  88 131 175 209 253 324 393
#
# _framework density 22.669732
#
# number of rings (size 3 to 8) (size 9 to 14) (size 15 to 20)
#    0.000    1.167    3.333    4.000    0.000    5.000 
#    0.000    6.667    0.000    6.000    0.000    0.000 
#    0.000    0.000    0.000    0.000    0.000    0.000 
#
# Total GULP energy -267782.488865 kJ/mol
# GULP energy per Si atom -5578.801851 kJ/mol
# Density = 2.261813 g / cm^3
# Si number density = 22.669732 Si / 1000 Ang^3
#
#
#
# Elastic Constant Matrix: (Units=GPa)
#
#
# Indices 1 2 3 4 5 6 
#
# 1 182.4941 42.1376 12.7750 0.0000 0.0000 0.0000
# 2 42.1376 93.0075 5.2098 0.0000 0.0000 0.0000
# 3 12.7750 5.2098 39.3217 0.0000 0.0000 0.0000
# 4 0.0000 0.0000 0.0000 13.3026 0.0000 0.0000
# 5 0.0000 0.0000 0.0000 0.0000 24.2841 0.0000
# 6 0.0000 0.0000 0.0000 0.0000 0.0000 38.3050
#
#
#
# Elastic Compliance Matrix: (Units=1/GPa)
#
#
# Indices 1 2 3 4 5 6 
#
# 1 0.006226 -0.002728 -0.001661 0.000000 0.000000 0.000000
# 2 -0.002728 0.012027 -0.000707 0.000000 0.000000 0.000000
# 3 -0.001661 -0.000707 0.026065 0.000000 0.000000 0.000000
# 4 0.000000 0.000000 0.000000 0.075173 0.000000 0.000000
# 5 0.000000 0.000000 0.000000 0.000000 0.041179 0.000000
# 6 0.000000 0.000000 0.000000 0.000000 0.000000 0.026106
#
#
# Mechanical properties :
#
#
# Convention : Reuss Voigt Hill
#
# Bulk Modulus (GPa) = 29.30385 48.34091 38.82238
# Shear Modulus (GPa) = 23.99880 32.15840 28.07860
#
# Velocity S-wave (km/s) = 3.25719 3.77047 3.52318
# Velocity P-wave (km/s) = 5.20578 6.35024 5.80627
#
# Compressibility (1/GPa) = 0.03412521
#
# Stress axis : x y z
#
# Youngs Moduli (GPa) = 160.62437 83.14510 38.36613
#
# Poissons Ratio (x) = 0.22678 0.06374
# Poissons Ratio (y) = 0.43811 0.02714
# Poissons Ratio (z) = 0.26684 0.05881
#
# Static dielectric constant tensor:
#      x y z
#    x 1.867890 0.000000 0.000000 
#    y 0.000000 1.860670 0.000000 
#    z 0.000000 0.000000 1.602130 
# 
# From -- ./inp_files/38856.got.cif
#   From: 2010.05.17/outbox.cif.g08.bks.cpg/sg66_20_cif.got.tgz:38856.got - 2010.06.03 17:51:23.
