data_PCOD9499759
_publ_section_title
;
Structure prediction by ZEFSAII (Michael W. Deem and Ramdas Pophale) SiO2 
 PCOD9499759
Probable space group: C C C M
;
_chemical_formula_sum "Si O2"
_cell_formula_units_Z 88
_cell_length_a 22.310808
_cell_length_b 7.913414
_cell_length_c 24.478017
_cell_angle_alpha 90.000000
_cell_angle_beta 90.000000
_cell_angle_gamma 90.000000
_cell_volume 4321.707978
_symmetry_space_group_name_H-M "C C C M"
_symmetry_group_IT_number 66
_symmetry_cell_setting 'orthorhombic'
loop_
_space_group_symop_operation_xyz
x,y,z
-x,-y,z
x,-y,1/2-z
-x,y,1/2-z
-x,-y,-z
x,y,-z
-x,y,1/2+z
x,-y,1/2+z
1/2+x,1/2+y,z
1/2-x,1/2-y,z
1/2+x,1/2-y,1/2-z
1/2-x,1/2+y,1/2-z
1/2-x,1/2-y,-z
1/2+x,1/2+y,-z
1/2-x,1/2+y,1/2+z
1/2+x,1/2-y,1/2+z
loop_
_atom_site_type_symbol
_atom_site_label
_atom_site_fract_x
_atom_site_fract_y
_atom_site_fract_z
Si Si1 0.201614 0.400686 0.061756
Si Si2 0.571686 0.195540 0.253450
Si Si3 0.621856 0.672577 0.641784
Si Si4 0.519914 0.195268 0.063212
Si Si5 0.599542 0.291683 0.623390
Si Si6 0.250000 0.750000 0.893661
O O1 0.250000 0.250000 0.066043
O O2 0.146396 0.345110 0.100027
O O3 0.234652 0.578458 0.073231
O O4 0.177621 0.405636 0.000000
O O5 0.500000 0.199169 0.250000
O O6 0.596245 0.301681 0.202475
O O7 0.589422 0.259064 0.312831
O O8 0.591391 0.000000 0.250000
O O9 0.578483 0.773731 0.600126
O O10 0.622874 0.481779 0.620028
O O11 0.690157 0.729807 0.641210
O O12 0.463371 0.286831 0.091184
O O13 0.500000 0.000000 0.064340
O O14 0.529358 0.245511 0.000000
#
# Coordination Sequence:
#
# PCOD9499759 Si02
#       6
#    16  16  16  16  16   8
#     4  11  24  45  71 101 140 188 235 285 345 415
#     4  11  23  43  72  99 133 179 227 287 350 417
#     4  12  26  43  68 104 137 186 232 284 349 420
#     4  11  24  42  67  99 136 177 228 291 353 416
#     4  12  24  44  70 102 140 173 235 291 353 412
#     4  12  25  48  70 100 144 190 239 284 342 422
#
# _framework density 20.362318999999999
#
# number of rings (size 3 to 8) (size 9 to 14) (size 15 to 20)
#    0.000    0.545    3.636    5.182    0.000    5.818 
#    1.636    0.000    0.000    0.000    0.000    0.000 
#    0.000    0.000    0.000    0.000    0.000    0.000 
#
# Total GULP energy -246028.537752 kJ/mol
# GULP energy per Si atom -5591.557676 kJ/mol
# Density = 2.031597 g / cm^3
# Si number density = 20.362319 Si / 1000 Ang^3
#
#
#
# Elastic Constant Matrix: (Units=GPa)
#
#
# Indices 1 2 3 4 5 6 
#
# 1 122.9948 28.0970 62.2718 0.0000 0.0000 0.0000
# 2 28.0970 103.3457 22.7961 0.0000 0.0000 0.0000
# 3 62.2718 22.7961 153.8794 0.0000 0.0000 0.0000
# 4 0.0000 0.0000 0.0000-1300.2539 0.0000 0.0000
# 5 0.0000 0.0000 0.0000 0.0000 24.2863 0.0000
# 6 0.0000 0.0000 0.0000 0.0000 0.0000 26.3444
#
#
#
# Elastic Compliance Matrix: (Units=1/GPa)
#
#
# Indices 1 2 3 4 5 6 
#
# 1 0.010612 -0.002003 -0.003998 0.000000 0.000000 0.000000
# 2 -0.002003 0.010381 -0.000727 0.000000 0.000000 0.000000
# 3 -0.003998 -0.000727 0.008224 0.000000 0.000000 0.000000
# 4 0.000000 0.000000 0.000000 -0.000769 0.000000 0.000000
# 5 0.000000 0.000000 0.000000 0.000000 0.041176 0.000000
# 6 0.000000 0.000000 0.000000 0.000000 0.000000 0.037959
#
#
# Mechanical properties :
#
#
# Convention : Reuss Voigt Hill
#
# Bulk Modulus (GPa) = 63.44766 67.39440 65.42103
# Shear Modulus (GPa) = 39.59052 -232.12097 -96.26523
#
# Velocity S-wave (km/s) = 4.41421 -10.68844 -6.88323
# Velocity P-wave (km/s) = 7.56355 10.91578 5.56538
#
# Compressibility (1/GPa) = 0.01576102
#
# Stress axis : x y z
#
# Youngs Moduli (GPa) = 94.23215 96.32688 121.59356
#
# Poissons Ratio (x) = 0.19297 0.48610
# Poissons Ratio (y) = 0.18878 0.08842
# Poissons Ratio (z) = 0.37671 0.07005
#
# Static dielectric constant tensor:
#      x y z
#    x 1.696830 0.000000 0.000000 
#    y 0.000000 1.778990 0.000000 
#    z 0.000000 0.000000 1.300450 
# 
# From -- ./inp_files/59398.got.cif
#   From: 2010.05.17/outbox.cif.g08.bks.cpg/sg66_30_cif.got.tgz:59398.got - 2010.06.03 17:51:23.
