data_PCOD9499682
_publ_section_title
;
Structure prediction by ZEFSAII (Michael W. Deem and Ramdas Pophale) SiO2 
 PCOD9499682
Probable space group: C C C M
;
_chemical_formula_sum "Si O2"
_cell_formula_units_Z 40
_cell_length_a 12.103171
_cell_length_b 8.559882
_cell_length_c 15.034581
_cell_angle_alpha 90.000000
_cell_angle_beta 90.000000
_cell_angle_gamma 90.000000
_cell_volume 1557.608385
_symmetry_space_group_name_H-M "C C C M"
_symmetry_group_IT_number 66
_symmetry_cell_setting 'orthorhombic'
loop_
_space_group_symop_operation_xyz
x,y,z
-x,-y,z
x,-y,1/2-z
-x,y,1/2-z
-x,-y,-z
x,y,-z
-x,y,1/2+z
x,-y,1/2+z
1/2+x,1/2+y,z
1/2-x,1/2-y,z
1/2+x,1/2-y,1/2-z
1/2-x,1/2+y,1/2-z
1/2-x,1/2-y,-z
1/2+x,1/2+y,-z
1/2-x,1/2+y,1/2+z
1/2+x,1/2-y,1/2+z
loop_
_atom_site_type_symbol
_atom_site_label
_atom_site_fract_x
_atom_site_fract_y
_atom_site_fract_z
Si Si1 0.837465 0.000000 0.750000
Si Si2 0.460730 0.217951 0.655021
Si Si3 0.176476 0.424845 0.902283
O O1 0.906205 0.881565 0.685897
O O2 0.758749 0.088199 0.680425
O O3 0.500000 0.155026 0.750000
O O4 0.376195 0.098152 0.610686
O O5 0.574855 0.198674 0.601301
O O6 0.228385 0.419414 0.000000
#
# Coordination Sequence:
#
# PCOD9499682 Si02
#       3
#     8  16  16
#     4  12  25  43  78 116 150 206 255 315 388 460
#     4  11  22  44  72 107 153 202 249 310 383 453
#     4  11  24  46  79 114 152 203 259 316 386 462
#
# _framework density 25.680396999999999
#
# number of rings (size 3 to 8) (size 9 to 14) (size 15 to 20)
#    0.000    0.800    4.000    5.400    0.000    4.800 
#    0.000    6.000    0.000   12.000    0.000    0.000 
#    0.000    0.000    0.000    0.000    0.000    0.000 
#
# Total GULP energy -111717.768965 kJ/mol
# GULP energy per Si atom -5585.888448 kJ/mol
# Density = 2.562195 g / cm^3
# Si number density = 25.680397 Si / 1000 Ang^3
#
#
#
# Elastic Constant Matrix: (Units=GPa)
#
#
# Indices 1 2 3 4 5 6 
#
# 1 103.5721 113.0951 39.3236 0.0000 0.0000 0.0000
# 2 113.0951 188.8225 39.3141 0.0000 0.0000 0.0000
# 3 39.3236 39.3141 187.5880 0.0000 0.0000 0.0000
# 4 0.0000 0.0000 0.0000 87.0533 0.0000 0.0000
# 5 0.0000 0.0000 0.0000 0.0000 -96.7010 0.0000
# 6 0.0000 0.0000 0.0000 0.0000 0.0000 68.9156
#
#
#
# Elastic Compliance Matrix: (Units=1/GPa)
#
#
# Indices 1 2 3 4 5 6 
#
# 1 0.029030 -0.016856 -0.002553 0.000000 0.000000 0.000000
# 2 -0.016856 0.015325 0.000322 0.000000 0.000000 0.000000
# 3 -0.002553 0.000322 0.005799 0.000000 0.000000 0.000000
# 4 0.000000 0.000000 0.000000 0.011487 0.000000 0.000000
# 5 0.000000 0.000000 0.000000 0.000000 -0.010341 0.000000
# 6 0.000000 0.000000 0.000000 0.000000 0.000000 0.014511
#
#
# Mechanical properties :
#
#
# Convention : Reuss Voigt Hill
#
# Bulk Modulus (GPa) = 83.47749 95.93867 89.70808
# Shear Modulus (GPa) = 46.30552 31.07024 38.68788
#
# Velocity S-wave (km/s) = 4.25095 3.48211 3.88559
# Velocity P-wave (km/s) = 7.52802 7.32165 7.42555
#
# Compressibility (1/GPa) = 0.01197928
#
# Stress axis : x y z
#
# Youngs Moduli (GPa) = 34.44656 65.25278 172.45676
#
# Poissons Ratio (x) = 1.09992 0.44027
# Poissons Ratio (y) = 0.58064 -0.05549
# Poissons Ratio (z) = 0.08794 -0.02100
#
# Static dielectric constant tensor:
#      x y z
#    x 2.170850 0.000000 0.000000 
#    y 0.000000 2.124460 0.000000 
#    z 0.000000 0.000000 2.067590 
# 
# From -- ./inp_files/39407.got.cif
#   From: 2010.05.17/outbox.cif.g08.bks.cpg/sg66_20_cif.got.tgz:39407.got - 2010.06.03 17:51:23.
