data_PCOD9499661
_publ_section_title
;
Structure prediction by ZEFSAII (Michael W. Deem and Ramdas Pophale) SiO2 
 PCOD9499661
Probable space group: C C C M
;
_chemical_formula_sum "Si O2"
_cell_formula_units_Z 56
_cell_length_a 17.897989
_cell_length_b 7.949332
_cell_length_c 16.577800
_cell_angle_alpha 90.000000
_cell_angle_beta 90.000000
_cell_angle_gamma 90.000000
_cell_volume 2358.640590
_symmetry_space_group_name_H-M "C C C M"
_symmetry_group_IT_number 66
_symmetry_cell_setting 'orthorhombic'
loop_
_space_group_symop_operation_xyz
x,y,z
-x,-y,z
x,-y,1/2-z
-x,y,1/2-z
-x,-y,-z
x,y,-z
-x,y,1/2+z
x,-y,1/2+z
1/2+x,1/2+y,z
1/2-x,1/2-y,z
1/2+x,1/2-y,1/2-z
1/2-x,1/2+y,1/2-z
1/2-x,1/2-y,-z
1/2+x,1/2+y,-z
1/2-x,1/2+y,1/2+z
1/2+x,1/2-y,1/2+z
loop_
_atom_site_type_symbol
_atom_site_label
_atom_site_fract_x
_atom_site_fract_y
_atom_site_fract_z
Si Si1 0.187546 0.985902 0.844029
Si Si2 0.549677 0.666066 0.905342
Si Si3 0.334704 0.108637 0.408794
Si Si4 0.000000 0.500000 0.127117
O O1 0.276254 0.002419 0.858359
O O2 0.168003 0.798179 0.875055
O O3 0.170730 0.000000 0.750000
O O4 0.135099 0.114566 0.891491
O O5 0.500000 0.500000 0.892907
O O6 0.523780 0.812903 0.844491
O O7 0.538297 0.717915 0.000000
O O8 0.306640 0.106746 0.500000
O O9 0.419364 0.046804 0.409604
#
# Coordination Sequence:
#
# PCOD9499661 Si02
#       4
#    16  16  16   8
#     4  11  25  44  67 100 144 186 229 287 363 426
#     4  11  22  42  71 101 135 178 229 290 348 416
#     4  11  23  46  74 102 136 188 244 297 353 432
#     4  12  25  42  73 108 131 172 243 296 343 412
#
# _framework density 23.74249
#
# number of rings (size 3 to 8) (size 9 to 14) (size 15 to 20)
#    0.000    0.857    2.857    6.000    0.000    6.286 
#    0.000    7.857    0.000    0.000    0.000    0.000 
#    0.000    0.000    0.000    0.000    0.000    0.000 
#
# Total GULP energy -156233.796556 kJ/mol
# GULP energy per Si atom -5579.778448 kJ/mol
# Density = 2.368845 g / cm^3
# Si number density = 23.742490 Si / 1000 Ang^3
#
#
#
# Elastic Constant Matrix: (Units=GPa)
#
#
# Indices 1 2 3 4 5 6 
#
# 1 155.8380 42.9008 -4.2191 0.0000 0.0000 0.0000
# 2 42.9008 122.7998 12.3883 0.0000 0.0000 0.0000
# 3 -4.2191 12.3883 78.2242 0.0000 0.0000 0.0000
# 4 0.0000 0.0000 0.0000 -17.4346 0.0000 0.0000
# 5 0.0000 0.0000 0.0000 0.0000 -21.5188 0.0000
# 6 0.0000 0.0000 0.0000 0.0000 0.0000 56.4026
#
#
#
# Elastic Compliance Matrix: (Units=1/GPa)
#
#
# Indices 1 2 3 4 5 6 
#
# 1 0.007148 -0.002577 0.000794 0.000000 0.000000 0.000000
# 2 -0.002577 0.009205 -0.001597 0.000000 0.000000 0.000000
# 3 0.000794 -0.001597 0.013079 0.000000 0.000000 0.000000
# 4 0.000000 0.000000 0.000000 -0.057357 0.000000 0.000000
# 5 0.000000 0.000000 0.000000 0.000000 -0.046471 0.000000
# 6 0.000000 0.000000 0.000000 0.000000 0.000000 0.017730
#
#
# Mechanical properties :
#
#
# Convention : Reuss Voigt Hill
#
# Bulk Modulus (GPa) = 44.10819 51.00023 47.55421
# Shear Modulus (GPa) = -118.06808 23.87596 -47.09606
#
# Velocity S-wave (km/s) = -7.05950 3.17459 -4.45862
# Velocity P-wave (km/s) = 6.91597 5.91309 2.53634
#
# Compressibility (1/GPa) = 0.02267152
#
# Stress axis : x y z
#
# Youngs Moduli (GPa) = 139.90134 108.63907 76.45581
#
# Poissons Ratio (x) = 0.27999 -0.06068
# Poissons Ratio (y) = 0.36056 0.12208
# Poissons Ratio (z) = -0.11104 0.17347
#
# Static dielectric constant tensor:
#      x y z
#    x 1.827390 0.000000 0.000000 
#    y 0.000000 1.908070 0.000000 
#    z 0.000000 0.000000 1.863740 
# 
# From -- ./inp_files/41093.got.cif
#   From: 2010.05.17/outbox.cif.g08.bks.cpg/sg66_21_cif.got.tgz:41093.got - 2010.06.03 17:51:23.
