data_PCOD9499182
_publ_section_title
;
Structure prediction by ZEFSAII (Michael W. Deem and Ramdas Pophale) SiO2 
 PCOD9499182
Probable space group: C C C M
;
_chemical_formula_sum "Si O2"
_cell_formula_units_Z 96
_cell_length_a 15.025669
_cell_length_b 19.342225
_cell_length_c 14.690031
_cell_angle_alpha 90.000000
_cell_angle_beta 90.000000
_cell_angle_gamma 90.000000
_cell_volume 4269.361808
_symmetry_space_group_name_H-M "C C C M"
_symmetry_group_IT_number 66
_symmetry_cell_setting 'orthorhombic'
loop_
_space_group_symop_operation_xyz
x,y,z
-x,-y,z
x,-y,1/2-z
-x,y,1/2-z
-x,-y,-z
x,y,-z
-x,y,1/2+z
x,-y,1/2+z
1/2+x,1/2+y,z
1/2-x,1/2-y,z
1/2+x,1/2-y,1/2-z
1/2-x,1/2+y,1/2-z
1/2-x,1/2-y,-z
1/2+x,1/2+y,-z
1/2-x,1/2+y,1/2+z
1/2+x,1/2-y,1/2+z
loop_
_atom_site_type_symbol
_atom_site_label
_atom_site_fract_x
_atom_site_fract_y
_atom_site_fract_z
Si Si1 0.331290 0.132371 0.101446
Si Si2 0.505533 0.186038 0.142201
Si Si3 0.042690 0.843739 0.607348
Si Si4 0.201365 0.321714 0.691461
Si Si5 0.643376 0.598948 0.398301
Si Si6 0.178867 0.957743 0.343946
O O1 0.438382 0.130147 0.100908
O O2 0.312587 0.171276 0.198455
O O3 0.275065 0.062885 0.117088
O O4 0.304204 0.160042 0.000000
O O5 0.500000 0.180813 0.250000
O O6 0.464464 0.260914 0.116416
O O7 0.611167 0.178088 0.131191
O O8 0.051219 0.859281 0.500000
O O9 0.121146 0.887209 0.654643
O O10 0.947280 0.870381 0.641969
O O11 0.250000 0.250000 0.675500
O O12 0.269420 0.379766 0.657342
O O13 0.652704 0.628233 0.500000
O O14 0.633128 0.516726 0.403697
O O15 0.182614 0.000000 0.250000
#
# Coordination Sequence:
#
# PCOD9499182 Si02
#       6
#    16  16  16  16  16  16
#     4  11  25  45  70 101 138 182 234 292 347 413
#     4  10  24  42  70 103 140 178 229 282 350 419
#     4  11  24  41  65 104 142 179 228 286 351 427
#     4  11  23  45  70 107 141 184 234 286 352 420
#     4  11  24  43  67  99 142 185 232 286 346 424
#     4  12  26  44  68  96 138 188 237 289 352 422
#
# _framework density 22.485796000000001
#
# number of rings (size 3 to 8) (size 9 to 14) (size 15 to 20)
#    0.000    1.000    3.333    2.500    7.000    4.000 
#    0.000    0.833    0.000    2.000    0.000    0.000 
#    0.000    0.000    0.000    0.000    0.000    0.000 
#
# Total GULP energy -267643.996209 kJ/mol
# GULP energy per Si atom -5575.916588 kJ/mol
# Density = 2.243462 g / cm^3
# Si number density = 22.485796 Si / 1000 Ang^3
#
#
#
# Elastic Constant Matrix: (Units=GPa)
#
#
# Indices 1 2 3 4 5 6 
#
# 1 143.2409 31.7542 44.0648 0.0000 0.0000 0.0000
# 2 31.7542 43.9838 14.0064 0.0000 0.0000 0.0000
# 3 44.0648 14.0064 118.1076 0.0000 0.0000 0.0000
# 4 0.0000 0.0000 0.0000 730.2982 0.0000 0.0000
# 5 0.0000 0.0000 0.0000 0.0000 32.8976 0.0000
# 6 0.0000 0.0000 0.0000 0.0000 0.0000 40.5938
#
#
#
# Elastic Compliance Matrix: (Units=1/GPa)
#
#
# Indices 1 2 3 4 5 6 
#
# 1 0.009077 -0.005689 -0.002712 0.000000 0.000000 0.000000
# 2 -0.005689 0.027194 -0.001102 0.000000 0.000000 0.000000
# 3 -0.002712 -0.001102 0.009609 0.000000 0.000000 0.000000
# 4 0.000000 0.000000 0.000000 0.001369 0.000000 0.000000
# 5 0.000000 0.000000 0.000000 0.000000 0.030397 0.000000
# 6 0.000000 0.000000 0.000000 0.000000 0.000000 0.024634
#
#
# Mechanical properties :
#
#
# Convention : Reuss Voigt Hill
#
# Bulk Modulus (GPa) = 37.21167 53.88701 45.54934
# Shear Modulus (GPa) = 38.38897 175.12502 106.75699
#
# Velocity S-wave (km/s) = 4.13638 8.83468 6.89787
# Velocity P-wave (km/s) = 6.27676 11.31750 9.15105
#
# Compressibility (1/GPa) = 0.02687329
#
# Stress axis : x y z
#
# Youngs Moduli (GPa) = 110.17224 36.77262 104.06588
#
# Poissons Ratio (x) = 0.20921 0.28220
# Poissons Ratio (y) = 0.62681 0.11471
# Poissons Ratio (z) = 0.29876 0.04053
#
# Static dielectric constant tensor:
#      x y z
#    x 1.887200 0.000000 0.000000 
#    y 0.000000 1.819830 0.000000 
#    z 0.000000 0.000000 1.348880 
# 
# From -- ./inp_files/28417.got.cif
#   From: 2010.05.17/outbox.cif.g08.bks.cpg/sg66_15_cif.got.tgz:28417.got - 2010.06.03 17:51:23.
