data_PCOD9499686
_publ_section_title
;
Structure prediction by ZEFSAII (Michael W. Deem and Ramdas Pophale) SiO2 
 PCOD9499686
Probable space group: C C C M
;
_chemical_formula_sum "Si O2"
_cell_formula_units_Z 60
_cell_length_a 19.669899
_cell_length_b 5.578986
_cell_length_c 24.093640
_cell_angle_alpha 90.000000
_cell_angle_beta 90.000000
_cell_angle_gamma 90.000000
_cell_volume 2643.990062
_symmetry_space_group_name_H-M "C C C M"
_symmetry_group_IT_number 66
_symmetry_cell_setting 'orthorhombic'
loop_
_space_group_symop_operation_xyz
x,y,z
-x,-y,z
x,-y,1/2-z
-x,y,1/2-z
-x,-y,-z
x,y,-z
-x,y,1/2+z
x,-y,1/2+z
1/2+x,1/2+y,z
1/2-x,1/2-y,z
1/2+x,1/2-y,1/2-z
1/2-x,1/2+y,1/2-z
1/2-x,1/2-y,-z
1/2+x,1/2+y,-z
1/2-x,1/2+y,1/2+z
1/2+x,1/2-y,1/2+z
loop_
_atom_site_type_symbol
_atom_site_label
_atom_site_fract_x
_atom_site_fract_y
_atom_site_fract_z
Si Si1 0.000000 0.000000 0.250000
Si Si2 0.500000 0.000000 0.398365
Si Si3 0.865927 0.745422 0.000000
Si Si4 0.899359 0.648836 0.306290
Si Si5 0.250000 0.250000 0.909640
Si Si6 0.552421 0.257095 0.000000
Si Si7 0.250000 0.750000 0.844131
O O1 0.048268 0.143040 0.291675
O O2 0.433911 0.007193 0.358102
O O3 0.489308 0.217122 0.442461
O O4 0.816842 0.753674 0.052780
O O5 0.899799 0.480823 0.000000
O O6 0.908688 0.992728 0.000000
O O7 0.899930 0.500000 0.250000
O O8 0.822929 0.740024 0.314168
O O9 0.250151 0.498563 0.876628
#
# Coordination Sequence:
#
# PCOD9499686 Si02
#       7
#     4   8   8  16   8   8   8
#     4  12  26  48  80 108 144 210 250 324 392 452
#     4  11  23  48  70 108 159 189 268 308 400 451
#     4  11  22  45  70 106 160 195 268 298 392 447
#     4  12  27  50  73 112 150 206 254 328 385 471
#     4  11  24  45  72 111 152 213 244 326 376 464
#     4  11  26  41  74 113 146 208 248 330 368 474
#     4  12  30  46  80 111 154 198 264 313 394 458
#
# _framework density 22.692972999999999
#
# number of rings (size 3 to 8) (size 9 to 14) (size 15 to 20)
#    0.000    0.533    2.667    4.800    5.600    8.533 
#    0.000    0.000    0.000    0.000    0.000    0.000 
#    0.000    0.000    0.000    0.000    0.000    0.000 
#
# Total GULP energy -167622.927201 kJ/mol
# GULP energy per Si atom -5587.430907 kJ/mol
# Density = 2.264132 g / cm^3
# Si number density = 22.692973 Si / 1000 Ang^3
#
#
#
# Elastic Constant Matrix: (Units=GPa)
#
#
# Indices 1 2 3 4 5 6 
#
# 1 207.9245 98.7077 88.8584 0.0000 0.0000 0.0000
# 2 98.7077 191.3730 70.9496 0.0000 0.0000 0.0000
# 3 88.8584 70.9496 150.5647 0.0000 0.0000 0.0000
# 4 0.0000 0.0000 0.0000 -8.6325 0.0000 0.0000
# 5 0.0000 0.0000 0.0000 0.0000 35.5021 0.0000
# 6 0.0000 0.0000 0.0000 0.0000 0.0000 58.3485
#
#
#
# Elastic Compliance Matrix: (Units=1/GPa)
#
#
# Indices 1 2 3 4 5 6 
#
# 1 0.007406 -0.002665 -0.003115 0.000000 0.000000 0.000000
# 2 -0.002665 0.007291 -0.001863 0.000000 0.000000 0.000000
# 3 -0.003115 -0.001863 0.009358 0.000000 0.000000 0.000000
# 4 0.000000 0.000000 0.000000 -0.115841 0.000000 0.000000
# 5 0.000000 0.000000 0.000000 0.000000 0.028167 0.000000
# 6 0.000000 0.000000 0.000000 0.000000 0.000000 0.017138
#
#
# Mechanical properties :
#
#
# Convention : Reuss Voigt Hill
#
# Bulk Modulus (GPa) = 114.03864 118.54372 116.29118
# Shear Modulus (GPa) = -176.84628 36.46671 -70.18979
#
# Velocity S-wave (km/s) = -8.83737 4.01304 -5.56752
# Velocity P-wave (km/s) = 7.33282 8.59210 3.16653
#
# Compressibility (1/GPa) = 0.00876896
#
# Stress axis : x y z
#
# Youngs Moduli (GPa) = 135.03058 137.16416 106.86430
#
# Poissons Ratio (x) = 0.36554 0.33286
# Poissons Ratio (y) = 0.35986 0.19905
# Poissons Ratio (z) = 0.42060 0.25549
#
# Static dielectric constant tensor:
#      x y z
#    x 1.805200 0.000000 0.000000 
#    y 0.000000 1.826610 0.000000 
#    z 0.000000 0.000000 1.876150 
# 
# From -- ./inp_files/64951.got.cif
#   From: 2010.05.17/outbox.cif.g08.bks.cpg/sg66_33_cif.got.tgz:64951.got - 2010.06.03 17:51:23.
