data_PCOD9499827
_publ_section_title
;
Structure prediction by ZEFSAII (Michael W. Deem and Ramdas Pophale) SiO2 
 PCOD9499827
Probable space group: C C C M
;
_chemical_formula_sum "Si O2"
_cell_formula_units_Z 112
_cell_length_a 14.059051
_cell_length_b 14.287267
_cell_length_c 25.161142
_cell_angle_alpha 90.000000
_cell_angle_beta 90.000000
_cell_angle_gamma 90.000000
_cell_volume 5054.003240
_symmetry_space_group_name_H-M "C C C M"
_symmetry_group_IT_number 66
_symmetry_cell_setting 'orthorhombic'
loop_
_space_group_symop_operation_xyz
x,y,z
-x,-y,z
x,-y,1/2-z
-x,y,1/2-z
-x,-y,-z
x,y,-z
-x,y,1/2+z
x,-y,1/2+z
1/2+x,1/2+y,z
1/2-x,1/2-y,z
1/2+x,1/2-y,1/2-z
1/2-x,1/2+y,1/2-z
1/2-x,1/2-y,-z
1/2+x,1/2+y,-z
1/2-x,1/2+y,1/2+z
1/2+x,1/2-y,1/2+z
loop_
_atom_site_type_symbol
_atom_site_label
_atom_site_fract_x
_atom_site_fract_y
_atom_site_fract_z
Si Si1 0.927392 0.919609 0.563741
Si Si2 0.394887 0.714766 0.726569
Si Si3 0.905874 0.448420 0.135971
Si Si4 0.244503 0.530873 0.561703
Si Si5 0.710275 0.109531 0.764466
Si Si6 0.845777 0.203457 0.610743
Si Si7 0.984706 0.712911 0.437758
O O1 0.943296 0.917818 0.500000
O O2 0.947190 0.814334 0.581616
O O3 0.817897 0.945726 0.571757
O O4 0.000000 0.000000 0.584648
O O5 0.500000 0.709120 0.750000
O O6 0.357215 0.822544 0.729114
O O7 0.315020 0.655250 0.758712
O O8 0.397212 0.679198 0.665781
O O9 0.840176 0.520569 0.103365
O O10 0.841620 0.394974 0.178817
O O11 0.941797 0.372086 0.094123
O O12 0.000000 0.500000 0.158649
O O13 0.214374 0.531134 0.500000
O O14 0.312521 0.618465 0.574174
O O15 0.715357 0.000000 0.750000
O O16 0.750000 0.250000 0.630571
O O17 0.904256 0.275484 0.575096
O O18 0.966838 0.701934 0.500000
#
# Coordination Sequence:
#
# PCOD9499827 Si02
#       7
#    16  16  16  16  16  16  16
#     4   9  18  39  64  92 128 177 229 275 337 411
#     4  11  26  48  75 108 144 177 243 316 361 434
#     4  12  28  44  68 102 142 191 245 291 356 436
#     4  11  24  42  68 101 145 190 234 292 354 433
#     4  11  26  49  75 102 138 190 238 297 374 434
#     4  12  23  41  69  99 138 183 237 293 356 431
#     4  11  24  42  69 103 145 189 234 292 358 424
#
# _framework density 22.160651000000001
#
# number of rings (size 3 to 8) (size 9 to 14) (size 15 to 20)
#    0.000    1.000    2.857    3.429    4.000    7.714 
#    0.000    2.143    0.000    0.000    0.000    0.000 
#    0.000    0.000    0.000    0.000    0.000    0.000 
#
# Total GULP energy -312959.560077 kJ/mol
# GULP energy per Si atom -5588.563573 kJ/mol
# Density = 2.211021 g / cm^3
# Si number density = 22.160651 Si / 1000 Ang^3
#
#
#
# Elastic Constant Matrix: (Units=GPa)
#
#
# Indices 1 2 3 4 5 6 
#
# 1 78.9181 16.7883 25.9332 0.0000 0.0000 0.0000
# 2 16.7883 91.0806 17.1065 0.0000 0.0000 0.0000
# 3 25.9332 17.1065 55.0575 0.0000 0.0000 0.0000
# 4 0.0000 0.0000 0.0000 -59.0677 0.0000 0.0000
# 5 0.0000 0.0000 0.0000 0.0000 30.7617 0.0000
# 6 0.0000 0.0000 0.0000 0.0000 0.0000 21.4545
#
#
#
# Elastic Compliance Matrix: (Units=1/GPa)
#
#
# Indices 1 2 3 4 5 6 
#
# 1 0.015194 -0.001547 -0.006676 0.000000 0.000000 0.000000
# 2 -0.001547 0.011817 -0.002943 0.000000 0.000000 0.000000
# 3 -0.006676 -0.002943 0.022222 0.000000 0.000000 0.000000
# 4 0.000000 0.000000 0.000000 -0.016930 0.000000 0.000000
# 5 0.000000 0.000000 0.000000 0.000000 0.032508 0.000000
# 6 0.000000 0.000000 0.000000 0.000000 0.000000 0.046610
#
#
# Mechanical properties :
#
#
# Convention : Reuss Voigt Hill
#
# Bulk Modulus (GPa) = 37.17304 38.30136 37.73720
# Shear Modulus (GPa) = 35.03337 9.64491 22.33914
#
# Velocity S-wave (km/s) = 3.98034 2.08847 3.17843
# Velocity P-wave (km/s) = 6.15914 4.81006 5.52592
#
# Compressibility (1/GPa) = 0.02690122
#
# Stress axis : x y z
#
# Youngs Moduli (GPa) = 65.81424 84.62276 45.00063
#
# Poissons Ratio (x) = 0.13089 0.30044
# Poissons Ratio (y) = 0.10180 0.13244
# Poissons Ratio (z) = 0.43939 0.24905
#
# Static dielectric constant tensor:
#      x y z
#    x 1.869650 0.000000 0.000000 
#    y 0.000000 1.842970 0.000000 
#    z 0.000000 0.000000 1.803420 
# 
# From -- ./inp_files/58260.got.cif
#   From: 2010.05.17/outbox.cif.g08.bks.cpg/sg66_30_cif.got.tgz:58260.got - 2010.06.03 17:51:23.
