data_PCOD9499381
_publ_section_title
;
Structure prediction by ZEFSAII (Michael W. Deem and Ramdas Pophale) SiO2 
 PCOD9499381
Probable space group: C C C M
;
_chemical_formula_sum "Si O2"
_cell_formula_units_Z 80
_cell_length_a 11.180029
_cell_length_b 16.654203
_cell_length_c 21.081532
_cell_angle_alpha 90.000000
_cell_angle_beta 90.000000
_cell_angle_gamma 90.000000
_cell_volume 3925.264730
_symmetry_space_group_name_H-M "C C C M"
_symmetry_group_IT_number 66
_symmetry_cell_setting 'orthorhombic'
loop_
_space_group_symop_operation_xyz
x,y,z
-x,-y,z
x,-y,1/2-z
-x,y,1/2-z
-x,-y,-z
x,y,-z
-x,y,1/2+z
x,-y,1/2+z
1/2+x,1/2+y,z
1/2-x,1/2-y,z
1/2+x,1/2-y,1/2-z
1/2-x,1/2+y,1/2-z
1/2-x,1/2-y,-z
1/2+x,1/2+y,-z
1/2-x,1/2+y,1/2+z
1/2+x,1/2-y,1/2+z
loop_
_atom_site_type_symbol
_atom_site_label
_atom_site_fract_x
_atom_site_fract_y
_atom_site_fract_z
Si Si1 0.432844 0.141252 0.688768
Si Si2 0.213885 0.500000 0.750000
Si Si3 0.329889 0.553669 0.624511
Si Si4 0.431974 0.384551 0.425428
Si Si5 0.250000 0.250000 0.381015
Si Si6 0.072438 0.584307 0.429969
O O1 0.500000 0.174344 0.750000
O O2 0.373007 0.057678 0.710208
O O3 0.326792 0.194281 0.663961
O O4 0.520642 0.131578 0.629541
O O5 0.292623 0.548097 0.698529
O O6 0.438704 0.614411 0.609353
O O7 0.369465 0.464118 0.603283
O O8 0.212037 0.572510 0.583741
O O9 0.453317 0.396914 0.500000
O O10 0.343808 0.308280 0.417311
O O11 0.053233 0.620628 0.500000
O O12 0.000000 0.500000 0.429887
#
# Coordination Sequence:
#
# PCOD9499381 Si02
#       6
#    16   8  16  16   8  16
#     4  12  24  44  67  96 136 177 228 283 346 416
#     4  12  21  41  70 100 130 175 225 286 344 408
#     4  11  22  40  69 101 133 175 230 293 346 417
#     4  11  24  43  66  98 138 178 226 289 352 421
#     4  12  27  46  66  98 131 194 228 284 362 426
#     4  11  20  35  65 101 131 170 225 284 343 405
#
# _framework density 20.380790999999999
#
# number of rings (size 3 to 8) (size 9 to 14) (size 15 to 20)
#    0.000    0.600    6.000    3.000    0.000    6.400 
#    0.000    0.000    0.000    2.400    0.000    0.000 
#    0.000    0.000    0.000    0.000    0.000    0.000 
#
# Total GULP energy -223474.666517 kJ/mol
# GULP energy per Si atom -5586.866663 kJ/mol
# Density = 2.033440 g / cm^3
# Si number density = 20.380791 Si / 1000 Ang^3
#
#
#
# Elastic Constant Matrix: (Units=GPa)
#
#
# Indices 1 2 3 4 5 6 
#
# 1 149.5953 33.2259 51.2061 0.0000 0.0000 0.0000
# 2 33.2259 45.6001 7.1449 0.0000 0.0000 0.0000
# 3 51.2061 7.1449 157.3254 0.0000 0.0000 0.0000
# 4 0.0000 0.0000 0.0000 18.8436 0.0000 0.0000
# 5 0.0000 0.0000 0.0000 0.0000 28.8273 0.0000
# 6 0.0000 0.0000 0.0000 0.0000 0.0000 26.9511
#
#
#
# Elastic Compliance Matrix: (Units=1/GPa)
#
#
# Indices 1 2 3 4 5 6 
#
# 1 0.008941 -0.006102 -0.002633 0.000000 0.000000 0.000000
# 2 -0.006102 0.026252 0.000794 0.000000 0.000000 0.000000
# 3 -0.002633 0.000794 0.007177 0.000000 0.000000 0.000000
# 4 0.000000 0.000000 0.000000 0.053068 0.000000 0.000000
# 5 0.000000 0.000000 0.000000 0.000000 0.034689 0.000000
# 6 0.000000 0.000000 0.000000 0.000000 0.000000 0.037104
#
#
# Mechanical properties :
#
#
# Convention : Reuss Voigt Hill
#
# Bulk Modulus (GPa) = 37.75392 59.51940 48.63666
# Shear Modulus (GPa) = 26.04922 32.32069 29.18496
#
# Velocity S-wave (km/s) = 3.57897 3.98658 3.78826
# Velocity P-wave (km/s) = 5.97019 7.10335 6.56128
#
# Compressibility (1/GPa) = 0.02648731
#
# Stress axis : x y z
#
# Youngs Moduli (GPa) = 111.83954 38.09263 139.32999
#
# Poissons Ratio (x) = 0.23246 0.36687
# Poissons Ratio (y) = 0.68249 -0.11063
# Poissons Ratio (z) = 0.29448 -0.03025
#
# Static dielectric constant tensor:
#      x y z
#    x 1.903240 0.000000 0.000000 
#    y 0.000000 1.700460 0.000000 
#    z 0.000000 0.000000 1.744700 
# 
# From -- ./inp_files/48474.got.cif
#   From: 2010.05.17/outbox.cif.g08.bks.cpg/sg66_25_cif.got.tgz:48474.got - 2010.06.03 17:51:23.
