data_PCOD9499408
_publ_section_title
;
Structure prediction by ZEFSAII (Michael W. Deem and Ramdas Pophale) SiO2 
 PCOD9499408
Probable space group: C C C M
;
_chemical_formula_sum "Si O2"
_cell_formula_units_Z 56
_cell_length_a 34.537034
_cell_length_b 5.117981
_cell_length_c 14.732963
_cell_angle_alpha 90.000000
_cell_angle_beta 90.000000
_cell_angle_gamma 90.000000
_cell_volume 2604.196828
_symmetry_space_group_name_H-M "C C C M"
_symmetry_group_IT_number 66
_symmetry_cell_setting 'orthorhombic'
loop_
_space_group_symop_operation_xyz
x,y,z
-x,-y,z
x,-y,1/2-z
-x,y,1/2-z
-x,-y,-z
x,y,-z
-x,y,1/2+z
x,-y,1/2+z
1/2+x,1/2+y,z
1/2-x,1/2-y,z
1/2+x,1/2-y,1/2-z
1/2-x,1/2+y,1/2-z
1/2-x,1/2-y,-z
1/2+x,1/2+y,-z
1/2-x,1/2+y,1/2+z
1/2+x,1/2-y,1/2+z
loop_
_atom_site_type_symbol
_atom_site_label
_atom_site_fract_x
_atom_site_fract_y
_atom_site_fract_z
Si Si1 0.972388 0.755334 0.500000
Si Si2 0.725704 0.998716 0.110313
Si Si3 0.587830 0.590093 0.653869
Si Si4 0.636292 0.931716 0.891774
O O1 0.944600 0.798238 0.586377
O O2 0.000000 0.500000 0.500000
O O3 0.000000 0.000000 0.500000
O O4 0.750000 0.250000 0.141835
O O5 0.750000 0.750000 0.137945
O O6 0.681263 0.944136 0.135460
O O7 0.725165 0.013629 0.000000
O O8 0.570996 0.500000 0.750000
O O9 0.613361 0.342189 0.619499
O O10 0.616283 0.834789 0.662598
O O11 0.634051 0.995293 0.000000
#
# Coordination Sequence:
#
# PCOD9499408 Si02
#       4
#     8  16  16  16
#     4  12  26  48  76 102 136 172 214 270 336 412
#     4   9  17  29  52  90 128 172 231 283 329 384
#     4  12  25  44  70 103 137 175 224 274 336 405
#     4  11  20  39  67  95 136 184 230 281 335 395
#
# _framework density 21.503751999999999
#
# number of rings (size 3 to 8) (size 9 to 14) (size 15 to 20)
#    0.000    1.143    2.857    4.286    0.000    5.143 
#    0.000    1.429    0.000   17.143    0.000    0.000 
#    0.000    0.000    0.000    0.000    0.000    0.000 
#
# Total GULP energy -156394.661240 kJ/mol
# GULP energy per Si atom -5585.523616 kJ/mol
# Density = 2.145481 g / cm^3
# Si number density = 21.503752 Si / 1000 Ang^3
#
#
#
# Elastic Constant Matrix: (Units=GPa)
#
#
# Indices 1 2 3 4 5 6 
#
# 1 175.6795 88.4097 51.4728 0.0000 0.0000 0.0000
# 2 88.4097 195.1452 29.6822 0.0000 0.0000 0.0000
# 3 51.4728 29.6822 116.3551 0.0000 0.0000 0.0000
# 4 0.0000 0.0000 0.0000 10.2120 0.0000 0.0000
# 5 0.0000 0.0000 0.0000 0.0000 -56.5357 0.0000
# 6 0.0000 0.0000 0.0000 0.0000 0.0000 44.8373
#
#
#
# Elastic Compliance Matrix: (Units=1/GPa)
#
#
# Indices 1 2 3 4 5 6 
#
# 1 0.008150 -0.003271 -0.002771 0.000000 0.000000 0.000000
# 2 -0.003271 0.006644 -0.000248 0.000000 0.000000 0.000000
# 3 -0.002771 -0.000248 0.009883 0.000000 0.000000 0.000000
# 4 0.000000 0.000000 0.000000 0.097924 0.000000 0.000000
# 5 0.000000 0.000000 0.000000 0.000000 -0.017688 0.000000
# 6 0.000000 0.000000 0.000000 0.000000 0.000000 0.022303
#
#
# Mechanical properties :
#
#
# Convention : Reuss Voigt Hill
#
# Bulk Modulus (GPa) = 82.65902 91.81214 87.23558
# Shear Modulus (GPa) = 34.76349 20.87705 27.82027
#
# Velocity S-wave (km/s) = 4.02509 3.11924 3.60076
# Velocity P-wave (km/s) = 7.75400 7.46736 7.61203
#
# Compressibility (1/GPa) = 0.01209789
#
# Stress axis : x y z
#
# Youngs Moduli (GPa) = 122.69731 150.51249 101.17923
#
# Poissons Ratio (x) = 0.49231 0.28037
# Poissons Ratio (y) = 0.40133 0.02508
# Poissons Ratio (z) = 0.34000 0.03731
#
# Static dielectric constant tensor:
#      x y z
#    x 1.783990 0.000000 0.000000 
#    y 0.000000 1.723790 0.000000 
#    z 0.000000 0.000000 1.619440 
# 
# From -- ./inp_files/33520.got.cif
#   From: 2010.05.17/outbox.cif.g08.bks.cpg/sg66_17_cif.got.tgz:33520.got - 2010.06.03 17:51:23.
