data_PCOD9499312
_publ_section_title
;
Structure prediction by ZEFSAII (Michael W. Deem and Ramdas Pophale) SiO2 
 PCOD9499312
Probable space group: C C C M
;
_chemical_formula_sum "Si O2"
_cell_formula_units_Z 96
_cell_length_a 25.745756
_cell_length_b 26.307231
_cell_length_c 10.102166
_cell_angle_alpha 90.000000
_cell_angle_beta 90.000000
_cell_angle_gamma 90.000000
_cell_volume 6842.192489
_symmetry_space_group_name_H-M "C C C M"
_symmetry_group_IT_number 66
_symmetry_cell_setting 'orthorhombic'
loop_
_space_group_symop_operation_xyz
x,y,z
-x,-y,z
x,-y,1/2-z
-x,y,1/2-z
-x,-y,-z
x,y,-z
-x,y,1/2+z
x,-y,1/2+z
1/2+x,1/2+y,z
1/2-x,1/2-y,z
1/2+x,1/2-y,1/2-z
1/2-x,1/2+y,1/2-z
1/2-x,1/2-y,-z
1/2+x,1/2+y,-z
1/2-x,1/2+y,1/2+z
1/2+x,1/2-y,1/2+z
loop_
_atom_site_type_symbol
_atom_site_label
_atom_site_fract_x
_atom_site_fract_y
_atom_site_fract_z
Si Si1 0.933821 0.911274 0.000000
Si Si2 0.051891 0.216755 0.500000
Si Si3 0.795493 0.146176 0.842382
Si Si4 0.446241 0.408238 0.500000
Si Si5 0.932052 0.209509 0.500000
Si Si6 0.284477 0.801954 0.344594
Si Si7 0.627033 0.441482 0.762233
Si Si8 0.873157 0.238053 0.233672
O O1 0.901833 0.927982 0.873034
O O2 0.936165 0.850797 0.000000
O O3 0.994250 0.926658 0.000000
O O4 0.056604 0.154177 0.500000
O O5 0.081513 0.239792 0.374123
O O6 0.990993 0.229228 0.500000
O O7 0.747558 0.158444 0.744967
O O8 0.825208 0.095400 0.797080
O O9 0.835750 0.192635 0.817147
O O10 0.783323 0.144673 0.000000
O O11 0.415650 0.430056 0.625242
O O12 0.899970 0.224457 0.371486
O O13 0.292277 0.816293 0.500000
O O14 0.250000 0.750000 0.348086
O O15 0.336772 0.786073 0.267037
O O16 0.642769 0.500000 0.750000
#
# Coordination Sequence:
#
# PCOD9499312 Si02
#       8
#     8   8  16   8   8  16  16  16
#     4  11  23  32  54  62  81 125 161 201 247 281
#     4  11  20  31  50  68  94 126 155 190 234 280
#     4  11  21  35  48  67  89 113 152 198 238 290
#     4  11  21  40  44  64  89 117 165 205 239 281
#     4  11  20  31  48  70  92 124 157 192 236 272
#     4   9  20  31  50  70  88 111 144 188 237 278
#     4  12  23  35  49  65  88 117 152 204 252 284
#     4  11  18  33  49  67  93 117 150 193 228 276
#
# _framework density 14.030590999999999
#
# number of rings (size 3 to 8) (size 9 to 14) (size 15 to 20)
#    0.000    1.167    5.833    1.500    3.500    5.667 
#    0.000    0.000    0.000    0.000    0.000    0.000 
#    0.000    0.000    0.000    0.000    0.000    5.000 
#
# Total GULP energy -267699.601383 kJ/mol
# GULP energy per Si atom -5577.075029 kJ/mol
# Density = 1.399866 g / cm^3
# Si number density = 14.030591 Si / 1000 Ang^3
#
#
#
# Elastic Constant Matrix: (Units=GPa)
#
#
# Indices 1 2 3 4 5 6 
#
# 1 53.8070 46.3783 29.7930 0.0000 0.0000 0.0000
# 2 46.3783 54.9555 40.5922 0.0000 0.0000 0.0000
# 3 29.7930 40.5922 129.3621 0.0000 0.0000 0.0000
# 4 0.0000 0.0000 0.0000 22.4189 0.0000 0.0000
# 5 0.0000 0.0000 0.0000 0.0000 32.8161 0.0000
# 6 0.0000 0.0000 0.0000 0.0000 0.0000 15.2221
#
#
#
# Elastic Compliance Matrix: (Units=1/GPa)
#
#
# Indices 1 2 3 4 5 6 
#
# 1 0.069125 -0.060630 0.003105 0.000000 0.000000 0.000000
# 2 -0.060630 0.076865 -0.010156 0.000000 0.000000 0.000000
# 3 0.003105 -0.010156 0.010202 0.000000 0.000000 0.000000
# 4 0.000000 0.000000 0.000000 0.044605 0.000000 0.000000
# 5 0.000000 0.000000 0.000000 0.000000 0.030473 0.000000
# 6 0.000000 0.000000 0.000000 0.000000 0.000000 0.065694
#
#
# Mechanical properties :
#
#
# Convention : Reuss Voigt Hill
#
# Bulk Modulus (GPa) = 48.00637 52.40573 50.20605
# Shear Modulus (GPa) = 11.38257 22.18215 16.78236
#
# Velocity S-wave (km/s) = 2.85137 3.98047 3.46226
# Velocity P-wave (km/s) = 6.71790 7.65230 7.20027
#
# Compressibility (1/GPa) = 0.02083057
#
# Stress axis : x y z
#
# Youngs Moduli (GPa) = 14.46659 13.00984 98.02063
#
# Poissons Ratio (x) = 0.78878 -0.30434
# Poissons Ratio (y) = 0.87710 0.99548
# Poissons Ratio (z) = -0.04492 0.13213
#
# Static dielectric constant tensor:
#      x y z
#    x 1.475790 0.000000 0.000000 
#    y 0.000000 1.447600 0.000000 
#    z 0.000000 0.000000 1.410070 
# 
# From -- ./inp_files/9194.got.cif
#   From: 2010.05.17/outbox.cif.g08.bks.cpg/sg66_5_cif.got.tgz:9194.got - 2010.06.03 17:51:23.
