data_PCOD9499618
_publ_section_title
;
Structure prediction by ZEFSAII (Michael W. Deem and Ramdas Pophale) SiO2 
 PCOD9499618
Probable space group: C C C M
;
_chemical_formula_sum "Si O2"
_cell_formula_units_Z 80
_cell_length_a 16.125865
_cell_length_b 11.674736
_cell_length_c 21.688769
_cell_angle_alpha 90.000000
_cell_angle_beta 90.000000
_cell_angle_gamma 90.000000
_cell_volume 4083.240795
_symmetry_space_group_name_H-M "C C C M"
_symmetry_group_IT_number 66
_symmetry_cell_setting 'orthorhombic'
loop_
_space_group_symop_operation_xyz
x,y,z
-x,-y,z
x,-y,1/2-z
-x,y,1/2-z
-x,-y,-z
x,y,-z
-x,y,1/2+z
x,-y,1/2+z
1/2+x,1/2+y,z
1/2-x,1/2-y,z
1/2+x,1/2-y,1/2-z
1/2-x,1/2+y,1/2-z
1/2-x,1/2-y,-z
1/2+x,1/2+y,-z
1/2-x,1/2+y,1/2+z
1/2+x,1/2-y,1/2+z
loop_
_atom_site_type_symbol
_atom_site_label
_atom_site_fract_x
_atom_site_fract_y
_atom_site_fract_z
Si Si1 0.378049 0.743387 0.640067
Si Si2 0.154845 0.722833 0.500000
Si Si3 0.527804 0.875306 0.679726
Si Si4 0.746414 0.437949 0.683317
Si Si5 0.309447 0.142128 0.385938
Si Si6 0.596832 0.964196 0.500000
O O1 0.374311 0.731215 0.566183
O O2 0.472355 0.774855 0.652534
O O3 0.336719 0.636222 0.674532
O O4 0.322098 0.851254 0.665211
O O5 0.250000 0.750000 0.500000
O O6 0.140801 0.587040 0.500000
O O7 0.500000 0.880487 0.750000
O O8 0.624313 0.849359 0.670118
O O9 0.500000 0.000000 0.652771
O O10 0.752933 0.500000 0.750000
O O11 0.751499 0.536137 0.631977
O O12 0.250000 0.250000 0.395880
O O13 0.370229 0.107966 0.441823
O O14 0.500000 0.000000 0.500000
#
# Coordination Sequence:
#
# PCOD9499618 Si02
#       6
#    16   8  16  16  16   8
#     4  11  22  39  66  98 129 172 226 278 332 387
#     4  12  18  37  64  97 126 157 219 272 312 391
#     4  11  22  40  62  95 128 170 228 275 327 397
#     4  11  23  38  63  97 131 171 219 271 334 394
#     4  12  25  41  64  97 134 174 211 276 340 401
#     4  12  23  43  68  97 134 164 225 277 338 395
#
# _framework density 19.592279999999999
#
# number of rings (size 3 to 8) (size 9 to 14) (size 15 to 20)
#    0.000    0.600    6.000    3.300    5.600    0.000 
#    0.000    1.000    0.000    0.000    0.000    8.400 
#    0.000    0.000    0.000    0.000    0.000    0.000 
#
# Total GULP energy -223184.888291 kJ/mol
# GULP energy per Si atom -5579.622207 kJ/mol
# Density = 1.954769 g / cm^3
# Si number density = 19.592280 Si / 1000 Ang^3
#
#
#
# Elastic Constant Matrix: (Units=GPa)
#
#
# Indices 1 2 3 4 5 6 
#
# 1 107.2417 60.3741 19.2172 0.0000 0.0000 0.0000
# 2 60.3741 109.3632 31.1881 0.0000 0.0000 0.0000
# 3 19.2172 31.1881 121.5664 0.0000 0.0000 0.0000
# 4 0.0000 0.0000 0.0000 55.9724 0.0000 0.0000
# 5 0.0000 0.0000 0.0000 0.0000 18.7339 0.0000
# 6 0.0000 0.0000 0.0000 0.0000 0.0000 30.9817
#
#
#
# Elastic Compliance Matrix: (Units=1/GPa)
#
#
# Indices 1 2 3 4 5 6 
#
# 1 0.013536 -0.007404 -0.000240 0.000000 0.000000 0.000000
# 2 -0.007404 0.013916 -0.002400 0.000000 0.000000 0.000000
# 3 -0.000240 -0.002400 0.008880 0.000000 0.000000 0.000000
# 4 0.000000 0.000000 0.000000 0.017866 0.000000 0.000000
# 5 0.000000 0.000000 0.000000 0.000000 0.053379 0.000000
# 6 0.000000 0.000000 0.000000 0.000000 0.000000 0.032277
#
#
# Mechanical properties :
#
#
# Convention : Reuss Voigt Hill
#
# Bulk Modulus (GPa) = 61.56387 62.19224 61.87806
# Shear Modulus (GPa) = 30.23780 36.29706 33.26743
#
# Velocity S-wave (km/s) = 3.93281 4.30888 4.12513
# Velocity P-wave (km/s) = 7.21896 7.52113 7.37159
#
# Compressibility (1/GPa) = 0.01624329
#
# Stress axis : x y z
#
# Youngs Moduli (GPa) = 73.87657 71.86172 112.61810
#
# Poissons Ratio (x) = 0.53207 0.02706
# Poissons Ratio (y) = 0.54699 0.27024
# Poissons Ratio (z) = 0.01775 0.17244
#
# Static dielectric constant tensor:
#      x y z
#    x 1.726150 0.000000 0.000000 
#    y 0.000000 1.690070 0.000000 
#    z 0.000000 0.000000 1.737050 
# 
# From -- ./inp_files/50812.got.cif
#   From: 2010.05.17/outbox.cif.g08.bks.cpg/sg66_26_cif.got.tgz:50812.got - 2010.06.03 17:51:23.
