data_PCOD9499722
_publ_section_title
;
Structure prediction by ZEFSAII (Michael W. Deem and Ramdas Pophale) SiO2 
 PCOD9499722
Probable space group: C C C M
;
_chemical_formula_sum "Si O2"
_cell_formula_units_Z 96
_cell_length_a 14.374012
_cell_length_b 14.280953
_cell_length_c 24.260198
_cell_angle_alpha 90.000000
_cell_angle_beta 90.000000
_cell_angle_gamma 90.000000
_cell_volume 4980.002193
_symmetry_space_group_name_H-M "C C C M"
_symmetry_group_IT_number 66
_symmetry_cell_setting 'orthorhombic'
loop_
_space_group_symop_operation_xyz
x,y,z
-x,-y,z
x,-y,1/2-z
-x,y,1/2-z
-x,-y,-z
x,y,-z
-x,y,1/2+z
x,-y,1/2+z
1/2+x,1/2+y,z
1/2-x,1/2-y,z
1/2+x,1/2-y,1/2-z
1/2-x,1/2+y,1/2-z
1/2-x,1/2-y,-z
1/2+x,1/2+y,-z
1/2-x,1/2+y,1/2+z
1/2+x,1/2-y,1/2+z
loop_
_atom_site_type_symbol
_atom_site_label
_atom_site_fract_x
_atom_site_fract_y
_atom_site_fract_z
Si Si1 0.577764 0.578189 0.384366
Si Si2 0.853318 0.787165 0.780326
Si Si3 0.360246 0.358582 0.500000
Si Si4 0.138859 0.358441 0.500000
Si Si5 0.770249 0.980852 0.814233
Si Si6 0.464363 0.760926 0.171925
Si Si7 0.401514 0.050977 0.619034
O O1 0.500000 0.500000 0.375966
O O2 0.611896 0.582570 0.446634
O O3 0.661422 0.555901 0.342391
O O4 0.540003 0.681796 0.373890
O O5 0.750000 0.750000 0.770731
O O6 0.831796 0.885879 0.809891
O O7 0.910114 0.786412 0.723284
O O8 0.926125 0.724958 0.815465
O O9 0.249651 0.350721 0.500000
O O10 0.396844 0.250118 0.500000
O O11 0.113803 0.414092 0.556125
O O12 0.679396 0.987532 0.853253
O O13 0.745315 0.000000 0.750000
O O14 0.411528 0.854632 0.155407
O O15 0.500000 0.000000 0.621822
#
# Coordination Sequence:
#
# PCOD9499722 Si02
#       7
#    16  16   8   8  16  16  16
#     4  12  23  41  68  97 133 171 226 285 346 404
#     4  11  23  41  62  94 137 178 224 274 332 411
#     4  11  23  42  70  98 131 169 232 288 348 398
#     4  11  23  42  72  96 125 183 228 286 340 403
#     4  12  24  39  67  97 131 175 222 274 335 400
#     4  11  24  40  66  97 132 182 225 278 348 408
#     4  12  26  45  67  97 138 184 231 276 339 412
#
# _framework density 19.277100000000001
#
# number of rings (size 3 to 8) (size 9 to 14) (size 15 to 20)
#    0.000    0.500    6.667    2.500    0.000    2.000 
#    0.000    0.000    0.000    0.000    0.000    7.000 
#    0.000    0.000    0.000    0.000    0.000    0.000 
#
# Total GULP energy -267571.479384 kJ/mol
# GULP energy per Si atom -5574.405821 kJ/mol
# Density = 1.923322 g / cm^3
# Si number density = 19.277100 Si / 1000 Ang^3
#
#
#
# Elastic Constant Matrix: (Units=GPa)
#
#
# Indices 1 2 3 4 5 6 
#
# 1 118.3327 20.0655 44.7336 0.0000 0.0000 0.0000
# 2 20.0655 63.8456 25.9824 0.0000 0.0000 0.0000
# 3 44.7336 25.9824 113.9512 0.0000 0.0000 0.0000
# 4 0.0000 0.0000 0.0000 21.7578 0.0000 0.0000
# 5 0.0000 0.0000 0.0000 0.0000 31.4122 0.0000
# 6 0.0000 0.0000 0.0000 0.0000 0.0000 27.4016
#
#
#
# Elastic Compliance Matrix: (Units=1/GPa)
#
#
# Indices 1 2 3 4 5 6 
#
# 1 0.010092 -0.001719 -0.003570 0.000000 0.000000 0.000000
# 2 -0.001719 0.017558 -0.003329 0.000000 0.000000 0.000000
# 3 -0.003570 -0.003329 0.010936 0.000000 0.000000 0.000000
# 4 0.000000 0.000000 0.000000 0.045960 0.000000 0.000000
# 5 0.000000 0.000000 0.000000 0.000000 0.031835 0.000000
# 6 0.000000 0.000000 0.000000 0.000000 0.000000 0.036494
#
#
# Mechanical properties :
#
#
# Convention : Reuss Voigt Hill
#
# Bulk Modulus (GPa) = 46.83652 53.07693 49.95673
# Shear Modulus (GPa) = 28.21254 29.80420 29.00837
#
# Velocity S-wave (km/s) = 3.82976 3.93631 3.88340
# Velocity P-wave (km/s) = 6.62610 6.94642 6.78815
#
# Compressibility (1/GPa) = 0.02135086
#
# Stress axis : x y z
#
# Youngs Moduli (GPa) = 99.09129 56.95540 91.44093
#
# Poissons Ratio (x) = 0.09790 0.32642
# Poissons Ratio (y) = 0.17033 0.30437
# Poissons Ratio (z) = 0.35373 0.18958
#
# Static dielectric constant tensor:
#      x y z
#    x 1.668710 0.000000 0.000000 
#    y 0.000000 1.707840 0.000000 
#    z 0.000000 0.000000 1.960750 
# 
# From -- ./inp_files/58195.got.cif
#   From: 2010.05.17/outbox.cif.g08.bks.cpg/sg66_30_cif.got.tgz:58195.got - 2010.06.03 17:51:23.
