data_PCOD9499952
_publ_section_title
;
Structure prediction by ZEFSAII (Michael W. Deem and Ramdas Pophale) SiO2 
 PCOD9499952
Probable space group: C C C M
;
_chemical_formula_sum "Si O2"
_cell_formula_units_Z 72
_cell_length_a 9.608174
_cell_length_b 12.986558
_cell_length_c 26.073271
_cell_angle_alpha 90.000000
_cell_angle_beta 90.000000
_cell_angle_gamma 90.000000
_cell_volume 3253.347376
_symmetry_space_group_name_H-M "C C C M"
_symmetry_group_IT_number 66
_symmetry_cell_setting 'orthorhombic'
loop_
_space_group_symop_operation_xyz
x,y,z
-x,-y,z
x,-y,1/2-z
-x,y,1/2-z
-x,-y,-z
x,y,-z
-x,y,1/2+z
x,-y,1/2+z
1/2+x,1/2+y,z
1/2-x,1/2-y,z
1/2+x,1/2-y,1/2-z
1/2-x,1/2+y,1/2-z
1/2-x,1/2-y,-z
1/2+x,1/2+y,-z
1/2-x,1/2+y,1/2+z
1/2+x,1/2-y,1/2+z
loop_
_atom_site_type_symbol
_atom_site_label
_atom_site_fract_x
_atom_site_fract_y
_atom_site_fract_z
Si Si1 0.500000 0.500000 0.621401
Si Si2 0.727162 0.991957 0.687062
Si Si3 0.403239 0.706026 0.561124
Si Si4 0.110879 0.697632 0.292075
Si Si5 0.598445 0.201843 0.133493
O O1 0.372521 0.475079 0.659352
O O2 0.449262 0.596401 0.586221
O O3 0.669914 0.104728 0.674692
O O4 0.735880 0.000000 0.750000
O O5 0.627816 0.906471 0.661719
O O6 0.404676 0.694992 0.500000
O O7 0.250000 0.750000 0.575974
O O8 0.517951 0.789393 0.580232
O O9 0.250000 0.750000 0.269765
O O10 0.000000 0.663080 0.250000
O O11 0.010736 0.762278 0.329006
O O12 0.750000 0.250000 0.129401
#
# Coordination Sequence:
#
# PCOD9499952 Si02
#       5
#     8  16  16  16  16
#     4  12  24  48  76 114 148 204 256 320 396 470
#     4  12  26  43  69 105 155 193 250 303 377 464
#     4  11  26  51  79 110 151 201 263 333 394 458
#     4  12  26  43  69 100 148 201 248 304 374 456
#     4  12  24  46  70 105 146 193 248 307 380 460
#
# _framework density 22.131052
#
# number of rings (size 3 to 8) (size 9 to 14) (size 15 to 20)
#    0.000    0.222    4.444    5.333    0.000    0.444 
#    0.000    0.000    0.000    5.333    0.000    0.000 
#    0.000    0.000    0.000    0.000    0.000    0.000 
#
# Total GULP energy -200794.073268 kJ/mol
# GULP energy per Si atom -5577.613146 kJ/mol
# Density = 2.208068 g / cm^3
# Si number density = 22.131052 Si / 1000 Ang^3
#
#
#
# Elastic Constant Matrix: (Units=GPa)
#
#
# Indices 1 2 3 4 5 6 
#
# 1 212.3711 67.0933 66.3036 0.0000 0.0000 0.0000
# 2 67.0933 127.8177 64.3320 0.0000 0.0000 0.0000
# 3 66.3036 64.3320 117.7321 0.0000 0.0000 0.0000
# 4 0.0000 0.0000 0.0000 32.2519 0.0000 0.0000
# 5 0.0000 0.0000 0.0000 0.0000 40.5162 0.0000
# 6 0.0000 0.0000 0.0000 0.0000 0.0000 38.9897
#
#
#
# Elastic Compliance Matrix: (Units=1/GPa)
#
#
# Indices 1 2 3 4 5 6 
#
# 1 0.006070 -0.002022 -0.002314 0.000000 0.000000 0.000000
# 2 -0.002022 0.011465 -0.005126 0.000000 0.000000 0.000000
# 3 -0.002314 -0.005126 0.012598 0.000000 0.000000 0.000000
# 4 0.000000 0.000000 0.000000 0.031006 0.000000 0.000000
# 5 0.000000 0.000000 0.000000 0.000000 0.024682 0.000000
# 6 0.000000 0.000000 0.000000 0.000000 0.000000 0.025648
#
#
# Mechanical properties :
#
#
# Convention : Reuss Voigt Hill
#
# Bulk Modulus (GPa) = 89.20896 94.81985 92.01441
# Shear Modulus (GPa) = 37.27802 39.69769 38.48786
#
# Velocity S-wave (km/s) = 4.10862 4.23987 4.17476
# Velocity P-wave (km/s) = 7.93124 8.17963 8.05640
#
# Compressibility (1/GPa) = 0.01120964
#
# Stress axis : x y z
#
# Youngs Moduli (GPa) = 164.75128 87.22290 79.37807
#
# Poissons Ratio (x) = 0.17633 0.18365
# Poissons Ratio (y) = 0.33306 0.40691
# Poissons Ratio (z) = 0.38118 0.44712
#
# Static dielectric constant tensor:
#      x y z
#    x 1.843800 0.000000 0.000000 
#    y 0.000000 1.939310 0.000000 
#    z 0.000000 0.000000 1.871800 
# 
# From -- ./inp_files/62169.got.cif
#   From: 2010.05.17/outbox.cif.g08.bks.cpg/sg66_32_cif.got.tgz:62169.got - 2010.06.03 17:51:23.
