data_PCOD9499191
_publ_section_title
;
Structure prediction by ZEFSAII (Michael W. Deem and Ramdas Pophale) SiO2 
 PCOD9499191
Probable space group: C C C M
;
_chemical_formula_sum "Si O2"
_cell_formula_units_Z 92
_cell_length_a 19.801437
_cell_length_b 9.780689
_cell_length_c 22.740393
_cell_angle_alpha 90.000000
_cell_angle_beta 90.000000
_cell_angle_gamma 90.000000
_cell_volume 4404.170504
_symmetry_space_group_name_H-M "C C C M"
_symmetry_group_IT_number 66
_symmetry_cell_setting 'orthorhombic'
loop_
_space_group_symop_operation_xyz
x,y,z
-x,-y,z
x,-y,1/2-z
-x,y,1/2-z
-x,-y,-z
x,y,-z
-x,y,1/2+z
x,-y,1/2+z
1/2+x,1/2+y,z
1/2-x,1/2-y,z
1/2+x,1/2-y,1/2-z
1/2-x,1/2+y,1/2-z
1/2-x,1/2-y,-z
1/2+x,1/2+y,-z
1/2-x,1/2+y,1/2+z
1/2+x,1/2-y,1/2+z
loop_
_atom_site_type_symbol
_atom_site_label
_atom_site_fract_x
_atom_site_fract_y
_atom_site_fract_z
Si Si1 0.942488 0.202255 0.202688
Si Si2 0.674652 0.525719 0.500000
Si Si3 0.894873 0.605345 0.000000
Si Si4 0.500588 0.209397 0.593997
Si Si5 0.185325 0.846301 0.276181
Si Si6 0.883702 0.704236 0.500000
Si Si7 0.101134 0.049424 0.880220
Si Si8 0.750000 0.750000 0.000000
O O1 0.873908 0.226251 0.238546
O O2 0.000000 0.167679 0.250000
O O3 0.972346 0.319034 0.159569
O O4 0.923074 0.072405 0.162147
O O5 0.677941 0.690844 0.500000
O O6 0.633483 0.499362 0.559679
O O7 0.733428 0.414071 0.500000
O O8 0.945043 0.621316 0.056772
O O9 0.865785 0.453766 0.000000
O O10 0.834096 0.714715 0.000000
O O11 0.434373 0.225808 0.554648
O O12 0.540868 0.350245 0.603020
O O13 0.250000 0.750000 0.275567
O O14 0.156308 0.868065 0.341704
O O15 0.197447 0.000000 0.250000
#
# Coordination Sequence:
#
# PCOD9499191 Si02
#       8
#    16   8   8  16  16   8  16   4
#     4  11  22  37  69 105 137 171 238 297 345 414
#     4  12  24  42  68 107 131 184 228 284 346 422
#     4  11  26  47  66 101 143 186 225 285 350 421
#     4  11  20  38  70 101 132 176 223 292 347 401
#     4  10  24  43  66  94 136 187 230 283 346 418
#     4  11  25  43  68  99 144 174 228 289 364 407
#     4  11  22  36  69 103 136 173 233 291 344 417
#     4  12  26  44  68  96 146 174 234 272 336 426
#
# _framework density 20.889292000000001
#
# number of rings (size 3 to 8) (size 9 to 14) (size 15 to 20)
#    0.000    1.043    5.217    2.087    6.087    1.043 
#    0.000    6.957    0.000    0.000    0.000    0.000 
#    0.000    0.000    0.000    0.000    0.000    0.000 
#
# Total GULP energy -256134.516946 kJ/mol
# GULP energy per Si atom -5568.141673 kJ/mol
# Density = 2.084175 g / cm^3
# Si number density = 20.889292 Si / 1000 Ang^3
#
#
#
# Elastic Constant Matrix: (Units=GPa)
#
#
# Indices 1 2 3 4 5 6 
#
# 1 151.7760 66.1544 52.9354 0.0000 0.0000 0.0000
# 2 66.1544 100.5792 34.3674 0.0000 0.0000 0.0000
# 3 52.9354 34.3674 145.3638 0.0000 0.0000 0.0000
# 4 0.0000 0.0000 0.0000 66.8583 0.0000 0.0000
# 5 0.0000 0.0000 0.0000 0.0000 -23.8344 0.0000
# 6 0.0000 0.0000 0.0000 0.0000 0.0000 33.3954
#
#
#
# Elastic Compliance Matrix: (Units=1/GPa)
#
#
# Indices 1 2 3 4 5 6 
#
# 1 0.009864 -0.005723 -0.002239 0.000000 0.000000 0.000000
# 2 -0.005723 0.014136 -0.001258 0.000000 0.000000 0.000000
# 3 -0.002239 -0.001258 0.007992 0.000000 0.000000 0.000000
# 4 0.000000 0.000000 0.000000 0.014957 0.000000 0.000000
# 5 0.000000 0.000000 0.000000 0.000000 -0.041956 0.000000
# 6 0.000000 0.000000 0.000000 0.000000 0.000000 0.029944
#
#
# Mechanical properties :
#
#
# Convention : Reuss Voigt Hill
#
# Bulk Modulus (GPa) = 73.78734 78.29262 76.03998
# Shear Modulus (GPa) = 86.36301 31.56797 58.96549
#
# Velocity S-wave (km/s) = 6.43684 3.89164 5.31873
# Velocity P-wave (km/s) = 9.52070 7.59962 8.61388
#
# Compressibility (1/GPa) = 0.01355246
#
# Stress axis : x y z
#
# Youngs Moduli (GPa) = 101.37906 70.73931 125.12329
#
# Poissons Ratio (x) = 0.40483 0.28016
# Poissons Ratio (y) = 0.58017 0.15743
# Poissons Ratio (z) = 0.22699 0.08900
#
# Static dielectric constant tensor:
#      x y z
#    x 1.744820 0.000000 0.000000 
#    y 0.000000 1.798870 0.000000 
#    z 0.000000 0.000000 1.810390 
# 
# From -- ./inp_files/59438.got.cif
#   From: 2010.05.17/outbox.cif.g08.bks.cpg/sg66_30_cif.got.tgz:59438.got - 2010.06.03 17:51:23.
