data_PCOD9499087
_publ_section_title
;
Structure prediction by ZEFSAII (Michael W. Deem and Ramdas Pophale) SiO2 
 PCOD9499087
Probable space group: C C C M
;
_chemical_formula_sum "Si O2"
_cell_formula_units_Z 44
_cell_length_a 8.904322
_cell_length_b 11.166692
_cell_length_c 20.859230
_cell_angle_alpha 90.000000
_cell_angle_beta 90.000000
_cell_angle_gamma 90.000000
_cell_volume 2074.071229
_symmetry_space_group_name_H-M "C C C M"
_symmetry_group_IT_number 66
_symmetry_cell_setting 'orthorhombic'
loop_
_space_group_symop_operation_xyz
x,y,z
-x,-y,z
x,-y,1/2-z
-x,y,1/2-z
-x,-y,-z
x,y,-z
-x,y,1/2+z
x,-y,1/2+z
1/2+x,1/2+y,z
1/2-x,1/2-y,z
1/2+x,1/2-y,1/2-z
1/2-x,1/2+y,1/2-z
1/2-x,1/2-y,-z
1/2+x,1/2+y,-z
1/2-x,1/2+y,1/2+z
1/2+x,1/2-y,1/2+z
loop_
_atom_site_type_symbol
_atom_site_label
_atom_site_fract_x
_atom_site_fract_y
_atom_site_fract_z
Si Si1 0.354526 0.366996 0.000000
Si Si2 0.000000 0.000000 0.606831
Si Si3 0.500000 0.000000 0.250000
Si Si4 0.828092 0.381806 0.000000
Si Si5 0.805298 0.384026 0.142081
O O1 0.250000 0.250000 0.000000
O O2 0.459715 0.384979 0.938081
O O3 0.264364 0.492834 0.000000
O O4 0.154919 0.033390 0.640984
O O5 0.596609 0.079451 0.201877
O O6 0.750000 0.250000 0.000000
O O7 0.891421 0.389274 0.072694
O O8 0.750000 0.250000 0.149347
#
# Coordination Sequence:
#
# PCOD9499087 Si02
#       5
#     8   8   4   8  16
#     4   9  17  32  62 101 129 157 210 272 332 387
#     4   9  20  39  62  90 126 170 212 262 326 388
#     4  12  28  40  56  98 132 168 220 264 320 394
#     4   8  17  39  66  92 123 162 210 269 320 374
#     4  10  23  43  66  92 127 168 217 267 324 388
#
# _framework density 21.214314999999999
#
# number of rings (size 3 to 8) (size 9 to 14) (size 15 to 20)
#    0.000    2.545    0.000    1.091    0.000   10.182 
#    0.000    1.818    0.000    0.000    0.000    1.273 
#    0.000    0.000    0.000    0.000    0.000    0.000 
#
# Total GULP energy -122493.976201 kJ/mol
# GULP energy per Si atom -5567.908009 kJ/mol
# Density = 2.116603 g / cm^3
# Si number density = 21.214315 Si / 1000 Ang^3
#
#
#
# Elastic Constant Matrix: (Units=GPa)
#
#
# Indices 1 2 3 4 5 6 
#
# 1 90.3891 52.5024 73.5880 0.0000 0.0000 0.0000
# 2 52.5024 119.8568 42.9462 0.0000 0.0000 0.0000
# 3 73.5880 42.9462 197.7034 0.0000 0.0000 0.0000
# 4 0.0000 0.0000 0.0000 23.8307 0.0000 0.0000
# 5 0.0000 0.0000 0.0000 0.0000 54.2680 0.0000
# 6 0.0000 0.0000 0.0000 0.0000 0.0000 43.2896
#
#
#
# Elastic Compliance Matrix: (Units=1/GPa)
#
#
# Indices 1 2 3 4 5 6 
#
# 1 0.019633 -0.006487 -0.005899 0.000000 0.000000 0.000000
# 2 -0.006487 0.011191 -0.000016 0.000000 0.000000 0.000000
# 3 -0.005899 -0.000016 0.007257 0.000000 0.000000 0.000000
# 4 0.000000 0.000000 0.000000 0.041963 0.000000 0.000000
# 5 0.000000 0.000000 0.000000 0.000000 0.018427 0.000000
# 6 0.000000 0.000000 0.000000 0.000000 0.000000 0.023100
#
#
# Mechanical properties :
#
#
# Convention : Reuss Voigt Hill
#
# Bulk Modulus (GPa) = 75.31534 82.89139 79.10337
# Shear Modulus (GPa) = 33.15632 40.20517 36.68074
#
# Velocity S-wave (km/s) = 3.95767 4.35810 4.16270
# Velocity P-wave (km/s) = 7.51421 8.03008 7.77643
#
# Compressibility (1/GPa) = 0.01327751
#
# Stress axis : x y z
#
# Youngs Moduli (GPa) = 50.93376 89.36062 137.79321
#
# Poissons Ratio (x) = 0.57965 0.81281
# Poissons Ratio (y) = 0.33039 0.00227
# Poissons Ratio (z) = 0.30045 0.00147
#
# Static dielectric constant tensor:
#      x y z
#    x 1.894360 0.000000 0.000000 
#    y 0.000000 1.743980 0.000000 
#    z 0.000000 0.000000 1.802970 
# 
# From -- ./inp_files/37575.got.cif
#   From: 2010.05.17/outbox.cif.g08.bks.cpg/sg66_19_cif.got.tgz:37575.got - 2010.06.03 17:51:23.
