data_PCOD9499192
_publ_section_title
;
Structure prediction by ZEFSAII (Michael W. Deem and Ramdas Pophale) SiO2 
 PCOD9499192
Probable space group: C C C M
;
_chemical_formula_sum "Si O2"
_cell_formula_units_Z 52
_cell_length_a 27.180907
_cell_length_b 6.974005
_cell_length_c 14.063375
_cell_angle_alpha 90.000000
_cell_angle_beta 90.000000
_cell_angle_gamma 90.000000
_cell_volume 2665.850290
_symmetry_space_group_name_H-M "C C C M"
_symmetry_group_IT_number 66
_symmetry_cell_setting 'orthorhombic'
loop_
_space_group_symop_operation_xyz
x,y,z
-x,-y,z
x,-y,1/2-z
-x,y,1/2-z
-x,-y,-z
x,y,-z
-x,y,1/2+z
x,-y,1/2+z
1/2+x,1/2+y,z
1/2-x,1/2-y,z
1/2+x,1/2-y,1/2-z
1/2-x,1/2+y,1/2-z
1/2-x,1/2-y,-z
1/2+x,1/2+y,-z
1/2-x,1/2+y,1/2+z
1/2+x,1/2-y,1/2+z
loop_
_atom_site_type_symbol
_atom_site_label
_atom_site_fract_x
_atom_site_fract_y
_atom_site_fract_z
Si Si1 0.851258 0.975850 0.610373
Si Si2 0.038098 0.173699 0.612153
Si Si3 0.000000 0.500000 0.750000
Si Si4 0.193327 0.719925 0.269258
O O1 0.839447 0.966033 0.500000
O O2 0.816800 0.839378 0.673379
O O3 0.907165 0.909048 0.624951
O O4 0.841874 0.186870 0.651958
O O5 0.031984 0.225544 0.500000
O O6 0.029549 0.355081 0.680547
O O7 0.000000 0.000000 0.632367
O O8 0.183308 0.500000 0.250000
O O9 0.250000 0.750000 0.298057
#
# Coordination Sequence:
#
# PCOD9499192 Si02
#       4
#    16  16   4  16
#     4  10  24  43  66  95 130 174 216 263 324 388
#     4  10  24  44  64  97 137 169 214 266 318 392
#     4  12  24  36  72 100 124 180 208 260 332 368
#     4  11  23  43  63  93 129 166 217 274 320 377
#
# _framework density 19.505970999999999
#
# number of rings (size 3 to 8) (size 9 to 14) (size 15 to 20)
#    0.000    1.538    3.077    0.923   10.769    2.462 
#    0.000    6.154    0.000    0.000    0.000    0.000 
#    0.000    0.000    0.000    0.000    0.000    0.000 
#
# Total GULP energy -145271.790965 kJ/mol
# GULP energy per Si atom -5587.376576 kJ/mol
# Density = 1.946157 g / cm^3
# Si number density = 19.505971 Si / 1000 Ang^3
#
#
#
# Elastic Constant Matrix: (Units=GPa)
#
#
# Indices 1 2 3 4 5 6 
#
# 1 69.5114 36.3620 49.5318 0.0000 0.0000 0.0000
# 2 36.3620 131.9027 49.0178 0.0000 0.0000 0.0000
# 3 49.5318 49.0178 125.5857 0.0000 0.0000 0.0000
# 4 0.0000 0.0000 0.0000 25.7991 0.0000 0.0000
# 5 0.0000 0.0000 0.0000 0.0000 25.9336 0.0000
# 6 0.0000 0.0000 0.0000 0.0000 0.0000 28.5237
#
#
#
# Elastic Compliance Matrix: (Units=1/GPa)
#
#
# Indices 1 2 3 4 5 6 
#
# 1 0.021095 -0.003186 -0.007077 0.000000 0.000000 0.000000
# 2 -0.003186 0.009349 -0.002393 0.000000 0.000000 0.000000
# 3 -0.007077 -0.002393 0.011688 0.000000 0.000000 0.000000
# 4 0.000000 0.000000 0.000000 0.038761 0.000000 0.000000
# 5 0.000000 0.000000 0.000000 0.000000 0.038560 0.000000
# 6 0.000000 0.000000 0.000000 0.000000 0.000000 0.035059
#
#
# Mechanical properties :
#
#
# Convention : Reuss Voigt Hill
#
# Bulk Modulus (GPa) = 59.44624 66.31370 62.87997
# Shear Modulus (GPa) = 26.96468 28.85716 27.91092
#
# Velocity S-wave (km/s) = 3.72207 3.85047 3.78682
# Velocity P-wave (km/s) = 7.00099 7.33748 7.17121
#
# Compressibility (1/GPa) = 0.01682192
#
# Stress axis : x y z
#
# Youngs Moduli (GPa) = 47.40423 106.96778 85.56064
#
# Poissons Ratio (x) = 0.34075 0.60549
# Poissons Ratio (y) = 0.15101 0.20470
# Poissons Ratio (z) = 0.33547 0.25592
#
# Static dielectric constant tensor:
#      x y z
#    x 1.683770 0.000000 0.000000 
#    y 0.000000 1.695160 0.000000 
#    z 0.000000 0.000000 1.684960 
# 
# From -- ./inp_files/32900.got.cif
#   From: 2010.05.17/outbox.cif.g08.bks.cpg/sg66_17_cif.got.tgz:32900.got - 2010.06.03 17:51:23.
