data_PCOD9499958
_publ_section_title
;
Structure prediction by ZEFSAII (Michael W. Deem and Ramdas Pophale) SiO2 
 PCOD9499958
Probable space group: C C C M
;
_chemical_formula_sum "Si O2"
_cell_formula_units_Z 64
_cell_length_a 9.436533
_cell_length_b 9.759317
_cell_length_c 27.205999
_cell_angle_alpha 90.000000
_cell_angle_beta 90.000000
_cell_angle_gamma 90.000000
_cell_volume 2505.512453
_symmetry_space_group_name_H-M "C C C M"
_symmetry_group_IT_number 66
_symmetry_cell_setting 'orthorhombic'
loop_
_space_group_symop_operation_xyz
x,y,z
-x,-y,z
x,-y,1/2-z
-x,y,1/2-z
-x,-y,-z
x,y,-z
-x,y,1/2+z
x,-y,1/2+z
1/2+x,1/2+y,z
1/2-x,1/2-y,z
1/2+x,1/2-y,1/2-z
1/2-x,1/2+y,1/2-z
1/2-x,1/2-y,-z
1/2+x,1/2+y,-z
1/2-x,1/2+y,1/2+z
1/2+x,1/2-y,1/2+z
loop_
_atom_site_type_symbol
_atom_site_label
_atom_site_fract_x
_atom_site_fract_y
_atom_site_fract_z
Si Si1 0.183745 0.470531 0.446179
Si Si2 0.519669 0.691406 0.445792
Si Si3 0.195803 0.108779 0.861202
Si Si4 0.847234 0.116802 0.780872
O O1 0.168319 0.535979 0.500000
O O2 0.339285 0.400780 0.444942
O O3 0.076141 0.345472 0.443515
O O4 0.180203 0.559632 0.397475
O O5 0.453688 0.669670 0.500000
O O6 0.423266 0.656345 0.399785
O O7 0.250000 0.250000 0.834440
O O8 0.146026 0.975034 0.830579
O O9 0.750000 0.250000 0.787330
O O10 0.000000 0.141365 0.750000
O O11 0.766498 0.000000 0.750000
#
# Coordination Sequence:
#
# PCOD9499958 Si02
#       4
#    16  16  16  16
#     4   9  20  38  66 104 150 206 263 309 351 418
#     4   9  20  40  68 104 150 207 260 304 355 429
#     4  12  26  43  72 112 152 196 247 311 384 450
#     4  11  29  55  85 113 147 191 247 319 397 470
#
# _framework density 25.543678
#
# number of rings (size 3 to 8) (size 9 to 14) (size 15 to 20)
#    0.000    1.750    0.000    3.750   10.500    5.500 
#    0.000    6.250    0.000    0.000    0.000    0.000 
#    0.000    0.000    0.000    0.000    0.000    0.000 
#
# Total GULP energy -178619.158307 kJ/mol
# GULP energy per Si atom -5581.848697 kJ/mol
# Density = 2.548554 g / cm^3
# Si number density = 25.543678 Si / 1000 Ang^3
#
#
#
# Elastic Constant Matrix: (Units=GPa)
#
#
# Indices 1 2 3 4 5 6 
#
# 1 130.3750 90.5818 50.2788 0.0000 0.0000 0.0000
# 2 90.5818 208.9737 87.3019 0.0000 0.0000 0.0000
# 3 50.2788 87.3019 150.9586 0.0000 0.0000 0.0000
# 4 0.0000 0.0000 0.0000 32.5182 0.0000 0.0000
# 5 0.0000 0.0000 0.0000 0.0000 -15.3123 0.0000
# 6 0.0000 0.0000 0.0000 0.0000 0.0000 44.9248
#
#
#
# Elastic Compliance Matrix: (Units=1/GPa)
#
#
# Indices 1 2 3 4 5 6 
#
# 1 0.011141 -0.004323 -0.001210 0.000000 0.000000 0.000000
# 2 -0.004323 0.007988 -0.003179 0.000000 0.000000 0.000000
# 3 -0.001210 -0.003179 0.008866 0.000000 0.000000 0.000000
# 4 0.000000 0.000000 0.000000 0.030752 0.000000 0.000000
# 5 0.000000 0.000000 0.000000 0.000000 -0.065307 0.000000
# 6 0.000000 0.000000 0.000000 0.000000 0.000000 0.022259
#
#
# Mechanical properties :
#
#
# Convention : Reuss Voigt Hill
#
# Bulk Modulus (GPa) = 94.62274 105.18135 99.90204
# Shear Modulus (GPa) = 136.43349 29.90245 83.16797
#
# Velocity S-wave (km/s) = 7.31627 3.42517 5.71225
# Velocity P-wave (km/s) = 10.41606 7.54380 9.09404
#
# Compressibility (1/GPa) = 0.01056828
#
# Stress axis : x y z
#
# Youngs Moduli (GPa) = 89.76028 125.19443 112.78932
#
# Poissons Ratio (x) = 0.54128 0.13650
# Poissons Ratio (y) = 0.38808 0.35860
# Poissons Ratio (z) = 0.10863 0.39804
#
# Static dielectric constant tensor:
#      x y z
#    x 2.088800 0.000000 0.000000 
#    y 0.000000 2.080910 0.000000 
#    z 0.000000 0.000000 2.180430 
# 
# From -- ./inp_files/68586.got.cif
#   From: 2010.05.17/outbox.cif.g08.bks.cpg/sg66_35_cif.got.tgz:68586.got - 2010.06.03 17:51:23.
