data_PCOD9499843
_publ_section_title
;
Structure prediction by ZEFSAII (Michael W. Deem and Ramdas Pophale) SiO2 
 PCOD9499843
Probable space group: C C C M
;
_chemical_formula_sum "Si O2"
_cell_formula_units_Z 48
_cell_length_a 8.526941
_cell_length_b 17.550587
_cell_length_c 14.262136
_cell_angle_alpha 90.000000
_cell_angle_beta 90.000000
_cell_angle_gamma 90.000000
_cell_volume 2134.368870
_symmetry_space_group_name_H-M "C C C M"
_symmetry_group_IT_number 66
_symmetry_cell_setting 'orthorhombic'
loop_
_space_group_symop_operation_xyz
x,y,z
-x,-y,z
x,-y,1/2-z
-x,y,1/2-z
-x,-y,-z
x,y,-z
-x,y,1/2+z
x,-y,1/2+z
1/2+x,1/2+y,z
1/2-x,1/2-y,z
1/2+x,1/2-y,1/2-z
1/2-x,1/2+y,1/2-z
1/2-x,1/2-y,-z
1/2+x,1/2+y,-z
1/2-x,1/2+y,1/2+z
1/2+x,1/2-y,1/2+z
loop_
_atom_site_type_symbol
_atom_site_label
_atom_site_fract_x
_atom_site_fract_y
_atom_site_fract_z
Si Si1 0.436386 0.258984 0.500000
Si Si2 0.607881 0.298333 0.325305
Si Si3 0.087857 0.584206 0.000000
Si Si4 0.179541 0.416642 0.713969
O O1 0.250000 0.250000 0.500000
O O2 0.494343 0.307706 0.412006
O O3 0.495730 0.169345 0.500000
O O4 0.500000 0.255302 0.250000
O O5 0.750000 0.250000 0.364504
O O6 0.694322 0.362657 0.264728
O O7 0.175293 0.586126 0.899261
O O8 0.000000 0.500000 0.000000
O O9 0.221761 0.500000 0.750000
O O10 0.000000 0.404645 0.750000
#
# Coordination Sequence:
#
# PCOD9499843 Si02
#       4
#     8  16   8  16
#     4  12  27  48  76 114 152 209 274 341 407 497
#     4  12  25  43  71 105 153 201 263 328 401 474
#     4  12  22  42  78 111 152 203 270 334 396 485
#     4  11  24  43  71 109 156 210 269 327 403 482
#
# _framework density 22.489083999999998
#
# number of rings (size 3 to 8) (size 9 to 14) (size 15 to 20)
#    0.000    0.333    3.333    8.500    0.000    3.333 
#    0.000    0.000    0.000    6.000    0.000    0.000 
#    0.000    0.000    0.000    0.000    0.000    0.000 
#
# Total GULP energy -133769.220082 kJ/mol
# GULP energy per Si atom -5573.717503 kJ/mol
# Density = 2.243790 g / cm^3
# Si number density = 22.489084 Si / 1000 Ang^3
#
#
#
# Elastic Constant Matrix: (Units=GPa)
#
#
# Indices 1 2 3 4 5 6 
#
# 1 132.9827 36.6174 67.8801 0.0000 0.0000 0.0000
# 2 36.6174 143.4821 44.4278 0.0000 0.0000 0.0000
# 3 67.8801 44.4278 249.6820 0.0000 0.0000 0.0000
# 4 0.0000 0.0000 0.0000 42.1901 0.0000 0.0000
# 5 0.0000 0.0000 0.0000 0.0000 31.9685 0.0000
# 6 0.0000 0.0000 0.0000 0.0000 0.0000 38.2217
#
#
#
# Elastic Compliance Matrix: (Units=1/GPa)
#
#
# Indices 1 2 3 4 5 6 
#
# 1 0.009084 -0.001644 -0.002177 0.000000 0.000000 0.000000
# 2 -0.001644 0.007673 -0.000918 0.000000 0.000000 0.000000
# 3 -0.002177 -0.000918 0.004760 0.000000 0.000000 0.000000
# 4 0.000000 0.000000 0.000000 0.023702 0.000000 0.000000
# 5 0.000000 0.000000 0.000000 0.000000 0.031281 0.000000
# 6 0.000000 0.000000 0.000000 0.000000 0.000000 0.026163
#
#
# Mechanical properties :
#
#
# Convention : Reuss Voigt Hill
#
# Bulk Modulus (GPa) = 83.06700 91.55527 87.31114
# Shear Modulus (GPa) = 43.04569 47.62417 45.33493
#
# Velocity S-wave (km/s) = 4.37976 4.60679 4.49471
# Velocity P-wave (km/s) = 7.91158 8.31241 8.11447
#
# Compressibility (1/GPa) = 0.01203847
#
# Stress axis : x y z
#
# Youngs Moduli (GPa) = 110.08688 130.31902 210.06765
#
# Poissons Ratio (x) = 0.21426 0.45732
# Poissons Ratio (y) = 0.18100 0.19293
# Poissons Ratio (z) = 0.23966 0.11969
#
# Static dielectric constant tensor:
#      x y z
#    x 1.847300 0.000000 0.000000 
#    y 0.000000 1.883420 0.000000 
#    z 0.000000 0.000000 1.568520 
# 
# From -- ./inp_files/23559.got.cif
#   From: 2010.05.17/outbox.cif.g08.bks.cpg/sg66_12_cif.got.tgz:23559.got - 2010.06.03 17:51:23.
