data_PCOD9499628
_publ_section_title
;
Structure prediction by ZEFSAII (Michael W. Deem and Ramdas Pophale) SiO2 
 PCOD9499628
Probable space group: C C C M
;
_chemical_formula_sum "Si O2"
_cell_formula_units_Z 64
_cell_length_a 8.982978
_cell_length_b 15.775016
_cell_length_c 22.463288
_cell_angle_alpha 90.000000
_cell_angle_beta 90.000000
_cell_angle_gamma 90.000000
_cell_volume 3183.196654
_symmetry_space_group_name_H-M "C C C M"
_symmetry_group_IT_number 66
_symmetry_cell_setting 'orthorhombic'
loop_
_space_group_symop_operation_xyz
x,y,z
-x,-y,z
x,-y,1/2-z
-x,y,1/2-z
-x,-y,-z
x,y,-z
-x,y,1/2+z
x,-y,1/2+z
1/2+x,1/2+y,z
1/2-x,1/2-y,z
1/2+x,1/2-y,1/2-z
1/2-x,1/2+y,1/2-z
1/2-x,1/2-y,-z
1/2+x,1/2+y,-z
1/2-x,1/2+y,1/2+z
1/2+x,1/2-y,1/2+z
loop_
_atom_site_type_symbol
_atom_site_label
_atom_site_fract_x
_atom_site_fract_y
_atom_site_fract_z
Si Si1 0.363742 0.673073 0.121712
Si Si2 0.249115 0.000000 0.250000
Si Si3 0.500000 0.637342 0.750000
Si Si4 0.681329 0.662227 0.930273
Si Si5 0.168038 0.493933 0.379882
O O1 0.250000 0.750000 0.114431
O O2 0.437227 0.679129 0.188990
O O3 0.505645 0.670851 0.079208
O O4 0.270259 0.587830 0.107155
O O5 0.138359 0.076938 0.233767
O O6 0.341485 0.015568 0.308583
O O7 0.750000 0.750000 0.906353
O O8 0.746477 0.579171 0.898613
O O9 0.717953 0.655247 0.000000
O O10 0.000000 0.500000 0.404534
#
# Coordination Sequence:
#
# PCOD9499628 Si02
#       5
#    16   8   8  16  16
#     4  11  23  41  64  96 131 170 219 269 326 391
#     4   9  17  36  62  90 126 168 206 264 320 388
#     4   9  18  36  60  90 129 164 208 261 326 382
#     4  11  25  45  68  94 129 174 223 275 324 383
#     4  11  22  40  64  96 132 169 216 268 329 389
#
# _framework density 20.105575000000002
#
# number of rings (size 3 to 8) (size 9 to 14) (size 15 to 20)
#    0.000    1.500    2.500    2.625    0.000    4.000 
#    9.000    0.000    0.000    0.000    0.000    0.000 
#    0.000    0.000    0.000    0.000    0.000    0.000 
#
# Total GULP energy -178345.395521 kJ/mol
# GULP energy per Si atom -5573.293610 kJ/mol
# Density = 2.005981 g / cm^3
# Si number density = 20.105575 Si / 1000 Ang^3
#
#
#
# Elastic Constant Matrix: (Units=GPa)
#
#
# Indices 1 2 3 4 5 6 
#
# 1 148.3002 77.1037 4.9294 0.0000 0.0000 0.0000
# 2 77.1037 170.2982 26.8324 0.0000 0.0000 0.0000
# 3 4.9294 26.8324 27.4545 0.0000 0.0000 0.0000
# 4 0.0000 0.0000 0.0000 7.4416 0.0000 0.0000
# 5 0.0000 0.0000 0.0000 0.0000 7.1150 0.0000
# 6 0.0000 0.0000 0.0000 0.0000 0.0000 1.2874
#
#
#
# Elastic Compliance Matrix: (Units=1/GPa)
#
#
# Indices 1 2 3 4 5 6 
#
# 1 0.008997 -0.004514 0.002796 0.000000 0.000000 0.000000
# 2 -0.004514 0.009206 -0.008187 0.000000 0.000000 0.000000
# 3 0.002796 -0.008187 0.043923 0.000000 0.000000 0.000000
# 4 0.000000 0.000000 0.000000 0.134381 0.000000 0.000000
# 5 0.000000 0.000000 0.000000 0.000000 0.140549 0.000000
# 6 0.000000 0.000000 0.000000 0.000000 0.000000 0.776783
#
#
# Mechanical properties :
#
#
# Convention : Reuss Voigt Hill
#
# Bulk Modulus (GPa) = 23.63109 62.64266 43.13687
# Shear Modulus (GPa) = 4.35634 18.98127 11.66880
#
# Velocity S-wave (km/s) = 1.47358 3.07592 2.41171
# Velocity P-wave (km/s) = 3.83070 6.62114 5.40897
#
# Compressibility (1/GPa) = 0.04231714
#
# Stress axis : x y z
#
# Youngs Moduli (GPa) = 111.14715 108.62774 22.76711
#
# Poissons Ratio (x) = 0.49036 -0.06367
# Poissons Ratio (y) = 0.50173 0.18639
# Poissons Ratio (z) = -0.31082 0.88930
#
# Static dielectric constant tensor:
#      x y z
#    x 1.717950 0.000000 0.000000 
#    y 0.000000 1.724160 0.000000 
#    z 0.000000 0.000000 1.752980 
# 
# From -- ./inp_files/55036.got.cif
#   From: 2010.05.17/outbox.cif.g08.bks.cpg/sg66_28_cif.got.tgz:55036.got - 2010.06.03 17:51:23.
