data_PCOD9499739
_publ_section_title
;
Structure prediction by ZEFSAII (Michael W. Deem and Ramdas Pophale) SiO2 
 PCOD9499739
Probable space group: C C C M
;
_chemical_formula_sum "Si O2"
_cell_formula_units_Z 64
_cell_length_a 13.413755
_cell_length_b 7.703327
_cell_length_c 23.507287
_cell_angle_alpha 90.000000
_cell_angle_beta 90.000000
_cell_angle_gamma 90.000000
_cell_volume 2429.020685
_symmetry_space_group_name_H-M "C C C M"
_symmetry_group_IT_number 66
_symmetry_cell_setting 'orthorhombic'
loop_
_space_group_symop_operation_xyz
x,y,z
-x,-y,z
x,-y,1/2-z
-x,y,1/2-z
-x,-y,-z
x,y,-z
-x,y,1/2+z
x,-y,1/2+z
1/2+x,1/2+y,z
1/2-x,1/2-y,z
1/2+x,1/2-y,1/2-z
1/2-x,1/2+y,1/2-z
1/2-x,1/2-y,-z
1/2+x,1/2+y,-z
1/2-x,1/2+y,1/2+z
1/2+x,1/2-y,1/2+z
loop_
_atom_site_type_symbol
_atom_site_label
_atom_site_fract_x
_atom_site_fract_y
_atom_site_fract_z
Si Si1 0.409558 0.753513 0.067955
Si Si2 0.650499 0.192746 0.765977
Si Si3 0.250636 0.547131 0.568696
Si Si4 0.535329 0.305150 0.335114
O O1 0.345536 0.578431 0.083440
O O2 0.515654 0.747413 0.099856
O O3 0.344186 0.924057 0.083544
O O4 0.422720 0.753494 0.000000
O O5 0.750000 0.250000 0.797065
O O6 0.630054 0.286937 0.705566
O O7 0.552686 0.200584 0.803578
O O8 0.670422 0.000000 0.750000
O O9 0.251403 0.555234 0.500000
O O10 0.250000 0.750000 0.588819
O O11 0.500000 0.500000 0.328392
#
# Coordination Sequence:
#
# PCOD9499739 Si02
#       4
#    16  16  16  16
#     4   9  19  36  61  98 146 188 226 282 343 409
#     4  11  24  48  75  97 129 173 229 294 351 405
#     4   8  15  33  59  93 138 189 241 282 330 403
#     4  11  23  42  68 103 139 173 228 282 340 420
#
# _framework density 26.348068999999999
#
# number of rings (size 3 to 8) (size 9 to 14) (size 15 to 20)
#    0.000    2.250    0.000    6.000    3.500    0.500 
#    9.000    0.000    0.000    3.750    0.000    0.000 
#    0.000    0.000    0.000    0.000    0.000    0.000 
#
# Total GULP energy -178921.454452 kJ/mol
# GULP energy per Si atom -5591.295452 kJ/mol
# Density = 2.628810 g / cm^3
# Si number density = 26.348069 Si / 1000 Ang^3
#
#
#
# Elastic Constant Matrix: (Units=GPa)
#
#
# Indices 1 2 3 4 5 6 
#
# 1 83.9403 18.2081 31.4698 0.0000 0.0000 0.0000
# 2 18.2081 169.0503 19.0789 0.0000 0.0000 0.0000
# 3 31.4698 19.0789 106.6130 0.0000 0.0000 0.0000
# 4 0.0000 0.0000 0.0000 11.2540 0.0000 0.0000
# 5 0.0000 0.0000 0.0000 0.0000 47.9564 0.0000
# 6 0.0000 0.0000 0.0000 0.0000 0.0000 32.0623
#
#
#
# Elastic Compliance Matrix: (Units=1/GPa)
#
#
# Indices 1 2 3 4 5 6 
#
# 1 0.013569 -0.001030 -0.003821 0.000000 0.000000 0.000000
# 2 -0.001030 0.006116 -0.000790 0.000000 0.000000 0.000000
# 3 -0.003821 -0.000790 0.010649 0.000000 0.000000 0.000000
# 4 0.000000 0.000000 0.000000 0.088857 0.000000 0.000000
# 5 0.000000 0.000000 0.000000 0.000000 0.020852 0.000000
# 6 0.000000 0.000000 0.000000 0.000000 0.000000 0.031189
#
#
# Mechanical properties :
#
#
# Convention : Reuss Voigt Hill
#
# Bulk Modulus (GPa) = 52.49144 55.23523 53.86333
# Shear Modulus (GPa) = 26.47383 37.64433 32.05908
#
# Velocity S-wave (km/s) = 3.17325 3.78396 3.49198
# Velocity P-wave (km/s) = 5.77855 6.33248 6.06184
#
# Compressibility (1/GPa) = 0.01905073
#
# Stress axis : x y z
#
# Youngs Moduli (GPa) = 73.69618 163.51728 93.90543
#
# Poissons Ratio (x) = 0.16847 0.35881
# Poissons Ratio (y) = 0.07593 0.07421
# Poissons Ratio (z) = 0.28159 0.12923
#
# Static dielectric constant tensor:
#      x y z
#    x 2.069710 0.000000 0.000000 
#    y 0.000000 2.036660 0.000000 
#    z 0.000000 0.000000 2.101790 
# 
# From -- ./inp_files/57663.got.cif
#   From: 2010.05.17/outbox.cif.g08.bks.cpg/sg66_29_cif.got.tgz:57663.got - 2010.06.03 17:51:23.
