data_PCOD9499097
_publ_section_title
;
Structure prediction by ZEFSAII (Michael W. Deem and Ramdas Pophale) SiO2 
 PCOD9499097
Probable space group: C C C M
;
_chemical_formula_sum "Si O2"
_cell_formula_units_Z 64
_cell_length_a 4.997280
_cell_length_b 31.796873
_cell_length_c 19.301618
_cell_angle_alpha 90.000000
_cell_angle_beta 90.000000
_cell_angle_gamma 90.000000
_cell_volume 3066.986133
_symmetry_space_group_name_H-M "C C C M"
_symmetry_group_IT_number 66
_symmetry_cell_setting 'orthorhombic'
loop_
_space_group_symop_operation_xyz
x,y,z
-x,-y,z
x,-y,1/2-z
-x,y,1/2-z
-x,-y,-z
x,y,-z
-x,y,1/2+z
x,-y,1/2+z
1/2+x,1/2+y,z
1/2-x,1/2-y,z
1/2+x,1/2-y,1/2-z
1/2-x,1/2+y,1/2-z
1/2-x,1/2-y,-z
1/2+x,1/2+y,-z
1/2-x,1/2+y,1/2+z
1/2+x,1/2-y,1/2+z
loop_
_atom_site_type_symbol
_atom_site_label
_atom_site_fract_x
_atom_site_fract_y
_atom_site_fract_z
Si Si1 0.572919 0.337017 0.364044
Si Si2 0.499046 0.718510 0.500000
Si Si3 0.756611 0.970283 0.421073
Si Si4 0.067366 0.392018 0.330392
Si Si5 0.000000 0.774364 0.250000
O O1 0.515200 0.312436 0.434342
O O2 0.303332 0.358136 0.335684
O O3 0.648338 0.302217 0.307440
O O4 0.804861 0.372071 0.366559
O O5 0.250000 0.750000 0.500000
O O6 0.750000 0.750000 0.500000
O O7 0.819693 0.955294 0.500000
O O8 0.680670 0.932352 0.370791
O O9 0.500000 0.000000 0.424872
O O10 0.000000 0.000000 0.397285
O O11 0.000000 0.400884 0.250000
O O12 0.250000 0.750000 0.216037
#
# Coordination Sequence:
#
# PCOD9499097 Si02
#       5
#    16   8  16  16   8
#     4  12  25  42  66  99 132 177 228 279 337 402
#     4  12  26  46  66  96 134 174 232 292 342 402
#     4  10  23  43  69 101 133 173 220 268 328 398
#     4  12  24  44  67 101 138 177 221 277 333 408
#     4  12  22  40  64  90 127 176 221 272 334 394
#
# _framework density 20.86739
#
# number of rings (size 3 to 8) (size 9 to 14) (size 15 to 20)
#    0.000    0.500    2.500    6.000    3.500    0.500 
#    0.000    1.250    0.000    0.000    0.000    0.000 
#    0.000    0.000    0.000    0.000    0.000    0.000 
#
# Total GULP energy -178954.336095 kJ/mol
# GULP energy per Si atom -5592.323003 kJ/mol
# Density = 2.081990 g / cm^3
# Si number density = 20.867390 Si / 1000 Ang^3
#
#
#
# Elastic Constant Matrix: (Units=GPa)
#
#
# Indices 1 2 3 4 5 6 
#
# 1 145.5403 48.1857 36.0713 0.0000 0.0000 0.0000
# 2 48.1857 113.6076 85.9498 0.0000 0.0000 0.0000
# 3 36.0713 85.9498 135.8482 0.0000 0.0000 0.0000
# 4 0.0000 0.0000 0.0000 43.3970 0.0000 0.0000
# 5 0.0000 0.0000 0.0000 0.0000 19.7367 0.0000
# 6 0.0000 0.0000 0.0000 0.0000 0.0000 46.0355
#
#
#
# Elastic Compliance Matrix: (Units=1/GPa)
#
#
# Indices 1 2 3 4 5 6 
#
# 1 0.007994 -0.003423 0.000043 0.000000 0.000000 0.000000
# 2 -0.003423 0.018350 -0.010701 0.000000 0.000000 0.000000
# 3 0.000043 -0.010701 0.014120 0.000000 0.000000 0.000000
# 4 0.000000 0.000000 0.000000 0.023043 0.000000 0.000000
# 5 0.000000 0.000000 0.000000 0.000000 0.050667 0.000000
# 6 0.000000 0.000000 0.000000 0.000000 0.000000 0.021722
#
#
# Mechanical properties :
#
#
# Convention : Reuss Voigt Hill
#
# Bulk Modulus (GPa) = 81.28760 81.71218 81.49989
# Shear Modulus (GPa) = 29.73396 36.81978 33.27687
#
# Velocity S-wave (km/s) = 3.77888 4.20511 3.99768
# Velocity P-wave (km/s) = 7.62095 7.92591 7.77493
#
# Compressibility (1/GPa) = 0.01230200
#
# Stress axis : x y z
#
# Youngs Moduli (GPa) = 125.10064 54.49645 70.82175
#
# Poissons Ratio (x) = 0.18655 -0.00307
# Poissons Ratio (y) = 0.42824 0.75785
# Poissons Ratio (z) = -0.00542 0.58316
#
# Static dielectric constant tensor:
#      x y z
#    x 1.731440 0.000000 0.000000 
#    y 0.000000 1.772740 0.000000 
#    z 0.000000 0.000000 1.765090 
# 
# From -- ./inp_files/35059.got.cif
#   From: 2010.05.17/outbox.cif.g08.bks.cpg/sg66_18_cif.got.tgz:35059.got - 2010.06.03 17:51:23.
