data_PCOD9499105
_publ_section_title
;
Structure prediction by ZEFSAII (Michael W. Deem and Ramdas Pophale) SiO2 
 PCOD9499105
Probable space group: C C C M
;
_chemical_formula_sum "Si O2"
_cell_formula_units_Z 88
_cell_length_a 32.964115
_cell_length_b 5.100067
_cell_length_c 25.393449
_cell_angle_alpha 90.000000
_cell_angle_beta 90.000000
_cell_angle_gamma 90.000000
_cell_volume 4269.126207
_symmetry_space_group_name_H-M "C C C M"
_symmetry_group_IT_number 66
_symmetry_cell_setting 'orthorhombic'
loop_
_space_group_symop_operation_xyz
x,y,z
-x,-y,z
x,-y,1/2-z
-x,y,1/2-z
-x,-y,-z
x,y,-z
-x,y,1/2+z
x,-y,1/2+z
1/2+x,1/2+y,z
1/2-x,1/2-y,z
1/2+x,1/2-y,1/2-z
1/2-x,1/2+y,1/2-z
1/2-x,1/2-y,-z
1/2+x,1/2+y,-z
1/2-x,1/2+y,1/2+z
1/2+x,1/2-y,1/2+z
loop_
_atom_site_type_symbol
_atom_site_label
_atom_site_fract_x
_atom_site_fract_y
_atom_site_fract_z
Si Si1 0.085108 0.500000 0.750000
Si Si2 0.000000 0.500000 0.588597
Si Si3 0.453124 0.721944 0.000000
Si Si4 0.375461 0.555652 0.612322
Si Si5 0.652690 0.923448 0.667941
Si Si6 0.222737 0.500000 0.250000
Si Si7 0.542783 0.649060 0.833132
Si Si8 0.099615 0.263994 0.000000
O O1 0.115734 0.368836 0.708486
O O2 0.058196 0.283821 0.779597
O O3 0.979248 0.710268 0.550984
O O4 0.966341 0.383039 0.626321
O O5 0.439779 0.423685 0.000000
O O6 0.415660 0.934102 0.000000
O O7 0.350799 0.289213 0.621684
O O8 0.420458 0.505846 0.636714
O O9 0.378490 0.670429 0.553428
O O10 0.355613 0.785361 0.647006
O O11 0.693571 0.918219 0.701656
O O12 0.250000 0.750000 0.264113
O O13 0.500000 0.500000 0.826856
#
# Coordination Sequence:
#
# PCOD9499105 Si02
#       8
#     8   8   8  16  16   8  16   8
#     4   9  24  43  53  78 116 162 204 246 323 372
#     4  11  24  39  52  76 110 151 216 291 352 346
#     4  11  24  38  58  78 110 151 214 301 335 364
#     4  11  23  41  62  85 127 166 209 263 317 358
#     4  10  23  44  63  94 132 159 189 250 312 365
#     4  11  22  42  77 110 131 160 201 236 289 378
#     4  11  24  40  55  76 113 164 226 276 317 372
#     4  12  22  39  62  88 108 167 220 255 317 383
#
# _framework density 20.613119000000001
#
# number of rings (size 3 to 8) (size 9 to 14) (size 15 to 20)
#    0.000    1.273    1.818    3.273    7.636    6.909 
#    3.273    0.000    0.000    0.000    0.000   12.727 
#    0.000    0.000    0.000    0.000    0.000    0.000 
#
# Total GULP energy -246170.387565 kJ/mol
# GULP energy per Si atom -5594.781536 kJ/mol
# Density = 2.056620 g / cm^3
# Si number density = 20.613119 Si / 1000 Ang^3
#
#
#
# Elastic Constant Matrix: (Units=GPa)
#
#
# Indices 1 2 3 4 5 6 
#
# 1 84.6130 32.5031 29.0642 0.0000 0.0000 0.0000
# 2 32.5031 71.2502 11.4684 0.0000 0.0000 0.0000
# 3 29.0642 11.4684 77.0756 0.0000 0.0000 0.0000
# 4 0.0000 0.0000 0.0000 -40.0502 0.0000 0.0000
# 5 0.0000 0.0000 0.0000 0.0000 31.4151 0.0000
# 6 0.0000 0.0000 0.0000 0.0000 0.0000 28.4963
#
#
#
# Elastic Compliance Matrix: (Units=1/GPa)
#
#
# Indices 1 2 3 4 5 6 
#
# 1 0.016068 -0.006511 -0.005090 0.000000 0.000000 0.000000
# 2 -0.006511 0.017017 -0.000077 0.000000 0.000000 0.000000
# 3 -0.005090 -0.000077 0.014905 0.000000 0.000000 0.000000
# 4 0.000000 0.000000 0.000000 -0.024969 0.000000 0.000000
# 5 0.000000 0.000000 0.000000 0.000000 0.031832 0.000000
# 6 0.000000 0.000000 0.000000 0.000000 0.000000 0.035092
#
#
# Mechanical properties :
#
#
# Convention : Reuss Voigt Hill
#
# Bulk Modulus (GPa) = 40.59295 42.11225 41.35260
# Shear Modulus (GPa) = 41.14766 14.63245 27.89006
#
# Velocity S-wave (km/s) = 4.47272 2.66721 3.68234
# Velocity P-wave (km/s) = 6.81243 5.47353 6.17935
#
# Compressibility (1/GPa) = 0.02463482
#
# Stress axis : x y z
#
# Youngs Moduli (GPa) = 62.23552 58.76312 67.09054
#
# Poissons Ratio (x) = 0.38258 0.34151
# Poissons Ratio (y) = 0.40519 0.00517
# Poissons Ratio (z) = 0.31680 0.00453
#
# Static dielectric constant tensor:
#      x y z
#    x 1.729030 0.000000 0.000000 
#    y 0.000000 1.746140 0.000000 
#    z 0.000000 0.000000 1.758360 
# 
# From -- ./inp_files/60452.got.cif
#   From: 2010.05.17/outbox.cif.g08.bks.cpg/sg66_31_cif.got.tgz:60452.got - 2010.06.03 17:51:23.
