data_PCOD9499645
_publ_section_title
;
Structure prediction by ZEFSAII (Michael W. Deem and Ramdas Pophale) SiO2 
 PCOD9499645
Probable space group: C C C M
;
_chemical_formula_sum "Si O2"
_cell_formula_units_Z 80
_cell_length_a 11.815661
_cell_length_b 20.237112
_cell_length_c 15.164713
_cell_angle_alpha 90.000000
_cell_angle_beta 90.000000
_cell_angle_gamma 90.000000
_cell_volume 3626.108150
_symmetry_space_group_name_H-M "C C C M"
_symmetry_group_IT_number 66
_symmetry_cell_setting 'orthorhombic'
loop_
_space_group_symop_operation_xyz
x,y,z
-x,-y,z
x,-y,1/2-z
-x,y,1/2-z
-x,-y,-z
x,y,-z
-x,y,1/2+z
x,-y,1/2+z
1/2+x,1/2+y,z
1/2-x,1/2-y,z
1/2+x,1/2-y,1/2-z
1/2-x,1/2+y,1/2-z
1/2-x,1/2-y,-z
1/2+x,1/2+y,-z
1/2-x,1/2+y,1/2+z
1/2+x,1/2-y,1/2+z
loop_
_atom_site_type_symbol
_atom_site_label
_atom_site_fract_x
_atom_site_fract_y
_atom_site_fract_z
Si Si1 0.748864 0.110094 0.597733
Si Si2 0.011736 0.388275 0.645901
Si Si3 0.380993 0.370678 0.731981
Si Si4 0.385776 0.253752 0.599327
Si Si5 0.766040 0.545125 0.401724
O O1 0.783946 0.132215 0.500000
O O2 0.613622 0.115278 0.606934
O O3 0.815338 0.144520 0.677321
O O4 0.767823 0.031168 0.605740
O O5 0.068556 0.317801 0.625748
O O6 0.099585 0.442664 0.609514
O O7 0.000000 0.399104 0.750000
O O8 0.500000 0.406258 0.750000
O O9 0.413814 0.307400 0.673194
O O10 0.296851 0.413862 0.672897
O O11 0.424860 0.270719 0.500000
O O12 0.250000 0.250000 0.597537
O O13 0.735007 0.569161 0.500000
#
# Coordination Sequence:
#
# PCOD9499645 Si02
#       5
#    16  16  16  16  16
#     4  11  25  43  67 103 139 174 224 292 356 407
#     4  12  22  40  71 104 140 174 220 278 357 420
#     4  12  26  43  65  94 136 186 240 282 340 405
#     4  11  22  41  69  99 134 178 230 282 335 411
#     4  11  23  42  69  99 135 179 228 283 349 422
#
# _framework density 22.062221000000001
#
# number of rings (size 3 to 8) (size 9 to 14) (size 15 to 20)
#    0.000    0.600    4.000    4.200    0.000    5.600 
#    0.000    2.000    0.000    4.200    0.000    0.000 
#    0.000    0.000    0.000    0.000    0.000    0.000 
#
# Total GULP energy -223885.439228 kJ/mol
# GULP energy per Si atom -5597.135981 kJ/mol
# Density = 2.201201 g / cm^3
# Si number density = 22.062221 Si / 1000 Ang^3
#
#
#
# Elastic Constant Matrix: (Units=GPa)
#
#
# Indices 1 2 3 4 5 6 
#
# 1 81.9018 -13.9528 14.5390 0.0000 0.0000 0.0000
# 2 -13.9528 28.8132 8.6316 0.0000 0.0000 0.0000
# 3 14.5390 8.6316 165.7732 0.0000 0.0000 0.0000
# 4 0.0000 0.0000 0.0000 36.8660 0.0000 0.0000
# 5 0.0000 0.0000 0.0000 0.0000 -289.5716 0.0000
# 6 0.0000 0.0000 0.0000 0.0000 0.0000 12.9723
#
#
#
# Elastic Compliance Matrix: (Units=1/GPa)
#
#
# Indices 1 2 3 4 5 6 
#
# 1 0.013699 0.007104 -0.001571 0.000000 0.000000 0.000000
# 2 0.007104 0.038941 -0.002651 0.000000 0.000000 0.000000
# 3 -0.001571 -0.002651 0.006308 0.000000 0.000000 0.000000
# 4 0.000000 0.000000 0.000000 0.027125 0.000000 0.000000
# 5 0.000000 0.000000 0.000000 0.000000 -0.003453 0.000000
# 6 0.000000 0.000000 0.000000 0.000000 0.000000 0.077087
#
#
# Mechanical properties :
#
#
# Convention : Reuss Voigt Hill
#
# Bulk Modulus (GPa) = 15.45292 32.76932 24.11112
# Shear Modulus (GPa) = 28.48788 -30.12864 -0.82038
#
# Velocity S-wave (km/s) = 3.59730 -3.69944 -0.61045
# Velocity P-wave (km/s) = 4.92682 1.83369 3.23350
#
# Compressibility (1/GPa) = 0.06471268
#
# Stress axis : x y z
#
# Youngs Moduli (GPa) = 72.99795 25.68008 158.52443
#
# Poissons Ratio (x) = -0.18244 0.24910
# Poissons Ratio (y) = -0.51861 0.42020
# Poissons Ratio (z) = 0.11471 0.06807
#
# Static dielectric constant tensor:
#      x y z
#    x 1.801110 0.000000 0.000000 
#    y 0.000000 1.808010 0.000000 
#    z 0.000000 0.000000 1.818770 
# 
# From -- ./inp_files/26364.got.cif
#   From: 2010.05.17/outbox.cif.g08.bks.cpg/sg66_14_cif.got.tgz:26364.got - 2010.06.03 17:51:23.
