data_PCOD9499390
_publ_section_title
;
Structure prediction by ZEFSAII (Michael W. Deem and Ramdas Pophale) SiO2 
 PCOD9499390
Probable space group: C C C M
;
_chemical_formula_sum "Si O2"
_cell_formula_units_Z 68
_cell_length_a 20.424937
_cell_length_b 11.567984
_cell_length_c 14.025521
_cell_angle_alpha 90.000000
_cell_angle_beta 90.000000
_cell_angle_gamma 90.000000
_cell_volume 3313.884805
_symmetry_space_group_name_H-M "C C C M"
_symmetry_group_IT_number 66
_symmetry_cell_setting 'orthorhombic'
loop_
_space_group_symop_operation_xyz
x,y,z
-x,-y,z
x,-y,1/2-z
-x,y,1/2-z
-x,-y,-z
x,y,-z
-x,y,1/2+z
x,-y,1/2+z
1/2+x,1/2+y,z
1/2-x,1/2-y,z
1/2+x,1/2-y,1/2-z
1/2-x,1/2+y,1/2-z
1/2-x,1/2-y,-z
1/2+x,1/2+y,-z
1/2-x,1/2+y,1/2+z
1/2+x,1/2-y,1/2+z
loop_
_atom_site_type_symbol
_atom_site_label
_atom_site_fract_x
_atom_site_fract_y
_atom_site_fract_z
Si Si1 0.070315 0.194310 0.730990
Si Si2 0.402183 0.481688 0.107074
Si Si3 0.752914 0.024021 0.636317
Si Si4 0.250000 0.750000 0.500000
Si Si5 0.679100 0.194301 0.106442
O O1 0.094476 0.131749 0.827163
O O2 0.125356 0.273071 0.684071
O O3 0.000000 0.250259 0.750000
O O4 0.060242 0.086678 0.657694
O O5 0.325788 0.517370 0.106745
O O6 0.423548 0.459175 0.000000
O O7 0.746450 0.147756 0.584803
O O8 0.753075 0.000000 0.750000
O O9 0.694900 0.940945 0.602993
O O10 0.750000 0.250000 0.129163
O O11 0.658849 0.233077 0.000000
#
# Coordination Sequence:
#
# PCOD9499390 Si02
#       5
#    16  16  16   4  16
#     4  11  24  38  59  98 147 191 245 302 370 446
#     4  11  20  37  61  95 142 191 244 305 374 431
#     4  12  24  40  70 107 148 192 237 318 380 445
#     4  12  28  44  62 118 160 180 254 312 394 454
#     4  11  21  40  69 101 138 189 249 304 381 453
#
# _framework density 20.519722999999999
#
# number of rings (size 3 to 8) (size 9 to 14) (size 15 to 20)
#    0.000    0.706    7.059    2.118    4.941    2.824 
#    0.000    0.000    0.000    0.706    0.000    3.294 
#    0.000    0.000    0.000    0.000    0.000    0.000 
#
# Total GULP energy -189307.173663 kJ/mol
# GULP energy per Si atom -5567.858049 kJ/mol
# Density = 2.047302 g / cm^3
# Si number density = 20.519723 Si / 1000 Ang^3
#
#
#
# Elastic Constant Matrix: (Units=GPa)
#
#
# Indices 1 2 3 4 5 6 
#
# 1 107.0688 36.6718 43.0175 0.0000 0.0000 0.0000
# 2 36.6718 120.2223 47.2937 0.0000 0.0000 0.0000
# 3 43.0175 47.2937 197.4650 0.0000 0.0000 0.0000
# 4 0.0000 0.0000 0.0000 29.5026 0.0000 0.0000
# 5 0.0000 0.0000 0.0000 0.0000 -7.8996 0.0000
# 6 0.0000 0.0000 0.0000 0.0000 0.0000 23.2543
#
#
#
# Elastic Compliance Matrix: (Units=1/GPa)
#
#
# Indices 1 2 3 4 5 6 
#
# 1 0.010951 -0.002652 -0.001751 0.000000 0.000000 0.000000
# 2 -0.002652 0.009825 -0.001775 0.000000 0.000000 0.000000
# 3 -0.001751 -0.001775 0.005871 0.000000 0.000000 0.000000
# 4 0.000000 0.000000 0.000000 0.033895 0.000000 0.000000
# 5 0.000000 0.000000 0.000000 0.000000 -0.126589 0.000000
# 6 0.000000 0.000000 0.000000 0.000000 0.000000 0.043003
#
#
# Mechanical properties :
#
#
# Convention : Reuss Voigt Hill
#
# Bulk Modulus (GPa) = 69.97150 75.41358 72.69254
# Shear Modulus (GPa) = -844.10323 28.82301 -407.64011
#
# Velocity S-wave (km/s) = -20.30406 3.75193 -14.10989
# Velocity P-wave (km/s) = 22.70462 7.45660 15.16408
#
# Compressibility (1/GPa) = 0.01429153
#
# Stress axis : x y z
#
# Youngs Moduli (GPa) = 91.31227 101.77821 170.33469
#
# Poissons Ratio (x) = 0.26990 0.29819
# Poissons Ratio (y) = 0.24215 0.30243
# Poissons Ratio (z) = 0.15985 0.18071
#
# Static dielectric constant tensor:
#      x y z
#    x 1.757840 0.000000 0.000000 
#    y 0.000000 1.788060 0.000000 
#    z 0.000000 0.000000 1.801380 
# 
# From -- ./inp_files/26100.got.cif
#   From: 2010.05.17/outbox.cif.g08.bks.cpg/sg66_14_cif.got.tgz:26100.got - 2010.06.03 17:51:23.
