data_PCOD9499428
_publ_section_title
;
Structure prediction by ZEFSAII (Michael W. Deem and Ramdas Pophale) SiO2 
 PCOD9499428
Probable space group: C C C M
;
_chemical_formula_sum "Si O2"
_cell_formula_units_Z 80
_cell_length_a 11.105178
_cell_length_b 15.747460
_cell_length_c 23.745581
_cell_angle_alpha 90.000000
_cell_angle_beta 90.000000
_cell_angle_gamma 90.000000
_cell_volume 4152.587938
_symmetry_space_group_name_H-M "C C C M"
_symmetry_group_IT_number 66
_symmetry_cell_setting 'orthorhombic'
loop_
_space_group_symop_operation_xyz
x,y,z
-x,-y,z
x,-y,1/2-z
-x,y,1/2-z
-x,-y,-z
x,y,-z
-x,y,1/2+z
x,-y,1/2+z
1/2+x,1/2+y,z
1/2-x,1/2-y,z
1/2+x,1/2-y,1/2-z
1/2-x,1/2+y,1/2-z
1/2-x,1/2-y,-z
1/2+x,1/2+y,-z
1/2-x,1/2+y,1/2+z
1/2+x,1/2-y,1/2+z
loop_
_atom_site_type_symbol
_atom_site_label
_atom_site_fract_x
_atom_site_fract_y
_atom_site_fract_z
Si Si1 0.491710 0.861147 0.500000
Si Si2 0.250000 0.750000 0.686719
Si Si3 0.246676 0.431695 0.500000
Si Si4 0.293175 0.379664 0.000000
Si Si5 0.144428 0.098851 0.738258
Si Si6 0.181300 0.160200 0.616045
Si Si7 0.931925 0.230111 0.407712
O O1 0.599664 0.928232 0.500000
O O2 0.351126 0.884046 0.500000
O O3 0.498224 0.800506 0.445584
O O4 0.212518 0.831540 0.723254
O O5 0.140060 0.730952 0.644163
O O6 0.319341 0.520518 0.500000
O O7 0.281237 0.384279 0.557788
O O8 0.344156 0.326626 0.052878
O O9 0.194869 0.112794 0.675123
O O10 0.000000 0.112776 0.750000
O O11 0.166756 0.000000 0.750000
O O12 0.250000 0.250000 0.619449
O O13 0.037969 0.171512 0.613526
#
# Coordination Sequence:
#
# PCOD9499428 Si02
#       7
#     8   8   8   8  16  16  16
#     4  11  20  41  61  95 131 176 217 260 337 402
#     4  12  22  43  70  97 130 178 222 276 332 390
#     4  12  26  38  66  94 139 167 214 276 336 388
#     4  11  24  38  59 104 128 170 215 277 324 396
#     4  11  26  43  69 101 133 175 226 273 327 395
#     4  12  24  43  66  95 131 175 221 272 335 392
#     4  11  22  39  69  90 127 175 225 264 328 401
#
# _framework density 19.265094999999999
#
# number of rings (size 3 to 8) (size 9 to 14) (size 15 to 20)
#    0.000    0.600    7.000    2.400    2.800    1.600 
#    0.000    0.000    0.000    4.200    0.000    0.000 
#    0.000    0.000    0.000    0.000    0.000    0.000 
#
# Total GULP energy -223074.515235 kJ/mol
# GULP energy per Si atom -5576.862881 kJ/mol
# Density = 1.922125 g / cm^3
# Si number density = 19.265095 Si / 1000 Ang^3
#
#
#
# Elastic Constant Matrix: (Units=GPa)
#
#
# Indices 1 2 3 4 5 6 
#
# 1 96.2483 40.0500 38.7257 0.0000 0.0000 0.0000
# 2 40.0500 139.0108 74.3497 0.0000 0.0000 0.0000
# 3 38.7257 74.3497 159.1202 0.0000 0.0000 0.0000
# 4 0.0000 0.0000 0.0000 -111.6502 0.0000 0.0000
# 5 0.0000 0.0000 0.0000 0.0000 -16.1578 0.0000
# 6 0.0000 0.0000 0.0000 0.0000 0.0000 28.0600
#
#
#
# Elastic Compliance Matrix: (Units=1/GPa)
#
#
# Indices 1 2 3 4 5 6 
#
# 1 0.012165 -0.002562 -0.001764 0.000000 0.000000 0.000000
# 2 -0.002562 0.010130 -0.004110 0.000000 0.000000 0.000000
# 3 -0.001764 -0.004110 0.008634 0.000000 0.000000 0.000000
# 4 0.000000 0.000000 0.000000 -0.008957 0.000000 0.000000
# 5 0.000000 0.000000 0.000000 0.000000 -0.061890 0.000000
# 6 0.000000 0.000000 0.000000 0.000000 0.000000 0.035638
#
#
# Mechanical properties :
#
#
# Convention : Reuss Voigt Hill
#
# Bulk Modulus (GPa) = 71.12895 77.84779 74.48837
# Shear Modulus (GPa) = 289.39281 -3.86599 142.76341
#
# Velocity S-wave (km/s) = 12.26957 -1.41813 8.61775
# Velocity P-wave (km/s) = 15.41831 6.14939 11.73753
#
# Compressibility (1/GPa) = 0.01405897
#
# Stress axis : x y z
#
# Youngs Moduli (GPa) = 82.20060 98.71868 115.81918
#
# Poissons Ratio (x) = 0.25287 0.20429
# Poissons Ratio (y) = 0.21056 0.47599
# Poissons Ratio (z) = 0.14499 0.40571
#
# Static dielectric constant tensor:
#      x y z
#    x 1.701990 0.000000 0.000000 
#    y 0.000000 1.709540 0.000000 
#    z 0.000000 0.000000 1.989000 
# 
# From -- ./inp_files/56700.got.cif
#   From: 2010.05.17/outbox.cif.g08.bks.cpg/sg66_29_cif.got.tgz:56700.got - 2010.06.03 17:51:23.
