data_PCOD9499479
_publ_section_title
;
Structure prediction by ZEFSAII (Michael W. Deem and Ramdas Pophale) SiO2 
 PCOD9499479
Probable space group: C C C M
;
_chemical_formula_sum "Si O2"
_cell_formula_units_Z 64
_cell_length_a 25.932946
_cell_length_b 10.241729
_cell_length_c 12.872623
_cell_angle_alpha 90.000000
_cell_angle_beta 90.000000
_cell_angle_gamma 90.000000
_cell_volume 3418.945564
_symmetry_space_group_name_H-M "C C C M"
_symmetry_group_IT_number 66
_symmetry_cell_setting 'orthorhombic'
loop_
_space_group_symop_operation_xyz
x,y,z
-x,-y,z
x,-y,1/2-z
-x,y,1/2-z
-x,-y,-z
x,y,-z
-x,y,1/2+z
x,-y,1/2+z
1/2+x,1/2+y,z
1/2-x,1/2-y,z
1/2+x,1/2-y,1/2-z
1/2-x,1/2+y,1/2-z
1/2-x,1/2-y,-z
1/2+x,1/2+y,-z
1/2-x,1/2+y,1/2+z
1/2+x,1/2-y,1/2+z
loop_
_atom_site_type_symbol
_atom_site_label
_atom_site_fract_x
_atom_site_fract_y
_atom_site_fract_z
Si Si1 0.360647 0.870395 0.316477
Si Si2 0.607745 0.622605 0.320784
Si Si3 0.025690 0.856349 0.000000
Si Si4 0.722172 0.886765 0.000000
Si Si5 0.834372 0.981339 0.000000
Si Si6 0.416431 0.769584 0.500000
O O1 0.366545 0.740361 0.244853
O O2 0.311978 0.888458 0.395101
O O3 0.406398 0.852515 0.397969
O O4 0.364315 0.000000 0.250000
O O5 0.589940 0.500000 0.250000
O O6 0.561230 0.663246 0.397936
O O7 0.649192 0.559150 0.398001
O O8 0.974715 0.772503 0.000000
O O9 0.000000 0.000000 0.000000
O O10 0.750000 0.750000 0.000000
O O11 0.772592 0.976103 0.000000
O O12 0.872139 0.849325 0.000000
#
# Coordination Sequence:
#
# PCOD9499479 Si02
#       6
#    16  16   8   8   8   8
#     4  11  25  42  63  90 133 173 210 263 313 392
#     4  11  21  40  66  97 129 159 217 267 315 379
#     4  11  21  36  66 100 124 163 209 275 329 366
#     4  11  21  42  66  90 128 173 211 259 339 363
#     4  11  21  40  64  94 128 159 207 277 305 376
#     4  11  21  44  60  90 134 161 205 267 323 366
#
# _framework density 18.719221999999998
#
# number of rings (size 3 to 8) (size 9 to 14) (size 15 to 20)
#    0.000    1.000    7.500    0.000    0.000   10.500 
#    0.000    5.000    0.000    0.000    0.000    0.000 
#    0.000    0.000    0.000    0.000    0.000    0.000 
#
# Total GULP energy -178191.308625 kJ/mol
# GULP energy per Si atom -5568.478395 kJ/mol
# Density = 1.867662 g / cm^3
# Si number density = 18.719222 Si / 1000 Ang^3
#
#
#
# Elastic Constant Matrix: (Units=GPa)
#
#
# Indices 1 2 3 4 5 6 
#
# 1 169.3216 51.4360 78.0044 0.0000 0.0000 0.0000
# 2 51.4360 108.0559 81.2572 0.0000 0.0000 0.0000
# 3 78.0044 81.2572 166.3314 0.0000 0.0000 0.0000
# 4 0.0000 0.0000 0.0000 186.9467 0.0000 0.0000
# 5 0.0000 0.0000 0.0000 0.0000 -14.6271 0.0000
# 6 0.0000 0.0000 0.0000 0.0000 0.0000 30.9357
#
#
#
# Elastic Compliance Matrix: (Units=1/GPa)
#
#
# Indices 1 2 3 4 5 6 
#
# 1 0.007684 -0.001498 -0.002872 0.000000 0.000000 0.000000
# 2 -0.001498 0.014921 -0.006586 0.000000 0.000000 0.000000
# 3 -0.002872 -0.006586 0.010576 0.000000 0.000000 0.000000
# 4 0.000000 0.000000 0.000000 0.005349 0.000000 0.000000
# 5 0.000000 0.000000 0.000000 0.000000 -0.068366 0.000000
# 6 0.000000 0.000000 0.000000 0.000000 0.000000 0.032325
#
#
# Mechanical properties :
#
#
# Convention : Reuss Voigt Hill
#
# Bulk Modulus (GPa) = 88.74389 96.12268 92.43328
# Shear Modulus (GPa) = 177.57218 56.18518 116.87868
#
# Velocity S-wave (km/s) = 9.75022 5.48451 7.91033
# Velocity P-wave (km/s) = 13.20101 9.56910 11.52897
#
# Compressibility (1/GPa) = 0.01126838
#
# Stress axis : x y z
#
# Youngs Moduli (GPa) = 130.14106 67.02134 94.54958
#
# Poissons Ratio (x) = 0.10041 0.27151
# Poissons Ratio (y) = 0.19498 0.62275
# Poissons Ratio (z) = 0.37372 0.44143
#
# Static dielectric constant tensor:
#      x y z
#    x 1.576010 0.000000 0.000000 
#    y 0.000000 1.570070 0.000000 
#    z 0.000000 0.000000 1.651650 
# 
# From -- ./inp_files/20451.got.cif
#   From: 2010.05.17/outbox.cif.g08.bks.cpg/sg66_11_cif.got.tgz:20451.got - 2010.06.03 17:51:23.
