data_PCOD9499126
_publ_section_title
;
Structure prediction by ZEFSAII (Michael W. Deem and Ramdas Pophale) SiO2 
 PCOD9499126
Probable space group: C C C M
;
_chemical_formula_sum "Si O2"
_cell_formula_units_Z 104
_cell_length_a 9.085991
_cell_length_b 26.774435
_cell_length_c 19.777337
_cell_angle_alpha 90.000000
_cell_angle_beta 90.000000
_cell_angle_gamma 90.000000
_cell_volume 4811.277774
_symmetry_space_group_name_H-M "C C C M"
_symmetry_group_IT_number 66
_symmetry_cell_setting 'orthorhombic'
loop_
_space_group_symop_operation_xyz
x,y,z
-x,-y,z
x,-y,1/2-z
-x,y,1/2-z
-x,-y,-z
x,y,-z
-x,y,1/2+z
x,-y,1/2+z
1/2+x,1/2+y,z
1/2-x,1/2-y,z
1/2+x,1/2-y,1/2-z
1/2-x,1/2+y,1/2-z
1/2-x,1/2-y,-z
1/2+x,1/2+y,-z
1/2-x,1/2+y,1/2+z
1/2+x,1/2-y,1/2+z
loop_
_atom_site_type_symbol
_atom_site_label
_atom_site_fract_x
_atom_site_fract_y
_atom_site_fract_z
Si Si1 0.834815 0.576272 0.237983
Si Si2 0.783455 0.581139 0.000000
Si Si3 0.371979 0.373886 0.344147
Si Si4 0.689325 0.196060 0.078546
Si Si5 0.750000 0.750000 0.842683
Si Si6 0.115439 0.654092 0.379400
Si Si7 0.615648 0.455444 0.630928
Si Si8 0.000000 0.210641 0.250000
O O1 0.747288 0.591758 0.305490
O O2 0.855235 0.625561 0.190693
O O3 0.732848 0.541154 0.191720
O O4 0.000000 0.557748 0.250000
O O5 0.862009 0.615533 0.059768
O O6 0.698686 0.549346 0.060115
O O7 0.307604 0.347897 0.410706
O O8 0.519100 0.405276 0.356779
O O9 0.406484 0.327084 0.296160
O O10 0.750000 0.250000 0.101381
O O11 0.546240 0.177715 0.118054
O O12 0.649970 0.201484 0.000000
O O13 0.771354 0.700004 0.885573
O O14 0.891096 0.757129 0.795296
O O15 0.500000 0.500000 0.632031
#
# Coordination Sequence:
#
# PCOD9499126 Si02
#       8
#    16   8  16  16   8  16  16   8
#     4  11  22  41  71  98 134 179 217 281 359 418
#     4  10  23  45  71  93 134 182 230 287 351 414
#     4  12  23  43  67  97 139 178 225 288 353 416
#     4  11  25  41  63  96 141 190 239 283 337 407
#     4  12  26  35  62  98 135 188 234 284 334 414
#     4  11  22  42  64  95 138 184 234 283 337 411
#     4  11  25  47  74 103 134 176 233 296 357 430
#     4  12  24  40  57  98 138 182 231 276 344 418
#
# _framework density 21.615880000000001
#
# number of rings (size 3 to 8) (size 9 to 14) (size 15 to 20)
#    0.000    0.769    5.385    2.077    5.385    1.538 
#    2.769    1.538    0.000    0.923    0.000    0.000 
#    0.000    0.000    0.000    0.000    0.000    0.000 
#
# Total GULP energy -289861.824453 kJ/mol
# GULP energy per Si atom -5574.265855 kJ/mol
# Density = 2.156668 g / cm^3
# Si number density = 21.615880 Si / 1000 Ang^3
#
#
#
# Elastic Constant Matrix: (Units=GPa)
#
#
# Indices 1 2 3 4 5 6 
#
# 1 97.6162 32.9290 5.8901 0.0000 0.0000 0.0000
# 2 32.9290 77.4365 19.9672 0.0000 0.0000 0.0000
# 3 5.8901 19.9672 37.5942 0.0000 0.0000 0.0000
# 4 0.0000 0.0000 0.0000 14.1338 0.0000 0.0000
# 5 0.0000 0.0000 0.0000 0.0000 17.6655 0.0000
# 6 0.0000 0.0000 0.0000 0.0000 0.0000 45.4420
#
#
#
# Elastic Compliance Matrix: (Units=1/GPa)
#
#
# Indices 1 2 3 4 5 6 
#
# 1 0.011990 -0.005346 0.000961 0.000000 0.000000 0.000000
# 2 -0.005346 0.017347 -0.008376 0.000000 0.000000 0.000000
# 3 0.000961 -0.008376 0.030898 0.000000 0.000000 0.000000
# 4 0.000000 0.000000 0.000000 0.070752 0.000000 0.000000
# 5 0.000000 0.000000 0.000000 0.000000 0.056607 0.000000
# 6 0.000000 0.000000 0.000000 0.000000 0.000000 0.022006
#
#
# Mechanical properties :
#
#
# Convention : Reuss Voigt Hill
#
# Bulk Modulus (GPa) = 28.80803 36.69104 32.74954
# Shear Modulus (GPa) = 20.26808 25.70564 22.98686
#
# Velocity S-wave (km/s) = 3.06543 3.45222 3.26456
# Velocity P-wave (km/s) = 5.08776 5.73597 5.42156
#
# Compressibility (1/GPa) = 0.03471254
#
# Stress axis : x y z
#
# Youngs Moduli (GPa) = 83.40500 57.64694 32.36468
#
# Poissons Ratio (x) = 0.30820 -0.03110
# Poissons Ratio (y) = 0.44591 0.27108
# Poissons Ratio (z) = -0.08016 0.48284
#
# Static dielectric constant tensor:
#      x y z
#    x 1.809670 0.000000 0.000000 
#    y 0.000000 1.824130 0.000000 
#    z 0.000000 0.000000 1.760330 
# 
# From -- ./inp_files/47431.got.cif
#   From: 2010.05.17/outbox.cif.g08.bks.cpg/sg66_24_cif.got.tgz:47431.got - 2010.06.03 17:51:23.
