data_PCOD9499327
_publ_section_title
;
Structure prediction by ZEFSAII (Michael W. Deem and Ramdas Pophale) SiO2 
 PCOD9499327
Probable space group: C C C M
;
_chemical_formula_sum "Si O2"
_cell_formula_units_Z 88
_cell_length_a 17.111208
_cell_length_b 25.081072
_cell_length_c 13.564283
_cell_angle_alpha 90.000000
_cell_angle_beta 90.000000
_cell_angle_gamma 90.000000
_cell_volume 5821.348609
_symmetry_space_group_name_H-M "C C C M"
_symmetry_group_IT_number 66
_symmetry_cell_setting 'orthorhombic'
loop_
_space_group_symop_operation_xyz
x,y,z
-x,-y,z
x,-y,1/2-z
-x,y,1/2-z
-x,-y,-z
x,y,-z
-x,y,1/2+z
x,-y,1/2+z
1/2+x,1/2+y,z
1/2-x,1/2-y,z
1/2+x,1/2-y,1/2-z
1/2-x,1/2+y,1/2-z
1/2-x,1/2-y,-z
1/2+x,1/2+y,-z
1/2-x,1/2+y,1/2+z
1/2+x,1/2-y,1/2+z
loop_
_atom_site_type_symbol
_atom_site_label
_atom_site_fract_x
_atom_site_fract_y
_atom_site_fract_z
Si Si1 0.569393 0.740378 0.180164
Si Si2 0.590517 0.558719 0.716292
Si Si3 0.195881 0.195867 0.500000
Si Si4 0.992510 0.178149 0.000000
Si Si5 0.297511 0.193985 0.107780
Si Si6 0.308617 0.660819 0.222026
Si Si7 0.955968 0.943084 0.500000
O O1 0.500000 0.758589 0.250000
O O2 0.614211 0.788172 0.126936
O O3 0.632074 0.708535 0.247353
O O4 0.534340 0.701378 0.096824
O O5 0.613907 0.500000 0.750000
O O6 0.500000 0.566988 0.750000
O O7 0.644500 0.607124 0.746902
O O8 0.592434 0.558572 0.598915
O O9 0.250000 0.250000 0.500000
O O10 0.212444 0.167680 0.393663
O O11 0.099350 0.196326 0.500000
O O12 0.000828 0.113763 0.000000
O O13 0.250000 0.250000 0.103323
O O14 0.263331 0.164512 0.202602
O O15 0.287082 0.168192 0.000000
O O16 0.000000 0.000000 0.500000
#
# Coordination Sequence:
#
# PCOD9499327 Si02
#       7
#    16  16   8   8  16  16   8
#     4  11  19  31  50  73  95 126 169 206 247 299
#     4  11  21  34  48  71  96 128 177 215 248 290
#     4  12  22  34  48  71  99 137 173 208 261 315
#     4  12  22  32  51  71  98 137 175 211 250 300
#     4   9  19  34  46  68  97 129 163 203 248 302
#     4  11  21  34  49  67 100 132 169 207 258 297
#     4  12  20  34  46  66  99 133 164 217 250 283
#
# _framework density 15.116771999999999
#
# number of rings (size 3 to 8) (size 9 to 14) (size 15 to 20)
#    0.000    1.091    6.364    3.273    1.273    0.000 
#    3.273    0.000    0.000    0.000    0.000    0.000 
#    0.000    0.727    0.000    3.273    0.000    0.000 
#
# Total GULP energy -245075.693288 kJ/mol
# GULP energy per Si atom -5569.902120 kJ/mol
# Density = 1.508237 g / cm^3
# Si number density = 15.116772 Si / 1000 Ang^3
#
#
#
# Elastic Constant Matrix: (Units=GPa)
#
#
# Indices 1 2 3 4 5 6 
#
# 1 54.7934 29.0979 29.6873 0.0000 0.0000 0.0000
# 2 29.0979 65.2278 23.5781 0.0000 0.0000 0.0000
# 3 29.6873 23.5781 127.2053 0.0000 0.0000 0.0000
# 4 0.0000 0.0000 0.0000 17.4420 0.0000 0.0000
# 5 0.0000 0.0000 0.0000 0.0000 21.0003 0.0000
# 6 0.0000 0.0000 0.0000 0.0000 0.0000 10.5180
#
#
#
# Elastic Compliance Matrix: (Units=1/GPa)
#
#
# Indices 1 2 3 4 5 6 
#
# 1 0.025829 -0.010014 -0.004172 0.000000 0.000000 0.000000
# 2 -0.010014 0.020314 -0.001428 0.000000 0.000000 0.000000
# 3 -0.004172 -0.001428 0.009100 0.000000 0.000000 0.000000
# 4 0.000000 0.000000 0.000000 0.057333 0.000000 0.000000
# 5 0.000000 0.000000 0.000000 0.000000 0.047618 0.000000
# 6 0.000000 0.000000 0.000000 0.000000 0.000000 0.095075
#
#
# Mechanical properties :
#
#
# Convention : Reuss Voigt Hill
#
# Bulk Modulus (GPa) = 41.64159 45.77259 43.70709
# Shear Modulus (GPa) = 16.97780 20.78294 18.88037
#
# Velocity S-wave (km/s) = 3.35492 3.71189 3.53791
# Velocity P-wave (km/s) = 6.52792 6.97968 6.75757
#
# Compressibility (1/GPa) = 0.02401445
#
# Stress axis : x y z
#
# Youngs Moduli (GPa) = 38.71674 49.22609 109.89430
#
# Poissons Ratio (x) = 0.49295 0.45845
# Poissons Ratio (y) = 0.38771 0.15696
# Poissons Ratio (z) = 0.16152 0.07031
#
# Static dielectric constant tensor:
#      x y z
#    x 1.510410 0.000000 0.000000 
#    y 0.000000 1.578570 0.000000 
#    z 0.000000 0.000000 1.548250 
# 
# From -- ./inp_files/28818.got.cif
#   From: 2010.05.17/outbox.cif.g08.bks.cpg/sg66_15_cif.got.tgz:28818.got - 2010.06.03 17:51:23.
