data_PCOD9499095
_publ_section_title
;
Structure prediction by ZEFSAII (Michael W. Deem and Ramdas Pophale) SiO2 
 PCOD9499095
Probable space group: C C C M
;
_chemical_formula_sum "Si O2"
_cell_formula_units_Z 112
_cell_length_a 14.377451
_cell_length_b 23.210124
_cell_length_c 15.081876
_cell_angle_alpha 90.000000
_cell_angle_beta 90.000000
_cell_angle_gamma 90.000000
_cell_volume 5032.858527
_symmetry_space_group_name_H-M "C C C M"
_symmetry_group_IT_number 66
_symmetry_cell_setting 'orthorhombic'
loop_
_space_group_symop_operation_xyz
x,y,z
-x,-y,z
x,-y,1/2-z
-x,y,1/2-z
-x,-y,-z
x,y,-z
-x,y,1/2+z
x,-y,1/2+z
1/2+x,1/2+y,z
1/2-x,1/2-y,z
1/2+x,1/2-y,1/2-z
1/2-x,1/2+y,1/2-z
1/2-x,1/2-y,-z
1/2+x,1/2+y,-z
1/2-x,1/2+y,1/2+z
1/2+x,1/2-y,1/2+z
loop_
_atom_site_type_symbol
_atom_site_label
_atom_site_fract_x
_atom_site_fract_y
_atom_site_fract_z
Si Si1 0.035685 0.105319 0.149840
Si Si2 0.561567 0.055221 0.393079
Si Si3 0.572095 0.174638 0.685125
Si Si4 0.738797 0.313560 0.223621
Si Si5 0.721908 0.536083 0.892640
Si Si6 0.372734 0.714033 0.596573
Si Si7 0.840028 0.912348 0.601050
O O1 0.135850 0.074126 0.143342
O O2 0.044676 0.168145 0.105785
O O3 0.000000 0.109975 0.250000
O O4 0.950097 0.074252 0.102367
O O5 0.554760 0.057924 0.500000
O O6 0.529980 0.115761 0.351913
O O7 0.671838 0.051965 0.370956
O O8 0.500000 0.000000 0.364572
O O9 0.500000 0.205738 0.750000
O O10 0.661665 0.163068 0.745908
O O11 0.598795 0.219868 0.609070
O O12 0.750000 0.250000 0.181604
O O13 0.687377 0.301613 0.317224
O O14 0.685716 0.358255 0.161946
O O15 0.708379 0.470103 0.864478
O O16 0.713256 0.539130 0.000000
O O17 0.328444 0.704509 0.500000
O O18 0.810093 0.901647 0.500000
#
# Coordination Sequence:
#
# PCOD9499095 Si02
#       7
#    16  16  16  16  16  16  16
#     4  12  23  41  67 104 140 177 221 288 351 419
#     4  10  23  45  70  98 132 177 234 290 343 408
#     4  11  25  42  64  99 135 172 222 287 341 412
#     4  10  24  44  67 100 136 172 234 289 339 417
#     4  10  23  43  68  99 136 178 233 287 341 416
#     4  11  23  44  73  99 131 173 223 287 354 408
#     4  11  24  43  66  96 140 186 223 273 343 418
#
# _framework density 22.253755999999999
#
# number of rings (size 3 to 8) (size 9 to 14) (size 15 to 20)
#    0.000    1.286    1.429    3.429    4.000    7.143 
#    0.000    0.714    0.000    0.000    0.000    0.000 
#    0.000    0.000    0.000    0.000    0.000    0.000 
#
# Total GULP energy -312935.385438 kJ/mol
# GULP energy per Si atom -5588.131883 kJ/mol
# Density = 2.220311 g / cm^3
# Si number density = 22.253756 Si / 1000 Ang^3
#
#
#
# Elastic Constant Matrix: (Units=GPa)
#
#
# Indices 1 2 3 4 5 6 
#
# 1 70.4519 20.8964 27.2713 0.0000 0.0000 0.0000
# 2 20.8964 131.2347 48.6248 0.0000 0.0000 0.0000
# 3 27.2713 48.6248 86.7030 0.0000 0.0000 0.0000
# 4 0.0000 0.0000 0.0000 32.6838 0.0000 0.0000
# 5 0.0000 0.0000 0.0000 0.0000 19.3132 0.0000
# 6 0.0000 0.0000 0.0000 0.0000 0.0000 41.0714
#
#
#
# Elastic Compliance Matrix: (Units=1/GPa)
#
#
# Indices 1 2 3 4 5 6 
#
# 1 0.016241 -0.000875 -0.004618 0.000000 0.000000 0.000000
# 2 -0.000875 0.009666 -0.005146 0.000000 0.000000 0.000000
# 3 -0.004618 -0.005146 0.015872 0.000000 0.000000 0.000000
# 4 0.000000 0.000000 0.000000 0.030596 0.000000 0.000000
# 5 0.000000 0.000000 0.000000 0.000000 0.051778 0.000000
# 6 0.000000 0.000000 0.000000 0.000000 0.000000 0.024348
#
#
# Mechanical properties :
#
#
# Convention : Reuss Voigt Hill
#
# Bulk Modulus (GPa) = 48.77556 53.55275 51.16416
# Shear Modulus (GPa) = 28.31077 31.38683 29.84880
#
# Velocity S-wave (km/s) = 3.57063 3.75961 3.66634
# Velocity P-wave (km/s) = 6.24217 6.55462 6.40030
#
# Compressibility (1/GPa) = 0.02050207
#
# Stress axis : x y z
#
# Youngs Moduli (GPa) = 61.57220 103.45769 63.00504
#
# Poissons Ratio (x) = 0.09054 0.29093
# Poissons Ratio (y) = 0.05388 0.32419
# Poissons Ratio (z) = 0.28432 0.53234
#
# Static dielectric constant tensor:
#      x y z
#    x 1.858640 0.000000 0.000000 
#    y 0.000000 1.841480 0.000000 
#    z 0.000000 0.000000 1.819550 
# 
# From -- ./inp_files/28692.got.cif
#   From: 2010.05.17/outbox.cif.g08.bks.cpg/sg66_15_cif.got.tgz:28692.got - 2010.06.03 17:51:23.
