data_PCOD9499583
_publ_section_title
;
Structure prediction by ZEFSAII (Michael W. Deem and Ramdas Pophale) SiO2 
 PCOD9499583
Probable space group: C C C M
;
_chemical_formula_sum "Si O2"
_cell_formula_units_Z 88
_cell_length_a 23.214212
_cell_length_b 12.309082
_cell_length_c 15.258437
_cell_angle_alpha 90.000000
_cell_angle_beta 90.000000
_cell_angle_gamma 90.000000
_cell_volume 4360.031832
_symmetry_space_group_name_H-M "C C C M"
_symmetry_group_IT_number 66
_symmetry_cell_setting 'orthorhombic'
loop_
_space_group_symop_operation_xyz
x,y,z
-x,-y,z
x,-y,1/2-z
-x,y,1/2-z
-x,-y,-z
x,y,-z
-x,y,1/2+z
x,-y,1/2+z
1/2+x,1/2+y,z
1/2-x,1/2-y,z
1/2+x,1/2-y,1/2-z
1/2-x,1/2+y,1/2-z
1/2-x,1/2-y,-z
1/2+x,1/2+y,-z
1/2-x,1/2+y,1/2+z
1/2+x,1/2-y,1/2+z
loop_
_atom_site_type_symbol
_atom_site_label
_atom_site_fract_x
_atom_site_fract_y
_atom_site_fract_z
Si Si1 0.634079 0.000000 0.250000
Si Si2 0.131792 0.126749 0.898747
Si Si3 0.050683 0.414058 0.598185
Si Si4 0.999669 0.819892 0.146859
Si Si5 0.621600 0.379038 0.900084
Si Si6 0.183644 0.264892 0.744622
O O1 0.594779 0.965837 0.332877
O O2 0.670329 0.890764 0.236838
O O3 0.063954 0.156356 0.887972
O O4 0.167098 0.199632 0.831871
O O5 0.141926 0.000061 0.876579
O O6 0.147379 0.143900 0.000000
O O7 0.075101 0.394698 0.500000
O O8 0.000000 0.500000 0.590825
O O9 0.020315 0.303955 0.631422
O O10 0.000000 0.842977 0.250000
O O11 0.052129 0.885506 0.104434
O O12 0.644639 0.288776 0.832561
O O13 0.638631 0.354315 0.000000
O O14 0.250000 0.250000 0.720895
#
# Coordination Sequence:
#
# PCOD9499583 Si02
#       6
#     8  16  16  16  16  16
#     4  12  25  44  66  98 128 179 230 280 332 404
#     4  11  24  43  70 103 141 177 220 274 338 407
#     4  11  22  37  62  96 140 178 212 264 330 408
#     4  12  21  37  66 106 140 174 214 266 334 416
#     4  11  24  44  70 102 137 175 221 276 340 408
#     4  12  28  46  71  95 131 178 238 291 338 391
#
# _framework density 20.183339
#
# number of rings (size 3 to 8) (size 9 to 14) (size 15 to 20)
#    0.000    0.545    3.636    5.182    2.545    5.091 
#    0.000    0.000    0.000    0.000    0.000    0.000 
#    0.000    0.000    0.000    0.000    0.000    0.000 
#
# Total GULP energy -245990.900862 kJ/mol
# GULP energy per Si atom -5590.702292 kJ/mol
# Density = 2.013740 g / cm^3
# Si number density = 20.183339 Si / 1000 Ang^3
#
#
#
# Elastic Constant Matrix: (Units=GPa)
#
#
# Indices 1 2 3 4 5 6 
#
# 1 54.4301 5.1723 -2.7630 0.0000 0.0000 0.0000
# 2 5.1723 130.9252 30.8492 0.0000 0.0000 0.0000
# 3 -2.7630 30.8492 86.2888 0.0000 0.0000 0.0000
# 4 0.0000 0.0000 0.0000 19.6548 0.0000 0.0000
# 5 0.0000 0.0000 0.0000 0.0000 -38.1363 0.0000
# 6 0.0000 0.0000 0.0000 0.0000 0.0000 -1.4326
#
#
#
# Elastic Compliance Matrix: (Units=1/GPa)
#
#
# Indices 1 2 3 4 5 6 
#
# 1 0.018510 -0.000951 0.000933 0.000000 0.000000 0.000000
# 2 -0.000951 0.008389 -0.003030 0.000000 0.000000 0.000000
# 3 0.000933 -0.003030 0.012702 0.000000 0.000000 0.000000
# 4 0.000000 0.000000 0.000000 0.050878 0.000000 0.000000
# 5 0.000000 0.000000 0.000000 0.000000 -0.026222 0.000000
# 6 0.000000 0.000000 0.000000 0.000000 0.000000 -0.698052
#
#
# Mechanical properties :
#
#
# Convention : Reuss Voigt Hill
#
# Bulk Modulus (GPa) = 29.84613 37.57344 33.70979
# Shear Modulus (GPa) = -8.10990 11.90955 1.89982
#
# Velocity S-wave (km/s) = -2.00670 2.43177 0.97125
# Velocity P-wave (km/s) = 3.07416 5.15181 4.24215
#
# Compressibility (1/GPa) = 0.03350518
#
# Stress axis : x y z
#
# Youngs Moduli (GPa) = 54.02515 119.19794 78.72760
#
# Poissons Ratio (x) = 0.11336 -0.07343
# Poissons Ratio (y) = 0.05138 0.23853
# Poissons Ratio (z) = -0.05039 0.36114
#
# Static dielectric constant tensor:
#      x y z
#    x 1.690230 0.000000 0.000000 
#    y 0.000000 1.729280 0.000000 
#    z 0.000000 0.000000 1.724230 
# 
# From -- ./inp_files/32189.got.cif
#   From: 2010.05.17/outbox.cif.g08.bks.cpg/sg66_17_cif.got.tgz:32189.got - 2010.06.03 17:51:23.
