data_PCOD9499685
_publ_section_title
;
Structure prediction by ZEFSAII (Michael W. Deem and Ramdas Pophale) SiO2 
 PCOD9499685
Probable space group: C C C M
;
_chemical_formula_sum "Si O2"
_cell_formula_units_Z 64
_cell_length_a 14.536597
_cell_length_b 11.761463
_cell_length_c 18.681552
_cell_angle_alpha 90.000000
_cell_angle_beta 90.000000
_cell_angle_gamma 90.000000
_cell_volume 3194.015728
_symmetry_space_group_name_H-M "C C C M"
_symmetry_group_IT_number 66
_symmetry_cell_setting 'orthorhombic'
loop_
_space_group_symop_operation_xyz
x,y,z
-x,-y,z
x,-y,1/2-z
-x,y,1/2-z
-x,-y,-z
x,y,-z
-x,y,1/2+z
x,-y,1/2+z
1/2+x,1/2+y,z
1/2-x,1/2-y,z
1/2+x,1/2-y,1/2-z
1/2-x,1/2+y,1/2-z
1/2-x,1/2-y,-z
1/2+x,1/2+y,-z
1/2-x,1/2+y,1/2+z
1/2+x,1/2-y,1/2+z
loop_
_atom_site_type_symbol
_atom_site_label
_atom_site_fract_x
_atom_site_fract_y
_atom_site_fract_z
Si Si1 0.578791 0.095180 0.500000
Si Si2 0.250000 0.750000 0.870516
Si Si3 0.895493 0.971581 0.000000
Si Si4 0.145856 0.224998 0.895438
Si Si5 0.720289 0.099153 0.000000
Si Si6 0.388021 0.634861 0.756733
O O1 0.581977 0.178784 0.568567
O O2 0.500000 0.000000 0.500000
O O3 0.671856 0.021862 0.500000
O O4 0.328345 0.686539 0.822838
O O5 0.300324 0.835354 0.926493
O O6 0.877996 0.894960 0.930761
O O7 0.000000 0.000000 0.000000
O O8 0.829466 0.078707 0.000000
O O9 0.250000 0.250000 0.916892
O O10 0.141711 0.209511 0.811346
O O11 0.365252 0.500000 0.750000
O O12 0.500000 0.641424 0.750000
#
# Coordination Sequence:
#
# PCOD9499685 Si02
#       6
#     8   8   8  16   8  16
#     4  11  25  42  68  95 133 176 223 272 333 405
#     4  11  26  42  68  97 136 174 218 287 334 396
#     4  11  23  38  72  99 130 174 228 276 328 387
#     4  11  22  45  67  94 131 180 224 270 330 405
#     4  11  24  43  66 101 136 170 226 280 338 385
#     4  11  26  44  67  97 134 175 226 275 335 398
#
# _framework density 20.037472000000001
#
# number of rings (size 3 to 8) (size 9 to 14) (size 15 to 20)
#    0.000    1.000    3.750    2.250   10.500    2.000 
#    0.000    0.000    0.000    0.000    0.000    0.000 
#    0.000    0.000    0.000    0.000    0.000    0.000 
#
# Total GULP energy -178520.227413 kJ/mol
# GULP energy per Si atom -5578.757107 kJ/mol
# Density = 1.999187 g / cm^3
# Si number density = 20.037472 Si / 1000 Ang^3
#
#
#
# Elastic Constant Matrix: (Units=GPa)
#
#
# Indices 1 2 3 4 5 6 
#
# 1 107.4589 40.5537 32.0289 0.0000 0.0000 0.0000
# 2 40.5537 109.6389 65.1540 0.0000 0.0000 0.0000
# 3 32.0289 65.1540 155.7762 0.0000 0.0000 0.0000
# 4 0.0000 0.0000 0.0000 24.0410 0.0000 0.0000
# 5 0.0000 0.0000 0.0000 0.0000 -67.3644 0.0000
# 6 0.0000 0.0000 0.0000 0.0000 0.0000 42.1113
#
#
#
# Elastic Compliance Matrix: (Units=1/GPa)
#
#
# Indices 1 2 3 4 5 6 
#
# 1 0.010879 -0.003586 -0.000737 0.000000 0.000000 0.000000
# 2 -0.003586 0.013320 -0.004834 0.000000 0.000000 0.000000
# 3 -0.000737 -0.004834 0.008593 0.000000 0.000000 0.000000
# 4 0.000000 0.000000 0.000000 0.041596 0.000000 0.000000
# 5 0.000000 0.000000 0.000000 0.000000 -0.014845 0.000000
# 6 0.000000 0.000000 0.000000 0.000000 0.000000 0.023747
#
#
# Mechanical properties :
#
#
# Convention : Reuss Voigt Hill
#
# Bulk Modulus (GPa) = 69.07027 72.03858 70.55443
# Shear Modulus (GPa) = 46.98011 15.43343 31.20677
#
# Velocity S-wave (km/s) = 4.84737 2.77831 3.95070
# Velocity P-wave (km/s) = 8.11633 6.80603 7.48988
#
# Compressibility (1/GPa) = 0.01447801
#
# Stress axis : x y z
#
# Youngs Moduli (GPa) = 91.92159 75.07657 116.37776
#
# Poissons Ratio (x) = 0.26922 0.08576
# Poissons Ratio (y) = 0.32963 0.56254
# Poissons Ratio (z) = 0.06774 0.36290
#
# Static dielectric constant tensor:
#      x y z
#    x 1.760060 0.000000 0.000000 
#    y 0.000000 1.696020 0.000000 
#    z 0.000000 0.000000 1.822770 
# 
# From -- ./inp_files/38094.got.cif
#   From: 2010.05.17/outbox.cif.g08.bks.cpg/sg66_20_cif.got.tgz:38094.got - 2010.06.03 17:51:23.
