data_PCOD9499404
_publ_section_title
;
Structure prediction by ZEFSAII (Michael W. Deem and Ramdas Pophale) SiO2 
 PCOD9499404
Probable space group: C C C M
;
_chemical_formula_sum "Si O2"
_cell_formula_units_Z 68
_cell_length_a 9.255653
_cell_length_b 20.177811
_cell_length_c 18.990278
_cell_angle_alpha 90.000000
_cell_angle_beta 90.000000
_cell_angle_gamma 90.000000
_cell_volume 3546.601852
_symmetry_space_group_name_H-M "C C C M"
_symmetry_group_IT_number 66
_symmetry_cell_setting 'orthorhombic'
loop_
_space_group_symop_operation_xyz
x,y,z
-x,-y,z
x,-y,1/2-z
-x,y,1/2-z
-x,-y,-z
x,y,-z
-x,y,1/2+z
x,-y,1/2+z
1/2+x,1/2+y,z
1/2-x,1/2-y,z
1/2+x,1/2-y,1/2-z
1/2-x,1/2+y,1/2-z
1/2-x,1/2-y,-z
1/2+x,1/2+y,-z
1/2-x,1/2+y,1/2+z
1/2+x,1/2-y,1/2+z
loop_
_atom_site_type_symbol
_atom_site_label
_atom_site_fract_x
_atom_site_fract_y
_atom_site_fract_z
Si Si1 0.918788 0.244910 0.416189
Si Si2 0.762661 0.074163 0.241720
Si Si3 0.522009 0.598425 0.867186
Si Si4 0.000000 0.000000 0.500000
Si Si5 0.390767 0.204293 0.693250
O O1 0.926469 0.249721 0.500000
O O2 0.750000 0.250000 0.395265
O O3 0.982343 0.174991 0.389908
O O4 0.018007 0.299172 0.378262
O O5 0.842596 0.090093 0.315011
O O6 0.655428 0.132871 0.221735
O O7 0.884712 0.076338 0.180081
O O8 0.702621 0.000000 0.250000
O O9 0.530663 0.555329 0.937395
O O10 0.500000 0.236116 0.750000
O O11 0.250000 0.250000 0.685990
#
# Coordination Sequence:
#
# PCOD9499404 Si02
#       5
#    16  16  16   4  16
#     4  11  24  42  65  98 135 171 215 280 344 404
#     4  11  22  39  62  89 133 171 220 276 328 398
#     4  11  20  39  62  95 129 173 224 272 329 402
#     4  12  20  34  66  98 126 178 232 272 336 398
#     4  12  24  41  65  92 126 173 220 269 335 401
#
# _framework density 19.173282
#
# number of rings (size 3 to 8) (size 9 to 14) (size 15 to 20)
#    0.000    0.706    5.882    4.235    0.000    0.941 
#    2.118    0.000    0.000    0.000    0.000    8.235 
#    0.000    0.000    0.000    0.000    0.000    0.000 
#
# Total GULP energy -189465.655972 kJ/mol
# GULP energy per Si atom -5572.519293 kJ/mol
# Density = 1.912964 g / cm^3
# Si number density = 19.173282 Si / 1000 Ang^3
#
#
#
# Elastic Constant Matrix: (Units=GPa)
#
#
# Indices 1 2 3 4 5 6 
#
# 1 102.4539 48.6878 53.2846 0.0000 0.0000 0.0000
# 2 48.6878 104.9086 47.0388 0.0000 0.0000 0.0000
# 3 53.2846 47.0388 152.3992 0.0000 0.0000 0.0000
# 4 0.0000 0.0000 0.0000 36.5895 0.0000 0.0000
# 5 0.0000 0.0000 0.0000 0.0000 26.1802 0.0000
# 6 0.0000 0.0000 0.0000 0.0000 0.0000 21.9054
#
#
#
# Elastic Compliance Matrix: (Units=1/GPa)
#
#
# Indices 1 2 3 4 5 6 
#
# 1 0.013827 -0.004932 -0.003312 0.000000 0.000000 0.000000
# 2 -0.004932 0.012822 -0.002233 0.000000 0.000000 0.000000
# 3 -0.003312 -0.002233 0.008409 0.000000 0.000000 0.000000
# 4 0.000000 0.000000 0.000000 0.027330 0.000000 0.000000
# 5 0.000000 0.000000 0.000000 0.000000 0.038197 0.000000
# 6 0.000000 0.000000 0.000000 0.000000 0.000000 0.045651
#
#
# Mechanical properties :
#
#
# Convention : Reuss Voigt Hill
#
# Bulk Modulus (GPa) = 70.90397 73.08712 71.99554
# Shear Modulus (GPa) = 29.08806 30.98507 30.03656
#
# Velocity S-wave (km/s) = 3.89924 4.02438 3.96230
# Velocity P-wave (km/s) = 7.57186 7.73280 7.65275
#
# Compressibility (1/GPa) = 0.01410358
#
# Stress axis : x y z
#
# Youngs Moduli (GPa) = 72.32338 77.98882 118.91907
#
# Poissons Ratio (x) = 0.38463 0.39387
# Poissons Ratio (y) = 0.35669 0.26558
# Poissons Ratio (z) = 0.23954 0.17417
#
# Static dielectric constant tensor:
#      x y z
#    x 1.687070 0.000000 0.000000 
#    y 0.000000 1.703290 0.000000 
#    z 0.000000 0.000000 1.658700 
# 
# From -- ./inp_files/36485.got.cif
#   From: 2010.05.17/outbox.cif.g08.bks.cpg/sg66_19_cif.got.tgz:36485.got - 2010.06.03 17:51:23.
