data_PCOD9499000
_publ_section_title
;
Structure prediction by ZEFSAII (Michael W. Deem and Ramdas Pophale) SiO2 
 PCOD9499000
Probable space group: C C C M
;
_chemical_formula_sum "Si O2"
_cell_formula_units_Z 60
_cell_length_a 28.252932
_cell_length_b 10.427404
_cell_length_c 9.134074
_cell_angle_alpha 90.000000
_cell_angle_beta 90.000000
_cell_angle_gamma 90.000000
_cell_volume 2690.941461
_symmetry_space_group_name_H-M "C C C M"
_symmetry_group_IT_number 66
_symmetry_cell_setting 'orthorhombic'
loop_
_space_group_symop_operation_xyz
x,y,z
-x,-y,z
x,-y,1/2-z
-x,y,1/2-z
-x,-y,-z
x,y,-z
-x,y,1/2+z
x,-y,1/2+z
1/2+x,1/2+y,z
1/2-x,1/2-y,z
1/2+x,1/2-y,1/2-z
1/2-x,1/2+y,1/2-z
1/2-x,1/2-y,-z
1/2+x,1/2+y,-z
1/2-x,1/2+y,1/2+z
1/2+x,1/2-y,1/2+z
loop_
_atom_site_type_symbol
_atom_site_label
_atom_site_fract_x
_atom_site_fract_y
_atom_site_fract_z
Si Si1 0.171018 0.256721 0.250173
Si Si2 0.500000 0.000000 0.750000
Si Si3 0.941144 0.362438 0.500000
Si Si4 0.112172 0.876236 0.500000
Si Si5 0.141298 0.569874 0.000000
Si Si6 0.685459 0.431367 0.000000
Si Si7 0.226153 0.595285 0.500000
O O1 0.137069 0.178185 0.144556
O O2 0.138217 0.348177 0.351947
O O3 0.195002 0.155989 0.359496
O O4 0.207058 0.332609 0.144584
O O5 0.468550 0.912605 0.642713
O O6 0.935667 0.208076 0.500000
O O7 0.891132 0.443121 0.500000
O O8 0.130120 0.023552 0.500000
O O9 0.196624 0.534725 0.000000
O O10 0.719539 0.554929 0.000000
#
# Coordination Sequence:
#
# PCOD9499000 Si02
#       7
#    16   4   8   8   8   8   8
#     4  10  23  40  59  90 125 175 221 276 319 372
#     4  10  24  38  68 102 146 158 200 278 322 426
#     4  11  21  41  64 104 128 168 203 260 344 389
#     4  11  22  39  65  88 126 170 217 263 317 392
#     4  11  21  38  66  93 130 166 222 264 328 399
#     4  11  26  42  58  93 132 176 238 268 324 370
#     4  11  24  40  61  90 130 183 224 282 321 369
#
# _framework density 22.297028999999998
#
# number of rings (size 3 to 8) (size 9 to 14) (size 15 to 20)
#    0.000    1.333    2.667    3.200    0.000   10.667 
#    0.000    2.667    0.000    0.000    0.000   63.467 
#    0.000    0.000    0.000    0.000    0.000    0.000 
#
# Total GULP energy -167601.107987 kJ/mol
# GULP energy per Si atom -5586.703600 kJ/mol
# Density = 2.224628 g / cm^3
# Si number density = 22.297029 Si / 1000 Ang^3
#
#
#
# Elastic Constant Matrix: (Units=GPa)
#
#
# Indices 1 2 3 4 5 6 
#
# 1 59.8072 11.9758 20.1150 0.0000 0.0000 0.0000
# 2 11.9758 78.2451 41.1977 0.0000 0.0000 0.0000
# 3 20.1150 41.1977 165.6451 0.0000 0.0000 0.0000
# 4 0.0000 0.0000 0.0000 26.0094 0.0000 0.0000
# 5 0.0000 0.0000 0.0000 0.0000 12.4986 0.0000
# 6 0.0000 0.0000 0.0000 0.0000 0.0000 34.9793
#
#
#
# Elastic Compliance Matrix: (Units=1/GPa)
#
#
# Indices 1 2 3 4 5 6 
#
# 1 0.017652 -0.001810 -0.001693 0.000000 0.000000 0.000000
# 2 -0.001810 0.014892 -0.003484 0.000000 0.000000 0.000000
# 3 -0.001693 -0.003484 0.007109 0.000000 0.000000 0.000000
# 4 0.000000 0.000000 0.000000 0.038448 0.000000 0.000000
# 5 0.000000 0.000000 0.000000 0.000000 0.080009 0.000000
# 6 0.000000 0.000000 0.000000 0.000000 0.000000 0.028588
#
#
# Mechanical properties :
#
#
# Convention : Reuss Voigt Hill
#
# Bulk Modulus (GPa) = 38.94340 50.03049 44.48694
# Shear Modulus (GPa) = 23.89681 30.05805 26.97743
#
# Velocity S-wave (km/s) = 3.27731 3.67560 3.48215
# Velocity P-wave (km/s) = 5.64133 6.36398 6.01352
#
# Compressibility (1/GPa) = 0.02567829
#
# Stress axis : x y z
#
# Youngs Moduli (GPa) = 56.64948 67.15122 140.66424
#
# Poissons Ratio (x) = 0.12156 0.23820
# Poissons Ratio (y) = 0.10255 0.49006
# Poissons Ratio (z) = 0.09593 0.23395
#
# Static dielectric constant tensor:
#      x y z
#    x 1.847610 0.000000 0.000000 
#    y 0.000000 1.921940 0.000000 
#    z 0.000000 0.000000 1.835030 
# 
# From -- ./inp_files/9859.got.cif
#   From: 2010.05.17/outbox.cif.g08.bks.cpg/sg66_5_cif.got.tgz:9859.got - 2010.06.03 17:51:23.
