data_PCOD9499146
_publ_section_title
;
Structure prediction by ZEFSAII (Michael W. Deem and Ramdas Pophale) SiO2 
 PCOD9499146
Probable space group: C C C M
;
_chemical_formula_sum "Si O2"
_cell_formula_units_Z 56
_cell_length_a 10.476428
_cell_length_b 24.647891
_cell_length_c 10.838783
_cell_angle_alpha 90.000000
_cell_angle_beta 90.000000
_cell_angle_gamma 90.000000
_cell_volume 2798.810657
_symmetry_space_group_name_H-M "C C C M"
_symmetry_group_IT_number 66
_symmetry_cell_setting 'orthorhombic'
loop_
_space_group_symop_operation_xyz
x,y,z
-x,-y,z
x,-y,1/2-z
-x,y,1/2-z
-x,-y,-z
x,y,-z
-x,y,1/2+z
x,-y,1/2+z
1/2+x,1/2+y,z
1/2-x,1/2-y,z
1/2+x,1/2-y,1/2-z
1/2-x,1/2+y,1/2-z
1/2-x,1/2-y,-z
1/2+x,1/2+y,-z
1/2-x,1/2+y,1/2+z
1/2+x,1/2-y,1/2+z
loop_
_atom_site_type_symbol
_atom_site_label
_atom_site_fract_x
_atom_site_fract_y
_atom_site_fract_z
Si Si1 0.839131 0.563138 0.500000
Si Si2 0.146594 0.436055 0.000000
Si Si3 0.112430 0.720555 0.868945
Si Si4 0.500000 0.683870 0.250000
Si Si5 0.769683 0.375536 0.252112
O O1 0.811558 0.498855 0.500000
O O2 0.785528 0.589935 0.374026
O O3 0.992946 0.567009 0.500000
O O4 0.196426 0.407851 0.124765
O O5 0.250000 0.750000 0.871982
O O6 0.016440 0.770870 0.856743
O O7 0.134312 0.675609 0.764634
O O8 0.090349 0.692470 0.000000
O O9 0.373572 0.648270 0.259370
#
# Coordination Sequence:
#
# PCOD9499146 Si02
#       5
#     8   8  16   8  16
#     4  11  24  47  68  88 125 175 225 271 335 389
#     4  11  26  43  68  96 123 163 231 287 315 381
#     4   9  19  37  59  87 128 174 204 238 308 391
#     4  10  24  38  63 102 137 164 214 266 318 410
#     4  11  23  42  67  99 131 173 213 272 333 384
#
# _framework density 20.008500000000002
#
# number of rings (size 3 to 8) (size 9 to 14) (size 15 to 20)
#    0.000    1.714    1.429    1.714    8.000    2.286 
#    0.000    6.429    0.000    0.000    0.000    0.000 
#    0.000    0.000    0.000    0.000    0.000    0.000 
#
# Total GULP energy -156116.016293 kJ/mol
# GULP energy per Si atom -5575.572010 kJ/mol
# Density = 1.996296 g / cm^3
# Si number density = 20.008500 Si / 1000 Ang^3
#
#
#
# Elastic Constant Matrix: (Units=GPa)
#
#
# Indices 1 2 3 4 5 6 
#
# 1 126.9226 75.8457 56.0181 0.0000 0.0000 0.0000
# 2 75.8457 167.5033 97.5875 0.0000 0.0000 0.0000
# 3 56.0181 97.5875 172.8476 0.0000 0.0000 0.0000
# 4 0.0000 0.0000 0.0000 41.3566 0.0000 0.0000
# 5 0.0000 0.0000 0.0000 0.0000 -2.8179 0.0000
# 6 0.0000 0.0000 0.0000 0.0000 0.0000 39.9019
#
#
#
# Elastic Compliance Matrix: (Units=1/GPa)
#
#
# Indices 1 2 3 4 5 6 
#
# 1 0.010944 -0.004305 -0.001116 0.000000 0.000000 0.000000
# 2 -0.004305 0.010590 -0.004584 0.000000 0.000000 0.000000
# 3 -0.001116 -0.004584 0.008735 0.000000 0.000000 0.000000
# 4 0.000000 0.000000 0.000000 0.024180 0.000000 0.000000
# 5 0.000000 0.000000 0.000000 0.000000 -0.354868 0.000000
# 6 0.000000 0.000000 0.000000 0.000000 0.000000 0.025061
#
#
# Mechanical properties :
#
#
# Convention : Reuss Voigt Hill
#
# Bulk Modulus (GPa) = 97.47582 102.90845 100.19213
# Shear Modulus (GPa) = -19.84693 31.54294 5.84801
#
# Velocity S-wave (km/s) = -3.15290 3.97480 1.71146
# Velocity P-wave (km/s) = 5.96394 8.52111 7.35452
#
# Compressibility (1/GPa) = 0.01025895
#
# Stress axis : x y z
#
# Youngs Moduli (GPa) = 91.37296 94.42997 114.48143
#
# Poissons Ratio (x) = 0.40654 0.12779
# Poissons Ratio (y) = 0.39338 0.52474
# Poissons Ratio (z) = 0.10199 0.43283
#
# Static dielectric constant tensor:
#      x y z
#    x 1.719880 0.000000 0.000000 
#    y 0.000000 1.696170 0.000000 
#    z 0.000000 0.000000 1.809870 
# 
# From -- ./inp_files/14417.got.cif
#   From: 2010.05.17/outbox.cif.g08.bks.cpg/sg66_8_cif.got.tgz:14417.got - 2010.06.03 17:51:23.
