data_PCOD9499187
_publ_section_title
;
Structure prediction by ZEFSAII (Michael W. Deem and Ramdas Pophale) SiO2 
 PCOD9499187
Probable space group: C C C M
;
_chemical_formula_sum "Si O2"
_cell_formula_units_Z 116
_cell_length_a 18.461196
_cell_length_b 11.101581
_cell_length_c 25.740719
_cell_angle_alpha 90.000000
_cell_angle_beta 90.000000
_cell_angle_gamma 90.000000
_cell_volume 5275.520789
_symmetry_space_group_name_H-M "C C C M"
_symmetry_group_IT_number 66
_symmetry_cell_setting 'orthorhombic'
loop_
_space_group_symop_operation_xyz
x,y,z
-x,-y,z
x,-y,1/2-z
-x,y,1/2-z
-x,-y,-z
x,y,-z
-x,y,1/2+z
x,-y,1/2+z
1/2+x,1/2+y,z
1/2-x,1/2-y,z
1/2+x,1/2-y,1/2-z
1/2-x,1/2+y,1/2-z
1/2-x,1/2-y,-z
1/2+x,1/2+y,-z
1/2-x,1/2+y,1/2+z
1/2+x,1/2-y,1/2+z
loop_
_atom_site_type_symbol
_atom_site_label
_atom_site_fract_x
_atom_site_fract_y
_atom_site_fract_z
Si Si1 0.902187 0.721137 0.940804
Si Si2 0.055215 0.806929 0.084804
Si Si3 0.918301 0.531221 0.600278
Si Si4 0.158018 0.081076 0.672752
Si Si5 0.585313 0.266321 0.748696
Si Si6 0.000000 0.000000 0.500000
Si Si7 0.326248 0.299560 0.152877
Si Si8 0.180280 0.571656 0.803815
O O1 0.905240 0.576808 0.940217
O O2 0.835284 0.763549 0.906850
O O3 0.970357 0.773881 0.908743
O O4 0.906748 0.767880 0.000000
O O5 0.084007 0.667186 0.076287
O O6 0.106888 0.856407 0.129831
O O7 0.044563 0.917796 0.044527
O O8 0.858993 0.514748 0.645858
O O9 0.000000 0.500000 0.620263
O O10 0.118985 0.113928 0.726510
O O11 0.241833 0.119858 0.677946
O O12 0.165412 0.941456 0.659015
O O13 0.500000 0.266726 0.750000
O O14 0.613876 0.244860 0.691058
O O15 0.620635 0.167155 0.785689
O O16 0.250000 0.250000 0.172975
O O17 0.194696 0.500000 0.750000
#
# Coordination Sequence:
#
# PCOD9499187 Si02
#       8
#    16  16  16  16  16   4  16  16
#     4  11  24  45  73 107 146 194 254 323 383 459
#     4  11  24  43  73 109 142 193 252 313 395 459
#     4  10  24  42  72 108 143 193 253 321 376 461
#     4  12  25  45  71 107 152 200 248 317 385 466
#     4  12  26  42  70 110 151 198 255 311 384 464
#     4  12  24  44  74 110 152 196 252 336 404 470
#     4  12  26  46  70 105 152 201 254 308 384 465
#     4  12  25  44  72 106 156 208 252 311 385 466
#
# _framework density 21.988350000000001
#
# number of rings (size 3 to 8) (size 9 to 14) (size 15 to 20)
#    0.000    0.552    2.069    6.621    4.828    3.310 
#    0.000    0.000    1.517    0.828    0.000    0.000 
#    0.000    0.000    0.000    0.000    0.000    0.000 
#
# Total GULP energy -322954.812263 kJ/mol
# GULP energy per Si atom -5568.186418 kJ/mol
# Density = 2.193830 g / cm^3
# Si number density = 21.988350 Si / 1000 Ang^3
#
#
#
# Elastic Constant Matrix: (Units=GPa)
#
#
# Indices 1 2 3 4 5 6 
#
# 1 162.7325 31.5049 72.6393 0.0000 0.0000 0.0000
# 2 31.5049 104.0939 24.5208 0.0000 0.0000 0.0000
# 3 72.6393 24.5208 113.2482 0.0000 0.0000 0.0000
# 4 0.0000 0.0000 0.0000 26.7966 0.0000 0.0000
# 5 0.0000 0.0000 0.0000 0.0000 20.7610 0.0000
# 6 0.0000 0.0000 0.0000 0.0000 0.0000 24.8262
#
#
#
# Elastic Compliance Matrix: (Units=1/GPa)
#
#
# Indices 1 2 3 4 5 6 
#
# 1 0.008801 -0.001406 -0.005341 0.000000 0.000000 0.000000
# 2 -0.001406 0.010348 -0.001339 0.000000 0.000000 0.000000
# 3 -0.005341 -0.001339 0.012546 0.000000 0.000000 0.000000
# 4 0.000000 0.000000 0.000000 0.037318 0.000000 0.000000
# 5 0.000000 0.000000 0.000000 0.000000 0.048167 0.000000
# 6 0.000000 0.000000 0.000000 0.000000 0.000000 0.040280
#
#
# Mechanical properties :
#
#
# Convention : Reuss Voigt Hill
#
# Bulk Modulus (GPa) = 64.41752 70.82273 67.62012
# Shear Modulus (GPa) = 27.96338 31.23742 29.60040
#
# Velocity S-wave (km/s) = 3.57001 3.77322 3.67302
# Velocity P-wave (km/s) = 6.80831 7.15975 6.98624
#
# Compressibility (1/GPa) = 0.01552373
#
# Stress axis : x y z
#
# Youngs Moduli (GPa) = 113.62077 96.64146 79.70800
#
# Poissons Ratio (x) = 0.13584 0.42571
# Poissons Ratio (y) = 0.15971 0.10672
# Poissons Ratio (z) = 0.60684 0.12939
#
# Static dielectric constant tensor:
#      x y z
#    x 1.780260 0.000000 0.000000 
#    y 0.000000 1.951160 0.000000 
#    z 0.000000 0.000000 1.836330 
# 
# From -- ./inp_files/65330.got.cif
#   From: 2010.05.17/outbox.cif.g08.bks.cpg/sg66_33_cif.got.tgz:65330.got - 2010.06.03 17:51:23.
