data_PCOD9499268
_publ_section_title
;
Structure prediction by ZEFSAII (Michael W. Deem and Ramdas Pophale) SiO2 
 PCOD9499268
Probable space group: C C C M
;
_chemical_formula_sum "Si O2"
_cell_formula_units_Z 68
_cell_length_a 15.216062
_cell_length_b 9.214741
_cell_length_c 23.944399
_cell_angle_alpha 90.000000
_cell_angle_beta 90.000000
_cell_angle_gamma 90.000000
_cell_volume 3357.293758
_symmetry_space_group_name_H-M "C C C M"
_symmetry_group_IT_number 66
_symmetry_cell_setting 'orthorhombic'
loop_
_space_group_symop_operation_xyz
x,y,z
-x,-y,z
x,-y,1/2-z
-x,y,1/2-z
-x,-y,-z
x,y,-z
-x,y,1/2+z
x,-y,1/2+z
1/2+x,1/2+y,z
1/2-x,1/2-y,z
1/2+x,1/2-y,1/2-z
1/2-x,1/2+y,1/2-z
1/2-x,1/2-y,-z
1/2+x,1/2+y,-z
1/2-x,1/2+y,1/2+z
1/2+x,1/2-y,1/2+z
loop_
_atom_site_type_symbol
_atom_site_label
_atom_site_fract_x
_atom_site_fract_y
_atom_site_fract_z
Si Si1 0.112023 0.845376 0.000000
Si Si2 0.837542 0.313534 0.114415
Si Si3 0.667707 0.151875 0.390593
Si Si4 0.000000 0.000000 0.750000
Si Si5 0.099116 0.183558 0.000000
Si Si6 0.012734 0.721187 0.310827
O O1 0.146744 0.770295 0.056143
O O2 0.006409 0.824543 0.000000
O O3 0.131882 0.017221 0.000000
O O4 0.750000 0.250000 0.142534
O O5 0.817181 0.481444 0.100716
O O6 0.923234 0.287663 0.153221
O O7 0.750000 0.250000 0.372011
O O8 0.632761 0.230261 0.446265
O O9 0.590087 0.154328 0.345855
O O10 0.042519 0.885403 0.706944
O O11 0.000000 0.653747 0.250000
#
# Coordination Sequence:
#
# PCOD9499268 Si02
#       6
#     8  16  16   4   8  16
#     4  11  24  41  70  98 134 176 218 269 331 395
#     4  12  26  43  69  99 136 174 221 273 328 394
#     4  12  26  43  69  99 136 174 221 273 328 394
#     4   8  24  44  74  94 136 166 226 280 318 404
#     4  11  24  41  70  98 134 176 218 269 331 395
#     4  10  25  45  71  94 134 173 220 274 329 389
#
# _framework density 20.254408000000002
#
# number of rings (size 3 to 8) (size 9 to 14) (size 15 to 20)
#    0.706    0.235    2.353    3.529    6.588    3.765 
#    0.000    0.000    0.000    0.000    0.000    0.000 
#    0.000    0.000    0.000    0.000    0.000    0.000 
#
# Total GULP energy -189694.888338 kJ/mol
# GULP energy per Si atom -5579.261422 kJ/mol
# Density = 2.020831 g / cm^3
# Si number density = 20.254408 Si / 1000 Ang^3
#
#
#
# Elastic Constant Matrix: (Units=GPa)
#
#
# Indices 1 2 3 4 5 6 
#
# 1 125.5571 35.3691 53.5479 0.0000 0.0000 0.0000
# 2 35.3691 179.3469 36.8426 0.0000 0.0000 0.0000
# 3 53.5479 36.8426 128.9476 0.0000 0.0000 0.0000
# 4 0.0000 0.0000 0.0000 29.8950 0.0000 0.0000
# 5 0.0000 0.0000 0.0000 0.0000 -50.4459 0.0000
# 6 0.0000 0.0000 0.0000 0.0000 0.0000 26.9118
#
#
#
# Elastic Compliance Matrix: (Units=1/GPa)
#
#
# Indices 1 2 3 4 5 6 
#
# 1 0.009907 -0.001178 -0.003778 0.000000 0.000000 0.000000
# 2 -0.001178 0.006063 -0.001243 0.000000 0.000000 0.000000
# 3 -0.003778 -0.001243 0.009679 0.000000 0.000000 0.000000
# 4 0.000000 0.000000 0.000000 0.033450 0.000000 0.000000
# 5 0.000000 0.000000 0.000000 0.000000 -0.019823 0.000000
# 6 0.000000 0.000000 0.000000 0.000000 0.000000 0.037158
#
#
# Mechanical properties :
#
#
# Convention : Reuss Voigt Hill
#
# Bulk Modulus (GPa) = 75.45877 76.15232 75.80554
# Shear Modulus (GPa) = 53.61887 21.81164 37.71525
#
# Velocity S-wave (km/s) = 5.15074 3.28515 4.31986
# Velocity P-wave (km/s) = 8.52701 7.21589 7.89870
#
# Compressibility (1/GPa) = 0.01325227
#
# Stress axis : x y z
#
# Youngs Moduli (GPa) = 100.93446 164.92184 103.31542
#
# Poissons Ratio (x) = 0.19425 0.39030
# Poissons Ratio (y) = 0.11888 0.12846
# Poissons Ratio (z) = 0.38130 0.20505
#
# Static dielectric constant tensor:
#      x y z
#    x 1.734500 0.000000 0.000000 
#    y 0.000000 1.770150 0.000000 
#    z 0.000000 0.000000 1.678670 
# 
# From -- ./inp_files/50655.got.cif
#   From: 2010.05.17/outbox.cif.g08.bks.cpg/sg66_26_cif.got.tgz:50655.got - 2010.06.03 17:51:23.
