data_PCOD9499280
_publ_section_title
;
Structure prediction by ZEFSAII (Michael W. Deem and Ramdas Pophale) SiO2 
 PCOD9499280
Probable space group: C C C M
;
_chemical_formula_sum "Si O2"
_cell_formula_units_Z 88
_cell_length_a 4.857612
_cell_length_b 28.043820
_cell_length_c 28.792678
_cell_angle_alpha 90.000000
_cell_angle_beta 90.000000
_cell_angle_gamma 90.000000
_cell_volume 3922.311254
_symmetry_space_group_name_H-M "C C C M"
_symmetry_group_IT_number 66
_symmetry_cell_setting 'orthorhombic'
loop_
_space_group_symop_operation_xyz
x,y,z
-x,-y,z
x,-y,1/2-z
-x,y,1/2-z
-x,-y,-z
x,y,-z
-x,y,1/2+z
x,-y,1/2+z
1/2+x,1/2+y,z
1/2-x,1/2-y,z
1/2+x,1/2-y,1/2-z
1/2-x,1/2+y,1/2-z
1/2-x,1/2-y,-z
1/2+x,1/2+y,-z
1/2-x,1/2+y,1/2+z
1/2+x,1/2-y,1/2+z
loop_
_atom_site_type_symbol
_atom_site_label
_atom_site_fract_x
_atom_site_fract_y
_atom_site_fract_z
Si Si1 0.728685 0.668585 0.500000
Si Si2 0.734205 0.102409 0.500000
Si Si3 0.943170 0.292037 0.583053
Si Si4 0.001580 0.390626 0.627199
Si Si5 0.464087 0.556305 0.592782
Si Si6 0.761207 0.156253 0.218164
Si Si7 0.750000 0.750000 0.331359
O O1 0.922397 0.621198 0.500000
O O2 0.816431 0.697175 0.545970
O O3 0.416698 0.651165 0.500000
O O4 0.820441 0.072232 0.544769
O O5 0.750000 0.250000 0.563564
O O6 0.864092 0.345762 0.599221
O O7 0.035286 0.271492 0.632490
O O8 0.249362 0.415761 0.599195
O O9 0.144336 0.373196 0.674533
O O10 0.750458 0.426967 0.632377
O O11 0.500000 0.500000 0.593562
O O12 0.500000 0.167112 0.250000
O O13 0.868717 0.206622 0.198100
O O14 0.000000 0.134076 0.250000
#
# Coordination Sequence:
#
# PCOD9499280 Si02
#       7
#     8   8  16  16  16  16   8
#     4  12  25  41  63  90 145 189 239 279 329 396
#     4  12  23  44  66 100 135 183 239 289 334 399
#     4  11  25  40  63  95 138 196 224 281 328 402
#     4  11  25  44  69 103 140 174 231 281 348 422
#     4  12  24  45  73 102 137 182 228 292 348 401
#     4  11  24  43  69  98 135 176 218 282 346 404
#     4  10  26  37  66  94 136 176 240 269 328 412
#
# _framework density 22.435752000000001
#
# number of rings (size 3 to 8) (size 9 to 14) (size 15 to 20)
#    0.000    0.727    3.636    2.727   12.727    0.364 
#    0.000    2.727    0.000    8.182    0.000    0.000 
#    0.000    0.000    0.000    0.000    0.000    0.000 
#
# Total GULP energy -246016.301317 kJ/mol
# GULP energy per Si atom -5591.279575 kJ/mol
# Density = 2.238469 g / cm^3
# Si number density = 22.435752 Si / 1000 Ang^3
#
#
#
# Elastic Constant Matrix: (Units=GPa)
#
#
# Indices 1 2 3 4 5 6 
#
# 1 87.3130 39.2558 21.1221 0.0000 0.0000 0.0000
# 2 39.2558 147.2471 48.2995 0.0000 0.0000 0.0000
# 3 21.1221 48.2995 109.5147 0.0000 0.0000 0.0000
# 4 0.0000 0.0000 0.0000 16.1417 0.0000 0.0000
# 5 0.0000 0.0000 0.0000 0.0000 39.2483 0.0000
# 6 0.0000 0.0000 0.0000 0.0000 0.0000 27.4808
#
#
#
# Elastic Compliance Matrix: (Units=1/GPa)
#
#
# Indices 1 2 3 4 5 6 
#
# 1 0.013137 -0.003123 -0.001156 0.000000 0.000000 0.000000
# 2 -0.003123 0.008682 -0.003227 0.000000 0.000000 0.000000
# 3 -0.001156 -0.003227 0.010777 0.000000 0.000000 0.000000
# 4 0.000000 0.000000 0.000000 0.061951 0.000000 0.000000
# 5 0.000000 0.000000 0.000000 0.000000 0.025479 0.000000
# 6 0.000000 0.000000 0.000000 0.000000 0.000000 0.036389
#
#
# Mechanical properties :
#
#
# Convention : Reuss Voigt Hill
#
# Bulk Modulus (GPa) = 56.86932 62.38109 59.62520
# Shear Modulus (GPa) = 28.20245 32.26733 30.23489
#
# Velocity S-wave (km/s) = 3.54931 3.79649 3.67498
# Velocity P-wave (km/s) = 6.49611 6.86166 6.68139
#
# Compressibility (1/GPa) = 0.01758417
#
# Stress axis : x y z
#
# Youngs Moduli (GPa) = 76.12167 115.17621 92.78695
#
# Poissons Ratio (x) = 0.35969 0.10730
# Poissons Ratio (y) = 0.23772 0.29941
# Poissons Ratio (z) = 0.08803 0.37166
#
# Static dielectric constant tensor:
#      x y z
#    x 1.857070 0.000000 0.000000 
#    y 0.000000 1.851880 0.000000 
#    z 0.000000 0.000000 1.847170 
# 
# From -- ./inp_files/67293.got.cif
#   From: 2010.05.17/outbox.cif.g08.bks.cpg/sg66_34_cif.got.tgz:67293.got - 2010.06.03 17:51:23.
