data_PCOD9499260
_publ_section_title
;
Structure prediction by ZEFSAII (Michael W. Deem and Ramdas Pophale) SiO2 
 PCOD9499260
Probable space group: C C C M
;
_chemical_formula_sum "Si O2"
_cell_formula_units_Z 68
_cell_length_a 20.441950
_cell_length_b 8.212310
_cell_length_c 18.655074
_cell_angle_alpha 90.000000
_cell_angle_beta 90.000000
_cell_angle_gamma 90.000000
_cell_volume 3131.732308
_symmetry_space_group_name_H-M "C C C M"
_symmetry_group_IT_number 66
_symmetry_cell_setting 'orthorhombic'
loop_
_space_group_symop_operation_xyz
x,y,z
-x,-y,z
x,-y,1/2-z
-x,y,1/2-z
-x,-y,-z
x,y,-z
-x,y,1/2+z
x,-y,1/2+z
1/2+x,1/2+y,z
1/2-x,1/2-y,z
1/2+x,1/2-y,1/2-z
1/2-x,1/2+y,1/2-z
1/2-x,1/2-y,-z
1/2+x,1/2+y,-z
1/2-x,1/2+y,1/2+z
1/2+x,1/2-y,1/2+z
loop_
_atom_site_type_symbol
_atom_site_label
_atom_site_fract_x
_atom_site_fract_y
_atom_site_fract_z
Si Si1 0.031292 0.731336 0.000000
Si Si2 0.813148 0.317099 0.777301
Si Si3 0.601996 0.575058 0.000000
Si Si4 0.000000 0.000000 0.250000
Si Si5 0.385802 0.323514 0.155128
Si Si6 0.568755 0.042052 0.857933
O O1 0.049659 0.627177 0.931411
O O2 0.956588 0.791306 0.000000
O O3 0.071405 0.897066 0.000000
O O4 0.800499 0.500000 0.750000
O O5 0.750000 0.250000 0.818267
O O6 0.828184 0.190974 0.713133
O O7 0.881816 0.337180 0.818260
O O8 0.632884 0.594942 0.079297
O O9 0.049922 0.901616 0.304399
O O10 0.398473 0.133963 0.136433
O O11 0.500000 0.000000 0.821799
#
# Coordination Sequence:
#
# PCOD9499260 Si02
#       6
#     8  16   8   4  16  16
#     4  11  22  37  65  94 143 178 222 287 361 408
#     4  10  25  44  67  96 136 184 234 284 346 419
#     4  11  23  38  58 102 136 181 223 283 352 416
#     4  12  24  38  66 108 132 172 218 288 340 412
#     4  11  24  39  63  95 136 170 227 275 347 405
#     4  11  21  41  66 100 132 179 226 289 347 415
#
# _framework density 21.713224
#
# number of rings (size 3 to 8) (size 9 to 14) (size 15 to 20)
#    0.000    1.176    2.353    3.882    4.941    3.294 
#    0.000    1.176    0.000    0.000    0.000    0.000 
#    0.000    0.000    0.000    0.000    0.000    0.000 
#
# Total GULP energy -189706.545436 kJ/mol
# GULP energy per Si atom -5579.604278 kJ/mol
# Density = 2.166380 g / cm^3
# Si number density = 21.713224 Si / 1000 Ang^3
#
#
#
# Elastic Constant Matrix: (Units=GPa)
#
#
# Indices 1 2 3 4 5 6 
#
# 1 102.1726 22.3140 41.2261 0.0000 0.0000 0.0000
# 2 22.3140 61.6353 47.8609 0.0000 0.0000 0.0000
# 3 41.2261 47.8609 148.2243 0.0000 0.0000 0.0000
# 4 0.0000 0.0000 0.0000 4.4325 0.0000 0.0000
# 5 0.0000 0.0000 0.0000 0.0000 30.1657 0.0000
# 6 0.0000 0.0000 0.0000 0.0000 0.0000 40.3073
#
#
#
# Elastic Compliance Matrix: (Units=1/GPa)
#
#
# Indices 1 2 3 4 5 6 
#
# 1 0.011242 -0.002191 -0.002419 0.000000 0.000000 0.000000
# 2 -0.002191 0.022081 -0.006520 0.000000 0.000000 0.000000
# 3 -0.002419 -0.006520 0.009525 0.000000 0.000000 0.000000
# 4 0.000000 0.000000 0.000000 0.225605 0.000000 0.000000
# 5 0.000000 0.000000 0.000000 0.000000 0.033150 0.000000
# 6 0.000000 0.000000 0.000000 0.000000 0.000000 0.024809
#
#
# Mechanical properties :
#
#
# Convention : Reuss Voigt Hill
#
# Bulk Modulus (GPa) = 48.57691 59.42603 54.00147
# Shear Modulus (GPa) = 14.06327 28.35652 21.20989
#
# Velocity S-wave (km/s) = 2.54772 3.61772 3.12880
# Velocity P-wave (km/s) = 5.57451 6.69915 6.16253
#
# Compressibility (1/GPa) = 0.02058591
#
# Stress axis : x y z
#
# Youngs Moduli (GPa) = 88.95141 45.28776 104.98933
#
# Poissons Ratio (x) = 0.09925 0.25399
# Poissons Ratio (y) = 0.19493 0.68457
# Poissons Ratio (z) = 0.21519 0.29529
#
# Static dielectric constant tensor:
#      x y z
#    x 1.872360 0.000000 0.000000 
#    y 0.000000 1.841170 0.000000 
#    z 0.000000 0.000000 1.857410 
# 
# From -- ./inp_files/42532.got.cif
#   From: 2010.05.17/outbox.cif.g08.bks.cpg/sg66_22_cif.got.tgz:42532.got - 2010.06.03 17:51:23.
