data_PCOD9499501
_publ_section_title
;
Structure prediction by ZEFSAII (Michael W. Deem and Ramdas Pophale) SiO2 
 PCOD9499501
Probable space group: C C C M
;
_chemical_formula_sum "Si O2"
_cell_formula_units_Z 88
_cell_length_a 14.874836
_cell_length_b 13.337320
_cell_length_c 22.760097
_cell_angle_alpha 90.000000
_cell_angle_beta 90.000000
_cell_angle_gamma 90.000000
_cell_volume 4515.385833
_symmetry_space_group_name_H-M "C C C M"
_symmetry_group_IT_number 66
_symmetry_cell_setting 'orthorhombic'
loop_
_space_group_symop_operation_xyz
x,y,z
-x,-y,z
x,-y,1/2-z
-x,y,1/2-z
-x,-y,-z
x,y,-z
-x,y,1/2+z
x,-y,1/2+z
1/2+x,1/2+y,z
1/2-x,1/2-y,z
1/2+x,1/2-y,1/2-z
1/2-x,1/2+y,1/2-z
1/2-x,1/2-y,-z
1/2+x,1/2+y,-z
1/2-x,1/2+y,1/2+z
1/2+x,1/2-y,1/2+z
loop_
_atom_site_type_symbol
_atom_site_label
_atom_site_fract_x
_atom_site_fract_y
_atom_site_fract_z
Si Si1 0.359133 0.406536 0.207583
Si Si2 0.413780 0.865563 0.000000
Si Si3 0.810460 0.411937 0.628411
Si Si4 0.622172 0.105362 0.500000
Si Si5 0.750000 0.250000 0.786905
Si Si6 0.954126 0.718079 0.187395
Si Si7 0.379759 0.864066 0.874354
O O1 0.381034 0.500000 0.250000
O O2 0.289829 0.429347 0.154131
O O3 0.307034 0.328856 0.249831
O O4 0.441190 0.338106 0.184230
O O5 0.366430 0.829785 0.058988
O O6 0.521788 0.846335 0.000000
O O7 0.399397 0.986168 0.000000
O O8 0.823378 0.374662 0.560858
O O9 0.859642 0.334813 0.672570
O O10 0.862655 0.517669 0.631374
O O11 0.682960 0.189687 0.828235
O O12 0.000000 0.694308 0.250000
O O13 0.019583 0.668278 0.140464
#
# Coordination Sequence:
#
# PCOD9499501 Si02
#       7
#    16   8  16   8   8  16  16
#     4  12  24  41  58  87 129 162 195 253 308 365
#     4   9  18  35  57  88 122 149 199 249 300 350
#     4  11  21  38  64  89 126 156 198 251 308 357
#     4   9  18  34  58  93 120 154 192 249 306 360
#     4  12  22  39  58  89 116 154 210 246 298 368
#     4  12  23  37  59  91 119 157 204 242 305 366
#     4  11  22  38  61  89 119 158 201 253 296 361
#
# _framework density 19.488921999999999
#
# number of rings (size 3 to 8) (size 9 to 14) (size 15 to 20)
#    0.000    0.909    7.273    0.545    0.000    1.455 
#    0.000    2.727    0.000    0.000    0.000    1.273 
#    0.000    0.000    0.000    0.000    0.000    0.000 
#
# Total GULP energy -245429.585906 kJ/mol
# GULP energy per Si atom -5577.945134 kJ/mol
# Density = 1.944456 g / cm^3
# Si number density = 19.488922 Si / 1000 Ang^3
#
#
#
# Elastic Constant Matrix: (Units=GPa)
#
#
# Indices 1 2 3 4 5 6 
#
# 1 28.3064 8.9066 17.9451 0.0000 0.0000 0.0000
# 2 8.9066 72.9040 26.1375 0.0000 0.0000 0.0000
# 3 17.9451 26.1375 116.4992 0.0000 0.0000 0.0000
# 4 0.0000 0.0000 0.0000 10.3002 0.0000 0.0000
# 5 0.0000 0.0000 0.0000 0.0000 15.9546 0.0000
# 6 0.0000 0.0000 0.0000 0.0000 0.0000 36.4421
#
#
#
# Elastic Compliance Matrix: (Units=1/GPa)
#
#
# Indices 1 2 3 4 5 6 
#
# 1 0.039703 -0.002890 -0.005467 0.000000 0.000000 0.000000
# 2 -0.002890 0.015127 -0.002949 0.000000 0.000000 0.000000
# 3 -0.005467 -0.002949 0.010087 0.000000 0.000000 0.000000
# 4 0.000000 0.000000 0.000000 0.097085 0.000000 0.000000
# 5 0.000000 0.000000 0.000000 0.000000 0.062678 0.000000
# 6 0.000000 0.000000 0.000000 0.000000 0.000000 0.027441
#
#
# Mechanical properties :
#
#
# Convention : Reuss Voigt Hill
#
# Bulk Modulus (GPa) = 23.63787 35.96533 29.80160
# Shear Modulus (GPa) = 17.31089 23.52074 20.41582
#
# Velocity S-wave (km/s) = 2.98357 3.47778 3.24011
# Velocity P-wave (km/s) = 4.90144 5.88396 5.41503
#
# Compressibility (1/GPa) = 0.04230500
#
# Stress axis : x y z
#
# Youngs Moduli (GPa) = 25.18695 66.10732 99.13312
#
# Poissons Ratio (x) = 0.19108 0.54198
# Poissons Ratio (y) = 0.07280 0.29231
# Poissons Ratio (z) = 0.13770 0.19492
#
# Static dielectric constant tensor:
#      x y z
#    x 1.764450 0.000000 0.000000 
#    y 0.000000 1.674420 0.000000 
#    z 0.000000 0.000000 1.727160 
# 
# From -- ./inp_files/48587.got.cif
#   From: 2010.05.17/outbox.cif.g08.bks.cpg/sg66_25_cif.got.tgz:48587.got - 2010.06.03 17:51:23.
