data_PCOD9499063
_publ_section_title
;
Structure prediction by ZEFSAII (Michael W. Deem and Ramdas Pophale) SiO2 
 PCOD9499063
Probable space group: C C C M
;
_chemical_formula_sum "Si O2"
_cell_formula_units_Z 36
_cell_length_a 23.820597
_cell_length_b 7.607885
_cell_length_c 9.139351
_cell_angle_alpha 90.000000
_cell_angle_beta 90.000000
_cell_angle_gamma 90.000000
_cell_volume 1656.273060
_symmetry_space_group_name_H-M "C C C M"
_symmetry_group_IT_number 66
_symmetry_cell_setting 'orthorhombic'
loop_
_space_group_symop_operation_xyz
x,y,z
-x,-y,z
x,-y,1/2-z
-x,y,1/2-z
-x,-y,-z
x,y,-z
-x,y,1/2+z
x,-y,1/2+z
1/2+x,1/2+y,z
1/2-x,1/2-y,z
1/2+x,1/2-y,1/2-z
1/2-x,1/2+y,1/2-z
1/2-x,1/2-y,-z
1/2+x,1/2+y,-z
1/2-x,1/2+y,1/2+z
1/2+x,1/2-y,1/2+z
loop_
_atom_site_type_symbol
_atom_site_label
_atom_site_fract_x
_atom_site_fract_y
_atom_site_fract_z
Si Si1 0.828868 0.425345 0.000000
Si Si2 0.423251 0.632861 0.000000
Si Si3 0.829644 0.160690 0.500000
Si Si4 0.747875 0.500000 0.750000
Si Si5 0.500000 0.500000 0.250000
O O1 0.881905 0.298550 0.000000
O O2 0.842703 0.633214 0.000000
O O3 0.790094 0.396958 0.141789
O O4 0.384384 0.459272 0.000000
O O5 0.461761 0.618306 0.143548
O O6 0.792219 0.106243 0.639735
#
# Coordination Sequence:
#
# PCOD9499063 Si02
#       5
#     8   8   8   8   4
#     4  11  27  41  70 105 147 190 230 276 345 432
#     4  11  26  49  77  96 141 186 239 306 358 395
#     4  11  25  43  69 109 148 188 231 274 349 442
#     4  10  23  42  66 110 156 184 221 268 342 442
#     4  10  26  54  74 102 128 184 254 314 358 396
#
# _framework density 21.735548000000001
#
# number of rings (size 3 to 8) (size 9 to 14) (size 15 to 20)
#    0.000    1.333    0.000    4.000   18.667    1.778 
#    0.000    6.667    0.000    0.000    0.000    0.000 
#    0.000    0.000    0.000    0.000    0.000    0.000 
#
# Total GULP energy -100818.671921 kJ/mol
# GULP energy per Si atom -5601.037329 kJ/mol
# Density = 2.168608 g / cm^3
# Si number density = 21.735548 Si / 1000 Ang^3
#
#
#
# Elastic Constant Matrix: (Units=GPa)
#
#
# Indices 1 2 3 4 5 6 
#
# 1 167.3300 97.9006 93.5438 0.0000 0.0000 0.0000
# 2 97.9006 182.3563 74.0772 0.0000 0.0000 0.0000
# 3 93.5438 74.0772 208.6276 0.0000 0.0000 0.0000
# 4 0.0000 0.0000 0.0000 26.9911 0.0000 0.0000
# 5 0.0000 0.0000 0.0000 0.0000 8.2252 0.0000
# 6 0.0000 0.0000 0.0000 0.0000 0.0000 49.5841
#
#
#
# Elastic Compliance Matrix: (Units=1/GPa)
#
#
# Indices 1 2 3 4 5 6 
#
# 1 0.010145 -0.004205 -0.003056 0.000000 0.000000 0.000000
# 2 -0.004205 0.008151 -0.001009 0.000000 0.000000 0.000000
# 3 -0.003056 -0.001009 0.006521 0.000000 0.000000 0.000000
# 4 0.000000 0.000000 0.000000 0.037049 0.000000 0.000000
# 5 0.000000 0.000000 0.000000 0.000000 0.121577 0.000000
# 6 0.000000 0.000000 0.000000 0.000000 0.000000 0.020168
#
#
# Mechanical properties :
#
#
# Convention : Reuss Voigt Hill
#
# Bulk Modulus (GPa) = 120.79518 121.03969 120.91743
# Shear Modulus (GPa) = 22.43059 36.47958 29.45509
#
# Velocity S-wave (km/s) = 3.21593 4.10120 3.68524
# Velocity P-wave (km/s) = 8.33578 8.84504 8.59418
#
# Compressibility (1/GPa) = 0.00827848
#
# Stress axis : x y z
#
# Youngs Moduli (GPa) = 98.57399 122.68280 153.34051
#
# Poissons Ratio (x) = 0.51589 0.46854
# Poissons Ratio (y) = 0.41451 0.15468
# Poissons Ratio (z) = 0.30120 0.12376
#
# Static dielectric constant tensor:
#      x y z
#    x 1.762350 0.000000 0.000000 
#    y 0.000000 1.878290 0.000000 
#    z 0.000000 0.000000 1.796760 
# 
# From -- ./inp_files/2379.got.cif
#   From: 2010.05.17/outbox.cif.g08.bks.cpg/sg66_2_cif.got.tgz:2379.got - 2010.06.03 17:51:23.
