data_PCOD9499728
_publ_section_title
;
Structure prediction by ZEFSAII (Michael W. Deem and Ramdas Pophale) SiO2 
 PCOD9499728
Probable space group: C C C M
;
_chemical_formula_sum "Si O2"
_cell_formula_units_Z 80
_cell_length_a 11.669741
_cell_length_b 14.736477
_cell_length_c 20.935446
_cell_angle_alpha 90.000000
_cell_angle_beta 90.000000
_cell_angle_gamma 90.000000
_cell_volume 3600.286859
_symmetry_space_group_name_H-M "C C C M"
_symmetry_group_IT_number 66
_symmetry_cell_setting 'orthorhombic'
loop_
_space_group_symop_operation_xyz
x,y,z
-x,-y,z
x,-y,1/2-z
-x,y,1/2-z
-x,-y,-z
x,y,-z
-x,y,1/2+z
x,-y,1/2+z
1/2+x,1/2+y,z
1/2-x,1/2-y,z
1/2+x,1/2-y,1/2-z
1/2-x,1/2+y,1/2-z
1/2-x,1/2-y,-z
1/2+x,1/2+y,-z
1/2-x,1/2+y,1/2+z
1/2+x,1/2-y,1/2+z
loop_
_atom_site_type_symbol
_atom_site_label
_atom_site_fract_x
_atom_site_fract_y
_atom_site_fract_z
Si Si1 0.058405 0.864157 0.077708
Si Si2 0.414047 0.184929 0.659021
Si Si3 0.675839 0.166634 0.698515
Si Si4 0.370772 0.032802 0.433546
Si Si5 0.824866 0.946877 0.881641
O O1 0.097350 0.774266 0.115380
O O2 0.925124 0.880296 0.096223
O O3 0.120932 0.953024 0.107514
O O4 0.070985 0.861712 0.000000
O O5 0.549728 0.161518 0.667151
O O6 0.356476 0.189130 0.728371
O O7 0.356829 0.100931 0.623847
O O8 0.750000 0.250000 0.672165
O O9 0.762047 0.082420 0.684447
O O10 0.347794 0.082482 0.500000
O O11 0.500000 0.000000 0.433254
O O12 0.284914 0.949451 0.427624
#
# Coordination Sequence:
#
# PCOD9499728 Si02
#       5
#    16  16  16  16  16
#     4  11  24  46  75 106 142 184 238 301 360 424
#     4  11  25  45  68 102 140 184 236 294 358 419
#     4  11  24  47  68  96 143 184 235 290 347 431
#     4  11  23  41  67 104 140 177 234 295 355 424
#     4  11  23  45  70 102 140 185 233 289 356 425
#
# _framework density 22.22045
#
# number of rings (size 3 to 8) (size 9 to 14) (size 15 to 20)
#    0.000    1.000    4.000    3.000    2.800    0.800 
#    0.000    3.000    0.000    0.000    0.000    0.000 
#    0.000    0.000    0.000    0.000    0.000    0.000 
#
# Total GULP energy -223071.732132 kJ/mol
# GULP energy per Si atom -5576.793303 kJ/mol
# Density = 2.216988 g / cm^3
# Si number density = 22.220450 Si / 1000 Ang^3
#
#
#
# Elastic Constant Matrix: (Units=GPa)
#
#
# Indices 1 2 3 4 5 6 
#
# 1 153.2830 28.2184 47.2377 0.0000 0.0000 0.0000
# 2 28.2184 76.3157 58.6542 0.0000 0.0000 0.0000
# 3 47.2377 58.6542 97.1970 0.0000 0.0000 0.0000
# 4 0.0000 0.0000 0.0000 32.6204 0.0000 0.0000
# 5 0.0000 0.0000 0.0000 0.0000 -56.8049 0.0000
# 6 0.0000 0.0000 0.0000 0.0000 0.0000 38.8513
#
#
#
# Elastic Compliance Matrix: (Units=1/GPa)
#
#
# Indices 1 2 3 4 5 6 
#
# 1 0.007673 0.000054 -0.003762 0.000000 0.000000 0.000000
# 2 0.000054 0.024438 -0.014774 0.000000 0.000000 0.000000
# 3 -0.003762 -0.014774 0.021032 0.000000 0.000000 0.000000
# 4 0.000000 0.000000 0.000000 0.030656 0.000000 0.000000
# 5 0.000000 0.000000 0.000000 0.000000 -0.017604 0.000000
# 6 0.000000 0.000000 0.000000 0.000000 0.000000 0.025739
#
#
# Mechanical properties :
#
#
# Convention : Reuss Voigt Hill
#
# Bulk Modulus (GPa) = 61.80318 66.11292 63.95805
# Shear Modulus (GPa) = 37.23289 15.77906 26.50597
#
# Velocity S-wave (km/s) = 4.09787 2.66769 3.45753
# Velocity P-wave (km/s) = 7.08971 6.26949 6.69218
#
# Compressibility (1/GPa) = 0.01618040
#
# Stress axis : x y z
#
# Youngs Moduli (GPa) = 130.32345 40.91974 47.54710
#
# Poissons Ratio (x) = -0.00221 0.17886
# Poissons Ratio (y) = -0.00703 0.70244
# Poissons Ratio (z) = 0.49024 0.60453
#
# Static dielectric constant tensor:
#      x y z
#    x 1.873290 0.000000 0.000000 
#    y 0.000000 1.825580 0.000000 
#    z 0.000000 0.000000 1.853110 
# 
# From -- ./inp_files/56552.got.cif
#   From: 2010.05.17/outbox.cif.g08.bks.cpg/sg66_29_cif.got.tgz:56552.got - 2010.06.03 17:51:23.
