data_PCOD9499588
_publ_section_title
;
Structure prediction by ZEFSAII (Michael W. Deem and Ramdas Pophale) SiO2 
 PCOD9499588
Probable space group: C C C M
;
_chemical_formula_sum "Si O2"
_cell_formula_units_Z 80
_cell_length_a 9.099438
_cell_length_b 15.926530
_cell_length_c 27.696403
_cell_angle_alpha 90.000000
_cell_angle_beta 90.000000
_cell_angle_gamma 90.000000
_cell_volume 4013.831196
_symmetry_space_group_name_H-M "C C C M"
_symmetry_group_IT_number 66
_symmetry_cell_setting 'orthorhombic'
loop_
_space_group_symop_operation_xyz
x,y,z
-x,-y,z
x,-y,1/2-z
-x,y,1/2-z
-x,-y,-z
x,y,-z
-x,y,1/2+z
x,-y,1/2+z
1/2+x,1/2+y,z
1/2-x,1/2-y,z
1/2+x,1/2-y,1/2-z
1/2-x,1/2+y,1/2-z
1/2-x,1/2-y,-z
1/2+x,1/2+y,-z
1/2-x,1/2+y,1/2+z
1/2+x,1/2-y,1/2+z
loop_
_atom_site_type_symbol
_atom_site_label
_atom_site_fract_x
_atom_site_fract_y
_atom_site_fract_z
Si Si1 0.990654 0.280757 0.555519
Si Si2 0.330961 0.494413 0.151794
Si Si3 0.187862 0.885838 0.443544
Si Si4 0.163994 0.329639 0.356027
Si Si5 0.930915 0.415056 0.696647
O O1 0.035068 0.280867 0.500000
O O2 0.932346 0.186930 0.567370
O O3 0.847301 0.340857 0.559877
O O4 0.120625 0.313057 0.588865
O O5 0.500000 0.500000 0.165875
O O6 0.320671 0.456132 0.097589
O O7 0.259241 0.586969 0.151973
O O8 0.239489 0.432512 0.187699
O O9 0.169350 0.912206 0.500000
O O10 0.250000 0.250000 0.336346
O O11 0.004477 0.339197 0.331251
O O12 0.000000 0.500000 0.673802
O O13 0.000000 0.411353 0.750000
#
# Coordination Sequence:
#
# PCOD9499588 Si02
#       5
#    16  16  16  16  16
#     4   9  18  34  57  85 122 164 203 245 295 348
#     4  11  22  38  62  92 119 159 204 246 302 365
#     4   9  18  34  57  89 124 162 204 246 296 352
#     4  11  22  38  58  87 120 155 203 249 298 360
#     4   9  20  42  65  84 115 156 193 250 314 365
#
# _framework density 19.931080999999999
#
# number of rings (size 3 to 8) (size 9 to 14) (size 15 to 20)
#    0.000    2.200    2.000    2.400    0.000    1.600 
#    0.000   14.000    0.000    0.000    0.000    0.000 
#    0.000    0.000    0.000    0.000    0.000    0.000 
#
# Total GULP energy -222950.427991 kJ/mol
# GULP energy per Si atom -5573.760700 kJ/mol
# Density = 1.988572 g / cm^3
# Si number density = 19.931081 Si / 1000 Ang^3
#
#
#
# Elastic Constant Matrix: (Units=GPa)
#
#
# Indices 1 2 3 4 5 6 
#
# 1 127.8161 45.9371 45.9931 0.0000 0.0000 0.0000
# 2 45.9371 83.1184 34.3539 0.0000 0.0000 0.0000
# 3 45.9931 34.3539 65.6825 0.0000 0.0000 0.0000
# 4 0.0000 0.0000 0.0000 1.5912 0.0000 0.0000
# 5 0.0000 0.0000 0.0000 0.0000 11.8665 0.0000
# 6 0.0000 0.0000 0.0000 0.0000 0.0000 24.6470
#
#
#
# Elastic Compliance Matrix: (Units=1/GPa)
#
#
# Indices 1 2 3 4 5 6 
#
# 1 0.011330 -0.003805 -0.005943 0.000000 0.000000 0.000000
# 2 -0.003805 0.016627 -0.006032 0.000000 0.000000 0.000000
# 3 -0.005943 -0.006032 0.022541 0.000000 0.000000 0.000000
# 4 0.000000 0.000000 0.000000 0.628465 0.000000 0.000000
# 5 0.000000 0.000000 0.000000 0.000000 0.084271 0.000000
# 6 0.000000 0.000000 0.000000 0.000000 0.000000 0.040573
#
#
# Mechanical properties :
#
#
# Convention : Reuss Voigt Hill
#
# Bulk Modulus (GPa) = 52.80554 58.79835 55.80194
# Shear Modulus (GPa) = 5.94049 17.64311 11.79180
#
# Velocity S-wave (km/s) = 1.72829 2.97847 2.43498
# Velocity P-wave (km/s) = 5.52578 6.43376 5.99698
#
# Compressibility (1/GPa) = 0.01893741
#
# Stress axis : x y z
#
# Youngs Moduli (GPa) = 88.26111 60.14254 44.36283
#
# Poissons Ratio (x) = 0.22886 0.26367
# Poissons Ratio (y) = 0.33586 0.26759
# Poissons Ratio (z) = 0.52457 0.36277
#
# Static dielectric constant tensor:
#      x y z
#    x 1.745590 0.000000 0.000000 
#    y 0.000000 1.720050 0.000000 
#    z 0.000000 0.000000 1.749760 
# 
# From -- ./inp_files/62425.got.cif
#   From: 2010.05.17/outbox.cif.g08.bks.cpg/sg66_32_cif.got.tgz:62425.got - 2010.06.03 17:51:23.
