data_PCOD9499557
_publ_section_title
;
Structure prediction by ZEFSAII (Michael W. Deem and Ramdas Pophale) SiO2 
 PCOD9499557
Probable space group: C C C M
;
_chemical_formula_sum "Si O2"
_cell_formula_units_Z 68
_cell_length_a 10.245644
_cell_length_b 11.240945
_cell_length_c 28.892054
_cell_angle_alpha 90.000000
_cell_angle_beta 90.000000
_cell_angle_gamma 90.000000
_cell_volume 3327.518681
_symmetry_space_group_name_H-M "C C C M"
_symmetry_group_IT_number 66
_symmetry_cell_setting 'orthorhombic'
loop_
_space_group_symop_operation_xyz
x,y,z
-x,-y,z
x,-y,1/2-z
-x,y,1/2-z
-x,-y,-z
x,y,-z
-x,y,1/2+z
x,-y,1/2+z
1/2+x,1/2+y,z
1/2-x,1/2-y,z
1/2+x,1/2-y,1/2-z
1/2-x,1/2+y,1/2-z
1/2-x,1/2-y,-z
1/2+x,1/2+y,-z
1/2-x,1/2+y,1/2+z
1/2+x,1/2-y,1/2+z
loop_
_atom_site_type_symbol
_atom_site_label
_atom_site_fract_x
_atom_site_fract_y
_atom_site_fract_z
Si Si1 0.250201 0.111124 0.219140
Si Si2 0.462503 0.304771 0.447839
Si Si3 0.180390 0.568035 0.052253
Si Si4 0.000000 0.500000 0.750000
Si Si5 0.192824 0.120318 0.114111
O O1 0.250000 0.250000 0.235332
O O2 0.185465 0.102132 0.168982
O O3 0.197051 0.000000 0.250000
O O4 0.404208 0.078231 0.218512
O O5 0.518422 0.313072 0.500000
O O6 0.320430 0.365052 0.448972
O O7 0.429908 0.166517 0.437400
O O8 0.555233 0.371727 0.412233
O O9 0.206596 0.470415 0.090676
O O10 0.158212 0.521190 0.000000
O O11 0.250000 0.250000 0.106732
#
# Coordination Sequence:
#
# PCOD9499557 Si02
#       5
#    16  16  16   4  16
#     4   9  21  44  67  92 121 169 209 266 341 390
#     4   9  19  37  58  84 125 168 208 254 300 357
#     4   9  19  37  58  84 123 174 213 243 299 368
#     4   8  20  44  70  82 138 164 194 280 334 376
#     4  11  22  34  57  92 123 153 204 261 315 368
#
# _framework density 20.435646999999999
#
# number of rings (size 3 to 8) (size 9 to 14) (size 15 to 20)
#    0.706    1.882    0.000    2.824    0.000    8.471 
#    4.235    7.647    0.000    0.000    0.000    0.000 
#    0.000    0.000    0.000    0.000    0.000    0.000 
#
# Total GULP energy -189391.117228 kJ/mol
# GULP energy per Si atom -5570.326977 kJ/mol
# Density = 2.038913 g / cm^3
# Si number density = 20.435647 Si / 1000 Ang^3
#
#
#
# Elastic Constant Matrix: (Units=GPa)
#
#
# Indices 1 2 3 4 5 6 
#
# 1 82.9922 12.0557 35.3390 0.0000 0.0000 0.0000
# 2 12.0557 139.3253 64.1262 0.0000 0.0000 0.0000
# 3 35.3390 64.1262 74.4765 0.0000 0.0000 0.0000
# 4 0.0000 0.0000 0.0000 32.3564 0.0000 0.0000
# 5 0.0000 0.0000 0.0000 0.0000 -13.2001 0.0000
# 6 0.0000 0.0000 0.0000 0.0000 0.0000 20.3396
#
#
#
# Elastic Compliance Matrix: (Units=1/GPa)
#
#
# Indices 1 2 3 4 5 6 
#
# 1 0.016074 0.003511 -0.010650 0.000000 0.000000 0.000000
# 2 0.003511 0.012656 -0.012563 0.000000 0.000000 0.000000
# 3 -0.010650 -0.012563 0.029298 0.000000 0.000000 0.000000
# 4 0.000000 0.000000 0.000000 0.030906 0.000000 0.000000
# 5 0.000000 0.000000 0.000000 0.000000 -0.075757 0.000000
# 6 0.000000 0.000000 0.000000 0.000000 0.000000 0.049165
#
#
# Mechanical properties :
#
#
# Convention : Reuss Voigt Hill
#
# Bulk Modulus (GPa) = 53.69625 57.75954 55.72790
# Shear Modulus (GPa) = 46.31564 20.25071 33.28317
#
# Velocity S-wave (km/s) = 4.76585 3.15135 4.04007
# Velocity P-wave (km/s) = 7.52445 6.44723 7.00657
#
# Compressibility (1/GPa) = 0.01862327
#
# Stress axis : x y z
#
# Youngs Moduli (GPa) = 62.21099 79.01413 34.13228
#
# Poissons Ratio (x) = -0.27742 0.36352
# Poissons Ratio (y) = -0.21843 0.42881
# Poissons Ratio (z) = 0.66257 0.99266
#
# Static dielectric constant tensor:
#      x y z
#    x 1.777450 0.000000 0.000000 
#    y 0.000000 1.787880 0.000000 
#    z 0.000000 0.000000 1.732500 
# 
# From -- ./inp_files/63369.got.cif
#   From: 2010.05.17/outbox.cif.g08.bks.cpg/sg66_32_cif.got.tgz:63369.got - 2010.06.03 17:51:23.
