data_PCOD9499023
_publ_section_title
;
Structure prediction by ZEFSAII (Michael W. Deem and Ramdas Pophale) SiO2 
 PCOD9499023
Probable space group: C C C M
;
_chemical_formula_sum "Si O2"
_cell_formula_units_Z 64
_cell_length_a 7.319339
_cell_length_b 15.724380
_cell_length_c 24.357629
_cell_angle_alpha 90.000000
_cell_angle_beta 90.000000
_cell_angle_gamma 90.000000
_cell_volume 2803.369888
_symmetry_space_group_name_H-M "C C C M"
_symmetry_group_IT_number 66
_symmetry_cell_setting 'orthorhombic'
loop_
_space_group_symop_operation_xyz
x,y,z
-x,-y,z
x,-y,1/2-z
-x,y,1/2-z
-x,-y,-z
x,y,-z
-x,y,1/2+z
x,-y,1/2+z
1/2+x,1/2+y,z
1/2-x,1/2-y,z
1/2+x,1/2-y,1/2-z
1/2-x,1/2+y,1/2-z
1/2-x,1/2-y,-z
1/2+x,1/2+y,-z
1/2-x,1/2+y,1/2+z
1/2+x,1/2-y,1/2+z
loop_
_atom_site_type_symbol
_atom_site_label
_atom_site_fract_x
_atom_site_fract_y
_atom_site_fract_z
Si Si1 0.218850 0.978124 0.366172
Si Si2 0.710065 0.154084 0.730206
Si Si3 0.642336 0.338297 0.438005
Si Si4 0.179725 0.154760 0.349744
O O1 0.266481 0.919850 0.314159
O O2 0.255467 0.921422 0.419679
O O3 0.300610 0.073055 0.367406
O O4 0.000000 0.000000 0.362027
O O5 0.500000 0.153754 0.750000
O O6 0.750000 0.250000 0.708501
O O7 0.835236 0.139924 0.784197
O O8 0.571966 0.348183 0.500000
O O9 0.750000 0.250000 0.435208
O O10 0.487787 0.338526 0.391672
O O11 0.250000 0.250000 0.352017
#
# Coordination Sequence:
#
# PCOD9499023 Si02
#       4
#    16  16  16  16
#     4  10  23  40  70  96 132 174 223 271 334 409
#     4  11  26  42  68 102 140 179 220 279 338 410
#     4  10  23  44  69  95 127 175 230 283 337 398
#     4  10  24  41  62  98 133 172 219 271 339 399
#
# _framework density 22.829666
#
# number of rings (size 3 to 8) (size 9 to 14) (size 15 to 20)
#    0.000    1.750    0.000    1.500   21.000   10.000 
#    0.000    0.000    0.000    3.000    0.000    0.000 
#    0.000    0.000    0.000    0.000    0.000    0.000 
#
# Total GULP energy -178567.393438 kJ/mol
# GULP energy per Si atom -5580.231045 kJ/mol
# Density = 2.277771 g / cm^3
# Si number density = 22.829666 Si / 1000 Ang^3
#
#
#
# Elastic Constant Matrix: (Units=GPa)
#
#
# Indices 1 2 3 4 5 6 
#
# 1 58.1501 19.3115 55.2332 0.0000 0.0000 0.0000
# 2 19.3115 180.7675 49.6912 0.0000 0.0000 0.0000
# 3 55.2332 49.6912 133.1044 0.0000 0.0000 0.0000
# 4 0.0000 0.0000 0.0000 -15.9166 0.0000 0.0000
# 5 0.0000 0.0000 0.0000 0.0000 13.8008 0.0000
# 6 0.0000 0.0000 0.0000 0.0000 0.0000 18.7795
#
#
#
# Elastic Compliance Matrix: (Units=1/GPa)
#
#
# Indices 1 2 3 4 5 6 
#
# 1 0.028393 0.000229 -0.011868 0.000000 0.000000 0.000000
# 2 0.000229 0.006166 -0.002397 0.000000 0.000000 0.000000
# 3 -0.011868 -0.002397 0.013332 0.000000 0.000000 0.000000
# 4 0.000000 0.000000 0.000000 -0.062828 0.000000 0.000000
# 5 0.000000 0.000000 0.000000 0.000000 0.072460 0.000000
# 6 0.000000 0.000000 0.000000 0.000000 0.000000 0.053250
#
#
# Mechanical properties :
#
#
# Convention : Reuss Voigt Hill
#
# Bulk Modulus (GPa) = 50.45249 68.94373 59.69811
# Shear Modulus (GPa) = 34.37565 19.85180 27.11373
#
# Velocity S-wave (km/s) = 3.88460 2.95203 3.44997
# Velocity P-wave (km/s) = 6.50136 6.47179 6.48659
#
# Compressibility (1/GPa) = 0.01982063
#
# Stress axis : x y z
#
# Youngs Moduli (GPa) = 35.21989 162.16792 75.00549
#
# Poissons Ratio (x) = -0.03714 0.89013
# Poissons Ratio (y) = -0.00807 0.17980
# Poissons Ratio (z) = 0.41797 0.38874
#
# Static dielectric constant tensor:
#      x y z
#    x 2.054210 0.000000 0.000000 
#    y 0.000000 2.033090 0.000000 
#    z 0.000000 0.000000 1.798730 
# 
# From -- ./inp_files/54942.got.cif
#   From: 2010.05.17/outbox.cif.g08.bks.cpg/sg66_28_cif.got.tgz:54942.got - 2010.06.03 17:51:23.
