data_PCOD9499336
_publ_section_title
;
Structure prediction by ZEFSAII (Michael W. Deem and Ramdas Pophale) SiO2 
 PCOD9499336
Probable space group: C C C M
;
_chemical_formula_sum "Si O2"
_cell_formula_units_Z 116
_cell_length_a 11.210815
_cell_length_b 17.321815
_cell_length_c 31.958464
_cell_angle_alpha 90.000000
_cell_angle_beta 90.000000
_cell_angle_gamma 90.000000
_cell_volume 6206.067285
_symmetry_space_group_name_H-M "C C C M"
_symmetry_group_IT_number 66
_symmetry_cell_setting 'orthorhombic'
loop_
_space_group_symop_operation_xyz
x,y,z
-x,-y,z
x,-y,1/2-z
-x,y,1/2-z
-x,-y,-z
x,y,-z
-x,y,1/2+z
x,-y,1/2+z
1/2+x,1/2+y,z
1/2-x,1/2-y,z
1/2+x,1/2-y,1/2-z
1/2-x,1/2+y,1/2-z
1/2-x,1/2-y,-z
1/2+x,1/2+y,-z
1/2-x,1/2+y,1/2+z
1/2+x,1/2-y,1/2+z
loop_
_atom_site_type_symbol
_atom_site_label
_atom_site_fract_x
_atom_site_fract_y
_atom_site_fract_z
Si Si1 0.174991 0.672097 0.222661
Si Si2 0.000000 0.000000 0.750000
Si Si3 0.801239 0.996375 0.952672
Si Si4 0.559330 0.311898 0.631377
Si Si5 0.759506 0.559537 0.131116
Si Si6 0.090163 0.659397 0.313990
Si Si7 0.635047 0.420482 0.176794
Si Si8 0.515610 0.630483 0.547358
O O1 0.250000 0.750000 0.216737
O O2 0.174938 0.658254 0.272795
O O3 0.241793 0.614181 0.192127
O O4 0.040324 0.668229 0.206358
O O5 0.924914 0.052919 0.780414
O O6 0.714287 0.970891 0.915516
O O7 0.908097 0.932619 0.951569
O O8 0.866089 0.078727 0.944662
O O9 0.753398 0.996860 0.000000
O O10 0.677949 0.363874 0.630410
O O11 0.591669 0.233533 0.655283
O O12 0.454946 0.360655 0.654885
O O13 0.511652 0.308207 0.583601
O O14 0.871930 0.584031 0.159352
O O15 0.669716 0.494892 0.149683
O O16 0.521443 0.661238 0.500000
#
# Coordination Sequence:
#
# PCOD9499336 Si02
#       8
#    16   4  16  16  16  16  16  16
#     4  11  24  41  57  77 108 152 199 236 286 352
#     4  12  24  32  56  94 110 132 178 256 290 312
#     4   8  14  26  49  81 118 149 178 228 291 352
#     4  11  19  35  57  86 115 149 191 237 286 343
#     4  11  20  36  55  87 119 146 189 237 292 341
#     4  11  25  39  56  78 113 158 192 239 291 346
#     4  12  23  36  58  84 111 148 191 241 286 339
#     4   8  14  26  49  83 117 146 180 231 290 347
#
# _framework density 18.691386000000001
#
# number of rings (size 3 to 8) (size 9 to 14) (size 15 to 20)
#    0.000    1.655    4.138    2.897    1.931    0.552 
#    0.000    2.069    0.000    3.310    0.000    5.793 
#    0.000    0.000    0.000    0.000    0.000    0.000 
#
# Total GULP energy -323076.564889 kJ/mol
# GULP energy per Si atom -5570.285602 kJ/mol
# Density = 1.864884 g / cm^3
# Si number density = 18.691386 Si / 1000 Ang^3
#
#
#
# Elastic Constant Matrix: (Units=GPa)
#
#
# Indices 1 2 3 4 5 6 
#
# 1 44.3001 3.2645 17.9177 0.0000 0.0000 0.0000
# 2 3.2645 22.7407 18.0954 0.0000 0.0000 0.0000
# 3 17.9177 18.0954 123.4911 0.0000 0.0000 0.0000
# 4 0.0000 0.0000 0.0000 29.2036 0.0000 0.0000
# 5 0.0000 0.0000 0.0000 0.0000 18.1049 0.0000
# 6 0.0000 0.0000 0.0000 0.0000 0.0000 24.2166
#
#
#
# Elastic Compliance Matrix: (Units=1/GPa)
#
#
# Indices 1 2 3 4 5 6 
#
# 1 0.023992 -0.000763 -0.003369 0.000000 0.000000 0.000000
# 2 -0.000763 0.049802 -0.007187 0.000000 0.000000 0.000000
# 3 -0.003369 -0.007187 0.009640 0.000000 0.000000 0.000000
# 4 0.000000 0.000000 0.000000 0.034242 0.000000 0.000000
# 5 0.000000 0.000000 0.000000 0.000000 0.055234 0.000000
# 6 0.000000 0.000000 0.000000 0.000000 0.000000 0.041294
#
#
# Mechanical properties :
#
#
# Convention : Reuss Voigt Hill
#
# Bulk Modulus (GPa) = 16.44852 29.89856 23.17354
# Shear Modulus (GPa) = 19.44707 24.38865 21.91786
#
# Velocity S-wave (km/s) = 3.22907 3.61613 3.42807
# Velocity P-wave (km/s) = 4.76672 5.78497 5.30035
#
# Compressibility (1/GPa) = 0.06079574
#
# Stress axis : x y z
#
# Youngs Moduli (GPa) = 41.68004 20.07938 103.73739
#
# Poissons Ratio (x) = 0.01532 0.34952
# Poissons Ratio (y) = 0.03181 0.74555
# Poissons Ratio (z) = 0.14043 0.14431
#
# Static dielectric constant tensor:
#      x y z
#    x 1.641890 0.000000 0.000000 
#    y 0.000000 1.392740 0.000000 
#    z 0.000000 0.000000 1.692830 
# 
# From -- ./inp_files/69201.got.cif
#   From: 2010.05.17/outbox.cif.g08.bks.cpg/sg66_35_cif.got.tgz:69201.got - 2010.06.03 17:51:23.
