data_PCOD9499083
_publ_section_title
;
Structure prediction by ZEFSAII (Michael W. Deem and Ramdas Pophale) SiO2 
 PCOD9499083
Probable space group: C C C M
;
_chemical_formula_sum "Si O2"
_cell_formula_units_Z 96
_cell_length_a 20.622191
_cell_length_b 15.997426
_cell_length_c 13.837229
_cell_angle_alpha 90.000000
_cell_angle_beta 90.000000
_cell_angle_gamma 90.000000
_cell_volume 4564.929168
_symmetry_space_group_name_H-M "C C C M"
_symmetry_group_IT_number 66
_symmetry_cell_setting 'orthorhombic'
loop_
_space_group_symop_operation_xyz
x,y,z
-x,-y,z
x,-y,1/2-z
-x,y,1/2-z
-x,-y,-z
x,y,-z
-x,y,1/2+z
x,-y,1/2+z
1/2+x,1/2+y,z
1/2-x,1/2-y,z
1/2+x,1/2-y,1/2-z
1/2-x,1/2+y,1/2-z
1/2-x,1/2-y,-z
1/2+x,1/2+y,-z
1/2-x,1/2+y,1/2+z
1/2+x,1/2-y,1/2+z
loop_
_atom_site_type_symbol
_atom_site_label
_atom_site_fract_x
_atom_site_fract_y
_atom_site_fract_z
Si Si1 0.295793 0.084851 0.790263
Si Si2 0.750000 0.750000 0.311992
Si Si3 0.411049 0.220062 0.000000
Si Si4 0.066860 0.339791 0.780258
Si Si5 0.073201 0.978365 0.861501
Si Si6 0.865595 0.103553 0.500000
Si Si7 0.391712 0.284101 0.610495
Si Si8 0.218404 0.622230 0.500000
O O1 0.259548 0.168524 0.755686
O O2 0.370441 0.102901 0.763408
O O3 0.294798 0.072665 0.903794
O O4 0.267820 0.000000 0.750000
O O5 0.685032 0.734066 0.373619
O O6 0.434896 0.187383 0.894222
O O7 0.415572 0.319912 0.000000
O O8 0.335064 0.194328 0.000000
O O9 0.075441 0.263462 0.702327
O O10 0.000000 0.381722 0.750000
O O11 0.122196 0.042528 0.911107
O O12 0.074878 0.000000 0.750000
O O13 0.091744 0.882424 0.881207
O O14 0.000000 0.000000 0.894885
O O15 0.794042 0.140718 0.500000
O O16 0.409991 0.257224 0.500000
#
# Coordination Sequence:
#
# PCOD9499083 Si02
#       8
#    16   8   8  16  16   8  16   8
#     4  10  24  45  67 100 138 168 223 281 329 401
#     4  10  25  43  70  96 134 181 220 275 342 402
#     4  10  23  43  64  94 135 163 232 285 324 397
#     4  10  24  42  69  96 123 180 218 272 338 393
#     4  11  26  40  56  92 133 176 225 272 335 406
#     4  12  24  36  64  92 120 181 217 272 336 388
#     4  11  24  42  63  94 135 175 223 278 335 412
#     4  10  25  39  66  98 127 174 220 276 337 389
#
# _framework density 21.029899
#
# number of rings (size 3 to 8) (size 9 to 14) (size 15 to 20)
#    0.000    1.500    0.833    1.750   17.500    0.333 
#    6.000    0.000    0.000    3.000    0.000    0.000 
#    0.000    0.000    0.000    0.000    0.000    0.000 
#
# Total GULP energy -267828.569460 kJ/mol
# GULP energy per Si atom -5579.761864 kJ/mol
# Density = 2.098203 g / cm^3
# Si number density = 21.029899 Si / 1000 Ang^3
#
#
#
# Elastic Constant Matrix: (Units=GPa)
#
#
# Indices 1 2 3 4 5 6 
#
# 1 75.3781 -1.4677 24.8448 0.0000 0.0000 0.0000
# 2 -1.4677 95.8919 38.3532 0.0000 0.0000 0.0000
# 3 24.8448 38.3532 153.1577 0.0000 0.0000 0.0000
# 4 0.0000 0.0000 0.0000 7.7096 0.0000 0.0000
# 5 0.0000 0.0000 0.0000 0.0000 18.0126 0.0000
# 6 0.0000 0.0000 0.0000 0.0000 0.0000 1.8452
#
#
#
# Elastic Compliance Matrix: (Units=1/GPa)
#
#
# Indices 1 2 3 4 5 6 
#
# 1 0.014152 0.001261 -0.002611 0.000000 0.000000 0.000000
# 2 0.001261 0.011702 -0.003135 0.000000 0.000000 0.000000
# 3 -0.002611 -0.003135 0.007738 0.000000 0.000000 0.000000
# 4 0.000000 0.000000 0.000000 0.129708 0.000000 0.000000
# 5 0.000000 0.000000 0.000000 0.000000 0.055517 0.000000
# 6 0.000000 0.000000 0.000000 0.000000 0.000000 0.541933
#
#
# Mechanical properties :
#
#
# Convention : Reuss Voigt Hill
#
# Bulk Modulus (GPa) = 40.61614 49.76536 45.19075
# Shear Modulus (GPa) = 6.42735 23.02666 14.72700
#
# Velocity S-wave (km/s) = 1.75012 3.31259 2.64917
# Velocity P-wave (km/s) = 4.84142 6.19245 5.55814
#
# Compressibility (1/GPa) = 0.02462075
#
# Stress axis : x y z
#
# Youngs Moduli (GPa) = 70.66266 85.45894 129.23484
#
# Poissons Ratio (x) = -0.10777 0.33749
# Poissons Ratio (y) = -0.08911 0.40513
# Poissons Ratio (z) = 0.18453 0.26790
#
# Static dielectric constant tensor:
#      x y z
#    x 1.799710 0.000000 0.000000 
#    y 0.000000 1.804700 0.000000 
#    z 0.000000 0.000000 1.777830 
# 
# From -- ./inp_files/31277.got.cif
#   From: 2010.05.17/outbox.cif.g08.bks.cpg/sg66_16_cif.got.tgz:31277.got - 2010.06.03 17:51:23.
