data_PCOD9499443
_publ_section_title
;
Structure prediction by ZEFSAII (Michael W. Deem and Ramdas Pophale) SiO2 
 PCOD9499443
Probable space group: C C C M
;
_chemical_formula_sum "Si O2"
_cell_formula_units_Z 64
_cell_length_a 26.600642
_cell_length_b 5.148566
_cell_length_c 28.552406
_cell_angle_alpha 90.000000
_cell_angle_beta 90.000000
_cell_angle_gamma 90.000000
_cell_volume 3910.399360
_symmetry_space_group_name_H-M "C C C M"
_symmetry_group_IT_number 66
_symmetry_cell_setting 'orthorhombic'
loop_
_space_group_symop_operation_xyz
x,y,z
-x,-y,z
x,-y,1/2-z
-x,y,1/2-z
-x,-y,-z
x,y,-z
-x,y,1/2+z
x,-y,1/2+z
1/2+x,1/2+y,z
1/2-x,1/2-y,z
1/2+x,1/2-y,1/2-z
1/2-x,1/2+y,1/2-z
1/2-x,1/2-y,-z
1/2+x,1/2+y,-z
1/2-x,1/2+y,1/2+z
1/2+x,1/2-y,1/2+z
loop_
_atom_site_type_symbol
_atom_site_label
_atom_site_fract_x
_atom_site_fract_y
_atom_site_fract_z
Si Si1 0.645334 0.652196 0.944322
Si Si2 0.969196 0.747920 0.943056
Si Si3 0.807225 0.355622 0.098743
Si Si4 0.713932 0.998429 0.300834
O O1 0.589174 0.739651 0.930055
O O2 0.659881 0.387987 0.917909
O O3 0.682333 0.890824 0.932520
O O4 0.646009 0.600854 0.000000
O O5 0.000000 0.500000 0.926277
O O6 0.969507 0.741809 0.000000
O O7 0.000000 0.000000 0.928276
O O8 0.750000 0.250000 0.096043
O O9 0.817064 0.450597 0.152007
O O10 0.750000 0.250000 0.307083
O O11 0.687369 0.000000 0.250000
O O12 0.750000 0.750000 0.297433
#
# Coordination Sequence:
#
# PCOD9499443 Si02
#       4
#    16  16  16  16
#     4  11  22  33  47  69  98 133 168 196 228 281
#     4   9  17  31  49  66  86 116 158 208 250 272
#     4  11  21  33  47  68 100 134 164 193 227 278
#     4   9  17  31  50  68  88 120 161 204 245 274
#
# _framework density 16.366614999999999
#
# number of rings (size 3 to 8) (size 9 to 14) (size 15 to 20)
#    0.000    2.000    0.000    6.000    0.000    7.000 
#    0.000    0.000    0.000    0.000    0.000    0.000 
#    0.000   15.000    0.000    0.250    0.000    0.000 
#
# Total GULP energy -178319.685993 kJ/mol
# GULP energy per Si atom -5572.490187 kJ/mol
# Density = 1.632936 g / cm^3
# Si number density = 16.366615 Si / 1000 Ang^3
#
#
#
# Elastic Constant Matrix: (Units=GPa)
#
#
# Indices 1 2 3 4 5 6 
#
# 1 55.7893 28.2438 40.4360 0.0000 0.0000 0.0000
# 2 28.2438 136.9228 40.6543 0.0000 0.0000 0.0000
# 3 40.4360 40.6543 88.9522 0.0000 0.0000 0.0000
# 4 0.0000 0.0000 0.0000 17.0988 0.0000 0.0000
# 5 0.0000 0.0000 0.0000 0.0000 -4.5408 0.0000
# 6 0.0000 0.0000 0.0000 0.0000 0.0000 24.6995
#
#
#
# Elastic Compliance Matrix: (Units=1/GPa)
#
#
# Indices 1 2 3 4 5 6 
#
# 1 0.027321 -0.002254 -0.011389 0.000000 0.000000 0.000000
# 2 -0.002254 0.008636 -0.002922 0.000000 0.000000 0.000000
# 3 -0.011389 -0.002922 0.017755 0.000000 0.000000 0.000000
# 4 0.000000 0.000000 0.000000 0.058484 0.000000 0.000000
# 5 0.000000 0.000000 0.000000 0.000000 -0.220227 0.000000
# 6 0.000000 0.000000 0.000000 0.000000 0.000000 0.040487
#
#
# Mechanical properties :
#
#
# Convention : Reuss Voigt Hill
#
# Bulk Modulus (GPa) = 48.58995 55.59252 52.09123
# Shear Modulus (GPa) = -181.45990 18.94019 -81.25985
#
# Velocity S-wave (km/s) = -10.54100 3.40552 -7.05390
# Velocity P-wave (km/s) = 10.88105 7.03592 5.86912
#
# Compressibility (1/GPa) = 0.02058039
#
# Stress axis : x y z
#
# Youngs Moduli (GPa) = 36.60240 115.79427 56.32222
#
# Poissons Ratio (x) = 0.26099 0.64147
# Poissons Ratio (y) = 0.08250 0.16459
# Poissons Ratio (z) = 0.41688 0.33839
#
# Static dielectric constant tensor:
#      x y z
#    x 1.540090 0.000000 0.000000 
#    y 0.000000 1.544730 0.000000 
#    z 0.000000 0.000000 1.594620 
# 
# From -- ./inp_files/59721.got.cif
#   From: 2010.05.17/outbox.cif.g08.bks.cpg/sg66_30_cif.got.tgz:59721.got - 2010.06.03 17:51:23.
