data_PCOD9499315
_publ_section_title
;
Structure prediction by ZEFSAII (Michael W. Deem and Ramdas Pophale) SiO2 
 PCOD9499315
Probable space group: C C C M
;
_chemical_formula_sum "Si O2"
_cell_formula_units_Z 80
_cell_length_a 19.099508
_cell_length_b 11.895915
_cell_length_c 20.120306
_cell_angle_alpha 90.000000
_cell_angle_beta 90.000000
_cell_angle_gamma 90.000000
_cell_volume 4571.456734
_symmetry_space_group_name_H-M "C C C M"
_symmetry_group_IT_number 66
_symmetry_cell_setting 'orthorhombic'
loop_
_space_group_symop_operation_xyz
x,y,z
-x,-y,z
x,-y,1/2-z
-x,y,1/2-z
-x,-y,-z
x,y,-z
-x,y,1/2+z
x,-y,1/2+z
1/2+x,1/2+y,z
1/2-x,1/2-y,z
1/2+x,1/2-y,1/2-z
1/2-x,1/2+y,1/2-z
1/2-x,1/2-y,-z
1/2+x,1/2+y,-z
1/2-x,1/2+y,1/2+z
1/2+x,1/2-y,1/2+z
loop_
_atom_site_type_symbol
_atom_site_label
_atom_site_fract_x
_atom_site_fract_y
_atom_site_fract_z
Si Si1 0.193306 0.151045 0.870053
Si Si2 0.261551 0.930965 0.079477
Si Si3 0.416628 0.636206 0.250898
Si Si4 0.446062 0.659383 0.000000
Si Si5 0.639327 0.742307 0.384550
Si Si6 0.394037 0.403111 0.000000
O O1 0.250000 0.250000 0.868750
O O2 0.135501 0.163438 0.812069
O O3 0.147834 0.140262 0.936786
O O4 0.238417 0.035799 0.875317
O O5 0.329016 0.866648 0.108683
O O6 0.199238 0.840673 0.087044
O O7 0.269844 0.957477 0.000000
O O8 0.415176 0.500000 0.250000
O O9 0.500000 0.666496 0.250000
O O10 0.382666 0.695950 0.186881
O O11 0.424215 0.726063 0.934761
O O12 0.405975 0.538380 0.000000
O O13 0.527679 0.640188 0.000000
#
# Coordination Sequence:
#
# PCOD9499315 Si02
#       6
#    16  16  16   8  16   8
#     4  12  24  38  59  87 126 160 198 248 309 363
#     4  11  20  36  60  90 119 152 203 248 299 352
#     4  11  23  39  59  89 124 156 196 252 310 367
#     4  11  18  34  62  85 113 152 196 257 306 339
#     4  11  19  35  59  86 119 147 197 253 293 359
#     4  11  21  35  55  86 118 153 198 245 304 366
#
# _framework density 17.499891999999999
#
# number of rings (size 3 to 8) (size 9 to 14) (size 15 to 20)
#    0.000    0.800    7.000    2.100    2.800    3.200 
#    0.000    0.000    0.000    7.200    0.000    0.000 
#    0.000    0.000    0.000    0.000    0.000    0.000 
#
# Total GULP energy -222937.396130 kJ/mol
# GULP energy per Si atom -5573.434903 kJ/mol
# Density = 1.746006 g / cm^3
# Si number density = 17.499892 Si / 1000 Ang^3
#
#
#
# Elastic Constant Matrix: (Units=GPa)
#
#
# Indices 1 2 3 4 5 6 
#
# 1 143.8996 62.9741 75.2308 0.0000 0.0000 0.0000
# 2 62.9741 78.1206 38.7545 0.0000 0.0000 0.0000
# 3 75.2308 38.7545 153.5504 0.0000 0.0000 0.0000
# 4 0.0000 0.0000 0.0000 24.2359 0.0000 0.0000
# 5 0.0000 0.0000 0.0000 0.0000 37.7096 0.0000
# 6 0.0000 0.0000 0.0000 0.0000 0.0000 34.0691
#
#
#
# Elastic Compliance Matrix: (Units=1/GPa)
#
#
# Indices 1 2 3 4 5 6 
#
# 1 0.012702 -0.008176 -0.004160 0.000000 0.000000 0.000000
# 2 -0.008176 0.019895 -0.001016 0.000000 0.000000 0.000000
# 3 -0.004160 -0.001016 0.008807 0.000000 0.000000 0.000000
# 4 0.000000 0.000000 0.000000 0.041261 0.000000 0.000000
# 5 0.000000 0.000000 0.000000 0.000000 0.026518 0.000000
# 6 0.000000 0.000000 0.000000 0.000000 0.000000 0.029352
#
#
# Mechanical properties :
#
#
# Convention : Reuss Voigt Hill
#
# Bulk Modulus (GPa) = 68.01926 81.05439 74.53682
# Shear Modulus (GPa) = 29.38789 32.44366 30.91577
#
# Velocity S-wave (km/s) = 4.10239 4.31041 4.20769
# Velocity P-wave (km/s) = 7.83532 8.43744 8.14195
#
# Compressibility (1/GPa) = 0.01470172
#
# Stress axis : x y z
#
# Youngs Moduli (GPa) = 78.72883 50.26374 113.54708
#
# Poissons Ratio (x) = 0.41093 0.47233
# Poissons Ratio (y) = 0.64365 0.11534
# Poissons Ratio (z) = 0.32749 0.05106
#
# Static dielectric constant tensor:
#      x y z
#    x 1.601460 0.000000 0.000000 
#    y 0.000000 1.615670 0.000000 
#    z 0.000000 0.000000 1.644010 
# 
# From -- ./inp_files/38586.got.cif
#   From: 2010.05.17/outbox.cif.g08.bks.cpg/sg66_20_cif.got.tgz:38586.got - 2010.06.03 17:51:23.
