data_PCOD9499162
_publ_section_title
;
Structure prediction by ZEFSAII (Michael W. Deem and Ramdas Pophale) SiO2 
 PCOD9499162
Probable space group: C C C M
;
_chemical_formula_sum "Si O2"
_cell_formula_units_Z 52
_cell_length_a 9.255459
_cell_length_b 20.012457
_cell_length_c 14.832392
_cell_angle_alpha 90.000000
_cell_angle_beta 90.000000
_cell_angle_gamma 90.000000
_cell_volume 2747.322025
_symmetry_space_group_name_H-M "C C C M"
_symmetry_group_IT_number 66
_symmetry_cell_setting 'orthorhombic'
loop_
_space_group_symop_operation_xyz
x,y,z
-x,-y,z
x,-y,1/2-z
-x,y,1/2-z
-x,-y,-z
x,y,-z
-x,y,1/2+z
x,-y,1/2+z
1/2+x,1/2+y,z
1/2-x,1/2-y,z
1/2+x,1/2-y,1/2-z
1/2-x,1/2+y,1/2-z
1/2-x,1/2-y,-z
1/2+x,1/2+y,-z
1/2-x,1/2+y,1/2+z
1/2+x,1/2-y,1/2+z
loop_
_atom_site_type_symbol
_atom_site_label
_atom_site_fract_x
_atom_site_fract_y
_atom_site_fract_z
Si Si1 0.024567 0.193166 0.000000
Si Si2 0.479123 0.921368 0.855513
Si Si3 0.349984 0.409888 0.400330
Si Si4 0.500000 0.500000 0.250000
Si Si5 0.362326 0.160324 0.000000
O O1 0.940119 0.158681 0.083992
O O2 0.191840 0.172113 0.000000
O O3 0.039654 0.272661 0.000000
O O4 0.500000 0.910322 0.750000
O O5 0.319445 0.899307 0.885283
O O6 0.595249 0.881508 0.912629
O O7 0.500000 0.000000 0.873708
O O8 0.366877 0.443601 0.500000
O O9 0.407320 0.453770 0.317664
#
# Coordination Sequence:
#
# PCOD9499162 Si02
#       5
#     8  16  16   4   8
#     4   9  25  43  63  91 128 170 217 262 331 385
#     4  11  24  39  65  98 127 167 216 269 325 386
#     4  10  24  41  63  96 130 175 207 270 328 382
#     4  12  22  36  70  98 136 164 218 272 320 390
#     4  11  22  46  63  89 128 170 213 275 318 389
#
# _framework density 18.927522
#
# number of rings (size 3 to 8) (size 9 to 14) (size 15 to 20)
#    0.923    0.615    1.538    2.769    8.615    2.462 
#    2.769    0.000    0.000    0.000    0.000    0.000 
#    0.000    0.000    0.000    0.000    0.000    0.000 
#
# Total GULP energy -145002.580781 kJ/mol
# GULP energy per Si atom -5577.022338 kJ/mol
# Density = 1.888444 g / cm^3
# Si number density = 18.927522 Si / 1000 Ang^3
#
#
#
# Elastic Constant Matrix: (Units=GPa)
#
#
# Indices 1 2 3 4 5 6 
#
# 1 76.2983 26.4712 23.4735 0.0000 0.0000 0.0000
# 2 26.4712 88.3761 60.4584 0.0000 0.0000 0.0000
# 3 23.4735 60.4584 108.8922 0.0000 0.0000 0.0000
# 4 0.0000 0.0000 0.0000 2.8178 0.0000 0.0000
# 5 0.0000 0.0000 0.0000 0.0000 38.3215 0.0000
# 6 0.0000 0.0000 0.0000 0.0000 0.0000 21.1610
#
#
#
# Elastic Compliance Matrix: (Units=1/GPa)
#
#
# Indices 1 2 3 4 5 6 
#
# 1 0.014718 -0.003609 -0.001169 0.000000 0.000000 0.000000
# 2 -0.003609 0.019130 -0.009843 0.000000 0.000000 0.000000
# 3 -0.001169 -0.009843 0.014901 0.000000 0.000000 0.000000
# 4 0.000000 0.000000 0.000000 0.354890 0.000000 0.000000
# 5 0.000000 0.000000 0.000000 0.000000 0.026095 0.000000
# 6 0.000000 0.000000 0.000000 0.000000 0.000000 0.047257
#
#
# Mechanical properties :
#
#
# Convention : Reuss Voigt Hill
#
# Bulk Modulus (GPa) = 51.26520 54.93032 53.09776
# Shear Modulus (GPa) = 9.75163 23.33763 16.54463
#
# Velocity S-wave (km/s) = 2.27228 3.51522 2.95973
# Velocity P-wave (km/s) = 5.83337 6.74982 6.30826
#
# Compressibility (1/GPa) = 0.01950641
#
# Stress axis : x y z
#
# Youngs Moduli (GPa) = 67.94327 52.27377 67.11143
#
# Poissons Ratio (x) = 0.18864 0.07846
# Poissons Ratio (y) = 0.24519 0.66060
# Poissons Ratio (z) = 0.07944 0.51455
#
# Static dielectric constant tensor:
#      x y z
#    x 1.652910 0.000000 0.000000 
#    y 0.000000 1.661570 0.000000 
#    z 0.000000 0.000000 1.641610 
# 
# From -- ./inp_files/23773.got.cif
#   From: 2010.05.17/outbox.cif.g08.bks.cpg/sg66_12_cif.got.tgz:23773.got - 2010.06.03 17:51:23.
