data_PCOD9499559
_publ_section_title
;
Structure prediction by ZEFSAII (Michael W. Deem and Ramdas Pophale) SiO2 
 PCOD9499559
Probable space group: C C C M
;
_chemical_formula_sum "Si O2"
_cell_formula_units_Z 48
_cell_length_a 7.241352
_cell_length_b 16.606098
_cell_length_c 15.861309
_cell_angle_alpha 90.000000
_cell_angle_beta 90.000000
_cell_angle_gamma 90.000000
_cell_volume 1907.331939
_symmetry_space_group_name_H-M "C C C M"
_symmetry_group_IT_number 66
_symmetry_cell_setting 'orthorhombic'
loop_
_space_group_symop_operation_xyz
x,y,z
-x,-y,z
x,-y,1/2-z
-x,y,1/2-z
-x,-y,-z
x,y,-z
-x,y,1/2+z
x,-y,1/2+z
1/2+x,1/2+y,z
1/2-x,1/2-y,z
1/2+x,1/2-y,1/2-z
1/2-x,1/2+y,1/2-z
1/2-x,1/2-y,-z
1/2+x,1/2+y,-z
1/2-x,1/2+y,1/2+z
1/2+x,1/2-y,1/2+z
loop_
_atom_site_type_symbol
_atom_site_label
_atom_site_fract_x
_atom_site_fract_y
_atom_site_fract_z
Si Si1 0.216679 0.835474 0.405227
Si Si2 0.276514 0.490010 0.599017
Si Si3 0.144819 0.165848 0.327377
O O1 0.292187 0.831049 0.500000
O O2 0.250000 0.750000 0.360996
O O3 0.287683 0.921033 0.371535
O O4 0.994732 0.835250 0.406436
O O5 0.500000 0.500000 0.602929
O O6 0.226231 0.479468 0.500000
O O7 0.231924 0.413129 0.656199
O O8 0.250000 0.250000 0.323708
O O9 0.000000 0.154696 0.250000
#
# Coordination Sequence:
#
# PCOD9499559 Si02
#       3
#    16  16  16
#     4   9  18  35  59  84 109 136 169 213 265 320
#     4   8  16  32  55  80 103 136 178 211 253 319
#     4  11  22  35  52  76 106 141 184 224 261 308
#
# _framework density 25.166042000000001
#
# number of rings (size 3 to 8) (size 9 to 14) (size 15 to 20)
#    0.000    2.667    0.000    4.000    0.000    8.667 
#    0.000    1.667    0.000    8.000    0.000    0.000 
#    0.000    0.000    0.000    0.000    0.000    0.000 
#
# Total GULP energy -133664.683623 kJ/mol
# GULP energy per Si atom -5569.361818 kJ/mol
# Density = 2.510876 g / cm^3
# Si number density = 25.166042 Si / 1000 Ang^3
#
#
#
# Elastic Constant Matrix: (Units=GPa)
#
#
# Indices 1 2 3 4 5 6 
#
# 1 54.3594 36.5248 5.9099 0.0000 0.0000 0.0000
# 2 36.5248 361.9195 75.8187 0.0000 0.0000 0.0000
# 3 5.9099 75.8187 95.2614 0.0000 0.0000 0.0000
# 4 0.0000 0.0000 0.0000 0.5865 0.0000 0.0000
# 5 0.0000 0.0000 0.0000 0.0000 -1.5924 0.0000
# 6 0.0000 0.0000 0.0000 0.0000 0.0000 29.1216
#
#
#
# Elastic Compliance Matrix: (Units=1/GPa)
#
#
# Indices 1 2 3 4 5 6 
#
# 1 0.019749 -0.002084 0.000433 0.000000 0.000000 0.000000
# 2 -0.002084 0.003536 -0.002685 0.000000 0.000000 0.000000
# 3 0.000433 -0.002685 0.012607 0.000000 0.000000 0.000000
# 4 0.000000 0.000000 0.000000 1.705045 0.000000 0.000000
# 5 0.000000 0.000000 0.000000 0.000000 -0.627964 0.000000
# 6 0.000000 0.000000 0.000000 0.000000 0.000000 0.034339
#
#
# Mechanical properties :
#
#
# Convention : Reuss Voigt Hill
#
# Bulk Modulus (GPa) = 36.73553 83.11632 59.92593
# Shear Modulus (GPa) = 4.29164 31.84225 18.06695
#
# Velocity S-wave (km/s) = 1.30730 3.56095 2.68229
# Velocity P-wave (km/s) = 4.11189 7.07149 5.78419
#
# Compressibility (1/GPa) = 0.02722160
#
# Stress axis : x y z
#
# Youngs Moduli (GPa) = 50.63509 282.82126 79.31822
#
# Poissons Ratio (x) = 0.58936 -0.03437
# Poissons Ratio (y) = 0.10552 0.21296
# Poissons Ratio (z) = -0.02194 0.75934
#
# Static dielectric constant tensor:
#      x y z
#    x 2.082090 0.000000 0.000000 
#    y 0.000000 2.196380 0.000000 
#    z 0.000000 0.000000 2.047710 
# 
# From -- ./inp_files/35615.got.cif
#   From: 2010.05.17/outbox.cif.g08.bks.cpg/sg66_18_cif.got.tgz:35615.got - 2010.06.03 17:51:23.
