data_PCOD9499380
_publ_section_title
;
Structure prediction by ZEFSAII (Michael W. Deem and Ramdas Pophale) SiO2 
 PCOD9499380
Probable space group: C C C M
;
_chemical_formula_sum "Si O2"
_cell_formula_units_Z 84
_cell_length_a 15.186291
_cell_length_b 19.081416
_cell_length_c 14.506624
_cell_angle_alpha 90.000000
_cell_angle_beta 90.000000
_cell_angle_gamma 90.000000
_cell_volume 4203.670549
_symmetry_space_group_name_H-M "C C C M"
_symmetry_group_IT_number 66
_symmetry_cell_setting 'orthorhombic'
loop_
_space_group_symop_operation_xyz
x,y,z
-x,-y,z
x,-y,1/2-z
-x,y,1/2-z
-x,-y,-z
x,y,-z
-x,y,1/2+z
x,-y,1/2+z
1/2+x,1/2+y,z
1/2-x,1/2-y,z
1/2+x,1/2-y,1/2-z
1/2-x,1/2+y,1/2-z
1/2-x,1/2-y,-z
1/2+x,1/2+y,-z
1/2-x,1/2+y,1/2+z
1/2+x,1/2-y,1/2+z
loop_
_atom_site_type_symbol
_atom_site_label
_atom_site_fract_x
_atom_site_fract_y
_atom_site_fract_z
Si Si1 0.400127 0.277450 0.242147
Si Si2 0.360426 0.118998 0.259254
Si Si3 0.283983 0.629853 0.395119
Si Si4 0.601587 0.495991 0.861126
Si Si5 0.203703 0.853582 0.104179
Si Si6 0.500000 0.000000 0.750000
O O1 0.500000 0.306094 0.250000
O O2 0.403288 0.193930 0.235985
O O3 0.341189 0.311521 0.160380
O O4 0.348417 0.297505 0.334790
O O5 0.298755 0.106910 0.168802
O O6 0.293728 0.129350 0.343555
O O7 0.428576 0.057828 0.285656
O O8 0.260773 0.650834 0.500000
O O9 0.346027 0.562169 0.398289
O O10 0.500000 0.500000 0.887408
O O11 0.607342 0.500000 0.750000
O O12 0.645659 0.424107 0.892069
O O13 0.216893 0.831548 0.000000
#
# Coordination Sequence:
#
# PCOD9499380 Si02
#       6
#    16  16  16  16  16   4
#     4  11  23  41  64  96 129 170 216 266 325 387
#     4  11  24  44  67  90 125 170 222 270 328 380
#     4  11  23  40  65  95 131 170 213 264 325 391
#     4  11  20  35  59  93 129 165 204 252 319 388
#     4  11  23  40  65  95 131 170 213 264 325 391
#     4  12  24  48  74  92 126 180 224 280 318 380
#
# _framework density 19.982536
#
# number of rings (size 3 to 8) (size 9 to 14) (size 15 to 20)
#    0.000    0.952    4.762    5.143    0.000    6.857 
#    0.000    1.905    0.000    0.000    0.000    0.000 
#    0.000    0.000    0.000    0.000    0.000    0.000 
#
# Total GULP energy -234456.620998 kJ/mol
# GULP energy per Si atom -5582.300500 kJ/mol
# Density = 1.993706 g / cm^3
# Si number density = 19.982536 Si / 1000 Ang^3
#
#
#
# Elastic Constant Matrix: (Units=GPa)
#
#
# Indices 1 2 3 4 5 6 
#
# 1 121.2616 18.1105 36.9207 0.0000 0.0000 0.0000
# 2 18.1105 103.0351 1.7782 0.0000 0.0000 0.0000
# 3 36.9207 1.7782 156.0663 0.0000 0.0000 0.0000
# 4 0.0000 0.0000 0.0000 99.7512 0.0000 0.0000
# 5 0.0000 0.0000 0.0000 0.0000 -7.3321 0.0000
# 6 0.0000 0.0000 0.0000 0.0000 0.0000 39.5787
#
#
#
# Elastic Compliance Matrix: (Units=1/GPa)
#
#
# Indices 1 2 3 4 5 6 
#
# 1 0.009133 -0.001568 -0.002143 0.000000 0.000000 0.000000
# 2 -0.001568 0.009977 0.000257 0.000000 0.000000 0.000000
# 3 -0.002143 0.000257 0.006912 0.000000 0.000000 0.000000
# 4 0.000000 0.000000 0.000000 0.010025 0.000000 0.000000
# 5 0.000000 0.000000 0.000000 0.000000 -0.136388 0.000000
# 6 0.000000 0.000000 0.000000 0.000000 0.000000 0.025266
#
#
# Mechanical properties :
#
#
# Convention : Reuss Voigt Hill
#
# Bulk Modulus (GPa) = 52.31812 54.88688 53.60250
# Shear Modulus (GPa) = -80.91130 47.96982 -16.47074
#
# Velocity S-wave (km/s) = -6.37016 4.90489 -2.87410
# Velocity P-wave (km/s) = 5.27887 7.72039 3.98359
#
# Compressibility (1/GPa) = 0.01911384
#
# Stress axis : x y z
#
# Youngs Moduli (GPa) = 109.48959 100.23395 144.68596
#
# Poissons Ratio (x) = 0.15721 0.31003
# Poissons Ratio (y) = 0.17172 -0.03724
# Poissons Ratio (z) = 0.23461 -0.02580
#
# Static dielectric constant tensor:
#      x y z
#    x 1.693350 0.000000 0.000000 
#    y 0.000000 1.712190 0.000000 
#    z 0.000000 0.000000 1.725270 
# 
# From -- ./inp_files/28202.got.cif
#   From: 2010.05.17/outbox.cif.g08.bks.cpg/sg66_15_cif.got.tgz:28202.got - 2010.06.03 17:51:23.
