data_PCOD9499677
_publ_section_title
;
Structure prediction by ZEFSAII (Michael W. Deem and Ramdas Pophale) SiO2 
 PCOD9499677
Probable space group: C C C M
;
_chemical_formula_sum "Si O2"
_cell_formula_units_Z 88
_cell_length_a 16.079371
_cell_length_b 16.473142
_cell_length_c 16.587951
_cell_angle_alpha 90.000000
_cell_angle_beta 90.000000
_cell_angle_gamma 90.000000
_cell_volume 4393.779333
_symmetry_space_group_name_H-M "C C C M"
_symmetry_group_IT_number 66
_symmetry_cell_setting 'orthorhombic'
loop_
_space_group_symop_operation_xyz
x,y,z
-x,-y,z
x,-y,1/2-z
-x,y,1/2-z
-x,-y,-z
x,y,-z
-x,y,1/2+z
x,-y,1/2+z
1/2+x,1/2+y,z
1/2-x,1/2-y,z
1/2+x,1/2-y,1/2-z
1/2-x,1/2+y,1/2-z
1/2-x,1/2-y,-z
1/2+x,1/2+y,-z
1/2-x,1/2+y,1/2+z
1/2+x,1/2-y,1/2+z
loop_
_atom_site_type_symbol
_atom_site_label
_atom_site_fract_x
_atom_site_fract_y
_atom_site_fract_z
Si Si1 0.979169 0.405642 0.659459
Si Si2 0.521093 0.383957 0.096944
Si Si3 0.250000 0.250000 0.288407
Si Si4 0.095260 0.277794 0.593002
Si Si5 0.860445 0.980781 0.097024
Si Si6 0.793253 0.418035 0.304549
O O1 0.880060 0.394782 0.651975
O O2 0.000000 0.500000 0.654299
O O3 0.000000 0.376665 0.750000
O O4 0.044886 0.360400 0.603205
O O5 0.527554 0.290565 0.114558
O O6 0.436885 0.424500 0.126194
O O7 0.605177 0.430606 0.122149
O O8 0.518376 0.394625 0.000000
O O9 0.170863 0.261502 0.347176
O O10 0.243303 0.335552 0.237868
O O11 0.121790 0.266945 0.500000
O O12 0.776191 0.951572 0.135369
O O13 0.853772 0.978111 0.000000
O O14 0.811537 0.500000 0.250000
#
# Coordination Sequence:
#
# PCOD9499677 Si02
#       6
#    16  16   8  16  16  16
#     4  11  22  44  63  80 122 171 206 260 312 366
#     4   8  17  36  61  90 126 159 193 250 317 365
#     4  12  25  40  61  94 126 166 204 266 319 376
#     4  11  23  40  64  91 120 161 211 262 313 374
#     4   9  19  38  63  92 127 164 204 255 311 381
#     4  12  24  41  64  93 127 168 213 258 321 381
#
# _framework density 20.028316
#
# number of rings (size 3 to 8) (size 9 to 14) (size 15 to 20)
#    0.000    1.636    3.636    2.455    2.545    1.091 
#    0.000   10.455    0.000    0.000    0.000    0.000 
#    0.000    0.000    0.000    0.000    0.000    0.000 
#
# Total GULP energy -245162.025916 kJ/mol
# GULP energy per Si atom -5571.864225 kJ/mol
# Density = 1.998273 g / cm^3
# Si number density = 20.028316 Si / 1000 Ang^3
#
#
#
# Elastic Constant Matrix: (Units=GPa)
#
#
# Indices 1 2 3 4 5 6 
#
# 1 126.2586 13.9509 17.3030 0.0000 0.0000 0.0000
# 2 13.9509 70.0119 16.2158 0.0000 0.0000 0.0000
# 3 17.3030 16.2158 18.3314 0.0000 0.0000 0.0000
# 4 0.0000 0.0000 0.0000 17.3333 0.0000 0.0000
# 5 0.0000 0.0000 0.0000 0.0000 29.5619 0.0000
# 6 0.0000 0.0000 0.0000 0.0000 0.0000 22.0030
#
#
#
# Elastic Compliance Matrix: (Units=1/GPa)
#
#
# Indices 1 2 3 4 5 6 
#
# 1 0.009100 0.000222 -0.008785 0.000000 0.000000 0.000000
# 2 0.000222 0.017969 -0.016104 0.000000 0.000000 0.000000
# 3 -0.008785 -0.016104 0.077090 0.000000 0.000000 0.000000
# 4 0.000000 0.000000 0.000000 0.057692 0.000000 0.000000
# 5 0.000000 0.000000 0.000000 0.000000 0.033827 0.000000
# 6 0.000000 0.000000 0.000000 0.000000 0.000000 0.045448
#
#
# Mechanical properties :
#
#
# Convention : Reuss Voigt Hill
#
# Bulk Modulus (GPa) = 18.24082 34.39349 26.31716
# Shear Modulus (GPa) = 16.19502 24.92179 20.55841
#
# Velocity S-wave (km/s) = 2.84669 3.53133 3.20733
# Velocity P-wave (km/s) = 4.46454 5.81694 5.18502
#
# Compressibility (1/GPa) = 0.05482208
#
# Stress axis : x y z
#
# Youngs Moduli (GPa) = 109.89319 55.65089 12.97193
#
# Poissons Ratio (x) = -0.01233 0.11396
# Poissons Ratio (y) = -0.02434 0.20891
# Poissons Ratio (z) = 0.96544 0.89623
#
# Static dielectric constant tensor:
#      x y z
#    x 1.704730 0.000000 0.000000 
#    y 0.000000 1.764470 0.000000 
#    z 0.000000 0.000000 1.738500 
# 
# From -- ./inp_files/40327.got.cif
#   From: 2010.05.17/outbox.cif.g08.bks.cpg/sg66_21_cif.got.tgz:40327.got - 2010.06.03 17:51:23.
