data_PCOD9499597
_publ_section_title
;
Structure prediction by ZEFSAII (Michael W. Deem and Ramdas Pophale) SiO2 
 PCOD9499597
Probable space group: C C C M
;
_chemical_formula_sum "Si O2"
_cell_formula_units_Z 48
_cell_length_a 21.790409
_cell_length_b 4.987158
_cell_length_c 21.549512
_cell_angle_alpha 90.000000
_cell_angle_beta 90.000000
_cell_angle_gamma 90.000000
_cell_volume 2341.833149
_symmetry_space_group_name_H-M "C C C M"
_symmetry_group_IT_number 66
_symmetry_cell_setting 'orthorhombic'
loop_
_space_group_symop_operation_xyz
x,y,z
-x,-y,z
x,-y,1/2-z
-x,y,1/2-z
-x,-y,-z
x,y,-z
-x,y,1/2+z
x,-y,1/2+z
1/2+x,1/2+y,z
1/2-x,1/2-y,z
1/2+x,1/2-y,1/2-z
1/2-x,1/2+y,1/2-z
1/2-x,1/2-y,-z
1/2+x,1/2+y,-z
1/2-x,1/2+y,1/2+z
1/2+x,1/2-y,1/2+z
loop_
_atom_site_type_symbol
_atom_site_label
_atom_site_fract_x
_atom_site_fract_y
_atom_site_fract_z
Si Si1 0.365852 0.867851 0.381968
Si Si2 0.250000 0.250000 0.792916
Si Si3 0.564474 0.345370 0.924578
Si Si4 0.707361 0.996652 0.500000
O O1 0.311714 0.833032 0.331220
O O2 0.387300 0.574054 0.403629
O O3 0.332036 0.002017 0.439342
O O4 0.422896 0.081658 0.381334
O O5 0.267072 0.500000 0.750000
O O6 0.500000 0.500000 0.914422
O O7 0.566505 0.289912 0.000000
O O8 0.750000 0.250000 0.500000
O O9 0.750000 0.750000 0.500000
#
# Coordination Sequence:
#
# PCOD9499597 Si02
#       4
#    16   8  16   8
#     4  12  23  40  65  92 135 170 208 262 323 391
#     4  12  28  45  64  91 126 172 226 278 326 368
#     4  11  22  38  63 101 139 169 201 249 321 400
#     4  12  22  34  59  98 131 164 198 253 333 400
#
# _framework density 20.496760999999999
#
# number of rings (size 3 to 8) (size 9 to 14) (size 15 to 20)
#    0.000    0.333    5.000    5.000    2.333    2.667 
#    0.000    0.000    0.000   15.000    0.000    0.000 
#    0.000    0.000    0.000    0.000    0.000    0.000 
#
# Total GULP energy -133727.668957 kJ/mol
# GULP energy per Si atom -5571.986207 kJ/mol
# Density = 2.045011 g / cm^3
# Si number density = 20.496761 Si / 1000 Ang^3
#
#
#
# Elastic Constant Matrix: (Units=GPa)
#
#
# Indices 1 2 3 4 5 6 
#
# 1 97.2135 27.1917 45.1665 0.0000 0.0000 0.0000
# 2 27.1917 137.8785 30.7774 0.0000 0.0000 0.0000
# 3 45.1665 30.7774 89.5378 0.0000 0.0000 0.0000
# 4 0.0000 0.0000 0.0000 -33.4772 0.0000 0.0000
# 5 0.0000 0.0000 0.0000 0.0000 -59.7423 0.0000
# 6 0.0000 0.0000 0.0000 0.0000 0.0000 55.9024
#
#
#
# Elastic Compliance Matrix: (Units=1/GPa)
#
#
# Indices 1 2 3 4 5 6 
#
# 1 0.013631 -0.001249 -0.006447 0.000000 0.000000 0.000000
# 2 -0.001249 0.007970 -0.002109 0.000000 0.000000 0.000000
# 3 -0.006447 -0.002109 0.015146 0.000000 0.000000 0.000000
# 4 0.000000 0.000000 0.000000 -0.029871 0.000000 0.000000
# 5 0.000000 0.000000 0.000000 0.000000 -0.016739 0.000000
# 6 0.000000 0.000000 0.000000 0.000000 0.000000 0.017888
#
#
# Mechanical properties :
#
#
# Convention : Reuss Voigt Hill
#
# Bulk Modulus (GPa) = 58.35661 58.98900 58.67281
# Shear Modulus (GPa) = 149.93214 7.30285 78.61750
#
# Velocity S-wave (km/s) = 8.56201 1.88962 6.19995
# Velocity P-wave (km/s) = 11.23730 5.79681 8.94092
#
# Compressibility (1/GPa) = 0.01713602
#
# Stress axis : x y z
#
# Youngs Moduli (GPa) = 73.36052 125.47060 66.02592
#
# Poissons Ratio (x) = 0.15674 0.42565
# Poissons Ratio (y) = 0.09164 0.13928
# Poissons Ratio (z) = 0.47294 0.26467
#
# Static dielectric constant tensor:
#      x y z
#    x 1.938810 0.000000 0.000000 
#    y 0.000000 1.840190 0.000000 
#    z 0.000000 0.000000 1.694810 
# 
# From -- ./inp_files/34691.got.cif
#   From: 2010.05.17/outbox.cif.g08.bks.cpg/sg66_18_cif.got.tgz:34691.got - 2010.06.03 17:51:23.
