data_PCOD9499122
_publ_section_title
;
Structure prediction by ZEFSAII (Michael W. Deem and Ramdas Pophale) SiO2 
 PCOD9499122
Probable space group: C C C M
;
_chemical_formula_sum "Si O2"
_cell_formula_units_Z 108
_cell_length_a 11.780822
_cell_length_b 14.611363
_cell_length_c 28.651177
_cell_angle_alpha 90.000000
_cell_angle_beta 90.000000
_cell_angle_gamma 90.000000
_cell_volume 4931.837882
_symmetry_space_group_name_H-M "C C C M"
_symmetry_group_IT_number 66
_symmetry_cell_setting 'orthorhombic'
loop_
_space_group_symop_operation_xyz
x,y,z
-x,-y,z
x,-y,1/2-z
-x,y,1/2-z
-x,-y,-z
x,y,-z
-x,y,1/2+z
x,-y,1/2+z
1/2+x,1/2+y,z
1/2-x,1/2-y,z
1/2+x,1/2-y,1/2-z
1/2-x,1/2+y,1/2-z
1/2-x,1/2-y,-z
1/2+x,1/2+y,-z
1/2-x,1/2+y,1/2+z
1/2+x,1/2-y,1/2+z
loop_
_atom_site_type_symbol
_atom_site_label
_atom_site_fract_x
_atom_site_fract_y
_atom_site_fract_z
Si Si1 0.941369 0.704290 0.823089
Si Si2 0.692247 0.500000 0.250000
Si Si3 0.827095 0.667396 0.725774
Si Si4 0.555634 0.899577 0.082314
Si Si5 0.812607 0.657329 0.555191
Si Si6 0.500000 0.500000 0.000000
Si Si7 0.417524 0.415516 0.162019
Si Si8 0.290257 0.467614 0.072879
O O1 0.854547 0.687811 0.780431
O O2 0.914079 0.648885 0.869330
O O3 0.958398 0.811203 0.835047
O O4 0.058283 0.666878 0.802710
O O5 0.767139 0.570633 0.278865
O O6 0.622509 0.560687 0.214145
O O7 0.750000 0.750000 0.708455
O O8 0.449086 0.842971 0.061114
O O9 0.675088 0.915506 0.055595
O O10 0.500000 0.000000 0.088999
O O11 0.788741 0.644113 0.500000
O O12 0.750000 0.750000 0.569978
O O13 0.754719 0.571279 0.580241
O O14 0.598278 0.525915 0.959696
O O15 0.500000 0.500000 0.150267
O O16 0.324811 0.422016 0.121579
#
# Coordination Sequence:
#
# PCOD9499122 Si02
#       8
#    16   8  16  16  16   4  16  16
#     4  11  26  44  66  99 148 178 249 293 363 428
#     4  12  25  41  74  96 146 182 255 287 364 432
#     4  11  24  43  66 100 136 198 230 304 355 421
#     4  10  25  43  73 107 139 185 238 302 373 435
#     4  10  23  44  73 104 140 181 236 301 367 439
#     4  12  24  48  72 104 142 188 240 290 354 464
#     4  12  26  44  70 103 141 197 235 302 363 440
#     4  11  25  45  73 103 142 186 237 292 371 428
#
# _framework density 21.898530000000001
#
# number of rings (size 3 to 8) (size 9 to 14) (size 15 to 20)
#    0.000    1.037    2.963    2.000   11.407    2.074 
#    0.000    0.000    0.000    1.778    0.000    0.000 
#    0.000    0.000    0.000    0.000    0.000    0.000 
#
# Total GULP energy -301094.709411 kJ/mol
# GULP energy per Si atom -5575.827952 kJ/mol
# Density = 2.184869 g / cm^3
# Si number density = 21.898530 Si / 1000 Ang^3
#
#
#
# Elastic Constant Matrix: (Units=GPa)
#
#
# Indices 1 2 3 4 5 6 
#
# 1 123.9239 29.7348 20.6668 0.0000 0.0000 0.0000
# 2 29.7348 53.9179 4.1651 0.0000 0.0000 0.0000
# 3 20.6668 4.1651 73.9740 0.0000 0.0000 0.0000
# 4 0.0000 0.0000 0.0000-8061.3842 0.0000 0.0000
# 5 0.0000 0.0000 0.0000 0.0000 6.9989 0.0000
# 6 0.0000 0.0000 0.0000 0.0000 0.0000 8.1478
#
#
#
# Elastic Compliance Matrix: (Units=1/GPa)
#
#
# Indices 1 2 3 4 5 6 
#
# 1 0.009714 -0.005170 -0.002423 0.000000 0.000000 0.000000
# 2 -0.005170 0.021379 0.000241 0.000000 0.000000 0.000000
# 3 -0.002423 0.000241 0.014182 0.000000 0.000000 0.000000
# 4 0.000000 0.000000 0.000000 -0.000124 0.000000 0.000000
# 5 0.000000 0.000000 0.000000 0.000000 0.142880 0.000000
# 6 0.000000 0.000000 0.000000 0.000000 0.000000 0.122732
#
#
# Mechanical properties :
#
#
# Convention : Reuss Voigt Hill
#
# Bulk Modulus (GPa) = 32.71115 40.10547 36.40831
# Shear Modulus (GPa) = 14.89611 -1596.09756 -790.60073
#
# Velocity S-wave (km/s) = 2.61096 -27.02671 -19.02138
# Velocity P-wave (km/s) = 4.90505 30.91229 21.58136
#
# Compressibility (1/GPa) = 0.03057062
#
# Stress axis : x y z
#
# Youngs Moduli (GPa) = 102.94400 46.77430 70.51394
#
# Poissons Ratio (x) = 0.24182 0.17084
# Poissons Ratio (y) = 0.53222 -0.01697
# Poissons Ratio (z) = 0.24941 -0.01126
#
# Static dielectric constant tensor:
#      x y z
#    x 1.851950 0.000000 0.000000 
#    y 0.000000 1.770860 0.000000 
#    z 0.000000 0.000000 1.791710 
# 
# From -- ./inp_files/69115.got.cif
#   From: 2010.05.17/outbox.cif.g08.bks.cpg/sg66_35_cif.got.tgz:69115.got - 2010.06.03 17:51:23.
