data_PCOD9499702
_publ_section_title
;
Structure prediction by ZEFSAII (Michael W. Deem and Ramdas Pophale) SiO2 
 PCOD9499702
Probable space group: C C C M
;
_chemical_formula_sum "Si O2"
_cell_formula_units_Z 112
_cell_length_a 13.959065
_cell_length_b 27.857093
_cell_length_c 15.553819
_cell_angle_alpha 90.000000
_cell_angle_beta 90.000000
_cell_angle_gamma 90.000000
_cell_volume 6048.242065
_symmetry_space_group_name_H-M "C C C M"
_symmetry_group_IT_number 66
_symmetry_cell_setting 'orthorhombic'
loop_
_space_group_symop_operation_xyz
x,y,z
-x,-y,z
x,-y,1/2-z
-x,y,1/2-z
-x,-y,-z
x,y,-z
-x,y,1/2+z
x,-y,1/2+z
1/2+x,1/2+y,z
1/2-x,1/2-y,z
1/2+x,1/2-y,1/2-z
1/2-x,1/2+y,1/2-z
1/2-x,1/2-y,-z
1/2+x,1/2+y,-z
1/2-x,1/2+y,1/2+z
1/2+x,1/2-y,1/2+z
loop_
_atom_site_type_symbol
_atom_site_label
_atom_site_fract_x
_atom_site_fract_y
_atom_site_fract_z
Si Si1 0.889192 0.652792 0.099776
Si Si2 0.800277 0.898434 0.598310
Si Si3 0.614662 0.334943 0.750000
Si Si4 0.888204 1.000000 0.146385
Si Si5 0.199723 0.898434 0.401690
Si Si6 0.389193 0.847208 0.099776
Si Si7 0.383971 0.225657 0.750000
O O1 0.813555 0.609827 0.110556
O O2 0.860133 0.694820 0.165385
O O3 1.000000 0.639630 0.117412
O O4 0.883802 0.668551 0.000000
O O5 0.823144 0.884911 0.500000
O O6 0.850506 0.863711 0.666538
O O7 0.835836 0.952209 0.614329
O O8 0.686445 0.890173 0.610556
O O9 0.500000 0.334624 0.750000
O O10 0.649494 0.363711 0.666538
O O11 0.651592 0.280176 0.750000
O O12 0.886441 0.000000 0.250000
O O13 0.835836 0.952209 0.114329
O O14 0.000000 0.000000 0.119449
O O15 0.176856 0.884911 0.500000
O O16 0.360133 0.805180 0.165385
O O17 0.383802 0.831449 0.000000
O O18 0.500000 0.229052 0.750000
#
# Coordination Sequence:
#
# PCOD9499702 Si02
#       7
#    16  16  16  16  16  16  16
#     4   9  19  37  59  84 115 150 188 230 277 332
#     4  11  23  38  60  86 112 148 191 233 282 337
#     4  11  23  38  55  83 119 151 190 238 280 328
#     4  11  23  41  62  82 112 150 185 230 285 336
#     4  11  23  38  60  86 112 148 191 233 282 337
#     4   9  19  37  59  84 115 150 188 230 277 332
#     4   9  19  35  57  81 113 156 190 227 282 331
#
# _framework density 18.517778
#
# number of rings (size 3 to 8) (size 9 to 14) (size 15 to 20)
#    0.000    1.857    1.429    2.143    0.000    6.286 
#    0.000    6.429    0.000    4.286    0.000    0.000 
#    0.000    0.000    0.000    0.000    0.000    0.000 
#
# Total GULP energy -312623.020008 kJ/mol
# GULP energy per Si atom -5582.553929 kJ/mol
# Density = 1.847563 g / cm^3
# Si number density = 18.517778 Si / 1000 Ang^3
#
#
#
# Elastic Constant Matrix: (Units=GPa)
#
#
# Indices 1 2 3 4 5 6 
#
# 1 124.9761 82.1268 68.8676 0.0000 0.0000 0.0000
# 2 82.1268 156.6420 70.7729 0.0000 0.0000 0.0000
# 3 68.8676 70.7729 116.4104 0.0000 0.0000 0.0000
# 4 0.0000 0.0000 0.0000 1.5920 0.0000 0.0000
# 5 0.0000 0.0000 0.0000 0.0000 28.0939 0.0000
# 6 0.0000 0.0000 0.0000 0.0000 0.0000 34.5355
#
#
#
# Elastic Compliance Matrix: (Units=1/GPa)
#
#
# Indices 1 2 3 4 5 6 
#
# 1 0.014292 -0.005064 -0.005376 0.000000 0.000000 0.000000
# 2 -0.005064 0.010596 -0.003446 0.000000 0.000000 0.000000
# 3 -0.005376 -0.003446 0.013866 0.000000 0.000000 0.000000
# 4 0.000000 0.000000 0.000000 0.628154 0.000000 0.000000
# 5 0.000000 0.000000 0.000000 0.000000 0.035595 0.000000
# 6 0.000000 0.000000 0.000000 0.000000 0.000000 0.028956
#
#
# Mechanical properties :
#
#
# Convention : Reuss Voigt Hill
#
# Bulk Modulus (GPa) = 91.06605 93.50700 92.28653
# Shear Modulus (GPa) = 6.55401 24.59500 15.57450
#
# Velocity S-wave (km/s) = 1.88335 3.64838 2.90324
# Velocity P-wave (km/s) = 7.34940 8.26759 7.82198
#
# Compressibility (1/GPa) = 0.01098104
#
# Stress axis : x y z
#
# Youngs Moduli (GPa) = 69.96956 94.37435 72.11937
#
# Poissons Ratio (x) = 0.47793 0.38773
# Poissons Ratio (y) = 0.35434 0.24853
# Poissons Ratio (z) = 0.37617 0.32522
#
# Static dielectric constant tensor:
#      x y z
#    x 1.678900 0.000000 0.000000 
#    y 0.000000 1.596990 0.000000 
#    z 0.000000 0.000000 1.637170 
# 
# From -- ./inp_files/28746.got.cif
#   From: 2010.05.17/outbox.cif.g08.bks.cpg/sg66_15_cif.got.tgz:28746.got - 2010.06.03 17:51:23.
