data_PCOD9499724
_publ_section_title
;
Structure prediction by ZEFSAII (Michael W. Deem and Ramdas Pophale) SiO2 
 PCOD9499724
Probable space group: C C C M
;
_chemical_formula_sum "Si O2"
_cell_formula_units_Z 88
_cell_length_a 24.221410
_cell_length_b 9.382451
_cell_length_c 19.742092
_cell_angle_alpha 90.000000
_cell_angle_beta 90.000000
_cell_angle_gamma 90.000000
_cell_volume 4486.512659
_symmetry_space_group_name_H-M "C C C M"
_symmetry_group_IT_number 66
_symmetry_cell_setting 'orthorhombic'
loop_
_space_group_symop_operation_xyz
x,y,z
-x,-y,z
x,-y,1/2-z
-x,y,1/2-z
-x,-y,-z
x,y,-z
-x,y,1/2+z
x,-y,1/2+z
1/2+x,1/2+y,z
1/2-x,1/2-y,z
1/2+x,1/2-y,1/2-z
1/2-x,1/2+y,1/2-z
1/2-x,1/2-y,-z
1/2+x,1/2+y,-z
1/2-x,1/2+y,1/2+z
1/2+x,1/2-y,1/2+z
loop_
_atom_site_type_symbol
_atom_site_label
_atom_site_fract_x
_atom_site_fract_y
_atom_site_fract_z
Si Si1 0.843319 0.720960 0.688246
Si Si2 0.329957 0.997149 0.076482
Si Si3 0.560195 0.662284 0.223139
Si Si4 0.390668 0.698977 0.424001
Si Si5 0.204102 0.012085 0.876111
Si Si6 0.250000 0.250000 0.221142
O O1 0.856021 0.610963 0.629491
O O2 0.893771 0.748567 0.737657
O O3 0.792703 0.664577 0.732873
O O4 0.819229 0.867839 0.656732
O O5 0.356490 0.153347 0.084857
O O6 0.263670 0.995724 0.088568
O O7 0.340406 0.950315 0.000000
O O8 0.567865 0.500000 0.250000
O O9 0.500000 0.705957 0.250000
O O10 0.570486 0.675200 0.142080
O O11 0.416179 0.701783 0.500000
O O12 0.344537 0.575348 0.421869
O O13 0.215344 0.136593 0.821418
#
# Coordination Sequence:
#
# PCOD9499724 Si02
#       6
#    16  16  16  16  16   8
#     4  12  23  37  61  94 129 165 210 268 312 368
#     4  11  24  39  58  93 136 174 205 252 321 386
#     4  11  23  45  70  94 121 160 219 271 312 369
#     4  11  23  41  65  93 128 166 210 256 312 380
#     4  12  20  36  60  91 129 171 211 250 308 379
#     4  12  20  32  62  90 124 162 210 262 310 376
#
# _framework density 19.614343000000002
#
# number of rings (size 3 to 8) (size 9 to 14) (size 15 to 20)
#    0.000    0.545    7.273    1.091    0.000    5.818 
#    0.000    4.545    0.000    2.182    0.000    0.000 
#    0.000    0.000    0.000    0.000    0.000    0.000 
#
# Total GULP energy -245799.308772 kJ/mol
# GULP energy per Si atom -5586.347927 kJ/mol
# Density = 1.956970 g / cm^3
# Si number density = 19.614343 Si / 1000 Ang^3
#
#
#
# Elastic Constant Matrix: (Units=GPa)
#
#
# Indices 1 2 3 4 5 6 
#
# 1 94.5082 4.2111 56.7981 0.0000 0.0000 0.0000
# 2 4.2111 64.9911 42.7812 0.0000 0.0000 0.0000
# 3 56.7981 42.7812 171.2830 0.0000 0.0000 0.0000
# 4 0.0000 0.0000 0.0000 24.1667 0.0000 0.0000
# 5 0.0000 0.0000 0.0000 0.0000 15.9660 0.0000
# 6 0.0000 0.0000 0.0000 0.0000 0.0000 17.9529
#
#
#
# Elastic Compliance Matrix: (Units=1/GPa)
#
#
# Indices 1 2 3 4 5 6 
#
# 1 0.013543 0.002488 -0.005112 0.000000 0.000000 0.000000
# 2 0.002488 0.018871 -0.005538 0.000000 0.000000 0.000000
# 3 -0.005112 -0.005538 0.008917 0.000000 0.000000 0.000000
# 4 0.000000 0.000000 0.000000 0.041379 0.000000 0.000000
# 5 0.000000 0.000000 0.000000 0.000000 0.062633 0.000000
# 6 0.000000 0.000000 0.000000 0.000000 0.000000 0.055701
#
#
# Mechanical properties :
#
#
# Convention : Reuss Voigt Hill
#
# Bulk Modulus (GPa) = 39.99215 59.81813 49.90514
# Shear Modulus (GPa) = 22.15284 26.74991 24.45137
#
# Velocity S-wave (km/s) = 3.36433 3.69696 3.53456
# Velocity P-wave (km/s) = 5.96030 6.98475 6.49276
#
# Compressibility (1/GPa) = 0.02500491
#
# Stress axis : x y z
#
# Youngs Moduli (GPa) = 73.84132 52.99067 112.14793
#
# Poissons Ratio (x) = -0.13182 0.57331
# Poissons Ratio (y) = -0.18369 0.62112
# Poissons Ratio (z) = 0.37748 0.29348
#
# Static dielectric constant tensor:
#      x y z
#    x 1.684350 0.000000 0.000000 
#    y 0.000000 1.687670 0.000000 
#    z 0.000000 0.000000 1.757000 
# 
# From -- ./inp_files/52422.got.cif
#   From: 2010.05.17/outbox.cif.g08.bks.cpg/sg66_27_cif.got.tgz:52422.got - 2010.06.03 17:51:23.
