data_PCOD9499341
_publ_section_title
;
Structure prediction by ZEFSAII (Michael W. Deem and Ramdas Pophale) SiO2 
 PCOD9499341
Probable space group: C C C M
;
_chemical_formula_sum "Si O2"
_cell_formula_units_Z 80
_cell_length_a 11.491487
_cell_length_b 16.952141
_cell_length_c 21.816814
_cell_angle_alpha 90.000000
_cell_angle_beta 90.000000
_cell_angle_gamma 90.000000
_cell_volume 4250.031169
_symmetry_space_group_name_H-M "C C C M"
_symmetry_group_IT_number 66
_symmetry_cell_setting 'orthorhombic'
loop_
_space_group_symop_operation_xyz
x,y,z
-x,-y,z
x,-y,1/2-z
-x,y,1/2-z
-x,-y,-z
x,y,-z
-x,y,1/2+z
x,-y,1/2+z
1/2+x,1/2+y,z
1/2-x,1/2-y,z
1/2+x,1/2-y,1/2-z
1/2-x,1/2+y,1/2-z
1/2-x,1/2-y,-z
1/2+x,1/2+y,-z
1/2-x,1/2+y,1/2+z
1/2+x,1/2-y,1/2+z
loop_
_atom_site_type_symbol
_atom_site_label
_atom_site_fract_x
_atom_site_fract_y
_atom_site_fract_z
Si Si1 0.135634 0.693452 0.747236
Si Si2 0.852001 0.312735 0.608823
Si Si3 0.632506 0.014471 0.569989
Si Si4 0.090339 0.766739 0.928983
Si Si5 0.732448 0.129166 0.871478
O O1 0.250000 0.750000 0.748036
O O2 0.139023 0.657956 0.679277
O O3 0.167199 0.641167 0.806613
O O4 0.000000 0.723931 0.750000
O O5 0.750000 0.250000 0.602878
O O6 0.840792 0.393193 0.571719
O O7 0.963619 0.262782 0.588894
O O8 0.636186 0.986194 0.500000
O O9 0.500000 0.000000 0.592425
O O10 0.719796 0.960331 0.608314
O O11 0.140175 0.831804 0.880931
O O12 0.164197 0.686639 0.918664
O O13 0.096577 0.792327 0.000000
#
# Coordination Sequence:
#
# PCOD9499341 Si02
#       5
#    16  16  16  16  16
#     4  11  19  36  59  85 122 154 200 247 294 361
#     4  11  24  38  58  87 121 164 192 236 306 364
#     4  11  21  36  56  85 119 149 194 249 296 345
#     4  11  20  36  59  86 116 154 201 243 290 353
#     4  11  20  35  59  88 112 148 199 247 294 335
#
# _framework density 18.823391000000001
#
# number of rings (size 3 to 8) (size 9 to 14) (size 15 to 20)
#    0.000    1.000    6.000    3.000    0.000    2.400 
#    0.000    3.000    0.000    2.400    0.000    4.200 
#    0.000    0.000    0.000    0.000    0.000    0.000 
#
# Total GULP energy -222678.187727 kJ/mol
# GULP energy per Si atom -5566.954693 kJ/mol
# Density = 1.878055 g / cm^3
# Si number density = 18.823391 Si / 1000 Ang^3
#
#
#
# Elastic Constant Matrix: (Units=GPa)
#
#
# Indices 1 2 3 4 5 6 
#
# 1 85.7738 47.2167 17.2545 0.0000 0.0000 0.0000
# 2 47.2167 86.7361 11.9728 0.0000 0.0000 0.0000
# 3 17.2545 11.9728 84.8208 0.0000 0.0000 0.0000
# 4 0.0000 0.0000 0.0000 23.8411 0.0000 0.0000
# 5 0.0000 0.0000 0.0000 0.0000 5.1665 0.0000
# 6 0.0000 0.0000 0.0000 0.0000 0.0000 20.0254
#
#
#
# Elastic Compliance Matrix: (Units=1/GPa)
#
#
# Indices 1 2 3 4 5 6 
#
# 1 0.017040 -0.008973 -0.002200 0.000000 0.000000 0.000000
# 2 -0.008973 0.016483 -0.000501 0.000000 0.000000 0.000000
# 3 -0.002200 -0.000501 0.012308 0.000000 0.000000 0.000000
# 4 0.000000 0.000000 0.000000 0.041944 0.000000 0.000000
# 5 0.000000 0.000000 0.000000 0.000000 0.193553 0.000000
# 6 0.000000 0.000000 0.000000 0.000000 0.000000 0.049936
#
#
# Mechanical properties :
#
#
# Convention : Reuss Voigt Hill
#
# Bulk Modulus (GPa) = 44.47745 45.57984 45.02865
# Shear Modulus (GPa) = 13.80805 21.86573 17.83689
#
# Velocity S-wave (km/s) = 2.71137 3.41196 3.08164
# Velocity P-wave (km/s) = 5.78637 6.30785 6.05273
#
# Compressibility (1/GPa) = 0.02248330
#
# Stress axis : x y z
#
# Youngs Moduli (GPa) = 58.68416 60.66894 81.24903
#
# Poissons Ratio (x) = 0.54436 0.17874
# Poissons Ratio (y) = 0.52655 0.04074
# Poissons Ratio (z) = 0.12910 0.03042
#
# Static dielectric constant tensor:
#      x y z
#    x 1.835620 0.000000 0.000000 
#    y 0.000000 1.633950 0.000000 
#    z 0.000000 0.000000 1.703600 
# 
# From -- ./inp_files/56611.got.cif
#   From: 2010.05.17/outbox.cif.g08.bks.cpg/sg66_29_cif.got.tgz:56611.got - 2010.06.03 17:51:23.
