data_PCOD9499442
_publ_section_title
;
Structure prediction by ZEFSAII (Michael W. Deem and Ramdas Pophale) SiO2 
 PCOD9499442
Probable space group: C C C M
;
_chemical_formula_sum "Si O2"
_cell_formula_units_Z 80
_cell_length_a 35.112604
_cell_length_b 4.992968
_cell_length_c 27.971194
_cell_angle_alpha 90.000000
_cell_angle_beta 90.000000
_cell_angle_gamma 90.000000
_cell_volume 4903.800873
_symmetry_space_group_name_H-M "C C C M"
_symmetry_group_IT_number 66
_symmetry_cell_setting 'orthorhombic'
loop_
_space_group_symop_operation_xyz
x,y,z
-x,-y,z
x,-y,1/2-z
-x,y,1/2-z
-x,-y,-z
x,y,-z
-x,y,1/2+z
x,-y,1/2+z
1/2+x,1/2+y,z
1/2-x,1/2-y,z
1/2+x,1/2-y,1/2-z
1/2-x,1/2+y,1/2-z
1/2-x,1/2-y,-z
1/2+x,1/2+y,-z
1/2-x,1/2+y,1/2+z
1/2+x,1/2-y,1/2+z
loop_
_atom_site_type_symbol
_atom_site_label
_atom_site_fract_x
_atom_site_fract_y
_atom_site_fract_z
Si Si1 0.832166 0.317539 0.944210
Si Si2 0.458106 0.958239 0.555453
Si Si3 0.592641 0.480552 0.945016
Si Si4 0.721667 0.501246 0.801665
Si Si5 0.706051 0.340745 0.403201
O O1 0.869510 0.160549 0.924838
O O2 0.820000 0.588717 0.917720
O O3 0.800005 0.091781 0.937972
O O4 0.838540 0.383286 0.000000
O O5 0.464280 0.866839 0.500000
O O6 0.428409 0.740521 0.576257
O O7 0.500000 0.000000 0.577166
O O8 0.438131 0.244495 0.554253
O O9 0.603344 0.553696 0.000000
O O10 0.701197 0.500000 0.750000
O O11 0.750000 0.750000 0.797221
O O12 0.697982 0.551540 0.849535
O O13 0.750000 0.250000 0.808836
O O14 0.750000 0.250000 0.404474
#
# Coordination Sequence:
#
# PCOD9499442 Si02
#       5
#    16  16  16  16  16
#     4  11  22  33  44  59  86 123 155 185 221 261
#     4   9  15  24  40  59  76  97 133 181 221 253
#     4   9  17  28  39  54  78 108 141 174 214 261
#     4   9  17  31  50  68  84 101 128 179 241 287
#     4  11  21  33  47  64  83 109 152 195 227 265
#
# _framework density 16.313876
#
# number of rings (size 3 to 8) (size 9 to 14) (size 15 to 20)
#    0.000    2.200    0.000    5.400    0.000    8.000 
#    0.000    0.000    0.000    0.000    0.000    0.000 
#    0.000    0.000    0.000    0.000    0.000   28.000 
#
# Total GULP energy -222669.820443 kJ/mol
# GULP energy per Si atom -5566.745511 kJ/mol
# Density = 1.627675 g / cm^3
# Si number density = 16.313876 Si / 1000 Ang^3
#
#
#
# Elastic Constant Matrix: (Units=GPa)
#
#
# Indices 1 2 3 4 5 6 
#
# 1 38.3057 6.3964 12.6417 0.0000 0.0000 0.0000
# 2 6.3964 103.7042 15.2425 0.0000 0.0000 0.0000
# 3 12.6417 15.2425 44.3204 0.0000 0.0000 0.0000
# 4 0.0000 0.0000 0.0000 18.1599 0.0000 0.0000
# 5 0.0000 0.0000 0.0000 0.0000 0.1578 0.0000
# 6 0.0000 0.0000 0.0000 0.0000 0.0000 26.3899
#
#
#
# Elastic Compliance Matrix: (Units=1/GPa)
#
#
# Indices 1 2 3 4 5 6 
#
# 1 0.028854 -0.000600 -0.008024 0.000000 0.000000 0.000000
# 2 -0.000600 0.010169 -0.003326 0.000000 0.000000 0.000000
# 3 -0.008024 -0.003326 0.025995 0.000000 0.000000 0.000000
# 4 0.000000 0.000000 0.000000 0.055066 0.000000 0.000000
# 5 0.000000 0.000000 0.000000 0.000000 6.335547 0.000000
# 6 0.000000 0.000000 0.000000 0.000000 0.000000 0.037893
#
#
# Mechanical properties :
#
#
# Convention : Reuss Voigt Hill
#
# Bulk Modulus (GPa) = 24.32011 28.32126 26.32068
# Shear Modulus (GPa) = 0.76556 19.07817 9.92187
#
# Velocity S-wave (km/s) = 0.68578 3.42342 2.46882
# Velocity P-wave (km/s) = 3.94551 5.74668 4.92907
#
# Compressibility (1/GPa) = 0.04111824
#
# Stress axis : x y z
#
# Youngs Moduli (GPa) = 34.65721 98.34105 38.46829
#
# Poissons Ratio (x) = 0.05904 0.30866
# Poissons Ratio (y) = 0.02081 0.12794
# Poissons Ratio (z) = 0.27808 0.32708
#
# Static dielectric constant tensor:
#      x y z
#    x 1.599050 0.000000 0.000000 
#    y 0.000000 1.573350 0.000000 
#    z 0.000000 0.000000 1.589790 
# 
# From -- ./inp_files/66376.got.cif
#   From: 2010.05.17/outbox.cif.g08.bks.cpg/sg66_34_cif.got.tgz:66376.got - 2010.06.03 17:51:23.
