data_PCOD9499369
_publ_section_title
;
Structure prediction by ZEFSAII (Michael W. Deem and Ramdas Pophale) SiO2 
 PCOD9499369
Probable space group: C C C M
;
_chemical_formula_sum "Si O2"
_cell_formula_units_Z 80
_cell_length_a 19.711056
_cell_length_b 9.395201
_cell_length_c 22.317082
_cell_angle_alpha 90.000000
_cell_angle_beta 90.000000
_cell_angle_gamma 90.000000
_cell_volume 4132.885531
_symmetry_space_group_name_H-M "C C C M"
_symmetry_group_IT_number 66
_symmetry_cell_setting 'orthorhombic'
loop_
_space_group_symop_operation_xyz
x,y,z
-x,-y,z
x,-y,1/2-z
-x,y,1/2-z
-x,-y,-z
x,y,-z
-x,y,1/2+z
x,-y,1/2+z
1/2+x,1/2+y,z
1/2-x,1/2-y,z
1/2+x,1/2-y,1/2-z
1/2-x,1/2+y,1/2-z
1/2-x,1/2-y,-z
1/2+x,1/2+y,-z
1/2-x,1/2+y,1/2+z
1/2+x,1/2-y,1/2+z
loop_
_atom_site_type_symbol
_atom_site_label
_atom_site_fract_x
_atom_site_fract_y
_atom_site_fract_z
Si Si1 0.421871 0.034924 0.179996
Si Si2 0.309939 0.159548 0.611641
Si Si3 0.080878 0.884173 0.928569
Si Si4 0.249150 0.509987 0.500000
Si Si5 0.142578 0.758512 0.500000
Si Si6 0.934231 0.191398 0.384841
O O1 0.415341 0.205139 0.169152
O O2 0.500000 0.000000 0.159073
O O3 0.418794 0.000000 0.250000
O O4 0.361189 0.945863 0.147654
O O5 0.250000 0.250000 0.645025
O O6 0.359441 0.272949 0.579926
O O7 0.269736 0.076189 0.559418
O O8 0.013873 0.822218 0.896828
O O9 0.093346 0.030538 0.891786
O O10 0.065675 0.905299 0.000000
O O11 0.200080 0.643499 0.500000
O O12 0.322846 0.584336 0.500000
O O13 0.097561 0.733794 0.442401
#
# Coordination Sequence:
#
# PCOD9499369 Si02
#       6
#    16  16  16   8   8  16
#     4  11  25  47  70  89 121 175 237 283 315 376
#     4  12  24  40  62  97 134 171 208 265 335 399
#     4  11  21  35  63 101 137 164 203 261 338 407
#     4  11  23  35  59  96 143 175 207 254 335 421
#     4  11  20  34  59 101 131 175 214 258 331 411
#     4  11  20  38  63  95 131 163 211 271 327 388
#
# _framework density 19.356935
#
# number of rings (size 3 to 8) (size 9 to 14) (size 15 to 20)
#    0.000    0.800    7.000    2.100    0.000    0.000 
#    0.000    8.000    0.000    0.000    0.000    0.000 
#    0.000    0.000    0.000    0.000    0.000    0.000 
#
# Total GULP energy -222899.255694 kJ/mol
# GULP energy per Si atom -5572.481392 kJ/mol
# Density = 1.931288 g / cm^3
# Si number density = 19.356935 Si / 1000 Ang^3
#
#
#
# Elastic Constant Matrix: (Units=GPa)
#
#
# Indices 1 2 3 4 5 6 
#
# 1 86.7894 36.1173 19.4007 0.0000 0.0000 0.0000
# 2 36.1173 125.4704 48.3332 0.0000 0.0000 0.0000
# 3 19.4007 48.3332 76.3348 0.0000 0.0000 0.0000
# 4 0.0000 0.0000 0.0000 26.7428 0.0000 0.0000
# 5 0.0000 0.0000 0.0000 0.0000 16.6896 0.0000
# 6 0.0000 0.0000 0.0000 0.0000 0.0000 41.1769
#
#
#
# Elastic Compliance Matrix: (Units=1/GPa)
#
#
# Indices 1 2 3 4 5 6 
#
# 1 0.013180 -0.003311 -0.001253 0.000000 0.000000 0.000000
# 2 -0.003311 0.011373 -0.006359 0.000000 0.000000 0.000000
# 3 -0.001253 -0.006359 0.017445 0.000000 0.000000 0.000000
# 4 0.000000 0.000000 0.000000 0.037393 0.000000 0.000000
# 5 0.000000 0.000000 0.000000 0.000000 0.059918 0.000000
# 6 0.000000 0.000000 0.000000 0.000000 0.000000 0.024285
#
#
# Mechanical properties :
#
#
# Convention : Reuss Voigt Hill
#
# Bulk Modulus (GPa) = 49.62611 55.14409 52.38510
# Shear Modulus (GPa) = 26.02004 29.23809 27.62907
#
# Velocity S-wave (km/s) = 3.67034 3.89069 3.78212
# Velocity P-wave (km/s) = 6.60719 6.98092 6.79662
#
# Compressibility (1/GPa) = 0.02015068
#
# Stress axis : x y z
#
# Youngs Moduli (GPa) = 75.87107 87.92798 57.32186
#
# Poissons Ratio (x) = 0.29115 0.07184
# Poissons Ratio (y) = 0.25123 0.36454
# Poissons Ratio (z) = 0.09508 0.55918
#
# Static dielectric constant tensor:
#      x y z
#    x 1.700060 0.000000 0.000000 
#    y 0.000000 1.735540 0.000000 
#    z 0.000000 0.000000 1.636500 
# 
# From -- ./inp_files/59311.got.cif
#   From: 2010.05.17/outbox.cif.g08.bks.cpg/sg66_30_cif.got.tgz:59311.got - 2010.06.03 17:51:23.
