data_PCOD9499181
_publ_section_title
;
Structure prediction by ZEFSAII (Michael W. Deem and Ramdas Pophale) SiO2 
 PCOD9499181
Probable space group: C C C M
;
_chemical_formula_sum "Si O2"
_cell_formula_units_Z 48
_cell_length_a 21.823896
_cell_length_b 5.208696
_cell_length_c 17.997557
_cell_angle_alpha 90.000000
_cell_angle_beta 90.000000
_cell_angle_gamma 90.000000
_cell_volume 2045.855011
_symmetry_space_group_name_H-M "C C C M"
_symmetry_group_IT_number 66
_symmetry_cell_setting 'orthorhombic'
loop_
_space_group_symop_operation_xyz
x,y,z
-x,-y,z
x,-y,1/2-z
-x,y,1/2-z
-x,-y,-z
x,y,-z
-x,y,1/2+z
x,-y,1/2+z
1/2+x,1/2+y,z
1/2-x,1/2-y,z
1/2+x,1/2-y,1/2-z
1/2-x,1/2+y,1/2-z
1/2-x,1/2-y,-z
1/2+x,1/2+y,-z
1/2-x,1/2+y,1/2+z
1/2+x,1/2-y,1/2+z
loop_
_atom_site_type_symbol
_atom_site_label
_atom_site_fract_x
_atom_site_fract_y
_atom_site_fract_z
Si Si1 0.600767 0.000000 0.250000
Si Si2 0.815534 0.000000 0.250000
Si Si3 0.250000 0.750000 0.877575
Si Si4 0.500000 0.000000 0.375133
Si Si5 0.852883 0.308471 0.000000
Si Si6 0.938125 0.196942 0.500000
O O1 0.642189 0.250682 0.259150
O O2 0.557172 0.049503 0.179047
O O3 0.773013 0.032259 0.178262
O O4 0.192161 0.693192 0.929407
O O5 0.480082 0.765631 0.428515
O O6 0.890016 0.569870 0.000000
O O7 0.899066 0.064707 0.000000
#
# Coordination Sequence:
#
# PCOD9499181 Si02
#       6
#     8   8   8   8   8   8
#     4  11  25  42  65  98 135 176 225 281 342 402
#     4  12  25  43  67  98 135 177 227 282 340 406
#     4  11  26  44  70  99 136 180 228 279 340 402
#     4  10  24  42  68  98 134 178 226 280 340 404
#     4  11  26  45  68 100 136 179 227 280 337 404
#     4  11  24  43  68  98 134 176 227 277 335 402
#
# _framework density 23.462074999999999
#
# number of rings (size 3 to 8) (size 9 to 14) (size 15 to 20)
#    0.000    1.000    0.000    5.000    0.000   16.000 
#    0.000    0.000    0.000    0.000    0.000    0.000 
#    0.000    0.000    0.000    0.000    0.000    0.000 
#
# Total GULP energy -134508.952614 kJ/mol
# GULP energy per Si atom -5604.539692 kJ/mol
# Density = 2.340867 g / cm^3
# Si number density = 23.462075 Si / 1000 Ang^3
#
#
#
# Elastic Constant Matrix: (Units=GPa)
#
#
# Indices 1 2 3 4 5 6 
#
# 1 194.2592 125.8994 102.8962 0.0000 0.0000 0.0000
# 2 125.8994 178.1249 52.5879 0.0000 0.0000 0.0000
# 3 102.8962 52.5879 185.3645 0.0000 0.0000 0.0000
# 4 0.0000 0.0000 0.0000 8.3695 0.0000 0.0000
# 5 0.0000 0.0000 0.0000 0.0000 54.6580 0.0000
# 6 0.0000 0.0000 0.0000 0.0000 0.0000 36.1189
#
#
#
# Elastic Compliance Matrix: (Units=1/GPa)
#
#
# Indices 1 2 3 4 5 6 
#
# 1 0.012526 -0.007422 -0.004847 0.000000 0.000000 0.000000
# 2 -0.007422 0.010525 0.001134 0.000000 0.000000 0.000000
# 3 -0.004847 0.001134 0.007764 0.000000 0.000000 0.000000
# 4 0.000000 0.000000 0.000000 0.119482 0.000000 0.000000
# 5 0.000000 0.000000 0.000000 0.000000 0.018296 0.000000
# 6 0.000000 0.000000 0.000000 0.000000 0.000000 0.027686
#
#
# Mechanical properties :
#
#
# Convention : Reuss Voigt Hill
#
# Bulk Modulus (GPa) = 117.04373 124.50172 120.77273
# Shear Modulus (GPa) = 22.58386 38.25360 30.41873
#
# Velocity S-wave (km/s) = 3.10589 4.04226 3.60461
# Velocity P-wave (km/s) = 7.92823 8.65833 8.30131
#
# Compressibility (1/GPa) = 0.00854382
#
# Stress axis : x y z
#
# Youngs Moduli (GPa) = 79.83698 95.01041 128.80260
#
# Poissons Ratio (x) = 0.70517 0.62435
# Poissons Ratio (y) = 0.59255 -0.14606
# Poissons Ratio (z) = 0.38700 -0.10774
#
# Static dielectric constant tensor:
#      x y z
#    x 1.890500 0.000000 0.000000 
#    y 0.000000 2.000130 0.000000 
#    z 0.000000 0.000000 1.900130 
# 
# From -- ./inp_files/34729.got.cif
#   From: 2010.05.17/outbox.cif.g08.bks.cpg/sg66_18_cif.got.tgz:34729.got - 2010.06.03 17:51:23.
