data_PCOD9499988
_publ_section_title
;
Structure prediction by ZEFSAII (Michael W. Deem and Ramdas Pophale) SiO2 
 PCOD9499988
Probable space group: C C C M
;
_chemical_formula_sum "Si O2"
_cell_formula_units_Z 48
_cell_length_a 4.973215
_cell_length_b 29.438962
_cell_length_c 15.001040
_cell_angle_alpha 90.000000
_cell_angle_beta 90.000000
_cell_angle_gamma 90.000000
_cell_volume 2196.246574
_symmetry_space_group_name_H-M "C C C M"
_symmetry_group_IT_number 66
_symmetry_cell_setting 'orthorhombic'
loop_
_space_group_symop_operation_xyz
x,y,z
-x,-y,z
x,-y,1/2-z
-x,y,1/2-z
-x,-y,-z
x,y,-z
-x,y,1/2+z
x,-y,1/2+z
1/2+x,1/2+y,z
1/2-x,1/2-y,z
1/2+x,1/2-y,1/2-z
1/2-x,1/2+y,1/2-z
1/2-x,1/2-y,-z
1/2+x,1/2+y,-z
1/2-x,1/2+y,1/2+z
1/2+x,1/2-y,1/2+z
loop_
_atom_site_type_symbol
_atom_site_label
_atom_site_fract_x
_atom_site_fract_y
_atom_site_fract_z
Si Si1 0.085361 0.101387 0.846707
Si Si2 0.750000 0.750000 0.311965
Si Si3 0.436521 0.842719 0.102551
Si Si4 0.247919 0.966642 0.500000
O O1 0.313566 0.140150 0.838346
O O2 0.218048 0.064991 0.912960
O O3 0.000000 0.083240 0.750000
O O4 0.816826 0.123490 0.887786
O O5 0.500000 0.736509 0.250000
O O6 0.658187 0.792934 0.369579
O O7 0.528735 0.842851 0.000000
O O8 0.500000 0.000000 0.500000
O O9 0.000000 0.000000 0.500000
#
# Coordination Sequence:
#
# PCOD9499988 Si02
#       4
#    16   8  16   8
#     4  12  25  46  74 104 141 188 233 285 356 423
#     4  12  25  40  63 102 146 190 246 291 336 407
#     4  12  23  44  69 102 143 191 237 288 346 412
#     4  12  26  48  76 105 144 177 228 300 360 426
#
# _framework density 21.855471999999999
#
# number of rings (size 3 to 8) (size 9 to 14) (size 15 to 20)
#    0.000    0.000    3.333    8.500    0.000    0.667 
#    0.000    6.667    0.000    0.000    0.000    0.000 
#    0.000    0.000    0.000    0.000    0.000    0.000 
#
# Total GULP energy -134477.011939 kJ/mol
# GULP energy per Si atom -5603.208831 kJ/mol
# Density = 2.180573 g / cm^3
# Si number density = 21.855472 Si / 1000 Ang^3
#
#
#
# Elastic Constant Matrix: (Units=GPa)
#
#
# Indices 1 2 3 4 5 6 
#
# 1 136.8211 33.1291 27.0809 0.0000 0.0000 0.0000
# 2 33.1291 115.4798 52.8866 0.0000 0.0000 0.0000
# 3 27.0809 52.8866 146.0500 0.0000 0.0000 0.0000
# 4 0.0000 0.0000 0.0000 22.8010 0.0000 0.0000
# 5 0.0000 0.0000 0.0000 0.0000 30.4690 0.0000
# 6 0.0000 0.0000 0.0000 0.0000 0.0000 52.0776
#
#
#
# Elastic Compliance Matrix: (Units=1/GPa)
#
#
# Indices 1 2 3 4 5 6 
#
# 1 0.007927 -0.001919 -0.000775 0.000000 0.000000 0.000000
# 2 -0.001919 0.010846 -0.003572 0.000000 0.000000 0.000000
# 3 -0.000775 -0.003572 0.008284 0.000000 0.000000 0.000000
# 4 0.000000 0.000000 0.000000 0.043858 0.000000 0.000000
# 5 0.000000 0.000000 0.000000 0.000000 0.032820 0.000000
# 6 0.000000 0.000000 0.000000 0.000000 0.000000 0.019202
#
#
# Mechanical properties :
#
#
# Convention : Reuss Voigt Hill
#
# Bulk Modulus (GPa) = 68.84488 69.39379 69.11934
# Shear Modulus (GPa) = 35.63543 40.08646 37.86095
#
# Velocity S-wave (km/s) = 4.04233 4.28736 4.16665
# Velocity P-wave (km/s) = 7.30450 7.50525 7.40555
#
# Compressibility (1/GPa) = 0.01452541
#
# Stress axis : x y z
#
# Youngs Moduli (GPa) = 126.15286 92.20176 120.71549
#
# Poissons Ratio (x) = 0.17696 0.09354
# Poissons Ratio (y) = 0.24212 0.43114
# Poissons Ratio (z) = 0.09775 0.32930
#
# Static dielectric constant tensor:
#      x y z
#    x 1.765780 0.000000 0.000000 
#    y 0.000000 1.789500 0.000000 
#    z 0.000000 0.000000 1.987950 
# 
# From -- ./inp_files/22323.got.cif
#   From: 2010.05.17/outbox.cif.g08.bks.cpg/sg66_12_cif.got.tgz:22323.got - 2010.06.03 17:51:23.
