data_PCOD9499577
_publ_section_title
;
Structure prediction by ZEFSAII (Michael W. Deem and Ramdas Pophale) SiO2 
 PCOD9499577
Probable space group: C C C M
;
_chemical_formula_sum "Si O2"
_cell_formula_units_Z 112
_cell_length_a 29.679218
_cell_length_b 11.772277
_cell_length_c 17.222429
_cell_angle_alpha 90.000000
_cell_angle_beta 90.000000
_cell_angle_gamma 90.000000
_cell_volume 6017.378490
_symmetry_space_group_name_H-M "C C C M"
_symmetry_group_IT_number 66
_symmetry_cell_setting 'orthorhombic'
loop_
_space_group_symop_operation_xyz
x,y,z
-x,-y,z
x,-y,1/2-z
-x,y,1/2-z
-x,-y,-z
x,y,-z
-x,y,1/2+z
x,-y,1/2+z
1/2+x,1/2+y,z
1/2-x,1/2-y,z
1/2+x,1/2-y,1/2-z
1/2-x,1/2+y,1/2-z
1/2-x,1/2-y,-z
1/2+x,1/2+y,-z
1/2-x,1/2+y,1/2+z
1/2+x,1/2-y,1/2+z
loop_
_atom_site_type_symbol
_atom_site_label
_atom_site_fract_x
_atom_site_fract_y
_atom_site_fract_z
Si Si1 0.119144 0.498446 0.592301
Si Si2 0.445189 0.819947 0.167771
Si Si3 0.459670 0.418640 0.910495
Si Si4 0.190473 0.853221 0.906815
Si Si5 0.288077 0.914854 0.908068
Si Si6 0.045715 0.329473 0.848091
Si Si7 0.400106 0.575098 0.170998
O O1 0.121415 0.488118 0.500000
O O2 0.093675 0.389377 0.626276
O O3 0.170920 0.493083 0.622624
O O4 0.086241 0.603620 0.611404
O O5 0.493423 0.852101 0.129744
O O6 0.449028 0.855147 0.257342
O O7 0.432065 0.686903 0.169724
O O8 0.500000 0.500000 0.881487
O O9 0.451958 0.304687 0.863112
O O10 0.416173 0.495296 0.899179
O O11 0.469041 0.389606 0.000000
O O12 0.236355 0.917567 0.880937
O O13 0.197802 0.717364 0.900049
O O14 0.149804 0.886694 0.851074
O O15 0.182526 0.873923 0.000000
O O16 0.284836 0.937975 0.000000
O O17 0.403548 0.500000 0.250000
#
# Coordination Sequence:
#
# PCOD9499577 Si02
#       7
#    16  16  16  16  16  16  16
#     4  11  22  37  60  89 116 149 195 247 296 348
#     4  11  23  38  58  79 116 160 196 236 293 357
#     4  11  23  37  57  84 113 152 199 244 287 337
#     4   9  17  34  59  87 115 146 192 246 294 352
#     4   8  16  32  59  87 113 147 186 239 305 355
#     4  11  23  40  56  80 119 162 195 232 291 361
#     4  12  22  36  59  84 117 154 196 243 297 348
#
# _framework density 18.612756000000001
#
# number of rings (size 3 to 8) (size 9 to 14) (size 15 to 20)
#    0.000    1.571    4.286    2.571    0.000    3.714 
#    0.000    1.429    0.000    0.857    0.000    4.000 
#    0.000    0.000    0.000    0.000    0.000    0.000 
#
# Total GULP energy -311986.087831 kJ/mol
# GULP energy per Si atom -5571.180140 kJ/mol
# Density = 1.857039 g / cm^3
# Si number density = 18.612756 Si / 1000 Ang^3
#
#
#
# Elastic Constant Matrix: (Units=GPa)
#
#
# Indices 1 2 3 4 5 6 
#
# 1 120.8808 26.8215 11.7847 0.0000 0.0000 0.0000
# 2 26.8215 68.9388 16.9882 0.0000 0.0000 0.0000
# 3 11.7847 16.9882 28.0495 0.0000 0.0000 0.0000
# 4 0.0000 0.0000 0.0000 -159.9273 0.0000 0.0000
# 5 0.0000 0.0000 0.0000 0.0000 -12.1850 0.0000
# 6 0.0000 0.0000 0.0000 0.0000 0.0000 32.2014
#
#
#
# Elastic Compliance Matrix: (Units=1/GPa)
#
#
# Indices 1 2 3 4 5 6 
#
# 1 0.009147 -0.003070 -0.001984 0.000000 0.000000 0.000000
# 2 -0.003070 0.018081 -0.009661 0.000000 0.000000 0.000000
# 3 -0.001984 -0.009661 0.042336 0.000000 0.000000 0.000000
# 4 0.000000 0.000000 0.000000 -0.006253 0.000000 0.000000
# 5 0.000000 0.000000 0.000000 0.000000 -0.082068 0.000000
# 6 0.000000 0.000000 0.000000 0.000000 0.000000 0.031055
#
#
# Mechanical properties :
#
#
# Convention : Reuss Voigt Hill
#
# Bulk Modulus (GPa) = 24.91618 36.56202 30.73910
# Shear Modulus (GPa) = 90.73637 -17.16389 36.78624
#
# Velocity S-wave (km/s) = 6.98966 -3.04000 4.45049
# Velocity P-wave (km/s) = 8.86319 2.71368 6.55440
#
# Compressibility (1/GPa) = 0.04013457
#
# Stress axis : x y z
#
# Youngs Moduli (GPa) = 109.32317 55.30760 23.62072
#
# Poissons Ratio (x) = 0.16979 0.04686
# Poissons Ratio (y) = 0.33562 0.22819
# Poissons Ratio (z) = 0.21687 0.53431
#
# Static dielectric constant tensor:
#      x y z
#    x 1.717940 0.000000 0.000000 
#    y 0.000000 1.655420 0.000000 
#    z 0.000000 0.000000 1.631710 
# 
# From -- ./inp_files/33830.got.cif
#   From: 2010.05.17/outbox.cif.g08.bks.cpg/sg66_17_cif.got.tgz:33830.got - 2010.06.03 17:51:23.
