data_PCOD9499643
_publ_section_title
;
Structure prediction by ZEFSAII (Michael W. Deem and Ramdas Pophale) SiO2 
 PCOD9499643
Probable space group: C C C M
;
_chemical_formula_sum "Si O2"
_cell_formula_units_Z 112
_cell_length_a 11.726072
_cell_length_b 27.948442
_cell_length_c 15.458864
_cell_angle_alpha 90.000000
_cell_angle_beta 90.000000
_cell_angle_gamma 90.000000
_cell_volume 5066.263055
_symmetry_space_group_name_H-M "C C C M"
_symmetry_group_IT_number 66
_symmetry_cell_setting 'orthorhombic'
loop_
_space_group_symop_operation_xyz
x,y,z
-x,-y,z
x,-y,1/2-z
-x,y,1/2-z
-x,-y,-z
x,y,-z
-x,y,1/2+z
x,-y,1/2+z
1/2+x,1/2+y,z
1/2-x,1/2-y,z
1/2+x,1/2-y,1/2-z
1/2-x,1/2+y,1/2-z
1/2-x,1/2-y,-z
1/2+x,1/2+y,-z
1/2-x,1/2+y,1/2+z
1/2+x,1/2-y,1/2+z
loop_
_atom_site_type_symbol
_atom_site_label
_atom_site_fract_x
_atom_site_fract_y
_atom_site_fract_z
Si Si1 0.544033 0.050092 0.151622
Si Si2 0.071241 0.883699 0.097407
Si Si3 0.017818 0.657132 0.098596
Si Si4 0.795967 0.699300 0.847725
Si Si5 0.800518 0.897168 0.906108
Si Si6 0.237222 0.195195 0.648288
Si Si7 0.790666 0.947718 0.726886
O O1 0.500000 0.051768 0.250000
O O2 0.503952 0.099890 0.110042
O O3 0.679900 0.048281 0.165582
O O4 0.500000 0.000000 0.112629
O O5 0.125311 0.831361 0.113669
O O6 0.121993 0.916107 0.173170
O O7 0.935770 0.888119 0.101346
O O8 0.106623 0.898720 0.000000
O O9 0.149642 0.667364 0.119137
O O10 0.932060 0.689593 0.155500
O O11 0.995377 0.670540 0.000000
O O12 0.750000 0.750000 0.881052
O O13 0.754950 0.654814 0.903464
O O14 0.741236 0.694122 0.752434
O O15 0.761032 0.924301 0.819710
O O16 0.777261 0.920401 0.000000
O O17 0.250000 0.250000 0.619977
O O18 0.835554 0.000000 0.750000
#
# Coordination Sequence:
#
# PCOD9499643 Si02
#       7
#    16  16  16  16  16  16  16
#     4  11  22  41  68  96 133 175 229 282 340 397
#     4  11  25  45  70 101 137 176 230 288 338 405
#     4  12  25  42  67 100 140 179 226 284 348 415
#     4  11  25  44  68  98 136 184 232 282 341 411
#     4  11  25  45  69 100 139 180 228 283 339 410
#     4  11  24  43  71 100 134 181 231 284 342 410
#     4  12  24  44  73 100 132 178 226 282 347 412
#
# _framework density 22.107023999999999
#
# number of rings (size 3 to 8) (size 9 to 14) (size 15 to 20)
#    0.000    0.714    4.286    3.429    2.000    4.286 
#    0.000    1.429    0.000    0.429    0.000    0.000 
#    0.000    0.000    0.000    0.000    0.000    0.000 
#
# Total GULP energy -313115.372709 kJ/mol
# GULP energy per Si atom -5591.345941 kJ/mol
# Density = 2.205671 g / cm^3
# Si number density = 22.107024 Si / 1000 Ang^3
#
#
#
# Elastic Constant Matrix: (Units=GPa)
#
#
# Indices 1 2 3 4 5 6 
#
# 1 56.5200 4.3182 -2.6477 0.0000 0.0000 0.0000
# 2 4.3182 126.7474 17.4981 0.0000 0.0000 0.0000
# 3 -2.6477 17.4981 91.0519 0.0000 0.0000 0.0000
# 4 0.0000 0.0000 0.0000 24.8037 0.0000 0.0000
# 5 0.0000 0.0000 0.0000 0.0000 -4.1823 0.0000
# 6 0.0000 0.0000 0.0000 0.0000 0.0000 16.8108
#
#
#
# Elastic Compliance Matrix: (Units=1/GPa)
#
#
# Indices 1 2 3 4 5 6 
#
# 1 0.017776 -0.000695 0.000651 0.000000 0.000000 0.000000
# 2 -0.000695 0.008132 -0.001583 0.000000 0.000000 0.000000
# 3 0.000651 -0.001583 0.011306 0.000000 0.000000 0.000000
# 4 0.000000 0.000000 0.000000 0.040317 0.000000 0.000000
# 5 0.000000 0.000000 0.000000 0.000000 -0.239104 0.000000
# 6 0.000000 0.000000 0.000000 0.000000 0.000000 0.059485
#
#
# Mechanical properties :
#
#
# Convention : Reuss Voigt Hill
#
# Bulk Modulus (GPa) = 29.44768 34.73962 32.09365
# Shear Modulus (GPa) = -57.13501 24.49649 -16.31926
#
# Velocity S-wave (km/s) = -5.08929 3.33240 -2.71992
# Velocity P-wave (km/s) = 4.60272 5.52765 2.16448
#
# Compressibility (1/GPa) = 0.03395853
#
# Stress axis : x y z
#
# Youngs Moduli (GPa) = 56.25418 122.97182 88.44957
#
# Poissons Ratio (x) = 0.08552 -0.05754
# Poissons Ratio (y) = 0.03912 0.14002
# Poissons Ratio (z) = -0.03660 0.19466
#
# Static dielectric constant tensor:
#      x y z
#    x 1.880510 0.000000 0.000000 
#    y 0.000000 1.817280 0.000000 
#    z 0.000000 0.000000 1.816750 
# 
# From -- ./inp_files/26982.got.cif
#   From: 2010.05.17/outbox.cif.g08.bks.cpg/sg66_14_cif.got.tgz:26982.got - 2010.06.03 17:51:23.
