data_PCOD9499529
_publ_section_title
;
Structure prediction by ZEFSAII (Michael W. Deem and Ramdas Pophale) SiO2 
 PCOD9499529
Probable space group: C C C M
;
_chemical_formula_sum "Si O2"
_cell_formula_units_Z 96
_cell_length_a 22.427835
_cell_length_b 8.139976
_cell_length_c 24.774317
_cell_angle_alpha 90.000000
_cell_angle_beta 90.000000
_cell_angle_gamma 90.000000
_cell_volume 4522.849817
_symmetry_space_group_name_H-M "C C C M"
_symmetry_group_IT_number 66
_symmetry_cell_setting 'orthorhombic'
loop_
_space_group_symop_operation_xyz
x,y,z
-x,-y,z
x,-y,1/2-z
-x,y,1/2-z
-x,-y,-z
x,y,-z
-x,y,1/2+z
x,-y,1/2+z
1/2+x,1/2+y,z
1/2-x,1/2-y,z
1/2+x,1/2-y,1/2-z
1/2-x,1/2+y,1/2-z
1/2-x,1/2-y,-z
1/2+x,1/2+y,-z
1/2-x,1/2+y,1/2+z
1/2+x,1/2-y,1/2+z
loop_
_atom_site_type_symbol
_atom_site_label
_atom_site_fract_x
_atom_site_fract_y
_atom_site_fract_z
Si Si1 0.984292 0.239120 0.687959
Si Si2 0.693810 0.478899 0.937665
Si Si3 0.179176 0.242446 0.730099
Si Si4 0.092305 0.442187 0.662134
Si Si5 0.866932 0.079529 0.332867
Si Si6 0.330888 0.087437 0.437955
O O1 0.944840 0.405266 0.684247
O O2 0.938324 0.101909 0.667510
O O3 0.000000 0.205461 0.750000
O O4 0.045359 0.290435 0.658788
O O5 0.659115 0.580941 0.892770
O O6 0.675294 0.286150 0.932298
O O7 0.764802 0.483009 0.927351
O O8 0.683253 0.527379 0.000000
O O9 0.250000 0.250000 0.725200
O O10 0.145675 0.391444 0.701573
O O11 0.160627 0.214223 0.792014
O O12 0.154884 0.087230 0.695844
O O13 0.121180 0.475651 0.604313
O O14 0.346203 0.052509 0.500000
#
# Coordination Sequence:
#
# PCOD9499529 Si02
#       6
#    16  16  16  16  16  16
#     4  11  25  43  61  87 127 182 216 261 321 388
#     4   9  18  37  63  94 129 165 209 264 330 392
#     4  11  24  39  61  95 130 160 207 271 329 390
#     4  11  21  41  65  88 126 171 221 258 318 388
#     4  11  23  39  60  97 125 167 213 267 318 382
#     4   9  18  36  65  93 124 168 215 261 322 396
#
# _framework density 21.225555
#
# number of rings (size 3 to 8) (size 9 to 14) (size 15 to 20)
#    0.000    1.667    3.333    3.000    0.000    4.667 
#    0.000    3.333    0.000    4.500    0.000    0.000 
#    0.000    0.000    0.000    0.000    0.000    0.000 
#
# Total GULP energy -268471.656406 kJ/mol
# GULP energy per Si atom -5593.159508 kJ/mol
# Density = 2.117724 g / cm^3
# Si number density = 21.225555 Si / 1000 Ang^3
#
#
#
# Elastic Constant Matrix: (Units=GPa)
#
#
# Indices 1 2 3 4 5 6 
#
# 1 158.0805 31.3073 79.8073 0.0000 0.0000 0.0000
# 2 31.3073 52.9092 24.2598 0.0000 0.0000 0.0000
# 3 79.8073 24.2598 155.0269 0.0000 0.0000 0.0000
# 4 0.0000 0.0000 0.0000 -11.0307 0.0000 0.0000
# 5 0.0000 0.0000 0.0000 0.0000 30.2788 0.0000
# 6 0.0000 0.0000 0.0000 0.0000 0.0000 29.8186
#
#
#
# Elastic Compliance Matrix: (Units=1/GPa)
#
#
# Indices 1 2 3 4 5 6 
#
# 1 0.009109 -0.003490 -0.004143 0.000000 0.000000 0.000000
# 2 -0.003490 0.021699 -0.001599 0.000000 0.000000 0.000000
# 3 -0.004143 -0.001599 0.008833 0.000000 0.000000 0.000000
# 4 0.000000 0.000000 0.000000 -0.090656 0.000000 0.000000
# 5 0.000000 0.000000 0.000000 0.000000 0.033026 0.000000
# 6 0.000000 0.000000 0.000000 0.000000 0.000000 0.033536
#
#
# Mechanical properties :
#
#
# Convention : Reuss Voigt Hill
#
# Bulk Modulus (GPa) = 47.22139 70.75169 58.98654
# Shear Modulus (GPa) = 121.74464 25.18951 73.46707
#
# Velocity S-wave (km/s) = 7.58169 3.44867 5.88963
# Velocity P-wave (km/s) = 9.94678 7.01879 8.60819
#
# Compressibility (1/GPa) = 0.02117684
#
# Stress axis : x y z
#
# Youngs Moduli (GPa) = 109.78541 46.08598 113.20580
#
# Poissons Ratio (x) = 0.16085 0.46901
# Poissons Ratio (y) = 0.38317 0.18100
# Poissons Ratio (z) = 0.45484 0.07368
#
# Static dielectric constant tensor:
#      x y z
#    x 1.751140 0.000000 0.000000 
#    y 0.000000 1.902610 0.000000 
#    z 0.000000 0.000000 1.734770 
# 
# From -- ./inp_files/59819.got.cif
#   From: 2010.05.17/outbox.cif.g08.bks.cpg/sg66_30_cif.got.tgz:59819.got - 2010.06.03 17:51:23.
