data_PCOD9499082
_publ_section_title
;
Structure prediction by ZEFSAII (Michael W. Deem and Ramdas Pophale) SiO2 
 PCOD9499082
Probable space group: C C C M
;
_chemical_formula_sum "Si O2"
_cell_formula_units_Z 112
_cell_length_a 14.740334
_cell_length_b 22.176588
_cell_length_c 17.352961
_cell_angle_alpha 90.000000
_cell_angle_beta 90.000000
_cell_angle_gamma 90.000000
_cell_volume 5672.514872
_symmetry_space_group_name_H-M "C C C M"
_symmetry_group_IT_number 66
_symmetry_cell_setting 'orthorhombic'
loop_
_space_group_symop_operation_xyz
x,y,z
-x,-y,z
x,-y,1/2-z
-x,y,1/2-z
-x,-y,-z
x,y,-z
-x,y,1/2+z
x,-y,1/2+z
1/2+x,1/2+y,z
1/2-x,1/2-y,z
1/2+x,1/2-y,1/2-z
1/2-x,1/2+y,1/2-z
1/2-x,1/2-y,-z
1/2+x,1/2+y,-z
1/2-x,1/2+y,1/2+z
1/2+x,1/2-y,1/2+z
loop_
_atom_site_type_symbol
_atom_site_label
_atom_site_fract_x
_atom_site_fract_y
_atom_site_fract_z
Si Si1 0.604428 0.480766 0.335273
Si Si2 0.094524 0.633287 0.703902
Si Si3 0.085022 0.157267 0.191408
Si Si4 0.238740 0.931585 0.911066
Si Si5 0.257212 0.681727 0.192486
Si Si6 0.896081 0.479022 0.409081
Si Si7 0.640478 0.240537 0.590505
O O1 0.500000 0.500000 0.341576
O O2 0.637205 0.500000 0.250000
O O3 0.609250 0.409139 0.338109
O O4 0.663160 0.517889 0.395127
O O5 0.167646 0.655861 0.766346
O O6 0.117625 0.573276 0.654406
O O7 0.099882 0.685814 0.639848
O O8 0.000000 0.626990 0.750000
O O9 0.165750 0.183504 0.242894
O O10 0.083151 0.201715 0.119130
O O11 0.000000 0.153764 0.250000
O O12 0.216667 0.870474 0.866822
O O13 0.332300 0.964485 0.888062
O O14 0.245430 0.917172 0.000000
O O15 0.250000 0.750000 0.161665
O O16 0.875936 0.461961 0.500000
O O17 0.000000 0.500000 0.406679
O O18 0.630024 0.229984 0.500000
O O19 0.750000 0.250000 0.603937
#
# Coordination Sequence:
#
# PCOD9499082 Si02
#       7
#    16  16  16  16  16  16  16
#     4  11  21  40  67  96 122 163 206 268 320 380
#     4  12  23  40  69  96 126 171 218 263 318 383
#     4  12  21  40  69  94 128 168 214 264 323 379
#     4  11  25  42  65  94 129 170 210 264 327 382
#     4  12  24  41  63  93 127 168 221 268 309 379
#     4  10  23  43  64  94 132 164 206 266 326 383
#     4  11  24  42  64  98 135 168 213 271 327 376
#
# _framework density 19.744327999999999
#
# number of rings (size 3 to 8) (size 9 to 14) (size 15 to 20)
#    0.000    0.714    5.714    2.571    0.000    2.571 
#    0.000    2.857    0.000    0.000    0.000    0.000 
#    0.000    0.000    0.000    0.000    0.000    0.000 
#
# Total GULP energy -312738.963819 kJ/mol
# GULP energy per Si atom -5584.624354 kJ/mol
# Density = 1.969939 g / cm^3
# Si number density = 19.744328 Si / 1000 Ang^3
#
#
#
# Elastic Constant Matrix: (Units=GPa)
#
#
# Indices 1 2 3 4 5 6 
#
# 1 37.0322 -25.4748 -0.7774 0.0000 0.0000 0.0000
# 2 -25.4748 75.6474 27.2232 0.0000 0.0000 0.0000
# 3 -0.7774 27.2232 63.3113 0.0000 0.0000 0.0000
# 4 0.0000 0.0000 0.0000 20.7915 0.0000 0.0000
# 5 0.0000 0.0000 0.0000 0.0000 28.1041 0.0000
# 6 0.0000 0.0000 0.0000 0.0000 0.0000 29.3723
#
#
#
# Elastic Compliance Matrix: (Units=1/GPa)
#
#
# Indices 1 2 3 4 5 6 
#
# 1 0.036849 0.014488 -0.005777 0.000000 0.000000 0.000000
# 2 0.014488 0.021336 -0.008996 0.000000 0.000000 0.000000
# 3 -0.005777 -0.008996 0.019592 0.000000 0.000000 0.000000
# 4 0.000000 0.000000 0.000000 0.048097 0.000000 0.000000
# 5 0.000000 0.000000 0.000000 0.000000 0.035582 0.000000
# 6 0.000000 0.000000 0.000000 0.000000 0.000000 0.034046
#
#
# Mechanical properties :
#
#
# Convention : Reuss Voigt Hill
#
# Bulk Modulus (GPa) = 12.95235 19.77033 16.36134
# Shear Modulus (GPa) = 22.54209 27.32155 24.93182
#
# Velocity S-wave (km/s) = 3.38257 3.72394 3.55735
# Velocity P-wave (km/s) = 4.67226 5.34090 5.01773
#
# Compressibility (1/GPa) = 0.07720606
#
# Stress axis : x y z
#
# Youngs Moduli (GPa) = 27.13794 46.86983 51.04039
#
# Poissons Ratio (x) = -0.67906 0.29487
# Poissons Ratio (y) = -0.39318 0.45917
# Poissons Ratio (z) = 0.15678 0.42165
#
# Static dielectric constant tensor:
#      x y z
#    x 1.709200 0.000000 0.000000 
#    y 0.000000 1.775050 0.000000 
#    z 0.000000 0.000000 1.700710 
# 
# From -- ./inp_files/28700.got.cif
#   From: 2010.05.17/outbox.cif.g08.bks.cpg/sg66_15_cif.got.tgz:28700.got - 2010.06.03 17:51:23.
