data_PCOD9499829
_publ_section_title
;
Structure prediction by ZEFSAII (Michael W. Deem and Ramdas Pophale) SiO2 
 PCOD9499829
Probable space group: C C C M
;
_chemical_formula_sum "Si O2"
_cell_formula_units_Z 88
_cell_length_a 11.410859
_cell_length_b 21.271144
_cell_length_c 16.884056
_cell_angle_alpha 90.000000
_cell_angle_beta 90.000000
_cell_angle_gamma 90.000000
_cell_volume 4098.132262
_symmetry_space_group_name_H-M "C C C M"
_symmetry_group_IT_number 66
_symmetry_cell_setting 'orthorhombic'
loop_
_space_group_symop_operation_xyz
x,y,z
-x,-y,z
x,-y,1/2-z
-x,y,1/2-z
-x,-y,-z
x,y,-z
-x,y,1/2+z
x,-y,1/2+z
1/2+x,1/2+y,z
1/2-x,1/2-y,z
1/2+x,1/2-y,1/2-z
1/2-x,1/2+y,1/2-z
1/2-x,1/2-y,-z
1/2+x,1/2+y,-z
1/2-x,1/2+y,1/2+z
1/2+x,1/2-y,1/2+z
loop_
_atom_site_type_symbol
_atom_site_label
_atom_site_fract_x
_atom_site_fract_y
_atom_site_fract_z
Si Si1 0.255207 0.850372 0.000000
Si Si2 0.449781 0.258451 0.500000
Si Si3 0.382893 0.761829 0.649788
Si Si4 0.000000 0.626680 0.250000
Si Si5 0.129935 0.030518 0.093303
Si Si6 0.380893 0.369887 0.214536
Si Si7 0.792726 0.572781 0.339989
O O1 0.349279 0.794536 0.000000
O O2 0.123072 0.823353 0.000000
O O3 0.276759 0.890568 0.921996
O O4 0.527448 0.249696 0.578238
O O5 0.250000 0.750000 0.619372
O O6 0.420158 0.825964 0.695298
O O7 0.388637 0.704666 0.711808
O O8 0.076410 0.582237 0.192352
O O9 0.131071 0.100753 0.127606
O O10 0.229993 0.993543 0.142644
O O11 0.154978 0.027850 0.000000
O O12 0.000000 0.000000 0.104841
O O13 0.500000 0.396806 0.250000
O O14 0.282098 0.392536 0.273159
#
# Coordination Sequence:
#
# PCOD9499829 Si02
#       7
#     8   8  16   8  16  16  16
#     4  11  24  42  70 104 141 195 234 299 359 444
#     4  11  25  40  65 103 147 188 240 287 378 433
#     4  12  25  43  67 100 144 191 239 303 357 439
#     4  12  26  44  73 106 141 200 246 292 370 434
#     4  11  25  43  71 107 142 184 237 301 368 431
#     4  12  24  40  69 106 145 182 238 305 371 427
#     4  12  24  46  71 103 146 188 245 296 357 431
#
# _framework density 21.473196000000002
#
# number of rings (size 3 to 8) (size 9 to 14) (size 15 to 20)
#    0.000    0.364    7.273    1.909    1.273    0.000 
#    0.000    1.818    2.000    1.091    0.000    0.000 
#    0.000    0.000    0.000    0.000    0.000    0.000 
#
# Total GULP energy -245850.083803 kJ/mol
# GULP energy per Si atom -5587.501905 kJ/mol
# Density = 2.142432 g / cm^3
# Si number density = 21.473196 Si / 1000 Ang^3
#
#
#
# Elastic Constant Matrix: (Units=GPa)
#
#
# Indices 1 2 3 4 5 6 
#
# 1 118.2383 24.8901 36.0479 0.0000 0.0000 0.0000
# 2 24.8901 56.3388 13.0595 0.0000 0.0000 0.0000
# 3 36.0479 13.0595 93.3648 0.0000 0.0000 0.0000
# 4 0.0000 0.0000 0.0000 -27.8321 0.0000 0.0000
# 5 0.0000 0.0000 0.0000 0.0000 46.5416 0.0000
# 6 0.0000 0.0000 0.0000 0.0000 0.0000 16.9896
#
#
#
# Elastic Compliance Matrix: (Units=1/GPa)
#
#
# Indices 1 2 3 4 5 6 
#
# 1 0.010299 -0.003750 -0.003452 0.000000 0.000000 0.000000
# 2 -0.003750 0.019710 -0.001309 0.000000 0.000000 0.000000
# 3 -0.003452 -0.001309 0.012227 0.000000 0.000000 0.000000
# 4 0.000000 0.000000 0.000000 -0.035930 0.000000 0.000000
# 5 0.000000 0.000000 0.000000 0.000000 0.021486 0.000000
# 6 0.000000 0.000000 0.000000 0.000000 0.000000 0.058859
#
#
# Mechanical properties :
#
#
# Convention : Reuss Voigt Hill
#
# Bulk Modulus (GPa) = 39.66099 46.21521 42.93810
# Shear Modulus (GPa) = 44.61162 20.06946 32.34054
#
# Velocity S-wave (km/s) = 4.56296 3.06049 3.88505
# Velocity P-wave (km/s) = 6.80227 5.83590 6.33753
#
# Compressibility (1/GPa) = 0.02521369
#
# Stress axis : x y z
#
# Youngs Moduli (GPa) = 97.09369 50.73585 81.78890
#
# Poissons Ratio (x) = 0.19026 0.28234
# Poissons Ratio (y) = 0.36410 0.10707
# Poissons Ratio (z) = 0.33517 0.06642
#
# Static dielectric constant tensor:
#      x y z
#    x 1.864620 0.000000 0.000000 
#    y 0.000000 1.833220 0.000000 
#    z 0.000000 0.000000 1.754060 
# 
# From -- ./inp_files/26584.got.cif
#   From: 2010.05.17/outbox.cif.g08.bks.cpg/sg66_14_cif.got.tgz:26584.got - 2010.06.03 17:51:23.
