data_PCOD9499230
_publ_section_title
;
Structure prediction by ZEFSAII (Michael W. Deem and Ramdas Pophale) SiO2 
 PCOD9499230
Probable space group: C C C M
;
_chemical_formula_sum "Si O2"
_cell_formula_units_Z 52
_cell_length_a 11.478098
_cell_length_b 23.841572
_cell_length_c 9.703318
_cell_angle_alpha 90.000000
_cell_angle_beta 90.000000
_cell_angle_gamma 90.000000
_cell_volume 2655.370219
_symmetry_space_group_name_H-M "C C C M"
_symmetry_group_IT_number 66
_symmetry_cell_setting 'orthorhombic'
loop_
_space_group_symop_operation_xyz
x,y,z
-x,-y,z
x,-y,1/2-z
-x,y,1/2-z
-x,-y,-z
x,y,-z
-x,y,1/2+z
x,-y,1/2+z
1/2+x,1/2+y,z
1/2-x,1/2-y,z
1/2+x,1/2-y,1/2-z
1/2-x,1/2+y,1/2-z
1/2-x,1/2-y,-z
1/2+x,1/2+y,-z
1/2-x,1/2+y,1/2+z
1/2+x,1/2-y,1/2+z
loop_
_atom_site_type_symbol
_atom_site_label
_atom_site_fract_x
_atom_site_fract_y
_atom_site_fract_z
Si Si1 0.450599 0.678953 0.500000
Si Si2 0.000000 0.000000 0.250000
Si Si3 0.684931 0.874830 0.500000
Si Si4 0.110723 0.068008 0.500000
Si Si5 0.249867 0.814610 0.724357
Si Si6 0.050776 0.689149 0.500000
O O1 0.544933 0.629343 0.500000
O O2 0.364148 0.673489 0.632042
O O3 0.490791 0.744979 0.500000
O O4 0.929228 0.961833 0.358694
O O5 0.747914 0.934475 0.500000
O O6 0.737381 0.849880 0.639951
O O7 0.552182 0.855556 0.500000
O O8 0.250000 0.750000 0.766462
O O9 0.364262 0.820018 0.629369
#
# Coordination Sequence:
#
# PCOD9499230 Si02
#       6
#     8   4   8   8  16   8
#     4   9  19  37  54  78 114 161 182 217 280 348
#     4  10  24  46  56  82 110 142 196 266 296 338
#     4  12  21  31  53  90 109 151 187 233 272 338
#     4  11  23  38  63  83 107 140 194 251 306 327
#     4   9  19  33  49  76 121 161 186 208 257 329
#     4   9  20  35  50  79 129 159 177 213 263 352
#
# _framework density 19.582957
#
# number of rings (size 3 to 8) (size 9 to 14) (size 15 to 20)
#    0.000    2.154    0.000    5.077    4.308    0.000 
#    0.000    0.000    0.000    0.000    0.000   73.231 
#    0.000    0.000    0.000    0.000    0.000    0.000 
#
# Total GULP energy -144913.532878 kJ/mol
# GULP energy per Si atom -5573.597418 kJ/mol
# Density = 1.953839 g / cm^3
# Si number density = 19.582957 Si / 1000 Ang^3
#
#
#
# Elastic Constant Matrix: (Units=GPa)
#
#
# Indices 1 2 3 4 5 6 
#
# 1 90.5165 39.8150 -6.3943 0.0000 0.0000 0.0000
# 2 39.8150 44.3402 13.9884 0.0000 0.0000 0.0000
# 3 -6.3943 13.9884 89.8460 0.0000 0.0000 0.0000
# 4 0.0000 0.0000 0.0000 7.3698 0.0000 0.0000
# 5 0.0000 0.0000 0.0000 0.0000 -1.0809 0.0000
# 6 0.0000 0.0000 0.0000 0.0000 0.0000 49.1010
#
#
#
# Elastic Compliance Matrix: (Units=1/GPa)
#
#
# Indices 1 2 3 4 5 6 
#
# 1 0.019779 -0.019145 0.004388 0.000000 0.000000 0.000000
# 2 -0.019145 0.042249 -0.007940 0.000000 0.000000 0.000000
# 3 0.004388 -0.007940 0.012679 0.000000 0.000000 0.000000
# 4 0.000000 0.000000 0.000000 0.135688 0.000000 0.000000
# 5 0.000000 0.000000 0.000000 0.000000 -0.925194 0.000000
# 6 0.000000 0.000000 0.000000 0.000000 0.000000 0.020366
#
#
# Mechanical properties :
#
#
# Convention : Reuss Voigt Hill
#
# Bulk Modulus (GPa) = 34.11469 35.50232 34.80850
# Shear Modulus (GPa) = -7.82143 22.89758 7.53807
#
# Velocity S-wave (km/s) = -2.00067 3.42315 1.96409
# Velocity P-wave (km/s) = 3.48160 5.81313 4.79135
#
# Compressibility (1/GPa) = 0.02931289
#
# Stress axis : x y z
#
# Youngs Moduli (GPa) = 50.55938 23.66942 78.87225
#
# Poissons Ratio (x) = 0.45314 -0.34612
# Poissons Ratio (y) = 0.96794 0.62627
# Poissons Ratio (z) = -0.22187 0.18794
#
# Static dielectric constant tensor:
#      x y z
#    x 1.775990 0.000000 0.000000 
#    y 0.000000 1.714250 0.000000 
#    z 0.000000 0.000000 1.684060 
# 
# From -- ./inp_files/3676.got.cif
#   From: 2010.05.17/outbox.cif.g08.bks.cpg/sg66_2_cif.got.tgz:3676.got - 2010.06.03 17:51:23.
