data_PCOD9499701
_publ_section_title
;
Structure prediction by ZEFSAII (Michael W. Deem and Ramdas Pophale) SiO2 
 PCOD9499701
Probable space group: C C C M
;
_chemical_formula_sum "Si O2"
_cell_formula_units_Z 52
_cell_length_a 27.133893
_cell_length_b 4.877276
_cell_length_c 18.397877
_cell_angle_alpha 90.000000
_cell_angle_beta 90.000000
_cell_angle_gamma 90.000000
_cell_volume 2434.765569
_symmetry_space_group_name_H-M "C C C M"
_symmetry_group_IT_number 66
_symmetry_cell_setting 'orthorhombic'
loop_
_space_group_symop_operation_xyz
x,y,z
-x,-y,z
x,-y,1/2-z
-x,y,1/2-z
-x,-y,-z
x,y,-z
-x,y,1/2+z
x,-y,1/2+z
1/2+x,1/2+y,z
1/2-x,1/2-y,z
1/2+x,1/2-y,1/2-z
1/2-x,1/2+y,1/2-z
1/2-x,1/2-y,-z
1/2+x,1/2+y,-z
1/2-x,1/2+y,1/2+z
1/2+x,1/2-y,1/2+z
loop_
_atom_site_type_symbol
_atom_site_label
_atom_site_fract_x
_atom_site_fract_y
_atom_site_fract_z
Si Si1 0.500000 0.500000 0.750000
Si Si2 0.951205 0.651416 0.125613
Si Si3 0.610271 0.342615 0.916578
Si Si4 0.716280 0.482503 0.584087
O O1 0.532007 0.700383 0.800458
O O2 0.911784 0.407540 0.129157
O O3 0.000000 0.500000 0.094758
O O4 0.927438 0.903437 0.082455
O O5 0.662441 0.448438 0.886313
O O6 0.617517 0.243707 0.000000
O O7 0.706214 0.393433 0.500000
O O8 0.750000 0.750000 0.582300
O O9 0.750000 0.250000 0.619589
#
# Coordination Sequence:
#
# PCOD9499701 Si02
#       4
#     4  16  16  16
#     4  12  26  48  60  80 114 160 230 262 298 360
#     4  12  24  41  62  83 121 160 207 256 299 357
#     4  11  23  37  59  96 129 159 196 238 314 375
#     4   9  17  32  54  82 124 165 191 224 275 356
#
# _framework density 21.357291
#
# number of rings (size 3 to 8) (size 9 to 14) (size 15 to 20)
#    0.000    1.231    3.077    3.231    0.000    8.615 
#    0.000    0.000    0.000    0.000    0.000    6.462 
#    0.000    0.000    0.000    0.000    0.000    0.000 
#
# Total GULP energy -145153.438653 kJ/mol
# GULP energy per Si atom -5582.824564 kJ/mol
# Density = 2.130868 g / cm^3
# Si number density = 21.357291 Si / 1000 Ang^3
#
#
#
# Elastic Constant Matrix: (Units=GPa)
#
#
# Indices 1 2 3 4 5 6 
#
# 1 139.8340 70.1928 44.3965 0.0000 0.0000 0.0000
# 2 70.1928 158.3042 34.6058 0.0000 0.0000 0.0000
# 3 44.3965 34.6058 45.7498 0.0000 0.0000 0.0000
# 4 0.0000 0.0000 0.0000 4.3883 0.0000 0.0000
# 5 0.0000 0.0000 0.0000 0.0000 -1.6508 0.0000
# 6 0.0000 0.0000 0.0000 0.0000 0.0000 53.1929
#
#
#
# Elastic Compliance Matrix: (Units=1/GPa)
#
#
# Indices 1 2 3 4 5 6 
#
# 1 0.011546 -0.003199 -0.008785 0.000000 0.000000 0.000000
# 2 -0.003199 0.008455 -0.003291 0.000000 0.000000 0.000000
# 3 -0.008785 -0.003291 0.032872 0.000000 0.000000 0.000000
# 4 0.000000 0.000000 0.000000 0.227880 0.000000 0.000000
# 5 0.000000 0.000000 0.000000 0.000000 -0.605769 0.000000
# 6 0.000000 0.000000 0.000000 0.000000 0.000000 0.018800
#
#
# Mechanical properties :
#
#
# Convention : Reuss Voigt Hill
#
# Bulk Modulus (GPa) = 44.79546 71.36425 58.07986
# Shear Modulus (GPa) = -18.64114 24.16560 2.76223
#
# Velocity S-wave (km/s) = -2.95756 3.36741 1.13849
# Velocity P-wave (km/s) = 3.05891 6.97182 5.38346
#
# Compressibility (1/GPa) = 0.02232369
#
# Stress axis : x y z
#
# Youngs Moduli (GPa) = 86.60645 118.27436 30.42083
#
# Poissons Ratio (x) = 0.37840 0.26724
# Poissons Ratio (y) = 0.27708 0.10011
# Poissons Ratio (z) = 0.76083 0.38921
#
# Static dielectric constant tensor:
#      x y z
#    x 1.803640 0.000000 0.000000 
#    y 0.000000 1.772560 0.000000 
#    z 0.000000 0.000000 1.760580 
# 
# From -- ./inp_files/52150.got.cif
#   From: 2010.05.17/outbox.cif.g08.bks.cpg/sg66_27_cif.got.tgz:52150.got - 2010.06.03 17:51:23.
