data_PCOD9499668
_publ_section_title
;
Structure prediction by ZEFSAII (Michael W. Deem and Ramdas Pophale) SiO2 
 PCOD9499668
Probable space group: C C C M
;
_chemical_formula_sum "Si O2"
_cell_formula_units_Z 68
_cell_length_a 22.967949
_cell_length_b 9.046869
_cell_length_c 15.984800
_cell_angle_alpha 90.000000
_cell_angle_beta 90.000000
_cell_angle_gamma 90.000000
_cell_volume 3321.450035
_symmetry_space_group_name_H-M "C C C M"
_symmetry_group_IT_number 66
_symmetry_cell_setting 'orthorhombic'
loop_
_space_group_symop_operation_xyz
x,y,z
-x,-y,z
x,-y,1/2-z
-x,y,1/2-z
-x,-y,-z
x,y,-z
-x,y,1/2+z
x,-y,1/2+z
1/2+x,1/2+y,z
1/2-x,1/2-y,z
1/2+x,1/2-y,1/2-z
1/2-x,1/2+y,1/2-z
1/2-x,1/2-y,-z
1/2+x,1/2+y,-z
1/2-x,1/2+y,1/2+z
1/2+x,1/2-y,1/2+z
loop_
_atom_site_type_symbol
_atom_site_label
_atom_site_fract_x
_atom_site_fract_y
_atom_site_fract_z
Si Si1 0.084200 0.248534 0.215343
Si Si2 0.206167 0.884057 0.317806
Si Si3 0.434418 0.961190 0.871560
Si Si4 0.787059 0.975583 0.500000
Si Si5 0.500000 0.500000 0.750000
Si Si6 0.341008 0.850311 0.000000
O O1 0.146979 0.175484 0.224564
O O2 0.089638 0.375079 0.146490
O O3 0.061045 0.348501 0.292894
O O4 0.040835 0.112244 0.198782
O O5 0.250000 0.750000 0.326796
O O6 0.230969 0.000000 0.250000
O O7 0.196534 0.947857 0.411505
O O8 0.384790 0.883246 0.924768
O O9 0.500000 0.000000 0.901685
O O10 0.716895 0.951197 0.500000
O O11 0.817553 0.815827 0.500000
#
# Coordination Sequence:
#
# PCOD9499668 Si02
#       6
#    16  16  16   8   4   8
#     4  11  23  40  70  96 137 175 236 285 352 422
#     4  12  27  43  71 103 140 190 242 297 371 436
#     4  11  22  43  66 100 131 183 232 287 351 439
#     4  11  27  48  65 103 146 185 244 306 359 424
#     4  12  20  42  64 102 136 178 214 302 344 416
#     4  11  25  42  71  90 142 180 231 295 362 423
#
# _framework density 20.472985999999999
#
# number of rings (size 3 to 8) (size 9 to 14) (size 15 to 20)
#    0.000    0.706    3.529    4.235    9.882    0.941 
#    0.000    0.000    0.000    3.529    0.000    0.000 
#    0.000    0.000    0.000    0.000    0.000    0.000 
#
# Total GULP energy -189553.155149 kJ/mol
# GULP energy per Si atom -5575.092799 kJ/mol
# Density = 2.042639 g / cm^3
# Si number density = 20.472986 Si / 1000 Ang^3
#
#
#
# Elastic Constant Matrix: (Units=GPa)
#
#
# Indices 1 2 3 4 5 6 
#
# 1 114.8529 37.1156 17.2874 0.0000 0.0000 0.0000
# 2 37.1156 132.6086 41.4301 0.0000 0.0000 0.0000
# 3 17.2874 41.4301 82.5222 0.0000 0.0000 0.0000
# 4 0.0000 0.0000 0.0000 15.8974 0.0000 0.0000
# 5 0.0000 0.0000 0.0000 0.0000 29.0012 0.0000
# 6 0.0000 0.0000 0.0000 0.0000 0.0000 46.1361
#
#
#
# Elastic Compliance Matrix: (Units=1/GPa)
#
#
# Indices 1 2 3 4 5 6 
#
# 1 0.009615 -0.002446 -0.000787 0.000000 0.000000 0.000000
# 2 -0.002446 0.009566 -0.004290 0.000000 0.000000 0.000000
# 3 -0.000787 -0.004290 0.014437 0.000000 0.000000 0.000000
# 4 0.000000 0.000000 0.000000 0.062903 0.000000 0.000000
# 5 0.000000 0.000000 0.000000 0.000000 0.034481 0.000000
# 6 0.000000 0.000000 0.000000 0.000000 0.000000 0.021675
#
#
# Mechanical properties :
#
#
# Convention : Reuss Voigt Hill
#
# Bulk Modulus (GPa) = 53.84054 57.96109 55.90081
# Shear Modulus (GPa) = 28.74995 33.81698 31.28346
#
# Velocity S-wave (km/s) = 3.75145 4.06863 3.91325
# Velocity P-wave (km/s) = 6.71713 7.10240 6.91245
#
# Compressibility (1/GPa) = 0.01857337
#
# Stress axis : x y z
#
# Youngs Moduli (GPa) = 103.99914 104.53894 69.26838
#
# Poissons Ratio (x) = 0.25565 0.05448
# Poissons Ratio (y) = 0.25433 0.29717
# Poissons Ratio (z) = 0.08180 0.44849
#
# Static dielectric constant tensor:
#      x y z
#    x 1.737910 0.000000 0.000000 
#    y 0.000000 1.723790 0.000000 
#    z 0.000000 0.000000 2.057230 
# 
# From -- ./inp_files/36568.got.cif
#   From: 2010.05.17/outbox.cif.g08.bks.cpg/sg66_19_cif.got.tgz:36568.got - 2010.06.03 17:51:23.
