data_PCOD9499301
_publ_section_title
;
Structure prediction by ZEFSAII (Michael W. Deem and Ramdas Pophale) SiO2 
 PCOD9499301
Probable space group: C C C M
;
_chemical_formula_sum "Si O2"
_cell_formula_units_Z 104
_cell_length_a 18.901857
_cell_length_b 19.060604
_cell_length_c 16.186804
_cell_angle_alpha 90.000000
_cell_angle_beta 90.000000
_cell_angle_gamma 90.000000
_cell_volume 5831.794875
_symmetry_space_group_name_H-M "C C C M"
_symmetry_group_IT_number 66
_symmetry_cell_setting 'orthorhombic'
loop_
_space_group_symop_operation_xyz
x,y,z
-x,-y,z
x,-y,1/2-z
-x,y,1/2-z
-x,-y,-z
x,y,-z
-x,y,1/2+z
x,-y,1/2+z
1/2+x,1/2+y,z
1/2-x,1/2-y,z
1/2+x,1/2-y,1/2-z
1/2-x,1/2+y,1/2-z
1/2-x,1/2-y,-z
1/2+x,1/2+y,-z
1/2-x,1/2+y,1/2+z
1/2+x,1/2-y,1/2+z
loop_
_atom_site_type_symbol
_atom_site_label
_atom_site_fract_x
_atom_site_fract_y
_atom_site_fract_z
Si Si1 0.858718 0.700985 0.689766
Si Si2 0.146254 0.300238 0.500000
Si Si3 0.659197 0.601877 0.906909
Si Si4 0.789445 0.849396 0.254863
Si Si5 0.293340 0.643310 0.000000
Si Si6 0.126513 0.058502 0.637204
Si Si7 0.000000 0.262080 0.250000
Si Si8 0.999894 0.155887 0.595597
O O1 0.882920 0.693579 0.593650
O O2 0.827560 0.779121 0.710244
O O3 0.790476 0.652445 0.710056
O O4 0.927640 0.693657 0.747178
O O5 0.209915 0.355656 0.500000
O O6 0.179872 0.222657 0.500000
O O7 0.709378 0.643755 0.843926
O O8 0.641112 0.521304 0.883917
O O9 0.582399 0.638003 0.905884
O O10 0.687531 0.602649 0.000000
O O11 0.841465 0.914146 0.277331
O O12 0.324842 0.604436 0.077241
O O13 0.047768 0.088359 0.621031
O O14 0.992488 0.212729 0.168650
O O15 0.020576 0.175793 0.500000
#
# Coordination Sequence:
#
# PCOD9499301 Si02
#       8
#    16   8  16  16   8  16   8  16
#     4  11  22  35  57  78 105 135 181 229 276 321
#     4  11  18  34  58  78 105 133 170 241 293 308
#     4  11  23  35  49  74 113 156 187 210 252 325
#     4  11  21  36  52  77 105 140 180 229 274 308
#     4  11  16  28  51  86 101 131 172 234 273 311
#     4  12  19  33  55  80 110 141 185 224 266 312
#     4  12  22  36  53  80 107 140 180 230 270 332
#     4  11  21  34  49  75 113 152 186 215 257 313
#
# _framework density 17.833275
#
# number of rings (size 3 to 8) (size 9 to 14) (size 15 to 20)
#    0.000    0.769    7.692    1.846    1.077    1.231 
#    0.000    4.615    0.000    0.000    0.000    2.154 
#    0.000    2.462    0.000    0.000    0.000    0.000 
#
# Total GULP energy -289613.872277 kJ/mol
# GULP energy per Si atom -5569.497544 kJ/mol
# Density = 1.779269 g / cm^3
# Si number density = 17.833275 Si / 1000 Ang^3
#
#
#
# Elastic Constant Matrix: (Units=GPa)
#
#
# Indices 1 2 3 4 5 6 
#
# 1 75.0513 3.0528 23.0950 0.0000 0.0000 0.0000
# 2 3.0528 13.7300 15.9150 0.0000 0.0000 0.0000
# 3 23.0950 15.9150 113.7827 0.0000 0.0000 0.0000
# 4 0.0000 0.0000 0.0000 8.0877 0.0000 0.0000
# 5 0.0000 0.0000 0.0000 0.0000 25.3055 0.0000
# 6 0.0000 0.0000 0.0000 0.0000 0.0000 6.7246
#
#
#
# Elastic Compliance Matrix: (Units=1/GPa)
#
#
# Indices 1 2 3 4 5 6 
#
# 1 0.014212 0.000219 -0.002915 0.000000 0.000000 0.000000
# 2 0.000219 0.086930 -0.012204 0.000000 0.000000 0.000000
# 3 -0.002915 -0.012204 0.011087 0.000000 0.000000 0.000000
# 4 0.000000 0.000000 0.000000 0.123644 0.000000 0.000000
# 5 0.000000 0.000000 0.000000 0.000000 0.039517 0.000000
# 6 0.000000 0.000000 0.000000 0.000000 0.000000 0.148708
#
#
# Mechanical properties :
#
#
# Convention : Reuss Voigt Hill
#
# Bulk Modulus (GPa) = 12.13143 31.85439 21.99291
# Shear Modulus (GPa) = 10.38690 18.72364 14.55527
#
# Velocity S-wave (km/s) = 2.41601 3.24377 2.86000
# Velocity P-wave (km/s) = 3.82103 5.65071 4.82342
#
# Compressibility (1/GPa) = 0.08243048
#
# Stress axis : x y z
#
# Youngs Moduli (GPa) = 70.36082 11.50351 90.19275
#
# Poissons Ratio (x) = -0.00252 0.26295
# Poissons Ratio (y) = -0.01543 1.10067
# Poissons Ratio (z) = 0.20513 0.14038
#
# Static dielectric constant tensor:
#      x y z
#    x 1.623090 0.000000 0.000000 
#    y 0.000000 1.603150 0.000000 
#    z 0.000000 0.000000 2.741730 
# 
# From -- ./inp_files/30229.got.cif
#   From: 2010.05.17/outbox.cif.g08.bks.cpg/sg66_16_cif.got.tgz:30229.got - 2010.06.03 17:51:23.
