data_PCOD9499205
_publ_section_title
;
Structure prediction by ZEFSAII (Michael W. Deem and Ramdas Pophale) SiO2 
 PCOD9499205
Probable space group: C C C M
;
_chemical_formula_sum "Si O2"
_cell_formula_units_Z 88
_cell_length_a 14.144154
_cell_length_b 17.334762
_cell_length_c 18.433031
_cell_angle_alpha 90.000000
_cell_angle_beta 90.000000
_cell_angle_gamma 90.000000
_cell_volume 4519.512720
_symmetry_space_group_name_H-M "C C C M"
_symmetry_group_IT_number 66
_symmetry_cell_setting 'orthorhombic'
loop_
_space_group_symop_operation_xyz
x,y,z
-x,-y,z
x,-y,1/2-z
-x,y,1/2-z
-x,-y,-z
x,y,-z
-x,y,1/2+z
x,-y,1/2+z
1/2+x,1/2+y,z
1/2-x,1/2-y,z
1/2+x,1/2-y,1/2-z
1/2-x,1/2+y,1/2-z
1/2-x,1/2-y,-z
1/2+x,1/2+y,-z
1/2-x,1/2+y,1/2+z
1/2+x,1/2-y,1/2+z
loop_
_atom_site_type_symbol
_atom_site_label
_atom_site_fract_x
_atom_site_fract_y
_atom_site_fract_z
Si Si1 0.993455 0.594631 0.500000
Si Si2 0.363297 0.754491 0.000000
Si Si3 0.376784 0.165516 0.121746
Si Si4 0.500000 0.818390 0.250000
Si Si5 0.643914 0.716027 0.341289
Si Si6 0.390201 0.418223 0.768640
Si Si7 0.342926 0.655397 0.585831
O O1 0.053069 0.622918 0.431726
O O2 0.000000 0.500000 0.500000
O O3 0.902667 0.655826 0.500000
O O4 0.250000 0.750000 0.000000
O O5 0.389834 0.710746 0.925232
O O6 0.418407 0.143911 0.200446
O O7 0.375332 0.258018 0.107798
O O8 0.268980 0.145975 0.102430
O O9 0.563740 0.768730 0.304712
O O10 0.750000 0.750000 0.342795
O O11 0.651787 0.644599 0.286263
O O12 0.345451 0.500000 0.750000
O O13 0.500000 0.419705 0.750000
O O14 0.386977 0.399423 0.853716
O O15 0.360053 0.643753 0.500000
#
# Coordination Sequence:
#
# PCOD9499205 Si02
#       7
#     8   8  16   8  16  16  16
#     4  12  24  43  65  97 142 167 209 291 349 382
#     4  10  24  44  67  90 125 180 234 257 316 424
#     4  11  21  39  65  98 128 175 222 272 331 398
#     4  12  20  34  68  90 126 166 220 266 322 398
#     4  11  21  40  66  91 122 173 223 265 319 407
#     4  11  24  43  61  96 140 167 208 289 354 390
#     4  11  21  40  69  96 126 174 238 275 324 408
#
# _framework density 19.471126000000002
#
# number of rings (size 3 to 8) (size 9 to 14) (size 15 to 20)
#    0.000    0.909    6.364    1.636    0.000    0.000 
#    8.182    1.364    0.000    0.000    0.000    0.000 
#    0.000    0.000    0.000    0.000    0.000    0.000 
#
# Total GULP energy -244942.258875 kJ/mol
# GULP energy per Si atom -5566.869520 kJ/mol
# Density = 1.942681 g / cm^3
# Si number density = 19.471126 Si / 1000 Ang^3
#
#
#
# Elastic Constant Matrix: (Units=GPa)
#
#
# Indices 1 2 3 4 5 6 
#
# 1 90.8236 17.7126 29.7152 0.0000 0.0000 0.0000
# 2 17.7126 55.8613 18.3709 0.0000 0.0000 0.0000
# 3 29.7152 18.3709 172.3078 0.0000 0.0000 0.0000
# 4 0.0000 0.0000 0.0000 16.8920 0.0000 0.0000
# 5 0.0000 0.0000 0.0000 0.0000 41.6790 0.0000
# 6 0.0000 0.0000 0.0000 0.0000 0.0000 10.6173
#
#
#
# Elastic Compliance Matrix: (Units=1/GPa)
#
#
# Indices 1 2 3 4 5 6 
#
# 1 0.012229 -0.003300 -0.001757 0.000000 0.000000 0.000000
# 2 -0.003300 0.019442 -0.001504 0.000000 0.000000 0.000000
# 3 -0.001757 -0.001504 0.006267 0.000000 0.000000 0.000000
# 4 0.000000 0.000000 0.000000 0.059200 0.000000 0.000000
# 5 0.000000 0.000000 0.000000 0.000000 0.023993 0.000000
# 6 0.000000 0.000000 0.000000 0.000000 0.000000 0.094186
#
#
# Mechanical properties :
#
#
# Convention : Reuss Voigt Hill
#
# Bulk Modulus (GPa) = 40.29533 50.06558 45.18045
# Shear Modulus (GPa) = 21.12292 30.71727 25.92010
#
# Velocity S-wave (km/s) = 3.29725 3.97619 3.65253
# Velocity P-wave (km/s) = 5.93596 6.84461 6.40641
#
# Compressibility (1/GPa) = 0.02481677
#
# Stress axis : x y z
#
# Youngs Moduli (GPa) = 81.77462 51.43428 159.56796
#
# Poissons Ratio (x) = 0.16971 0.28038
# Poissons Ratio (y) = 0.26983 0.23996
# Poissons Ratio (z) = 0.14369 0.07735
#
# Static dielectric constant tensor:
#      x y z
#    x 1.722180 0.000000 0.000000 
#    y 0.000000 1.738810 0.000000 
#    z 0.000000 0.000000 1.798160 
# 
# From -- ./inp_files/40379.got.cif
#   From: 2010.05.17/outbox.cif.g08.bks.cpg/sg66_21_cif.got.tgz:40379.got - 2010.06.03 17:51:23.
