data_PCOD9499607
_publ_section_title
;
Structure prediction by ZEFSAII (Michael W. Deem and Ramdas Pophale) SiO2 
 PCOD9499607
Probable space group: C C C M
;
_chemical_formula_sum "Si O2"
_cell_formula_units_Z 80
_cell_length_a 18.313372
_cell_length_b 8.703668
_cell_length_c 26.320138
_cell_angle_alpha 90.000000
_cell_angle_beta 90.000000
_cell_angle_gamma 90.000000
_cell_volume 4195.259176
_symmetry_space_group_name_H-M "C C C M"
_symmetry_group_IT_number 66
_symmetry_cell_setting 'orthorhombic'
loop_
_space_group_symop_operation_xyz
x,y,z
-x,-y,z
x,-y,1/2-z
-x,y,1/2-z
-x,-y,-z
x,y,-z
-x,y,1/2+z
x,-y,1/2+z
1/2+x,1/2+y,z
1/2-x,1/2-y,z
1/2+x,1/2-y,1/2-z
1/2-x,1/2+y,1/2-z
1/2-x,1/2-y,-z
1/2+x,1/2+y,-z
1/2-x,1/2+y,1/2+z
1/2+x,1/2-y,1/2+z
loop_
_atom_site_type_symbol
_atom_site_label
_atom_site_fract_x
_atom_site_fract_y
_atom_site_fract_z
Si Si1 0.845149 0.404533 0.398738
Si Si2 0.328651 0.344060 0.500000
Si Si3 0.082083 0.562715 0.197778
Si Si4 0.914868 0.456846 0.000000
Si Si5 0.918940 0.930212 0.695412
Si Si6 0.828016 0.050296 0.600898
O O1 0.879609 0.491121 0.351015
O O2 0.876544 0.475413 0.450158
O O3 0.860217 0.222509 0.401366
O O4 0.758764 0.429596 0.394173
O O5 0.250000 0.250000 0.500000
O O6 0.394402 0.222190 0.500000
O O7 0.336307 0.449503 0.549977
O O8 0.116769 0.500000 0.250000
O O9 0.078866 0.746326 0.198782
O O10 0.000000 0.500000 0.196302
O O11 0.000000 0.500000 0.000000
O O12 0.895682 0.000000 0.750000
O O13 0.865100 0.973183 0.649688
O O14 0.000000 0.000000 0.685590
#
# Coordination Sequence:
#
# PCOD9499607 Si02
#       6
#    16   8  16   8  16  16
#     4  11  23  42  63  93 127 168 217 265 328 388
#     4  12  23  43  67  95 130 170 221 269 334 391
#     4  11  22  39  63  88 126 169 211 264 326 389
#     4  12  25  41  65  95 129 168 217 266 329 395
#     4  11  23  41  65  95 131 168 217 272 330 395
#     4  11  24  41  67  91 128 172 216 270 326 392
#
# _framework density 19.069143
#
# number of rings (size 3 to 8) (size 9 to 14) (size 15 to 20)
#    0.000    0.800    2.000    7.200    0.000    4.000 
#    0.000    1.500    0.000    0.000    0.000    0.000 
#    0.000    0.000    0.000    0.000    0.000    0.000 
#
# Total GULP energy -223576.979713 kJ/mol
# GULP energy per Si atom -5589.424493 kJ/mol
# Density = 1.902574 g / cm^3
# Si number density = 19.069143 Si / 1000 Ang^3
#
#
#
# Elastic Constant Matrix: (Units=GPa)
#
#
# Indices 1 2 3 4 5 6 
#
# 1 66.4839 53.1234 62.3861 0.0000 0.0000 0.0000
# 2 53.1234 219.7498 107.3315 0.0000 0.0000 0.0000
# 3 62.3861 107.3315 211.1784 0.0000 0.0000 0.0000
# 4 0.0000 0.0000 0.0000 42.6766 0.0000 0.0000
# 5 0.0000 0.0000 0.0000 0.0000 8.3414 0.0000
# 6 0.0000 0.0000 0.0000 0.0000 0.0000 32.7806
#
#
#
# Elastic Compliance Matrix: (Units=1/GPa)
#
#
# Indices 1 2 3 4 5 6 
#
# 1 0.022086 -0.002863 -0.005069 0.000000 0.000000 0.000000
# 2 -0.002863 0.006424 -0.002419 0.000000 0.000000 0.000000
# 3 -0.005069 -0.002419 0.007463 0.000000 0.000000 0.000000
# 4 0.000000 0.000000 0.000000 0.023432 0.000000 0.000000
# 5 0.000000 0.000000 0.000000 0.000000 0.119884 0.000000
# 6 0.000000 0.000000 0.000000 0.000000 0.000000 0.030506
#
#
# Mechanical properties :
#
#
# Convention : Reuss Voigt Hill
#
# Bulk Modulus (GPa) = 65.49174 104.78823 85.13998
# Shear Modulus (GPa) = 21.22344 35.06445 28.14395
#
# Velocity S-wave (km/s) = 3.33974 4.29278 3.84590
# Velocity P-wave (km/s) = 7.02074 8.92422 8.02909
#
# Compressibility (1/GPa) = 0.01526910
#
# Stress axis : x y z
#
# Youngs Moduli (GPa) = 45.27761 155.65442 134.00132
#
# Poissons Ratio (x) = 0.44566 0.67931
# Poissons Ratio (y) = 0.12964 0.32421
# Poissons Ratio (z) = 0.22953 0.37659
#
# Static dielectric constant tensor:
#      x y z
#    x 1.639840 0.000000 0.000000 
#    y 0.000000 1.691370 0.000000 
#    z 0.000000 0.000000 1.651830 
# 
# From -- ./inp_files/65134.got.cif
#   From: 2010.05.17/outbox.cif.g08.bks.cpg/sg66_33_cif.got.tgz:65134.got - 2010.06.03 17:51:23.
