data_PCOD9499605
_publ_section_title
;
Structure prediction by ZEFSAII (Michael W. Deem and Ramdas Pophale) SiO2 
 PCOD9499605
Probable space group: C C C M
;
_chemical_formula_sum "Si O2"
_cell_formula_units_Z 80
_cell_length_a 12.661222
_cell_length_b 23.568397
_cell_length_c 15.046907
_cell_angle_alpha 90.000000
_cell_angle_beta 90.000000
_cell_angle_gamma 90.000000
_cell_volume 4490.067869
_symmetry_space_group_name_H-M "C C C M"
_symmetry_group_IT_number 66
_symmetry_cell_setting 'orthorhombic'
loop_
_space_group_symop_operation_xyz
x,y,z
-x,-y,z
x,-y,1/2-z
-x,y,1/2-z
-x,-y,-z
x,y,-z
-x,y,1/2+z
x,-y,1/2+z
1/2+x,1/2+y,z
1/2-x,1/2-y,z
1/2+x,1/2-y,1/2-z
1/2-x,1/2+y,1/2-z
1/2-x,1/2-y,-z
1/2+x,1/2+y,-z
1/2-x,1/2+y,1/2+z
1/2+x,1/2-y,1/2+z
loop_
_atom_site_type_symbol
_atom_site_label
_atom_site_fract_x
_atom_site_fract_y
_atom_site_fract_z
Si Si1 0.259778 0.828870 0.897352
Si Si2 0.709735 0.846627 0.000000
Si Si3 0.429803 0.738276 0.837315
Si Si4 0.118360 0.568371 0.640538
Si Si5 0.126529 0.437465 0.354184
Si Si6 0.584445 0.727936 0.000000
O O1 0.361909 0.794047 0.862819
O O2 0.160873 0.810076 0.837306
O O3 0.290235 0.894198 0.893547
O O4 0.237719 0.813080 0.000000
O O5 0.683709 0.885822 0.914721
O O6 0.636579 0.790570 0.000000
O O7 0.826394 0.820323 0.000000
O O8 0.500000 0.745587 0.750000
O O9 0.510881 0.723846 0.914715
O O10 0.145865 0.502778 0.620328
O O11 0.129726 0.571232 0.747231
O O12 0.994129 0.576236 0.618551
#
# Coordination Sequence:
#
# PCOD9499605 Si02
#       6
#    16   8  16  16  16   8
#     4  11  22  39  62  87 115 154 198 242 289 353
#     4  11  24  33  61  81 125 149 189 232 308 335
#     4  11  24  40  61  83 119 155 196 239 294 347
#     4   9  20  37  52  89 118 151 183 246 287 356
#     4   9  20  35  59  82 119 148 196 231 298 344
#     4  11  24  41  53  91 119 155 195 244 284 359
#
# _framework density 17.817102999999999
#
# number of rings (size 3 to 8) (size 9 to 14) (size 15 to 20)
#    0.000    1.800    2.000    3.000   11.200    2.400 
#    0.000    0.000    0.000    2.400    0.000    0.000 
#    0.000    0.000    0.000    0.000    0.000    0.000 
#
# Total GULP energy -223291.353981 kJ/mol
# GULP energy per Si atom -5582.283850 kJ/mol
# Density = 1.777655 g / cm^3
# Si number density = 17.817103 Si / 1000 Ang^3
#
#
#
# Elastic Constant Matrix: (Units=GPa)
#
#
# Indices 1 2 3 4 5 6 
#
# 1 103.9760 54.6222 37.3252 0.0000 0.0000 0.0000
# 2 54.6222 96.7685 21.0689 0.0000 0.0000 0.0000
# 3 37.3252 21.0689 77.2112 0.0000 0.0000 0.0000
# 4 0.0000 0.0000 0.0000 12.3818 0.0000 0.0000
# 5 0.0000 0.0000 0.0000 0.0000 32.7503 0.0000
# 6 0.0000 0.0000 0.0000 0.0000 0.0000 29.1965
#
#
#
# Elastic Compliance Matrix: (Units=1/GPa)
#
#
# Indices 1 2 3 4 5 6 
#
# 1 0.015567 -0.007600 -0.005452 0.000000 0.000000 0.000000
# 2 -0.007600 0.014697 -0.000336 0.000000 0.000000 0.000000
# 3 -0.005452 -0.000336 0.015679 0.000000 0.000000 0.000000
# 4 0.000000 0.000000 0.000000 0.080764 0.000000 0.000000
# 5 0.000000 0.000000 0.000000 0.000000 0.030534 0.000000
# 6 0.000000 0.000000 0.000000 0.000000 0.000000 0.034251
#
#
# Mechanical properties :
#
#
# Convention : Reuss Voigt Hill
#
# Bulk Modulus (GPa) = 52.17365 55.99868 54.08617
# Shear Modulus (GPa) = 22.25617 25.86168 24.05893
#
# Velocity S-wave (km/s) = 3.53816 3.81400 3.67867
# Velocity P-wave (km/s) = 6.78512 7.13396 6.96173
#
# Compressibility (1/GPa) = 0.01916676
#
# Stress axis : x y z
#
# Youngs Moduli (GPa) = 64.23740 68.04008 63.78091
#
# Poissons Ratio (x) = 0.51712 0.34771
# Poissons Ratio (y) = 0.48822 0.02146
# Poissons Ratio (z) = 0.35020 0.02289
#
# Static dielectric constant tensor:
#      x y z
#    x 1.579420 0.000000 0.000000 
#    y 0.000000 1.616380 0.000000 
#    z 0.000000 0.000000 1.602260 
# 
# From -- ./inp_files/26721.got.cif
#   From: 2010.05.17/outbox.cif.g08.bks.cpg/sg66_14_cif.got.tgz:26721.got - 2010.06.03 17:51:23.
