data_PCOD9499367
_publ_section_title
;
Structure prediction by ZEFSAII (Michael W. Deem and Ramdas Pophale) SiO2 
 PCOD9499367
Probable space group: C C C M
;
_chemical_formula_sum "Si O2"
_cell_formula_units_Z 96
_cell_length_a 12.123023
_cell_length_b 17.291314
_cell_length_c 25.354128
_cell_angle_alpha 90.000000
_cell_angle_beta 90.000000
_cell_angle_gamma 90.000000
_cell_volume 5314.808306
_symmetry_space_group_name_H-M "C C C M"
_symmetry_group_IT_number 66
_symmetry_cell_setting 'orthorhombic'
loop_
_space_group_symop_operation_xyz
x,y,z
-x,-y,z
x,-y,1/2-z
-x,y,1/2-z
-x,-y,-z
x,y,-z
-x,y,1/2+z
x,-y,1/2+z
1/2+x,1/2+y,z
1/2-x,1/2-y,z
1/2+x,1/2-y,1/2-z
1/2-x,1/2+y,1/2-z
1/2-x,1/2-y,-z
1/2+x,1/2+y,-z
1/2-x,1/2+y,1/2+z
1/2+x,1/2-y,1/2+z
loop_
_atom_site_type_symbol
_atom_site_label
_atom_site_fract_x
_atom_site_fract_y
_atom_site_fract_z
Si Si1 0.374889 0.273988 0.900173
Si Si2 0.494111 0.368135 0.189761
Si Si3 0.529156 0.886316 0.060453
Si Si4 0.319834 0.509172 0.809473
Si Si5 0.918678 0.880232 0.000000
Si Si6 0.659055 0.441782 0.000000
Si Si7 0.175930 0.527627 0.090667
O O1 0.250000 0.250000 0.884387
O O2 0.449543 0.307506 0.852754
O O3 0.428790 0.196786 0.923304
O O4 0.375809 0.336515 0.947810
O O5 0.500000 0.338243 0.250000
O O6 0.610827 0.411692 0.181375
O O7 0.406202 0.438555 0.186469
O O8 0.427498 0.915233 0.095471
O O9 0.625609 0.949891 0.065134
O O10 0.490500 0.886452 0.000000
O O11 0.276034 0.500000 0.750000
O O12 0.229308 0.505337 0.854207
O O13 0.052432 0.886472 0.000000
O O14 0.880598 0.968926 0.000000
O O15 0.733749 0.434884 0.052013
#
# Coordination Sequence:
#
# PCOD9499367 Si02
#       7
#    16  16  16  16   8   8  16
#     4  12  23  37  58  84 118 154 188 235 290 346
#     4   9  19  38  60  86 114 147 191 238 283 335
#     4  11  22  39  55  80 115 157 192 229 289 345
#     4   9  18  36  63  86 112 146 187 240 290 330
#     4  11  23  33  53  88 116 138 194 241 280 343
#     4  11  20  34  57  81 108 148 188 245 281 328
#     4  11  20  37  60  81 108 149 199 232 285 348
#
# _framework density 18.062740000000002
#
# number of rings (size 3 to 8) (size 9 to 14) (size 15 to 20)
#    0.000    1.500    2.500    5.750    0.000    2.667 
#    0.000   10.833    0.000    0.000    0.000    0.000 
#    0.000    0.000    0.000    0.000    0.000    0.000 
#
# Total GULP energy -267889.261677 kJ/mol
# GULP energy per Si atom -5581.026285 kJ/mol
# Density = 1.802163 g / cm^3
# Si number density = 18.062740 Si / 1000 Ang^3
#
#
#
# Elastic Constant Matrix: (Units=GPa)
#
#
# Indices 1 2 3 4 5 6 
#
# 1 70.9378 5.2876 40.0534 0.0000 0.0000 0.0000
# 2 5.2876 49.5177 10.5081 0.0000 0.0000 0.0000
# 3 40.0534 10.5081 100.8455 0.0000 0.0000 0.0000
# 4 0.0000 0.0000 0.0000 21.9290 0.0000 0.0000
# 5 0.0000 0.0000 0.0000 0.0000 30.5644 0.0000
# 6 0.0000 0.0000 0.0000 0.0000 0.0000 20.8214
#
#
#
# Elastic Compliance Matrix: (Units=1/GPa)
#
#
# Indices 1 2 3 4 5 6 
#
# 1 0.018180 -0.000418 -0.007177 0.000000 0.000000 0.000000
# 2 -0.000418 0.020661 -0.001987 0.000000 0.000000 0.000000
# 3 -0.007177 -0.001987 0.012974 0.000000 0.000000 0.000000
# 4 0.000000 0.000000 0.000000 0.045602 0.000000 0.000000
# 5 0.000000 0.000000 0.000000 0.000000 0.032718 0.000000
# 6 0.000000 0.000000 0.000000 0.000000 0.000000 0.048028
#
#
# Mechanical properties :
#
#
# Convention : Reuss Voigt Hill
#
# Bulk Modulus (GPa) = 30.62710 36.99990 33.81350
# Shear Modulus (GPa) = 24.01415 25.69310 24.85363
#
# Velocity S-wave (km/s) = 3.65017 3.77561 3.71342
# Velocity P-wave (km/s) = 5.89557 6.28773 6.09480
#
# Compressibility (1/GPa) = 0.03265083
#
# Stress axis : x y z
#
# Youngs Moduli (GPa) = 55.00399 48.40018 77.07835
#
# Poissons Ratio (x) = 0.02024 0.55321
# Poissons Ratio (y) = 0.02301 0.15314
# Poissons Ratio (z) = 0.39478 0.09616
#
# Static dielectric constant tensor:
#      x y z
#    x 1.623560 0.000000 0.000000 
#    y 0.000000 1.606880 0.000000 
#    z 0.000000 0.000000 1.615400 
# 
# From -- ./inp_files/56985.got.cif
#   From: 2010.05.17/outbox.cif.g08.bks.cpg/sg66_29_cif.got.tgz:56985.got - 2010.06.03 17:51:23.
