data_PCOD9499743
_publ_section_title
;
Structure prediction by ZEFSAII (Michael W. Deem and Ramdas Pophale) SiO2 
 PCOD9499743
Probable space group: C C C M
;
_chemical_formula_sum "Si O2"
_cell_formula_units_Z 64
_cell_length_a 17.091188
_cell_length_b 10.383794
_cell_length_c 16.328041
_cell_angle_alpha 90.000000
_cell_angle_beta 90.000000
_cell_angle_gamma 90.000000
_cell_volume 2897.759894
_symmetry_space_group_name_H-M "C C C M"
_symmetry_group_IT_number 66
_symmetry_cell_setting 'orthorhombic'
loop_
_space_group_symop_operation_xyz
x,y,z
-x,-y,z
x,-y,1/2-z
-x,y,1/2-z
-x,-y,-z
x,y,-z
-x,y,1/2+z
x,-y,1/2+z
1/2+x,1/2+y,z
1/2-x,1/2-y,z
1/2+x,1/2-y,1/2-z
1/2-x,1/2+y,1/2-z
1/2-x,1/2-y,-z
1/2+x,1/2+y,-z
1/2-x,1/2+y,1/2+z
1/2+x,1/2-y,1/2+z
loop_
_atom_site_type_symbol
_atom_site_label
_atom_site_fract_x
_atom_site_fract_y
_atom_site_fract_z
Si Si1 0.646846 0.699915 0.673535
Si Si2 0.278140 0.947006 0.903250
Si Si3 0.505227 0.345697 0.589452
Si Si4 0.334661 0.216163 0.860020
O O1 0.677389 0.814658 0.615923
O O2 0.695141 0.573268 0.644192
O O3 0.554892 0.692501 0.659737
O O4 0.665158 0.736704 0.766292
O O5 0.331406 0.061994 0.868100
O O6 0.265099 0.963655 0.000000
O O7 0.500000 0.500000 0.589338
O O8 0.475251 0.302563 0.500000
O O9 0.590879 0.285435 0.600484
O O10 0.250000 0.250000 0.897579
#
# Coordination Sequence:
#
# PCOD9499743 Si02
#       4
#    16  16  16  16
#     4  11  23  43  70  97 136 179 231 283 348 414
#     4  11  23  42  69  98 135 181 230 281 344 416
#     4  11  25  44  67  98 138 181 229 285 350 418
#     4  12  25  41  68 101 138 176 230 286 344 411
#
# _framework density 22.086024999999999
#
# number of rings (size 3 to 8) (size 9 to 14) (size 15 to 20)
#    0.000    0.750    2.500    6.750    0.000    9.000 
#    0.000    5.000    0.000    0.000    0.000    0.000 
#    0.000    0.000    0.000    0.000    0.000    0.000 
#
# Total GULP energy -178829.829725 kJ/mol
# GULP energy per Si atom -5588.432179 kJ/mol
# Density = 2.203576 g / cm^3
# Si number density = 22.086025 Si / 1000 Ang^3
#
#
#
# Elastic Constant Matrix: (Units=GPa)
#
#
# Indices 1 2 3 4 5 6 
#
# 1 145.6269 47.5028 19.4776 0.0000 0.0000 0.0000
# 2 47.5028 103.8328 24.5503 0.0000 0.0000 0.0000
# 3 19.4776 24.5503 129.0453 0.0000 0.0000 0.0000
# 4 0.0000 0.0000 0.0000 19.8930 0.0000 0.0000
# 5 0.0000 0.0000 0.0000 0.0000 -138.2098 0.0000
# 6 0.0000 0.0000 0.0000 0.0000 0.0000 39.0611
#
#
#
# Elastic Compliance Matrix: (Units=1/GPa)
#
#
# Indices 1 2 3 4 5 6 
#
# 1 0.008107 -0.003581 -0.000542 0.000000 0.000000 0.000000
# 2 -0.003581 0.011666 -0.001679 0.000000 0.000000 0.000000
# 3 -0.000542 -0.001679 0.008151 0.000000 0.000000 0.000000
# 4 0.000000 0.000000 0.000000 0.050269 0.000000 0.000000
# 5 0.000000 0.000000 0.000000 0.000000 -0.007235 0.000000
# 6 0.000000 0.000000 0.000000 0.000000 0.000000 0.025601
#
#
# Mechanical properties :
#
#
# Convention : Reuss Voigt Hill
#
# Bulk Modulus (GPa) = 61.27634 62.39629 61.83631
# Shear Modulus (GPa) = 44.01299 3.28048 23.64674
#
# Velocity S-wave (km/s) = 4.46892 1.22006 3.27565
# Velocity P-wave (km/s) = 7.37787 5.50432 6.50886
#
# Compressibility (1/GPa) = 0.01631951
#
# Stress axis : x y z
#
# Youngs Moduli (GPa) = 123.34295 85.71879 122.69181
#
# Poissons Ratio (x) = 0.30695 0.06656
# Poissons Ratio (y) = 0.44167 0.20599
# Poissons Ratio (z) = 0.06691 0.14392
#
# Static dielectric constant tensor:
#      x y z
#    x 1.845000 0.000000 0.000000 
#    y 0.000000 1.891390 0.000000 
#    z 0.000000 0.000000 1.796630 
# 
# From -- ./inp_files/29577.got.cif
#   From: 2010.05.17/outbox.cif.g08.bks.cpg/sg66_15_cif.got.tgz:29577.got - 2010.06.03 17:51:23.
