data_PCOD9499548
_publ_section_title
;
Structure prediction by ZEFSAII (Michael W. Deem and Ramdas Pophale) SiO2 
 PCOD9499548
Probable space group: C C C M
;
_chemical_formula_sum "Si O2"
_cell_formula_units_Z 48
_cell_length_a 9.203860
_cell_length_b 12.257939
_cell_length_c 19.914982
_cell_angle_alpha 90.000000
_cell_angle_beta 90.000000
_cell_angle_gamma 90.000000
_cell_volume 2246.815328
_symmetry_space_group_name_H-M "C C C M"
_symmetry_group_IT_number 66
_symmetry_cell_setting 'orthorhombic'
loop_
_space_group_symop_operation_xyz
x,y,z
-x,-y,z
x,-y,1/2-z
-x,y,1/2-z
-x,-y,-z
x,y,-z
-x,y,1/2+z
x,-y,1/2+z
1/2+x,1/2+y,z
1/2-x,1/2-y,z
1/2+x,1/2-y,1/2-z
1/2-x,1/2+y,1/2-z
1/2-x,1/2-y,-z
1/2+x,1/2+y,-z
1/2-x,1/2+y,1/2+z
1/2+x,1/2-y,1/2+z
loop_
_atom_site_type_symbol
_atom_site_label
_atom_site_fract_x
_atom_site_fract_y
_atom_site_fract_z
Si Si1 0.076961 0.735150 0.422553
Si Si2 0.243525 0.500000 0.250000
Si Si3 0.902920 0.798653 0.697116
Si Si4 0.500000 0.000000 0.363458
O O1 0.044145 0.759500 0.500000
O O2 0.250000 0.750000 0.412765
O O3 0.022555 0.611887 0.405138
O O4 0.995863 0.812800 0.369553
O O5 0.348657 0.397226 0.256743
O O6 0.140716 0.496746 0.315107
O O7 0.750000 0.750000 0.674935
O O8 0.000000 0.727933 0.750000
#
# Coordination Sequence:
#
# PCOD9499548 Si02
#       4
#    16   8  16   8
#     4  11  25  45  70 101 143 192 240 294 363 435
#     4  11  23  38  68 100 132 174 238 290 356 420
#     4  12  23  41  66  98 136 177 230 294 352 418
#     4  11  21  44  68 100 138 186 234 298 362 432
#
# _framework density 21.363569999999999
#
# number of rings (size 3 to 8) (size 9 to 14) (size 15 to 20)
#    0.000    0.667    3.333    6.000    0.000    0.667 
#    0.000    0.000    0.000    8.000    0.000    0.000 
#    0.000    0.000    0.000    0.000    0.000    0.000 
#
# Total GULP energy -134010.351525 kJ/mol
# GULP energy per Si atom -5583.764647 kJ/mol
# Density = 2.131495 g / cm^3
# Si number density = 21.363570 Si / 1000 Ang^3
#
#
#
# Elastic Constant Matrix: (Units=GPa)
#
#
# Indices 1 2 3 4 5 6 
#
# 1 134.7136 12.5047 89.1863 0.0000 0.0000 0.0000
# 2 12.5047 73.6238 20.6610 0.0000 0.0000 0.0000
# 3 89.1863 20.6610 163.9616 0.0000 0.0000 0.0000
# 4 0.0000 0.0000 0.0000 19.4407 0.0000 0.0000
# 5 0.0000 0.0000 0.0000 0.0000 36.9939 0.0000
# 6 0.0000 0.0000 0.0000 0.0000 0.0000 24.6383
#
#
#
# Elastic Compliance Matrix: (Units=1/GPa)
#
#
# Indices 1 2 3 4 5 6 
#
# 1 0.011604 -0.000207 -0.006286 0.000000 0.000000 0.000000
# 2 -0.000207 0.014084 -0.001662 0.000000 0.000000 0.000000
# 3 -0.006286 -0.001662 0.009728 0.000000 0.000000 0.000000
# 4 0.000000 0.000000 0.000000 0.051439 0.000000 0.000000
# 5 0.000000 0.000000 0.000000 0.000000 0.027032 0.000000
# 6 0.000000 0.000000 0.000000 0.000000 0.000000 0.040587
#
#
# Mechanical properties :
#
#
# Convention : Reuss Voigt Hill
#
# Bulk Modulus (GPa) = 52.34021 68.55591 60.44806
# Shear Modulus (GPa) = 28.22448 32.87770 30.55109
#
# Velocity S-wave (km/s) = 3.63871 3.92722 3.78571
# Velocity P-wave (km/s) = 6.49665 7.26112 6.88950
#
# Compressibility (1/GPa) = 0.01910577
#
# Stress axis : x y z
#
# Youngs Moduli (GPa) = 86.17846 71.00166 102.80047
#
# Poissons Ratio (x) = 0.01469 0.64618
# Poissons Ratio (y) = 0.01783 0.17088
# Poissons Ratio (z) = 0.54170 0.11802
#
# Static dielectric constant tensor:
#      x y z
#    x 1.790620 0.000000 0.000000 
#    y 0.000000 1.903230 0.000000 
#    z 0.000000 0.000000 1.727590 
# 
# From -- ./inp_files/35751.got.cif
#   From: 2010.05.17/outbox.cif.g08.bks.cpg/sg66_18_cif.got.tgz:35751.got - 2010.06.03 17:51:23.
