data_PCOD9499440
_publ_section_title
;
Structure prediction by ZEFSAII (Michael W. Deem and Ramdas Pophale) SiO2 
 PCOD9499440
Probable space group: C C C M
;
_chemical_formula_sum "Si O2"
_cell_formula_units_Z 80
_cell_length_a 30.998564
_cell_length_b 7.225286
_cell_length_c 15.411582
_cell_angle_alpha 90.000000
_cell_angle_beta 90.000000
_cell_angle_gamma 90.000000
_cell_volume 3451.785815
_symmetry_space_group_name_H-M "C C C M"
_symmetry_group_IT_number 66
_symmetry_cell_setting 'orthorhombic'
loop_
_space_group_symop_operation_xyz
x,y,z
-x,-y,z
x,-y,1/2-z
-x,y,1/2-z
-x,-y,-z
x,y,-z
-x,y,1/2+z
x,-y,1/2+z
1/2+x,1/2+y,z
1/2-x,1/2-y,z
1/2+x,1/2-y,1/2-z
1/2-x,1/2+y,1/2-z
1/2-x,1/2-y,-z
1/2+x,1/2+y,-z
1/2-x,1/2+y,1/2+z
1/2+x,1/2-y,1/2+z
loop_
_atom_site_type_symbol
_atom_site_label
_atom_site_fract_x
_atom_site_fract_y
_atom_site_fract_z
Si Si1 0.450452 0.225769 0.245671
Si Si2 0.795342 0.356201 0.668895
Si Si3 0.383490 0.218857 0.100777
Si Si4 0.704679 0.777066 0.404224
Si Si5 0.889383 0.269296 0.100285
O O1 0.500000 0.284019 0.250000
O O2 0.423742 0.280927 0.159817
O O3 0.424567 0.289505 0.330724
O O4 0.450197 0.000000 0.250000
O O5 0.801137 0.500000 0.750000
O O6 0.750000 0.250000 0.670539
O O7 0.838488 0.238965 0.650865
O O8 0.796077 0.501798 0.590404
O O9 0.387936 0.994011 0.100128
O O10 0.383279 0.279395 0.000000
O O11 0.707981 0.692351 0.500000
O O12 0.750000 0.750000 0.356601
O O13 0.658813 0.711781 0.369696
O O14 0.896222 0.213817 0.000000
#
# Coordination Sequence:
#
# PCOD9499440 Si02
#       5
#    16  16  16  16  16
#     4   9  16  25  38  58  86 120 159 201 237 281
#     4  11  21  32  48  69  96 131 168 206 247 293
#     4   9  17  29  44  63  91 126 160 196 244 296
#     4   9  17  30  48  69  95 126 157 192 239 294
#     4   8  14  25  41  61  88 122 155 189 236 290
#
# _framework density 23.176407999999999
#
# number of rings (size 3 to 8) (size 9 to 14) (size 15 to 20)
#    0.000    2.800    0.000    5.400    0.000    2.400 
#    0.000    4.000    0.000    0.000    0.000    0.000 
#    0.000    7.200    0.000   14.400    0.000   26.200 
#
# Total GULP energy -222925.644942 kJ/mol
# GULP energy per Si atom -5573.141124 kJ/mol
# Density = 2.312366 g / cm^3
# Si number density = 23.176408 Si / 1000 Ang^3
#
#
#
# Elastic Constant Matrix: (Units=GPa)
#
#
# Indices 1 2 3 4 5 6 
#
# 1 283.4566 16.4508 123.0610 0.0000 0.0000 0.0000
# 2 16.4508 76.4410 11.0165 0.0000 0.0000 0.0000
# 3 123.0610 11.0165 186.1596 0.0000 0.0000 0.0000
# 4 0.0000 0.0000 0.0000 -24.7059 0.0000 0.0000
# 5 0.0000 0.0000 0.0000 0.0000 10.7703 0.0000
# 6 0.0000 0.0000 0.0000 0.0000 0.0000 7.9637
#
#
#
# Elastic Compliance Matrix: (Units=1/GPa)
#
#
# Indices 1 2 3 4 5 6 
#
# 1 0.004975 -0.000602 -0.003253 0.000000 0.000000 0.000000
# 2 -0.000602 0.013267 -0.000387 0.000000 0.000000 0.000000
# 3 -0.003253 -0.000387 0.007545 0.000000 0.000000 0.000000
# 4 0.000000 0.000000 0.000000 -0.040476 0.000000 0.000000
# 5 0.000000 0.000000 0.000000 0.000000 0.092848 0.000000
# 6 0.000000 0.000000 0.000000 0.000000 0.000000 0.125570
#
#
# Mechanical properties :
#
#
# Convention : Reuss Voigt Hill
#
# Bulk Modulus (GPa) = 57.79349 94.12375 75.95862
# Shear Modulus (GPa) = 22.93771 25.17421 24.05596
#
# Velocity S-wave (km/s) = 3.14936 3.29933 3.22522
# Velocity P-wave (km/s) = 6.18184 7.43062 6.83481
#
# Compressibility (1/GPa) = 0.01730299
#
# Stress axis : x y z
#
# Youngs Moduli (GPa) = 200.99787 75.37314 132.53452
#
# Poissons Ratio (x) = 0.04536 0.43117
# Poissons Ratio (y) = 0.12097 0.05133
# Poissons Ratio (z) = 0.65389 0.02919
#
# Static dielectric constant tensor:
#      x y z
#    x 1.899600 0.000000 0.000000 
#    y 0.000000 1.990650 0.000000 
#    z 0.000000 0.000000 1.919910 
# 
# From -- ./inp_files/44617.got.cif
#   From: 2010.05.17/outbox.cif.g08.bks.cpg/sg66_23_cif.got.tgz:44617.got - 2010.06.03 17:51:23.
