data_PCOD9499646
_publ_section_title
;
Structure prediction by ZEFSAII (Michael W. Deem and Ramdas Pophale) SiO2 
 PCOD9499646
Probable space group: C C C M
;
_chemical_formula_sum "Si O2"
_cell_formula_units_Z 68
_cell_length_a 7.919134
_cell_length_b 16.928107
_cell_length_c 22.631612
_cell_angle_alpha 90.000000
_cell_angle_beta 90.000000
_cell_angle_gamma 90.000000
_cell_volume 3033.902195
_symmetry_space_group_name_H-M "C C C M"
_symmetry_group_IT_number 66
_symmetry_cell_setting 'orthorhombic'
loop_
_space_group_symop_operation_xyz
x,y,z
-x,-y,z
x,-y,1/2-z
-x,y,1/2-z
-x,-y,-z
x,y,-z
-x,y,1/2+z
x,-y,1/2+z
1/2+x,1/2+y,z
1/2-x,1/2-y,z
1/2+x,1/2-y,1/2-z
1/2-x,1/2+y,1/2-z
1/2-x,1/2-y,-z
1/2+x,1/2+y,-z
1/2-x,1/2+y,1/2+z
1/2+x,1/2-y,1/2+z
loop_
_atom_site_type_symbol
_atom_site_label
_atom_site_fract_x
_atom_site_fract_y
_atom_site_fract_z
Si Si1 0.815393 0.461402 0.065019
Si Si2 0.311398 0.838897 0.275700
Si Si3 0.182892 0.160052 0.346493
Si Si4 0.250000 0.250000 0.000000
Si Si5 0.315847 0.621213 0.602674
O O1 0.800116 0.394378 0.113499
O O2 0.687304 0.532987 0.077328
O O3 0.000000 0.500000 0.065430
O O4 0.783363 0.426788 0.000000
O O5 0.500000 0.838199 0.250000
O O6 0.250000 0.750000 0.288556
O O7 0.194797 0.867636 0.221493
O O8 0.296111 0.882164 0.337726
O O9 0.250000 0.250000 0.347529
O O10 0.998127 0.150681 0.374367
O O11 0.252809 0.319134 0.052346
#
# Coordination Sequence:
#
# PCOD9499646 Si02
#       5
#    16  16  16   4  16
#     4  11  26  45  68 100 143 185 230 287 346 409
#     4  11  22  41  70 101 138 179 232 289 346 408
#     4  11  26  44  71 105 136 183 233 284 346 411
#     4  12  28  40  74 108 136 194 224 288 340 424
#     4  12  25  45  72 100 146 179 237 281 351 411
#
# _framework density 22.41338
#
# number of rings (size 3 to 8) (size 9 to 14) (size 15 to 20)
#    0.000    0.706    2.353    5.647    4.941    2.353 
#    0.000    4.706    0.000    0.000    0.000    0.000 
#    0.000    0.000    0.000    0.000    0.000    0.000 
#
# Total GULP energy -189761.047010 kJ/mol
# GULP energy per Si atom -5581.207265 kJ/mol
# Density = 2.236237 g / cm^3
# Si number density = 22.413380 Si / 1000 Ang^3
#
#
#
# Elastic Constant Matrix: (Units=GPa)
#
#
# Indices 1 2 3 4 5 6 
#
# 1 95.8067 8.6058 22.2659 0.0000 0.0000 0.0000
# 2 8.6058 68.3683 43.3724 0.0000 0.0000 0.0000
# 3 22.2659 43.3724 188.8379 0.0000 0.0000 0.0000
# 4 0.0000 0.0000 0.0000 89.0501 0.0000 0.0000
# 5 0.0000 0.0000 0.0000 0.0000 26.6603 0.0000
# 6 0.0000 0.0000 0.0000 0.0000 0.0000 24.6306
#
#
#
# Elastic Compliance Matrix: (Units=1/GPa)
#
#
# Indices 1 2 3 4 5 6 
#
# 1 0.010756 -0.000643 -0.001121 0.000000 0.000000 0.000000
# 2 -0.000643 0.017160 -0.003865 0.000000 0.000000 0.000000
# 3 -0.001121 -0.003865 0.006315 0.000000 0.000000 0.000000
# 4 0.000000 0.000000 0.000000 0.011230 0.000000 0.000000
# 5 0.000000 0.000000 0.000000 0.000000 0.037509 0.000000
# 6 0.000000 0.000000 0.000000 0.000000 0.000000 0.040600
#
#
# Mechanical properties :
#
#
# Convention : Reuss Voigt Hill
#
# Bulk Modulus (GPa) = 43.52909 55.72233 49.62571
# Shear Modulus (GPa) = 35.09131 46.65279 40.87205
#
# Velocity S-wave (km/s) = 3.96111 4.56726 4.27494
# Velocity P-wave (km/s) = 6.35482 7.26143 6.82320
#
# Compressibility (1/GPa) = 0.02297314
#
# Stress axis : x y z
#
# Youngs Moduli (GPa) = 92.97254 58.27570 158.34088
#
# Poissons Ratio (x) = 0.03747 0.17743
# Poissons Ratio (y) = 0.05978 0.61206
# Poissons Ratio (z) = 0.10418 0.22526
#
# Static dielectric constant tensor:
#      x y z
#    x 1.914030 0.000000 0.000000 
#    y 0.000000 1.786460 0.000000 
#    z 0.000000 0.000000 1.805170 
# 
# From -- ./inp_files/46723.got.cif
#   From: 2010.05.17/outbox.cif.g08.bks.cpg/sg66_24_cif.got.tgz:46723.got - 2010.06.03 17:51:23.
