data_PCOD9499853
_publ_section_title
;
Structure prediction by ZEFSAII (Michael W. Deem and Ramdas Pophale) SiO2 
 PCOD9499853
Probable space group: C C C M
;
_chemical_formula_sum "Si O2"
_cell_formula_units_Z 60
_cell_length_a 6.762611
_cell_length_b 20.610310
_cell_length_c 20.883750
_cell_angle_alpha 90.000000
_cell_angle_beta 90.000000
_cell_angle_gamma 90.000000
_cell_volume 2910.766824
_symmetry_space_group_name_H-M "C C C M"
_symmetry_group_IT_number 66
_symmetry_cell_setting 'orthorhombic'
loop_
_space_group_symop_operation_xyz
x,y,z
-x,-y,z
x,-y,1/2-z
-x,y,1/2-z
-x,-y,-z
x,y,-z
-x,y,1/2+z
x,-y,1/2+z
1/2+x,1/2+y,z
1/2-x,1/2-y,z
1/2+x,1/2-y,1/2-z
1/2-x,1/2+y,1/2-z
1/2-x,1/2-y,-z
1/2+x,1/2+y,-z
1/2-x,1/2+y,1/2+z
1/2+x,1/2-y,1/2+z
loop_
_atom_site_type_symbol
_atom_site_label
_atom_site_fract_x
_atom_site_fract_y
_atom_site_fract_z
Si Si1 0.750000 0.750000 0.096512
Si Si2 0.313583 0.952399 0.000000
Si Si3 0.000000 0.500000 0.250000
Si Si4 0.567850 0.802083 0.500000
Si Si5 0.683151 0.452779 0.146774
Si Si6 0.581945 0.693639 0.321666
O O1 0.584284 0.789007 0.057558
O O2 0.615355 0.704147 0.137883
O O3 0.357795 0.875285 0.000000
O O4 0.218887 0.964909 0.070483
O O5 0.500000 0.000000 0.000000
O O6 0.144339 0.534408 0.198655
O O7 0.750000 0.750000 0.500000
O O8 0.500000 0.500000 0.164349
O O9 0.653889 0.376145 0.155743
O O10 0.500000 0.693593 0.250000
O O11 0.750000 0.750000 0.329428
#
# Coordination Sequence:
#
# PCOD9499853 Si02
#       6
#     8   8   4   8  16  16
#     4  11  24  44  74 102 148 185 238 302 370 437
#     4  12  26  47  75 107 145 194 253 306 362 444
#     4  12  26  50  72 106 152 190 240 312 380 448
#     4  11  25  47  72 106 145 194 236 304 377 442
#     4  12  28  48  75 107 150 197 247 307 383 450
#     4  12  26  44  72 108 145 191 247 307 369 443
#
# _framework density 20.613123999999999
#
# number of rings (size 3 to 8) (size 9 to 14) (size 15 to 20)
#    0.000    0.267    2.667    6.400    5.600    5.333 
#    0.000    0.000    0.000    0.000    0.000    0.000 
#    0.000    0.000    0.000    0.000    0.000    0.000 
#
# Total GULP energy -167268.291072 kJ/mol
# GULP energy per Si atom -5575.609702 kJ/mol
# Density = 2.056621 g / cm^3
# Si number density = 20.613124 Si / 1000 Ang^3
#
#
#
# Elastic Constant Matrix: (Units=GPa)
#
#
# Indices 1 2 3 4 5 6 
#
# 1 152.3911 78.3778 86.2707 0.0000 0.0000 0.0000
# 2 78.3778 136.1593 45.4055 0.0000 0.0000 0.0000
# 3 86.2707 45.4055 158.2219 0.0000 0.0000 0.0000
# 4 0.0000 0.0000 0.0000 102.4747 0.0000 0.0000
# 5 0.0000 0.0000 0.0000 0.0000 71.4566 0.0000
# 6 0.0000 0.0000 0.0000 0.0000 0.0000 31.5479
#
#
#
# Elastic Compliance Matrix: (Units=1/GPa)
#
#
# Indices 1 2 3 4 5 6 
#
# 1 0.012195 -0.005311 -0.005125 0.000000 0.000000 0.000000
# 2 -0.005311 0.010434 -0.000099 0.000000 0.000000 0.000000
# 3 -0.005125 -0.000099 0.009143 0.000000 0.000000 0.000000
# 4 0.000000 0.000000 0.000000 0.009759 0.000000 0.000000
# 5 0.000000 0.000000 0.000000 0.000000 0.013995 0.000000
# 6 0.000000 0.000000 0.000000 0.000000 0.000000 0.031698
#
#
# Mechanical properties :
#
#
# Convention : Reuss Voigt Hill
#
# Bulk Modulus (GPa) = 93.43169 96.32003 94.87586
# Shear Modulus (GPa) = 44.69866 56.87707 50.78787
#
# Velocity S-wave (km/s) = 4.66172 5.25857 4.96911
# Velocity P-wave (km/s) = 8.62556 9.14872 8.89099
#
# Compressibility (1/GPa) = 0.01070301
#
# Stress axis : x y z
#
# Youngs Moduli (GPa) = 82.00121 95.83829 109.37165
#
# Poissons Ratio (x) = 0.50896 0.56056
# Poissons Ratio (y) = 0.43548 0.01080
# Poissons Ratio (z) = 0.42028 0.00946
#
# Static dielectric constant tensor:
#      x y z
#    x 1.694860 0.000000 0.000000 
#    y 0.000000 1.751040 0.000000 
#    z 0.000000 0.000000 2.339540 
# 
# From -- ./inp_files/45586.got.cif
#   From: 2010.05.17/outbox.cif.g08.bks.cpg/sg66_23_cif.got.tgz:45586.got - 2010.06.03 17:51:23.
