data_PCOD9499936
_publ_section_title
;
Structure prediction by ZEFSAII (Michael W. Deem and Ramdas Pophale) SiO2 
 PCOD9499936
Probable space group: C C C M
;
_chemical_formula_sum "Si O2"
_cell_formula_units_Z 84
_cell_length_a 9.804156
_cell_length_b 20.837565
_cell_length_c 18.866217
_cell_angle_alpha 90.000000
_cell_angle_beta 90.000000
_cell_angle_gamma 90.000000
_cell_volume 3854.268858
_symmetry_space_group_name_H-M "C C C M"
_symmetry_group_IT_number 66
_symmetry_cell_setting 'orthorhombic'
loop_
_space_group_symop_operation_xyz
x,y,z
-x,-y,z
x,-y,1/2-z
-x,y,1/2-z
-x,-y,-z
x,y,-z
-x,y,1/2+z
x,-y,1/2+z
1/2+x,1/2+y,z
1/2-x,1/2-y,z
1/2+x,1/2-y,1/2-z
1/2-x,1/2+y,1/2-z
1/2-x,1/2-y,-z
1/2+x,1/2+y,-z
1/2-x,1/2+y,1/2+z
1/2+x,1/2-y,1/2+z
loop_
_atom_site_type_symbol
_atom_site_label
_atom_site_fract_x
_atom_site_fract_y
_atom_site_fract_z
Si Si1 0.768009 0.570257 0.156849
Si Si2 0.633235 0.799679 0.882701
Si Si3 0.500000 0.741117 0.250000
Si Si4 0.829680 0.316955 0.923134
Si Si5 0.000000 0.500000 0.250000
Si Si6 0.000000 0.000000 0.360264
Si Si7 0.659885 0.375987 0.804345
O O1 0.815974 0.628231 0.108529
O O2 0.895020 0.534203 0.194614
O O3 0.649439 0.529423 0.117685
O O4 0.705069 0.605167 0.226061
O O5 0.750000 0.750000 0.904996
O O6 0.596693 0.783156 0.799998
O O7 0.487130 0.797797 0.918936
O O8 0.417808 0.691753 0.200490
O O9 0.750000 0.250000 0.918535
O O10 0.782188 0.363466 0.859592
O O11 0.798411 0.346691 0.000000
O O12 0.936569 0.934964 0.326424
#
# Coordination Sequence:
#
# PCOD9499936 Si02
#       7
#    16  16   8  16   4   8  16
#     4  12  23  36  60 100 131 168 205 265 334 390
#     4  12  24  39  62  97 132 167 211 268 329 393
#     4  12  21  35  62 103 133 164 192 264 346 390
#     4  11  26  45  66  92 129 181 225 268 320 383
#     4  12  22  34  52  88 136 170 204 246 316 404
#     4  12  23  40  65  98 135 174 212 259 342 405
#     4  12  20  40  65  94 135 163 213 265 315 402
#
# _framework density 21.794015999999999
#
# number of rings (size 3 to 8) (size 9 to 14) (size 15 to 20)
#    0.000    0.190    7.619    3.429    0.000    0.381 
#    0.000    0.476    0.000    2.286    0.000    0.000 
#    0.000    0.000    0.000    0.000    0.000    0.000 
#
# Total GULP energy -234004.449260 kJ/mol
# GULP energy per Si atom -5571.534506 kJ/mol
# Density = 2.174441 g / cm^3
# Si number density = 21.794016 Si / 1000 Ang^3
#
#
#
# Elastic Constant Matrix: (Units=GPa)
#
#
# Indices 1 2 3 4 5 6 
#
# 1 158.3652 54.7746 6.0985 0.0000 0.0000 0.0000
# 2 54.7746 83.9127 -2.6775 0.0000 0.0000 0.0000
# 3 6.0985 -2.6775 38.1087 0.0000 0.0000 0.0000
# 4 0.0000 0.0000 0.0000 14.4082 0.0000 0.0000
# 5 0.0000 0.0000 0.0000 0.0000 -7.3325 0.0000
# 6 0.0000 0.0000 0.0000 0.0000 0.0000 51.7325
#
#
#
# Elastic Compliance Matrix: (Units=1/GPa)
#
#
# Indices 1 2 3 4 5 6 
#
# 1 0.008265 -0.005449 -0.001706 0.000000 0.000000 0.000000
# 2 -0.005449 0.015537 0.001964 0.000000 0.000000 0.000000
# 3 -0.001706 0.001964 0.026652 0.000000 0.000000 0.000000
# 4 0.000000 0.000000 0.000000 0.069405 0.000000 0.000000
# 5 0.000000 0.000000 0.000000 0.000000 -0.136379 0.000000
# 6 0.000000 0.000000 0.000000 0.000000 0.000000 0.019330
#
#
# Mechanical properties :
#
#
# Convention : Reuss Voigt Hill
#
# Bulk Modulus (GPa) = 24.95565 44.08641 34.52103
# Shear Modulus (GPa) = 188.32870 26.57437 107.45153
#
# Velocity S-wave (km/s) = 9.30595 3.49570 7.02924
# Velocity P-wave (km/s) = 11.26690 6.04696 9.04181
#
# Compressibility (1/GPa) = 0.04007108
#
# Stress axis : x y z
#
# Youngs Moduli (GPa) = 120.99155 64.36249 37.52111
#
# Poissons Ratio (x) = 0.35074 0.06399
# Poissons Ratio (y) = 0.65934 -0.07368
# Poissons Ratio (z) = 0.20635 -0.12639
#
# Static dielectric constant tensor:
#      x y z
#    x 1.845050 0.000000 0.000000 
#    y 0.000000 1.594350 0.000000 
#    z 0.000000 0.000000 1.832090 
# 
# From -- ./inp_files/55449.got.cif
#   From: 2010.05.17/outbox.cif.g08.bks.cpg/sg66_28_cif.got.tgz:55449.got - 2010.06.03 17:51:23.
