data_PCOD9499510
_publ_section_title
;
Structure prediction by ZEFSAII (Michael W. Deem and Ramdas Pophale) SiO2 
 PCOD9499510
Probable space group: C C C M
;
_chemical_formula_sum "Si O2"
_cell_formula_units_Z 64
_cell_length_a 12.521631
_cell_length_b 15.958555
_cell_length_c 16.897142
_cell_angle_alpha 90.000000
_cell_angle_beta 90.000000
_cell_angle_gamma 90.000000
_cell_volume 3376.507509
_symmetry_space_group_name_H-M "C C C M"
_symmetry_group_IT_number 66
_symmetry_cell_setting 'orthorhombic'
loop_
_space_group_symop_operation_xyz
x,y,z
-x,-y,z
x,-y,1/2-z
-x,y,1/2-z
-x,-y,-z
x,y,-z
-x,y,1/2+z
x,-y,1/2+z
1/2+x,1/2+y,z
1/2-x,1/2-y,z
1/2+x,1/2-y,1/2-z
1/2-x,1/2+y,1/2-z
1/2-x,1/2-y,-z
1/2+x,1/2+y,-z
1/2-x,1/2+y,1/2+z
1/2+x,1/2-y,1/2+z
loop_
_atom_site_type_symbol
_atom_site_label
_atom_site_fract_x
_atom_site_fract_y
_atom_site_fract_z
Si Si1 0.659332 0.013009 0.093132
Si Si2 0.366802 0.291245 0.092341
Si Si3 0.116433 0.972790 0.341477
Si Si4 0.487874 0.865256 0.343661
O O1 0.595790 0.095168 0.120813
O O2 0.783666 0.013503 0.113524
O O3 0.602987 0.935036 0.137763
O O4 0.643145 0.999910 0.000000
O O5 0.250000 0.250000 0.101456
O O6 0.374886 0.373305 0.145904
O O7 0.452010 0.220873 0.116409
O O8 0.378666 0.315057 0.000000
O O9 0.124217 0.000000 0.250000
O O10 0.000000 0.000000 0.371343
O O11 0.500000 0.855301 0.250000
#
# Coordination Sequence:
#
# PCOD9499510 Si02
#       4
#    16  16  16  16
#     4  11  21  39  64  96 133 169 215 268 325 388
#     4  11  23  42  68  95 125 169 220 263 312 388
#     4  11  25  43  64  92 131 173 221 264 328 390
#     4  11  22  37  66  98 131 164 213 271 323 376
#
# _framework density 18.954495999999999
#
# number of rings (size 3 to 8) (size 9 to 14) (size 15 to 20)
#    0.000    1.000    2.500    6.750    3.500    2.000 
#    0.000    1.250    0.000    3.000    0.000    0.000 
#    0.000    0.000    0.000    0.000    0.000    0.000 
#
# Total GULP energy -178909.145630 kJ/mol
# GULP energy per Si atom -5590.910801 kJ/mol
# Density = 1.891136 g / cm^3
# Si number density = 18.954496 Si / 1000 Ang^3
#
#
#
# Elastic Constant Matrix: (Units=GPa)
#
#
# Indices 1 2 3 4 5 6 
#
# 1 131.3341 45.3156 24.6837 0.0000 0.0000 0.0000
# 2 45.3156 127.4641 48.6920 0.0000 0.0000 0.0000
# 3 24.6837 48.6920 88.9193 0.0000 0.0000 0.0000
# 4 0.0000 0.0000 0.0000 -13.8392 0.0000 0.0000
# 5 0.0000 0.0000 0.0000 0.0000 -18.0176 0.0000
# 6 0.0000 0.0000 0.0000 0.0000 0.0000 30.7712
#
#
#
# Elastic Compliance Matrix: (Units=1/GPa)
#
#
# Indices 1 2 3 4 5 6 
#
# 1 0.008737 -0.002756 -0.000916 0.000000 0.000000 0.000000
# 2 -0.002756 0.010790 -0.005143 0.000000 0.000000 0.000000
# 3 -0.000916 -0.005143 0.014317 0.000000 0.000000 0.000000
# 4 0.000000 0.000000 0.000000 -0.072258 0.000000 0.000000
# 5 0.000000 0.000000 0.000000 0.000000 -0.055501 0.000000
# 6 0.000000 0.000000 0.000000 0.000000 0.000000 0.032498
#
#
# Mechanical properties :
#
#
# Convention : Reuss Voigt Hill
#
# Bulk Modulus (GPa) = 61.68016 65.01112 63.34564
# Shear Modulus (GPa) = -130.27280 15.05129 -57.61076
#
# Velocity S-wave (km/s) = -8.29930 2.82099 -5.51908
# Velocity P-wave (km/s) = 7.69585 6.70698 2.66856
#
# Compressibility (1/GPa) = 0.01621267
#
# Stress axis : x y z
#
# Youngs Moduli (GPa) = 114.45060 92.67748 69.84688
#
# Poissons Ratio (x) = 0.25545 0.06399
# Poissons Ratio (y) = 0.31546 0.35926
# Poissons Ratio (z) = 0.10485 0.47669
#
# Static dielectric constant tensor:
#      x y z
#    x 1.668780 0.000000 0.000000 
#    y 0.000000 1.637880 0.000000 
#    z 0.000000 0.000000 1.638550 
# 
# From -- ./inp_files/25767.got.cif
#   From: 2010.05.17/outbox.cif.g08.bks.cpg/sg66_13_cif.got.tgz:25767.got - 2010.06.03 17:51:23.
