data_PCOD9499103
_publ_section_title
;
Structure prediction by ZEFSAII (Michael W. Deem and Ramdas Pophale) SiO2 
 PCOD9499103
Probable space group: C C C M
;
_chemical_formula_sum "Si O2"
_cell_formula_units_Z 56
_cell_length_a 14.467926
_cell_length_b 5.593385
_cell_length_c 32.593470
_cell_angle_alpha 90.000000
_cell_angle_beta 90.000000
_cell_angle_gamma 90.000000
_cell_volume 2637.616139
_symmetry_space_group_name_H-M "C C C M"
_symmetry_group_IT_number 66
_symmetry_cell_setting 'orthorhombic'
loop_
_space_group_symop_operation_xyz
x,y,z
-x,-y,z
x,-y,1/2-z
-x,y,1/2-z
-x,-y,-z
x,y,-z
-x,y,1/2+z
x,-y,1/2+z
1/2+x,1/2+y,z
1/2-x,1/2-y,z
1/2+x,1/2-y,1/2-z
1/2-x,1/2+y,1/2-z
1/2-x,1/2-y,-z
1/2+x,1/2+y,-z
1/2-x,1/2+y,1/2+z
1/2+x,1/2-y,1/2+z
loop_
_atom_site_type_symbol
_atom_site_label
_atom_site_fract_x
_atom_site_fract_y
_atom_site_fract_z
Si Si1 0.646692 0.354845 0.336126
Si Si2 0.899795 0.883772 0.415101
Si Si3 0.000000 0.500000 0.624463
Si Si4 0.195663 0.998935 0.000000
Si Si5 0.309161 0.500000 0.250000
O O1 0.750000 0.250000 0.333451
O O2 0.652984 0.531684 0.374767
O O3 0.561759 0.176244 0.347177
O O4 0.632851 0.474937 0.291885
O O5 0.922890 0.608511 0.406585
O O6 0.859189 0.973580 0.457471
O O7 0.000000 0.000000 0.412434
O O8 0.250000 0.250000 0.000000
O O9 0.250000 0.750000 0.000000
O O10 0.250000 0.250000 0.254194
#
# Coordination Sequence:
#
# PCOD9499103 Si02
#       5
#    16  16   8   8   8
#     4  10  23  43  74  98 145 185 243 291 360 422
#     4  10  24  44  67  99 141 183 235 290 359 415
#     4  10  24  43  71 106 134 196 230 297 359 428
#     4  12  29  43  72 106 134 183 240 286 356 429
#     4  10  24  42  73 107 136 192 238 292 360 423
#
# _framework density 21.231290999999999
#
# number of rings (size 3 to 8) (size 9 to 14) (size 15 to 20)
#    0.000    1.714    0.000    1.286   20.000    0.571 
#    0.000    7.857    0.000    0.000    0.000    0.000 
#    0.000    0.000    0.000    0.000    0.000    0.000 
#
# Total GULP energy -155926.872081 kJ/mol
# GULP energy per Si atom -5568.816860 kJ/mol
# Density = 2.118297 g / cm^3
# Si number density = 21.231291 Si / 1000 Ang^3
#
#
#
# Elastic Constant Matrix: (Units=GPa)
#
#
# Indices 1 2 3 4 5 6 
#
# 1 72.6165 32.6262 56.9631 0.0000 0.0000 0.0000
# 2 32.6262 99.5005 59.5901 0.0000 0.0000 0.0000
# 3 56.9631 59.5901 238.8028 0.0000 0.0000 0.0000
# 4 0.0000 0.0000 0.0000 24.0833 0.0000 0.0000
# 5 0.0000 0.0000 0.0000 0.0000 43.0770 0.0000
# 6 0.0000 0.0000 0.0000 0.0000 0.0000 20.9824
#
#
#
# Elastic Compliance Matrix: (Units=1/GPa)
#
#
# Indices 1 2 3 4 5 6 
#
# 1 0.018174 -0.003954 -0.003349 0.000000 0.000000 0.000000
# 2 -0.003954 0.012676 -0.002220 0.000000 0.000000 0.000000
# 3 -0.003349 -0.002220 0.005540 0.000000 0.000000 0.000000
# 4 0.000000 0.000000 0.000000 0.041523 0.000000 0.000000
# 5 0.000000 0.000000 0.000000 0.000000 0.023214 0.000000
# 6 0.000000 0.000000 0.000000 0.000000 0.000000 0.047659
#
#
# Mechanical properties :
#
#
# Convention : Reuss Voigt Hill
#
# Bulk Modulus (GPa) = 57.65106 78.80872 68.22989
# Shear Modulus (GPa) = 28.79961 35.07789 31.93875
#
# Velocity S-wave (km/s) = 3.68702 4.06911 3.88277
# Velocity P-wave (km/s) = 6.73337 7.69913 7.23239
#
# Compressibility (1/GPa) = 0.01734574
#
# Stress axis : x y z
#
# Youngs Moduli (GPa) = 55.02312 78.88770 180.49596
#
# Poissons Ratio (x) = 0.31191 0.60440
# Poissons Ratio (y) = 0.21756 0.40071
# Poissons Ratio (z) = 0.18425 0.17513
#
# Static dielectric constant tensor:
#      x y z
#    x 1.833970 0.000000 0.000000 
#    y 0.000000 2.023120 0.000000 
#    z 0.000000 0.000000 0.741630 
# 
# From -- ./inp_files/66799.got.cif
#   From: 2010.05.17/outbox.cif.g08.bks.cpg/sg66_34_cif.got.tgz:66799.got - 2010.06.03 17:51:23.
