data_PCOD9499438
_publ_section_title
;
Structure prediction by ZEFSAII (Michael W. Deem and Ramdas Pophale) SiO2 
 PCOD9499438
Probable space group: C C C M
;
_chemical_formula_sum "Si O2"
_cell_formula_units_Z 60
_cell_length_a 10.046019
_cell_length_b 20.642717
_cell_length_c 14.305106
_cell_angle_alpha 90.000000
_cell_angle_beta 90.000000
_cell_angle_gamma 90.000000
_cell_volume 2966.551786
_symmetry_space_group_name_H-M "C C C M"
_symmetry_group_IT_number 66
_symmetry_cell_setting 'orthorhombic'
loop_
_space_group_symop_operation_xyz
x,y,z
-x,-y,z
x,-y,1/2-z
-x,y,1/2-z
-x,-y,-z
x,y,-z
-x,y,1/2+z
x,-y,1/2+z
1/2+x,1/2+y,z
1/2-x,1/2-y,z
1/2+x,1/2-y,1/2-z
1/2-x,1/2+y,1/2-z
1/2-x,1/2-y,-z
1/2+x,1/2+y,-z
1/2-x,1/2+y,1/2+z
1/2+x,1/2-y,1/2+z
loop_
_atom_site_type_symbol
_atom_site_label
_atom_site_fract_x
_atom_site_fract_y
_atom_site_fract_z
Si Si1 0.924477 0.312000 0.500000
Si Si2 0.129198 0.198683 0.500000
Si Si3 0.899523 0.558689 0.500000
Si Si4 0.500000 0.500000 0.750000
Si Si5 0.151679 0.309348 0.789003
Si Si6 0.703544 0.404545 0.844974
O O1 0.850274 0.316873 0.598864
O O2 0.998975 0.242855 0.500000
O O3 0.029212 0.371244 0.500000
O O4 0.250000 0.250000 0.500000
O O5 0.143117 0.152568 0.589989
O O6 0.807083 0.557400 0.590462
O O7 0.000000 0.500000 0.500000
O O8 0.591725 0.452931 0.810707
O O9 0.250000 0.250000 0.765139
O O10 0.215345 0.371372 0.738835
O O11 0.000000 0.299548 0.750000
#
# Coordination Sequence:
#
# PCOD9499438 Si02
#       6
#     8   8   8   4  16  16
#     4  12  24  43  68 116 139 182 245 292 383 429
#     4  11  20  47  74 106 140 189 240 313 373 435
#     4  11  25  47  74 102 139 201 242 303 369 454
#     4  12  32  46  66 116 140 222 248 298 380 444
#     4  12  25  44  73 110 148 187 239 312 374 444
#     4  11  26  48  73  99 154 191 252 305 370 444
#
# _framework density 20.225503
#
# number of rings (size 3 to 8) (size 9 to 14) (size 15 to 20)
#    0.000    0.533    5.333    2.800    9.333    2.133 
#    0.000    0.000    0.000    0.000    0.000    0.000 
#    0.000    0.000    0.000    0.000    0.000    0.000 
#
# Total GULP energy -167856.307209 kJ/mol
# GULP energy per Si atom -5595.210240 kJ/mol
# Density = 2.017947 g / cm^3
# Si number density = 20.225503 Si / 1000 Ang^3
#
#
#
# Elastic Constant Matrix: (Units=GPa)
#
#
# Indices 1 2 3 4 5 6 
#
# 1 131.4511 98.9984 77.3746 0.0000 0.0000 0.0000
# 2 98.9984 141.3226 83.1428 0.0000 0.0000 0.0000
# 3 77.3746 83.1428 174.4626 0.0000 0.0000 0.0000
# 4 0.0000 0.0000 0.0000 23.9631 0.0000 0.0000
# 5 0.0000 0.0000 0.0000 0.0000 33.1935 0.0000
# 6 0.0000 0.0000 0.0000 0.0000 0.0000 58.5444
#
#
#
# Elastic Compliance Matrix: (Units=1/GPa)
#
#
# Indices 1 2 3 4 5 6 
#
# 1 0.016896 -0.010321 -0.002575 0.000000 0.000000 0.000000
# 2 -0.010321 0.016138 -0.003113 0.000000 0.000000 0.000000
# 3 -0.002575 -0.003113 0.008357 0.000000 0.000000 0.000000
# 4 0.000000 0.000000 0.000000 0.041731 0.000000 0.000000
# 5 0.000000 0.000000 0.000000 0.000000 0.030126 0.000000
# 6 0.000000 0.000000 0.000000 0.000000 0.000000 0.017081
#
#
# Mechanical properties :
#
#
# Convention : Reuss Voigt Hill
#
# Bulk Modulus (GPa) = 106.68973 107.36312 107.02642
# Shear Modulus (GPa) = 30.21668 35.65490 32.93579
#
# Velocity S-wave (km/s) = 3.86941 4.20321 4.03976
# Velocity P-wave (km/s) = 8.53392 8.76095 8.64818
#
# Compressibility (1/GPa) = 0.00937297
#
# Stress axis : x y z
#
# Youngs Moduli (GPa) = 59.18588 61.96696 119.65393
#
# Poissons Ratio (x) = 0.63957 0.30808
# Poissons Ratio (y) = 0.61086 0.37251
# Poissons Ratio (z) = 0.15239 0.19292
#
# Static dielectric constant tensor:
#      x y z
#    x 1.743230 0.000000 0.000000 
#    y 0.000000 1.711080 0.000000 
#    z 0.000000 0.000000 1.713860 
# 
# From -- ./inp_files/14519.got.cif
#   From: 2010.05.17/outbox.cif.g08.bks.cpg/sg66_8_cif.got.tgz:14519.got - 2010.06.03 17:51:23.
