data_PCOD9499995
_publ_section_title
;
Structure prediction by ZEFSAII (Michael W. Deem and Ramdas Pophale) SiO2 
 PCOD9499995
Probable space group: C C C M
;
_chemical_formula_sum "Si O2"
_cell_formula_units_Z 44
_cell_length_a 4.850229
_cell_length_b 17.124314
_cell_length_c 23.898201
_cell_angle_alpha 90.000000
_cell_angle_beta 90.000000
_cell_angle_gamma 90.000000
_cell_volume 1984.909161
_symmetry_space_group_name_H-M "C C C M"
_symmetry_group_IT_number 66
_symmetry_cell_setting 'orthorhombic'
loop_
_space_group_symop_operation_xyz
x,y,z
-x,-y,z
x,-y,1/2-z
-x,y,1/2-z
-x,-y,-z
x,y,-z
-x,y,1/2+z
x,-y,1/2+z
1/2+x,1/2+y,z
1/2-x,1/2-y,z
1/2+x,1/2-y,1/2-z
1/2-x,1/2+y,1/2-z
1/2-x,1/2-y,-z
1/2+x,1/2+y,-z
1/2-x,1/2+y,1/2+z
1/2+x,1/2-y,1/2+z
loop_
_atom_site_type_symbol
_atom_site_label
_atom_site_fract_x
_atom_site_fract_y
_atom_site_fract_z
Si Si1 0.252581 0.059513 0.000000
Si Si2 0.868442 0.580651 0.657180
Si Si3 0.834648 0.839399 0.889841
Si Si4 0.500000 0.500000 0.250000
O O1 0.249127 0.114284 0.054325
O O2 0.500000 0.000000 0.000000
O O3 0.000000 0.000000 0.000000
O O4 0.646499 0.632034 0.622544
O O5 0.699778 0.551172 0.710703
O O6 0.000000 0.500000 0.632509
O O7 0.141669 0.632327 0.661705
O O8 0.750000 0.750000 0.898137
#
# Coordination Sequence:
#
# PCOD9499995 Si02
#       4
#     8  16  16   4
#     4  12  25  42  73 108 135 189 238 272 333 429
#     4  12  24  45  75 101 131 191 238 290 338 417
#     4  12  26  45  70 107 152 180 221 293 361 416
#     4  12  26  44  82  94 134 176 260 292 338 398
#
# _framework density 22.167261
#
# number of rings (size 3 to 8) (size 9 to 14) (size 15 to 20)
#    0.000    0.000    3.636    7.636    0.000    0.000 
#    0.000    9.091    0.000    0.000    0.000    0.000 
#    0.000    0.000    0.000    0.000    0.000    0.000 
#
# Total GULP energy -122836.000789 kJ/mol
# GULP energy per Si atom -5583.454581 kJ/mol
# Density = 2.211681 g / cm^3
# Si number density = 22.167261 Si / 1000 Ang^3
#
#
#
# Elastic Constant Matrix: (Units=GPa)
#
#
# Indices 1 2 3 4 5 6 
#
# 1 180.2613 69.3102 23.8439 0.0000 0.0000 0.0000
# 2 69.3102 202.4761 44.6495 0.0000 0.0000 0.0000
# 3 23.8439 44.6495 80.3975 0.0000 0.0000 0.0000
# 4 0.0000 0.0000 0.0000 28.3810 0.0000 0.0000
# 5 0.0000 0.0000 0.0000 0.0000 20.1187 0.0000
# 6 0.0000 0.0000 0.0000 0.0000 0.0000 41.8938
#
#
#
# Elastic Compliance Matrix: (Units=1/GPa)
#
#
# Indices 1 2 3 4 5 6 
#
# 1 0.006431 -0.002029 -0.000780 0.000000 0.000000 0.000000
# 2 -0.002029 0.006268 -0.002879 0.000000 0.000000 0.000000
# 3 -0.000780 -0.002879 0.014269 0.000000 0.000000 0.000000
# 4 0.000000 0.000000 0.000000 0.035235 0.000000 0.000000
# 5 0.000000 0.000000 0.000000 0.000000 0.049705 0.000000
# 6 0.000000 0.000000 0.000000 0.000000 0.000000 0.023870
#
#
# Mechanical properties :
#
#
# Convention : Reuss Voigt Hill
#
# Bulk Modulus (GPa) = 64.14301 82.08247 73.11274
# Shear Modulus (GPa) = 32.81856 39.76744 36.29300
#
# Velocity S-wave (km/s) = 3.85190 4.24013 4.05066
# Velocity P-wave (km/s) = 6.98438 7.81541 7.41155
#
# Compressibility (1/GPa) = 0.01559016
#
# Stress axis : x y z
#
# Youngs Moduli (GPa) = 155.49696 159.52807 70.08339
#
# Poissons Ratio (x) = 0.32374 0.05468
# Poissons Ratio (y) = 0.31556 0.20180
# Poissons Ratio (z) = 0.12133 0.45935
#
# Static dielectric constant tensor:
#      x y z
#    x 1.831500 0.000000 0.000000 
#    y 0.000000 1.870020 0.000000 
#    z 0.000000 0.000000 1.963490 
# 
# From -- ./inp_files/53786.got.cif
#   From: 2010.05.17/outbox.cif.g08.bks.cpg/sg66_27_cif.got.tgz:53786.got - 2010.06.03 17:51:23.
