data_PCOD9499366
_publ_section_title
;
Structure prediction by ZEFSAII (Michael W. Deem and Ramdas Pophale) SiO2 
 PCOD9499366
Probable space group: C C C M
;
_chemical_formula_sum "Si O2"
_cell_formula_units_Z 112
_cell_length_a 14.224671
_cell_length_b 28.606702
_cell_length_c 14.290930
_cell_angle_alpha 90.000000
_cell_angle_beta 90.000000
_cell_angle_gamma 90.000000
_cell_volume 5815.278445
_symmetry_space_group_name_H-M "C C C M"
_symmetry_group_IT_number 66
_symmetry_cell_setting 'orthorhombic'
loop_
_space_group_symop_operation_xyz
x,y,z
-x,-y,z
x,-y,1/2-z
-x,y,1/2-z
-x,-y,-z
x,y,-z
-x,y,1/2+z
x,-y,1/2+z
1/2+x,1/2+y,z
1/2-x,1/2-y,z
1/2+x,1/2-y,1/2-z
1/2-x,1/2+y,1/2-z
1/2-x,1/2-y,-z
1/2+x,1/2+y,-z
1/2-x,1/2+y,1/2+z
1/2+x,1/2-y,1/2+z
loop_
_atom_site_type_symbol
_atom_site_label
_atom_site_fract_x
_atom_site_fract_y
_atom_site_fract_z
Si Si1 0.037687 0.667508 0.144898
Si Si2 0.390130 0.315189 0.227030
Si Si3 0.247720 0.867405 0.610249
Si Si4 0.476061 0.064433 0.395581
Si Si5 0.344448 0.049031 0.221632
Si Si6 0.749043 0.693634 0.392955
Si Si7 0.373724 0.226112 0.896397
O O1 0.002955 0.619755 0.098566
O O2 0.148199 0.674791 0.135521
O O3 0.000000 0.664726 0.250000
O O4 0.982396 0.711066 0.102782
O O5 0.500000 0.316940 0.250000
O O6 0.353359 0.351652 0.149507
O O7 0.328633 0.322938 0.319736
O O8 0.363866 0.264512 0.183409
O O9 0.247890 0.879062 0.500000
O O10 0.285450 0.910209 0.673022
O O11 0.313666 0.820977 0.621329
O O12 0.452905 0.048118 0.500000
O O13 0.393986 0.064143 0.318418
O O14 0.567991 0.040371 0.350229
O O15 0.296721 0.000000 0.250000
O O16 0.730325 0.679198 0.500000
O O17 0.750000 0.750000 0.390293
O O18 0.350284 0.244637 0.000000
#
# Coordination Sequence:
#
# PCOD9499366 Si02
#       7
#    16  16  16  16  16  16  16
#     4  12  20  34  57  82 121 165 202 244 302 367
#     4  12  25  39  59  87 122 166 215 269 316 359
#     4  11  23  42  65  91 125 165 214 263 317 377
#     4  11  20  34  56  86 124 164 200 238 296 373
#     4  11  23  38  58  87 121 158 203 257 312 376
#     4  11  23  36  51  77 117 164 211 257 304 357
#     4  11  21  35  59  92 126 164 211 251 298 371
#
# _framework density 19.259609999999999
#
# number of rings (size 3 to 8) (size 9 to 14) (size 15 to 20)
#    0.000    0.714    2.857    8.143    0.000    5.143 
#    0.000    0.000    0.000    0.429    0.000    1.000 
#    0.000    0.000    0.000    0.000    0.000    0.000 
#
# Total GULP energy -313056.163353 kJ/mol
# GULP energy per Si atom -5590.288631 kJ/mol
# Density = 1.921577 g / cm^3
# Si number density = 19.259610 Si / 1000 Ang^3
#
#
#
# Elastic Constant Matrix: (Units=GPa)
#
#
# Indices 1 2 3 4 5 6 
#
# 1 112.1111 35.4943 50.8812 0.0000 0.0000 0.0000
# 2 35.4943 87.6897 41.2585 0.0000 0.0000 0.0000
# 3 50.8812 41.2585 177.6353 0.0000 0.0000 0.0000
# 4 0.0000 0.0000 0.0000 4.9308 0.0000 0.0000
# 5 0.0000 0.0000 0.0000 0.0000 -24.7401 0.0000
# 6 0.0000 0.0000 0.0000 0.0000 0.0000 22.2413
#
#
#
# Elastic Compliance Matrix: (Units=1/GPa)
#
#
# Indices 1 2 3 4 5 6 
#
# 1 0.011067 -0.003355 -0.002391 0.000000 0.000000 0.000000
# 2 -0.003355 0.013820 -0.002249 0.000000 0.000000 0.000000
# 3 -0.002391 -0.002249 0.006837 0.000000 0.000000 0.000000
# 4 0.000000 0.000000 0.000000 0.202806 0.000000 0.000000
# 5 0.000000 0.000000 0.000000 0.000000 -0.040420 0.000000
# 6 0.000000 0.000000 0.000000 0.000000 0.000000 0.044961
#
#
# Mechanical properties :
#
#
# Convention : Reuss Voigt Hill
#
# Bulk Modulus (GPa) = 63.55438 70.30045 66.92742
# Shear Modulus (GPa) = 19.20829 17.13987 18.17408
#
# Velocity S-wave (km/s) = 3.16149 2.98642 3.07520
# Velocity P-wave (km/s) = 6.81154 6.96221 6.88729
#
# Compressibility (1/GPa) = 0.01573456
#
# Stress axis : x y z
#
# Youngs Moduli (GPa) = 90.35992 72.35957 146.26990
#
# Poissons Ratio (x) = 0.24274 0.34970
# Poissons Ratio (y) = 0.30313 0.32896
# Poissons Ratio (z) = 0.21603 0.16273
#
# Static dielectric constant tensor:
#      x y z
#    x 1.669100 0.000000 0.000000 
#    y 0.000000 1.727630 0.000000 
#    z 0.000000 0.000000 1.730820 
# 
# From -- ./inp_files/29021.got.cif
#   From: 2010.05.17/outbox.cif.g08.bks.cpg/sg66_15_cif.got.tgz:29021.got - 2010.06.03 17:51:23.
