data_PCOD9499943
_publ_section_title
;
Structure prediction by ZEFSAII (Michael W. Deem and Ramdas Pophale) SiO2 
 PCOD9499943
Probable space group: C C C M
;
_chemical_formula_sum "Si O2"
_cell_formula_units_Z 44
_cell_length_a 9.982447
_cell_length_b 10.155885
_cell_length_c 19.221219
_cell_angle_alpha 90.000000
_cell_angle_beta 90.000000
_cell_angle_gamma 90.000000
_cell_volume 1948.658403
_symmetry_space_group_name_H-M "C C C M"
_symmetry_group_IT_number 66
_symmetry_cell_setting 'orthorhombic'
loop_
_space_group_symop_operation_xyz
x,y,z
-x,-y,z
x,-y,1/2-z
-x,y,1/2-z
-x,-y,-z
x,y,-z
-x,y,1/2+z
x,-y,1/2+z
1/2+x,1/2+y,z
1/2-x,1/2-y,z
1/2+x,1/2-y,1/2-z
1/2-x,1/2+y,1/2-z
1/2-x,1/2-y,-z
1/2+x,1/2+y,-z
1/2-x,1/2+y,1/2+z
1/2+x,1/2-y,1/2+z
loop_
_atom_site_type_symbol
_atom_site_label
_atom_site_fract_x
_atom_site_fract_y
_atom_site_fract_z
Si Si1 0.500000 0.500000 0.250000
Si Si2 0.500000 0.000000 0.377348
Si Si3 0.450106 0.811382 0.500000
Si Si4 0.666935 0.538738 0.000000
Si Si5 0.720943 0.596391 0.645671
O O1 0.398671 0.422012 0.299742
O O2 0.509879 0.874758 0.430091
O O3 0.641717 0.987091 0.337860
O O4 0.443066 0.654663 0.500000
O O5 0.303751 0.876783 0.500000
O O6 0.673563 0.457800 0.929112
O O7 0.750000 0.750000 0.642747
#
# Coordination Sequence:
#
# PCOD9499943 Si02
#       5
#     4   8   8   8  16
#     4  12  32  48  60 106 144 196 236 288 366 420
#     4   9  20  41  72 104 142 188 230 286 360 420
#     4   8  16  35  68 115 144 172 225 293 366 420
#     4   9  19  40  76 108 140 177 234 307 352 411
#     4  11  26  48  72 106 141 186 242 294 358 428
#
# _framework density 22.579636000000001
#
# number of rings (size 3 to 8) (size 9 to 14) (size 15 to 20)
#    0.000    2.182    0.000    1.636    5.091    4.364 
#    6.545    0.000    0.000    0.000    0.000    0.000 
#    0.000    0.000    0.000    0.000    0.000    0.000 
#
# Total GULP energy -122879.510901 kJ/mol
# GULP energy per Si atom -5585.432314 kJ/mol
# Density = 2.252824 g / cm^3
# Si number density = 22.579636 Si / 1000 Ang^3
#
#
#
# Elastic Constant Matrix: (Units=GPa)
#
#
# Indices 1 2 3 4 5 6 
#
# 1 175.9797 54.6118 63.4434 0.0000 0.0000 0.0000
# 2 54.6118 168.7059 84.3821 0.0000 0.0000 0.0000
# 3 63.4434 84.3821 138.7092 0.0000 0.0000 0.0000
# 4 0.0000 0.0000 0.0000 5.3230 0.0000 0.0000
# 5 0.0000 0.0000 0.0000 0.0000 29.9001 0.0000
# 6 0.0000 0.0000 0.0000 0.0000 0.0000 35.2027
#
#
#
# Elastic Compliance Matrix: (Units=1/GPa)
#
#
# Indices 1 2 3 4 5 6 
#
# 1 0.006907 -0.000943 -0.002586 0.000000 0.000000 0.000000
# 2 -0.000943 0.008648 -0.004830 0.000000 0.000000 0.000000
# 3 -0.002586 -0.004830 0.011330 0.000000 0.000000 0.000000
# 4 0.000000 0.000000 0.000000 0.187865 0.000000 0.000000
# 5 0.000000 0.000000 0.000000 0.000000 0.033445 0.000000
# 6 0.000000 0.000000 0.000000 0.000000 0.000000 0.028407
#
#
# Mechanical properties :
#
#
# Convention : Reuss Voigt Hill
#
# Bulk Modulus (GPa) = 98.33741 98.69659 98.51700
# Shear Modulus (GPa) = 16.85152 32.81567 24.83360
#
# Velocity S-wave (km/s) = 2.73484 3.81639 3.31996
# Velocity P-wave (km/s) = 7.32246 7.95142 7.64341
#
# Compressibility (1/GPa) = 0.01016907
#
# Stress axis : x y z
#
# Youngs Moduli (GPa) = 144.77608 115.62739 88.25824
#
# Poissons Ratio (x) = 0.10899 0.22822
# Poissons Ratio (y) = 0.13646 0.42629
# Poissons Ratio (z) = 0.37437 0.55849
#
# Static dielectric constant tensor:
#      x y z
#    x 1.981240 0.000000 0.000000 
#    y 0.000000 1.809770 0.000000 
#    z 0.000000 0.000000 1.865120 
# 
# From -- ./inp_files/37674.got.cif
#   From: 2010.05.17/outbox.cif.g08.bks.cpg/sg66_19_cif.got.tgz:37674.got - 2010.06.03 17:51:23.
