data_PCOD9499220
_publ_section_title
;
Structure prediction by ZEFSAII (Michael W. Deem and Ramdas Pophale) SiO2 
 PCOD9499220
Probable space group: C C C M
;
_chemical_formula_sum "Si O2"
_cell_formula_units_Z 88
_cell_length_a 17.156756
_cell_length_b 10.239161
_cell_length_c 22.541085
_cell_angle_alpha 90.000000
_cell_angle_beta 90.000000
_cell_angle_gamma 90.000000
_cell_volume 3959.810140
_symmetry_space_group_name_H-M "C C C M"
_symmetry_group_IT_number 66
_symmetry_cell_setting 'orthorhombic'
loop_
_space_group_symop_operation_xyz
x,y,z
-x,-y,z
x,-y,1/2-z
-x,y,1/2-z
-x,-y,-z
x,y,-z
-x,y,1/2+z
x,-y,1/2+z
1/2+x,1/2+y,z
1/2-x,1/2-y,z
1/2+x,1/2-y,1/2-z
1/2-x,1/2+y,1/2-z
1/2-x,1/2-y,-z
1/2+x,1/2+y,-z
1/2-x,1/2+y,1/2+z
1/2+x,1/2-y,1/2+z
loop_
_atom_site_type_symbol
_atom_site_label
_atom_site_fract_x
_atom_site_fract_y
_atom_site_fract_z
Si Si1 0.654021 0.503694 0.000000
Si Si2 0.437187 0.885827 0.591043
Si Si3 0.456856 0.747988 0.000000
Si Si4 0.426312 0.240278 0.790477
Si Si5 0.804685 0.131364 0.792813
Si Si6 0.414055 0.529828 0.618921
Si Si7 0.666453 0.985267 0.500000
O O1 0.637150 0.575029 0.062448
O O2 0.742890 0.456789 0.000000
O O3 0.592989 0.383357 0.000000
O O4 0.486062 0.773834 0.556193
O O5 0.415447 0.865572 0.658938
O O6 0.360915 0.928114 0.555682
O O7 0.500000 0.000000 0.587733
O O8 0.389853 0.859651 0.000000
O O9 0.500000 0.211566 0.750000
O O10 0.353942 0.276596 0.750869
O O11 0.436890 0.369375 0.829673
O O12 0.750000 0.250000 0.818616
O O13 0.860420 0.075565 0.845464
O O14 0.781705 0.000000 0.750000
O O15 0.500000 0.500000 0.594926
#
# Coordination Sequence:
#
# PCOD9499220 Si02
#       7
#     8  16   8  16  16  16   8
#     4  12  24  37  66 104 127 168 234 285 346 412
#     4   9  20  41  66  93 137 180 228 281 343 417
#     4   9  19  38  62  96 136 180 224 275 346 420
#     4  11  22  41  69  95 129 181 238 281 346 408
#     4  10  24  45  68  96 142 187 232 292 353 411
#     4  11  23  43  67  96 136 177 229 284 343 418
#     4   9  21  41  62  98 142 178 209 290 363 399
#
# _framework density 22.223288
#
# number of rings (size 3 to 8) (size 9 to 14) (size 15 to 20)
#    0.000    1.818    1.818    2.727    0.000    6.182 
#    6.545    0.909    0.000    0.000    0.000    0.000 
#    0.000    0.000    0.000    0.000    0.000    0.000 
#
# Total GULP energy -244969.858323 kJ/mol
# GULP energy per Si atom -5567.496780 kJ/mol
# Density = 2.217271 g / cm^3
# Si number density = 22.223288 Si / 1000 Ang^3
#
#
#
# Elastic Constant Matrix: (Units=GPa)
#
#
# Indices 1 2 3 4 5 6 
#
# 1 59.3517 20.6684 29.7518 0.0000 0.0000 0.0000
# 2 20.6684 68.3029 14.0564 0.0000 0.0000 0.0000
# 3 29.7518 14.0564 132.6756 0.0000 0.0000 0.0000
# 4 0.0000 0.0000 0.0000 25.0836 0.0000 0.0000
# 5 0.0000 0.0000 0.0000 0.0000 16.3790 0.0000
# 6 0.0000 0.0000 0.0000 0.0000 0.0000 -180.9133
#
#
#
# Elastic Compliance Matrix: (Units=1/GPa)
#
#
# Indices 1 2 3 4 5 6 
#
# 1 0.020795 -0.005452 -0.004086 0.000000 0.000000 0.000000
# 2 -0.005452 0.016396 -0.000515 0.000000 0.000000 0.000000
# 3 -0.004086 -0.000515 0.008508 0.000000 0.000000 0.000000
# 4 0.000000 0.000000 0.000000 0.039867 0.000000 0.000000
# 5 0.000000 0.000000 0.000000 0.000000 0.061054 0.000000
# 6 0.000000 0.000000 0.000000 0.000000 0.000000 -0.005528
#
#
# Mechanical properties :
#
#
# Convention : Reuss Voigt Hill
#
# Bulk Modulus (GPa) = 39.06956 43.25372 41.16164
# Shear Modulus (GPa) = 29.45886 -14.83324 7.31281
#
# Velocity S-wave (km/s) = 3.64481 -2.58633 1.81597
# Velocity P-wave (km/s) = 5.94403 3.25371 4.79156
#
# Compressibility (1/GPa) = 0.02559537
#
# Stress axis : x y z
#
# Youngs Moduli (GPa) = 48.08783 60.98947 117.53809
#
# Poissons Ratio (x) = 0.33250 0.48022
# Poissons Ratio (y) = 0.26217 0.06048
# Poissons Ratio (z) = 0.19647 0.03138
#
# Static dielectric constant tensor:
#      x y z
#    x 1.811340 0.000000 0.000000 
#    y 0.000000 1.962810 0.000000 
#    z 0.000000 0.000000 1.806200 
# 
# From -- ./inp_files/58059.got.cif
#   From: 2010.05.17/outbox.cif.g08.bks.cpg/sg66_30_cif.got.tgz:58059.got - 2010.06.03 17:51:23.
