data_PCOD9499884
_publ_section_title
;
Structure prediction by ZEFSAII (Michael W. Deem and Ramdas Pophale) SiO2 
 PCOD9499884
Probable space group: C C C M
;
_chemical_formula_sum "Si O2"
_cell_formula_units_Z 68
_cell_length_a 12.673425
_cell_length_b 11.822765
_cell_length_c 21.075976
_cell_angle_alpha 90.000000
_cell_angle_beta 90.000000
_cell_angle_gamma 90.000000
_cell_volume 3157.917294
_symmetry_space_group_name_H-M "C C C M"
_symmetry_group_IT_number 66
_symmetry_cell_setting 'orthorhombic'
loop_
_space_group_symop_operation_xyz
x,y,z
-x,-y,z
x,-y,1/2-z
-x,y,1/2-z
-x,-y,-z
x,y,-z
-x,y,1/2+z
x,-y,1/2+z
1/2+x,1/2+y,z
1/2-x,1/2-y,z
1/2+x,1/2-y,1/2-z
1/2-x,1/2+y,1/2-z
1/2-x,1/2-y,-z
1/2+x,1/2+y,-z
1/2-x,1/2+y,1/2+z
1/2+x,1/2-y,1/2+z
loop_
_atom_site_type_symbol
_atom_site_label
_atom_site_fract_x
_atom_site_fract_y
_atom_site_fract_z
Si Si1 0.500000 0.500000 0.750000
Si Si2 0.689231 0.076865 0.073872
Si Si3 0.412686 0.326079 0.427433
Si Si4 0.892645 0.819360 0.165582
Si Si5 0.668414 0.922413 0.185682
O O1 0.571913 0.584939 0.786954
O O2 0.633257 0.198895 0.074500
O O3 0.812304 0.097912 0.093992
O O4 0.634300 0.000237 0.126761
O O5 0.686760 0.036862 0.000000
O O6 0.432448 0.357356 0.500000
O O7 0.521755 0.329410 0.390140
O O8 0.773787 0.863015 0.156305
O O9 0.898552 0.692574 0.194668
O O10 0.677114 0.000000 0.250000
#
# Coordination Sequence:
#
# PCOD9499884 Si02
#       5
#     4  16  16  16  16
#     4  12  24  44  60  92 120 170 216 260 332 388
#     4   9  20  41  67  95 137 176 214 272 331 390
#     4   9  20  40  68 100 129 174 223 265 326 397
#     4  11  25  41  66  91 128 174 216 274 321 389
#     4  11  25  43  61  98 134 172 218 275 332 387
#
# _framework density 21.533179000000001
#
# number of rings (size 3 to 8) (size 9 to 14) (size 15 to 20)
#    0.000    1.882    1.176    2.824    3.294    4.706 
#    0.000    7.647    0.000    0.000    0.000    0.000 
#    0.000    0.000    0.000    0.000    0.000    0.000 
#
# Total GULP energy -189355.358805 kJ/mol
# GULP energy per Si atom -5569.275259 kJ/mol
# Density = 2.148417 g / cm^3
# Si number density = 21.533179 Si / 1000 Ang^3
#
#
#
# Elastic Constant Matrix: (Units=GPa)
#
#
# Indices 1 2 3 4 5 6 
#
# 1 68.1642 14.0227 31.5843 0.0000 0.0000 0.0000
# 2 14.0227 141.9570 68.1801 0.0000 0.0000 0.0000
# 3 31.5843 68.1801 94.2646 0.0000 0.0000 0.0000
# 4 0.0000 0.0000 0.0000 34.9822 0.0000 0.0000
# 5 0.0000 0.0000 0.0000 0.0000 139.2078 0.0000
# 6 0.0000 0.0000 0.0000 0.0000 0.0000 36.7102
#
#
#
# Elastic Compliance Matrix: (Units=1/GPa)
#
#
# Indices 1 2 3 4 5 6 
#
# 1 0.017624 0.001678 -0.007119 0.000000 0.000000 0.000000
# 2 0.001678 0.010954 -0.008485 0.000000 0.000000 0.000000
# 3 -0.007119 -0.008485 0.019131 0.000000 0.000000 0.000000
# 4 0.000000 0.000000 0.000000 0.028586 0.000000 0.000000
# 5 0.000000 0.000000 0.000000 0.000000 0.007184 0.000000
# 6 0.000000 0.000000 0.000000 0.000000 0.000000 0.027240
#
#
# Mechanical properties :
#
#
# Convention : Reuss Voigt Hill
#
# Bulk Modulus (GPa) = 50.35999 59.10666 54.73333
# Shear Modulus (GPa) = 34.43796 54.88664 44.66230
#
# Velocity S-wave (km/s) = 4.00346 5.05417 4.55919
# Velocity P-wave (km/s) = 6.69389 7.84654 7.29303
#
# Compressibility (1/GPa) = 0.01985703
#
# Stress axis : x y z
#
# Youngs Moduli (GPa) = 56.74151 91.29199 52.27186
#
# Poissons Ratio (x) = -0.15320 0.37211
# Poissons Ratio (y) = -0.09522 0.44353
# Poissons Ratio (z) = 0.40393 0.77462
#
# Static dielectric constant tensor:
#      x y z
#    x -2.468890 0.000000 0.000000 
#    y 0.000000 1.816020 0.000000 
#    z 0.000000 0.000000 1.776070 
# 
# From -- ./inp_files/48219.got.cif
#   From: 2010.05.17/outbox.cif.g08.bks.cpg/sg66_25_cif.got.tgz:48219.got - 2010.06.03 17:51:23.
