data_PCOD9499322
_publ_section_title
;
Structure prediction by ZEFSAII (Michael W. Deem and Ramdas Pophale) SiO2 
 PCOD9499322
Probable space group: C C C M
;
_chemical_formula_sum "Si O2"
_cell_formula_units_Z 80
_cell_length_a 22.983132
_cell_length_b 15.173874
_cell_length_c 13.364345
_cell_angle_alpha 90.000000
_cell_angle_beta 90.000000
_cell_angle_gamma 90.000000
_cell_volume 4660.723761
_symmetry_space_group_name_H-M "C C C M"
_symmetry_group_IT_number 66
_symmetry_cell_setting 'orthorhombic'
loop_
_space_group_symop_operation_xyz
x,y,z
-x,-y,z
x,-y,1/2-z
-x,y,1/2-z
-x,-y,-z
x,y,-z
-x,y,1/2+z
x,-y,1/2+z
1/2+x,1/2+y,z
1/2-x,1/2-y,z
1/2+x,1/2-y,1/2-z
1/2-x,1/2+y,1/2-z
1/2-x,1/2-y,-z
1/2+x,1/2+y,-z
1/2-x,1/2+y,1/2+z
1/2+x,1/2-y,1/2+z
loop_
_atom_site_type_symbol
_atom_site_label
_atom_site_fract_x
_atom_site_fract_y
_atom_site_fract_z
Si Si1 0.468473 0.643339 0.000000
Si Si2 0.942382 0.743985 0.699747
Si Si3 0.333263 0.172027 0.613823
Si Si4 0.593233 0.454624 0.500000
Si Si5 0.293021 0.377121 0.384303
Si Si6 0.613991 0.585792 0.783813
O O1 0.456338 0.704346 0.903820
O O2 0.532855 0.601460 0.000000
O O3 0.425939 0.557722 0.000000
O O4 0.890910 0.674641 0.680130
O O5 0.919090 0.822906 0.769881
O O6 0.000000 0.706375 0.750000
O O7 0.347907 0.146910 0.500000
O O8 0.312667 0.274518 0.611291
O O9 0.275184 0.119683 0.643722
O O10 0.626950 0.428552 0.600233
O O11 0.298964 0.409673 0.500000
O O12 0.333368 0.414020 0.296163
O O13 0.576744 0.500000 0.750000
#
# Coordination Sequence:
#
# PCOD9499322 Si02
#       6
#     8  16  16   8  16  16
#     4  11  20  30  38  55  89 123 159 183 197 252
#     4  11  19  28  43  63  87 116 148 183 217 252
#     4   8  14  27  46  61  78 105 144 191 226 245
#     4  11  22  30  38  55  93 129 155 173 211 260
#     4   8  16  29  45  63  79 103 147 193 220 252
#     4  11  21  28  41  61  87 120 147 177 219 255
#
# _framework density 17.164715999999999
#
# number of rings (size 3 to 8) (size 9 to 14) (size 15 to 20)
#    0.000    2.200    5.000    1.200    2.800    0.400 
#    0.000    0.000    0.000   10.800    0.000    0.000 
#    0.000    0.800    0.000    4.400    0.000    0.400 
#
# Total GULP energy -222769.654342 kJ/mol
# GULP energy per Si atom -5569.241359 kJ/mol
# Density = 1.712565 g / cm^3
# Si number density = 17.164716 Si / 1000 Ang^3
#
#
#
# Elastic Constant Matrix: (Units=GPa)
#
#
# Indices 1 2 3 4 5 6 
#
# 1 133.5329 9.6274 46.6894 0.0000 0.0000 0.0000
# 2 9.6274 6.2309 9.1951 0.0000 0.0000 0.0000
# 3 46.6894 9.1951 123.1007 0.0000 0.0000 0.0000
# 4 0.0000 0.0000 0.0000 7.9219 0.0000 0.0000
# 5 0.0000 0.0000 0.0000 0.0000 24.2380 0.0000
# 6 0.0000 0.0000 0.0000 0.0000 0.0000 14.4335
#
#
#
# Elastic Compliance Matrix: (Units=1/GPa)
#
#
# Indices 1 2 3 4 5 6 
#
# 1 0.009172 -0.010158 -0.002720 0.000000 0.000000 0.000000
# 2 -0.010158 0.191624 -0.010461 0.000000 0.000000 0.000000
# 3 -0.002720 -0.010461 0.009936 0.000000 0.000000 0.000000
# 4 0.000000 0.000000 0.000000 0.126233 0.000000 0.000000
# 5 0.000000 0.000000 0.000000 0.000000 0.041258 0.000000
# 6 0.000000 0.000000 0.000000 0.000000 0.000000 0.069283
#
#
# Mechanical properties :
#
#
# Convention : Reuss Voigt Hill
#
# Bulk Modulus (GPa) = 6.09553 43.76536 24.93044
# Shear Modulus (GPa) = 9.10965 22.47552 15.79259
#
# Velocity S-wave (km/s) = 2.30623 3.62249 3.03654
# Velocity P-wave (km/s) = 3.26352 6.56119 5.18169
#
# Compressibility (1/GPa) = 0.16405456
#
# Stress axis : x y z
#
# Youngs Moduli (GPa) = 109.02491 5.21857 100.63943
#
# Poissons Ratio (x) = 0.05301 0.27375
# Poissons Ratio (y) = 1.10748 1.05276
# Poissons Ratio (z) = 0.29655 0.05459
#
# Static dielectric constant tensor:
#      x y z
#    x 1.650930 0.000000 0.000000 
#    y 0.000000 1.567410 0.000000 
#    z 0.000000 0.000000 1.609760 
# 
# From -- ./inp_files/17786.got.cif
#   From: 2010.05.17/outbox.cif.g08.bks.cpg/sg66_9_cif.got.tgz:17786.got - 2010.06.03 17:51:23.
