data_PCOD9499264
_publ_section_title
;
Structure prediction by ZEFSAII (Michael W. Deem and Ramdas Pophale) SiO2 
 PCOD9499264
Probable space group: C C C M
;
_chemical_formula_sum "Si O2"
_cell_formula_units_Z 88
_cell_length_a 25.357465
_cell_length_b 5.142441
_cell_length_c 31.225618
_cell_angle_alpha 90.000000
_cell_angle_beta 90.000000
_cell_angle_gamma 90.000000
_cell_volume 4071.797720
_symmetry_space_group_name_H-M "C C C M"
_symmetry_group_IT_number 66
_symmetry_cell_setting 'orthorhombic'
loop_
_space_group_symop_operation_xyz
x,y,z
-x,-y,z
x,-y,1/2-z
-x,y,1/2-z
-x,-y,-z
x,y,-z
-x,y,1/2+z
x,-y,1/2+z
1/2+x,1/2+y,z
1/2-x,1/2-y,z
1/2+x,1/2-y,1/2-z
1/2-x,1/2+y,1/2-z
1/2-x,1/2-y,-z
1/2+x,1/2+y,-z
1/2-x,1/2+y,1/2+z
1/2+x,1/2-y,1/2+z
loop_
_atom_site_type_symbol
_atom_site_label
_atom_site_fract_x
_atom_site_fract_y
_atom_site_fract_z
Si Si1 0.847323 0.473711 0.338990
Si Si2 0.000000 0.500000 0.918585
Si Si3 0.385279 0.995745 0.434920
Si Si4 0.181803 0.005122 0.453655
Si Si5 0.750000 0.750000 0.380516
Si Si6 0.000000 0.000000 0.642530
Si Si7 0.104555 0.978099 0.199760
O O1 0.879693 0.475707 0.383474
O O2 0.789854 0.578391 0.352517
O O3 0.873306 0.692554 0.309510
O O4 0.853714 0.193697 0.317215
O O5 0.053543 0.468815 0.945233
O O6 0.994566 0.248993 0.888085
O O7 0.347780 0.767563 0.451192
O O8 0.361782 0.268673 0.449807
O O9 0.208975 0.023590 0.500000
O O10 0.219002 0.058391 0.413109
O O11 0.948468 0.021401 0.672323
O O12 0.094355 0.000000 0.250000
#
# Coordination Sequence:
#
# PCOD9499264 Si02
#       7
#    16   8  16  16   8   8  16
#     4  11  23  43  64  96 129 175 225 265 328 385
#     4  12  22  38  68  98 130 174 226 258 310 398
#     4  11  22  41  65  95 133 173 213 265 319 400
#     4  11  24  43  67  99 130 163 213 279 340 381
#     4  10  25  44  74  94 126 172 226 282 318 396
#     4  12  21  40  66 100 133 170 222 268 321 388
#     4  12  24  41  65 100 139 170 211 277 329 382
#
# _framework density 21.612076999999999
#
# number of rings (size 3 to 8) (size 9 to 14) (size 15 to 20)
#    0.000    0.727    3.636    4.909    0.000    6.545 
#    0.000   11.818    0.000    0.000    0.000    0.000 
#    0.000    0.000    0.000    0.000    0.000    0.000 
#
# Total GULP energy -246349.932527 kJ/mol
# GULP energy per Si atom -5598.862103 kJ/mol
# Density = 2.156289 g / cm^3
# Si number density = 21.612077 Si / 1000 Ang^3
#
#
#
# Elastic Constant Matrix: (Units=GPa)
#
#
# Indices 1 2 3 4 5 6 
#
# 1 107.9143 -10.3318 0.3115 0.0000 0.0000 0.0000
# 2 -10.3318 64.9198 10.6824 0.0000 0.0000 0.0000
# 3 0.3115 10.6824 75.2812 0.0000 0.0000 0.0000
# 4 0.0000 0.0000 0.0000 42.7534 0.0000 0.0000
# 5 0.0000 0.0000 0.0000 0.0000 8.3691 0.0000
# 6 0.0000 0.0000 0.0000 0.0000 0.0000 19.2753
#
#
#
# Elastic Compliance Matrix: (Units=1/GPa)
#
#
# Indices 1 2 3 4 5 6 
#
# 1 0.009415 0.001541 -0.000258 0.000000 0.000000 0.000000
# 2 0.001541 0.016024 -0.002280 0.000000 0.000000 0.000000
# 3 -0.000258 -0.002280 0.013608 0.000000 0.000000 0.000000
# 4 0.000000 0.000000 0.000000 0.023390 0.000000 0.000000
# 5 0.000000 0.000000 0.000000 0.000000 0.119487 0.000000
# 6 0.000000 0.000000 0.000000 0.000000 0.000000 0.051880
#
#
# Mechanical properties :
#
#
# Convention : Reuss Voigt Hill
#
# Bulk Modulus (GPa) = 26.98837 27.71548 27.35193
# Shear Modulus (GPa) = 20.14920 30.57646 25.36283
#
# Velocity S-wave (km/s) = 3.05669 3.76544 3.42943
# Velocity P-wave (km/s) = 4.99725 5.63531 5.32584
#
# Compressibility (1/GPa) = 0.03705299
#
# Stress axis : x y z
#
# Youngs Moduli (GPa) = 106.21495 62.40627 73.48540
#
# Poissons Ratio (x) = -0.09615 0.01893
# Poissons Ratio (y) = -0.16365 0.16756
# Poissons Ratio (z) = 0.02736 0.14230
#
# Static dielectric constant tensor:
#      x y z
#    x 1.795150 0.000000 0.000000 
#    y 0.000000 1.758820 0.000000 
#    z 0.000000 0.000000 1.034370 
# 
# From -- ./inp_files/70405.got.cif
#   From: 2010.05.17/outbox.cif.g08.bks.cpg/sg66_36_cif.got.tgz:70405.got - 2010.06.03 17:51:23.
