data_PCOD9499818
_publ_section_title
;
Structure prediction by ZEFSAII (Michael W. Deem and Ramdas Pophale) SiO2 
 PCOD9499818
Probable space group: C C C M
;
_chemical_formula_sum "Si O2"
_cell_formula_units_Z 60
_cell_length_a 10.107347
_cell_length_b 11.773568
_cell_length_c 24.441988
_cell_angle_alpha 90.000000
_cell_angle_beta 90.000000
_cell_angle_gamma 90.000000
_cell_volume 2908.585260
_symmetry_space_group_name_H-M "C C C M"
_symmetry_group_IT_number 66
_symmetry_cell_setting 'orthorhombic'
loop_
_space_group_symop_operation_xyz
x,y,z
-x,-y,z
x,-y,1/2-z
-x,y,1/2-z
-x,-y,-z
x,y,-z
-x,y,1/2+z
x,-y,1/2+z
1/2+x,1/2+y,z
1/2-x,1/2-y,z
1/2+x,1/2-y,1/2-z
1/2-x,1/2+y,1/2-z
1/2-x,1/2-y,-z
1/2+x,1/2+y,-z
1/2-x,1/2+y,1/2+z
1/2+x,1/2-y,1/2+z
loop_
_atom_site_type_symbol
_atom_site_label
_atom_site_fract_x
_atom_site_fract_y
_atom_site_fract_z
Si Si1 0.000000 0.000000 0.500000
Si Si2 0.840205 0.146885 0.087626
Si Si3 0.648682 0.045117 0.562592
Si Si4 0.985550 0.863808 0.187468
Si Si5 0.250000 0.250000 0.873137
O O1 0.048589 0.093003 0.452185
O O2 0.750000 0.250000 0.065192
O O3 0.906323 0.182417 0.144604
O O4 0.738642 0.042998 0.095049
O O5 0.702872 0.046540 0.500000
O O6 0.663379 0.167968 0.588553
O O7 0.500000 0.000000 0.561451
O O8 0.845463 0.824856 0.164013
O O9 0.000000 0.825510 0.250000
O O10 0.000000 0.000000 0.186003
#
# Coordination Sequence:
#
# PCOD9499818 Si02
#       5
#     4  16  16  16   8
#     4  12  22  40  64 108 134 192 230 286 350 420
#     4  12  24  44  71 102 144 186 234 285 353 422
#     4  11  24  42  65 103 142 181 230 280 344 418
#     4  11  25  47  73 102 139 187 237 294 349 415
#     4  12  23  48  70  98 142 181 226 294 344 414
#
# _framework density 20.628587
#
# number of rings (size 3 to 8) (size 9 to 14) (size 15 to 20)
#    0.000    0.533    5.333    2.400    1.867    0.000 
#    7.200    0.000    0.000    0.000    0.000    0.000 
#    0.000    0.000    0.000    0.000    0.000    0.000 
#
# Total GULP energy -167205.232963 kJ/mol
# GULP energy per Si atom -5573.507765 kJ/mol
# Density = 2.058164 g / cm^3
# Si number density = 20.628587 Si / 1000 Ang^3
#
#
#
# Elastic Constant Matrix: (Units=GPa)
#
#
# Indices 1 2 3 4 5 6 
#
# 1 66.2134 35.7423 52.8967 0.0000 0.0000 0.0000
# 2 35.7423 112.1346 39.4317 0.0000 0.0000 0.0000
# 3 52.8967 39.4317 142.2295 0.0000 0.0000 0.0000
# 4 0.0000 0.0000 0.0000 12.0083 0.0000 0.0000
# 5 0.0000 0.0000 0.0000 0.0000 19.9764 0.0000
# 6 0.0000 0.0000 0.0000 0.0000 0.0000 52.3304
#
#
#
# Elastic Compliance Matrix: (Units=1/GPa)
#
#
# Indices 1 2 3 4 5 6 
#
# 1 0.023724 -0.004941 -0.007454 0.000000 0.000000 0.000000
# 2 -0.004941 0.010910 -0.001187 0.000000 0.000000 0.000000
# 3 -0.007454 -0.001187 0.010132 0.000000 0.000000 0.000000
# 4 0.000000 0.000000 0.000000 0.083276 0.000000 0.000000
# 5 0.000000 0.000000 0.000000 0.000000 0.050059 0.000000
# 6 0.000000 0.000000 0.000000 0.000000 0.000000 0.019109
#
#
# Mechanical properties :
#
#
# Convention : Reuss Voigt Hill
#
# Bulk Modulus (GPa) = 56.80744 64.07987 60.44365
# Shear Modulus (GPa) = 21.71629 29.69681 25.70655
#
# Velocity S-wave (km/s) = 3.24810 3.79832 3.53393
# Velocity P-wave (km/s) = 6.45483 7.09699 6.78352
#
# Compressibility (1/GPa) = 0.01760333
#
# Stress axis : x y z
#
# Youngs Moduli (GPa) = 42.15077 91.65714 98.69668
#
# Poissons Ratio (x) = 0.45288 0.73564
# Poissons Ratio (y) = 0.20827 0.11717
# Poissons Ratio (z) = 0.31417 0.10881
#
# Static dielectric constant tensor:
#      x y z
#    x 1.529340 0.000000 0.000000 
#    y 0.000000 1.731050 0.000000 
#    z 0.000000 0.000000 1.786400 
# 
# From -- ./inp_files/48035.got.cif
#   From: 2010.05.17/outbox.cif.g08.bks.cpg/sg66_25_cif.got.tgz:48035.got - 2010.06.03 17:51:23.
