data_PCOD9499730
_publ_section_title
;
Structure prediction by ZEFSAII (Michael W. Deem and Ramdas Pophale) SiO2 
 PCOD9499730
Probable space group: C C C M
;
_chemical_formula_sum "Si O2"
_cell_formula_units_Z 72
_cell_length_a 9.484131
_cell_length_b 27.204794
_cell_length_c 14.449587
_cell_angle_alpha 90.000000
_cell_angle_beta 90.000000
_cell_angle_gamma 90.000000
_cell_volume 3728.193286
_symmetry_space_group_name_H-M "C C C M"
_symmetry_group_IT_number 66
_symmetry_cell_setting 'orthorhombic'
loop_
_space_group_symop_operation_xyz
x,y,z
-x,-y,z
x,-y,1/2-z
-x,y,1/2-z
-x,-y,-z
x,y,-z
-x,y,1/2+z
x,-y,1/2+z
1/2+x,1/2+y,z
1/2-x,1/2-y,z
1/2+x,1/2-y,1/2-z
1/2-x,1/2+y,1/2-z
1/2-x,1/2-y,-z
1/2+x,1/2+y,-z
1/2-x,1/2+y,1/2+z
1/2+x,1/2-y,1/2+z
loop_
_atom_site_type_symbol
_atom_site_label
_atom_site_fract_x
_atom_site_fract_y
_atom_site_fract_z
Si Si1 0.926731 0.952273 0.850706
Si Si2 0.897609 0.453503 0.610701
Si Si3 0.000000 0.628202 0.250000
Si Si4 0.276119 0.692240 0.772863
Si Si5 0.967552 0.840516 0.103981
O O1 0.759478 0.961647 0.849449
O O2 0.000000 0.947557 0.750000
O O3 0.951640 0.899530 0.896162
O O4 0.000000 0.000000 0.894440
O O5 0.886130 0.445625 0.500000
O O6 0.000000 0.500000 0.626197
O O7 0.960616 0.406992 0.664302
O O8 0.867715 0.662014 0.274852
O O9 0.250000 0.750000 0.781854
O O10 0.382387 0.673673 0.852113
O O11 0.352812 0.680645 0.675327
O O12 0.951043 0.821826 0.000000
#
# Coordination Sequence:
#
# PCOD9499730 Si02
#       5
#    16  16   8  16  16
#     4  11  23  41  68 100 133 178 218 259 323 391
#     4  11  26  42  63 100 137 171 213 263 322 390
#     4  12  23  42  70  92 132 174 213 264 334 390
#     4  11  25  46  67  95 128 170 219 279 330 385
#     4  11  23  44  69  97 130 169 220 269 327 391
#
# _framework density 19.312304999999999
#
# number of rings (size 3 to 8) (size 9 to 14) (size 15 to 20)
#    0.000    0.889    4.444    2.333    9.333    3.556 
#    0.000    2.222    0.000    0.000    0.000    0.000 
#    0.000    0.000    0.000    0.000    0.000    0.000 
#
# Total GULP energy -201261.367099 kJ/mol
# GULP energy per Si atom -5590.593531 kJ/mol
# Density = 1.926835 g / cm^3
# Si number density = 19.312305 Si / 1000 Ang^3
#
#
#
# Elastic Constant Matrix: (Units=GPa)
#
#
# Indices 1 2 3 4 5 6 
#
# 1 188.8561 78.2348 50.8325 0.0000 0.0000 0.0000
# 2 78.2348 144.7123 18.6509 0.0000 0.0000 0.0000
# 3 50.8325 18.6509 104.4849 0.0000 0.0000 0.0000
# 4 0.0000 0.0000 0.0000 -13.4832 0.0000 0.0000
# 5 0.0000 0.0000 0.0000 0.0000 -12.8660 0.0000
# 6 0.0000 0.0000 0.0000 0.0000 0.0000 918.6426
#
#
#
# Elastic Compliance Matrix: (Units=1/GPa)
#
#
# Indices 1 2 3 4 5 6 
#
# 1 0.007675 -0.003754 -0.003064 0.000000 0.000000 0.000000
# 2 -0.003754 0.008910 0.000236 0.000000 0.000000 0.000000
# 3 -0.003064 0.000236 0.011019 0.000000 0.000000 0.000000
# 4 0.000000 0.000000 0.000000 -0.074166 0.000000 0.000000
# 5 0.000000 0.000000 0.000000 0.000000 -0.077724 0.000000
# 6 0.000000 0.000000 0.000000 0.000000 0.000000 0.001089
#
#
# Mechanical properties :
#
#
# Convention : Reuss Voigt Hill
#
# Bulk Modulus (GPa) = 69.25366 81.49886 75.37626
# Shear Modulus (GPa) = -47.51886 197.81437 75.14776
#
# Velocity S-wave (km/s) = -4.96577 10.13171 6.24470
# Velocity P-wave (km/s) = 1.74905 13.38510 9.54516
#
# Compressibility (1/GPa) = 0.01443967
#
# Stress axis : x y z
#
# Youngs Moduli (GPa) = 130.29395 112.23930 90.75120
#
# Poissons Ratio (x) = 0.42139 0.27804
# Poissons Ratio (y) = 0.48917 -0.02143
# Poissons Ratio (z) = 0.39919 -0.02651
#
# Static dielectric constant tensor:
#      x y z
#    x 1.800870 0.000000 0.000000 
#    y 0.000000 1.671100 0.000000 
#    z 0.000000 0.000000 1.689110 
# 
# From -- ./inp_files/24496.got.cif
#   From: 2010.05.17/outbox.cif.g08.bks.cpg/sg66_13_cif.got.tgz:24496.got - 2010.06.03 17:51:23.
