data_PCOD9499493
_publ_section_title
;
Structure prediction by ZEFSAII (Michael W. Deem and Ramdas Pophale) SiO2 
 PCOD9499493
Probable space group: C C C M
;
_chemical_formula_sum "Si O2"
_cell_formula_units_Z 84
_cell_length_a 22.242242
_cell_length_b 22.210115
_cell_length_c 10.368970
_cell_angle_alpha 90.000000
_cell_angle_beta 90.000000
_cell_angle_gamma 90.000000
_cell_volume 5122.299722
_symmetry_space_group_name_H-M "C C C M"
_symmetry_group_IT_number 66
_symmetry_cell_setting 'orthorhombic'
loop_
_space_group_symop_operation_xyz
x,y,z
-x,-y,z
x,-y,1/2-z
-x,y,1/2-z
-x,-y,-z
x,y,-z
-x,y,1/2+z
x,-y,1/2+z
1/2+x,1/2+y,z
1/2-x,1/2-y,z
1/2+x,1/2-y,1/2-z
1/2-x,1/2+y,1/2-z
1/2-x,1/2-y,-z
1/2+x,1/2+y,-z
1/2-x,1/2+y,1/2+z
1/2+x,1/2-y,1/2+z
loop_
_atom_site_type_symbol
_atom_site_label
_atom_site_fract_x
_atom_site_fract_y
_atom_site_fract_z
Si Si1 0.148213 0.252872 0.500000
Si Si2 0.226006 0.930032 0.744337
Si Si3 0.851530 0.750822 0.000000
Si Si4 0.908031 0.094130 0.652249
Si Si5 0.500000 0.500000 0.750000
Si Si6 0.251077 0.647775 0.000000
Si Si7 0.745909 0.148449 0.500000
Si Si8 0.069870 0.225673 0.751051
O O1 0.189413 0.313112 0.500000
O O2 0.195345 0.197190 0.500000
O O3 0.105929 0.246382 0.624901
O O4 0.154761 0.927191 0.713121
O O5 0.253783 0.893347 0.625334
O O6 0.244062 0.000000 0.750000
O O7 0.241514 0.894119 0.874475
O O8 0.804347 0.807069 0.000000
O O9 0.810439 0.692256 0.000000
O O10 0.893280 0.751914 0.874824
O O11 0.901411 0.107748 0.500000
O O12 0.927526 0.153314 0.730747
O O13 0.957320 0.042680 0.666968
O O14 0.000000 0.244013 0.750000
#
# Coordination Sequence:
#
# PCOD9499493 Si02
#       8
#     8  16   8  16   4   8   8  16
#     4  11  23  38  58  84 114 150 193 243 300 339
#     4  12  22  37  57  81 116 148 193 238 281 333
#     4  11  21  38  60  80 108 150 195 237 288 337
#     4  12  23  38  51  79 111 157 207 236 271 313
#     4  12  26  36  52  74 120 170 200 248 254 298
#     4  11  23  38  58  84 114 150 193 243 300 339
#     4  11  21  38  60  80 108 150 195 237 288 337
#     4  12  22  37  57  81 116 148 193 238 281 333
#
# _framework density 16.398883999999999
#
# number of rings (size 3 to 8) (size 9 to 14) (size 15 to 20)
#    0.000    0.381    7.619    2.571    0.000    3.048 
#    3.429    0.000    0.000    0.000    0.000    0.000 
#    0.000   53.333    0.000    0.000    0.000    0.000 
#
# Total GULP energy -234635.862363 kJ/mol
# GULP energy per Si atom -5586.568151 kJ/mol
# Density = 1.636156 g / cm^3
# Si number density = 16.398884 Si / 1000 Ang^3
#
#
#
# Elastic Constant Matrix: (Units=GPa)
#
#
# Indices 1 2 3 4 5 6 
#
# 1 110.6293 44.0898 45.1982 0.0000 0.0000 0.0000
# 2 44.0898 88.3539 31.9941 0.0000 0.0000 0.0000
# 3 45.1982 31.9941 132.2236 0.0000 0.0000 0.0000
# 4 0.0000 0.0000 0.0000 -210.6626 0.0000 0.0000
# 5 0.0000 0.0000 0.0000 0.0000 -80.2323 0.0000
# 6 0.0000 0.0000 0.0000 0.0000 0.0000 41.4467
#
#
#
# Elastic Compliance Matrix: (Units=1/GPa)
#
#
# Indices 1 2 3 4 5 6 
#
# 1 0.012263 -0.005043 -0.002972 0.000000 0.000000 0.000000
# 2 -0.005043 0.014479 -0.001780 0.000000 0.000000 0.000000
# 3 -0.002972 -0.001780 0.009009 0.000000 0.000000 0.000000
# 4 0.000000 0.000000 0.000000 -0.004747 0.000000 0.000000
# 5 0.000000 0.000000 0.000000 0.000000 -0.012464 0.000000
# 6 0.000000 0.000000 0.000000 0.000000 0.000000 0.024127
#
#
# Mechanical properties :
#
#
# Convention : Reuss Voigt Hill
#
# Bulk Modulus (GPa) = 61.87104 63.75233 62.81169
# Shear Modulus (GPa) = 73.91498 -35.89467 19.01015
#
# Velocity S-wave (km/s) = 6.72094 -4.68359 3.40845
# Velocity P-wave (km/s) = 9.90145 3.11647 7.34000
#
# Compressibility (1/GPa) = 0.01616265
#
# Stress axis : x y z
#
# Youngs Moduli (GPa) = 81.54428 69.06425 110.99606
#
# Poissons Ratio (x) = 0.34832 0.32984
# Poissons Ratio (y) = 0.41127 0.19752
# Poissons Ratio (z) = 0.24232 0.12290
#
# Static dielectric constant tensor:
#      x y z
#    x 1.540050 0.000000 0.000000 
#    y 0.000000 1.544580 0.000000 
#    z 0.000000 0.000000 1.553460 
# 
# From -- ./inp_files/7753.got.cif
#   From: 2010.05.17/outbox.cif.g08.bks.cpg/sg66_4_cif.got.tgz:7753.got - 2010.06.03 17:51:23.
