data_PCOD9499086
_publ_section_title
;
Structure prediction by ZEFSAII (Michael W. Deem and Ramdas Pophale) SiO2 
 PCOD9499086
Probable space group: C C C M
;
_chemical_formula_sum "Si O2"
_cell_formula_units_Z 64
_cell_length_a 7.191193
_cell_length_b 18.935470
_cell_length_c 23.482327
_cell_angle_alpha 90.000000
_cell_angle_beta 90.000000
_cell_angle_gamma 90.000000
_cell_volume 3197.556046
_symmetry_space_group_name_H-M "C C C M"
_symmetry_group_IT_number 66
_symmetry_cell_setting 'orthorhombic'
loop_
_space_group_symop_operation_xyz
x,y,z
-x,-y,z
x,-y,1/2-z
-x,y,1/2-z
-x,-y,-z
x,y,-z
-x,y,1/2+z
x,-y,1/2+z
1/2+x,1/2+y,z
1/2-x,1/2-y,z
1/2+x,1/2-y,1/2-z
1/2-x,1/2+y,1/2-z
1/2-x,1/2-y,-z
1/2+x,1/2+y,-z
1/2-x,1/2+y,1/2+z
1/2+x,1/2-y,1/2+z
loop_
_atom_site_type_symbol
_atom_site_label
_atom_site_fract_x
_atom_site_fract_y
_atom_site_fract_z
Si Si1 0.419535 0.922553 0.135985
Si Si2 0.068270 0.920414 0.066544
Si Si3 0.710078 0.668177 0.857774
Si Si4 0.785763 0.672266 0.730612
O O1 0.286048 0.919890 0.081684
O O2 0.599545 0.873576 0.130117
O O3 0.289408 0.891854 0.186628
O O4 0.500000 0.000000 0.148104
O O5 0.952149 0.865669 0.104806
O O6 0.036071 0.906571 0.000000
O O7 0.000000 0.000000 0.079768
O O8 0.750000 0.750000 0.869505
O O9 0.673051 0.662595 0.789448
O O10 0.750000 0.750000 0.704664
O O11 0.000000 0.675926 0.750000
#
# Coordination Sequence:
#
# PCOD9499086 Si02
#       4
#    16  16  16  16
#     4  11  23  41  65  97 130 168 212 264 314 379
#     4  11  25  44  66  92 125 172 223 263 316 374
#     4  10  23  43  65  97 133 165 206 263 322 380
#     4   9  21  37  63  95 132 165 199 253 327 388
#
# _framework density 20.015284999999999
#
# number of rings (size 3 to 8) (size 9 to 14) (size 15 to 20)
#    0.000    1.750    2.500    0.000   10.500    6.500 
#    0.000    2.500    0.000    0.000    0.000    0.000 
#    0.000    0.000    0.000    0.000    0.000    0.000 
#
# Total GULP energy -178701.455429 kJ/mol
# GULP energy per Si atom -5584.420482 kJ/mol
# Density = 1.996973 g / cm^3
# Si number density = 20.015285 Si / 1000 Ang^3
#
#
#
# Elastic Constant Matrix: (Units=GPa)
#
#
# Indices 1 2 3 4 5 6 
#
# 1 74.1658 55.3611 36.5822 0.0000 0.0000 0.0000
# 2 55.3611 159.2474 65.0937 0.0000 0.0000 0.0000
# 3 36.5822 65.0937 73.1352 0.0000 0.0000 0.0000
# 4 0.0000 0.0000 0.0000 117.9464 0.0000 0.0000
# 5 0.0000 0.0000 0.0000 0.0000 30.0873 0.0000
# 6 0.0000 0.0000 0.0000 0.0000 0.0000 36.5279
#
#
#
# Elastic Compliance Matrix: (Units=1/GPa)
#
#
# Indices 1 2 3 4 5 6 
#
# 1 0.019710 -0.004436 -0.005911 0.000000 0.000000 0.000000
# 2 -0.004436 0.010869 -0.007455 0.000000 0.000000 0.000000
# 3 -0.005911 -0.007455 0.023265 0.000000 0.000000 0.000000
# 4 0.000000 0.000000 0.000000 0.008478 0.000000 0.000000
# 5 0.000000 0.000000 0.000000 0.000000 0.033237 0.000000
# 6 0.000000 0.000000 0.000000 0.000000 0.000000 0.027376
#
#
# Mechanical properties :
#
#
# Convention : Reuss Voigt Hill
#
# Bulk Modulus (GPa) = 54.82243 68.95806 61.89024
# Shear Modulus (GPa) = 30.37314 46.87974 38.62644
#
# Velocity S-wave (km/s) = 3.89973 4.84488 4.39777
# Velocity P-wave (km/s) = 6.90847 8.11323 7.53497
#
# Compressibility (1/GPa) = 0.01824071
#
# Stress axis : x y z
#
# Youngs Moduli (GPa) = 50.73572 92.00504 42.98269
#
# Poissons Ratio (x) = 0.40813 0.25406
# Poissons Ratio (y) = 0.22506 0.32044
# Poissons Ratio (z) = 0.29988 0.68590
#
# Static dielectric constant tensor:
#      x y z
#    x 1.963910 0.000000 0.000000 
#    y 0.000000 1.705160 0.000000 
#    z 0.000000 0.000000 1.727740 
# 
# From -- ./inp_files/50513.got.cif
#   From: 2010.05.17/outbox.cif.g08.bks.cpg/sg66_26_cif.got.tgz:50513.got - 2010.06.03 17:51:23.
