data_PCOD9499344
_publ_section_title
;
Structure prediction by ZEFSAII (Michael W. Deem and Ramdas Pophale) SiO2 
 PCOD9499344
Probable space group: C C C M
;
_chemical_formula_sum "Si O2"
_cell_formula_units_Z 64
_cell_length_a 7.293695
_cell_length_b 17.523676
_cell_length_c 23.714690
_cell_angle_alpha 90.000000
_cell_angle_beta 90.000000
_cell_angle_gamma 90.000000
_cell_volume 3031.030212
_symmetry_space_group_name_H-M "C C C M"
_symmetry_group_IT_number 66
_symmetry_cell_setting 'orthorhombic'
loop_
_space_group_symop_operation_xyz
x,y,z
-x,-y,z
x,-y,1/2-z
-x,y,1/2-z
-x,-y,-z
x,y,-z
-x,y,1/2+z
x,-y,1/2+z
1/2+x,1/2+y,z
1/2-x,1/2-y,z
1/2+x,1/2-y,1/2-z
1/2-x,1/2+y,1/2-z
1/2-x,1/2-y,-z
1/2+x,1/2+y,-z
1/2-x,1/2+y,1/2+z
1/2+x,1/2-y,1/2+z
loop_
_atom_site_type_symbol
_atom_site_label
_atom_site_fract_x
_atom_site_fract_y
_atom_site_fract_z
Si Si1 0.436056 0.416180 0.314495
Si Si2 0.427063 0.913163 0.877678
Si Si3 0.299612 0.664723 0.608934
Si Si4 0.285944 0.430553 0.000000
Si Si5 0.657039 0.091970 0.000000
O O1 0.500000 0.500000 0.336646
O O2 0.500000 0.413256 0.250000
O O3 0.221230 0.412654 0.328233
O O4 0.539632 0.348597 0.346935
O O5 0.611062 0.867577 0.865127
O O6 0.331583 0.879269 0.935037
O O7 0.500000 0.000000 0.888789
O O8 0.250000 0.750000 0.591057
O O9 0.349629 0.612906 0.555248
O O10 0.298882 0.521356 0.000000
O O11 0.063389 0.421778 0.000000
#
# Coordination Sequence:
#
# PCOD9499344 Si02
#       5
#    16  16  16   8   8
#     4  11  24  42  63  91 116 159 225 255 294 374
#     4  11  19  39  66  90 126 162 199 259 306 358
#     4  11  23  40  61  95 128 162 199 255 316 364
#     4   9  15  33  61  89 128 160 196 248 306 374
#     4   9  14  31  63  97 119 158 209 239 305 377
#
# _framework density 21.114933000000001
#
# number of rings (size 3 to 8) (size 9 to 14) (size 15 to 20)
#    0.000    1.500    7.500    0.375    0.000    3.000 
#    4.500    2.500    0.000    6.000    0.000    0.000 
#    0.000    0.000    0.000    0.000    0.000    0.000 
#
# Total GULP energy -178349.521173 kJ/mol
# GULP energy per Si atom -5573.422537 kJ/mol
# Density = 2.106687 g / cm^3
# Si number density = 21.114933 Si / 1000 Ang^3
#
#
#
# Elastic Constant Matrix: (Units=GPa)
#
#
# Indices 1 2 3 4 5 6 
#
# 1 94.1530 0.4897 28.8594 0.0000 0.0000 0.0000
# 2 0.4897 26.9557 -6.3526 0.0000 0.0000 0.0000
# 3 28.8594 -6.3526 91.8330 0.0000 0.0000 0.0000
# 4 0.0000 0.0000 0.0000 6.8227 0.0000 0.0000
# 5 0.0000 0.0000 0.0000 0.0000 27.2841 0.0000
# 6 0.0000 0.0000 0.0000 0.0000 0.0000 16.4203
#
#
#
# Elastic Compliance Matrix: (Units=1/GPa)
#
#
# Indices 1 2 3 4 5 6 
#
# 1 0.011785 -0.001105 -0.003780 0.000000 0.000000 0.000000
# 2 -0.001105 0.037816 0.002963 0.000000 0.000000 0.000000
# 3 -0.003780 0.002963 0.012282 0.000000 0.000000 0.000000
# 4 0.000000 0.000000 0.000000 0.146569 0.000000 0.000000
# 5 0.000000 0.000000 0.000000 0.000000 0.036651 0.000000
# 6 0.000000 0.000000 0.000000 0.000000 0.000000 0.060900
#
#
# Mechanical properties :
#
#
# Convention : Reuss Voigt Hill
#
# Bulk Modulus (GPa) = 17.22943 28.77052 22.99997
# Shear Modulus (GPa) = 15.18855 22.76844 18.97850
#
# Velocity S-wave (km/s) = 2.68494 3.28733 3.00128
# Velocity P-wave (km/s) = 4.21775 5.29754 4.78818
#
# Compressibility (1/GPa) = 0.05804023
#
# Stress axis : x y z
#
# Youngs Moduli (GPa) = 84.85061 26.44363 81.41829
#
# Poissons Ratio (x) = 0.02922 0.30777
# Poissons Ratio (y) = 0.09376 -0.24126
# Poissons Ratio (z) = 0.32074 -0.07836
#
# Static dielectric constant tensor:
#      x y z
#    x 1.777430 0.000000 0.000000 
#    y 0.000000 1.823240 0.000000 
#    z 0.000000 0.000000 1.813220 
# 
# From -- ./inp_files/55165.got.cif
#   From: 2010.05.17/outbox.cif.g08.bks.cpg/sg66_28_cif.got.tgz:55165.got - 2010.06.03 17:51:23.
