data_PCOD9499746
_publ_section_title
;
Structure prediction by ZEFSAII (Michael W. Deem and Ramdas Pophale) SiO2 
 PCOD9499746
Probable space group: C C C M
;
_chemical_formula_sum "Si O2"
_cell_formula_units_Z 72
_cell_length_a 27.618180
_cell_length_b 9.319357
_cell_length_c 13.441546
_cell_angle_alpha 90.000000
_cell_angle_beta 90.000000
_cell_angle_gamma 90.000000
_cell_volume 3459.634562
_symmetry_space_group_name_H-M "C C C M"
_symmetry_group_IT_number 66
_symmetry_cell_setting 'orthorhombic'
loop_
_space_group_symop_operation_xyz
x,y,z
-x,-y,z
x,-y,1/2-z
-x,y,1/2-z
-x,-y,-z
x,y,-z
-x,y,1/2+z
x,-y,1/2+z
1/2+x,1/2+y,z
1/2-x,1/2-y,z
1/2+x,1/2-y,1/2-z
1/2-x,1/2+y,1/2-z
1/2-x,1/2-y,-z
1/2+x,1/2+y,-z
1/2-x,1/2+y,1/2+z
1/2+x,1/2-y,1/2+z
loop_
_atom_site_type_symbol
_atom_site_label
_atom_site_fract_x
_atom_site_fract_y
_atom_site_fract_z
Si Si1 0.346469 0.995495 0.500000
Si Si2 0.056059 0.666907 0.724782
Si Si3 0.805737 0.807305 0.500000
Si Si4 0.789500 0.364427 0.315337
Si Si5 0.048523 0.600583 0.500000
Si Si6 0.857532 0.849400 0.304185
O O1 0.322101 0.923484 0.404232
O O2 0.403769 0.995031 0.500000
O O3 0.333347 0.158942 0.500000
O O4 0.069045 0.500000 0.750000
O O5 0.055813 0.685732 0.604181
O O6 0.090345 0.770144 0.790391
O O7 0.000000 0.686129 0.750000
O O8 0.750000 0.750000 0.500000
O O9 0.827513 0.885666 0.404377
O O10 0.770457 0.500000 0.250000
O O11 0.750000 0.250000 0.352199
O O12 0.823124 0.269075 0.245468
O O13 0.000000 0.500000 0.500000
O O14 0.862212 0.000000 0.250000
#
# Coordination Sequence:
#
# PCOD9499746 Si02
#       6
#     8  16   8  16   8  16
#     4  12  25  43  74 105 140 183 249 299 357 436
#     4  11  23  42  73 106 138 187 243 301 373 437
#     4  12  28  47  73 103 145 195 248 302 374 429
#     4  12  25  44  69 102 141 188 241 296 360 428
#     4  12  22  40  73 109 138 180 243 313 364 437
#     4  12  27  46  72 102 149 190 241 301 366 441
#
# _framework density 20.811446
#
# number of rings (size 3 to 8) (size 9 to 14) (size 15 to 20)
#    0.000    0.222    6.667    3.667    3.111    2.222 
#    0.000    0.000    0.000    2.667    0.000    0.000 
#    0.000    0.000    0.000    0.000    0.000    0.000 
#
# Total GULP energy -200816.815185 kJ/mol
# GULP energy per Si atom -5578.244866 kJ/mol
# Density = 2.076408 g / cm^3
# Si number density = 20.811446 Si / 1000 Ang^3
#
#
#
# Elastic Constant Matrix: (Units=GPa)
#
#
# Indices 1 2 3 4 5 6 
#
# 1 132.0324 38.2198 16.3388 0.0000 0.0000 0.0000
# 2 38.2198 99.7727 7.7144 0.0000 0.0000 0.0000
# 3 16.3388 7.7144 106.6889 0.0000 0.0000 0.0000
# 4 0.0000 0.0000 0.0000 26.9023 0.0000 0.0000
# 5 0.0000 0.0000 0.0000 0.0000 34.8914 0.0000
# 6 0.0000 0.0000 0.0000 0.0000 0.0000 45.4646
#
#
#
# Elastic Compliance Matrix: (Units=1/GPa)
#
#
# Indices 1 2 3 4 5 6 
#
# 1 0.008643 -0.003226 -0.001090 0.000000 0.000000 0.000000
# 2 -0.003226 0.011284 -0.000322 0.000000 0.000000 0.000000
# 3 -0.001090 -0.000322 0.009563 0.000000 0.000000 0.000000
# 4 0.000000 0.000000 0.000000 0.037171 0.000000 0.000000
# 5 0.000000 0.000000 0.000000 0.000000 0.028660 0.000000
# 6 0.000000 0.000000 0.000000 0.000000 0.000000 0.021995
#
#
# Mechanical properties :
#
#
# Convention : Reuss Voigt Hill
#
# Bulk Modulus (GPa) = 49.47406 51.44887 50.46147
# Shear Modulus (GPa) = 37.50056 39.86640 38.68348
#
# Velocity S-wave (km/s) = 4.24951 4.38150 4.31601
# Velocity P-wave (km/s) = 6.92112 7.09731 7.00977
#
# Compressibility (1/GPa) = 0.02021261
#
# Stress axis : x y z
#
# Youngs Moduli (GPa) = 115.70326 88.62404 104.56662
#
# Poissons Ratio (x) = 0.28594 0.11401
# Poissons Ratio (y) = 0.37331 0.03365
# Poissons Ratio (z) = 0.12615 0.02852
#
# Static dielectric constant tensor:
#      x y z
#    x 1.627210 0.000000 0.000000 
#    y 0.000000 1.715170 0.000000 
#    z 0.000000 0.000000 1.409200 
# 
# From -- ./inp_files/33050.got.cif
#   From: 2010.05.17/outbox.cif.g08.bks.cpg/sg66_17_cif.got.tgz:33050.got - 2010.06.03 17:51:23.
