data_PCOD9499803
_publ_section_title
;
Structure prediction by ZEFSAII (Michael W. Deem and Ramdas Pophale) SiO2 
 PCOD9499803
Probable space group: C C C M
;
_chemical_formula_sum "Si O2"
_cell_formula_units_Z 64
_cell_length_a 4.839962
_cell_length_b 23.801668
_cell_length_c 25.054726
_cell_angle_alpha 90.000000
_cell_angle_beta 90.000000
_cell_angle_gamma 90.000000
_cell_volume 2886.283606
_symmetry_space_group_name_H-M "C C C M"
_symmetry_group_IT_number 66
_symmetry_cell_setting 'orthorhombic'
loop_
_space_group_symop_operation_xyz
x,y,z
-x,-y,z
x,-y,1/2-z
-x,y,1/2-z
-x,-y,-z
x,y,-z
-x,y,1/2+z
x,-y,1/2+z
1/2+x,1/2+y,z
1/2-x,1/2-y,z
1/2+x,1/2-y,1/2-z
1/2-x,1/2+y,1/2-z
1/2-x,1/2-y,-z
1/2+x,1/2+y,-z
1/2-x,1/2+y,1/2+z
1/2+x,1/2-y,1/2+z
loop_
_atom_site_type_symbol
_atom_site_label
_atom_site_fract_x
_atom_site_fract_y
_atom_site_fract_z
Si Si1 0.500000 0.500000 0.338963
Si Si2 0.500000 0.586843 0.250000
Si Si3 0.196282 0.656240 0.500000
Si Si4 0.500000 0.162368 0.250000
Si Si5 0.213829 0.921099 0.000000
Si Si6 0.500000 0.000000 0.587709
Si Si7 0.750000 0.250000 0.410546
Si Si8 0.250000 0.750000 0.167182
O O1 0.603696 0.548434 0.298838
O O2 0.245451 0.522457 0.374402
O O3 0.248129 0.624077 0.270858
O O4 0.396814 0.600686 0.500000
O O5 0.228578 0.695922 0.448790
O O6 0.883208 0.635981 0.500000
O O7 0.639200 0.200929 0.205211
O O8 0.327524 0.956823 0.949639
O O9 0.498388 0.264084 0.371846
#
# Coordination Sequence:
#
# PCOD9499803 Si02
#       8
#     8   8   8   8   8   8   8   8
#     4  11  24  43  64  94 130 165 214 267 318 384
#     4  11  25  42  65  94 127 168 213 265 322 382
#     4  11  24  43  64  94 130 165 214 267 317 383
#     4  12  25  43  65  94 129 167 215 266 320 384
#     4  11  24  41  64  94 128 167 212 262 319 382
#     4  11  24  41  64  94 128 167 212 263 320 384
#     4  11  25  42  65  94 127 168 213 265 322 380
#     4  12  25  43  65  94 129 167 215 266 320 384
#
# _framework density 22.173840999999999
#
# number of rings (size 3 to 8) (size 9 to 14) (size 15 to 20)
#    0.000    0.750    0.000    7.500    0.000   18.000 
#    0.000    0.000    0.000    0.000    0.000    0.000 
#    0.000    0.000    0.000    0.000    0.000    0.000 
#
# Total GULP energy -178894.896014 kJ/mol
# GULP energy per Si atom -5590.465500 kJ/mol
# Density = 2.212337 g / cm^3
# Si number density = 22.173841 Si / 1000 Ang^3
#
#
#
# Elastic Constant Matrix: (Units=GPa)
#
#
# Indices 1 2 3 4 5 6 
#
# 1 104.6844 10.4855 28.5323 0.0000 0.0000 0.0000
# 2 10.4855 75.9311 35.8168 0.0000 0.0000 0.0000
# 3 28.5323 35.8168 123.2764 0.0000 0.0000 0.0000
# 4 0.0000 0.0000 0.0000 6.3788 0.0000 0.0000
# 5 0.0000 0.0000 0.0000 0.0000 57.6203 0.0000
# 6 0.0000 0.0000 0.0000 0.0000 0.0000 42.1859
#
#
#
# Elastic Compliance Matrix: (Units=1/GPa)
#
#
# Indices 1 2 3 4 5 6 
#
# 1 0.010203 -0.000342 -0.002262 0.000000 0.000000 0.000000
# 2 -0.000342 0.015273 -0.004358 0.000000 0.000000 0.000000
# 3 -0.002262 -0.004358 0.009902 0.000000 0.000000 0.000000
# 4 0.000000 0.000000 0.000000 0.156769 0.000000 0.000000
# 5 0.000000 0.000000 0.000000 0.000000 0.017355 0.000000
# 6 0.000000 0.000000 0.000000 0.000000 0.000000 0.023705
#
#
# Mechanical properties :
#
#
# Convention : Reuss Voigt Hill
#
# Bulk Modulus (GPa) = 46.61326 50.39567 48.50447
# Shear Modulus (GPa) = 19.66322 36.50748 28.08535
#
# Velocity S-wave (km/s) = 2.98111 4.06201 3.56279
# Velocity P-wave (km/s) = 5.73731 6.69155 6.23272
#
# Compressibility (1/GPa) = 0.02145312
#
# Stress axis : x y z
#
# Youngs Moduli (GPa) = 98.00703 65.47569 100.99286
#
# Poissons Ratio (x) = 0.02239 0.22847
# Poissons Ratio (y) = 0.03351 0.44015
# Poissons Ratio (z) = 0.22171 0.28536
#
# Static dielectric constant tensor:
#      x y z
#    x 1.757990 0.000000 0.000000 
#    y 0.000000 1.818070 0.000000 
#    z 0.000000 0.000000 1.808010 
# 
# From -- ./inp_files/52813.got.cif
#   From: 2010.05.17/outbox.cif.g08.bks.cpg/sg66_27_cif.got.tgz:52813.got - 2010.06.03 17:51:23.
