data_PCOD9499179
_publ_section_title
;
Structure prediction by ZEFSAII (Michael W. Deem and Ramdas Pophale) SiO2 
 PCOD9499179
Probable space group: C C C M
;
_chemical_formula_sum "Si O2"
_cell_formula_units_Z 64
_cell_length_a 5.651227
_cell_length_b 15.290971
_cell_length_c 34.282492
_cell_angle_alpha 90.000000
_cell_angle_beta 90.000000
_cell_angle_gamma 90.000000
_cell_volume 2962.444348
_symmetry_space_group_name_H-M "C C C M"
_symmetry_group_IT_number 66
_symmetry_cell_setting 'orthorhombic'
loop_
_space_group_symop_operation_xyz
x,y,z
-x,-y,z
x,-y,1/2-z
-x,y,1/2-z
-x,-y,-z
x,y,-z
-x,y,1/2+z
x,-y,1/2+z
1/2+x,1/2+y,z
1/2-x,1/2-y,z
1/2+x,1/2-y,1/2-z
1/2-x,1/2+y,1/2-z
1/2-x,1/2-y,-z
1/2+x,1/2+y,-z
1/2-x,1/2+y,1/2+z
1/2+x,1/2-y,1/2+z
loop_
_atom_site_type_symbol
_atom_site_label
_atom_site_fract_x
_atom_site_fract_y
_atom_site_fract_z
Si Si1 0.370786 0.913075 0.651045
Si Si2 0.839275 0.650666 0.578813
Si Si3 0.500000 0.500000 0.093785
Si Si4 0.750060 0.647586 0.766088
Si Si5 0.992961 0.303533 0.500000
O O1 0.548203 0.865304 0.621347
O O2 0.267228 0.861030 0.687298
O O3 0.500000 0.000000 0.666716
O O4 0.169597 0.946052 0.622181
O O5 0.750000 0.750000 0.579862
O O6 0.647892 0.574244 0.571825
O O7 0.007273 0.645223 0.540993
O O8 0.500000 0.610603 0.750000
O O9 0.750000 0.750000 0.754611
O O10 0.000000 0.610917 0.750000
O O11 0.250000 0.250000 0.500000
O O12 0.750000 0.250000 0.500000
#
# Coordination Sequence:
#
# PCOD9499179 Si02
#       5
#    16  16   8  16   8
#     4  10  24  43  64  98 133 178 232 282 343 415
#     4  10  24  42  73  99 138 185 228 292 348 413
#     4  10  24  43  63 106 134 178 244 274 346 428
#     4  10  24  42  66  97 129 171 226 280 341 412
#     4  10  24  43  69 109 140 177 241 285 347 426
#
# _framework density 21.60378
#
# number of rings (size 3 to 8) (size 9 to 14) (size 15 to 20)
#    0.000    2.000    0.000    0.000   17.500    2.000 
#    0.000    5.625    0.000    0.000    0.000    0.000 
#    0.000    0.000    0.000    0.000    0.000    0.000 
#
# Total GULP energy -178412.719096 kJ/mol
# GULP energy per Si atom -5575.397472 kJ/mol
# Density = 2.155461 g / cm^3
# Si number density = 21.603780 Si / 1000 Ang^3
#
#
#
# Elastic Constant Matrix: (Units=GPa)
#
#
# Indices 1 2 3 4 5 6 
#
# 1 135.7526 50.0188 40.3781 0.0000 0.0000 0.0000
# 2 50.0188 74.7532 43.4124 0.0000 0.0000 0.0000
# 3 40.3781 43.4124 98.5710 0.0000 0.0000 0.0000
# 4 0.0000 0.0000 0.0000 403.3978 0.0000 0.0000
# 5 0.0000 0.0000 0.0000 0.0000 -43.2911 0.0000
# 6 0.0000 0.0000 0.0000 0.0000 0.0000 20.7208
#
#
#
# Elastic Compliance Matrix: (Units=1/GPa)
#
#
# Indices 1 2 3 4 5 6 
#
# 1 0.009947 -0.005763 -0.001536 0.000000 0.000000 0.000000
# 2 -0.005763 0.021314 -0.007026 0.000000 0.000000 0.000000
# 3 -0.001536 -0.007026 0.013869 0.000000 0.000000 0.000000
# 4 0.000000 0.000000 0.000000 0.002479 0.000000 0.000000
# 5 0.000000 0.000000 0.000000 0.000000 -0.023099 0.000000
# 6 0.000000 0.000000 0.000000 0.000000 0.000000 0.048261
#
#
# Mechanical properties :
#
#
# Convention : Reuss Voigt Hill
#
# Bulk Modulus (GPa) = 60.68723 64.07727 62.38225
# Shear Modulus (GPa) = 46.76622 87.84997 67.30810
#
# Velocity S-wave (km/s) = 4.65771 6.38376 5.58778
# Velocity P-wave (km/s) = 7.55498 9.16849 8.40056
#
# Compressibility (1/GPa) = 0.01647793
#
# Stress axis : x y z
#
# Youngs Moduli (GPa) = 100.53410 46.91696 72.10454
#
# Poissons Ratio (x) = 0.27040 0.11077
# Poissons Ratio (y) = 0.57943 0.50662
# Poissons Ratio (z) = 0.15445 0.32965
#
# Static dielectric constant tensor:
#      x y z
#    x 1.900020 0.000000 0.000000 
#    y 0.000000 1.789990 0.000000 
#    z 0.000000 0.000000 1.757340 
# 
# From -- ./inp_files/66972.got.cif
#   From: 2010.05.17/outbox.cif.g08.bks.cpg/sg66_34_cif.got.tgz:66972.got - 2010.06.03 17:51:23.
