data_PCOD9499389
_publ_section_title
;
Structure prediction by ZEFSAII (Michael W. Deem and Ramdas Pophale) SiO2 
 PCOD9499389
Probable space group: C C C M
;
_chemical_formula_sum "Si O2"
_cell_formula_units_Z 88
_cell_length_a 17.657078
_cell_length_b 11.333785
_cell_length_c 23.076445
_cell_angle_alpha 90.000000
_cell_angle_beta 90.000000
_cell_angle_gamma 90.000000
_cell_volume 4618.093383
_symmetry_space_group_name_H-M "C C C M"
_symmetry_group_IT_number 66
_symmetry_cell_setting 'orthorhombic'
loop_
_space_group_symop_operation_xyz
x,y,z
-x,-y,z
x,-y,1/2-z
-x,y,1/2-z
-x,-y,-z
x,y,-z
-x,y,1/2+z
x,-y,1/2+z
1/2+x,1/2+y,z
1/2-x,1/2-y,z
1/2+x,1/2-y,1/2-z
1/2-x,1/2+y,1/2-z
1/2-x,1/2-y,-z
1/2+x,1/2+y,-z
1/2-x,1/2+y,1/2+z
1/2+x,1/2-y,1/2+z
loop_
_atom_site_type_symbol
_atom_site_label
_atom_site_fract_x
_atom_site_fract_y
_atom_site_fract_z
Si Si1 0.250000 0.250000 0.093446
Si Si2 0.894380 0.081070 0.000000
Si Si3 0.032312 0.370696 0.618013
Si Si4 0.097984 0.200350 0.842198
Si Si5 0.500000 0.500000 0.604808
Si Si6 0.740877 0.944167 0.000000
Si Si7 0.377453 0.153402 0.500000
Si Si8 0.589651 0.868334 0.262837
O O1 0.179643 0.202027 0.129222
O O2 0.276345 0.140478 0.054105
O O3 0.945902 0.068617 0.058192
O O4 0.829473 0.981170 0.000000
O O5 0.855940 0.209058 0.000000
O O6 0.071366 0.366866 0.556432
O O7 0.092241 0.341039 0.669008
O O8 0.000000 0.500000 0.629953
O O9 0.959840 0.287170 0.624188
O O10 0.111212 0.260284 0.779133
O O11 0.054307 0.077542 0.853515
O O12 0.690328 0.060443 0.000000
O O13 0.500000 0.877286 0.250000
O O14 0.622402 0.000000 0.250000
#
# Coordination Sequence:
#
# PCOD9499389 Si02
#       8
#     8   8  16  16   8   8   8  16
#     4  11  24  40  62  96 132 171 216 270 336 381
#     4  11  22  41  60  84 133 177 220 254 328 377
#     4  11  20  37  61 101 125 156 211 276 326 377
#     4  11  21  39  68  91 127 170 218 266 324 393
#     4  11  22  40  65  90 128 176 218 264 306 405
#     4  11  24  39  58  93 136 173 205 278 333 387
#     4  12  24  36  66  94 129 167 223 265 322 398
#     4   9  17  35  63  89 123 156 201 270 330 361
#
# _framework density 19.055482999999999
#
# number of rings (size 3 to 8) (size 9 to 14) (size 15 to 20)
#    0.000    1.273    7.273    1.636    0.000    1.455 
#    0.000    4.091    4.000    6.545    0.000    0.000 
#    0.000    0.000    0.000    0.000    0.000    0.000 
#
# Total GULP energy -245197.534863 kJ/mol
# GULP energy per Si atom -5572.671247 kJ/mol
# Density = 1.901211 g / cm^3
# Si number density = 19.055483 Si / 1000 Ang^3
#
#
#
# Elastic Constant Matrix: (Units=GPa)
#
#
# Indices 1 2 3 4 5 6 
#
# 1 61.5717 26.6020 31.5418 0.0000 0.0000 0.0000
# 2 26.6020 101.4322 32.3332 0.0000 0.0000 0.0000
# 3 31.5418 32.3332 148.3536 0.0000 0.0000 0.0000
# 4 0.0000 0.0000 0.0000 24.9149 0.0000 0.0000
# 5 0.0000 0.0000 0.0000 0.0000 -4.1592 0.0000
# 6 0.0000 0.0000 0.0000 0.0000 0.0000 25.7471
#
#
#
# Elastic Compliance Matrix: (Units=1/GPa)
#
#
# Indices 1 2 3 4 5 6 
#
# 1 0.019707 -0.004119 -0.003292 0.000000 0.000000 0.000000
# 2 -0.004119 0.011456 -0.001621 0.000000 0.000000 0.000000
# 3 -0.003292 -0.001621 0.007794 0.000000 0.000000 0.000000
# 4 0.000000 0.000000 0.000000 0.040137 0.000000 0.000000
# 5 0.000000 0.000000 0.000000 0.000000 -0.240431 0.000000
# 6 0.000000 0.000000 0.000000 0.000000 0.000000 0.038839
#
#
# Mechanical properties :
#
#
# Convention : Reuss Voigt Hill
#
# Bulk Modulus (GPa) = 47.86422 54.70129 51.28275
# Shear Modulus (GPa) = -51.29834 24.02591 -13.63622
#
# Velocity S-wave (km/s) = -5.19413 3.55468 -2.67798
# Velocity P-wave (km/s) = 3.28619 6.75399 4.17237
#
# Compressibility (1/GPa) = 0.02089243
#
# Stress axis : x y z
#
# Youngs Moduli (GPa) = 50.74224 87.29196 128.30501
#
# Poissons Ratio (x) = 0.35956 0.42242
# Poissons Ratio (y) = 0.20901 0.20798
# Poissons Ratio (z) = 0.16706 0.14150
#
# Static dielectric constant tensor:
#      x y z
#    x 1.630720 0.000000 0.000000 
#    y 0.000000 1.710480 0.000000 
#    z 0.000000 0.000000 1.719650 
# 
# From -- ./inp_files/58065.got.cif
#   From: 2010.05.17/outbox.cif.g08.bks.cpg/sg66_30_cif.got.tgz:58065.got - 2010.06.03 17:51:23.
