data_PCOD9499545
_publ_section_title
;
Structure prediction by ZEFSAII (Michael W. Deem and Ramdas Pophale) SiO2 
 PCOD9499545
Probable space group: C C C M
;
_chemical_formula_sum "Si O2"
_cell_formula_units_Z 64
_cell_length_a 27.127694
_cell_length_b 5.747574
_cell_length_c 18.604527
_cell_angle_alpha 90.000000
_cell_angle_beta 90.000000
_cell_angle_gamma 90.000000
_cell_volume 2900.788617
_symmetry_space_group_name_H-M "C C C M"
_symmetry_group_IT_number 66
_symmetry_cell_setting 'orthorhombic'
loop_
_space_group_symop_operation_xyz
x,y,z
-x,-y,z
x,-y,1/2-z
-x,y,1/2-z
-x,-y,-z
x,y,-z
-x,y,1/2+z
x,-y,1/2+z
1/2+x,1/2+y,z
1/2-x,1/2-y,z
1/2+x,1/2-y,1/2-z
1/2-x,1/2+y,1/2-z
1/2-x,1/2-y,-z
1/2+x,1/2+y,-z
1/2-x,1/2+y,1/2+z
1/2+x,1/2-y,1/2+z
loop_
_atom_site_type_symbol
_atom_site_label
_atom_site_fract_x
_atom_site_fract_y
_atom_site_fract_z
Si Si1 0.750000 0.250000 0.626853
Si Si2 0.450893 0.150458 0.000000
Si Si3 0.054212 0.000639 0.871839
Si Si4 0.191659 0.500000 0.750000
Si Si5 0.291436 0.545089 0.000000
Si Si6 0.365344 0.500000 0.250000
Si Si7 0.601738 0.760949 0.500000
O O1 0.776123 0.436543 0.679534
O O2 0.715295 0.390470 0.571773
O O3 0.452169 0.294495 0.071826
O O4 0.500000 0.000000 0.000000
O O5 0.396981 0.035540 0.000000
O O6 0.071067 0.799313 0.927733
O O7 0.098339 0.033383 0.817210
O O8 0.000000 0.000000 0.836349
O O9 0.163321 0.248996 0.739644
O O10 0.250000 0.750000 0.000000
O O11 0.345863 0.646873 0.000000
#
# Coordination Sequence:
#
# PCOD9499545 Si02
#       7
#     8   8  16   8   8   8   8
#     4  11  28  52  78 109 154 202 272 327 402 472
#     4  11  21  42  76 106 146 205 254 307 379 464
#     4  11  24  45  69 109 150 197 253 310 375 458
#     4  12  29  52  79 109 150 213 259 321 398 474
#     4  11  28  47  77 115 154 192 263 341 394 464
#     4  12  30  46  76 113 156 199 260 317 393 458
#     4  11  23  42  73 103 143 191 248 304 382 451
#
# _framework density 22.062964999999998
#
# number of rings (size 3 to 8) (size 9 to 14) (size 15 to 20)
#    0.000    0.750    2.500    3.375   12.250    4.000 
#    0.000    1.250    0.000    0.000    0.000    0.000 
#    0.000    0.000    0.000    0.000    0.000    0.000 
#
# Total GULP energy -178467.353278 kJ/mol
# GULP energy per Si atom -5577.104790 kJ/mol
# Density = 2.201275 g / cm^3
# Si number density = 22.062965 Si / 1000 Ang^3
#
#
#
# Elastic Constant Matrix: (Units=GPa)
#
#
# Indices 1 2 3 4 5 6 
#
# 1 126.2455 64.7906 55.4903 0.0000 0.0000 0.0000
# 2 64.7906 117.1505 48.7414 0.0000 0.0000 0.0000
# 3 55.4903 48.7414 152.5764 0.0000 0.0000 0.0000
# 4 0.0000 0.0000 0.0000 48.8239 0.0000 0.0000
# 5 0.0000 0.0000 0.0000 0.0000 22.0719 0.0000
# 6 0.0000 0.0000 0.0000 0.0000 0.0000 45.6293
#
#
#
# Elastic Compliance Matrix: (Units=1/GPa)
#
#
# Indices 1 2 3 4 5 6 
#
# 1 0.011868 -0.005499 -0.002560 0.000000 0.000000 0.000000
# 2 -0.005499 0.012392 -0.001959 0.000000 0.000000 0.000000
# 3 -0.002560 -0.001959 0.008111 0.000000 0.000000 0.000000
# 4 0.000000 0.000000 0.000000 0.020482 0.000000 0.000000
# 5 0.000000 0.000000 0.000000 0.000000 0.045306 0.000000
# 6 0.000000 0.000000 0.000000 0.000000 0.000000 0.021916
#
#
# Mechanical properties :
#
#
# Convention : Reuss Voigt Hill
#
# Bulk Modulus (GPa) = 81.06094 81.55745 81.30919
# Shear Modulus (GPa) = 34.66874 38.43503 36.55189
#
# Velocity S-wave (km/s) = 3.96833 4.17833 4.07468
# Velocity P-wave (km/s) = 7.60377 7.76685 7.68574
#
# Compressibility (1/GPa) = 0.01233640
#
# Stress axis : x y z
#
# Youngs Moduli (GPa) = 84.25865 80.69608 123.29210
#
# Poissons Ratio (x) = 0.44373 0.31559
# Poissons Ratio (y) = 0.46332 0.24152
# Poissons Ratio (z) = 0.21568 0.15808
#
# Static dielectric constant tensor:
#      x y z
#    x -0.348860 0.000000 0.000000 
#    y 0.000000 1.879820 0.000000 
#    z 0.000000 0.000000 1.769530 
# 
# From -- ./inp_files/44552.got.cif
#   From: 2010.05.17/outbox.cif.g08.bks.cpg/sg66_23_cif.got.tgz:44552.got - 2010.06.03 17:51:23.
