data_PCOD9499300
_publ_section_title
;
Structure prediction by ZEFSAII (Michael W. Deem and Ramdas Pophale) SiO2 
 PCOD9499300
Probable space group: C C C M
;
_chemical_formula_sum "Si O2"
_cell_formula_units_Z 60
_cell_length_a 22.998150
_cell_length_b 5.096176
_cell_length_c 24.168624
_cell_angle_alpha 90.000000
_cell_angle_beta 90.000000
_cell_angle_gamma 90.000000
_cell_volume 2832.626056
_symmetry_space_group_name_H-M "C C C M"
_symmetry_group_IT_number 66
_symmetry_cell_setting 'orthorhombic'
loop_
_space_group_symop_operation_xyz
x,y,z
-x,-y,z
x,-y,1/2-z
-x,y,1/2-z
-x,-y,-z
x,y,-z
-x,y,1/2+z
x,-y,1/2+z
1/2+x,1/2+y,z
1/2-x,1/2-y,z
1/2+x,1/2-y,1/2-z
1/2-x,1/2+y,1/2-z
1/2-x,1/2-y,-z
1/2+x,1/2+y,-z
1/2-x,1/2+y,1/2+z
1/2+x,1/2-y,1/2+z
loop_
_atom_site_type_symbol
_atom_site_label
_atom_site_fract_x
_atom_site_fract_y
_atom_site_fract_z
Si Si1 0.710970 0.500000 0.250000
Si Si2 0.000000 0.000000 0.250000
Si Si3 0.960785 0.248993 0.500000
Si Si4 0.119295 0.591595 0.402249
Si Si5 0.892965 0.097013 0.171321
Si Si6 0.209595 0.502049 0.500000
O O1 0.750000 0.250000 0.270131
O O2 0.665983 0.364460 0.206783
O O3 0.048158 0.874854 0.208107
O O4 0.923305 0.269755 0.445326
O O5 0.000000 0.500000 0.500000
O O6 0.000000 0.000000 0.500000
O O7 0.101681 0.314843 0.376000
O O8 0.172805 0.522126 0.443141
O O9 0.119069 0.805781 0.353169
O O10 0.250000 0.250000 0.500000
O O11 0.250000 0.750000 0.500000
#
# Coordination Sequence:
#
# PCOD9499300 Si02
#       6
#     8   4   8  16  16   8
#     4  11  24  43  66  97 132 171 228 292 344 401
#     4  10  28  46  68  96 136 184 232 296 336 398
#     4  11  24  41  64  96 132 171 211 270 322 393
#     4  11  25  42  66 100 131 172 228 269 333 412
#     4  11  25  44  68  97 134 179 231 280 344 406
#     4  11  24  43  68  99 141 175 217 278 339 410
#
# _framework density 21.181757999999999
#
# number of rings (size 3 to 8) (size 9 to 14) (size 15 to 20)
#    0.000    1.067    0.000    4.800    5.600   14.933 
#    0.000    0.000    0.000    0.000    0.000    0.000 
#    0.000    0.000    0.000    0.000    0.000    0.000 
#
# Total GULP energy -167193.330611 kJ/mol
# GULP energy per Si atom -5573.111020 kJ/mol
# Density = 2.113355 g / cm^3
# Si number density = 21.181758 Si / 1000 Ang^3
#
#
#
# Elastic Constant Matrix: (Units=GPa)
#
#
# Indices 1 2 3 4 5 6 
#
# 1 142.6532 55.0223 55.9538 0.0000 0.0000 0.0000
# 2 55.0223 146.0863 26.4377 0.0000 0.0000 0.0000
# 3 55.9538 26.4377 90.6376 0.0000 0.0000 0.0000
# 4 0.0000 0.0000 0.0000 43.8919 0.0000 0.0000
# 5 0.0000 0.0000 0.0000 0.0000 111.1117 0.0000
# 6 0.0000 0.0000 0.0000 0.0000 0.0000 28.8509
#
#
#
# Elastic Compliance Matrix: (Units=1/GPa)
#
#
# Indices 1 2 3 4 5 6 
#
# 1 0.010279 -0.002875 -0.005507 0.000000 0.000000 0.000000
# 2 -0.002875 0.008031 -0.000568 0.000000 0.000000 0.000000
# 3 -0.005507 -0.000568 0.014598 0.000000 0.000000 0.000000
# 4 0.000000 0.000000 0.000000 0.022783 0.000000 0.000000
# 5 0.000000 0.000000 0.000000 0.000000 0.009000 0.000000
# 6 0.000000 0.000000 0.000000 0.000000 0.000000 0.034661
#
#
# Mechanical properties :
#
#
# Convention : Reuss Voigt Hill
#
# Bulk Modulus (GPa) = 66.62759 72.68940 69.65850
# Shear Modulus (GPa) = 40.89844 52.90178 46.90011
#
# Velocity S-wave (km/s) = 4.39889 5.00294 4.71061
# Velocity P-wave (km/s) = 7.57125 8.23189 7.90847
#
# Compressibility (1/GPa) = 0.01500880
#
# Stress axis : x y z
#
# Youngs Moduli (GPa) = 97.28678 124.52059 68.50162
#
# Poissons Ratio (x) = 0.35798 0.37724
# Poissons Ratio (y) = 0.27968 0.03889
# Poissons Ratio (z) = 0.53575 0.07069
#
# Static dielectric constant tensor:
#      x y z
#    x 1.783180 0.000000 0.000000 
#    y 0.000000 1.771860 0.000000 
#    z 0.000000 0.000000 1.553050 
# 
# From -- ./inp_files/59197.got.cif
#   From: 2010.05.17/outbox.cif.g08.bks.cpg/sg66_30_cif.got.tgz:59197.got - 2010.06.03 17:51:23.
