data_PCOD9499441
_publ_section_title
;
Structure prediction by ZEFSAII (Michael W. Deem and Ramdas Pophale) SiO2 
 PCOD9499441
Probable space group: C C C M
;
_chemical_formula_sum "Si O2"
_cell_formula_units_Z 40
_cell_length_a 13.760646
_cell_length_b 12.604909
_cell_length_c 10.513481
_cell_angle_alpha 90.000000
_cell_angle_beta 90.000000
_cell_angle_gamma 90.000000
_cell_volume 1823.581054
_symmetry_space_group_name_H-M "C C C M"
_symmetry_group_IT_number 66
_symmetry_cell_setting 'orthorhombic'
loop_
_space_group_symop_operation_xyz
x,y,z
-x,-y,z
x,-y,1/2-z
-x,y,1/2-z
-x,-y,-z
x,y,-z
-x,y,1/2+z
x,-y,1/2+z
1/2+x,1/2+y,z
1/2-x,1/2-y,z
1/2+x,1/2-y,1/2-z
1/2-x,1/2+y,1/2-z
1/2-x,1/2-y,-z
1/2+x,1/2+y,-z
1/2-x,1/2+y,1/2+z
1/2+x,1/2-y,1/2+z
loop_
_atom_site_type_symbol
_atom_site_label
_atom_site_fract_x
_atom_site_fract_y
_atom_site_fract_z
Si Si1 0.697047 0.356383 0.646750
Si Si2 0.339978 0.982963 0.500000
Si Si3 0.500000 0.316567 0.250000
Si Si4 0.475472 0.825383 0.000000
O O1 0.667145 0.328341 0.500000
O O2 0.750000 0.250000 0.697036
O O3 0.773430 0.449871 0.620100
O O4 0.599129 0.378770 0.721613
O O5 0.432069 0.904399 0.500000
O O6 0.379940 0.100763 0.500000
O O7 0.480170 0.243741 0.372817
#
# Coordination Sequence:
#
# PCOD9499441 Si02
#       4
#    16   8   8   8
#     4   9  16  35  54  80 130 169 201 245 310 371
#     4   9  18  37  52  86 132 172 187 278 314 366
#     4  12  18  35  62  98 121 172 204 260 295 398
#     4  11  21  32  62  93 130 154 209 258 334 350
#
# _framework density 21.934861999999999
#
# number of rings (size 3 to 8) (size 9 to 14) (size 15 to 20)
#    1.200    0.800    6.000    0.000    0.000    3.200 
#    0.000    1.000    0.000    2.400    0.000    8.400 
#    0.000    0.000    0.000    0.000    0.000    0.000 
#
# Total GULP energy -111576.680929 kJ/mol
# GULP energy per Si atom -5578.834046 kJ/mol
# Density = 2.188494 g / cm^3
# Si number density = 21.934862 Si / 1000 Ang^3
#
#
#
# Elastic Constant Matrix: (Units=GPa)
#
#
# Indices 1 2 3 4 5 6 
#
# 1 181.0552 58.7640 49.2629 0.0000 0.0000 0.0000
# 2 58.7640 93.0452 52.4147 0.0000 0.0000 0.0000
# 3 49.2629 52.4147 109.9448 0.0000 0.0000 0.0000
# 4 0.0000 0.0000 0.0000 2.3864 0.0000 0.0000
# 5 0.0000 0.0000 0.0000 0.0000 54.2645 0.0000
# 6 0.0000 0.0000 0.0000 0.0000 0.0000 42.1337
#
#
#
# Elastic Compliance Matrix: (Units=1/GPa)
#
#
# Indices 1 2 3 4 5 6 
#
# 1 0.007108 -0.003684 -0.001428 0.000000 0.000000 0.000000
# 2 -0.003684 0.016603 -0.006265 0.000000 0.000000 0.000000
# 3 -0.001428 -0.006265 0.012722 0.000000 0.000000 0.000000
# 4 0.000000 0.000000 0.000000 0.419046 0.000000 0.000000
# 5 0.000000 0.000000 0.000000 0.000000 0.018428 0.000000
# 6 0.000000 0.000000 0.000000 0.000000 0.000000 0.023734
#
#
# Mechanical properties :
#
#
# Convention : Reuss Voigt Hill
#
# Bulk Modulus (GPa) = 73.10685 78.32537 75.71611
# Shear Modulus (GPa) = 9.52463 34.66382 22.09422
#
# Velocity S-wave (km/s) = 2.08606 3.97962 3.17719
# Velocity P-wave (km/s) = 6.26128 7.54335 6.93202
#
# Compressibility (1/GPa) = 0.01367861
#
# Stress axis : x y z
#
# Youngs Moduli (GPa) = 140.69470 60.22874 78.60411
#
# Poissons Ratio (x) = 0.22190 0.11226
# Poissons Ratio (y) = 0.51837 0.49242
# Poissons Ratio (z) = 0.20094 0.37731
#
# Static dielectric constant tensor:
#      x y z
#    x 1.828450 0.000000 0.000000 
#    y 0.000000 1.795790 0.000000 
#    z 0.000000 0.000000 1.795540 
# 
# From -- ./inp_files/14135.got.cif
#   From: 2010.05.17/outbox.cif.g08.bks.cpg/sg66_8_cif.got.tgz:14135.got - 2010.06.03 17:51:23.
