data_PCOD9499611
_publ_section_title
;
Structure prediction by ZEFSAII (Michael W. Deem and Ramdas Pophale) SiO2 
 PCOD9499611
Probable space group: C C C M
;
_chemical_formula_sum "Si O2"
_cell_formula_units_Z 64
_cell_length_a 16.823625
_cell_length_b 11.887860
_cell_length_c 15.838762
_cell_angle_alpha 90.000000
_cell_angle_beta 90.000000
_cell_angle_gamma 90.000000
_cell_volume 3167.703279
_symmetry_space_group_name_H-M "C C C M"
_symmetry_group_IT_number 66
_symmetry_cell_setting 'orthorhombic'
loop_
_space_group_symop_operation_xyz
x,y,z
-x,-y,z
x,-y,1/2-z
-x,y,1/2-z
-x,-y,-z
x,y,-z
-x,y,1/2+z
x,-y,1/2+z
1/2+x,1/2+y,z
1/2-x,1/2-y,z
1/2+x,1/2-y,1/2-z
1/2-x,1/2+y,1/2-z
1/2-x,1/2-y,-z
1/2+x,1/2+y,-z
1/2-x,1/2+y,1/2+z
1/2+x,1/2-y,1/2+z
loop_
_atom_site_type_symbol
_atom_site_label
_atom_site_fract_x
_atom_site_fract_y
_atom_site_fract_z
Si Si1 0.636735 0.740742 0.664355
Si Si2 0.260094 0.930915 0.901895
Si Si3 0.510923 0.372349 0.597610
Si Si4 0.312454 0.337742 0.851076
O O1 0.666330 0.865432 0.641079
O O2 0.686974 0.656960 0.604179
O O3 0.545051 0.712388 0.648885
O O4 0.664654 0.705029 0.757490
O O5 0.230591 0.041875 0.854132
O O6 0.276382 0.956156 0.000000
O O7 0.500000 0.500000 0.630549
O O8 0.485098 0.370540 0.500000
O O9 0.603721 0.345562 0.602300
O O10 0.250000 0.250000 0.888416
#
# Coordination Sequence:
#
# PCOD9499611 Si02
#       4
#    16  16  16  16
#     4  11  22  39  66  92 125 169 221 263 313 385
#     4  11  22  39  64  93 130 172 214 261 323 395
#     4  11  23  39  63  94 129 167 217 270 324 382
#     4  12  25  40  65  99 134 166 212 273 334 380
#
# _framework density 20.203913
#
# number of rings (size 3 to 8) (size 9 to 14) (size 15 to 20)
#    0.000    0.750    5.000    5.250    0.000    3.000 
#    0.000    1.250    0.000    6.000    0.000    0.000 
#    0.000    0.000    0.000    0.000    0.000    0.000 
#
# Total GULP energy -178844.777560 kJ/mol
# GULP energy per Si atom -5588.899299 kJ/mol
# Density = 2.015793 g / cm^3
# Si number density = 20.203913 Si / 1000 Ang^3
#
#
#
# Elastic Constant Matrix: (Units=GPa)
#
#
# Indices 1 2 3 4 5 6 
#
# 1 140.0751 68.7499 6.2834 0.0000 0.0000 0.0000
# 2 68.7499 89.0796 7.5379 0.0000 0.0000 0.0000
# 3 6.2834 7.5379 85.4176 0.0000 0.0000 0.0000
# 4 0.0000 0.0000 0.0000 -24.2657 0.0000 0.0000
# 5 0.0000 0.0000 0.0000 0.0000 -2.5402 0.0000
# 6 0.0000 0.0000 0.0000 0.0000 0.0000 33.8259
#
#
#
# Elastic Compliance Matrix: (Units=1/GPa)
#
#
# Indices 1 2 3 4 5 6 
#
# 1 0.011493 -0.008864 -0.000063 0.000000 0.000000 0.000000
# 2 -0.008864 0.018148 -0.000949 0.000000 0.000000 0.000000
# 3 -0.000063 -0.000949 0.011796 0.000000 0.000000 0.000000
# 4 0.000000 0.000000 0.000000 -0.041210 0.000000 0.000000
# 5 0.000000 0.000000 0.000000 0.000000 -0.393677 0.000000
# 6 0.000000 0.000000 0.000000 0.000000 0.000000 0.029563
#
#
# Mechanical properties :
#
#
# Convention : Reuss Voigt Hill
#
# Bulk Modulus (GPa) = 46.12141 53.30164 49.71153
# Shear Modulus (GPa) = -14.84088 16.87073 1.01493
#
# Velocity S-wave (km/s) = -2.71321 2.89281 0.70953
# Velocity P-wave (km/s) = 3.61417 6.13163 5.03285
#
# Compressibility (1/GPa) = 0.02168190
#
# Stress axis : x y z
#
# Youngs Moduli (GPa) = 87.01265 55.10357 84.77728
#
# Poissons Ratio (x) = 0.48846 0.00535
# Poissons Ratio (y) = 0.77132 0.08049
# Poissons Ratio (z) = 0.00549 0.05232
#
# Static dielectric constant tensor:
#      x y z
#    x 1.724430 0.000000 0.000000 
#    y 0.000000 1.719820 0.000000 
#    z 0.000000 0.000000 1.755520 
# 
# From -- ./inp_files/25749.got.cif
#   From: 2010.05.17/outbox.cif.g08.bks.cpg/sg66_13_cif.got.tgz:25749.got - 2010.06.03 17:51:23.
