data_PCOD9499812
_publ_section_title
;
Structure prediction by ZEFSAII (Michael W. Deem and Ramdas Pophale) SiO2 
 PCOD9499812
Probable space group: C C C M
;
_chemical_formula_sum "Si O2"
_cell_formula_units_Z 80
_cell_length_a 16.428566
_cell_length_b 8.463928
_cell_length_c 27.187563
_cell_angle_alpha 90.000000
_cell_angle_beta 90.000000
_cell_angle_gamma 90.000000
_cell_volume 3780.436066
_symmetry_space_group_name_H-M "C C C M"
_symmetry_group_IT_number 66
_symmetry_cell_setting 'orthorhombic'
loop_
_space_group_symop_operation_xyz
x,y,z
-x,-y,z
x,-y,1/2-z
-x,y,1/2-z
-x,-y,-z
x,y,-z
-x,y,1/2+z
x,-y,1/2+z
1/2+x,1/2+y,z
1/2-x,1/2-y,z
1/2+x,1/2-y,1/2-z
1/2-x,1/2+y,1/2-z
1/2-x,1/2-y,-z
1/2+x,1/2+y,-z
1/2-x,1/2+y,1/2+z
1/2+x,1/2-y,1/2+z
loop_
_atom_site_type_symbol
_atom_site_label
_atom_site_fract_x
_atom_site_fract_y
_atom_site_fract_z
Si Si1 0.411587 0.576236 0.702451
Si Si2 0.327580 0.127577 0.206641
Si Si3 0.337360 0.954325 0.000000
Si Si4 0.849915 0.931400 0.500000
Si Si5 0.353792 0.418624 0.605123
Si Si6 0.159251 0.561984 0.893689
O O1 0.500000 0.500000 0.699943
O O2 0.368798 0.500000 0.750000
O O3 0.405671 0.760133 0.713097
O O4 0.372145 0.529558 0.650824
O O5 0.250000 0.250000 0.205369
O O6 0.319210 0.000000 0.250000
O O7 0.343076 0.043684 0.154535
O O8 0.372096 0.002880 0.053430
O O9 0.241874 0.000119 0.000000
O O10 0.342156 0.761270 0.000000
O O11 0.888756 0.972769 0.552434
O O12 0.256355 0.415658 0.598671
O O13 0.377816 0.236484 0.615504
#
# Coordination Sequence:
#
# PCOD9499812 Si02
#       6
#    16  16   8   8  16  16
#     4  11  24  42  57  77 115 156 192 239 298 356
#     4  12  24  37  60  91 118 151 197 249 302 346
#     4   7  12  26  46  82 118 148 178 235 288 342
#     4   7  12  24  50  81 110 149 191 227 286 334
#     4   9  16  32  56  83 115 152 191 240 283 343
#     4   9  17  30  57  86 116 146 194 240 291 335
#
# _framework density 21.161580000000001
#
# number of rings (size 3 to 8) (size 9 to 14) (size 15 to 20)
#    0.000    2.400    2.000    4.200    2.800    0.000 
#    0.000    9.000    0.000    0.000    0.000    4.200 
#    0.000    0.000    0.000    0.000    0.000    0.000 
#
# Total GULP energy -222687.830695 kJ/mol
# GULP energy per Si atom -5567.195767 kJ/mol
# Density = 2.111342 g / cm^3
# Si number density = 21.161580 Si / 1000 Ang^3
#
#
#
# Elastic Constant Matrix: (Units=GPa)
#
#
# Indices 1 2 3 4 5 6 
#
# 1 24.6344 11.8985 0.6091 0.0000 0.0000 0.0000
# 2 11.8985 89.6264 73.2853 0.0000 0.0000 0.0000
# 3 0.6091 73.2853 214.2038 0.0000 0.0000 0.0000
# 4 0.0000 0.0000 0.0000 31.8903 0.0000 0.0000
# 5 0.0000 0.0000 0.0000 0.0000 -5.2910 0.0000
# 6 0.0000 0.0000 0.0000 0.0000 0.0000 15.6166
#
#
#
# Elastic Compliance Matrix: (Units=1/GPa)
#
#
# Indices 1 2 3 4 5 6 
#
# 1 0.044413 -0.008043 0.002625 0.000000 0.000000 0.000000
# 2 -0.008043 0.016948 -0.005775 0.000000 0.000000 0.000000
# 3 0.002625 -0.005775 0.006637 0.000000 0.000000 0.000000
# 4 0.000000 0.000000 0.000000 0.031358 0.000000 0.000000
# 5 0.000000 0.000000 0.000000 0.000000 -0.188999 0.000000
# 6 0.000000 0.000000 0.000000 0.000000 0.000000 0.064035
#
#
# Mechanical properties :
#
#
# Convention : Reuss Voigt Hill
#
# Bulk Modulus (GPa) = 21.92398 55.56117 38.74258
# Shear Modulus (GPa) = 417.34200 24.62127 220.98164
#
# Velocity S-wave (km/s) = 14.05863 3.41470 10.22998
# Velocity P-wave (km/s) = 16.55021 6.46990 12.56521
#
# Compressibility (1/GPa) = 0.04561216
#
# Stress axis : x y z
#
# Youngs Moduli (GPa) = 22.51569 59.00548 150.67244
#
# Poissons Ratio (x) = 0.47458 -0.39558
# Poissons Ratio (y) = 0.18109 0.87019
# Poissons Ratio (z) = -0.05911 0.34078
#
# Static dielectric constant tensor:
#      x y z
#    x 1.829160 0.000000 0.000000 
#    y 0.000000 1.804140 0.000000 
#    z 0.000000 0.000000 1.864700 
# 
# From -- ./inp_files/65133.got.cif
#   From: 2010.05.17/outbox.cif.g08.bks.cpg/sg66_33_cif.got.tgz:65133.got - 2010.06.03 17:51:23.
