data_PCOD9499766
_publ_section_title
;
Structure prediction by ZEFSAII (Michael W. Deem and Ramdas Pophale) SiO2 
 PCOD9499766
Probable space group: C C C M
;
_chemical_formula_sum "Si O2"
_cell_formula_units_Z 64
_cell_length_a 12.104584
_cell_length_b 8.993231
_cell_length_c 26.047993
_cell_angle_alpha 90.000000
_cell_angle_beta 90.000000
_cell_angle_gamma 90.000000
_cell_volume 2835.566807
_symmetry_space_group_name_H-M "C C C M"
_symmetry_group_IT_number 66
_symmetry_cell_setting 'orthorhombic'
loop_
_space_group_symop_operation_xyz
x,y,z
-x,-y,z
x,-y,1/2-z
-x,y,1/2-z
-x,-y,-z
x,y,-z
-x,y,1/2+z
x,-y,1/2+z
1/2+x,1/2+y,z
1/2-x,1/2-y,z
1/2+x,1/2-y,1/2-z
1/2-x,1/2+y,1/2-z
1/2-x,1/2-y,-z
1/2+x,1/2+y,-z
1/2-x,1/2+y,1/2+z
1/2+x,1/2-y,1/2+z
loop_
_atom_site_type_symbol
_atom_site_label
_atom_site_fract_x
_atom_site_fract_y
_atom_site_fract_z
Si Si1 0.444614 0.659889 0.104888
Si Si2 0.875134 0.562730 0.445247
Si Si3 0.857782 0.500000 0.750000
Si Si4 0.356576 0.147239 0.148205
Si Si5 0.750000 0.750000 0.318781
O O1 0.500000 0.500000 0.093801
O O2 0.387393 0.759581 0.060671
O O3 0.549400 0.755231 0.122561
O O4 0.351543 0.678604 0.148950
O O5 0.820795 0.523446 0.500000
O O6 0.829392 0.484167 0.393366
O O7 0.000000 0.500000 0.447498
O O8 0.907035 0.593036 0.797572
O O9 0.790011 0.618940 0.717727
O O10 0.250000 0.250000 0.157080
#
# Coordination Sequence:
#
# PCOD9499766 Si02
#       5
#    16  16   8  16   8
#     4  11  25  43  68  98 137 176 222 283 333 408
#     4   9  20  42  69  95 130 176 226 279 335 403
#     4  12  24  43  65  96 132 178 219 277 334 408
#     4  11  23  44  68  99 132 178 229 275 344 406
#     4  12  26  44  65  98 141 174 228 276 344 412
#
# _framework density 22.570443000000001
#
# number of rings (size 3 to 8) (size 9 to 14) (size 15 to 20)
#    0.000    1.250    3.750    1.500    0.000    3.000 
#    0.000    0.625    0.000    0.000    0.000    0.000 
#    0.000    0.000    0.000    0.000    0.000    0.000 
#
# Total GULP energy -178365.599061 kJ/mol
# GULP energy per Si atom -5573.924971 kJ/mol
# Density = 2.251907 g / cm^3
# Si number density = 22.570443 Si / 1000 Ang^3
#
#
#
# Elastic Constant Matrix: (Units=GPa)
#
#
# Indices 1 2 3 4 5 6 
#
# 1 85.4441 22.5411 8.6567 0.0000 0.0000 0.0000
# 2 22.5411 136.7251 43.6791 0.0000 0.0000 0.0000
# 3 8.6567 43.6791 152.1919 0.0000 0.0000 0.0000
# 4 0.0000 0.0000 0.0000 17.6419 0.0000 0.0000
# 5 0.0000 0.0000 0.0000 0.0000 11.3959 0.0000
# 6 0.0000 0.0000 0.0000 0.0000 0.0000 43.4731
#
#
#
# Elastic Compliance Matrix: (Units=1/GPa)
#
#
# Indices 1 2 3 4 5 6 
#
# 1 0.012238 -0.001976 -0.000129 0.000000 0.000000 0.000000
# 2 -0.001976 0.008371 -0.002290 0.000000 0.000000 0.000000
# 3 -0.000129 -0.002290 0.007235 0.000000 0.000000 0.000000
# 4 0.000000 0.000000 0.000000 0.056683 0.000000 0.000000
# 5 0.000000 0.000000 0.000000 0.000000 0.087751 0.000000
# 6 0.000000 0.000000 0.000000 0.000000 0.000000 0.023003
#
#
# Mechanical properties :
#
#
# Convention : Reuss Voigt Hill
#
# Bulk Modulus (GPa) = 52.48314 58.23500 55.35907
# Shear Modulus (GPa) = 23.76157 34.46780 29.11469
#
# Velocity S-wave (km/s) = 3.24817 3.91208 3.59548
# Velocity P-wave (km/s) = 6.11318 6.80171 6.46662
#
# Compressibility (1/GPa) = 0.01905374
#
# Stress axis : x y z
#
# Youngs Moduli (GPa) = 81.71257 119.45396 138.21198
#
# Poissons Ratio (x) = 0.23609 0.01781
# Poissons Ratio (y) = 0.16150 0.31653
# Poissons Ratio (z) = 0.01053 0.27357
#
# Static dielectric constant tensor:
#      x y z
#    x 1.864820 0.000000 0.000000 
#    y 0.000000 1.636590 0.000000 
#    z 0.000000 0.000000 1.857230 
# 
# From -- ./inp_files/64253.got.cif
#   From: 2010.05.17/outbox.cif.g08.bks.cpg/sg66_33_cif.got.tgz:64253.got - 2010.06.03 17:51:23.
