data_PCOD9499147
_publ_section_title
;
Structure prediction by ZEFSAII (Michael W. Deem and Ramdas Pophale) SiO2 
 PCOD9499147
Probable space group: C C C M
;
_chemical_formula_sum "Si O2"
_cell_formula_units_Z 60
_cell_length_a 21.709479
_cell_length_b 12.874626
_cell_length_c 9.130537
_cell_angle_alpha 90.000000
_cell_angle_beta 90.000000
_cell_angle_gamma 90.000000
_cell_volume 2551.998082
_symmetry_space_group_name_H-M "C C C M"
_symmetry_group_IT_number 66
_symmetry_cell_setting 'orthorhombic'
loop_
_space_group_symop_operation_xyz
x,y,z
-x,-y,z
x,-y,1/2-z
-x,y,1/2-z
-x,-y,-z
x,y,-z
-x,y,1/2+z
x,-y,1/2+z
1/2+x,1/2+y,z
1/2-x,1/2-y,z
1/2+x,1/2-y,1/2-z
1/2-x,1/2+y,1/2-z
1/2-x,1/2-y,-z
1/2+x,1/2+y,-z
1/2-x,1/2+y,1/2+z
1/2+x,1/2-y,1/2+z
loop_
_atom_site_type_symbol
_atom_site_label
_atom_site_fract_x
_atom_site_fract_y
_atom_site_fract_z
Si Si1 0.220241 0.500000 0.250000
Si Si2 0.500000 0.659180 0.750000
Si Si3 0.077327 0.442184 0.000000
Si Si4 0.350356 0.134108 0.500000
Si Si5 0.500000 0.000000 0.750000
Si Si6 0.692118 0.441354 0.500000
Si Si7 0.096256 0.128032 0.500000
Si Si8 0.090784 0.766529 0.500000
O O1 0.183638 0.417140 0.355497
O O2 0.264225 0.561842 0.359482
O O3 0.550754 0.608471 0.639153
O O4 0.454255 0.716595 0.637757
O O5 0.123453 0.347003 0.000000
O O6 0.040597 0.429664 0.852563
O O7 0.089368 0.563803 0.000000
O O8 0.372368 0.254443 0.500000
O O9 0.652927 0.548413 0.500000
O O10 0.642611 0.351799 0.500000
#
# Coordination Sequence:
#
# PCOD9499147 Si02
#       8
#     8   8   8   8   4   8   8   8
#     4  10  25  48  68 100 128 178 245 288 342 396
#     4  10  25  41  68 110 140 179 223 262 350 432
#     4  11  24  39  64  98 134 178 217 280 330 413
#     4  11  26  45  68  99 134 179 232 285 346 400
#     4  10  24  38  66  94 142 180 222 268 340 410
#     4  11  24  50  71 100 135 179 236 291 344 399
#     4  11  26  45  73 100 147 182 221 284 345 424
#     4  11  24  41  69 102 140 174 222 278 343 410
#
# _framework density 23.51099
#
# number of rings (size 3 to 8) (size 9 to 14) (size 15 to 20)
#    0.000    1.333    0.000    3.200   14.933    5.333 
#    4.800    1.333    0.000    0.000    0.000    0.000 
#    0.000    0.000    0.000    0.000    0.000    0.000 
#
# Total GULP energy -167172.761820 kJ/mol
# GULP energy per Si atom -5572.425394 kJ/mol
# Density = 2.345748 g / cm^3
# Si number density = 23.510990 Si / 1000 Ang^3
#
#
#
# Elastic Constant Matrix: (Units=GPa)
#
#
# Indices 1 2 3 4 5 6 
#
# 1 96.5999 40.9866 47.7834 0.0000 0.0000 0.0000
# 2 40.9866 133.1207 21.7371 0.0000 0.0000 0.0000
# 3 47.7834 21.7371 177.2457 0.0000 0.0000 0.0000
# 4 0.0000 0.0000 0.0000 27.1173 0.0000 0.0000
# 5 0.0000 0.0000 0.0000 0.0000 26.8482 0.0000
# 6 0.0000 0.0000 0.0000 0.0000 0.0000 4.3634
#
#
#
# Elastic Compliance Matrix: (Units=1/GPa)
#
#
# Indices 1 2 3 4 5 6 
#
# 1 0.013466 -0.003626 -0.003186 0.000000 0.000000 0.000000
# 2 -0.003626 0.008642 -0.000082 0.000000 0.000000 0.000000
# 3 -0.003186 -0.000082 0.006511 0.000000 0.000000 0.000000
# 4 0.000000 0.000000 0.000000 0.036877 0.000000 0.000000
# 5 0.000000 0.000000 0.000000 0.000000 0.037246 0.000000
# 6 0.000000 0.000000 0.000000 0.000000 0.000000 0.229178
#
#
# Mechanical properties :
#
#
# Convention : Reuss Voigt Hill
#
# Bulk Modulus (GPa) = 67.42623 69.77562 68.60092
# Shear Modulus (GPa) = 14.25917 31.42973 22.84445
#
# Velocity S-wave (km/s) = 2.46537 3.66021 3.12051
# Velocity P-wave (km/s) = 6.07000 6.89965 6.49808
#
# Compressibility (1/GPa) = 0.01483102
#
# Stress axis : x y z
#
# Youngs Moduli (GPa) = 74.25987 115.71650 153.59104
#
# Poissons Ratio (x) = 0.41958 0.48929
# Poissons Ratio (y) = 0.26926 0.01264
# Poissons Ratio (z) = 0.23657 0.00952
#
# Static dielectric constant tensor:
#      x y z
#    x 1.918660 0.000000 0.000000 
#    y 0.000000 1.888180 0.000000 
#    z 0.000000 0.000000 2.000790 
# 
# From -- ./inp_files/9862.got.cif
#   From: 2010.05.17/outbox.cif.g08.bks.cpg/sg66_5_cif.got.tgz:9862.got - 2010.06.03 17:51:23.
