data_PCOD9499234
_publ_section_title
;
Structure prediction by ZEFSAII (Michael W. Deem and Ramdas Pophale) SiO2 
 PCOD9499234
Probable space group: C C C M
;
_chemical_formula_sum "Si O2"
_cell_formula_units_Z 40
_cell_length_a 4.813148
_cell_length_b 13.857097
_cell_length_c 23.994178
_cell_angle_alpha 90.000000
_cell_angle_beta 90.000000
_cell_angle_gamma 90.000000
_cell_volume 1600.321903
_symmetry_space_group_name_H-M "C C C M"
_symmetry_group_IT_number 66
_symmetry_cell_setting 'orthorhombic'
loop_
_space_group_symop_operation_xyz
x,y,z
-x,-y,z
x,-y,1/2-z
-x,y,1/2-z
-x,-y,-z
x,y,-z
-x,y,1/2+z
x,-y,1/2+z
1/2+x,1/2+y,z
1/2-x,1/2-y,z
1/2+x,1/2-y,1/2-z
1/2-x,1/2+y,1/2-z
1/2-x,1/2-y,-z
1/2+x,1/2+y,-z
1/2-x,1/2+y,1/2+z
1/2+x,1/2-y,1/2+z
loop_
_atom_site_type_symbol
_atom_site_label
_atom_site_fract_x
_atom_site_fract_y
_atom_site_fract_z
Si Si1 0.000000 0.000000 0.000000
Si Si2 0.822187 0.857072 0.406661
Si Si3 0.000000 0.000000 0.750000
Si Si4 0.181211 0.354953 0.828244
O O1 0.179082 0.940784 0.951580
O O2 0.750000 0.750000 0.429101
O O3 0.627907 0.869023 0.351823
O O4 0.134799 0.855532 0.384186
O O5 0.800379 0.065749 0.712460
O O6 0.250000 0.250000 0.802685
#
# Coordination Sequence:
#
# PCOD9499234 Si02
#       4
#     4  16   4  16
#     4  12  24  42  76 106 132 188 244 282 348 426
#     4  10  24  46  68 100 144 182 229 293 351 414
#     4  12  26  46  80 106 136 194 242 286 356 422
#     4  10  25  47  70 103 145 184 232 294 353 419
#
# _framework density 24.994968
#
# number of rings (size 3 to 8) (size 9 to 14) (size 15 to 20)
#    0.000    1.600    0.000    1.800    0.000   17.600 
#    0.000   10.000    0.000    0.000    0.000    0.000 
#    0.000    0.000    0.000    0.000    0.000    0.000 
#
# Total GULP energy -111493.815658 kJ/mol
# GULP energy per Si atom -5574.690783 kJ/mol
# Density = 2.493808 g / cm^3
# Si number density = 24.994968 Si / 1000 Ang^3
#
#
#
# Elastic Constant Matrix: (Units=GPa)
#
#
# Indices 1 2 3 4 5 6 
#
# 1 72.4808 37.5022 13.3381 0.0000 0.0000 0.0000
# 2 37.5022 209.7038 92.7241 0.0000 0.0000 0.0000
# 3 13.3381 92.7241 84.0132 0.0000 0.0000 0.0000
# 4 0.0000 0.0000 0.0000 -46.1360 0.0000 0.0000
# 5 0.0000 0.0000 0.0000 0.0000 -148.0923 0.0000
# 6 0.0000 0.0000 0.0000 0.0000 0.0000 40.6986
#
#
#
# Elastic Compliance Matrix: (Units=1/GPa)
#
#
# Indices 1 2 3 4 5 6 
#
# 1 0.015260 -0.003238 0.001151 0.000000 0.000000 0.000000
# 2 -0.003238 0.010001 -0.010524 0.000000 0.000000 0.000000
# 3 0.001151 -0.010524 0.023335 0.000000 0.000000 0.000000
# 4 0.000000 0.000000 0.000000 -0.021675 0.000000 0.000000
# 5 0.000000 0.000000 0.000000 0.000000 -0.006753 0.000000
# 6 0.000000 0.000000 0.000000 0.000000 0.000000 0.024571
#
#
# Mechanical properties :
#
#
# Convention : Reuss Voigt Hill
#
# Bulk Modulus (GPa) = 42.78128 72.59183 57.68655
# Shear Modulus (GPa) = 64.30599 -15.86373 24.22113
#
# Velocity S-wave (km/s) = 5.07774 -2.52201 3.11632
# Velocity P-wave (km/s) = 7.17851 4.54146 6.00649
#
# Compressibility (1/GPa) = 0.02337471
#
# Stress axis : x y z
#
# Youngs Moduli (GPa) = 65.52946 99.98988 42.85367
#
# Poissons Ratio (x) = 0.32377 -0.04932
# Poissons Ratio (y) = 0.21218 0.45099
# Poissons Ratio (z) = -0.07542 1.05228
#
# Static dielectric constant tensor:
#      x y z
#    x 1.895120 0.000000 0.000000 
#    y 0.000000 2.055380 0.000000 
#    z 0.000000 0.000000 1.966540 
# 
# From -- ./inp_files/53659.got.cif
#   From: 2010.05.17/outbox.cif.g08.bks.cpg/sg66_27_cif.got.tgz:53659.got - 2010.06.03 17:51:23.
