data_PCOD9499835
_publ_section_title
;
Structure prediction by ZEFSAII (Michael W. Deem and Ramdas Pophale) SiO2 
 PCOD9499835
Probable space group: C C C M
;
_chemical_formula_sum "Si O2"
_cell_formula_units_Z 40
_cell_length_a 5.051637
_cell_length_b 22.529704
_cell_length_c 16.451809
_cell_angle_alpha 90.000000
_cell_angle_beta 90.000000
_cell_angle_gamma 90.000000
_cell_volume 1872.411416
_symmetry_space_group_name_H-M "C C C M"
_symmetry_group_IT_number 66
_symmetry_cell_setting 'orthorhombic'
loop_
_space_group_symop_operation_xyz
x,y,z
-x,-y,z
x,-y,1/2-z
-x,y,1/2-z
-x,-y,-z
x,y,-z
-x,y,1/2+z
x,-y,1/2+z
1/2+x,1/2+y,z
1/2-x,1/2-y,z
1/2+x,1/2-y,1/2-z
1/2-x,1/2+y,1/2-z
1/2-x,1/2-y,-z
1/2+x,1/2+y,-z
1/2-x,1/2+y,1/2+z
1/2+x,1/2-y,1/2+z
loop_
_atom_site_type_symbol
_atom_site_label
_atom_site_fract_x
_atom_site_fract_y
_atom_site_fract_z
Si Si1 0.496763 0.569664 0.652056
Si Si2 0.512500 0.142904 0.905718
Si Si3 0.250000 0.250000 0.301296
O O1 0.500000 0.500000 0.631020
O O2 0.500000 0.573402 0.750000
O O3 0.754261 0.596755 0.610908
O O4 0.251486 0.609451 0.622685
O O5 0.602461 0.200050 0.854128
O O6 0.489453 0.159084 0.000000
O O7 0.500000 0.275805 0.250000
#
# Coordination Sequence:
#
# PCOD9499835 Si02
#       3
#    16  16   8
#     4  11  24  43  67  95 130 174 221 266 321 394
#     4  12  25  42  66  98 133 168 216 275 333 387
#     4  12  25  44  69  94 130 178 226 270 325 398
#
# _framework density 21.362828
#
# number of rings (size 3 to 8) (size 9 to 14) (size 15 to 20)
#    0.000    0.400    0.000   10.200    0.000    8.000 
#    0.000    6.000    0.000    0.000    0.000    0.000 
#    0.000    0.000    0.000    0.000    0.000    0.000 
#
# Total GULP energy -111936.031499 kJ/mol
# GULP energy per Si atom -5596.801575 kJ/mol
# Density = 2.131421 g / cm^3
# Si number density = 21.362828 Si / 1000 Ang^3
#
#
#
# Elastic Constant Matrix: (Units=GPa)
#
#
# Indices 1 2 3 4 5 6 
#
# 1 370.1660 202.8935 112.4079 0.0000 0.0000 0.0000
# 2 202.8935 265.5940 98.6614 0.0000 0.0000 0.0000
# 3 112.4079 98.6614 129.1891 0.0000 0.0000 0.0000
# 4 0.0000 0.0000 0.0000 100.7472 0.0000 0.0000
# 5 0.0000 0.0000 0.0000 0.0000 41.1163 0.0000
# 6 0.0000 0.0000 0.0000 0.0000 0.0000 53.6117
#
#
#
# Elastic Compliance Matrix: (Units=1/GPa)
#
#
# Indices 1 2 3 4 5 6 
#
# 1 0.004991 -0.003071 -0.001998 0.000000 0.000000 0.000000
# 2 -0.003071 0.007146 -0.002785 0.000000 0.000000 0.000000
# 3 -0.001998 -0.002785 0.011606 0.000000 0.000000 0.000000
# 4 0.000000 0.000000 0.000000 0.009926 0.000000 0.000000
# 5 0.000000 0.000000 0.000000 0.000000 0.024321 0.000000
# 6 0.000000 0.000000 0.000000 0.000000 0.000000 0.018653
#
#
# Mechanical properties :
#
#
# Convention : Reuss Voigt Hill
#
# Bulk Modulus (GPa) = 124.45095 176.98609 150.71852
# Shear Modulus (GPa) = 52.61571 62.49412 57.55492
#
# Velocity S-wave (km/s) = 4.96820 5.41453 5.19616
# Velocity P-wave (km/s) = 9.55474 11.05066 10.32981
#
# Compressibility (1/GPa) = 0.00803529
#
# Stress axis : x y z
#
# Youngs Moduli (GPa) = 200.34671 139.94468 86.16340
#
# Poissons Ratio (x) = 0.42975 0.17213
# Poissons Ratio (y) = 0.61524 0.23998
# Poissons Ratio (z) = 0.40024 0.38977
#
# Static dielectric constant tensor:
#      x y z
#    x 1.699720 0.000000 0.000000 
#    y 0.000000 1.738690 0.000000 
#    z 0.000000 0.000000 1.768290 
# 
# From -- ./inp_files/22114.got.cif
#   From: 2010.05.17/outbox.cif.g08.bks.cpg/sg66_12_cif.got.tgz:22114.got - 2010.06.03 17:51:23.
