data_PCOD9499452
_publ_section_title
;
Structure prediction by ZEFSAII (Michael W. Deem and Ramdas Pophale) SiO2 
 PCOD9499452
Probable space group: C C C M
;
_chemical_formula_sum "Si O2"
_cell_formula_units_Z 116
_cell_length_a 24.959649
_cell_length_b 8.167716
_cell_length_c 26.351635
_cell_angle_alpha 90.000000
_cell_angle_beta 90.000000
_cell_angle_gamma 90.000000
_cell_volume 5372.131917
_symmetry_space_group_name_H-M "C C C M"
_symmetry_group_IT_number 66
_symmetry_cell_setting 'orthorhombic'
loop_
_space_group_symop_operation_xyz
x,y,z
-x,-y,z
x,-y,1/2-z
-x,y,1/2-z
-x,-y,-z
x,y,-z
-x,y,1/2+z
x,-y,1/2+z
1/2+x,1/2+y,z
1/2-x,1/2-y,z
1/2+x,1/2-y,1/2-z
1/2-x,1/2+y,1/2-z
1/2-x,1/2-y,-z
1/2+x,1/2+y,-z
1/2-x,1/2+y,1/2+z
1/2+x,1/2-y,1/2+z
loop_
_atom_site_type_symbol
_atom_site_label
_atom_site_fract_x
_atom_site_fract_y
_atom_site_fract_z
Si Si1 0.126037 0.175349 0.338056
Si Si2 0.551753 0.114781 0.444285
Si Si3 0.548500 0.620777 0.145431
Si Si4 0.283305 0.507747 0.306550
Si Si5 0.843261 0.587176 0.575573
Si Si6 0.250000 0.750000 0.000000
Si Si7 0.075950 0.323871 0.235155
Si Si8 0.320516 0.863437 0.665570
O O1 0.124802 0.292074 0.386120
O O2 0.099491 0.242775 0.286363
O O3 0.098737 0.000734 0.348628
O O4 0.189371 0.144018 0.332446
O O5 0.543313 0.193821 0.500000
O O6 0.556098 0.245764 0.398799
O O7 0.500000 0.000000 0.434340
O O8 0.605818 0.007124 0.448605
O O9 0.500000 0.500000 0.133028
O O10 0.539154 0.708801 0.199967
O O11 0.305961 0.500000 0.250000
O O12 0.300653 0.677341 0.332292
O O13 0.220188 0.519704 0.304558
O O14 0.795205 0.678294 0.543998
O O15 0.819080 0.441850 0.610242
O O16 0.054177 0.500000 0.250000
O O17 0.123942 0.362804 0.195274
#
# Coordination Sequence:
#
# PCOD9499452 Si02
#       8
#    16  16  16  16  16   4  16  16
#     4  12  23  41  66 101 145 190 234 295 363 445
#     4  11  24  49  81 104 132 189 254 316 366 439
#     4  12  26  46  69 105 145 186 240 311 368 433
#     4  11  21  34  59  96 140 185 239 285 335 419
#     4  12  24  46  72 103 144 188 245 306 380 461
#     4  12  28  48  74 110 144 192 250 328 392 432
#     4  12  22  42  66  99 143 195 237 283 363 443
#     4  11  22  38  64  94 139 189 233 288 352 436
#
# _framework density 21.592915999999999
#
# number of rings (size 3 to 8) (size 9 to 14) (size 15 to 20)
#    0.000    0.414    6.207    2.483    0.000    1.379 
#    1.241    0.690    0.000    3.310    0.000    0.000 
#    0.000    0.000    0.000    0.000    0.000    0.000 
#
# Total GULP energy -322925.523780 kJ/mol
# GULP energy per Si atom -5567.681444 kJ/mol
# Density = 2.154377 g / cm^3
# Si number density = 21.592916 Si / 1000 Ang^3
#
#
#
# Elastic Constant Matrix: (Units=GPa)
#
#
# Indices 1 2 3 4 5 6 
#
# 1 108.5153 35.9427 34.5285 0.0000 0.0000 0.0000
# 2 35.9427 117.0474 77.4659 0.0000 0.0000 0.0000
# 3 34.5285 77.4659 170.5644 0.0000 0.0000 0.0000
# 4 0.0000 0.0000 0.0000 -37.0578 0.0000 0.0000
# 5 0.0000 0.0000 0.0000 0.0000 29.6219 0.0000
# 6 0.0000 0.0000 0.0000 0.0000 0.0000 31.5500
#
#
#
# Elastic Compliance Matrix: (Units=1/GPa)
#
#
# Indices 1 2 3 4 5 6 
#
# 1 0.010362 -0.002564 -0.000933 0.000000 0.000000 0.000000
# 2 -0.002564 0.012850 -0.005317 0.000000 0.000000 0.000000
# 3 -0.000933 -0.005317 0.008467 0.000000 0.000000 0.000000
# 4 0.000000 0.000000 0.000000 -0.026985 0.000000 0.000000
# 5 0.000000 0.000000 0.000000 0.000000 0.033759 0.000000
# 6 0.000000 0.000000 0.000000 0.000000 0.000000 0.031696
#
#
# Mechanical properties :
#
#
# Convention : Reuss Voigt Hill
#
# Bulk Modulus (GPa) = 71.17668 76.88905 74.03286
# Shear Modulus (GPa) = 54.07777 21.36881 37.72329
#
# Velocity S-wave (km/s) = 5.00985 3.14924 4.18427
# Velocity P-wave (km/s) = 8.15471 6.99352 7.59634
#
# Compressibility (1/GPa) = 0.01404955
#
# Stress axis : x y z
#
# Youngs Moduli (GPa) = 96.51111 77.82109 118.11139
#
# Poissons Ratio (x) = 0.19956 0.11018
# Poissons Ratio (y) = 0.24749 0.62800
# Poissons Ratio (z) = 0.09003 0.41378
#
# Static dielectric constant tensor:
#      x y z
#    x 1.915460 0.000000 0.000000 
#    y 0.000000 1.825230 0.000000 
#    z 0.000000 0.000000 1.834390 
# 
# From -- ./inp_files/60194.got.cif
#   From: 2010.05.17/outbox.cif.g08.bks.cpg/sg66_31_cif.got.tgz:60194.got - 2010.06.03 17:51:23.
