data_PCOD9499927
_publ_section_title
;
Structure prediction by ZEFSAII (Michael W. Deem and Ramdas Pophale) SiO2 
 PCOD9499927
Probable space group: C C C M
;
_chemical_formula_sum "Si O2"
_cell_formula_units_Z 88
_cell_length_a 8.832596
_cell_length_b 14.757907
_cell_length_c 29.567745
_cell_angle_alpha 90.000000
_cell_angle_beta 90.000000
_cell_angle_gamma 90.000000
_cell_volume 3854.174198
_symmetry_space_group_name_H-M "C C C M"
_symmetry_group_IT_number 66
_symmetry_cell_setting 'orthorhombic'
loop_
_space_group_symop_operation_xyz
x,y,z
-x,-y,z
x,-y,1/2-z
-x,y,1/2-z
-x,-y,-z
x,y,-z
-x,y,1/2+z
x,-y,1/2+z
1/2+x,1/2+y,z
1/2-x,1/2-y,z
1/2+x,1/2-y,1/2-z
1/2-x,1/2+y,1/2-z
1/2-x,1/2-y,-z
1/2+x,1/2+y,-z
1/2-x,1/2+y,1/2+z
1/2+x,1/2-y,1/2+z
loop_
_atom_site_type_symbol
_atom_site_label
_atom_site_fract_x
_atom_site_fract_y
_atom_site_fract_z
Si Si1 0.314340 0.097275 0.354187
Si Si2 0.000000 0.500000 0.572618
Si Si3 0.014969 0.150490 0.864434
Si Si4 0.951722 0.297782 0.702603
Si Si5 0.307183 0.557933 0.294634
Si Si6 0.276494 0.360859 0.949517
O O1 0.404599 0.143797 0.313492
O O2 0.164508 0.149737 0.369895
O O3 0.414724 0.074125 0.396992
O O4 0.271815 0.000683 0.333382
O O5 0.866456 0.432860 0.552033
O O6 0.074351 0.244442 0.844147
O O7 0.042446 0.091814 0.819066
O O8 0.108558 0.119304 0.907955
O O9 0.805726 0.358036 0.713193
O O10 0.000000 0.250761 0.750000
O O11 0.323646 0.500000 0.250000
O O12 0.250000 0.250000 0.945739
O O13 0.343257 0.372915 0.000000
#
# Coordination Sequence:
#
# PCOD9499927 Si02
#       6
#    16   8  16  16  16  16
#     4  12  24  42  68  99 141 181 231 281 350 416
#     4  12  23  46  77 104 138 192 231 292 367 444
#     4  12  27  44  68 103 141 181 233 302 349 419
#     4  12  25  43  65  98 139 193 238 285 346 420
#     4  12  24  42  65  93 139 191 229 282 344 419
#     4  11  25  49  78 107 141 184 237 299 372 437
#
# _framework density 22.832388000000002
#
# number of rings (size 3 to 8) (size 9 to 14) (size 15 to 20)
#    0.000    0.182    5.455    4.091    2.545    2.182 
#    0.000    2.727    0.000    4.364    0.000    0.000 
#    0.000    0.000    0.000    0.000    0.000    0.000 
#
# Total GULP energy -245394.396613 kJ/mol
# GULP energy per Si atom -5577.145378 kJ/mol
# Density = 2.278042 g / cm^3
# Si number density = 22.832388 Si / 1000 Ang^3
#
#
#
# Elastic Constant Matrix: (Units=GPa)
#
#
# Indices 1 2 3 4 5 6 
#
# 1 118.7423 18.2048 52.1880 0.0000 0.0000 0.0000
# 2 18.2048 61.7124 25.1972 0.0000 0.0000 0.0000
# 3 52.1880 25.1972 140.7870 0.0000 0.0000 0.0000
# 4 0.0000 0.0000 0.0000 24.3906 0.0000 0.0000
# 5 0.0000 0.0000 0.0000 0.0000 20.9561 0.0000
# 6 0.0000 0.0000 0.0000 0.0000 0.0000 33.0868
#
#
#
# Elastic Compliance Matrix: (Units=1/GPa)
#
#
# Indices 1 2 3 4 5 6 
#
# 1 0.010202 -0.001581 -0.003499 0.000000 0.000000 0.000000
# 2 -0.001581 0.017727 -0.002587 0.000000 0.000000 0.000000
# 3 -0.003499 -0.002587 0.008863 0.000000 0.000000 0.000000
# 4 0.000000 0.000000 0.000000 0.040999 0.000000 0.000000
# 5 0.000000 0.000000 0.000000 0.000000 0.047719 0.000000
# 6 0.000000 0.000000 0.000000 0.000000 0.000000 0.030224
#
#
# Mechanical properties :
#
#
# Convention : Reuss Voigt Hill
#
# Bulk Modulus (GPa) = 46.60108 56.93576 51.76842
# Shear Modulus (GPa) = 28.05550 30.73015 29.39282
#
# Velocity S-wave (km/s) = 3.50917 3.67263 3.59183
# Velocity P-wave (km/s) = 6.07235 6.55552 6.31855
#
# Compressibility (1/GPa) = 0.02145873
#
# Stress axis : x y z
#
# Youngs Moduli (GPa) = 98.02314 56.41219 112.83143
#
# Poissons Ratio (x) = 0.08918 0.39476
# Poissons Ratio (y) = 0.15497 0.29185
# Poissons Ratio (z) = 0.34295 0.14591
#
# Static dielectric constant tensor:
#      x y z
#    x 1.932760 0.000000 0.000000 
#    y 0.000000 2.089790 0.000000 
#    z 0.000000 0.000000 1.768270 
# 
# From -- ./inp_files/68172.got.cif
#   From: 2010.05.17/outbox.cif.g08.bks.cpg/sg66_35_cif.got.tgz:68172.got - 2010.06.03 17:51:23.
