data_PCOD9499170
_publ_section_title
;
Structure prediction by ZEFSAII (Michael W. Deem and Ramdas Pophale) SiO2 
 PCOD9499170
Probable space group: C C C M
;
_chemical_formula_sum "Si O2"
_cell_formula_units_Z 64
_cell_length_a 19.932044
_cell_length_b 5.692144
_cell_length_c 27.727743
_cell_angle_alpha 90.000000
_cell_angle_beta 90.000000
_cell_angle_gamma 90.000000
_cell_volume 3145.880603
_symmetry_space_group_name_H-M "C C C M"
_symmetry_group_IT_number 66
_symmetry_cell_setting 'orthorhombic'
loop_
_space_group_symop_operation_xyz
x,y,z
-x,-y,z
x,-y,1/2-z
-x,y,1/2-z
-x,-y,-z
x,y,-z
-x,y,1/2+z
x,-y,1/2+z
1/2+x,1/2+y,z
1/2-x,1/2-y,z
1/2+x,1/2-y,1/2-z
1/2-x,1/2+y,1/2-z
1/2-x,1/2-y,-z
1/2+x,1/2+y,-z
1/2-x,1/2+y,1/2+z
1/2+x,1/2-y,1/2+z
loop_
_atom_site_type_symbol
_atom_site_label
_atom_site_fract_x
_atom_site_fract_y
_atom_site_fract_z
Si Si1 0.207921 0.000000 0.750000
Si Si2 0.422495 0.049284 0.906203
Si Si3 0.538906 0.743600 0.000000
Si Si4 0.174157 0.852107 0.055105
Si Si5 0.325963 0.662022 0.650745
O O1 0.250000 0.250000 0.744412
O O2 0.164608 0.029771 0.798737
O O3 0.424984 0.243357 0.948630
O O4 0.379502 0.134892 0.860662
O O5 0.500000 0.000000 0.893507
O O6 0.382614 0.839994 0.932538
O O7 0.500000 0.500000 0.000000
O O8 0.500000 0.000000 0.000000
O O9 0.250000 0.750000 0.054403
O O10 0.173390 0.011096 0.102349
O O11 0.163806 0.940305 0.000000
O O12 0.250000 0.750000 0.654018
#
# Coordination Sequence:
#
# PCOD9499170 Si02
#       5
#     8  16   8  16  16
#     4  10  24  46  76 107 131 180 244 296 346 420
#     4  11  25  40  64 101 141 188 230 284 347 424
#     4  10  24  42  60  94 140 192 231 264 329 422
#     4  11  23  39  63 101 145 180 231 290 354 412
#     4  11  24  41  70 102 134 182 235 296 348 418
#
# _framework density 20.344066000000002
#
# number of rings (size 3 to 8) (size 9 to 14) (size 15 to 20)
#    0.000    1.250    3.750    0.750   12.250    0.500 
#    0.000    0.000    0.000    4.500    0.000    0.000 
#    0.000    0.000    0.000    0.000    0.000    0.000 
#
# Total GULP energy -178302.084126 kJ/mol
# GULP energy per Si atom -5571.940129 kJ/mol
# Density = 2.029776 g / cm^3
# Si number density = 20.344066 Si / 1000 Ang^3
#
#
#
# Elastic Constant Matrix: (Units=GPa)
#
#
# Indices 1 2 3 4 5 6 
#
# 1 133.7387 23.0180 47.0934 0.0000 0.0000 0.0000
# 2 23.0180 56.5502 42.0724 0.0000 0.0000 0.0000
# 3 47.0934 42.0724 185.0483 0.0000 0.0000 0.0000
# 4 0.0000 0.0000 0.0000 20.9727 0.0000 0.0000
# 5 0.0000 0.0000 0.0000 0.0000 6.8013 0.0000
# 6 0.0000 0.0000 0.0000 0.0000 0.0000 33.3065
#
#
#
# Elastic Compliance Matrix: (Units=1/GPa)
#
#
# Indices 1 2 3 4 5 6 
#
# 1 0.008437 -0.002211 -0.001645 0.000000 0.000000 0.000000
# 2 -0.002211 0.021863 -0.004408 0.000000 0.000000 0.000000
# 3 -0.001645 -0.004408 0.006825 0.000000 0.000000 0.000000
# 4 0.000000 0.000000 0.000000 0.047681 0.000000 0.000000
# 5 0.000000 0.000000 0.000000 0.000000 0.147030 0.000000
# 6 0.000000 0.000000 0.000000 0.000000 0.000000 0.030024
#
#
# Mechanical properties :
#
#
# Convention : Reuss Voigt Hill
#
# Bulk Modulus (GPa) = 48.54874 66.63387 57.59130
# Shear Modulus (GPa) = 17.52838 29.75966 23.64402
#
# Velocity S-wave (km/s) = 2.93848 3.82883 3.41281
# Velocity P-wave (km/s) = 5.95219 7.23679 6.62570
#
# Compressibility (1/GPa) = 0.02059786
#
# Stress axis : x y z
#
# Youngs Moduli (GPa) = 118.52808 45.73989 146.52584
#
# Poissons Ratio (x) = 0.10111 0.24096
# Poissons Ratio (y) = 0.26202 0.64590
# Poissons Ratio (z) = 0.19492 0.20163
#
# Static dielectric constant tensor:
#      x y z
#    x 1.649790 0.000000 0.000000 
#    y 0.000000 1.958630 0.000000 
#    z 0.000000 0.000000 1.796270 
# 
# From -- ./inp_files/65490.got.cif
#   From: 2010.05.17/outbox.cif.g08.bks.cpg/sg66_33_cif.got.tgz:65490.got - 2010.06.03 17:51:23.
