data_PCOD9499173
_publ_section_title
;
Structure prediction by ZEFSAII (Michael W. Deem and Ramdas Pophale) SiO2 
 PCOD9499173
Probable space group: C C C M
;
_chemical_formula_sum "Si O2"
_cell_formula_units_Z 112
_cell_length_a 25.399160
_cell_length_b 14.808083
_cell_length_c 15.445271
_cell_angle_alpha 90.000000
_cell_angle_beta 90.000000
_cell_angle_gamma 90.000000
_cell_volume 5809.165195
_symmetry_space_group_name_H-M "C C C M"
_symmetry_group_IT_number 66
_symmetry_cell_setting 'orthorhombic'
loop_
_space_group_symop_operation_xyz
x,y,z
-x,-y,z
x,-y,1/2-z
-x,y,1/2-z
-x,-y,-z
x,y,-z
-x,y,1/2+z
x,-y,1/2+z
1/2+x,1/2+y,z
1/2-x,1/2-y,z
1/2+x,1/2-y,1/2-z
1/2-x,1/2+y,1/2-z
1/2-x,1/2-y,-z
1/2+x,1/2+y,-z
1/2-x,1/2+y,1/2+z
1/2+x,1/2-y,1/2+z
loop_
_atom_site_type_symbol
_atom_site_label
_atom_site_fract_x
_atom_site_fract_y
_atom_site_fract_z
Si Si1 0.877085 0.166637 0.600844
Si Si2 0.106096 0.834195 0.903865
Si Si3 0.703125 0.974844 0.095817
Si Si4 0.303369 0.798217 0.293047
Si Si5 0.672721 0.833929 0.401956
Si Si6 0.493944 0.396477 0.853438
Si Si7 0.683327 0.483998 0.848894
O O1 0.870477 0.193689 0.500000
O O2 0.851085 0.238825 0.666959
O O3 0.938463 0.146492 0.620196
O O4 0.847629 0.070959 0.615558
O O5 0.122324 0.730557 0.899195
O O6 0.144638 0.897882 0.848558
O O7 0.045130 0.845449 0.886536
O O8 0.117978 0.868529 0.000000
O O9 0.695672 0.898038 0.166469
O O10 0.663997 0.059211 0.103967
O O11 0.760968 0.021296 0.103032
O O12 0.698616 0.933952 0.000000
O O13 0.250000 0.750000 0.323736
O O14 0.300237 0.806322 0.188731
O O15 0.696139 0.818258 0.500000
O O16 0.500000 0.500000 0.884731
O O17 0.500000 0.398246 0.750000
O O18 0.697872 0.500000 0.750000
#
# Coordination Sequence:
#
# PCOD9499173 Si02
#       7
#    16  16  16  16  16  16  16
#     4  12  25  39  60  91 127 167 209 253 311 375
#     4  11  23  38  59  85 119 158 202 252 303 360
#     4  11  24  41  62  88 123 164 209 256 308 369
#     4  12  24  40  63  88 125 164 207 256 311 368
#     4  10  24  42  61  89 121 163 211 258 309 367
#     4  11  22  38  61  88 122 162 205 253 309 367
#     4  12  22  35  55  86 123 163 205 249 303 362
#
# _framework density 19.279878
#
# number of rings (size 3 to 8) (size 9 to 14) (size 15 to 20)
#    0.000    0.714    2.857    6.000    2.000    1.429 
#    0.000    0.000    0.000    0.857    0.000    7.000 
#    0.000    0.000    0.000    0.000    0.000    0.000 
#
# Total GULP energy -312648.598730 kJ/mol
# GULP energy per Si atom -5583.010692 kJ/mol
# Density = 1.923600 g / cm^3
# Si number density = 19.279878 Si / 1000 Ang^3
#
#
#
# Elastic Constant Matrix: (Units=GPa)
#
#
# Indices 1 2 3 4 5 6 
#
# 1 86.2888 66.1115 23.8563 0.0000 0.0000 0.0000
# 2 66.1115 112.0333 35.6500 0.0000 0.0000 0.0000
# 3 23.8563 35.6500 121.1224 0.0000 0.0000 0.0000
# 4 0.0000 0.0000 0.0000 35.0193 0.0000 0.0000
# 5 0.0000 0.0000 0.0000 0.0000 20.5298 0.0000
# 6 0.0000 0.0000 0.0000 0.0000 0.0000 20.4561
#
#
#
# Elastic Compliance Matrix: (Units=1/GPa)
#
#
# Indices 1 2 3 4 5 6 
#
# 1 0.021185 -0.012328 -0.000544 0.000000 0.000000 0.000000
# 2 -0.012328 0.017022 -0.002582 0.000000 0.000000 0.000000
# 3 -0.000544 -0.002582 0.009123 0.000000 0.000000 0.000000
# 4 0.000000 0.000000 0.000000 0.028556 0.000000 0.000000
# 5 0.000000 0.000000 0.000000 0.000000 0.048710 0.000000
# 6 0.000000 0.000000 0.000000 0.000000 0.000000 0.048885
#
#
# Mechanical properties :
#
#
# Convention : Reuss Voigt Hill
#
# Bulk Modulus (GPa) = 60.89383 63.40890 62.15136
# Shear Modulus (GPa) = 23.82502 28.12283 25.97392
#
# Velocity S-wave (km/s) = 3.51913 3.82339 3.67441
# Velocity P-wave (km/s) = 6.94011 7.24231 7.09282
#
# Compressibility (1/GPa) = 0.01642202
#
# Stress axis : x y z
#
# Youngs Moduli (GPa) = 47.20368 58.74594 109.61011
#
# Poissons Ratio (x) = 0.72423 0.05963
# Poissons Ratio (y) = 0.58193 0.28302
# Poissons Ratio (z) = 0.02568 0.15169
#
# Static dielectric constant tensor:
#      x y z
#    x 1.911660 0.000000 0.000000 
#    y 0.000000 1.672630 0.000000 
#    z 0.000000 0.000000 1.728890 
# 
# From -- ./inp_files/32484.got.cif
#   From: 2010.05.17/outbox.cif.g08.bks.cpg/sg66_17_cif.got.tgz:32484.got - 2010.06.03 17:51:23.
