data_PCOD9499003
_publ_section_title
;
Structure prediction by ZEFSAII (Michael W. Deem and Ramdas Pophale) SiO2 
 PCOD9499003
Probable space group: C C C M
;
_chemical_formula_sum "Si O2"
_cell_formula_units_Z 80
_cell_length_a 14.555619
_cell_length_b 13.536136
_cell_length_c 18.770429
_cell_angle_alpha 90.000000
_cell_angle_beta 90.000000
_cell_angle_gamma 90.000000
_cell_volume 3698.278280
_symmetry_space_group_name_H-M "C C C M"
_symmetry_group_IT_number 66
_symmetry_cell_setting 'orthorhombic'
loop_
_space_group_symop_operation_xyz
x,y,z
-x,-y,z
x,-y,1/2-z
-x,y,1/2-z
-x,-y,-z
x,y,-z
-x,y,1/2+z
x,-y,1/2+z
1/2+x,1/2+y,z
1/2-x,1/2-y,z
1/2+x,1/2-y,1/2-z
1/2-x,1/2+y,1/2-z
1/2-x,1/2-y,-z
1/2+x,1/2+y,-z
1/2-x,1/2+y,1/2+z
1/2+x,1/2-y,1/2+z
loop_
_atom_site_type_symbol
_atom_site_label
_atom_site_fract_x
_atom_site_fract_y
_atom_site_fract_z
Si Si1 0.369287 0.827413 0.222945
Si Si2 0.025985 0.113279 0.419573
Si Si3 0.835884 0.106297 0.789416
Si Si4 0.967572 0.607464 0.862801
Si Si5 0.350844 0.734704 0.580438
O O1 0.272903 0.875747 0.201932
O O2 0.363745 0.712216 0.246200
O O3 0.440083 0.833640 0.157587
O O4 0.410129 0.888743 0.289001
O O5 0.046534 0.153031 0.500000
O O6 0.108995 0.112354 0.363552
O O7 0.932093 0.164516 0.391419
O O8 0.000000 0.000000 0.427263
O O9 0.852787 0.000000 0.750000
O O10 0.901619 0.660318 0.918006
O O11 0.000000 0.500000 0.883008
O O12 0.333669 0.698217 0.500000
O O13 0.250000 0.750000 0.614268
#
# Coordination Sequence:
#
# PCOD9499003 Si02
#       5
#    16  16  16  16  16
#     4  10  23  40  60  98 134 169 212 274 337 391
#     4  10  23  43  66  95 132 172 217 276 335 395
#     4  11  23  39  67 100 133 172 222 272 337 405
#     4  11  22  40  63  88 130 174 214 271 334 398
#     4  10  23  43  66  94 129 173 225 277 333 402
#
# _framework density 21.631688
#
# number of rings (size 3 to 8) (size 9 to 14) (size 15 to 20)
#    0.000    1.600    2.000    2.400    5.600    2.400 
#    0.000    3.000    0.000    0.000    0.000    0.000 
#    0.000    0.000    0.000    0.000    0.000    0.000 
#
# Total GULP energy -222951.304984 kJ/mol
# GULP energy per Si atom -5573.782625 kJ/mol
# Density = 2.158245 g / cm^3
# Si number density = 21.631688 Si / 1000 Ang^3
#
#
#
# Elastic Constant Matrix: (Units=GPa)
#
#
# Indices 1 2 3 4 5 6 
#
# 1 166.2008 58.7136 59.9694 0.0000 0.0000 0.0000
# 2 58.7136 135.5434 14.2707 0.0000 0.0000 0.0000
# 3 59.9694 14.2707 90.0998 0.0000 0.0000 0.0000
# 4 0.0000 0.0000 0.0000 37.6484 0.0000 0.0000
# 5 0.0000 0.0000 0.0000 0.0000 18.2968 0.0000
# 6 0.0000 0.0000 0.0000 0.0000 0.0000 31.5587
#
#
#
# Elastic Compliance Matrix: (Units=1/GPa)
#
#
# Indices 1 2 3 4 5 6 
#
# 1 0.009250 -0.003415 -0.005615 0.000000 0.000000 0.000000
# 2 -0.003415 0.008764 0.000885 0.000000 0.000000 0.000000
# 3 -0.005615 0.000885 0.014696 0.000000 0.000000 0.000000
# 4 0.000000 0.000000 0.000000 0.026562 0.000000 0.000000
# 5 0.000000 0.000000 0.000000 0.000000 0.054654 0.000000
# 6 0.000000 0.000000 0.000000 0.000000 0.000000 0.031687
#
#
# Mechanical properties :
#
#
# Convention : Reuss Voigt Hill
#
# Bulk Modulus (GPa) = 60.90757 73.08347 66.99552
# Shear Modulus (GPa) = 29.87271 34.76013 32.31642
#
# Velocity S-wave (km/s) = 3.72017 4.01297 3.86934
# Velocity P-wave (km/s) = 6.83159 7.43846 7.14148
#
# Compressibility (1/GPa) = 0.01641832
#
# Stress axis : x y z
#
# Youngs Moduli (GPa) = 108.11289 114.10329 68.04481
#
# Poissons Ratio (x) = 0.38971 0.38210
# Poissons Ratio (y) = 0.36925 -0.06023
# Poissons Ratio (z) = 0.60710 -0.10100
#
# Static dielectric constant tensor:
#      x y z
#    x 1.784410 0.000000 0.000000 
#    y 0.000000 1.840240 0.000000 
#    z 0.000000 0.000000 1.888850 
# 
# From -- ./inp_files/49776.got.cif
#   From: 2010.05.17/outbox.cif.g08.bks.cpg/sg66_25_cif.got.tgz:49776.got - 2010.06.03 17:51:23.
