data_PCOD9499914
_publ_section_title
;
Structure prediction by ZEFSAII (Michael W. Deem and Ramdas Pophale) SiO2 
 PCOD9499914
Probable space group: C C C M
;
_chemical_formula_sum "Si O2"
_cell_formula_units_Z 40
_cell_length_a 7.103129
_cell_length_b 7.356234
_cell_length_c 28.963572
_cell_angle_alpha 90.000000
_cell_angle_beta 90.000000
_cell_angle_gamma 90.000000
_cell_volume 1513.412647
_symmetry_space_group_name_H-M "C C C M"
_symmetry_group_IT_number 66
_symmetry_cell_setting 'orthorhombic'
loop_
_space_group_symop_operation_xyz
x,y,z
-x,-y,z
x,-y,1/2-z
-x,y,1/2-z
-x,-y,-z
x,y,-z
-x,y,1/2+z
x,-y,1/2+z
1/2+x,1/2+y,z
1/2-x,1/2-y,z
1/2+x,1/2-y,1/2-z
1/2-x,1/2+y,1/2-z
1/2-x,1/2-y,-z
1/2+x,1/2+y,-z
1/2-x,1/2+y,1/2+z
1/2+x,1/2-y,1/2+z
loop_
_atom_site_type_symbol
_atom_site_label
_atom_site_fract_x
_atom_site_fract_y
_atom_site_fract_z
Si Si1 0.500000 0.500000 0.000000
Si Si2 0.474020 0.289655 0.180871
Si Si3 0.000000 0.500000 0.250000
Si Si4 0.472502 0.211512 0.925151
O O1 0.562575 0.353657 0.959735
O O2 0.500000 0.500000 0.192386
O O3 0.250000 0.250000 0.185860
O O4 0.580210 0.145839 0.213368
O O5 0.525213 0.252070 0.127717
O O6 0.250000 0.250000 0.930991
O O7 0.500000 0.000000 0.935850
#
# Coordination Sequence:
#
# PCOD9499914 Si02
#       4
#     4  16   4  16
#     4  12  24  46  76 102 140 198 236 306 362 444
#     4  11  26  48  72 107 149 193 246 307 369 440
#     4  12  26  44  78 104 148 200 242 310 364 452
#     4  11  25  47  70 105 144 187 243 303 363 437
#
# _framework density 26.430330999999999
#
# number of rings (size 3 to 8) (size 9 to 14) (size 15 to 20)
#    0.000    0.800    4.000    1.800    5.600    3.200 
#    0.000    0.000    0.000    0.000    0.000    0.000 
#    0.000    0.000    0.000    0.000    0.000    0.000 
#
# Total GULP energy -111578.490969 kJ/mol
# GULP energy per Si atom -5578.924548 kJ/mol
# Density = 2.637017 g / cm^3
# Si number density = 26.430331 Si / 1000 Ang^3
#
#
#
# Elastic Constant Matrix: (Units=GPa)
#
#
# Indices 1 2 3 4 5 6 
#
# 1 114.9508 51.0230 -1.9066 0.0000 0.0000 0.0000
# 2 51.0230 364.1451 113.5882 0.0000 0.0000 0.0000
# 3 -1.9066 113.5882 223.6082 0.0000 0.0000 0.0000
# 4 0.0000 0.0000 0.0000 77.5758 0.0000 0.0000
# 5 0.0000 0.0000 0.0000 0.0000 -12.3440 0.0000
# 6 0.0000 0.0000 0.0000 0.0000 0.0000 52.4794
#
#
#
# Elastic Compliance Matrix: (Units=1/GPa)
#
#
# Indices 1 2 3 4 5 6 
#
# 1 0.009424 -0.001599 0.000893 0.000000 0.000000 0.000000
# 2 -0.001599 0.003534 -0.001809 0.000000 0.000000 0.000000
# 3 0.000893 -0.001809 0.005399 0.000000 0.000000 0.000000
# 4 0.000000 0.000000 0.000000 0.012891 0.000000 0.000000
# 5 0.000000 0.000000 0.000000 0.000000 -0.081011 0.000000
# 6 0.000000 0.000000 0.000000 0.000000 0.000000 0.019055
#
#
# Mechanical properties :
#
#
# Convention : Reuss Voigt Hill
#
# Bulk Modulus (GPa) = 75.03989 114.23483 94.63736
# Shear Modulus (GPa) = -235.45868 59.54220 -87.95824
#
# Velocity S-wave (km/s) = -9.44881 4.75151 -5.77508
# Velocity P-wave (km/s) = 9.51770 8.56840 2.92995
#
# Compressibility (1/GPa) = 0.01332625
#
# Stress axis : x y z
#
# Youngs Moduli (GPa) = 106.11369 282.92600 185.23006
#
# Poissons Ratio (x) = 0.45236 -0.16532
# Poissons Ratio (y) = 0.16966 0.33510
# Poissons Ratio (z) = -0.09471 0.51184
#
# Static dielectric constant tensor:
#      x y z
#    x 2.340860 0.000000 0.000000 
#    y 0.000000 1.874800 0.000000 
#    z 0.000000 0.000000 2.023600 
# 
# From -- ./inp_files/63101.got.cif
#   From: 2010.05.17/outbox.cif.g08.bks.cpg/sg66_32_cif.got.tgz:63101.got - 2010.06.03 17:51:23.
