data_PCOD9499375
_publ_section_title
;
Structure prediction by ZEFSAII (Michael W. Deem and Ramdas Pophale) SiO2 
 PCOD9499375
Probable space group: C C C M
;
_chemical_formula_sum "Si O2"
_cell_formula_units_Z 120
_cell_length_a 27.195803
_cell_length_b 17.150738
_cell_length_c 15.430205
_cell_angle_alpha 90.000000
_cell_angle_beta 90.000000
_cell_angle_gamma 90.000000
_cell_volume 7197.081077
_symmetry_space_group_name_H-M "C C C M"
_symmetry_group_IT_number 66
_symmetry_cell_setting 'orthorhombic'
loop_
_space_group_symop_operation_xyz
x,y,z
-x,-y,z
x,-y,1/2-z
-x,y,1/2-z
-x,-y,-z
x,y,-z
-x,y,1/2+z
x,-y,1/2+z
1/2+x,1/2+y,z
1/2-x,1/2-y,z
1/2+x,1/2-y,1/2-z
1/2-x,1/2+y,1/2-z
1/2-x,1/2-y,-z
1/2+x,1/2+y,-z
1/2-x,1/2+y,1/2+z
1/2+x,1/2-y,1/2+z
loop_
_atom_site_type_symbol
_atom_site_label
_atom_site_fract_x
_atom_site_fract_y
_atom_site_fract_z
Si Si1 0.875323 0.635430 0.594832
Si Si2 0.194338 0.505470 0.354176
Si Si3 0.870058 0.346055 0.399141
Si Si4 0.804302 0.779831 0.623744
Si Si5 0.302251 0.710803 0.668336
Si Si6 0.442095 0.093776 0.753978
Si Si7 0.331550 0.424354 0.500000
Si Si8 0.192676 0.027072 0.850073
O O1 0.898515 0.629302 0.500000
O O2 0.836768 0.564820 0.606631
O O3 0.844042 0.713902 0.601867
O O4 0.914375 0.628781 0.671159
O O5 0.190416 0.500000 0.250000
O O6 0.170892 0.586528 0.384245
O O7 0.251694 0.500239 0.375848
O O8 0.883106 0.343287 0.500000
O O9 0.845253 0.265655 0.368361
O O10 0.915400 0.371723 0.338565
O O11 0.750000 0.750000 0.599389
O O12 0.804013 0.789187 0.727305
O O13 0.817885 0.858358 0.574899
O O14 0.250000 0.750000 0.642393
O O15 0.306574 0.620685 0.642850
O O16 0.500000 0.109374 0.750000
O O17 0.434862 0.000000 0.750000
O O18 0.341334 0.488573 0.577886
O O19 0.184226 0.000000 0.750000
#
# Coordination Sequence:
#
# PCOD9499375 Si02
#       8
#    16  16  16  16  16  16   8  16
#     4  12  22  35  60  86 112 153 201 241 291 344
#     4  11  20  35  51  77 115 159 204 236 274 335
#     4  12  23  37  58  82 115 154 202 235 282 351
#     4  11  22  35  55  83 116 153 200 246 281 334
#     4  11  22  39  53  78 117 161 200 239 281 335
#     4  11  24  43  60  82 117 152 193 249 300 343
#     4  12  23  36  51  80 114 154 199 236 296 332
#     4  11  24  35  51  77 117 162 201 242 281 335
#
# _framework density 16.673427
#
# number of rings (size 3 to 8) (size 9 to 14) (size 15 to 20)
#    0.000    0.667    7.333    1.400    8.400    0.800 
#    0.000    1.333    0.000    0.000    0.000    0.000 
#    0.000    5.867    0.000    0.000    0.000    0.000 
#
# Total GULP energy -334235.456764 kJ/mol
# GULP energy per Si atom -5570.590946 kJ/mol
# Density = 1.663548 g / cm^3
# Si number density = 16.673427 Si / 1000 Ang^3
#
#
#
# Elastic Constant Matrix: (Units=GPa)
#
#
# Indices 1 2 3 4 5 6 
#
# 1 69.4961 22.9305 37.9023 0.0000 0.0000 0.0000
# 2 22.9305 126.1540 35.9607 0.0000 0.0000 0.0000
# 3 37.9023 35.9607 121.3897 0.0000 0.0000 0.0000
# 4 0.0000 0.0000 0.0000 3.9966 0.0000 0.0000
# 5 0.0000 0.0000 0.0000 0.0000 -4.9642 0.0000
# 6 0.0000 0.0000 0.0000 0.0000 0.0000 13.7282
#
#
#
# Elastic Compliance Matrix: (Units=1/GPa)
#
#
# Indices 1 2 3 4 5 6 
#
# 1 0.017707 -0.001794 -0.004997 0.000000 0.000000 0.000000
# 2 -0.001794 0.008840 -0.002059 0.000000 0.000000 0.000000
# 3 -0.004997 -0.002059 0.010408 0.000000 0.000000 0.000000
# 4 0.000000 0.000000 0.000000 0.250214 0.000000 0.000000
# 5 0.000000 0.000000 0.000000 0.000000 -0.201441 0.000000
# 6 0.000000 0.000000 0.000000 0.000000 0.000000 0.072843
#
#
# Mechanical properties :
#
#
# Convention : Reuss Voigt Hill
#
# Bulk Modulus (GPa) = 51.93471 56.73631 54.33551
# Shear Modulus (GPa) = 27.36905 17.23520 22.30212
#
# Velocity S-wave (km/s) = 4.05591 3.21860 3.66127
# Velocity P-wave (km/s) = 7.29038 6.92202 7.10859
#
# Compressibility (1/GPa) = 0.01925494
#
# Stress axis : x y z
#
# Youngs Moduli (GPa) = 56.47597 113.12603 96.07938
#
# Poissons Ratio (x) = 0.20295 0.48013
# Poissons Ratio (y) = 0.10132 0.19778
# Poissons Ratio (z) = 0.28222 0.23287
#
# Static dielectric constant tensor:
#      x y z
#    x 1.541030 0.000000 0.000000 
#    y 0.000000 1.572440 0.000000 
#    z 0.000000 0.000000 1.606580 
# 
# From -- ./inp_files/34018.got.cif
#   From: 2010.05.17/outbox.cif.g08.bks.cpg/sg66_18_cif.got.tgz:34018.got - 2010.06.03 17:51:23.
