data_PCOD9499216
_publ_section_title
;
Structure prediction by ZEFSAII (Michael W. Deem and Ramdas Pophale) SiO2 
 PCOD9499216
Probable space group: C C C M
;
_chemical_formula_sum "Si O2"
_cell_formula_units_Z 68
_cell_length_a 12.222295
_cell_length_b 8.506300
_cell_length_c 29.853392
_cell_angle_alpha 90.000000
_cell_angle_beta 90.000000
_cell_angle_gamma 90.000000
_cell_volume 3103.752917
_symmetry_space_group_name_H-M "C C C M"
_symmetry_group_IT_number 66
_symmetry_cell_setting 'orthorhombic'
loop_
_space_group_symop_operation_xyz
x,y,z
-x,-y,z
x,-y,1/2-z
-x,y,1/2-z
-x,-y,-z
x,y,-z
-x,y,1/2+z
x,-y,1/2+z
1/2+x,1/2+y,z
1/2-x,1/2-y,z
1/2+x,1/2-y,1/2-z
1/2-x,1/2+y,1/2-z
1/2-x,1/2-y,-z
1/2+x,1/2+y,-z
1/2-x,1/2+y,1/2+z
1/2+x,1/2-y,1/2+z
loop_
_atom_site_type_symbol
_atom_site_label
_atom_site_fract_x
_atom_site_fract_y
_atom_site_fract_z
Si Si1 0.406146 0.865277 0.000000
Si Si2 0.000000 0.000000 0.750000
Si Si3 0.308782 0.420217 0.000000
Si Si4 0.699456 0.423604 0.598930
Si Si5 0.413322 0.861650 0.905156
Si Si6 0.137404 0.147980 0.673045
O O1 0.419517 0.777315 0.953297
O O2 0.500000 0.000000 0.000000
O O3 0.288773 0.950804 0.000000
O O4 0.076160 0.107838 0.718500
O O5 0.250000 0.250000 0.000000
O O6 0.359866 0.426486 0.050121
O O7 0.750000 0.250000 0.603917
O O8 0.796487 0.552666 0.595472
O O9 0.646880 0.484484 0.644932
O O10 0.427995 0.754246 0.862530
O O11 0.500000 0.000000 0.904400
O O12 0.250000 0.250000 0.680399
#
# Coordination Sequence:
#
# PCOD9499216 Si02
#       6
#     8   4   8  16  16  16
#     4   8  14  27  51  84 125 159 192 238 280 368
#     4  12  28  48  70  88 128 156 218 292 332 368
#     4   8  14  27  49  88 123 163 197 231 299 365
#     4   9  18  33  60  88 127 163 199 249 303 378
#     4   9  18  34  58  90 123 161 201 238 306 375
#     4  10  24  45  64  92 119 159 213 262 327 384
#
# _framework density 21.908958999999999
#
# number of rings (size 3 to 8) (size 9 to 14) (size 15 to 20)
#    0.000    2.824    0.000    0.000    3.294    1.882 
#    4.235    4.706    0.000    1.412    0.000    0.000 
#    0.000    0.000    0.000    0.000    0.000    0.000 
#
# Total GULP energy -189524.597184 kJ/mol
# GULP energy per Si atom -5574.252858 kJ/mol
# Density = 2.185909 g / cm^3
# Si number density = 21.908959 Si / 1000 Ang^3
#
#
#
# Elastic Constant Matrix: (Units=GPa)
#
#
# Indices 1 2 3 4 5 6 
#
# 1 55.0430 22.3378 51.8666 0.0000 0.0000 0.0000
# 2 22.3378 122.6236 71.5657 0.0000 0.0000 0.0000
# 3 51.8666 71.5657 225.9957 0.0000 0.0000 0.0000
# 4 0.0000 0.0000 0.0000 40.5596 0.0000 0.0000
# 5 0.0000 0.0000 0.0000 0.0000 11.6921 0.0000
# 6 0.0000 0.0000 0.0000 0.0000 0.0000 33.9679
#
#
#
# Elastic Compliance Matrix: (Units=1/GPa)
#
#
# Indices 1 2 3 4 5 6 
#
# 1 0.023370 -0.001382 -0.004926 0.000000 0.000000 0.000000
# 2 -0.001382 0.010086 -0.002877 0.000000 0.000000 0.000000
# 3 -0.004926 -0.002877 0.006466 0.000000 0.000000 0.000000
# 4 0.000000 0.000000 0.000000 0.024655 0.000000 0.000000
# 5 0.000000 0.000000 0.000000 0.000000 0.085528 0.000000
# 6 0.000000 0.000000 0.000000 0.000000 0.000000 0.029440
#
#
# Mechanical properties :
#
#
# Convention : Reuss Voigt Hill
#
# Bulk Modulus (GPa) = 46.39817 77.24474 61.82145
# Shear Modulus (GPa) = 24.37862 34.43676 29.40769
#
# Velocity S-wave (km/s) = 3.33937 3.96891 3.66767
# Velocity P-wave (km/s) = 6.00768 7.50578 6.79812
#
# Compressibility (1/GPa) = 0.02155258
#
# Stress axis : x y z
#
# Youngs Moduli (GPa) = 42.78970 99.15041 154.64946
#
# Poissons Ratio (x) = 0.13707 0.76176
# Poissons Ratio (y) = 0.05916 0.44486
# Poissons Ratio (z) = 0.21077 0.28521
#
# Static dielectric constant tensor:
#      x y z
#    x 1.875260 0.000000 0.000000 
#    y 0.000000 1.804410 0.000000 
#    z 0.000000 0.000000 1.819040 
# 
# From -- ./inp_files/64261.got.cif
#   From: 2010.05.17/outbox.cif.g08.bks.cpg/sg66_33_cif.got.tgz:64261.got - 2010.06.03 17:51:23.
