data_PCOD9499129
_publ_section_title
;
Structure prediction by ZEFSAII (Michael W. Deem and Ramdas Pophale) SiO2 
 PCOD9499129
Probable space group: C C C M
;
_chemical_formula_sum "Si O2"
_cell_formula_units_Z 64
_cell_length_a 29.595648
_cell_length_b 5.033967
_cell_length_c 20.403567
_cell_angle_alpha 90.000000
_cell_angle_beta 90.000000
_cell_angle_gamma 90.000000
_cell_volume 3039.795138
_symmetry_space_group_name_H-M "C C C M"
_symmetry_group_IT_number 66
_symmetry_cell_setting 'orthorhombic'
loop_
_space_group_symop_operation_xyz
x,y,z
-x,-y,z
x,-y,1/2-z
-x,y,1/2-z
-x,-y,-z
x,y,-z
-x,y,1/2+z
x,-y,1/2+z
1/2+x,1/2+y,z
1/2-x,1/2-y,z
1/2+x,1/2-y,1/2-z
1/2-x,1/2+y,1/2-z
1/2-x,1/2-y,-z
1/2+x,1/2+y,-z
1/2-x,1/2+y,1/2+z
1/2+x,1/2-y,1/2+z
loop_
_atom_site_type_symbol
_atom_site_label
_atom_site_fract_x
_atom_site_fract_y
_atom_site_fract_z
Si Si1 0.608308 0.052171 0.326460
Si Si2 0.250000 0.750000 0.791167
Si Si3 0.163346 0.953869 0.133778
Si Si4 0.215600 0.002508 0.000000
Si Si5 0.967716 0.752807 0.074108
O O1 0.646903 0.276990 0.331679
O O2 0.569003 0.180568 0.371152
O O3 0.596729 0.000000 0.250000
O O4 0.625661 0.776218 0.358395
O O5 0.234360 0.500000 0.750000
O O6 0.207785 0.845757 0.831833
O O7 0.181485 0.007196 0.061213
O O8 0.250000 0.250000 0.000000
O O9 0.250000 0.750000 0.000000
O O10 0.000000 0.500000 0.069896
O O11 0.948572 0.801039 0.000000
O O12 0.000000 0.000000 0.091182
#
# Coordination Sequence:
#
# PCOD9499129 Si02
#       5
#    16   8  16   8  16
#     4  12  26  45  69 105 140 178 227 284 341 416
#     4  12  24  41  66  89 132 184 222 272 338 394
#     4  12  26  43  67  98 137 180 234 285 340 405
#     4  12  26  46  66  96 130 182 242 294 344 404
#     4  10  23  45  73 103 136 176 221 273 340 412
#
# _framework density 21.054051999999999
#
# number of rings (size 3 to 8) (size 9 to 14) (size 15 to 20)
#    0.000    0.500    1.250    7.500    5.250    0.500 
#    0.000    1.250    0.000    0.000    0.000    0.000 
#    0.000    0.000    0.000    0.000    0.000    0.000 
#
# Total GULP energy -178984.761919 kJ/mol
# GULP energy per Si atom -5593.273810 kJ/mol
# Density = 2.100613 g / cm^3
# Si number density = 21.054052 Si / 1000 Ang^3
#
#
#
# Elastic Constant Matrix: (Units=GPa)
#
#
# Indices 1 2 3 4 5 6 
#
# 1 93.4308 36.1293 84.2139 0.0000 0.0000 0.0000
# 2 36.1293 151.6261 55.3811 0.0000 0.0000 0.0000
# 3 84.2139 55.3811 197.2010 0.0000 0.0000 0.0000
# 4 0.0000 0.0000 0.0000 25.1025 0.0000 0.0000
# 5 0.0000 0.0000 0.0000 0.0000 62.3201 0.0000
# 6 0.0000 0.0000 0.0000 0.0000 0.0000 47.0052
#
#
#
# Elastic Compliance Matrix: (Units=1/GPa)
#
#
# Indices 1 2 3 4 5 6 
#
# 1 0.017755 -0.001628 -0.007125 0.000000 0.000000 0.000000
# 2 -0.001628 0.007498 -0.001410 0.000000 0.000000 0.000000
# 3 -0.007125 -0.001410 0.008510 0.000000 0.000000 0.000000
# 4 0.000000 0.000000 0.000000 0.039837 0.000000 0.000000
# 5 0.000000 0.000000 0.000000 0.000000 0.016046 0.000000
# 6 0.000000 0.000000 0.000000 0.000000 0.000000 0.021274
#
#
# Mechanical properties :
#
#
# Convention : Reuss Voigt Hill
#
# Bulk Modulus (GPa) = 74.42867 88.18960 81.30914
# Shear Modulus (GPa) = 36.83910 44.65447 40.74678
#
# Velocity S-wave (km/s) = 4.18753 4.61037 4.40402
# Velocity P-wave (km/s) = 7.66867 8.38563 8.03515
#
# Compressibility (1/GPa) = 0.01343568
#
# Stress axis : x y z
#
# Youngs Moduli (GPa) = 56.32317 133.36332 117.51308
#
# Poissons Ratio (x) = 0.21715 0.83726
# Poissons Ratio (y) = 0.09171 0.16575
# Poissons Ratio (z) = 0.40129 0.18810
#
# Static dielectric constant tensor:
#      x y z
#    x 1.746370 0.000000 0.000000 
#    y 0.000000 1.720050 0.000000 
#    z 0.000000 0.000000 2.227880 
# 
# From -- ./inp_files/52782.got.cif
#   From: 2010.05.17/outbox.cif.g08.bks.cpg/sg66_27_cif.got.tgz:52782.got - 2010.06.03 17:51:23.
