data_PCOD9499169
_publ_section_title
;
Structure prediction by ZEFSAII (Michael W. Deem and Ramdas Pophale) SiO2 
 PCOD9499169
Probable space group: C C C M
;
_chemical_formula_sum "Si O2"
_cell_formula_units_Z 88
_cell_length_a 8.294291
_cell_length_b 23.242521
_cell_length_c 22.636596
_cell_angle_alpha 90.000000
_cell_angle_beta 90.000000
_cell_angle_gamma 90.000000
_cell_volume 4363.888245
_symmetry_space_group_name_H-M "C C C M"
_symmetry_group_IT_number 66
_symmetry_cell_setting 'orthorhombic'
loop_
_space_group_symop_operation_xyz
x,y,z
-x,-y,z
x,-y,1/2-z
-x,y,1/2-z
-x,-y,-z
x,y,-z
-x,y,1/2+z
x,-y,1/2+z
1/2+x,1/2+y,z
1/2-x,1/2-y,z
1/2+x,1/2-y,1/2-z
1/2-x,1/2+y,1/2-z
1/2-x,1/2-y,-z
1/2+x,1/2+y,-z
1/2-x,1/2+y,1/2+z
1/2+x,1/2-y,1/2+z
loop_
_atom_site_type_symbol
_atom_site_label
_atom_site_fract_x
_atom_site_fract_y
_atom_site_fract_z
Si Si1 0.566761 0.271382 0.684532
Si Si2 0.000000 0.601371 0.750000
Si Si3 0.948680 0.810438 0.500000
Si Si4 0.573826 0.164385 0.869607
Si Si5 0.000000 0.000000 0.647254
Si Si6 0.751406 0.500000 0.750000
Si Si7 0.947758 0.128108 0.881314
Si Si8 0.055909 0.321271 0.500000
O O1 0.500000 0.261984 0.750000
O O2 0.750000 0.250000 0.679636
O O3 0.455676 0.232490 0.641075
O O4 0.547779 0.338462 0.668867
O O5 0.007923 0.636812 0.688756
O O6 0.852301 0.557871 0.743170
O O7 0.003415 0.842853 0.558189
O O8 0.002502 0.744539 0.500000
O O9 0.752116 0.815428 0.500000
O O10 0.760518 0.144854 0.869312
O O11 0.512080 0.151059 0.936399
O O12 0.148547 0.992271 0.691432
O O13 0.028434 0.060027 0.614609
#
# Coordination Sequence:
#
# PCOD9499169 Si02
#       8
#    16   8   8  16   8   8  16   8
#     4  12  26  38  60  94 132 164 207 273 334 388
#     4  11  22  40  66  94 126 163 222 262 326 383
#     4   9  18  37  64  89 124 180 205 258 315 400
#     4  11  21  40  66  97 126 170 212 267 326 390
#     4  11  24  39  62  92 124 167 213 268 320 371
#     4  10  24  42  60  88 128 170 208 266 326 382
#     4  11  23  41  64  91 129 167 222 259 321 388
#     4   9  18  36  62  94 133 168 213 251 335 398
#
# _framework density 20.165503000000001
#
# number of rings (size 3 to 8) (size 9 to 14) (size 15 to 20)
#    0.000    1.273    4.545    1.636    5.091    0.364 
#    0.000    1.818    0.000    3.273    0.000    0.000 
#    0.000    0.000    0.000    0.000    0.000    0.000 
#
# Total GULP energy -245569.227294 kJ/mol
# GULP energy per Si atom -5581.118802 kJ/mol
# Density = 2.011961 g / cm^3
# Si number density = 20.165503 Si / 1000 Ang^3
#
#
#
# Elastic Constant Matrix: (Units=GPa)
#
#
# Indices 1 2 3 4 5 6 
#
# 1 55.5782 30.9627 13.8943 0.0000 0.0000 0.0000
# 2 30.9627 124.8141 35.7228 0.0000 0.0000 0.0000
# 3 13.8943 35.7228 136.0683 0.0000 0.0000 0.0000
# 4 0.0000 0.0000 0.0000 29.4297 0.0000 0.0000
# 5 0.0000 0.0000 0.0000 0.0000 13.1143 0.0000
# 6 0.0000 0.0000 0.0000 0.0000 0.0000 33.3730
#
#
#
# Elastic Compliance Matrix: (Units=1/GPa)
#
#
# Indices 1 2 3 4 5 6 
#
# 1 0.020966 -0.004961 -0.000838 0.000000 0.000000 0.000000
# 2 -0.004961 0.009837 -0.002076 0.000000 0.000000 0.000000
# 3 -0.000838 -0.002076 0.007980 0.000000 0.000000 0.000000
# 4 0.000000 0.000000 0.000000 0.033979 0.000000 0.000000
# 5 0.000000 0.000000 0.000000 0.000000 0.076253 0.000000
# 6 0.000000 0.000000 0.000000 0.000000 0.000000 0.029964
#
#
# Mechanical properties :
#
#
# Convention : Reuss Voigt Hill
#
# Bulk Modulus (GPa) = 43.41815 53.06889 48.24352
# Shear Modulus (GPa) = 24.70265 30.90878 27.80572
#
# Velocity S-wave (km/s) = 3.50379 3.91929 3.71735
# Velocity P-wave (km/s) = 6.16006 6.84506 6.51158
#
# Compressibility (1/GPa) = 0.02303184
#
# Stress axis : x y z
#
# Youngs Moduli (GPa) = 47.69600 101.65951 125.31544
#
# Poissons Ratio (x) = 0.50434 0.10507
# Poissons Ratio (y) = 0.23662 0.26014
# Poissons Ratio (z) = 0.03999 0.21104
#
# Static dielectric constant tensor:
#      x y z
#    x 1.738510 0.000000 0.000000 
#    y 0.000000 1.716730 0.000000 
#    z 0.000000 0.000000 1.721730 
# 
# From -- ./inp_files/47222.got.cif
#   From: 2010.05.17/outbox.cif.g08.bks.cpg/sg66_24_cif.got.tgz:47222.got - 2010.06.03 17:51:23.
