data_PCOD9499837
_publ_section_title
;
Structure prediction by ZEFSAII (Michael W. Deem and Ramdas Pophale) SiO2 
 PCOD9499837
Probable space group: C C C M
;
_chemical_formula_sum "Si O2"
_cell_formula_units_Z 36
_cell_length_a 23.616855
_cell_length_b 7.492054
_cell_length_c 9.319548
_cell_angle_alpha 90.000000
_cell_angle_beta 90.000000
_cell_angle_gamma 90.000000
_cell_volume 1648.989201
_symmetry_space_group_name_H-M "C C C M"
_symmetry_group_IT_number 66
_symmetry_cell_setting 'orthorhombic'
loop_
_space_group_symop_operation_xyz
x,y,z
-x,-y,z
x,-y,1/2-z
-x,y,1/2-z
-x,-y,-z
x,y,-z
-x,y,1/2+z
x,-y,1/2+z
1/2+x,1/2+y,z
1/2-x,1/2-y,z
1/2+x,1/2-y,1/2-z
1/2-x,1/2+y,1/2-z
1/2-x,1/2-y,-z
1/2+x,1/2+y,-z
1/2-x,1/2+y,1/2+z
1/2+x,1/2-y,1/2+z
loop_
_atom_site_type_symbol
_atom_site_label
_atom_site_fract_x
_atom_site_fract_y
_atom_site_fract_z
Si Si1 0.920170 0.172108 0.666752
Si Si2 0.314555 0.184383 0.332955
Si Si3 0.000000 0.500000 0.750000
O O1 0.912670 0.129261 0.500000
O O2 0.860584 0.203373 0.746496
O O3 0.957572 0.355017 0.676066
O O4 0.943864 0.000000 0.750000
O O5 0.331568 0.168837 0.500000
O O6 0.250000 0.250000 0.328567
O O7 0.315118 0.000000 0.250000
#
# Coordination Sequence:
#
# PCOD9499837 Si02
#       3
#    16  16   4
#     4  12  27  47  74 107 147 192 245 301 363 433
#     4  11  24  43  70 105 145 189 240 298 363 431
#     4  12  28  48  76 108 146 196 248 302 362 430
#
# _framework density 21.831555999999999
#
# number of rings (size 3 to 8) (size 9 to 14) (size 15 to 20)
#    0.000    0.444    2.222    5.333    0.000   14.222 
#    0.000    0.000    0.000    0.000    0.000    0.000 
#    0.000    0.000    0.000    0.000    0.000    0.000 
#
# Total GULP energy -100513.292716 kJ/mol
# GULP energy per Si atom -5584.071818 kJ/mol
# Density = 2.178187 g / cm^3
# Si number density = 21.831556 Si / 1000 Ang^3
#
#
#
# Elastic Constant Matrix: (Units=GPa)
#
#
# Indices 1 2 3 4 5 6 
#
# 1 134.0026 49.3964 89.1916 0.0000 0.0000 0.0000
# 2 49.3964 171.2287 89.0693 0.0000 0.0000 0.0000
# 3 89.1916 89.0693 251.4638 0.0000 0.0000 0.0000
# 4 0.0000 0.0000 0.0000 1.5274 0.0000 0.0000
# 5 0.0000 0.0000 0.0000 0.0000 151.5550 0.0000
# 6 0.0000 0.0000 0.0000 0.0000 0.0000 29.2575
#
#
#
# Elastic Compliance Matrix: (Units=1/GPa)
#
#
# Indices 1 2 3 4 5 6 
#
# 1 0.009990 -0.001273 -0.003092 0.000000 0.000000 0.000000
# 2 -0.001273 0.007322 -0.002142 0.000000 0.000000 0.000000
# 3 -0.003092 -0.002142 0.005832 0.000000 0.000000 0.000000
# 4 0.000000 0.000000 0.000000 0.654722 0.000000 0.000000
# 5 0.000000 0.000000 0.000000 0.000000 0.006598 0.000000
# 6 0.000000 0.000000 0.000000 0.000000 0.000000 0.034179
#
#
# Mechanical properties :
#
#
# Convention : Reuss Voigt Hill
#
# Bulk Modulus (GPa) = 98.72630 112.44551 105.58591
# Shear Modulus (GPa) = 6.80240 58.40383 32.60311
#
# Velocity S-wave (km/s) = 1.76709 5.17785 3.86864
# Velocity P-wave (km/s) = 7.03445 9.34690 8.27188
#
# Compressibility (1/GPa) = 0.01012901
#
# Stress axis : x y z
#
# Youngs Moduli (GPa) = 100.09779 136.58332 171.46392
#
# Poissons Ratio (x) = 0.17393 0.53023
# Poissons Ratio (y) = 0.12747 0.36722
# Poissons Ratio (z) = 0.30954 0.29251
#
# Static dielectric constant tensor:
#      x y z
#    x 2.008350 0.000000 0.000000 
#    y 0.000000 1.767000 0.000000 
#    z 0.000000 0.000000 1.730650 
# 
# From -- ./inp_files/2440.got.cif
#   From: 2010.05.17/outbox.cif.g08.bks.cpg/sg66_2_cif.got.tgz:2440.got - 2010.06.03 17:51:23.
