data_PCOD9499329
_publ_section_title
;
Structure prediction by ZEFSAII (Michael W. Deem and Ramdas Pophale) SiO2 
 PCOD9499329
Probable space group: C C C M
;
_chemical_formula_sum "Si O2"
_cell_formula_units_Z 96
_cell_length_a 13.031984
_cell_length_b 24.199395
_cell_length_c 18.449346
_cell_angle_alpha 90.000000
_cell_angle_beta 90.000000
_cell_angle_gamma 90.000000
_cell_volume 5818.298820
_symmetry_space_group_name_H-M "C C C M"
_symmetry_group_IT_number 66
_symmetry_cell_setting 'orthorhombic'
loop_
_space_group_symop_operation_xyz
x,y,z
-x,-y,z
x,-y,1/2-z
-x,y,1/2-z
-x,-y,-z
x,y,-z
-x,y,1/2+z
x,-y,1/2+z
1/2+x,1/2+y,z
1/2-x,1/2-y,z
1/2+x,1/2-y,1/2-z
1/2-x,1/2+y,1/2-z
1/2-x,1/2-y,-z
1/2+x,1/2+y,-z
1/2-x,1/2+y,1/2+z
1/2+x,1/2-y,1/2+z
loop_
_atom_site_type_symbol
_atom_site_label
_atom_site_fract_x
_atom_site_fract_y
_atom_site_fract_z
Si Si1 0.708497 0.836952 0.190081
Si Si2 0.103438 0.767638 0.914176
Si Si3 0.420504 0.275796 0.818082
Si Si4 0.710490 0.840012 0.358213
Si Si5 0.619948 0.946667 0.414379
Si Si6 0.385106 0.929213 0.411807
O O1 0.636336 0.783251 0.180482
O O2 0.827562 0.819119 0.184062
O O3 0.694199 0.852471 0.274034
O O4 0.675535 0.883281 0.132971
O O5 0.182739 0.808985 0.874724
O O6 0.129254 0.705687 0.886576
O O7 0.989892 0.782013 0.889060
O O8 0.119486 0.770279 0.000000
O O9 0.500000 0.278900 0.750000
O O10 0.697945 0.897921 0.397895
O O11 0.609169 0.952772 0.500000
O O12 0.505961 0.927916 0.390394
O O13 0.647888 0.008410 0.389745
O O14 0.375965 0.921915 0.500000
#
# Coordination Sequence:
#
# PCOD9499329 Si02
#       6
#    16  16  16  16  16  16
#     4  11  22  33  57  78 107 146 171 219 272 320
#     4  11  21  33  54  81 107 139 181 223 262 322
#     4  11  20  38  51  75 112 141 171 211 274 321
#     4  11  19  32  53  81 109 137 179 224 269 317
#     4   9  18  34  54  76 112 147 175 225 273 309
#     4   9  20  36  52  78 111 145 183 220 266 323
#
# _framework density 16.499669000000001
#
# number of rings (size 3 to 8) (size 9 to 14) (size 15 to 20)
#    0.000    1.667    3.333    5.000    0.000    3.333 
#    0.000    3.333    0.000    1.000    0.000    3.500 
#    0.000    0.000    0.000    0.000    0.000    0.000 
#
# Total GULP energy -267590.806360 kJ/mol
# GULP energy per Si atom -5574.808466 kJ/mol
# Density = 1.646212 g / cm^3
# Si number density = 16.499669 Si / 1000 Ang^3
#
#
#
# Elastic Constant Matrix: (Units=GPa)
#
#
# Indices 1 2 3 4 5 6 
#
# 1 59.5098 41.5106 26.8044 0.0000 0.0000 0.0000
# 2 41.5106 106.2221 36.1755 0.0000 0.0000 0.0000
# 3 26.8044 36.1755 76.7150 0.0000 0.0000 0.0000
# 4 0.0000 0.0000 0.0000 21.9362 0.0000 0.0000
# 5 0.0000 0.0000 0.0000 0.0000 22.6454 0.0000
# 6 0.0000 0.0000 0.0000 0.0000 0.0000 14.5334
#
#
#
# Elastic Compliance Matrix: (Units=1/GPa)
#
#
# Indices 1 2 3 4 5 6 
#
# 1 0.024512 -0.007937 -0.004822 0.000000 0.000000 0.000000
# 2 -0.007937 0.013785 -0.003727 0.000000 0.000000 0.000000
# 3 -0.004822 -0.003727 0.016478 0.000000 0.000000 0.000000
# 4 0.000000 0.000000 0.000000 0.045587 0.000000 0.000000
# 5 0.000000 0.000000 0.000000 0.000000 0.044159 0.000000
# 6 0.000000 0.000000 0.000000 0.000000 0.000000 0.068807
#
#
# Mechanical properties :
#
#
# Convention : Reuss Voigt Hill
#
# Bulk Modulus (GPa) = 45.86573 50.15867 48.01220
# Shear Modulus (GPa) = 19.71855 21.02008 20.36931
#
# Velocity S-wave (km/s) = 3.46075 3.57314 3.51740
# Velocity P-wave (km/s) = 6.62023 6.89122 6.75708
#
# Compressibility (1/GPa) = 0.02180277
#
# Stress axis : x y z
#
# Youngs Moduli (GPa) = 40.79601 72.54079 60.68797
#
# Poissons Ratio (x) = 0.57575 0.29263
# Poissons Ratio (y) = 0.32380 0.22621
# Poissons Ratio (z) = 0.19671 0.27039
#
# Static dielectric constant tensor:
#      x y z
#    x 1.558950 0.000000 0.000000 
#    y 0.000000 1.553040 0.000000 
#    z 0.000000 0.000000 1.573950 
# 
# From -- ./inp_files/38808.got.cif
#   From: 2010.05.17/outbox.cif.g08.bks.cpg/sg66_20_cif.got.tgz:38808.got - 2010.06.03 17:51:23.
