data_PCOD9499266
_publ_section_title
;
Structure prediction by ZEFSAII (Michael W. Deem and Ramdas Pophale) SiO2 
 PCOD9499266
Probable space group: C C C M
;
_chemical_formula_sum "Si O2"
_cell_formula_units_Z 56
_cell_length_a 11.562784
_cell_length_b 7.727724
_cell_length_c 28.886125
_cell_angle_alpha 90.000000
_cell_angle_beta 90.000000
_cell_angle_gamma 90.000000
_cell_volume 2581.090912
_symmetry_space_group_name_H-M "C C C M"
_symmetry_group_IT_number 66
_symmetry_cell_setting 'orthorhombic'
loop_
_space_group_symop_operation_xyz
x,y,z
-x,-y,z
x,-y,1/2-z
-x,y,1/2-z
-x,-y,-z
x,y,-z
-x,y,1/2+z
x,-y,1/2+z
1/2+x,1/2+y,z
1/2-x,1/2-y,z
1/2+x,1/2-y,1/2-z
1/2-x,1/2+y,1/2-z
1/2-x,1/2-y,-z
1/2+x,1/2+y,-z
1/2-x,1/2+y,1/2+z
1/2+x,1/2-y,1/2+z
loop_
_atom_site_type_symbol
_atom_site_label
_atom_site_fract_x
_atom_site_fract_y
_atom_site_fract_z
Si Si1 0.250000 0.750000 0.091099
Si Si2 0.115649 0.814193 0.726793
Si Si3 0.150795 0.890460 0.377272
Si Si4 0.506632 0.195800 0.946894
O O1 0.289398 0.580017 0.120438
O O2 0.358471 0.772843 0.057945
O O3 0.250000 0.750000 0.731773
O O4 0.095202 0.845125 0.672261
O O5 0.000000 0.725877 0.750000
O O6 0.119901 0.000000 0.750000
O O7 0.250000 0.750000 0.384168
O O8 0.061161 0.837091 0.417119
O O9 0.500000 0.000000 0.927575
O O10 0.466344 0.197176 0.000000
#
# Coordination Sequence:
#
# PCOD9499266 Si02
#       4
#     8  16  16  16
#     4  12  25  42  76  98 142 190 228 290 351 414
#     4  10  25  45  69 102 138 181 234 294 359 427
#     4  11  25  47  70 104 141 185 238 289 356 422
#     4  11  25  45  70 104 143 187 238 288 347 424
#
# _framework density 21.696251
#
# number of rings (size 3 to 8) (size 9 to 14) (size 15 to 20)
#    0.000    1.143    2.857    1.286   10.000    4.571 
#    0.000    0.000    0.000    0.000    0.000    0.000 
#    0.000    0.000    0.000    0.000    0.000    0.000 
#
# Total GULP energy -156035.822784 kJ/mol
# GULP energy per Si atom -5572.707957 kJ/mol
# Density = 2.164687 g / cm^3
# Si number density = 21.696251 Si / 1000 Ang^3
#
#
#
# Elastic Constant Matrix: (Units=GPa)
#
#
# Indices 1 2 3 4 5 6 
#
# 1 136.8760 53.8031 43.1180 0.0000 0.0000 0.0000
# 2 53.8031 133.8895 41.0928 0.0000 0.0000 0.0000
# 3 43.1180 41.0928 97.9050 0.0000 0.0000 0.0000
# 4 0.0000 0.0000 0.0000 -6.4452 0.0000 0.0000
# 5 0.0000 0.0000 0.0000 0.0000 -3.6400 0.0000
# 6 0.0000 0.0000 0.0000 0.0000 0.0000 35.4199
#
#
#
# Elastic Compliance Matrix: (Units=1/GPa)
#
#
# Indices 1 2 3 4 5 6 
#
# 1 0.009350 -0.002862 -0.002916 0.000000 0.000000 0.000000
# 2 -0.002862 0.009449 -0.002706 0.000000 0.000000 0.000000
# 3 -0.002916 -0.002706 0.012634 0.000000 0.000000 0.000000
# 4 0.000000 0.000000 0.000000 -0.155155 0.000000 0.000000
# 5 0.000000 0.000000 0.000000 0.000000 -0.274723 0.000000
# 6 0.000000 0.000000 0.000000 0.000000 0.000000 0.028233
#
#
# Mechanical properties :
#
#
# Convention : Reuss Voigt Hill
#
# Bulk Modulus (GPa) = 69.13306 71.63314 70.38310
# Shear Modulus (GPa) = -14.35042 20.44405 3.04682
#
# Velocity S-wave (km/s) = -2.57461 3.07300 1.18632
# Velocity P-wave (km/s) = 4.80574 6.75863 5.86405
#
# Compressibility (1/GPa) = 0.01446486
#
# Stress axis : x y z
#
# Youngs Moduli (GPa) = 106.95664 105.82747 79.15163
#
# Poissons Ratio (x) = 0.30288 0.23083
# Poissons Ratio (y) = 0.30611 0.21416
# Poissons Ratio (z) = 0.31192 0.28633
#
# Static dielectric constant tensor:
#      x y z
#    x 2.184650 0.000000 0.000000 
#    y 0.000000 1.874020 0.000000 
#    z 0.000000 0.000000 1.806140 
# 
# From -- ./inp_files/63224.got.cif
#   From: 2010.05.17/outbox.cif.g08.bks.cpg/sg66_32_cif.got.tgz:63224.got - 2010.06.03 17:51:23.
