data_PCOD9499271
_publ_section_title
;
Structure prediction by ZEFSAII (Michael W. Deem and Ramdas Pophale) SiO2 
 PCOD9499271
Probable space group: C C C M
;
_chemical_formula_sum "Si O2"
_cell_formula_units_Z 64
_cell_length_a 9.767120
_cell_length_b 10.841453
_cell_length_c 29.087865
_cell_angle_alpha 90.000000
_cell_angle_beta 90.000000
_cell_angle_gamma 90.000000
_cell_volume 3080.107405
_symmetry_space_group_name_H-M "C C C M"
_symmetry_group_IT_number 66
_symmetry_cell_setting 'orthorhombic'
loop_
_space_group_symop_operation_xyz
x,y,z
-x,-y,z
x,-y,1/2-z
-x,y,1/2-z
-x,-y,-z
x,y,-z
-x,y,1/2+z
x,-y,1/2+z
1/2+x,1/2+y,z
1/2-x,1/2-y,z
1/2+x,1/2-y,1/2-z
1/2-x,1/2+y,1/2-z
1/2-x,1/2-y,-z
1/2+x,1/2+y,-z
1/2-x,1/2+y,1/2+z
1/2+x,1/2-y,1/2+z
loop_
_atom_site_type_symbol
_atom_site_label
_atom_site_fract_x
_atom_site_fract_y
_atom_site_fract_z
Si Si1 0.468032 0.301027 0.449670
Si Si2 0.315835 0.616683 0.621741
Si Si3 0.681177 0.944851 0.448564
Si Si4 0.347838 0.371899 0.228162
O O1 0.534186 0.316038 0.500000
O O2 0.554532 0.366919 0.411101
O O3 0.438131 0.156204 0.441832
O O4 0.321574 0.366644 0.451303
O O5 0.250000 0.750000 0.622507
O O6 0.208790 0.528769 0.595534
O O7 0.356879 0.593598 0.674132
O O8 0.664973 0.001603 0.500000
O O9 0.292716 0.500000 0.250000
O O10 0.500000 0.349348 0.250000
O O11 0.250000 0.250000 0.233940
#
# Coordination Sequence:
#
# PCOD9499271 Si02
#       4
#    16  16  16  16
#     4   9  19  35  56  85 120 159 198 234 283 350
#     4  11  23  37  56  86 118 151 196 248 302 359
#     4   9  19  35  56  85 120 159 198 234 283 350
#     4  10  25  46  67  95 126 162 213 270 332 391
#
# _framework density 20.778497000000002
#
# number of rings (size 3 to 8) (size 9 to 14) (size 15 to 20)
#    0.000    2.250    0.000    3.000    7.000    7.500 
#    0.000    7.500    0.000    0.000    0.000    0.000 
#    0.000    0.000    0.000    0.000    0.000    0.000 
#
# Total GULP energy -178500.191024 kJ/mol
# GULP energy per Si atom -5578.130970 kJ/mol
# Density = 2.073120 g / cm^3
# Si number density = 20.778497 Si / 1000 Ang^3
#
#
#
# Elastic Constant Matrix: (Units=GPa)
#
#
# Indices 1 2 3 4 5 6 
#
# 1 78.2996 26.8959 51.6368 0.0000 0.0000 0.0000
# 2 26.8959 110.8651 85.4226 0.0000 0.0000 0.0000
# 3 51.6368 85.4226 197.3027 0.0000 0.0000 0.0000
# 4 0.0000 0.0000 0.0000 27.4244 0.0000 0.0000
# 5 0.0000 0.0000 0.0000 0.0000 10.6976 0.0000
# 6 0.0000 0.0000 0.0000 0.0000 0.0000 22.4533
#
#
#
# Elastic Compliance Matrix: (Units=1/GPa)
#
#
# Indices 1 2 3 4 5 6 
#
# 1 0.015502 -0.000953 -0.003645 0.000000 0.000000 0.000000
# 2 -0.000953 0.013594 -0.005636 0.000000 0.000000 0.000000
# 3 -0.003645 -0.005636 0.008462 0.000000 0.000000 0.000000
# 4 0.000000 0.000000 0.000000 0.036464 0.000000 0.000000
# 5 0.000000 0.000000 0.000000 0.000000 0.093479 0.000000
# 6 0.000000 0.000000 0.000000 0.000000 0.000000 0.044537
#
#
# Mechanical properties :
#
#
# Convention : Reuss Voigt Hill
#
# Bulk Modulus (GPa) = 58.50839 79.37532 68.94186
# Shear Modulus (GPa) = 20.99055 26.94919 23.96987
#
# Velocity S-wave (km/s) = 3.18182 3.60526 3.40014
# Velocity P-wave (km/s) = 6.45894 7.45749 6.97611
#
# Compressibility (1/GPa) = 0.01709157
#
# Stress axis : x y z
#
# Youngs Moduli (GPa) = 64.50667 73.56316 118.16955
#
# Poissons Ratio (x) = 0.07007 0.43070
# Poissons Ratio (y) = 0.06145 0.66602
# Poissons Ratio (z) = 0.23511 0.41461
#
# Static dielectric constant tensor:
#      x y z
#    x 1.853830 0.000000 0.000000 
#    y 0.000000 1.797120 0.000000 
#    z 0.000000 0.000000 1.797070 
# 
# From -- ./inp_files/67918.got.cif
#   From: 2010.05.17/outbox.cif.g08.bks.cpg/sg66_34_cif.got.tgz:67918.got - 2010.06.03 17:51:23.
