data_PCOD9499960
_publ_section_title
;
Structure prediction by ZEFSAII (Michael W. Deem and Ramdas Pophale) SiO2 
 PCOD9499960
Probable space group: C C C M
;
_chemical_formula_sum "Si O2"
_cell_formula_units_Z 100
_cell_length_a 14.676713
_cell_length_b 16.741654
_cell_length_c 20.462326
_cell_angle_alpha 90.000000
_cell_angle_beta 90.000000
_cell_angle_gamma 90.000000
_cell_volume 5027.848273
_symmetry_space_group_name_H-M "C C C M"
_symmetry_group_IT_number 66
_symmetry_cell_setting 'orthorhombic'
loop_
_space_group_symop_operation_xyz
x,y,z
-x,-y,z
x,-y,1/2-z
-x,y,1/2-z
-x,-y,-z
x,y,-z
-x,y,1/2+z
x,-y,1/2+z
1/2+x,1/2+y,z
1/2-x,1/2-y,z
1/2+x,1/2-y,1/2-z
1/2-x,1/2+y,1/2-z
1/2-x,1/2-y,-z
1/2+x,1/2+y,-z
1/2-x,1/2+y,1/2+z
1/2+x,1/2-y,1/2+z
loop_
_atom_site_type_symbol
_atom_site_label
_atom_site_fract_x
_atom_site_fract_y
_atom_site_fract_z
Si Si1 0.500000 0.712599 0.250000
Si Si2 0.210864 0.835536 0.609161
Si Si3 0.339471 0.591804 0.252783
Si Si4 0.500000 0.000000 0.250000
Si Si5 0.011737 0.688469 0.122279
Si Si6 0.564298 0.284099 0.500000
Si Si7 0.124090 0.442652 0.074085
Si Si8 0.844824 0.587290 0.668743
O O1 0.416071 0.654807 0.231331
O O2 0.524252 0.766669 0.187186
O O3 0.250000 0.750000 0.631178
O O4 0.183292 0.885649 0.672480
O O5 0.131055 0.822078 0.557531
O O6 0.294815 0.878725 0.574027
O O7 0.371753 0.500000 0.250000
O O8 0.247385 0.596128 0.209599
O O9 0.427801 0.057883 0.285428
O O10 0.116734 0.667296 0.136174
O O11 0.958190 0.604883 0.108658
O O12 0.995074 0.739931 0.058014
O O13 0.159223 0.518054 0.114474
O O14 0.099649 0.463447 0.000000
#
# Coordination Sequence:
#
# PCOD9499960 Si02
#       8
#     8  16  16   4  16   8  16  16
#     4  12  28  46  71  99 140 190 256 296 368 418
#     4  12  21  39  68 102 133 182 241 297 355 418
#     4  12  26  46  71 100 139 185 238 310 357 438
#     4  12  18  40  58  96 136 188 210 282 366 438
#     4  12  25  41  66 103 142 193 236 301 364 437
#     4  12  23  42  67 100 143 188 248 299 349 434
#     4  12  22  39  67 101 139 186 238 297 364 441
#     4  12  26  38  67 103 148 180 231 294 379 442
#
# _framework density 19.889223000000001
#
# number of rings (size 3 to 8) (size 9 to 14) (size 15 to 20)
#    0.000    0.000    8.800    0.960    5.600    0.640 
#    0.000    0.000    1.760    1.920    0.000    0.000 
#    0.000    0.000    0.000    0.000    0.000    0.000 
#
# Total GULP energy -278415.655578 kJ/mol
# GULP energy per Si atom -5568.313112 kJ/mol
# Density = 1.984395 g / cm^3
# Si number density = 19.889223 Si / 1000 Ang^3
#
#
#
# Elastic Constant Matrix: (Units=GPa)
#
#
# Indices 1 2 3 4 5 6 
#
# 1 90.8701 26.8075 42.0151 0.0000 0.0000 0.0000
# 2 26.8075 80.4591 54.6862 0.0000 0.0000 0.0000
# 3 42.0151 54.6862 163.3766 0.0000 0.0000 0.0000
# 4 0.0000 0.0000 0.0000 -15.1725 0.0000 0.0000
# 5 0.0000 0.0000 0.0000 0.0000 0.1482 0.0000
# 6 0.0000 0.0000 0.0000 0.0000 0.0000 37.6036
#
#
#
# Elastic Compliance Matrix: (Units=1/GPa)
#
#
# Indices 1 2 3 4 5 6 
#
# 1 0.012911 -0.002647 -0.002434 0.000000 0.000000 0.000000
# 2 -0.002647 0.016632 -0.004886 0.000000 0.000000 0.000000
# 3 -0.002434 -0.004886 0.008382 0.000000 0.000000 0.000000
# 4 0.000000 0.000000 0.000000 -0.065909 0.000000 0.000000
# 5 0.000000 0.000000 0.000000 0.000000 6.747336 0.000000
# 6 0.000000 0.000000 0.000000 0.000000 0.000000 0.026593
#
#
# Mechanical properties :
#
#
# Convention : Reuss Voigt Hill
#
# Bulk Modulus (GPa) = 55.58704 64.63591 60.11148
# Shear Modulus (GPa) = 0.73835 18.59566 9.66700
#
# Velocity S-wave (km/s) = 0.60995 3.06103 2.20703
# Velocity P-wave (km/s) = 5.33901 6.71280 6.06493
#
# Compressibility (1/GPa) = 0.01798980
#
# Stress axis : x y z
#
# Youngs Moduli (GPa) = 77.45223 60.12584 119.29774
#
# Poissons Ratio (x) = 0.15917 0.29040
# Poissons Ratio (y) = 0.20504 0.58292
# Poissons Ratio (z) = 0.18854 0.29379
#
# Static dielectric constant tensor:
#      x y z
#    x 1.718820 0.000000 0.000000 
#    y 0.000000 1.749340 0.000000 
#    z 0.000000 0.000000 1.715120 
# 
# From -- ./inp_files/50101.got.cif
#   From: 2010.05.17/outbox.cif.g08.bks.cpg/sg66_26_cif.got.tgz:50101.got - 2010.06.03 17:51:23.
