data_PCOD9499039
_publ_section_title
;
Structure prediction by ZEFSAII (Michael W. Deem and Ramdas Pophale) SiO2 
 PCOD9499039
Probable space group: C C C M
;
_chemical_formula_sum "Si O2"
_cell_formula_units_Z 52
_cell_length_a 7.333556
_cell_length_b 18.252619
_cell_length_c 14.890258
_cell_angle_alpha 90.000000
_cell_angle_beta 90.000000
_cell_angle_gamma 90.000000
_cell_volume 1993.159362
_symmetry_space_group_name_H-M "C C C M"
_symmetry_group_IT_number 66
_symmetry_cell_setting 'orthorhombic'
loop_
_space_group_symop_operation_xyz
x,y,z
-x,-y,z
x,-y,1/2-z
-x,y,1/2-z
-x,-y,-z
x,y,-z
-x,y,1/2+z
x,-y,1/2+z
1/2+x,1/2+y,z
1/2-x,1/2-y,z
1/2+x,1/2-y,1/2-z
1/2-x,1/2+y,1/2-z
1/2-x,1/2-y,-z
1/2+x,1/2+y,-z
1/2-x,1/2+y,1/2+z
1/2+x,1/2-y,1/2+z
loop_
_atom_site_type_symbol
_atom_site_label
_atom_site_fract_x
_atom_site_fract_y
_atom_site_fract_z
Si Si1 0.500000 0.000000 0.750000
Si Si2 0.490417 0.207084 0.351294
Si Si3 0.136526 0.137593 0.400360
Si Si4 0.746988 0.416156 0.606161
O O1 0.637903 0.039259 0.679026
O O2 0.500000 0.234459 0.250000
O O3 0.325838 0.147382 0.349393
O O4 0.436461 0.278888 0.405020
O O5 0.666046 0.165319 0.386034
O O6 0.185714 0.112195 0.500000
O O7 0.966640 0.089756 0.368925
O O8 0.762135 0.437705 0.500000
#
# Coordination Sequence:
#
# PCOD9499039 Si02
#       4
#     4  16  16  16
#     4  12  26  48  70 106 134 192 246 308 332 414
#     4  11  22  37  67 104 140 176 226 291 353 423
#     4  10  23  41  66 101 139 184 227 286 364 435
#     4  11  24  45  69  96 137 187 236 290 355 416
#
# _framework density 26.089231000000002
#
# number of rings (size 3 to 8) (size 9 to 14) (size 15 to 20)
#    0.000    1.231    1.538    5.077    8.615    2.462 
#    0.000    3.077    0.000    5.538    0.000    0.000 
#    0.000    0.000    0.000    0.000    0.000    0.000 
#
# Total GULP energy -145475.973722 kJ/mol
# GULP energy per Si atom -5595.229759 kJ/mol
# Density = 2.602985 g / cm^3
# Si number density = 26.089231 Si / 1000 Ang^3
#
#
#
# Elastic Constant Matrix: (Units=GPa)
#
#
# Indices 1 2 3 4 5 6 
#
# 1 128.7690 5.7528 28.1635 0.0000 0.0000 0.0000
# 2 5.7528 75.2943 18.3007 0.0000 0.0000 0.0000
# 3 28.1635 18.3007 159.2744 0.0000 0.0000 0.0000
# 4 0.0000 0.0000 0.0000 27.8219 0.0000 0.0000
# 5 0.0000 0.0000 0.0000 0.0000 9.3251 0.0000
# 6 0.0000 0.0000 0.0000 0.0000 0.0000 25.3186
#
#
#
# Elastic Compliance Matrix: (Units=1/GPa)
#
#
# Indices 1 2 3 4 5 6 
#
# 1 0.008084 -0.000278 -0.001397 0.000000 0.000000 0.000000
# 2 -0.000278 0.013672 -0.001522 0.000000 0.000000 0.000000
# 3 -0.001397 -0.001522 0.006700 0.000000 0.000000 0.000000
# 4 0.000000 0.000000 0.000000 0.035943 0.000000 0.000000
# 5 0.000000 0.000000 0.000000 0.000000 0.107238 0.000000
# 6 0.000000 0.000000 0.000000 0.000000 0.000000 0.039497
#
#
# Mechanical properties :
#
#
# Convention : Reuss Voigt Hill
#
# Bulk Modulus (GPa) = 45.32652 51.97464 48.65058
# Shear Modulus (GPa) = 22.23380 33.23450 27.73415
#
# Velocity S-wave (km/s) = 2.92245 3.57301 3.26398
# Velocity P-wave (km/s) = 5.36647 6.08170 5.73524
#
# Compressibility (1/GPa) = 0.02206214
#
# Stress axis : x y z
#
# Youngs Moduli (GPa) = 123.70251 73.14041 149.24403
#
# Poissons Ratio (x) = 0.02033 0.20857
# Poissons Ratio (y) = 0.03439 0.22712
# Poissons Ratio (z) = 0.17287 0.11131
#
# Static dielectric constant tensor:
#      x y z
#    x 2.027720 0.000000 0.000000 
#    y 0.000000 2.090000 0.000000 
#    z 0.000000 0.000000 1.941630 
# 
# From -- ./inp_files/23757.got.cif
#   From: 2010.05.17/outbox.cif.g08.bks.cpg/sg66_12_cif.got.tgz:23757.got - 2010.06.03 17:51:23.
