data_PCOD9499090
_publ_section_title
;
Structure prediction by ZEFSAII (Michael W. Deem and Ramdas Pophale) SiO2 
 PCOD9499090
Probable space group: C C C M
;
_chemical_formula_sum "Si O2"
_cell_formula_units_Z 52
_cell_length_a 24.436337
_cell_length_b 7.261655
_cell_length_c 14.564450
_cell_angle_alpha 90.000000
_cell_angle_beta 90.000000
_cell_angle_gamma 90.000000
_cell_volume 2584.436147
_symmetry_space_group_name_H-M "C C C M"
_symmetry_group_IT_number 66
_symmetry_cell_setting 'orthorhombic'
loop_
_space_group_symop_operation_xyz
x,y,z
-x,-y,z
x,-y,1/2-z
-x,y,1/2-z
-x,-y,-z
x,y,-z
-x,y,1/2+z
x,-y,1/2+z
1/2+x,1/2+y,z
1/2-x,1/2-y,z
1/2+x,1/2-y,1/2-z
1/2-x,1/2+y,1/2-z
1/2-x,1/2-y,-z
1/2+x,1/2+y,-z
1/2-x,1/2+y,1/2+z
1/2+x,1/2-y,1/2+z
loop_
_atom_site_type_symbol
_atom_site_label
_atom_site_fract_x
_atom_site_fract_y
_atom_site_fract_z
Si Si1 0.434218 0.787832 0.749837
Si Si2 0.609344 0.500695 0.606173
Si Si3 0.750000 0.250000 0.000000
Si Si4 0.262245 0.537422 0.642386
O O1 0.500000 0.780327 0.750000
O O2 0.412252 0.676715 0.661667
O O3 0.412767 0.676144 0.837955
O O4 0.416552 0.000000 0.750000
O O5 0.593007 0.501570 0.500000
O O6 0.674978 0.500078 0.613011
O O7 0.770693 0.395294 0.919654
O O8 0.255227 0.500000 0.750000
O O9 0.250000 0.750000 0.623388
#
# Coordination Sequence:
#
# PCOD9499090 Si02
#       4
#    16  16   4  16
#     4  10  23  43  67  96 129 167 216 271 329 393
#     4  11  23  41  63  96 130 169 213 266 327 389
#     4  12  26  44  64  96 130 176 228 278 326 392
#     4  12  25  44  66  95 133 177 225 273 330 388
#
# _framework density 20.120443000000002
#
# number of rings (size 3 to 8) (size 9 to 14) (size 15 to 20)
#    0.000    0.923    6.154    2.308    0.000    7.385 
#    0.000    3.077    0.000    0.000    0.000    0.000 
#    0.000    0.000    0.000    0.000    0.000    0.000 
#
# Total GULP energy -144866.990216 kJ/mol
# GULP energy per Si atom -5571.807316 kJ/mol
# Density = 2.007465 g / cm^3
# Si number density = 20.120443 Si / 1000 Ang^3
#
#
#
# Elastic Constant Matrix: (Units=GPa)
#
#
# Indices 1 2 3 4 5 6 
#
# 1 49.4852 18.9471 8.5310 0.0000 0.0000 0.0000
# 2 18.9471 199.7906 85.4098 0.0000 0.0000 0.0000
# 3 8.5310 85.4098 230.5162 0.0000 0.0000 0.0000
# 4 0.0000 0.0000 0.0000 23.6570 0.0000 0.0000
# 5 0.0000 0.0000 0.0000 0.0000 -11.1833 0.0000
# 6 0.0000 0.0000 0.0000 0.0000 0.0000 90.1764
#
#
#
# Elastic Compliance Matrix: (Units=1/GPa)
#
#
# Indices 1 2 3 4 5 6 
#
# 1 0.020970 -0.001969 -0.000047 0.000000 0.000000 0.000000
# 2 -0.001969 0.006132 -0.002199 0.000000 0.000000 0.000000
# 3 -0.000047 -0.002199 0.005155 0.000000 0.000000 0.000000
# 4 0.000000 0.000000 0.000000 0.042271 0.000000 0.000000
# 5 0.000000 0.000000 0.000000 0.000000 -0.089419 0.000000
# 6 0.000000 0.000000 0.000000 0.000000 0.000000 0.011089
#
#
# Mechanical properties :
#
#
# Convention : Reuss Voigt Hill
#
# Bulk Modulus (GPa) = 41.96819 78.39642 60.18231
# Shear Modulus (GPa) = 397.79393 44.99031 221.39212
#
# Velocity S-wave (km/s) = 14.07606 4.73382 10.50106
# Velocity P-wave (km/s) = 16.88445 8.30222 13.30435
#
# Compressibility (1/GPa) = 0.02382757
#
# Stress axis : x y z
#
# Youngs Moduli (GPa) = 47.68739 163.07670 193.99988
#
# Poissons Ratio (x) = 0.32106 0.00904
# Poissons Ratio (y) = 0.09388 0.42664
# Poissons Ratio (z) = 0.00222 0.35863
#
# Static dielectric constant tensor:
#      x y z
#    x 1.772660 0.000000 0.000000 
#    y 0.000000 1.743040 0.000000 
#    z 0.000000 0.000000 1.692620 
# 
# From -- ./inp_files/31775.got.cif
#   From: 2010.05.17/outbox.cif.g08.bks.cpg/sg66_16_cif.got.tgz:31775.got - 2010.06.03 17:51:23.
