data_PCOD9499534
_publ_section_title
;
Structure prediction by ZEFSAII (Michael W. Deem and Ramdas Pophale) SiO2 
 PCOD9499534
Probable space group: C C C M
;
_chemical_formula_sum "Si O2"
_cell_formula_units_Z 96
_cell_length_a 22.352958
_cell_length_b 14.666251
_cell_length_c 14.623711
_cell_angle_alpha 90.000000
_cell_angle_beta 90.000000
_cell_angle_gamma 90.000000
_cell_volume 4794.151026
_symmetry_space_group_name_H-M "C C C M"
_symmetry_group_IT_number 66
_symmetry_cell_setting 'orthorhombic'
loop_
_space_group_symop_operation_xyz
x,y,z
-x,-y,z
x,-y,1/2-z
-x,y,1/2-z
-x,-y,-z
x,y,-z
-x,y,1/2+z
x,-y,1/2+z
1/2+x,1/2+y,z
1/2-x,1/2-y,z
1/2+x,1/2-y,1/2-z
1/2-x,1/2+y,1/2-z
1/2-x,1/2-y,-z
1/2+x,1/2+y,-z
1/2-x,1/2+y,1/2+z
1/2+x,1/2-y,1/2+z
loop_
_atom_site_type_symbol
_atom_site_label
_atom_site_fract_x
_atom_site_fract_y
_atom_site_fract_z
Si Si1 0.433506 0.272351 0.000000
Si Si2 0.065287 0.135045 0.295670
Si Si3 0.842424 0.180831 0.343912
Si Si4 0.441868 0.147090 0.306662
Si Si5 0.459901 0.409334 0.500000
Si Si6 0.007888 0.393251 0.500000
Si Si7 0.287612 0.125486 0.891459
Si Si8 0.654098 0.000000 0.250000
O O1 0.396911 0.305625 0.913572
O O2 0.446559 0.164847 0.000000
O O3 0.496957 0.321488 0.000000
O O4 0.125980 0.122433 0.236624
O O5 0.065038 0.245386 0.293661
O O6 0.070700 0.097127 0.399413
O O7 0.000000 0.107823 0.250000
O O8 0.784071 0.131041 0.382734
O O9 0.816438 0.285600 0.339824
O O10 0.500000 0.117401 0.250000
O O11 0.456131 0.132985 0.411337
O O12 0.387593 0.084145 0.278238
O O13 0.500000 0.500000 0.500000
O O14 0.000000 0.500000 0.500000
O O15 0.309538 0.036731 0.837297
O O16 0.302939 0.130311 0.000000
#
# Coordination Sequence:
#
# PCOD9499534 Si02
#       8
#     8  16  16  16   8   8  16   8
#     4  12  20  41  65  98 131 164 228 274 329 407
#     4  11  21  41  69  94 131 173 215 279 348 409
#     4  11  21  42  70  92 122 175 227 287 332 395
#     4  11  22  38  57  96 140 172 207 254 326 412
#     4  12  26  44  63  99 131 173 226 280 362 417
#     4  12  24  32  60  98 140 183 201 244 336 412
#     4  11  24  42  66  95 128 177 236 276 327 394
#     4  12  25  38  60 100 141 172 220 274 328 412
#
# _framework density 20.0244
#
# number of rings (size 3 to 8) (size 9 to 14) (size 15 to 20)
#    0.000    0.667    6.667    2.750    3.500    0.333 
#    3.000    0.000    0.000    1.000    0.000    0.000 
#    0.000    0.000    0.000    0.000    0.000    0.000 
#
# Total GULP energy -267748.534481 kJ/mol
# GULP energy per Si atom -5578.094468 kJ/mol
# Density = 1.997882 g / cm^3
# Si number density = 20.024400 Si / 1000 Ang^3
#
#
#
# Elastic Constant Matrix: (Units=GPa)
#
#
# Indices 1 2 3 4 5 6 
#
# 1 73.6463 22.7557 55.2141 0.0000 0.0000 0.0000
# 2 22.7557 81.7025 27.3629 0.0000 0.0000 0.0000
# 3 55.2141 27.3629 141.0508 0.0000 0.0000 0.0000
# 4 0.0000 0.0000 0.0000 17.2204 0.0000 0.0000
# 5 0.0000 0.0000 0.0000 0.0000 42.5561 0.0000
# 6 0.0000 0.0000 0.0000 0.0000 0.0000-1214.9704
#
#
#
# Elastic Compliance Matrix: (Units=1/GPa)
#
#
# Indices 1 2 3 4 5 6 
#
# 1 0.019947 -0.003145 -0.007198 0.000000 0.000000 0.000000
# 2 -0.003145 0.013586 -0.001405 0.000000 0.000000 0.000000
# 3 -0.007198 -0.001405 0.010180 0.000000 0.000000 0.000000
# 4 0.000000 0.000000 0.000000 0.058071 0.000000 0.000000
# 5 0.000000 0.000000 0.000000 0.000000 0.023498 0.000000
# 6 0.000000 0.000000 0.000000 0.000000 0.000000 -0.000823
#
#
# Mechanical properties :
#
#
# Convention : Reuss Voigt Hill
#
# Bulk Modulus (GPa) = 49.46215 56.34056 52.90136
# Shear Modulus (GPa) = 32.32226 -218.30100 -92.98937
#
# Velocity S-wave (km/s) = 4.02200 -10.45247 -6.82194
# Velocity P-wave (km/s) = 6.80612 10.83860 5.96456
#
# Compressibility (1/GPa) = 0.02021748
#
# Stress axis : x y z
#
# Youngs Moduli (GPa) = 50.13385 73.60619 98.23426
#
# Poissons Ratio (x) = 0.23148 0.70709
# Poissons Ratio (y) = 0.15766 0.13797
# Poissons Ratio (z) = 0.36086 0.10338
#
# Static dielectric constant tensor:
#      x y z
#    x 1.646760 0.000000 0.000000 
#    y 0.000000 2.049610 0.000000 
#    z 0.000000 0.000000 1.754830 
# 
# From -- ./inp_files/31279.got.cif
#   From: 2010.05.17/outbox.cif.g08.bks.cpg/sg66_16_cif.got.tgz:31279.got - 2010.06.03 17:51:23.
