data_PCOD9499663
_publ_section_title
;
Structure prediction by ZEFSAII (Michael W. Deem and Ramdas Pophale) SiO2 
 PCOD9499663
Probable space group: C C C M
;
_chemical_formula_sum "Si O2"
_cell_formula_units_Z 112
_cell_length_a 11.883833
_cell_length_b 30.849095
_cell_length_c 14.761682
_cell_angle_alpha 90.000000
_cell_angle_beta 90.000000
_cell_angle_gamma 90.000000
_cell_volume 5411.713710
_symmetry_space_group_name_H-M "C C C M"
_symmetry_group_IT_number 66
_symmetry_cell_setting 'orthorhombic'
loop_
_space_group_symop_operation_xyz
x,y,z
-x,-y,z
x,-y,1/2-z
-x,y,1/2-z
-x,-y,-z
x,y,-z
-x,y,1/2+z
x,-y,1/2+z
1/2+x,1/2+y,z
1/2-x,1/2-y,z
1/2+x,1/2-y,1/2-z
1/2-x,1/2+y,1/2-z
1/2-x,1/2-y,-z
1/2+x,1/2+y,-z
1/2-x,1/2+y,1/2+z
1/2+x,1/2-y,1/2+z
loop_
_atom_site_type_symbol
_atom_site_label
_atom_site_fract_x
_atom_site_fract_y
_atom_site_fract_z
Si Si1 0.691079 0.450907 0.745801
Si Si2 0.495470 0.567571 0.897426
Si Si3 0.516741 0.754593 0.358225
Si Si4 0.033380 0.163503 0.352302
Si Si5 0.198828 0.701846 0.397304
Si Si6 0.219419 0.311930 0.394595
Si Si7 0.635773 0.128138 0.249825
O O1 0.734474 0.500000 0.750000
O O2 0.611201 0.444585 0.834377
O O3 0.606229 0.445250 0.660032
O O4 0.789304 0.415186 0.742479
O O5 0.488683 0.619711 0.903196
O O6 0.493246 0.550479 0.000000
O O7 0.500000 0.756381 0.250000
O O8 0.476133 0.706964 0.388124
O O9 0.433760 0.788179 0.402638
O O10 0.642515 0.769679 0.380036
O O11 0.160098 0.180915 0.349293
O O12 0.000000 0.154083 0.250000
O O13 0.238253 0.690907 0.500000
O O14 0.250000 0.750000 0.369457
O O15 0.193288 0.663055 0.322086
O O16 0.239119 0.317054 0.500000
O O17 0.151444 0.350475 0.348428
O O18 0.500000 0.121828 0.250000
#
# Coordination Sequence:
#
# PCOD9499663 Si02
#       7
#    16  16  16  16  16  16  16
#     4  11  26  47  70  99 133 169 219 284 349 417
#     4  11  22  42  72 104 137 170 213 276 345 409
#     4  11  23  37  60  91 134 185 225 267 318 376
#     4  11  23  37  60  97 136 176 218 272 328 391
#     4  11  25  41  62  93 134 181 223 265 322 387
#     4  12  23  40  63  91 130 179 229 273 319 383
#     4  12  25  46  68  98 134 178 228 281 335 394
#
# _framework density 20.695848000000002
#
# number of rings (size 3 to 8) (size 9 to 14) (size 15 to 20)
#    0.000    0.714    5.714    2.143    6.000    4.857 
#    0.000    0.000    0.000    0.000    0.000    4.000 
#    0.000    0.000    0.000    0.000    0.000    0.000 
#
# Total GULP energy -312365.536148 kJ/mol
# GULP energy per Si atom -5577.956003 kJ/mol
# Density = 2.064874 g / cm^3
# Si number density = 20.695848 Si / 1000 Ang^3
#
#
#
# Elastic Constant Matrix: (Units=GPa)
#
#
# Indices 1 2 3 4 5 6 
#
# 1 102.8512 41.3958 42.4049 0.0000 0.0000 0.0000
# 2 41.3958 158.8385 39.0571 0.0000 0.0000 0.0000
# 3 42.4049 39.0571 142.9013 0.0000 0.0000 0.0000
# 4 0.0000 0.0000 0.0000 -14.4169 0.0000 0.0000
# 5 0.0000 0.0000 0.0000 0.0000 95.3013 0.0000
# 6 0.0000 0.0000 0.0000 0.0000 0.0000 55.6271
#
#
#
# Elastic Compliance Matrix: (Units=1/GPa)
#
#
# Indices 1 2 3 4 5 6 
#
# 1 0.011866 -0.002387 -0.002869 0.000000 0.000000 0.000000
# 2 -0.002387 0.007230 -0.001268 0.000000 0.000000 0.000000
# 3 -0.002869 -0.001268 0.008196 0.000000 0.000000 0.000000
# 4 0.000000 0.000000 0.000000 -0.069363 0.000000 0.000000
# 5 0.000000 0.000000 0.000000 0.000000 0.010493 0.000000
# 6 0.000000 0.000000 0.000000 0.000000 0.000000 0.017977
#
#
# Mechanical properties :
#
#
# Convention : Reuss Voigt Hill
#
# Bulk Modulus (GPa) = 70.20297 72.25627 71.22962
# Shear Modulus (GPa) = 1192.39364 46.08453 619.23908
#
# Velocity S-wave (km/s) = 24.02919 4.72397 17.31643
# Velocity P-wave (km/s) = 28.35250 8.04635 20.83996
#
# Compressibility (1/GPa) = 0.01424441
#
# Stress axis : x y z
#
# Youngs Moduli (GPa) = 84.27190 138.32188 122.01698
#
# Poissons Ratio (x) = 0.33019 0.35004
# Poissons Ratio (y) = 0.20117 0.15467
# Poissons Ratio (z) = 0.24176 0.17533
#
# Static dielectric constant tensor:
#      x y z
#    x 1.849890 0.000000 0.000000 
#    y 0.000000 1.779910 0.000000 
#    z 0.000000 0.000000 0.870350 
# 
# From -- ./inp_files/27034.got.cif
#   From: 2010.05.17/outbox.cif.g08.bks.cpg/sg66_14_cif.got.tgz:27034.got - 2010.06.03 17:51:23.
