data_PCOD9499657
_publ_section_title
;
Structure prediction by ZEFSAII (Michael W. Deem and Ramdas Pophale) SiO2 
 PCOD9499657
Probable space group: C C C M
;
_chemical_formula_sum "Si O2"
_cell_formula_units_Z 68
_cell_length_a 9.888195
_cell_length_b 16.759351
_cell_length_c 17.033947
_cell_angle_alpha 90.000000
_cell_angle_beta 90.000000
_cell_angle_gamma 90.000000
_cell_volume 2822.861111
_symmetry_space_group_name_H-M "C C C M"
_symmetry_group_IT_number 66
_symmetry_cell_setting 'orthorhombic'
loop_
_space_group_symop_operation_xyz
x,y,z
-x,-y,z
x,-y,1/2-z
-x,y,1/2-z
-x,-y,-z
x,y,-z
-x,y,1/2+z
x,-y,1/2+z
1/2+x,1/2+y,z
1/2-x,1/2-y,z
1/2+x,1/2-y,1/2-z
1/2-x,1/2+y,1/2-z
1/2-x,1/2-y,-z
1/2+x,1/2+y,-z
1/2-x,1/2+y,1/2+z
1/2+x,1/2-y,1/2+z
loop_
_atom_site_type_symbol
_atom_site_label
_atom_site_fract_x
_atom_site_fract_y
_atom_site_fract_z
Si Si1 0.356921 0.030583 0.092842
Si Si2 0.000000 0.000000 0.250000
Si Si3 0.988693 0.243838 0.087957
Si Si4 0.238301 0.637914 0.868058
Si Si5 0.316935 0.359722 0.188927
O O1 0.262406 0.954703 0.111251
O O2 0.500000 0.000000 0.125399
O O3 0.300916 0.109765 0.132483
O O4 0.367037 0.042081 0.000000
O O5 0.913278 0.937388 0.199422
O O6 0.904601 0.324080 0.106105
O O7 0.864542 0.180307 0.090657
O O8 0.096351 0.211746 0.151386
O O9 0.046184 0.246437 0.000000
O O10 0.260216 0.654347 0.775822
#
# Coordination Sequence:
#
# PCOD9499657 Si02
#       5
#    16   4  16  16  16
#     4  11  24  44  68  99 138 181 231 292 357 424
#     4  12  20  40  64 100 136 172 236 298 340 416
#     4  11  23  42  69 101 136 181 232 290 357 423
#     4  11  22  42  67  97 139 179 232 289 351 426
#     4  12  22  43  68 102 140 181 239 295 351 423
#
# _framework density 24.089034999999999
#
# number of rings (size 3 to 8) (size 9 to 14) (size 15 to 20)
#    0.000    0.706    4.706    3.529    0.000    1.882 
#   16.941    3.529    0.000    4.235    0.000    0.000 
#    0.000    0.000    0.000    0.000    0.000    0.000 
#
# Total GULP energy -190451.971173 kJ/mol
# GULP energy per Si atom -5601.528564 kJ/mol
# Density = 2.403421 g / cm^3
# Si number density = 24.089035 Si / 1000 Ang^3
#
#
#
# Elastic Constant Matrix: (Units=GPa)
#
#
# Indices 1 2 3 4 5 6 
#
# 1 70.2789 2.6733 12.8460 0.0000 0.0000 0.0000
# 2 2.6733 91.7824 -3.1124 0.0000 0.0000 0.0000
# 3 12.8460 -3.1124 131.2782 0.0000 0.0000 0.0000
# 4 0.0000 0.0000 0.0000 34.1432 0.0000 0.0000
# 5 0.0000 0.0000 0.0000 0.0000 109.7628 0.0000
# 6 0.0000 0.0000 0.0000 0.0000 0.0000 45.5430
#
#
#
# Elastic Compliance Matrix: (Units=1/GPa)
#
#
# Indices 1 2 3 4 5 6 
#
# 1 0.014508 -0.000471 -0.001431 0.000000 0.000000 0.000000
# 2 -0.000471 0.010919 0.000305 0.000000 0.000000 0.000000
# 3 -0.001431 0.000305 0.007765 0.000000 0.000000 0.000000
# 4 0.000000 0.000000 0.000000 0.029288 0.000000 0.000000
# 5 0.000000 0.000000 0.000000 0.000000 0.009111 0.000000
# 6 0.000000 0.000000 0.000000 0.000000 0.000000 0.021957
#
#
# Mechanical properties :
#
#
# Convention : Reuss Voigt Hill
#
# Bulk Modulus (GPa) = 33.33494 35.35036 34.34265
# Shear Modulus (GPa) = 46.84178 56.61863 51.73020
#
# Velocity S-wave (km/s) = 4.41446 4.85334 4.63910
# Velocity P-wave (km/s) = 6.31281 6.79068 6.55610
#
# Compressibility (1/GPa) = 0.02999856
#
# Stress axis : x y z
#
# Youngs Moduli (GPa) = 68.92514 91.58011 128.78866
#
# Poissons Ratio (x) = 0.04314 0.18428
# Poissons Ratio (y) = 0.03247 -0.03928
# Poissons Ratio (z) = 0.09862 -0.02793
#
# Static dielectric constant tensor:
#      x y z
#    x 1.974000 0.000000 0.000000 
#    y 0.000000 1.955730 0.000000 
#    z 0.000000 0.000000 1.884990 
# 
# From -- ./inp_files/26111.got.cif
#   From: 2010.05.17/outbox.cif.g08.bks.cpg/sg66_14_cif.got.tgz:26111.got - 2010.06.03 17:51:23.
