data_PCOD9499828
_publ_section_title
;
Structure prediction by ZEFSAII (Michael W. Deem and Ramdas Pophale) SiO2 
 PCOD9499828
Probable space group: C C C M
;
_chemical_formula_sum "Si O2"
_cell_formula_units_Z 68
_cell_length_a 25.018599
_cell_length_b 4.835376
_cell_length_c 22.587591
_cell_angle_alpha 90.000000
_cell_angle_beta 90.000000
_cell_angle_gamma 90.000000
_cell_volume 2732.518759
_symmetry_space_group_name_H-M "C C C M"
_symmetry_group_IT_number 66
_symmetry_cell_setting 'orthorhombic'
loop_
_space_group_symop_operation_xyz
x,y,z
-x,-y,z
x,-y,1/2-z
-x,y,1/2-z
-x,-y,-z
x,y,-z
-x,y,1/2+z
x,-y,1/2+z
1/2+x,1/2+y,z
1/2-x,1/2-y,z
1/2+x,1/2-y,1/2-z
1/2-x,1/2+y,1/2-z
1/2-x,1/2-y,-z
1/2+x,1/2+y,-z
1/2-x,1/2+y,1/2+z
1/2+x,1/2-y,1/2+z
loop_
_atom_site_type_symbol
_atom_site_label
_atom_site_fract_x
_atom_site_fract_y
_atom_site_fract_z
Si Si1 0.943686 0.492776 0.643900
Si Si2 0.840911 0.740579 0.709876
Si Si3 0.196838 0.091811 0.585712
Si Si4 0.078233 0.962962 0.934122
Si Si5 0.750000 0.250000 0.500000
O O1 0.894385 0.605671 0.682388
O O2 0.924722 0.208671 0.613607
O O3 0.000000 0.500000 0.677947
O O4 0.956093 0.714110 0.591760
O O5 0.814600 0.500000 0.750000
O O6 0.806106 0.861757 0.655607
O O7 0.855329 0.000000 0.750000
O O8 0.250000 0.250000 0.562143
O O9 0.137873 0.169435 0.565129
O O10 0.205183 0.800247 0.553221
O O11 0.064411 0.053250 0.000000
#
# Coordination Sequence:
#
# PCOD9499828 Si02
#       5
#    16  16  16  16   4
#     4  11  25  45  71 104 140 188 244 299 364 432
#     4  11  26  49  73 101 143 193 244 301 360 427
#     4  11  27  43  73 106 147 189 241 299 363 441
#     4  11  24  42  69 105 150 187 231 295 365 438
#     4  12  26  44  80 114 142 194 246 298 378 444
#
# _framework density 24.885466999999998
#
# number of rings (size 3 to 8) (size 9 to 14) (size 15 to 20)
#    0.000    0.941    1.176    4.588    9.882    4.235 
#    0.000    3.529    0.000    0.000    0.000    0.000 
#    0.000    0.000    0.000    0.000    0.000    0.000 
#
# Total GULP energy -189409.012381 kJ/mol
# GULP energy per Si atom -5570.853305 kJ/mol
# Density = 2.482883 g / cm^3
# Si number density = 24.885467 Si / 1000 Ang^3
#
#
#
# Elastic Constant Matrix: (Units=GPa)
#
#
# Indices 1 2 3 4 5 6 
#
# 1 123.2383 14.4151 38.9974 0.0000 0.0000 0.0000
# 2 14.4151 134.7312 54.7787 0.0000 0.0000 0.0000
# 3 38.9974 54.7787 178.5897 0.0000 0.0000 0.0000
# 4 0.0000 0.0000 0.0000 19.1548 0.0000 0.0000
# 5 0.0000 0.0000 0.0000 0.0000 9.4867 0.0000
# 6 0.0000 0.0000 0.0000 0.0000 0.0000 34.2027
#
#
#
# Elastic Compliance Matrix: (Units=1/GPa)
#
#
# Indices 1 2 3 4 5 6 
#
# 1 0.008721 -0.000181 -0.001849 0.000000 0.000000 0.000000
# 2 -0.000181 0.008483 -0.002563 0.000000 0.000000 0.000000
# 3 -0.001849 -0.002563 0.006789 0.000000 0.000000 0.000000
# 4 0.000000 0.000000 0.000000 0.052206 0.000000 0.000000
# 5 0.000000 0.000000 0.000000 0.000000 0.105410 0.000000
# 6 0.000000 0.000000 0.000000 0.000000 0.000000 0.029237
#
#
# Mechanical properties :
#
#
# Convention : Reuss Voigt Hill
#
# Bulk Modulus (GPa) = 67.53093 72.54907 70.04000
# Shear Modulus (GPa) = 22.22535 34.46003 28.34269
#
# Velocity S-wave (km/s) = 2.99173 3.72525 3.37846
# Velocity P-wave (km/s) = 6.25536 6.90795 6.58974
#
# Compressibility (1/GPa) = 0.01480803
#
# Stress axis : x y z
#
# Youngs Moduli (GPa) = 114.67166 117.87645 147.29514
#
# Poissons Ratio (x) = 0.02139 0.27229
# Poissons Ratio (y) = 0.02080 0.37745
# Poissons Ratio (z) = 0.21198 0.30206
#
# Static dielectric constant tensor:
#      x y z
#    x 2.027610 0.000000 0.000000 
#    y 0.000000 2.246540 0.000000 
#    z 0.000000 0.000000 1.931210 
# 
# From -- ./inp_files/52815.got.cif
#   From: 2010.05.17/outbox.cif.g08.bks.cpg/sg66_27_cif.got.tgz:52815.got - 2010.06.03 17:51:23.
