data_PCOD9499887
_publ_section_title
;
Structure prediction by ZEFSAII (Michael W. Deem and Ramdas Pophale) SiO2 
 PCOD9499887
Probable space group: C C C M
;
_chemical_formula_sum "Si O2"
_cell_formula_units_Z 64
_cell_length_a 16.385738
_cell_length_b 8.682065
_cell_length_c 20.232363
_cell_angle_alpha 90.000000
_cell_angle_beta 90.000000
_cell_angle_gamma 90.000000
_cell_volume 2878.297283
_symmetry_space_group_name_H-M "C C C M"
_symmetry_group_IT_number 66
_symmetry_cell_setting 'orthorhombic'
loop_
_space_group_symop_operation_xyz
x,y,z
-x,-y,z
x,-y,1/2-z
-x,y,1/2-z
-x,-y,-z
x,y,-z
-x,y,1/2+z
x,-y,1/2+z
1/2+x,1/2+y,z
1/2-x,1/2-y,z
1/2+x,1/2-y,1/2-z
1/2-x,1/2+y,1/2-z
1/2-x,1/2-y,-z
1/2+x,1/2+y,-z
1/2-x,1/2+y,1/2+z
1/2+x,1/2-y,1/2+z
loop_
_atom_site_type_symbol
_atom_site_label
_atom_site_fract_x
_atom_site_fract_y
_atom_site_fract_z
Si Si1 0.391018 0.251991 0.427215
Si Si2 0.816019 0.354671 0.296580
Si Si3 0.479725 0.322595 0.826757
Si Si4 0.753531 0.997817 0.426182
O O1 0.430169 0.256782 0.500000
O O2 0.457805 0.226852 0.371513
O O3 0.321281 0.123167 0.427793
O O4 0.338726 0.407802 0.417876
O O5 0.840215 0.500000 0.250000
O O6 0.750000 0.250000 0.256907
O O7 0.765980 0.410546 0.360439
O O8 0.890582 0.254014 0.325436
O O9 0.500000 0.500000 0.847264
O O10 0.500000 0.316696 0.750000
O O11 0.755343 0.070066 0.500000
#
# Coordination Sequence:
#
# PCOD9499887 Si02
#       4
#    16  16  16  16
#     4   9  19  39  68  97 135 179 224 286 345 403
#     4  12  28  43  70 101 136 186 232 288 348 416
#     4  11  25  42  64  95 137 178 228 287 350 411
#     4   9  20  40  68 100 134 180 232 280 340 412
#
# _framework density 22.235368000000001
#
# number of rings (size 3 to 8) (size 9 to 14) (size 15 to 20)
#    0.000    1.750    0.000    4.500   10.500    5.500 
#    0.000    2.500    0.000    0.000    0.000    0.000 
#    0.000    0.000    0.000    0.000    0.000    0.000 
#
# Total GULP energy -178532.912187 kJ/mol
# GULP energy per Si atom -5579.153506 kJ/mol
# Density = 2.218476 g / cm^3
# Si number density = 22.235368 Si / 1000 Ang^3
#
#
#
# Elastic Constant Matrix: (Units=GPa)
#
#
# Indices 1 2 3 4 5 6 
#
# 1 132.0430 38.3007 41.7309 0.0000 0.0000 0.0000
# 2 38.3007 81.3352 28.6566 0.0000 0.0000 0.0000
# 3 41.7309 28.6566 88.2794 0.0000 0.0000 0.0000
# 4 0.0000 0.0000 0.0000 58.8219 0.0000 0.0000
# 5 0.0000 0.0000 0.0000 0.0000 53.4290 0.0000
# 6 0.0000 0.0000 0.0000 0.0000 0.0000 15.5299
#
#
#
# Elastic Compliance Matrix: (Units=1/GPa)
#
#
# Indices 1 2 3 4 5 6 
#
# 1 0.009633 -0.003310 -0.003479 0.000000 0.000000 0.000000
# 2 -0.003310 0.015020 -0.003311 0.000000 0.000000 0.000000
# 3 -0.003479 -0.003311 0.014047 0.000000 0.000000 0.000000
# 4 0.000000 0.000000 0.000000 0.017000 0.000000 0.000000
# 5 0.000000 0.000000 0.000000 0.000000 0.018716 0.000000
# 6 0.000000 0.000000 0.000000 0.000000 0.000000 0.064392
#
#
# Mechanical properties :
#
#
# Convention : Reuss Voigt Hill
#
# Bulk Modulus (GPa) = 54.05539 57.67046 55.86292
# Shear Modulus (GPa) = 30.27070 38.42079 34.34575
#
# Velocity S-wave (km/s) = 3.69369 4.16133 3.93446
# Velocity P-wave (km/s) = 6.52337 7.00582 6.76890
#
# Compressibility (1/GPa) = 0.01849954
#
# Stress axis : x y z
#
# Youngs Moduli (GPa) = 103.80932 66.57707 71.18946
#
# Poissons Ratio (x) = 0.22040 0.24767
# Poissons Ratio (y) = 0.34365 0.23570
# Poissons Ratio (z) = 0.36116 0.22043
#
# Static dielectric constant tensor:
#      x y z
#    x 1.877670 0.000000 0.000000 
#    y 0.000000 1.934610 0.000000 
#    z 0.000000 0.000000 1.800180 
# 
# From -- ./inp_files/54961.got.cif
#   From: 2010.05.17/outbox.cif.g08.bks.cpg/sg66_28_cif.got.tgz:54961.got - 2010.06.03 17:51:23.
