data_PCOD9499979
_publ_section_title
;
Structure prediction by ZEFSAII (Michael W. Deem and Ramdas Pophale) SiO2 
 PCOD9499979
Probable space group: C C C M
;
_chemical_formula_sum "Si O2"
_cell_formula_units_Z 72
_cell_length_a 10.733713
_cell_length_b 18.269859
_cell_length_c 16.868668
_cell_angle_alpha 90.000000
_cell_angle_beta 90.000000
_cell_angle_gamma 90.000000
_cell_volume 3308.003537
_symmetry_space_group_name_H-M "C C C M"
_symmetry_group_IT_number 66
_symmetry_cell_setting 'orthorhombic'
loop_
_space_group_symop_operation_xyz
x,y,z
-x,-y,z
x,-y,1/2-z
-x,y,1/2-z
-x,-y,-z
x,y,-z
-x,y,1/2+z
x,-y,1/2+z
1/2+x,1/2+y,z
1/2-x,1/2-y,z
1/2+x,1/2-y,1/2-z
1/2-x,1/2+y,1/2-z
1/2-x,1/2-y,-z
1/2+x,1/2+y,-z
1/2-x,1/2+y,1/2+z
1/2+x,1/2-y,1/2+z
loop_
_atom_site_type_symbol
_atom_site_label
_atom_site_fract_x
_atom_site_fract_y
_atom_site_fract_z
Si Si1 0.249540 0.500000 0.750000
Si Si2 0.409886 0.619961 0.672182
Si Si3 0.750000 0.750000 0.224923
Si Si4 0.979015 0.912718 0.500000
Si Si5 0.936537 0.574957 0.371828
Si Si6 0.786124 0.336832 0.000000
Si Si7 0.500000 0.823456 0.250000
O O1 0.336933 0.545996 0.692013
O O2 0.162890 0.451739 0.693475
O O3 0.500000 0.629244 0.750000
O O4 0.311637 0.685712 0.674672
O O5 0.468443 0.615824 0.584816
O O6 0.626818 0.779810 0.270528
O O7 0.838167 0.885081 0.500000
O O8 0.000000 0.000000 0.500000
O O9 0.868057 0.631792 0.428152
O O10 0.033788 0.624374 0.323572
O O11 0.000000 0.500000 0.403724
O O12 0.750000 0.250000 0.000000
#
# Coordination Sequence:
#
# PCOD9499979 Si02
#       7
#     8  16   8   8  16   8   8
#     4  12  22  44  78 112 144 200 262 320 384 470
#     4  12  25  45  75 107 153 199 256 316 392 461
#     4  12  26  43  76 109 150 202 244 321 396 477
#     4  12  28  50  73 111 153 206 267 316 387 482
#     4  12  23  47  73 111 147 200 264 324 387 476
#     4  12  31  45  75 110 163 206 256 331 407 468
#     4  12  25  44  78 109 152 192 268 312 399 476
#
# _framework density 21.765395000000002
#
# number of rings (size 3 to 8) (size 9 to 14) (size 15 to 20)
#    0.000    0.000    5.556    4.667    4.667    0.444 
#    0.000    3.333    0.000    0.000    0.000    0.000 
#    0.000    0.000    0.000    0.000    0.000    0.000 
#
# Total GULP energy -200867.812160 kJ/mol
# GULP energy per Si atom -5579.661449 kJ/mol
# Density = 2.171586 g / cm^3
# Si number density = 21.765395 Si / 1000 Ang^3
#
#
#
# Elastic Constant Matrix: (Units=GPa)
#
#
# Indices 1 2 3 4 5 6 
#
# 1 120.6741 54.6805 56.2825 0.0000 0.0000 0.0000
# 2 54.6805 133.3966 48.4458 0.0000 0.0000 0.0000
# 3 56.2825 48.4458 153.7841 0.0000 0.0000 0.0000
# 4 0.0000 0.0000 0.0000 14.7913 0.0000 0.0000
# 5 0.0000 0.0000 0.0000 0.0000 33.3651 0.0000
# 6 0.0000 0.0000 0.0000 0.0000 0.0000 55.7192
#
#
#
# Elastic Compliance Matrix: (Units=1/GPa)
#
#
# Indices 1 2 3 4 5 6 
#
# 1 0.011297 -0.003533 -0.003021 0.000000 0.000000 0.000000
# 2 -0.003533 0.009570 -0.001722 0.000000 0.000000 0.000000
# 3 -0.003021 -0.001722 0.008151 0.000000 0.000000 0.000000
# 4 0.000000 0.000000 0.000000 0.067607 0.000000 0.000000
# 5 0.000000 0.000000 0.000000 0.000000 0.029971 0.000000
# 6 0.000000 0.000000 0.000000 0.000000 0.000000 0.017947
#
#
# Mechanical properties :
#
#
# Convention : Reuss Voigt Hill
#
# Bulk Modulus (GPa) = 80.22525 80.74137 80.48331
# Shear Modulus (GPa) = 30.25689 37.33820 33.79754
#
# Velocity S-wave (km/s) = 3.73250 4.14633 3.94485
# Velocity P-wave (km/s) = 7.45081 7.75239 7.60309
#
# Compressibility (1/GPa) = 0.01246490
#
# Stress axis : x y z
#
# Youngs Moduli (GPa) = 88.51840 104.49220 122.68795
#
# Poissons Ratio (x) = 0.36922 0.37069
# Poissons Ratio (y) = 0.31278 0.21122
# Poissons Ratio (z) = 0.26745 0.17990
#
# Static dielectric constant tensor:
#      x y z
#    x 1.841680 0.000000 0.000000 
#    y 0.000000 1.796210 0.000000 
#    z 0.000000 0.000000 1.847400 
# 
# From -- ./inp_files/38419.got.cif
#   From: 2010.05.17/outbox.cif.g08.bks.cpg/sg66_20_cif.got.tgz:38419.got - 2010.06.03 17:51:23.
