data_PCOD9499957
_publ_section_title
;
Structure prediction by ZEFSAII (Michael W. Deem and Ramdas Pophale) SiO2 
 PCOD9499957
Probable space group: C C C M
;
_chemical_formula_sum "Si O2"
_cell_formula_units_Z 88
_cell_length_a 12.611989
_cell_length_b 14.535012
_cell_length_c 22.592473
_cell_angle_alpha 90.000000
_cell_angle_beta 90.000000
_cell_angle_gamma 90.000000
_cell_volume 4141.548484
_symmetry_space_group_name_H-M "C C C M"
_symmetry_group_IT_number 66
_symmetry_cell_setting 'orthorhombic'
loop_
_space_group_symop_operation_xyz
x,y,z
-x,-y,z
x,-y,1/2-z
-x,y,1/2-z
-x,-y,-z
x,y,-z
-x,y,1/2+z
x,-y,1/2+z
1/2+x,1/2+y,z
1/2-x,1/2-y,z
1/2+x,1/2-y,1/2-z
1/2-x,1/2+y,1/2-z
1/2-x,1/2-y,-z
1/2+x,1/2+y,-z
1/2-x,1/2+y,1/2+z
1/2+x,1/2-y,1/2+z
loop_
_atom_site_type_symbol
_atom_site_label
_atom_site_fract_x
_atom_site_fract_y
_atom_site_fract_z
Si Si1 0.500000 0.249627 0.250000
Si Si2 0.721446 0.144514 0.865564
Si Si3 0.119281 0.011851 0.431796
Si Si4 0.310183 0.394604 0.244436
Si Si5 0.506603 0.895621 0.856465
Si Si6 0.734240 0.142856 0.610929
O O1 0.400048 0.318279 0.255572
O O2 0.486282 0.183542 0.193466
O O3 0.750000 0.250000 0.873238
O O4 0.723252 0.119868 0.795650
O O5 0.604849 0.121951 0.889046
O O6 0.812672 0.083997 0.894838
O O7 0.111607 0.041243 0.500000
O O8 0.184226 0.917395 0.426526
O O9 0.000000 0.000000 0.408071
O O10 0.349169 0.500000 0.250000
O O11 0.263051 0.378535 0.179620
O O12 0.612060 0.886352 0.895712
O O13 0.500000 0.000000 0.832351
O O14 0.750000 0.250000 0.599828
#
# Coordination Sequence:
#
# PCOD9499957 Si02
#       6
#     8  16  16  16  16  16
#     4  12  24  36  62 104 150 182 238 268 334 424
#     4  12  25  44  71 102 144 182 228 280 344 416
#     4  11  28  52  76  99 130 180 238 290 343 410
#     4  12  23  39  64 107 144 190 225 275 343 409
#     4  12  23  41  63 102 139 189 222 273 347 403
#     4  12  25  44  71 102 144 182 228 280 344 416
#
# _framework density 21.248090000000001
#
# number of rings (size 3 to 8) (size 9 to 14) (size 15 to 20)
#    0.000    0.182    7.273    2.182    5.091    0.727 
#    0.000    1.818    0.000    0.000    0.000    0.000 
#    0.000    0.000    0.000    0.000    0.000    0.000 
#
# Total GULP energy -246298.333743 kJ/mol
# GULP energy per Si atom -5597.689403 kJ/mol
# Density = 2.119973 g / cm^3
# Si number density = 21.248090 Si / 1000 Ang^3
#
#
#
# Elastic Constant Matrix: (Units=GPa)
#
#
# Indices 1 2 3 4 5 6 
#
# 1 168.3389 45.5725 10.0192 0.0000 0.0000 0.0000
# 2 45.5725 185.3527 -1.6733 0.0000 0.0000 0.0000
# 3 10.0192 -1.6733 23.6039 0.0000 0.0000 0.0000
# 4 0.0000 0.0000 0.0000 -5.8574 0.0000 0.0000
# 5 0.0000 0.0000 0.0000 0.0000 -0.0389 0.0000
# 6 0.0000 0.0000 0.0000 0.0000 0.0000 26.2157
#
#
#
# Elastic Compliance Matrix: (Units=1/GPa)
#
#
# Indices 1 2 3 4 5 6 
#
# 1 0.006556 -0.001638 -0.002899 0.000000 0.000000 0.000000
# 2 -0.001638 0.005808 0.001107 0.000000 0.000000 0.000000
# 3 -0.002899 0.001107 0.043675 0.000000 0.000000 0.000000
# 4 0.000000 0.000000 0.000000 -0.170723 0.000000 0.000000
# 5 0.000000 0.000000 0.000000 0.000000-25.691373 0.000000
# 6 0.000000 0.000000 0.000000 0.000000 0.000000 0.038145
#
#
# Mechanical properties :
#
#
# Convention : Reuss Voigt Hill
#
# Bulk Modulus (GPa) = 20.33398 53.90358 37.11878
# Shear Modulus (GPa) = -0.19422 25.62236 12.71407
#
# Velocity S-wave (km/s) = -0.30266 3.47633 2.44880
# Velocity P-wave (km/s) = 3.07708 6.44491 5.05001
#
# Compressibility (1/GPa) = 0.04917875
#
# Stress axis : x y z
#
# Youngs Moduli (GPa) = 152.52187 172.17941 22.89645
#
# Poissons Ratio (x) = 0.28206 0.06638
# Poissons Ratio (y) = 0.24986 -0.02535
# Poissons Ratio (z) = 0.44218 -0.19062
#
# Static dielectric constant tensor:
#      x y z
#    x 1.804880 0.000000 0.000000 
#    y 0.000000 1.748910 0.000000 
#    z 0.000000 0.000000 1.741050 
# 
# From -- ./inp_files/56722.got.cif
#   From: 2010.05.17/outbox.cif.g08.bks.cpg/sg66_29_cif.got.tgz:56722.got - 2010.06.03 17:51:23.
