data_PCOD9499485
_publ_section_title
;
Structure prediction by ZEFSAII (Michael W. Deem and Ramdas Pophale) SiO2 
 PCOD9499485
Probable space group: C C C M
;
_chemical_formula_sum "Si O2"
_cell_formula_units_Z 112
_cell_length_a 15.077826
_cell_length_b 14.515601
_cell_length_c 27.457053
_cell_angle_alpha 90.000000
_cell_angle_beta 90.000000
_cell_angle_gamma 90.000000
_cell_volume 6009.352380
_symmetry_space_group_name_H-M "C C C M"
_symmetry_group_IT_number 66
_symmetry_cell_setting 'orthorhombic'
loop_
_space_group_symop_operation_xyz
x,y,z
-x,-y,z
x,-y,1/2-z
-x,y,1/2-z
-x,-y,-z
x,y,-z
-x,y,1/2+z
x,-y,1/2+z
1/2+x,1/2+y,z
1/2-x,1/2-y,z
1/2+x,1/2-y,1/2-z
1/2-x,1/2+y,1/2-z
1/2-x,1/2-y,-z
1/2+x,1/2+y,-z
1/2-x,1/2+y,1/2+z
1/2+x,1/2-y,1/2+z
loop_
_atom_site_type_symbol
_atom_site_label
_atom_site_fract_x
_atom_site_fract_y
_atom_site_fract_z
Si Si1 0.826641 0.677945 0.198889
Si Si2 0.842918 0.296648 0.186072
Si Si3 0.395353 0.712114 0.554815
Si Si4 0.097676 0.028851 0.193501
Si Si5 0.972215 0.785086 0.156135
Si Si6 0.787087 0.400970 0.554928
Si Si7 0.279364 0.010438 0.347915
O O1 0.750000 0.750000 0.182167
O O2 0.843416 0.694171 0.255573
O O3 0.915547 0.694645 0.168702
O O4 0.797900 0.574007 0.188966
O O5 0.750000 0.250000 0.172031
O O6 0.835736 0.399403 0.164242
O O7 0.927471 0.235582 0.171083
O O8 0.431084 0.700889 0.500000
O O9 0.461054 0.693764 0.599198
O O10 0.310242 0.645304 0.560095
O O11 0.355262 0.815417 0.558933
O O12 0.084340 0.138457 0.186505
O O13 0.110098 0.000000 0.250000
O O14 0.173589 0.980574 0.161785
O O15 0.000000 0.000000 0.177207
O O16 0.794610 0.438575 0.500000
O O17 0.797788 0.473153 0.598083
#
# Coordination Sequence:
#
# PCOD9499485 Si02
#       7
#    16  16  16  16  16  16  16
#     4  11  21  37  63  90 121 160 202 253 315 370
#     4  11  27  40  56  84 129 170 212 247 299 368
#     4   9  17  34  62  95 120 149 200 258 314 366
#     4  11  24  35  60  87 117 162 218 250 293 360
#     4  12  22  39  62  90 127 162 200 261 311 363
#     4   9  17  33  62  95 121 149 195 260 321 373
#     4  12  21  40  61  88 127 161 199 256 314 373
#
# _framework density 18.637616999999999
#
# number of rings (size 3 to 8) (size 9 to 14) (size 15 to 20)
#    0.000    1.286    4.286    3.429    6.000    0.571 
#    0.000    2.143    0.000    6.857    0.000    0.000 
#    0.000    0.000    0.000    0.000    0.000    0.000 
#
# Total GULP energy -312450.098250 kJ/mol
# GULP energy per Si atom -5579.466040 kJ/mol
# Density = 1.859520 g / cm^3
# Si number density = 18.637617 Si / 1000 Ang^3
#
#
#
# Elastic Constant Matrix: (Units=GPa)
#
#
# Indices 1 2 3 4 5 6 
#
# 1 63.7514 6.7364 31.4111 0.0000 0.0000 0.0000
# 2 6.7364 62.0437 31.6994 0.0000 0.0000 0.0000
# 3 31.4111 31.6994 119.8339 0.0000 0.0000 0.0000
# 4 0.0000 0.0000 0.0000 25.6371 0.0000 0.0000
# 5 0.0000 0.0000 0.0000 0.0000 18.1666 0.0000
# 6 0.0000 0.0000 0.0000 0.0000 0.0000 22.8705
#
#
#
# Elastic Compliance Matrix: (Units=1/GPa)
#
#
# Indices 1 2 3 4 5 6 
#
# 1 0.018027 0.000528 -0.004865 0.000000 0.000000 0.000000
# 2 0.000528 0.018652 -0.005072 0.000000 0.000000 0.000000
# 3 -0.004865 -0.005072 0.010962 0.000000 0.000000 0.000000
# 4 0.000000 0.000000 0.000000 0.039006 0.000000 0.000000
# 5 0.000000 0.000000 0.000000 0.000000 0.055046 0.000000
# 6 0.000000 0.000000 0.000000 0.000000 0.000000 0.043725
#
#
# Mechanical properties :
#
#
# Convention : Reuss Voigt Hill
#
# Bulk Modulus (GPa) = 34.69486 42.81362 38.75424
# Shear Modulus (GPa) = 23.38158 25.05364 24.21761
#
# Velocity S-wave (km/s) = 3.54579 3.67038 3.60862
# Velocity P-wave (km/s) = 5.95142 6.40186 6.18074
#
# Compressibility (1/GPa) = 0.02882271
#
# Stress axis : x y z
#
# Youngs Moduli (GPa) = 55.47174 53.61381 91.22478
#
# Poissons Ratio (x) = -0.02833 0.44382
# Poissons Ratio (y) = -0.02931 0.46273
# Poissons Ratio (z) = 0.26987 0.27195
#
# Static dielectric constant tensor:
#      x y z
#    x 1.692360 0.000000 0.000000 
#    y 0.000000 1.862880 0.000000 
#    z 0.000000 0.000000 1.651070 
# 
# From -- ./inp_files/64693.got.cif
#   From: 2010.05.17/outbox.cif.g08.bks.cpg/sg66_33_cif.got.tgz:64693.got - 2010.06.03 17:51:23.
