data_PCOD9499974
_publ_section_title
;
Structure prediction by ZEFSAII (Michael W. Deem and Ramdas Pophale) SiO2 
 PCOD9499974
Probable space group: C C C M
;
_chemical_formula_sum "Si O2"
_cell_formula_units_Z 88
_cell_length_a 5.065307
_cell_length_b 26.288497
_cell_length_c 30.251777
_cell_angle_alpha 90.000000
_cell_angle_beta 90.000000
_cell_angle_gamma 90.000000
_cell_volume 4028.305687
_symmetry_space_group_name_H-M "C C C M"
_symmetry_group_IT_number 66
_symmetry_cell_setting 'orthorhombic'
loop_
_space_group_symop_operation_xyz
x,y,z
-x,-y,z
x,-y,1/2-z
-x,y,1/2-z
-x,-y,-z
x,y,-z
-x,y,1/2+z
x,-y,1/2+z
1/2+x,1/2+y,z
1/2-x,1/2-y,z
1/2+x,1/2-y,1/2-z
1/2-x,1/2+y,1/2-z
1/2-x,1/2-y,-z
1/2+x,1/2+y,-z
1/2-x,1/2+y,1/2+z
1/2+x,1/2-y,1/2+z
loop_
_atom_site_type_symbol
_atom_site_label
_atom_site_fract_x
_atom_site_fract_y
_atom_site_fract_z
Si Si1 0.557420 0.386256 0.699519
Si Si2 0.514835 0.717060 0.643940
Si Si3 0.446362 0.060168 0.336026
Si Si4 0.247787 0.535477 0.500000
Si Si5 0.973208 0.826222 0.550160
Si Si6 0.971868 0.388323 0.569001
O O1 0.500000 0.372834 0.750000
O O2 0.532867 0.336096 0.669098
O O3 0.840177 0.412901 0.695320
O O4 0.343084 0.426721 0.681675
O O5 0.750000 0.750000 0.665110
O O6 0.603153 0.704801 0.593683
O O7 0.250000 0.750000 0.644032
O O8 0.485584 0.089038 0.382700
O O9 0.500000 0.000000 0.340106
O O10 0.500000 0.500000 0.500000
O O11 0.198652 0.570594 0.542094
O O12 0.000000 0.500000 0.500000
O O13 0.969169 0.805106 0.500000
O O14 0.758521 0.872462 0.550468
O O15 0.274726 0.840963 0.562653
#
# Coordination Sequence:
#
# PCOD9499974 Si02
#       6
#    16  16  16   8  16  16
#     4  12  27  48  74 105 142 181 231 296 359 422
#     4  12  26  46  75 103 138 180 234 294 359 423
#     4  12  25  45  73 104 143 190 235 281 350 426
#     4  12  24  36  58  98 136 178 246 288 328 406
#     4  12  23  43  71  98 138 184 232 285 349 415
#     4  12  22  42  65  95 138 192 230 284 346 405
#
# _framework density 21.845410999999999
#
# number of rings (size 3 to 8) (size 9 to 14) (size 15 to 20)
#    0.000    0.000    5.455    4.909    0.000    5.091 
#    0.000    0.000    0.000    0.000    0.000    0.000 
#    0.000    0.000    0.000    0.000    0.000    0.000 
#
# Total GULP energy -245964.384887 kJ/mol
# GULP energy per Si atom -5590.099657 kJ/mol
# Density = 2.179569 g / cm^3
# Si number density = 21.845411 Si / 1000 Ang^3
#
#
#
# Elastic Constant Matrix: (Units=GPa)
#
#
# Indices 1 2 3 4 5 6 
#
# 1 101.2377 15.6424 -5.1281 0.0000 0.0000 0.0000
# 2 15.6424 59.9387 19.3217 0.0000 0.0000 0.0000
# 3 -5.1281 19.3217 129.8268 0.0000 0.0000 0.0000
# 4 0.0000 0.0000 0.0000 2.2744 0.0000 0.0000
# 5 0.0000 0.0000 0.0000 0.0000 31.4333 0.0000
# 6 0.0000 0.0000 0.0000 0.0000 0.0000 45.0675
#
#
#
# Elastic Compliance Matrix: (Units=1/GPa)
#
#
# Indices 1 2 3 4 5 6 
#
# 1 0.010382 -0.002985 0.000854 0.000000 0.000000 0.000000
# 2 -0.002985 0.018383 -0.002854 0.000000 0.000000 0.000000
# 3 0.000854 -0.002854 0.008161 0.000000 0.000000 0.000000
# 4 0.000000 0.000000 0.000000 0.439670 0.000000 0.000000
# 5 0.000000 0.000000 0.000000 0.000000 0.031813 0.000000
# 6 0.000000 0.000000 0.000000 0.000000 0.000000 0.022189
#
#
# Mechanical properties :
#
#
# Convention : Reuss Voigt Hill
#
# Bulk Modulus (GPa) = 37.09575 38.96394 38.02984
# Shear Modulus (GPa) = 9.09831 33.16621 21.13226
#
# Velocity S-wave (km/s) = 2.04301 3.90067 3.11361
# Velocity P-wave (km/s) = 4.75217 6.17753 5.51112
#
# Compressibility (1/GPa) = 0.02695727
#
# Stress axis : x y z
#
# Youngs Moduli (GPa) = 96.31857 54.39929 122.53361
#
# Poissons Ratio (x) = 0.16238 -0.10468
# Poissons Ratio (y) = 0.28750 0.34968
# Poissons Ratio (z) = -0.08229 0.15524
#
# Static dielectric constant tensor:
#      x y z
#    x 1.805080 0.000000 0.000000 
#    y 0.000000 1.831500 0.000000 
#    z 0.000000 0.000000 1.803660 
# 
# From -- ./inp_files/67280.got.cif
#   From: 2010.05.17/outbox.cif.g08.bks.cpg/sg66_34_cif.got.tgz:67280.got - 2010.06.03 17:51:23.
