data_PCOD9499681
_publ_section_title
;
Structure prediction by ZEFSAII (Michael W. Deem and Ramdas Pophale) SiO2 
 PCOD9499681
Probable space group: C C C M
;
_chemical_formula_sum "Si O2"
_cell_formula_units_Z 64
_cell_length_a 8.685119
_cell_length_b 13.106850
_cell_length_c 23.530739
_cell_angle_alpha 90.000000
_cell_angle_beta 90.000000
_cell_angle_gamma 90.000000
_cell_volume 2678.611131
_symmetry_space_group_name_H-M "C C C M"
_symmetry_group_IT_number 66
_symmetry_cell_setting 'orthorhombic'
loop_
_space_group_symop_operation_xyz
x,y,z
-x,-y,z
x,-y,1/2-z
-x,y,1/2-z
-x,-y,-z
x,y,-z
-x,y,1/2+z
x,-y,1/2+z
1/2+x,1/2+y,z
1/2-x,1/2-y,z
1/2+x,1/2-y,1/2-z
1/2-x,1/2+y,1/2-z
1/2-x,1/2-y,-z
1/2+x,1/2+y,-z
1/2-x,1/2+y,1/2+z
1/2+x,1/2-y,1/2+z
loop_
_atom_site_type_symbol
_atom_site_label
_atom_site_fract_x
_atom_site_fract_y
_atom_site_fract_z
Si Si1 0.865214 0.930962 0.116421
Si Si2 0.063924 0.749999 0.686879
Si Si3 0.793398 0.878295 0.500000
Si Si4 0.887544 0.413785 0.891883
Si Si5 0.146080 0.120044 0.000000
O O1 0.957099 0.862034 0.160688
O O2 0.737448 0.010465 0.138405
O O3 0.000000 0.000000 0.089803
O O4 0.801726 0.859002 0.065105
O O5 0.250000 0.750000 0.687412
O O6 0.000000 0.740169 0.750000
O O7 0.979399 0.664210 0.648456
O O8 0.698801 0.856400 0.557152
O O9 0.807226 0.000903 0.500000
O O10 0.530710 0.658513 0.500000
O O11 0.000000 0.500000 0.917389
#
# Coordination Sequence:
#
# PCOD9499681 Si02
#       5
#    16  16   8  16   8
#     4  11  22  45  73 103 141 184 226 286 359 424
#     4  12  30  49  67 100 138 183 250 300 349 434
#     4   9  17  35  68 105 139 180 223 278 349 438
#     4  11  22  44  71 103 142 180 224 293 362 419
#     4   9  16  37  68 105 142 175 230 276 342 443
#
# _framework density 23.892980000000001
#
# number of rings (size 3 to 8) (size 9 to 14) (size 15 to 20)
#    0.000    1.250    7.500    0.375    3.500    2.000 
#    0.000    2.500    0.000    0.000    0.000    0.000 
#    0.000    0.000    0.000    0.000    0.000    0.000 
#
# Total GULP energy -178241.092829 kJ/mol
# GULP energy per Si atom -5570.034151 kJ/mol
# Density = 2.383860 g / cm^3
# Si number density = 23.892980 Si / 1000 Ang^3
#
#
#
# Elastic Constant Matrix: (Units=GPa)
#
#
# Indices 1 2 3 4 5 6 
#
# 1 136.8658 73.6103 66.1985 0.0000 0.0000 0.0000
# 2 73.6103 137.5285 62.9790 0.0000 0.0000 0.0000
# 3 66.1985 62.9790 156.6026 0.0000 0.0000 0.0000
# 4 0.0000 0.0000 0.0000 27.1402 0.0000 0.0000
# 5 0.0000 0.0000 0.0000 0.0000 41.1208 0.0000
# 6 0.0000 0.0000 0.0000 0.0000 0.0000 38.3676
#
#
#
# Elastic Compliance Matrix: (Units=1/GPa)
#
#
# Indices 1 2 3 4 5 6 
#
# 1 0.011210 -0.004695 -0.002851 0.000000 0.000000 0.000000
# 2 -0.004695 0.010879 -0.002390 0.000000 0.000000 0.000000
# 3 -0.002851 -0.002390 0.008552 0.000000 0.000000 0.000000
# 4 0.000000 0.000000 0.000000 0.036846 0.000000 0.000000
# 5 0.000000 0.000000 0.000000 0.000000 0.024319 0.000000
# 6 0.000000 0.000000 0.000000 0.000000 0.000000 0.026064
#
#
# Mechanical properties :
#
#
# Convention : Reuss Voigt Hill
#
# Bulk Modulus (GPa) = 92.85779 92.95253 92.90516
# Shear Modulus (GPa) = 35.37818 36.53966 35.95892
#
# Velocity S-wave (km/s) = 3.85215 3.91488 3.88364
# Velocity P-wave (km/s) = 7.66380 7.70864 7.68625
#
# Compressibility (1/GPa) = 0.01076916
#
# Stress axis : x y z
#
# Youngs Moduli (GPa) = 89.20470 91.92339 116.93212
#
# Poissons Ratio (x) = 0.43155 0.33334
# Poissons Ratio (y) = 0.41878 0.27952
# Poissons Ratio (z) = 0.25430 0.21974
#
# Static dielectric constant tensor:
#      x y z
#    x 2.035130 0.000000 0.000000 
#    y 0.000000 2.079740 0.000000 
#    z 0.000000 0.000000 1.902600 
# 
# From -- ./inp_files/62113.got.cif
#   From: 2010.05.17/outbox.cif.g08.bks.cpg/sg66_32_cif.got.tgz:62113.got - 2010.06.03 17:51:23.
