data_PCOD9499528
_publ_section_title
;
Structure prediction by ZEFSAII (Michael W. Deem and Ramdas Pophale) SiO2 
 PCOD9499528
Probable space group: C C C M
;
_chemical_formula_sum "Si O2"
_cell_formula_units_Z 96
_cell_length_a 18.153499
_cell_length_b 11.999333
_cell_length_c 22.244971
_cell_angle_alpha 90.000000
_cell_angle_beta 90.000000
_cell_angle_gamma 90.000000
_cell_volume 4845.619355
_symmetry_space_group_name_H-M "C C C M"
_symmetry_group_IT_number 66
_symmetry_cell_setting 'orthorhombic'
loop_
_space_group_symop_operation_xyz
x,y,z
-x,-y,z
x,-y,1/2-z
-x,y,1/2-z
-x,-y,-z
x,y,-z
-x,y,1/2+z
x,-y,1/2+z
1/2+x,1/2+y,z
1/2-x,1/2-y,z
1/2+x,1/2-y,1/2-z
1/2-x,1/2+y,1/2-z
1/2-x,1/2-y,-z
1/2+x,1/2+y,-z
1/2-x,1/2+y,1/2+z
1/2+x,1/2-y,1/2+z
loop_
_atom_site_type_symbol
_atom_site_label
_atom_site_fract_x
_atom_site_fract_y
_atom_site_fract_z
Si Si1 0.093275 0.743614 0.379344
Si Si2 0.322382 0.323938 0.294173
Si Si3 0.410583 0.863433 0.000000
Si Si4 0.090583 0.619562 0.500000
Si Si5 0.857991 0.463845 0.319317
Si Si6 0.309625 0.436913 0.162962
Si Si7 0.074952 0.682295 0.130243
O O1 0.116150 0.681009 0.440232
O O2 0.113505 0.661356 0.324640
O O3 0.137188 0.859116 0.376232
O O4 0.005028 0.737518 0.377242
O O5 0.250000 0.250000 0.307475
O O6 0.313611 0.372792 0.227309
O O7 0.335543 0.436357 0.332114
O O8 0.387273 0.243944 0.314395
O O9 0.500617 0.873160 0.000000
O O10 0.389335 0.808078 0.063465
O O11 0.385610 0.991627 0.000000
O O12 0.848781 0.500000 0.250000
O O13 0.777202 0.454501 0.349403
O O14 0.913034 0.550978 0.352452
#
# Coordination Sequence:
#
# PCOD9499528 Si02
#       7
#    16  16   8   8  16  16  16
#     4  11  23  37  61  96 122 156 208 266 312 366
#     4  11  21  41  63  84 123 171 206 244 311 389
#     4   9  18  38  61  89 118 169 203 255 326 362
#     4   9  18  38  61  84 130 162 199 258 330 365
#     4  12  21  37  62  89 123 165 201 249 314 378
#     4  11  23  39  61  88 126 170 201 247 321 379
#     4  11  22  38  64  90 122 159 214 260 303 371
#
# _framework density 19.811709
#
# number of rings (size 3 to 8) (size 9 to 14) (size 15 to 20)
#    0.000    1.167    5.000    3.000    0.000    4.000 
#    0.000    5.417    0.000    3.000    0.000    0.000 
#    0.000    0.000    0.000    0.000    0.000    0.000 
#
# Total GULP energy -267341.456406 kJ/mol
# GULP energy per Si atom -5569.613675 kJ/mol
# Density = 1.976662 g / cm^3
# Si number density = 19.811709 Si / 1000 Ang^3
#
#
#
# Elastic Constant Matrix: (Units=GPa)
#
#
# Indices 1 2 3 4 5 6 
#
# 1 46.5389 18.7319 20.2756 0.0000 0.0000 0.0000
# 2 18.7319 120.8139 27.5909 0.0000 0.0000 0.0000
# 3 20.2756 27.5909 67.7630 0.0000 0.0000 0.0000
# 4 0.0000 0.0000 0.0000 24.9766 0.0000 0.0000
# 5 0.0000 0.0000 0.0000 0.0000 15.5626 0.0000
# 6 0.0000 0.0000 0.0000 0.0000 0.0000 33.5600
#
#
#
# Elastic Compliance Matrix: (Units=1/GPa)
#
#
# Indices 1 2 3 4 5 6 
#
# 1 0.025335 -0.002422 -0.006594 0.000000 0.000000 0.000000
# 2 -0.002422 0.009357 -0.003085 0.000000 0.000000 0.000000
# 3 -0.006594 -0.003085 0.017987 0.000000 0.000000 0.000000
# 4 0.000000 0.000000 0.000000 0.040037 0.000000 0.000000
# 5 0.000000 0.000000 0.000000 0.000000 0.064257 0.000000
# 6 0.000000 0.000000 0.000000 0.000000 0.000000 0.029797
#
#
# Mechanical properties :
#
#
# Convention : Reuss Voigt Hill
#
# Bulk Modulus (GPa) = 35.11778 40.92360 38.02069
# Shear Modulus (GPa) = 22.67919 26.05434 24.36677
#
# Velocity S-wave (km/s) = 3.38707 3.63036 3.51082
# Velocity P-wave (km/s) = 5.74983 6.18658 5.97220
#
# Compressibility (1/GPa) = 0.02847560
#
# Stress axis : x y z
#
# Youngs Moduli (GPa) = 39.47061 106.86799 55.59668
#
# Poissons Ratio (x) = 0.25885 0.36663
# Poissons Ratio (y) = 0.09560 0.17153
# Poissons Ratio (z) = 0.26029 0.32972
#
# Static dielectric constant tensor:
#      x y z
#    x 1.769130 0.000000 0.000000 
#    y 0.000000 1.692280 0.000000 
#    z 0.000000 0.000000 1.754690 
# 
# From -- ./inp_files/58807.got.cif
#   From: 2010.05.17/outbox.cif.g08.bks.cpg/sg66_30_cif.got.tgz:58807.got - 2010.06.03 17:51:23.
