data_PCOD9499886
_publ_section_title
;
Structure prediction by ZEFSAII (Michael W. Deem and Ramdas Pophale) SiO2 
 PCOD9499886
Probable space group: C C C M
;
_chemical_formula_sum "Si O2"
_cell_formula_units_Z 80
_cell_length_a 16.281917
_cell_length_b 13.509938
_cell_length_c 16.128685
_cell_angle_alpha 90.000000
_cell_angle_beta 90.000000
_cell_angle_gamma 90.000000
_cell_volume 3547.789569
_symmetry_space_group_name_H-M "C C C M"
_symmetry_group_IT_number 66
_symmetry_cell_setting 'orthorhombic'
loop_
_space_group_symop_operation_xyz
x,y,z
-x,-y,z
x,-y,1/2-z
-x,y,1/2-z
-x,-y,-z
x,y,-z
-x,y,1/2+z
x,-y,1/2+z
1/2+x,1/2+y,z
1/2-x,1/2-y,z
1/2+x,1/2-y,1/2-z
1/2-x,1/2+y,1/2-z
1/2-x,1/2-y,-z
1/2+x,1/2+y,-z
1/2-x,1/2+y,1/2+z
1/2+x,1/2-y,1/2+z
loop_
_atom_site_type_symbol
_atom_site_label
_atom_site_fract_x
_atom_site_fract_y
_atom_site_fract_z
Si Si1 0.130683 0.791256 0.098464
Si Si2 0.347566 0.250702 0.100204
Si Si3 0.023762 0.892472 0.653549
Si Si4 0.085680 0.454618 0.842338
Si Si5 0.719462 0.094658 0.099316
O O1 0.189016 0.880512 0.130105
O O2 0.165140 0.687691 0.131040
O O3 0.037660 0.812443 0.115631
O O4 0.141036 0.785826 0.000000
O O5 0.250000 0.250000 0.118135
O O6 0.386280 0.353910 0.132156
O O7 0.399264 0.162281 0.145087
O O8 0.357755 0.241705 0.000000
O O9 0.000000 0.893963 0.750000
O O10 0.000000 0.000000 0.618667
O O11 0.085025 0.500000 0.750000
O O12 0.169575 0.498318 0.879448
O O13 0.000000 0.500000 0.879984
O O14 0.722694 0.097009 0.000000
#
# Coordination Sequence:
#
# PCOD9499886 Si02
#       5
#    16  16  16  16  16
#     4   9  19  37  65  94 122 165 220 278 331 397
#     4  11  27  48  71 104 145 185 230 291 357 419
#     4  11  26  44  67  98 135 182 234 280 340 415
#     4  11  25  41  66  99 136 185 226 279 348 418
#     4   9  19  37  63  95 125 163 220 277 330 401
#
# _framework density 22.549251000000002
#
# number of rings (size 3 to 8) (size 9 to 14) (size 15 to 20)
#    0.000    1.800    0.000    3.600    8.400    6.400 
#    0.000    0.000    0.000    0.000    0.000    0.000 
#    0.000    0.000    0.000    0.000    0.000    0.000 
#
# Total GULP energy -223163.247520 kJ/mol
# GULP energy per Si atom -5579.081188 kJ/mol
# Density = 2.249793 g / cm^3
# Si number density = 22.549251 Si / 1000 Ang^3
#
#
#
# Elastic Constant Matrix: (Units=GPa)
#
#
# Indices 1 2 3 4 5 6 
#
# 1 120.4486 40.8559 9.3927 0.0000 0.0000 0.0000
# 2 40.8559 107.3887 10.5086 0.0000 0.0000 0.0000
# 3 9.3927 10.5086 43.5004 0.0000 0.0000 0.0000
# 4 0.0000 0.0000 0.0000 21.5159 0.0000 0.0000
# 5 0.0000 0.0000 0.0000 0.0000 55.1677 0.0000
# 6 0.0000 0.0000 0.0000 0.0000 0.0000 39.7103
#
#
#
# Elastic Compliance Matrix: (Units=1/GPa)
#
#
# Indices 1 2 3 4 5 6 
#
# 1 0.009595 -0.003531 -0.001219 0.000000 0.000000 0.000000
# 2 -0.003531 0.010837 -0.001855 0.000000 0.000000 0.000000
# 3 -0.001219 -0.001855 0.023700 0.000000 0.000000 0.000000
# 4 0.000000 0.000000 0.000000 0.046477 0.000000 0.000000
# 5 0.000000 0.000000 0.000000 0.000000 0.018127 0.000000
# 6 0.000000 0.000000 0.000000 0.000000 0.000000 0.025182
#
#
# Mechanical properties :
#
#
# Convention : Reuss Voigt Hill
#
# Bulk Modulus (GPa) = 32.34054 43.65022 37.99538
# Shear Modulus (GPa) = 31.75900 37.31749 34.53825
#
# Velocity S-wave (km/s) = 3.75697 4.07250 3.91791
# Velocity P-wave (km/s) = 5.76135 6.44309 6.11173
#
# Compressibility (1/GPa) = 0.03092095
#
# Stress axis : x y z
#
# Youngs Moduli (GPa) = 104.21985 92.27673 42.19465
#
# Poissons Ratio (x) = 0.32585 0.05142
# Poissons Ratio (y) = 0.36802 0.07829
# Poissons Ratio (z) = 0.12702 0.17122
#
# Static dielectric constant tensor:
#      x y z
#    x 1.764360 0.000000 0.000000 
#    y 0.000000 1.907100 0.000000 
#    z 0.000000 0.000000 1.820400 
# 
# From -- ./inp_files/49765.got.cif
#   From: 2010.05.17/outbox.cif.g08.bks.cpg/sg66_25_cif.got.tgz:49765.got - 2010.06.03 17:51:23.
