data_PCOD9499703
_publ_section_title
;
Structure prediction by ZEFSAII (Michael W. Deem and Ramdas Pophale) SiO2 
 PCOD9499703
Probable space group: C C C M
;
_chemical_formula_sum "Si O2"
_cell_formula_units_Z 80
_cell_length_a 11.383434
_cell_length_b 10.621307
_cell_length_c 29.121775
_cell_angle_alpha 90.000000
_cell_angle_beta 90.000000
_cell_angle_gamma 90.000000
_cell_volume 3521.024913
_symmetry_space_group_name_H-M "C C C M"
_symmetry_group_IT_number 66
_symmetry_cell_setting 'orthorhombic'
loop_
_space_group_symop_operation_xyz
x,y,z
-x,-y,z
x,-y,1/2-z
-x,y,1/2-z
-x,-y,-z
x,y,-z
-x,y,1/2+z
x,-y,1/2+z
1/2+x,1/2+y,z
1/2-x,1/2-y,z
1/2+x,1/2-y,1/2-z
1/2-x,1/2+y,1/2-z
1/2-x,1/2-y,-z
1/2+x,1/2+y,-z
1/2-x,1/2+y,1/2+z
1/2+x,1/2-y,1/2+z
loop_
_atom_site_type_symbol
_atom_site_label
_atom_site_fract_x
_atom_site_fract_y
_atom_site_fract_z
Si Si1 0.572933 0.675107 0.605011
Si Si2 0.119129 0.303012 0.948392
Si Si3 0.309572 0.057402 0.799700
Si Si4 0.444581 0.315799 0.800289
Si Si5 0.311684 0.054452 0.395757
O O1 0.455929 0.692910 0.575578
O O2 0.533428 0.658212 0.658012
O O3 0.629300 0.812083 0.594754
O O4 0.673073 0.573605 0.593683
O O5 0.250000 0.250000 0.950401
O O6 0.130789 0.434042 0.920312
O O7 0.075277 0.327635 0.000000
O O8 0.397983 0.173459 0.805553
O O9 0.175107 0.104466 0.803220
O O10 0.328770 0.000000 0.750000
O O11 0.327036 0.963249 0.841310
O O12 0.500000 0.333816 0.750000
#
# Coordination Sequence:
#
# PCOD9499703 Si02
#       5
#    16  16  16  16  16
#     4  11  24  42  66  96 130 170 216 268 328 392
#     4  11  25  45  69  97 129 169 217 271 331 392
#     4  11  23  38  59  90 128 172 219 265 320 387
#     4  11  23  38  59  90 128 172 219 265 320 387
#     4  11  24  42  66  96 130 170 216 268 328 392
#
# _framework density 22.720656999999999
#
# number of rings (size 3 to 8) (size 9 to 14) (size 15 to 20)
#    0.000    1.000    2.000    4.200    0.000   12.800 
#    0.000    4.000    0.000    0.000    0.000    0.000 
#    0.000    0.000    0.000    0.000    0.000    0.000 
#
# Total GULP energy -223884.281097 kJ/mol
# GULP energy per Si atom -5597.107027 kJ/mol
# Density = 2.266894 g / cm^3
# Si number density = 22.720657 Si / 1000 Ang^3
#
#
#
# Elastic Constant Matrix: (Units=GPa)
#
#
# Indices 1 2 3 4 5 6 
#
# 1 91.1824 4.2119 21.3569 0.0000 0.0000 0.0000
# 2 4.2119 66.4832 5.6894 0.0000 0.0000 0.0000
# 3 21.3569 5.6894 106.5545 0.0000 0.0000 0.0000
# 4 0.0000 0.0000 0.0000 4011.9872 0.0000 0.0000
# 5 0.0000 0.0000 0.0000 0.0000 -53.2757 0.0000
# 6 0.0000 0.0000 0.0000 0.0000 0.0000 26.8828
#
#
#
# Elastic Compliance Matrix: (Units=1/GPa)
#
#
# Indices 1 2 3 4 5 6 
#
# 1 0.011526 -0.000535 -0.002282 0.000000 0.000000 0.000000
# 2 -0.000535 0.015135 -0.000701 0.000000 0.000000 0.000000
# 3 -0.002282 -0.000701 0.009880 0.000000 0.000000 0.000000
# 4 0.000000 0.000000 0.000000 0.000249 0.000000 0.000000
# 5 0.000000 0.000000 0.000000 0.000000 -0.018770 0.000000
# 6 0.000000 0.000000 0.000000 0.000000 0.000000 0.037198
#
#
# Mechanical properties :
#
#
# Convention : Reuss Voigt Hill
#
# Bulk Modulus (GPa) = 33.89142 36.30406 35.09774
# Shear Modulus (GPa) = 69.35887 812.64964 441.00426
#
# Velocity S-wave (km/s) = 5.53110 18.93268 13.94703
# Velocity P-wave (km/s) = 7.46590 22.22480 16.57832
#
# Compressibility (1/GPa) = 0.02950599
#
# Stress axis : x y z
#
# Youngs Moduli (GPa) = 86.75924 66.07088 101.21861
#
# Poissons Ratio (x) = 0.03535 0.23094
# Poissons Ratio (y) = 0.04641 0.07095
# Poissons Ratio (z) = 0.19795 0.04631
#
# Static dielectric constant tensor:
#      x y z
#    x 1.906910 0.000000 0.000000 
#    y 0.000000 1.834390 0.000000 
#    z 0.000000 0.000000 1.808650 
# 
# From -- ./inp_files/68734.got.cif
#   From: 2010.05.17/outbox.cif.g08.bks.cpg/sg66_35_cif.got.tgz:68734.got - 2010.06.03 17:51:23.
