data_PCOD9499283
_publ_section_title
;
Structure prediction by ZEFSAII (Michael W. Deem and Ramdas Pophale) SiO2 
 PCOD9499283
Probable space group: C C C M
;
_chemical_formula_sum "Si O2"
_cell_formula_units_Z 84
_cell_length_a 6.443317
_cell_length_b 23.886393
_cell_length_c 27.839294
_cell_angle_alpha 90.000000
_cell_angle_beta 90.000000
_cell_angle_gamma 90.000000
_cell_volume 4284.678983
_symmetry_space_group_name_H-M "C C C M"
_symmetry_group_IT_number 66
_symmetry_cell_setting 'orthorhombic'
loop_
_space_group_symop_operation_xyz
x,y,z
-x,-y,z
x,-y,1/2-z
-x,y,1/2-z
-x,-y,-z
x,y,-z
-x,y,1/2+z
x,-y,1/2+z
1/2+x,1/2+y,z
1/2-x,1/2-y,z
1/2+x,1/2-y,1/2-z
1/2-x,1/2+y,1/2-z
1/2-x,1/2-y,-z
1/2+x,1/2+y,-z
1/2-x,1/2+y,1/2+z
1/2+x,1/2-y,1/2+z
loop_
_atom_site_type_symbol
_atom_site_label
_atom_site_fract_x
_atom_site_fract_y
_atom_site_fract_z
Si Si1 0.041613 0.845030 0.868756
Si Si2 0.868200 0.942635 0.555413
Si Si3 0.776846 0.428241 0.321650
Si Si4 0.250000 0.250000 0.132647
Si Si5 0.000000 0.500000 0.598788
Si Si6 0.549942 0.171580 0.805147
Si Si7 0.000000 0.000000 0.750000
O O1 0.097533 0.889899 0.909800
O O2 0.227926 0.826130 0.832766
O O3 0.884598 0.880520 0.836254
O O4 0.912716 0.793099 0.891243
O O5 0.908076 0.928481 0.500000
O O6 0.631455 0.959456 0.565445
O O7 0.000000 0.000000 0.565628
O O8 0.655800 0.463878 0.282474
O O9 0.845340 0.466760 0.365966
O O10 0.981196 0.393696 0.306996
O O11 0.399632 0.210953 0.164142
O O12 0.500000 0.188548 0.750000
#
# Coordination Sequence:
#
# PCOD9499283 Si02
#       7
#    16  16  16   8   8  16   4
#     4  11  22  46  62  93 129 170 217 273 333 378
#     4  11  23  41  69  99 131 167 214 270 330 402
#     4  11  24  36  59  87 132 173 212 260 315 380
#     4  10  26  40  67  92 122 172 215 278 324 382
#     4  12  21  39  60  96 130 174 211 262 325 388
#     4  11  24  40  64  89 125 172 221 265 315 381
#     4  12  24  38  52  96 132 176 220 254 316 394
#
# _framework density 19.604735999999999
#
# number of rings (size 3 to 8) (size 9 to 14) (size 15 to 20)
#    0.000    0.952    3.810    3.143    5.333    1.524 
#    0.000    0.476    0.000    2.286    0.000    0.000 
#    0.000    0.000    0.000    0.000    0.000    0.000 
#
# Total GULP energy -234060.982548 kJ/mol
# GULP energy per Si atom -5572.880537 kJ/mol
# Density = 1.956012 g / cm^3
# Si number density = 19.604736 Si / 1000 Ang^3
#
#
#
# Elastic Constant Matrix: (Units=GPa)
#
#
# Indices 1 2 3 4 5 6 
#
# 1 105.5607 41.1002 32.8125 0.0000 0.0000 0.0000
# 2 41.1002 98.7520 28.1922 0.0000 0.0000 0.0000
# 3 32.8125 28.1922 58.5425 0.0000 0.0000 0.0000
# 4 0.0000 0.0000 0.0000 -0.7403 0.0000 0.0000
# 5 0.0000 0.0000 0.0000 0.0000 25.5813 0.0000
# 6 0.0000 0.0000 0.0000 0.0000 0.0000 51.6622
#
#
#
# Elastic Compliance Matrix: (Units=1/GPa)
#
#
# Indices 1 2 3 4 5 6 
#
# 1 0.012554 -0.003729 -0.005241 0.000000 0.000000 0.000000
# 2 -0.003729 0.012848 -0.004097 0.000000 0.000000 0.000000
# 3 -0.005241 -0.004097 0.021992 0.000000 0.000000 0.000000
# 4 0.000000 0.000000 0.000000 -1.350830 0.000000 0.000000
# 5 0.000000 0.000000 0.000000 0.000000 0.039091 0.000000
# 6 0.000000 0.000000 0.000000 0.000000 0.000000 0.019357
#
#
# Mechanical properties :
#
#
# Convention : Reuss Voigt Hill
#
# Bulk Modulus (GPa) = 47.03541 51.89612 49.46576
# Shear Modulus (GPa) = -4.12620 26.01734 10.94557
#
# Velocity S-wave (km/s) = -1.45233 3.64688 2.36543
# Velocity P-wave (km/s) = 4.60777 6.65295 5.72247
#
# Compressibility (1/GPa) = 0.02126058
#
# Stress axis : x y z
#
# Youngs Moduli (GPa) = 79.65536 77.83327 45.47091
#
# Poissons Ratio (x) = 0.29023 0.23830
# Poissons Ratio (y) = 0.29702 0.18630
# Poissons Ratio (z) = 0.41746 0.31890
#
# Static dielectric constant tensor:
#      x y z
#    x 1.751050 0.000000 0.000000 
#    y 0.000000 1.695950 0.000000 
#    z 0.000000 0.000000 1.672870 
# 
# From -- ./inp_files/67318.got.cif
#   From: 2010.05.17/outbox.cif.g08.bks.cpg/sg66_34_cif.got.tgz:67318.got - 2010.06.03 17:51:23.
