data_PCOD9499100
_publ_section_title
;
Structure prediction by ZEFSAII (Michael W. Deem and Ramdas Pophale) SiO2 
 PCOD9499100
Probable space group: C C C M
;
_chemical_formula_sum "Si O2"
_cell_formula_units_Z 116
_cell_length_a 16.541193
_cell_length_b 11.723819
_cell_length_c 28.649091
_cell_angle_alpha 90.000000
_cell_angle_beta 90.000000
_cell_angle_gamma 90.000000
_cell_volume 5555.802268
_symmetry_space_group_name_H-M "C C C M"
_symmetry_group_IT_number 66
_symmetry_cell_setting 'orthorhombic'
loop_
_space_group_symop_operation_xyz
x,y,z
-x,-y,z
x,-y,1/2-z
-x,y,1/2-z
-x,-y,-z
x,y,-z
-x,y,1/2+z
x,-y,1/2+z
1/2+x,1/2+y,z
1/2-x,1/2-y,z
1/2+x,1/2-y,1/2-z
1/2-x,1/2+y,1/2-z
1/2-x,1/2-y,-z
1/2+x,1/2+y,-z
1/2-x,1/2+y,1/2+z
1/2+x,1/2-y,1/2+z
loop_
_atom_site_type_symbol
_atom_site_label
_atom_site_fract_x
_atom_site_fract_y
_atom_site_fract_z
Si Si1 0.000000 0.500000 0.750000
Si Si2 0.207839 0.873597 0.555409
Si Si3 0.975415 0.131383 0.448777
Si Si4 0.670035 0.987622 0.621659
Si Si5 0.695638 0.585429 0.682732
Si Si6 0.174786 0.169337 0.787925
Si Si7 0.600434 0.252495 0.888563
Si Si8 0.452471 0.164341 0.169671
O O1 0.002814 0.404752 0.790746
O O2 0.207112 0.909858 0.500000
O O3 0.250000 0.750000 0.557294
O O4 0.114828 0.862738 0.573673
O O5 0.262295 0.954993 0.588435
O O6 0.958934 0.179470 0.500000
O O7 0.058211 0.188012 0.431835
O O8 0.000000 0.000000 0.449665
O O9 0.711468 0.939426 0.669147
O O10 0.637565 0.870584 0.599443
O O11 0.602788 0.079945 0.637468
O O12 0.684454 0.645757 0.732605
O O13 0.665444 0.455193 0.688722
O O14 0.656937 0.662958 0.641926
O O15 0.250000 0.250000 0.802962
O O16 0.100770 0.244475 0.803375
O O17 0.520590 0.226540 0.859005
#
# Coordination Sequence:
#
# PCOD9499100 Si02
#       8
#     4  16  16  16  16  16  16  16
#     4  12  24  44  60  90 138 176 218 276 322 400
#     4  10  23  43  71 102 133 172 222 276 330 400
#     4  10  23  43  69  98 131 176 218 266 339 407
#     4  12  24  43  67 100 133 173 226 269 335 399
#     4  11  26  42  64  97 130 172 225 282 328 389
#     4  11  24  42  66  93 127 176 228 277 332 385
#     4  12  25  43  65 100 138 169 220 277 332 395
#     4  12  26  40  67  94 128 184 221 269 330 397
#
# _framework density 20.879073000000002
#
# number of rings (size 3 to 8) (size 9 to 14) (size 15 to 20)
#    0.000    0.828    2.759    3.724    7.724    0.552 
#    0.000    1.379    0.000    8.276    0.000    0.000 
#    0.000    0.000    0.000    0.000    0.000    0.000 
#
# Total GULP energy -323068.349681 kJ/mol
# GULP energy per Si atom -5570.143960 kJ/mol
# Density = 2.083155 g / cm^3
# Si number density = 20.879073 Si / 1000 Ang^3
#
#
#
# Elastic Constant Matrix: (Units=GPa)
#
#
# Indices 1 2 3 4 5 6 
#
# 1 66.4195 34.2285 -6.4191 0.0000 0.0000 0.0000
# 2 34.2285 131.9561 10.9740 0.0000 0.0000 0.0000
# 3 -6.4191 10.9740 38.1181 0.0000 0.0000 0.0000
# 4 0.0000 0.0000 0.0000 34.8544 0.0000 0.0000
# 5 0.0000 0.0000 0.0000 0.0000 34.3833 0.0000
# 6 0.0000 0.0000 0.0000 0.0000 0.0000 48.6350
#
#
#
# Elastic Compliance Matrix: (Units=1/GPa)
#
#
# Indices 1 2 3 4 5 6 
#
# 1 0.018105 -0.005071 0.004509 0.000000 0.000000 0.000000
# 2 -0.005071 0.009185 -0.003498 0.000000 0.000000 0.000000
# 3 0.004509 -0.003498 0.028001 0.000000 0.000000 0.000000
# 4 0.000000 0.000000 0.000000 0.028691 0.000000 0.000000
# 5 0.000000 0.000000 0.000000 0.000000 0.029084 0.000000
# 6 0.000000 0.000000 0.000000 0.000000 0.000000 0.020561
#
#
# Mechanical properties :
#
#
# Convention : Reuss Voigt Hill
#
# Bulk Modulus (GPa) = 21.20029 34.89559 28.04794
# Shear Modulus (GPa) = 31.75196 36.75524 34.25360
#
# Velocity S-wave (km/s) = 3.90392 4.20025 4.05479
# Velocity P-wave (km/s) = 5.52238 6.34604 5.94848
#
# Compressibility (1/GPa) = 0.04716917
#
# Stress axis : x y z
#
# Youngs Moduli (GPa) = 55.23333 108.87712 35.71336
#
# Poissons Ratio (x) = 0.55215 -0.16103
# Poissons Ratio (y) = 0.28010 0.12493
# Poissons Ratio (z) = -0.24904 0.38088
#
# Static dielectric constant tensor:
#      x y z
#    x 1.874590 0.000000 0.000000 
#    y 0.000000 1.699360 0.000000 
#    z 0.000000 0.000000 1.820790 
# 
# From -- ./inp_files/65341.got.cif
#   From: 2010.05.17/outbox.cif.g08.bks.cpg/sg66_33_cif.got.tgz:65341.got - 2010.06.03 17:51:23.
