data_PCOD9499895
_publ_section_title
;
Structure prediction by ZEFSAII (Michael W. Deem and Ramdas Pophale) SiO2 
 PCOD9499895
Probable space group: C C C M
;
_chemical_formula_sum "Si O2"
_cell_formula_units_Z 64
_cell_length_a 15.606872
_cell_length_b 13.463576
_cell_length_c 15.239517
_cell_angle_alpha 90.000000
_cell_angle_beta 90.000000
_cell_angle_gamma 90.000000
_cell_volume 3202.192953
_symmetry_space_group_name_H-M "C C C M"
_symmetry_group_IT_number 66
_symmetry_cell_setting 'orthorhombic'
loop_
_space_group_symop_operation_xyz
x,y,z
-x,-y,z
x,-y,1/2-z
-x,y,1/2-z
-x,-y,-z
x,y,-z
-x,y,1/2+z
x,-y,1/2+z
1/2+x,1/2+y,z
1/2-x,1/2-y,z
1/2+x,1/2-y,1/2-z
1/2-x,1/2+y,1/2-z
1/2-x,1/2-y,-z
1/2+x,1/2+y,-z
1/2-x,1/2+y,1/2+z
1/2+x,1/2-y,1/2+z
loop_
_atom_site_type_symbol
_atom_site_label
_atom_site_fract_x
_atom_site_fract_y
_atom_site_fract_z
Si Si1 0.878955 0.188722 0.500000
Si Si2 0.304283 0.088813 0.000000
Si Si3 0.845583 0.257879 0.103641
Si Si4 0.508138 0.382414 0.146911
Si Si5 0.597147 0.971096 0.350735
O O1 0.796620 0.115412 0.500000
O O2 0.848955 0.302879 0.500000
O O3 0.937078 0.168496 0.414478
O O4 0.336861 0.026316 0.915813
O O5 0.750000 0.250000 0.140361
O O6 0.900064 0.159380 0.118307
O O7 0.892873 0.353020 0.142405
O O8 0.839635 0.276515 0.000000
O O9 0.500000 0.500000 0.134241
O O10 0.500000 0.359951 0.250000
O O11 0.500000 0.000000 0.375982
O O12 0.611559 0.000000 0.250000
#
# Coordination Sequence:
#
# PCOD9499895 Si02
#       5
#     8   8  16  16  16
#     4  11  25  44  72  98 142 180 232 284 347 416
#     4  11  25  44  68 103 138 185 228 286 344 417
#     4  11  25  43  70  99 132 177 232 285 339 408
#     4  11  26  45  70  98 139 181 227 283 347 409
#     4  11  25  43  71 100 140 180 231 286 349 410
#
# _framework density 19.986302999999999
#
# number of rings (size 3 to 8) (size 9 to 14) (size 15 to 20)
#    0.000    1.000    2.500    2.250   10.500    2.000 
#    0.000    0.000    0.000    0.000    0.000    0.000 
#    0.000    0.000    0.000    0.000    0.000    0.000 
#
# Total GULP energy -178954.946084 kJ/mol
# GULP energy per Si atom -5592.342065 kJ/mol
# Density = 1.994081 g / cm^3
# Si number density = 19.986303 Si / 1000 Ang^3
#
#
#
# Elastic Constant Matrix: (Units=GPa)
#
#
# Indices 1 2 3 4 5 6 
#
# 1 139.4456 48.5133 27.2577 0.0000 0.0000 0.0000
# 2 48.5133 97.2269 25.3227 0.0000 0.0000 0.0000
# 3 27.2577 25.3227 83.7952 0.0000 0.0000 0.0000
# 4 0.0000 0.0000 0.0000 38.5856 0.0000 0.0000
# 5 0.0000 0.0000 0.0000 0.0000 -9.8786 0.0000
# 6 0.0000 0.0000 0.0000 0.0000 0.0000 17.0895
#
#
#
# Elastic Compliance Matrix: (Units=1/GPa)
#
#
# Indices 1 2 3 4 5 6 
#
# 1 0.008891 -0.003998 -0.001684 0.000000 0.000000 0.000000
# 2 -0.003998 0.012961 -0.002616 0.000000 0.000000 0.000000
# 3 -0.001684 -0.002616 0.013272 0.000000 0.000000 0.000000
# 4 0.000000 0.000000 0.000000 0.025916 0.000000 0.000000
# 5 0.000000 0.000000 0.000000 0.000000 -0.101229 0.000000
# 6 0.000000 0.000000 0.000000 0.000000 0.000000 0.058516
#
#
# Mechanical properties :
#
#
# Convention : Reuss Voigt Hill
#
# Bulk Modulus (GPa) = 53.97151 58.07277 56.02214
# Shear Modulus (GPa) = 121.65219 23.78423 72.71821
#
# Velocity S-wave (km/s) = 7.81024 3.45342 6.03846
# Velocity P-wave (km/s) = 10.41134 6.70976 8.75834
#
# Compressibility (1/GPa) = 0.01852830
#
# Stress axis : x y z
#
# Youngs Moduli (GPa) = 112.46929 77.15161 75.34449
#
# Poissons Ratio (x) = 0.30844 0.12689
# Poissons Ratio (y) = 0.44964 0.19714
# Poissons Ratio (z) = 0.18941 0.20186
#
# Static dielectric constant tensor:
#      x y z
#    x 1.713060 0.000000 0.000000 
#    y 0.000000 1.663770 0.000000 
#    z 0.000000 0.000000 1.659230 
# 
# From -- ./inp_files/29607.got.cif
#   From: 2010.05.17/outbox.cif.g08.bks.cpg/sg66_15_cif.got.tgz:29607.got - 2010.06.03 17:51:23.
