data_PCOD9499001
_publ_section_title
;
Structure prediction by ZEFSAII (Michael W. Deem and Ramdas Pophale) SiO2 
 PCOD9499001
Probable space group: C C C M
;
_chemical_formula_sum "Si O2"
_cell_formula_units_Z 64
_cell_length_a 13.887634
_cell_length_b 23.002153
_cell_length_c 10.412857
_cell_angle_alpha 90.000000
_cell_angle_beta 90.000000
_cell_angle_gamma 90.000000
_cell_volume 3326.340124
_symmetry_space_group_name_H-M "C C C M"
_symmetry_group_IT_number 66
_symmetry_cell_setting 'orthorhombic'
loop_
_space_group_symop_operation_xyz
x,y,z
-x,-y,z
x,-y,1/2-z
-x,y,1/2-z
-x,-y,-z
x,y,-z
-x,y,1/2+z
x,-y,1/2+z
1/2+x,1/2+y,z
1/2-x,1/2-y,z
1/2+x,1/2-y,1/2-z
1/2-x,1/2+y,1/2-z
1/2-x,1/2-y,-z
1/2+x,1/2+y,-z
1/2-x,1/2+y,1/2+z
1/2+x,1/2-y,1/2+z
loop_
_atom_site_type_symbol
_atom_site_label
_atom_site_fract_x
_atom_site_fract_y
_atom_site_fract_z
Si Si1 0.132513 0.403697 0.500000
Si Si2 0.719180 0.934903 0.233590
Si Si3 0.905530 0.617004 0.000000
Si Si4 0.606994 0.656942 0.763601
Si Si5 0.696751 0.309532 0.000000
Si Si6 0.135510 0.244429 0.000000
O O1 0.158121 0.432763 0.365242
O O2 0.213790 0.353619 0.500000
O O3 0.019825 0.391494 0.500000
O O4 0.646669 0.914011 0.121225
O O5 0.809216 0.890754 0.217422
O O6 0.759759 0.000000 0.250000
O O7 0.895670 0.687787 0.000000
O O8 0.500000 0.631430 0.750000
O O9 0.633525 0.684462 0.626683
O O10 0.607451 0.706071 0.874877
O O11 0.750000 0.250000 0.000000
O O12 0.250000 0.250000 0.000000
#
# Coordination Sequence:
#
# PCOD9499001 Si02
#       6
#     8  16   8  16   8   8
#     4  10  25  40  61  94 124 163 211 253 315 372
#     4  11  24  44  65  90 127 167 214 265 309 367
#     4  12  25  41  65  96 127 167 211 257 320 377
#     4  11  24  41  65  96 127 166 210 256 317 375
#     4  10  23  40  59  91 132 162 199 254 306 375
#     4  12  23  43  65  94 133 166 203 262 313 381
#
# _framework density 19.240366000000002
#
# number of rings (size 3 to 8) (size 9 to 14) (size 15 to 20)
#    0.000    1.000    2.500    3.000    7.000    3.500 
#    0.000    0.000    0.000    7.500    0.000    0.000 
#    0.000    0.000    0.000    0.000    0.000    0.000 
#
# Total GULP energy -178289.493051 kJ/mol
# GULP energy per Si atom -5571.546658 kJ/mol
# Density = 1.919657 g / cm^3
# Si number density = 19.240366 Si / 1000 Ang^3
#
#
#
# Elastic Constant Matrix: (Units=GPa)
#
#
# Indices 1 2 3 4 5 6 
#
# 1 145.0947 12.1154 39.7299 0.0000 0.0000 0.0000
# 2 12.1154 91.1557 46.6393 0.0000 0.0000 0.0000
# 3 39.7299 46.6393 150.8437 0.0000 0.0000 0.0000
# 4 0.0000 0.0000 0.0000 -14.2875 0.0000 0.0000
# 5 0.0000 0.0000 0.0000 0.0000 24.8848 0.0000
# 6 0.0000 0.0000 0.0000 0.0000 0.0000 -16.7450
#
#
#
# Elastic Compliance Matrix: (Units=1/GPa)
#
#
# Indices 1 2 3 4 5 6 
#
# 1 0.007428 0.000016 -0.001961 0.000000 0.000000 0.000000
# 2 0.000016 0.013032 -0.004034 0.000000 0.000000 0.000000
# 3 -0.001961 -0.004034 0.008393 0.000000 0.000000 0.000000
# 4 0.000000 0.000000 0.000000 -0.069991 0.000000 0.000000
# 5 0.000000 0.000000 0.000000 0.000000 0.040185 0.000000
# 6 0.000000 0.000000 0.000000 0.000000 0.000000 -0.059719
#
#
# Mechanical properties :
#
#
# Convention : Reuss Voigt Hill
#
# Bulk Modulus (GPa) = 59.18786 64.89592 62.04189
# Shear Modulus (GPa) = -116.05371 18.01109 -49.02131
#
# Velocity S-wave (km/s) = -7.77488 3.06291 -5.05309
# Velocity P-wave (km/s) = 7.05473 6.80521 1.31499
#
# Compressibility (1/GPa) = 0.01689536
#
# Stress axis : x y z
#
# Youngs Moduli (GPa) = 134.63013 76.73515 119.14504
#
# Poissons Ratio (x) = -0.00125 0.23369
# Poissons Ratio (y) = -0.00220 0.48058
# Poissons Ratio (z) = 0.26406 0.30952
#
# Static dielectric constant tensor:
#      x y z
#    x 1.629770 0.000000 0.000000 
#    y 0.000000 1.821230 0.000000 
#    z 0.000000 0.000000 1.619960 
# 
# From -- ./inp_files/5144.got.cif
#   From: 2010.05.17/outbox.cif.g08.bks.cpg/sg66_3_cif.got.tgz:5144.got - 2010.06.03 17:51:23.
