data_PCOD9499435
_publ_section_title
;
Structure prediction by ZEFSAII (Michael W. Deem and Ramdas Pophale) SiO2 
 PCOD9499435
Probable space group: C C C M
;
_chemical_formula_sum "Si O2"
_cell_formula_units_Z 60
_cell_length_a 15.770460
_cell_length_b 10.761034
_cell_length_c 16.492287
_cell_angle_alpha 90.000000
_cell_angle_beta 90.000000
_cell_angle_gamma 90.000000
_cell_volume 2798.847582
_symmetry_space_group_name_H-M "C C C M"
_symmetry_group_IT_number 66
_symmetry_cell_setting 'orthorhombic'
loop_
_space_group_symop_operation_xyz
x,y,z
-x,-y,z
x,-y,1/2-z
-x,y,1/2-z
-x,-y,-z
x,y,-z
-x,y,1/2+z
x,-y,1/2+z
1/2+x,1/2+y,z
1/2-x,1/2-y,z
1/2+x,1/2-y,1/2-z
1/2-x,1/2+y,1/2-z
1/2-x,1/2-y,-z
1/2+x,1/2+y,-z
1/2-x,1/2+y,1/2+z
1/2+x,1/2-y,1/2+z
loop_
_atom_site_type_symbol
_atom_site_label
_atom_site_fract_x
_atom_site_fract_y
_atom_site_fract_z
Si Si1 0.890913 0.251202 0.000000
Si Si2 0.985925 0.193989 0.366491
Si Si3 0.876524 0.049013 0.500000
Si Si4 0.592242 0.937321 0.830230
Si Si5 0.000000 0.000000 0.250000
Si Si6 0.315377 0.991934 0.500000
O O1 0.950186 0.271227 0.921980
O O2 0.818813 0.356067 0.000000
O O3 0.879837 0.101561 0.000000
O O4 0.925249 0.111469 0.424359
O O5 0.927242 0.291208 0.319047
O O6 0.039946 0.099243 0.311307
O O7 0.776606 0.070801 0.500000
O O8 0.500000 0.000000 0.835931
O O9 0.633619 0.000000 0.750000
O O10 0.638917 0.952993 0.916268
#
# Coordination Sequence:
#
# PCOD9499435 Si02
#       6
#     8  16   8  16   4   8
#     4  11  20  43  63  93 125 172 217 262 322 394
#     4  11  22  39  69  92 128 167 217 278 315 390
#     4  11  24  42  61  96 130 170 219 258 343 394
#     4  11  23  41  66  98 125 164 225 271 319 391
#     4  12  20  38  66 100 120 162 214 274 332 354
#     4  12  24  42  68  92 135 179 204 271 336 388
#
# _framework density 21.437396
#
# number of rings (size 3 to 8) (size 9 to 14) (size 15 to 20)
#    0.000    0.800    5.333    4.800    0.000    2.133 
#    2.400    0.000    0.000    0.000    0.000    0.000 
#    0.000    0.000    0.000    0.000    0.000    0.000 
#
# Total GULP energy -167085.517160 kJ/mol
# GULP energy per Si atom -5569.517239 kJ/mol
# Density = 2.138860 g / cm^3
# Si number density = 21.437396 Si / 1000 Ang^3
#
#
#
# Elastic Constant Matrix: (Units=GPa)
#
#
# Indices 1 2 3 4 5 6 
#
# 1 76.2122 4.0161 25.6072 0.0000 0.0000 0.0000
# 2 4.0161 134.7506 41.3298 0.0000 0.0000 0.0000
# 3 25.6072 41.3298 134.7244 0.0000 0.0000 0.0000
# 4 0.0000 0.0000 0.0000 11.6322 0.0000 0.0000
# 5 0.0000 0.0000 0.0000 0.0000 -121.0934 0.0000
# 6 0.0000 0.0000 0.0000 0.0000 0.0000 23.8488
#
#
#
# Elastic Compliance Matrix: (Units=1/GPa)
#
#
# Indices 1 2 3 4 5 6 
#
# 1 0.014040 0.000442 -0.002804 0.000000 0.000000 0.000000
# 2 0.000442 0.008206 -0.002601 0.000000 0.000000 0.000000
# 3 -0.002804 -0.002601 0.008754 0.000000 0.000000 0.000000
# 4 0.000000 0.000000 0.000000 0.085968 0.000000 0.000000
# 5 0.000000 0.000000 0.000000 0.000000 -0.008258 0.000000
# 6 0.000000 0.000000 0.000000 0.000000 0.000000 0.041931
#
#
# Mechanical properties :
#
#
# Convention : Reuss Voigt Hill
#
# Bulk Modulus (GPa) = 47.45634 54.17703 50.81668
# Shear Modulus (GPa) = 29.83440 1.19314 15.51377
#
# Velocity S-wave (km/s) = 3.73460 0.74684 2.69304
# Velocity P-wave (km/s) = 6.38604 5.10595 5.78153
#
# Compressibility (1/GPa) = 0.02107200
#
# Stress axis : x y z
#
# Youngs Moduli (GPa) = 71.22422 121.86508 114.23963
#
# Poissons Ratio (x) = -0.05382 0.32034
# Poissons Ratio (y) = -0.03145 0.29717
# Poissons Ratio (z) = 0.19972 0.31700
#
# Static dielectric constant tensor:
#      x y z
#    x 1.758220 0.000000 0.000000 
#    y 0.000000 1.842590 0.000000 
#    z 0.000000 0.000000 1.865710 
# 
# From -- ./inp_files/25705.got.cif
#   From: 2010.05.17/outbox.cif.g08.bks.cpg/sg66_13_cif.got.tgz:25705.got - 2010.06.03 17:51:23.
