data_PCOD9499543
_publ_section_title
;
Structure prediction by ZEFSAII (Michael W. Deem and Ramdas Pophale) SiO2 
 PCOD9499543
Probable space group: C C C M
;
_chemical_formula_sum "Si O2"
_cell_formula_units_Z 88
_cell_length_a 10.749690
_cell_length_b 23.580411
_cell_length_c 16.235508
_cell_angle_alpha 90.000000
_cell_angle_beta 90.000000
_cell_angle_gamma 90.000000
_cell_volume 4115.410798
_symmetry_space_group_name_H-M "C C C M"
_symmetry_group_IT_number 66
_symmetry_cell_setting 'orthorhombic'
loop_
_space_group_symop_operation_xyz
x,y,z
-x,-y,z
x,-y,1/2-z
-x,y,1/2-z
-x,-y,-z
x,y,-z
-x,y,1/2+z
x,-y,1/2+z
1/2+x,1/2+y,z
1/2-x,1/2-y,z
1/2+x,1/2-y,1/2-z
1/2-x,1/2+y,1/2-z
1/2-x,1/2-y,-z
1/2+x,1/2+y,-z
1/2-x,1/2+y,1/2+z
1/2+x,1/2-y,1/2+z
loop_
_atom_site_type_symbol
_atom_site_label
_atom_site_fract_x
_atom_site_fract_y
_atom_site_fract_z
Si Si1 0.080812 0.791954 0.908084
Si Si2 0.644741 0.368496 0.590747
Si Si3 0.352708 0.514164 0.341060
Si Si4 0.028420 0.404207 0.000000
Si Si5 0.113949 0.308149 0.123106
Si Si6 0.250000 0.750000 0.230224
Si Si7 0.201444 0.482897 0.500000
O O1 0.173821 0.788980 0.832576
O O2 0.991397 0.845015 0.895881
O O3 0.985541 0.738566 0.905236
O O4 0.136849 0.794151 0.000000
O O5 0.648580 0.394228 0.500000
O O6 0.672101 0.418640 0.651674
O O7 0.743451 0.317290 0.592127
O O8 0.500000 0.500000 0.347157
O O9 0.308065 0.500000 0.250000
O O10 0.283097 0.484441 0.416956
O O11 0.057166 0.365848 0.918330
O O12 0.116736 0.459733 0.000000
O O13 0.889944 0.428936 0.000000
O O14 0.152481 0.287044 0.215452
#
# Coordination Sequence:
#
# PCOD9499543 Si02
#       7
#    16  16  16   8  16   8   8
#     4  11  24  45  68  99 140 185 231 285 360 430
#     4  11  21  42  73  97 127 185 239 285 348 426
#     4  11  24  44  71 106 138 183 238 297 362 427
#     4  11  24  45  76  98 135 195 237 293 349 427
#     4  12  21  43  70 100 136 182 232 277 354 420
#     4  12  27  39  62 104 154 174 230 299 343 434
#     4  11  23  50  72  99 143 182 250 303 352 406
#
# _framework density 21.383042
#
# number of rings (size 3 to 8) (size 9 to 14) (size 15 to 20)
#    0.000    0.727    6.364    1.091    0.000    4.727 
#    9.818    1.818    0.000    0.000    0.000    0.000 
#    0.000    0.000    0.000    0.000    0.000    0.000 
#
# Total GULP energy -245226.344033 kJ/mol
# GULP energy per Si atom -5573.326001 kJ/mol
# Density = 2.133437 g / cm^3
# Si number density = 21.383042 Si / 1000 Ang^3
#
#
#
# Elastic Constant Matrix: (Units=GPa)
#
#
# Indices 1 2 3 4 5 6 
#
# 1 59.9910 9.0738 46.9418 0.0000 0.0000 0.0000
# 2 9.0738 68.4890 46.6302 0.0000 0.0000 0.0000
# 3 46.9418 46.6302 184.0448 0.0000 0.0000 0.0000
# 4 0.0000 0.0000 0.0000 585.6749 0.0000 0.0000
# 5 0.0000 0.0000 0.0000 0.0000 35.6790 0.0000
# 6 0.0000 0.0000 0.0000 0.0000 0.0000 31.1621
#
#
#
# Elastic Compliance Matrix: (Units=1/GPa)
#
#
# Indices 1 2 3 4 5 6 
#
# 1 0.020886 0.001039 -0.005590 0.000000 0.000000 0.000000
# 2 0.001039 0.017696 -0.004749 0.000000 0.000000 0.000000
# 3 -0.005590 -0.004749 0.008062 0.000000 0.000000 0.000000
# 4 0.000000 0.000000 0.000000 0.001707 0.000000 0.000000
# 5 0.000000 0.000000 0.000000 0.000000 0.028028 0.000000
# 6 0.000000 0.000000 0.000000 0.000000 0.000000 0.032090
#
#
# Mechanical properties :
#
#
# Convention : Reuss Voigt Hill
#
# Bulk Modulus (GPa) = 35.65678 57.53517 46.59598
# Shear Modulus (GPa) = 36.65179 144.49513 90.57346
#
# Velocity S-wave (km/s) = 4.14461 8.22930 6.51533
# Velocity P-wave (km/s) = 6.29406 10.82869 8.85651
#
# Compressibility (1/GPa) = 0.02804516
#
# Stress axis : x y z
#
# Youngs Moduli (GPa) = 47.87794 56.50904 124.03145
#
# Poissons Ratio (x) = -0.05872 0.69340
# Poissons Ratio (y) = -0.04975 0.58898
# Poissons Ratio (z) = 0.26766 0.26834
#
# Static dielectric constant tensor:
#      x y z
#    x 1.830720 0.000000 0.000000 
#    y 0.000000 1.831110 0.000000 
#    z 0.000000 0.000000 1.804930 
# 
# From -- ./inp_files/26572.got.cif
#   From: 2010.05.17/outbox.cif.g08.bks.cpg/sg66_14_cif.got.tgz:26572.got - 2010.06.03 17:51:23.
