data_PCOD9499144
_publ_section_title
;
Structure prediction by ZEFSAII (Michael W. Deem and Ramdas Pophale) SiO2 
 PCOD9499144
Probable space group: C C C M
;
_chemical_formula_sum "Si O2"
_cell_formula_units_Z 112
_cell_length_a 13.402918
_cell_length_b 15.121399
_cell_length_c 26.880542
_cell_angle_alpha 90.000000
_cell_angle_beta 90.000000
_cell_angle_gamma 90.000000
_cell_volume 5447.902856
_symmetry_space_group_name_H-M "C C C M"
_symmetry_group_IT_number 66
_symmetry_cell_setting 'orthorhombic'
loop_
_space_group_symop_operation_xyz
x,y,z
-x,-y,z
x,-y,1/2-z
-x,y,1/2-z
-x,-y,-z
x,y,-z
-x,y,1/2+z
x,-y,1/2+z
1/2+x,1/2+y,z
1/2-x,1/2-y,z
1/2+x,1/2-y,1/2-z
1/2-x,1/2+y,1/2-z
1/2-x,1/2-y,-z
1/2+x,1/2+y,-z
1/2-x,1/2+y,1/2+z
1/2+x,1/2-y,1/2+z
loop_
_atom_site_type_symbol
_atom_site_label
_atom_site_fract_x
_atom_site_fract_y
_atom_site_fract_z
Si Si1 0.894595 0.623804 0.220792
Si Si2 0.845964 0.297574 0.182077
Si Si3 0.406793 0.704190 0.555509
Si Si4 0.112337 0.025113 0.192320
Si Si5 0.955340 0.789501 0.163921
Si Si6 0.802404 0.395356 0.555571
Si Si7 0.318032 0.019926 0.352055
O O1 0.822938 0.659974 0.263966
O O2 0.900959 0.698242 0.178132
O O3 0.864607 0.534732 0.193842
O O4 0.000000 0.616696 0.250000
O O5 0.750000 0.250000 0.161628
O O6 0.867291 0.383373 0.148233
O O7 0.935764 0.227923 0.187330
O O8 0.449414 0.689547 0.500000
O O9 0.470211 0.694494 0.605347
O O10 0.311648 0.639020 0.561409
O O11 0.365304 0.804552 0.557293
O O12 0.109942 0.130902 0.185529
O O13 0.199796 0.979826 0.160768
O O14 0.124111 0.000000 0.250000
O O15 0.000000 0.000000 0.176454
O O16 0.813041 0.432930 0.500000
O O17 0.831155 0.464365 0.597864
#
# Coordination Sequence:
#
# PCOD9499144 Si02
#       7
#    16  16  16  16  16  16  16
#     4  10  24  38  61  88 124 161 200 243 313 374
#     4  11  26  39  56  83 125 167 207 244 305 371
#     4   9  17  35  62  95 123 150 198 260 318 367
#     4  11  25  37  60  88 122 165 217 252 297 359
#     4  11  22  39  61  89 125 160 197 264 307 370
#     4   9  18  34  62  97 124 149 198 264 321 375
#     4  12  22  40  64  88 126 164 201 259 316 382
#
# _framework density 20.55837
#
# number of rings (size 3 to 8) (size 9 to 14) (size 15 to 20)
#    0.000    1.571    2.857    3.000   10.000    4.000 
#    0.000    0.714    0.000    6.857    0.000    0.000 
#    0.000    0.000    0.000    0.000    0.000    0.000 
#
# Total GULP energy -312736.265302 kJ/mol
# GULP energy per Si atom -5584.576166 kJ/mol
# Density = 2.051158 g / cm^3
# Si number density = 20.558370 Si / 1000 Ang^3
#
#
#
# Elastic Constant Matrix: (Units=GPa)
#
#
# Indices 1 2 3 4 5 6 
#
# 1 22.6126 -4.5901 -1.5095 0.0000 0.0000 0.0000
# 2 -4.5901 56.7833 27.7386 0.0000 0.0000 0.0000
# 3 -1.5095 27.7386 130.8375 0.0000 0.0000 0.0000
# 4 0.0000 0.0000 0.0000 25.2026 0.0000 0.0000
# 5 0.0000 0.0000 0.0000 0.0000 15.0018 0.0000
# 6 0.0000 0.0000 0.0000 0.0000 0.0000 26.0338
#
#
#
# Elastic Compliance Matrix: (Units=1/GPa)
#
#
# Indices 1 2 3 4 5 6 
#
# 1 0.044970 0.003772 -0.000281 0.000000 0.000000 0.000000
# 2 0.003772 0.019962 -0.004189 0.000000 0.000000 0.000000
# 3 -0.000281 -0.004189 0.008528 0.000000 0.000000 0.000000
# 4 0.000000 0.000000 0.000000 0.039678 0.000000 0.000000
# 5 0.000000 0.000000 0.000000 0.000000 0.066659 0.000000
# 6 0.000000 0.000000 0.000000 0.000000 0.000000 0.038412
#
#
# Mechanical properties :
#
#
# Convention : Reuss Voigt Hill
#
# Bulk Modulus (GPa) = 13.87620 28.16792 21.02206
# Shear Modulus (GPa) = 20.52336 25.82060 23.17198
#
# Velocity S-wave (km/s) = 3.16301 3.54780 3.36092
# Velocity P-wave (km/s) = 4.48373 5.52392 5.03078
#
# Compressibility (1/GPa) = 0.07206582
#
# Stress axis : x y z
#
# Youngs Moduli (GPa) = 22.23693 50.09548 117.26305
#
# Poissons Ratio (x) = -0.18898 0.03294
# Poissons Ratio (y) = -0.08389 0.49116
# Poissons Ratio (z) = 0.00625 0.20983
#
# Static dielectric constant tensor:
#      x y z
#    x 1.782260 0.000000 0.000000 
#    y 0.000000 1.773170 0.000000 
#    z 0.000000 0.000000 1.737930 
# 
# From -- ./inp_files/64692.got.cif
#   From: 2010.05.17/outbox.cif.g08.bks.cpg/sg66_33_cif.got.tgz:64692.got - 2010.06.03 17:51:23.
