data_PCOD9499878
_publ_section_title
;
Structure prediction by ZEFSAII (Michael W. Deem and Ramdas Pophale) SiO2 
 PCOD9499878
Probable space group: C C C M
;
_chemical_formula_sum "Si O2"
_cell_formula_units_Z 72
_cell_length_a 8.542289
_cell_length_b 25.628651
_cell_length_c 15.095189
_cell_angle_alpha 90.000000
_cell_angle_beta 90.000000
_cell_angle_gamma 90.000000
_cell_volume 3304.749628
_symmetry_space_group_name_H-M "C C C M"
_symmetry_group_IT_number 66
_symmetry_cell_setting 'orthorhombic'
loop_
_space_group_symop_operation_xyz
x,y,z
-x,-y,z
x,-y,1/2-z
-x,y,1/2-z
-x,-y,-z
x,y,-z
-x,y,1/2+z
x,-y,1/2+z
1/2+x,1/2+y,z
1/2-x,1/2-y,z
1/2+x,1/2-y,1/2-z
1/2-x,1/2+y,1/2-z
1/2-x,1/2-y,-z
1/2+x,1/2+y,-z
1/2-x,1/2+y,1/2+z
1/2+x,1/2-y,1/2+z
loop_
_atom_site_type_symbol
_atom_site_label
_atom_site_fract_x
_atom_site_fract_y
_atom_site_fract_z
Si Si1 0.539231 0.160300 0.000000
Si Si2 0.379923 0.795882 0.669126
Si Si3 0.864808 0.803122 0.500000
Si Si4 0.878650 0.453328 0.500000
Si Si5 0.634971 0.532767 0.843783
Si Si6 0.070366 0.151783 0.160198
O O1 0.483547 0.194740 0.083046
O O2 0.456640 0.104133 0.000000
O O3 0.725622 0.154285 0.000000
O O4 0.500000 0.793838 0.750000
O O5 0.250000 0.750000 0.665851
O O6 0.257435 0.843133 0.667396
O O7 0.750000 0.750000 0.500000
O O8 0.979775 0.816725 0.417226
O O9 0.778470 0.460327 0.589871
O O10 0.000000 0.500000 0.500000
O O11 0.500000 0.500000 0.890019
O O12 0.667251 0.500000 0.750000
O O13 0.553372 0.589745 0.838850
O O14 0.000000 0.174131 0.250000
#
# Coordination Sequence:
#
# PCOD9499878 Si02
#       6
#     8  16   8   8  16  16
#     4  12  26  48  72 110 156 200 250 314 382 449
#     4  12  26  47  75 109 151 197 250 310 381 451
#     4  12  28  49  77 113 155 210 262 309 380 458
#     4  12  28  45  71 112 148 194 247 313 382 442
#     4  11  24  48  75 107 142 198 254 312 382 458
#     4  12  24  46  76 108 150 196 256 315 377 455
#
# _framework density 21.786822999999998
#
# number of rings (size 3 to 8) (size 9 to 14) (size 15 to 20)
#    0.000    0.222    4.444    5.333    3.111    4.000 
#    0.000    0.000    0.000    0.000    0.000    0.000 
#    0.000    0.000    0.000    0.000    0.000    0.000 
#
# Total GULP energy -200565.403927 kJ/mol
# GULP energy per Si atom -5571.261220 kJ/mol
# Density = 2.173724 g / cm^3
# Si number density = 21.786823 Si / 1000 Ang^3
#
#
#
# Elastic Constant Matrix: (Units=GPa)
#
#
# Indices 1 2 3 4 5 6 
#
# 1 155.0723 46.0908 81.9111 0.0000 0.0000 0.0000
# 2 46.0908 160.8533 52.5496 0.0000 0.0000 0.0000
# 3 81.9111 52.5496 208.4448 0.0000 0.0000 0.0000
# 4 0.0000 0.0000 0.0000 313.8628 0.0000 0.0000
# 5 0.0000 0.0000 0.0000 0.0000 48.1473 0.0000
# 6 0.0000 0.0000 0.0000 0.0000 0.0000 48.6495
#
#
#
# Elastic Compliance Matrix: (Units=1/GPa)
#
#
# Indices 1 2 3 4 5 6 
#
# 1 0.008439 -0.001454 -0.002949 0.000000 0.000000 0.000000
# 2 -0.001454 0.007026 -0.001200 0.000000 0.000000 0.000000
# 3 -0.002949 -0.001200 0.006259 0.000000 0.000000 0.000000
# 4 0.000000 0.000000 0.000000 0.003186 0.000000 0.000000
# 5 0.000000 0.000000 0.000000 0.000000 0.020770 0.000000
# 6 0.000000 0.000000 0.000000 0.000000 0.000000 0.020555
#
#
# Mechanical properties :
#
#
# Convention : Reuss Voigt Hill
#
# Bulk Modulus (GPa) = 95.09196 98.38594 96.73895
# Shear Modulus (GPa) = 61.76906 105.05318 83.41112
#
# Velocity S-wave (km/s) = 5.33040 6.95150 6.19421
# Velocity P-wave (km/s) = 9.03468 10.47319 9.78042
#
# Compressibility (1/GPa) = 0.01051614
#
# Stress axis : x y z
#
# Youngs Moduli (GPa) = 118.49943 142.33834 159.77268
#
# Poissons Ratio (x) = 0.20703 0.47125
# Poissons Ratio (y) = 0.17236 0.19166
# Poissons Ratio (z) = 0.34951 0.17075
#
# Static dielectric constant tensor:
#      x y z
#    x 1.937640 0.000000 0.000000 
#    y 0.000000 1.927410 0.000000 
#    z 0.000000 0.000000 1.898240 
# 
# From -- ./inp_files/24553.got.cif
#   From: 2010.05.17/outbox.cif.g08.bks.cpg/sg66_13_cif.got.tgz:24553.got - 2010.06.03 17:51:23.
