data_PCOD9499764
_publ_section_title
;
Structure prediction by ZEFSAII (Michael W. Deem and Ramdas Pophale) SiO2 
 PCOD9499764
Probable space group: C C C M
;
_chemical_formula_sum "Si O2"
_cell_formula_units_Z 64
_cell_length_a 18.257325
_cell_length_b 8.628638
_cell_length_c 20.479035
_cell_angle_alpha 90.000000
_cell_angle_beta 90.000000
_cell_angle_gamma 90.000000
_cell_volume 3226.182151
_symmetry_space_group_name_H-M "C C C M"
_symmetry_group_IT_number 66
_symmetry_cell_setting 'orthorhombic'
loop_
_space_group_symop_operation_xyz
x,y,z
-x,-y,z
x,-y,1/2-z
-x,y,1/2-z
-x,-y,-z
x,y,-z
-x,y,1/2+z
x,-y,1/2+z
1/2+x,1/2+y,z
1/2-x,1/2-y,z
1/2+x,1/2-y,1/2-z
1/2-x,1/2+y,1/2-z
1/2-x,1/2-y,-z
1/2+x,1/2+y,-z
1/2-x,1/2+y,1/2+z
1/2+x,1/2-y,1/2+z
loop_
_atom_site_type_symbol
_atom_site_label
_atom_site_fract_x
_atom_site_fract_y
_atom_site_fract_z
Si Si1 0.397562 0.653060 0.634241
Si Si2 0.568972 0.707285 0.631776
Si Si3 0.335662 0.210016 0.000000
Si Si4 0.673250 0.181886 0.241811
Si Si5 0.576879 0.903759 0.500000
O O1 0.482267 0.698739 0.644562
O O2 0.398371 0.466636 0.631678
O O3 0.371006 0.717665 0.564968
O O4 0.349533 0.727257 0.692084
O O5 0.609574 0.794096 0.689619
O O6 0.579847 0.796160 0.563764
O O7 0.250000 0.250000 0.000000
O O8 0.357770 0.029072 0.000000
O O9 0.750000 0.250000 0.217515
O O10 0.683022 0.000000 0.250000
O O11 0.500000 0.000000 0.500000
#
# Coordination Sequence:
#
# PCOD9499764 Si02
#       5
#    16  16   8  16   8
#     4  11  23  44  67  99 135 177 228 278 346 405
#     4  11  24  42  70  96 132 179 227 282 337 413
#     4  12  25  41  67  99 137 176 225 282 345 403
#     4  12  26  43  66  96 137 178 226 284 345 412
#     4  12  23  43  69 101 134 174 235 281 338 411
#
# _framework density 19.837689999999998
#
# number of rings (size 3 to 8) (size 9 to 14) (size 15 to 20)
#    0.000    0.500    2.500    6.000    0.000    7.000 
#    0.000    1.875    0.000    0.000    0.000    0.000 
#    0.000    0.000    0.000    0.000    0.000    0.000 
#
# Total GULP energy -179098.267252 kJ/mol
# GULP energy per Si atom -5596.820852 kJ/mol
# Density = 1.979254 g / cm^3
# Si number density = 19.837690 Si / 1000 Ang^3
#
#
#
# Elastic Constant Matrix: (Units=GPa)
#
#
# Indices 1 2 3 4 5 6 
#
# 1 89.3263 50.0662 15.3940 0.0000 0.0000 0.0000
# 2 50.0662 117.5187 3.4481 0.0000 0.0000 0.0000
# 3 15.3940 3.4481 80.1555 0.0000 0.0000 0.0000
# 4 0.0000 0.0000 0.0000 -8.4667 0.0000 0.0000
# 5 0.0000 0.0000 0.0000 0.0000 11.6254 0.0000
# 6 0.0000 0.0000 0.0000 0.0000 0.0000 38.6030
#
#
#
# Elastic Compliance Matrix: (Units=1/GPa)
#
#
# Indices 1 2 3 4 5 6 
#
# 1 0.015250 -0.006419 -0.002653 0.000000 0.000000 0.000000
# 2 -0.006419 0.011222 0.000750 0.000000 0.000000 0.000000
# 3 -0.002653 0.000750 0.012953 0.000000 0.000000 0.000000
# 4 0.000000 0.000000 0.000000 -0.118110 0.000000 0.000000
# 5 0.000000 0.000000 0.000000 0.000000 0.086019 0.000000
# 6 0.000000 0.000000 0.000000 0.000000 0.000000 0.025905
#
#
# Mechanical properties :
#
#
# Convention : Reuss Voigt Hill
#
# Bulk Modulus (GPa) = 43.89523 47.20188 45.54856
# Shear Modulus (GPa) = 86.99504 22.89184 54.94344
#
# Velocity S-wave (km/s) = 6.62938 3.40068 5.26845
# Velocity P-wave (km/s) = 8.98740 6.26619 7.74721
#
# Compressibility (1/GPa) = 0.02278152
#
# Stress axis : x y z
#
# Youngs Moduli (GPa) = 65.57460 89.11106 77.20260
#
# Poissons Ratio (x) = 0.57200 0.20479
# Poissons Ratio (y) = 0.42092 -0.05791
# Poissons Ratio (z) = 0.17394 -0.06684
#
# Static dielectric constant tensor:
#      x y z
#    x 1.668660 0.000000 0.000000 
#    y 0.000000 1.714120 0.000000 
#    z 0.000000 0.000000 1.662310 
# 
# From -- ./inp_files/50566.got.cif
#   From: 2010.05.17/outbox.cif.g08.bks.cpg/sg66_26_cif.got.tgz:50566.got - 2010.06.03 17:51:23.
