data_PCOD9499608
_publ_section_title
;
Structure prediction by ZEFSAII (Michael W. Deem and Ramdas Pophale) SiO2 
 PCOD9499608
Probable space group: C C C M
;
_chemical_formula_sum "Si O2"
_cell_formula_units_Z 80
_cell_length_a 12.400697
_cell_length_b 19.063634
_cell_length_c 14.613000
_cell_angle_alpha 90.000000
_cell_angle_beta 90.000000
_cell_angle_gamma 90.000000
_cell_volume 3454.547525
_symmetry_space_group_name_H-M "C C C M"
_symmetry_group_IT_number 66
_symmetry_cell_setting 'orthorhombic'
loop_
_space_group_symop_operation_xyz
x,y,z
-x,-y,z
x,-y,1/2-z
-x,y,1/2-z
-x,-y,-z
x,y,-z
-x,y,1/2+z
x,-y,1/2+z
1/2+x,1/2+y,z
1/2-x,1/2-y,z
1/2+x,1/2-y,1/2-z
1/2-x,1/2+y,1/2-z
1/2-x,1/2-y,-z
1/2+x,1/2+y,-z
1/2-x,1/2+y,1/2+z
1/2+x,1/2-y,1/2+z
loop_
_atom_site_type_symbol
_atom_site_label
_atom_site_fract_x
_atom_site_fract_y
_atom_site_fract_z
Si Si1 0.813829 0.070702 0.770578
Si Si2 0.387997 0.038780 0.396978
Si Si3 0.757672 0.332303 0.603481
Si Si4 0.149871 0.200287 0.394220
Si Si5 0.998606 0.676653 0.640513
O O1 0.710260 0.038903 0.826702
O O2 0.788085 0.114654 0.678544
O O3 0.860634 0.129809 0.837128
O O4 0.878278 0.000000 0.750000
O O5 0.360940 0.013845 0.500000
O O6 0.415966 0.120895 0.399218
O O7 0.500000 0.000000 0.368430
O O8 0.714407 0.340326 0.500000
O O9 0.750000 0.250000 0.630657
O O10 0.885659 0.343813 0.603314
O O11 0.170816 0.184202 0.500000
O O12 0.250000 0.250000 0.361248
O O13 0.042363 0.246634 0.384900
O O14 0.000000 0.670312 0.750000
#
# Coordination Sequence:
#
# PCOD9499608 Si02
#       5
#    16  16  16  16  16
#     4  12  24  39  61  90 131 171 207 261 327 382
#     4  11  23  36  56  91 131 168 203 247 314 389
#     4  11  24  42  62  89 122 163 215 265 318 380
#     4  11  22  39  63  93 125 164 216 264 309 375
#     4  12  21  37  64  89 125 163 208 257 311 375
#
# _framework density 23.157879999999999
#
# number of rings (size 3 to 8) (size 9 to 14) (size 15 to 20)
#    0.000    0.600    4.000    5.400    0.000    3.200 
#    0.000    0.000    0.000    6.000    0.000    8.400 
#    0.000    0.000    0.000    0.000    0.000    0.000 
#
# Total GULP energy -223790.775209 kJ/mol
# GULP energy per Si atom -5594.769380 kJ/mol
# Density = 2.310517 g / cm^3
# Si number density = 23.157880 Si / 1000 Ang^3
#
#
#
# Elastic Constant Matrix: (Units=GPa)
#
#
# Indices 1 2 3 4 5 6 
#
# 1 25.1588 7.1479 13.3481 0.0000 0.0000 0.0000
# 2 7.1479 170.9166 66.4647 0.0000 0.0000 0.0000
# 3 13.3481 66.4647 163.1442 0.0000 0.0000 0.0000
# 4 0.0000 0.0000 0.0000 61.7379 0.0000 0.0000
# 5 0.0000 0.0000 0.0000 0.0000 29.8447 0.0000
# 6 0.0000 0.0000 0.0000 0.0000 0.0000 37.0586
#
#
#
# Elastic Compliance Matrix: (Units=1/GPa)
#
#
# Indices 1 2 3 4 5 6 
#
# 1 0.041586 -0.000494 -0.003201 0.000000 0.000000 0.000000
# 2 -0.000494 0.006958 -0.002794 0.000000 0.000000 0.000000
# 3 -0.003201 -0.002794 0.007530 0.000000 0.000000 0.000000
# 4 0.000000 0.000000 0.000000 0.016198 0.000000 0.000000
# 5 0.000000 0.000000 0.000000 0.000000 0.033507 0.000000
# 6 0.000000 0.000000 0.000000 0.000000 0.000000 0.026984
#
#
# Mechanical properties :
#
#
# Convention : Reuss Voigt Hill
#
# Bulk Modulus (GPa) = 23.20467 59.23788 41.22127
# Shear Modulus (GPa) = 31.22909 43.87885 37.55397
#
# Velocity S-wave (km/s) = 3.67622 4.35762 4.03134
# Velocity P-wave (km/s) = 5.29730 7.13821 6.28551
#
# Compressibility (1/GPa) = 0.04309478
#
# Stress axis : x y z
#
# Youngs Moduli (GPa) = 24.04638 143.71753 132.80502
#
# Poissons Ratio (x) = 0.07105 0.42512
# Poissons Ratio (y) = 0.01189 0.37109
# Poissons Ratio (z) = 0.07698 0.40159
#
# Static dielectric constant tensor:
#      x y z
#    x 1.932580 0.000000 0.000000 
#    y 0.000000 1.912110 0.000000 
#    z 0.000000 0.000000 1.927430 
# 
# From -- ./inp_files/28109.got.cif
#   From: 2010.05.17/outbox.cif.g08.bks.cpg/sg66_15_cif.got.tgz:28109.got - 2010.06.03 17:51:23.
