data_PCOD9499430
_publ_section_title
;
Structure prediction by ZEFSAII (Michael W. Deem and Ramdas Pophale) SiO2 
 PCOD9499430
Probable space group: C C C M
;
_chemical_formula_sum "Si O2"
_cell_formula_units_Z 52
_cell_length_a 5.065934
_cell_length_b 31.765009
_cell_length_c 14.760594
_cell_angle_alpha 90.000000
_cell_angle_beta 90.000000
_cell_angle_gamma 90.000000
_cell_volume 2375.266507
_symmetry_space_group_name_H-M "C C C M"
_symmetry_group_IT_number 66
_symmetry_cell_setting 'orthorhombic'
loop_
_space_group_symop_operation_xyz
x,y,z
-x,-y,z
x,-y,1/2-z
-x,y,1/2-z
-x,-y,-z
x,y,-z
-x,y,1/2+z
x,-y,1/2+z
1/2+x,1/2+y,z
1/2-x,1/2-y,z
1/2+x,1/2-y,1/2-z
1/2-x,1/2+y,1/2-z
1/2-x,1/2-y,-z
1/2+x,1/2+y,-z
1/2-x,1/2+y,1/2+z
1/2+x,1/2-y,1/2+z
loop_
_atom_site_type_symbol
_atom_site_label
_atom_site_fract_x
_atom_site_fract_y
_atom_site_fract_z
Si Si1 0.251593 0.295674 0.683311
Si Si2 0.906758 0.884140 0.354391
Si Si3 0.890167 0.562707 0.899151
Si Si4 0.000000 0.500000 0.250000
O O1 0.500000 0.291973 0.750000
O O2 0.250000 0.250000 0.635719
O O3 0.303331 0.337201 0.624425
O O4 0.000000 0.302359 0.750000
O O5 0.667163 0.915772 0.372946
O O6 0.000000 0.883320 0.250000
O O7 0.166018 0.901794 0.401395
O O8 0.835331 0.529119 0.819563
O O9 0.905350 0.544410 0.000000
#
# Coordination Sequence:
#
# PCOD9499430 Si02
#       4
#    16  16  16   4
#     4   9  17  30  57  96 130 167 219 264 306 375
#     4  11  20  41  65  94 131 174 212 262 322 383
#     4  12  26  43  68  95 129 168 214 270 327 390
#     4  12  26  50  68  96 124 170 222 270 332 392
#
# _framework density 21.892278999999998
#
# number of rings (size 3 to 8) (size 9 to 14) (size 15 to 20)
#    0.000    1.231    3.077    5.077    0.000    2.462 
#    0.000    3.077    0.000    5.538    0.000    0.000 
#    0.000    0.000    0.000    0.000    0.000    0.000 
#
# Total GULP energy -145104.855483 kJ/mol
# GULP energy per Si atom -5580.955980 kJ/mol
# Density = 2.184245 g / cm^3
# Si number density = 21.892279 Si / 1000 Ang^3
#
#
#
# Elastic Constant Matrix: (Units=GPa)
#
#
# Indices 1 2 3 4 5 6 
#
# 1 132.5960 8.3052 19.1978 0.0000 0.0000 0.0000
# 2 8.3052 95.8467 68.8745 0.0000 0.0000 0.0000
# 3 19.1978 68.8745 130.3966 0.0000 0.0000 0.0000
# 4 0.0000 0.0000 0.0000 -0.8225 0.0000 0.0000
# 5 0.0000 0.0000 0.0000 0.0000 25.9767 0.0000
# 6 0.0000 0.0000 0.0000 0.0000 0.0000 6.5671
#
#
#
# Elastic Compliance Matrix: (Units=1/GPa)
#
#
# Indices 1 2 3 4 5 6 
#
# 1 0.007709 0.000238 -0.001261 0.000000 0.000000 0.000000
# 2 0.000238 0.016823 -0.008921 0.000000 0.000000 0.000000
# 3 -0.001261 -0.008921 0.012566 0.000000 0.000000 0.000000
# 4 0.000000 0.000000 0.000000 -1.215816 0.000000 0.000000
# 5 0.000000 0.000000 0.000000 0.000000 0.038496 0.000000
# 6 0.000000 0.000000 0.000000 0.000000 0.000000 0.152274
#
#
# Mechanical properties :
#
#
# Convention : Reuss Voigt Hill
#
# Bulk Modulus (GPa) = 58.10031 61.28825 59.69428
# Shear Modulus (GPa) = -5.19577 23.84172 9.32298
#
# Velocity S-wave (km/s) = -1.54223 3.30365 2.06587
# Velocity P-wave (km/s) = 4.83999 6.52750 5.74603
#
# Compressibility (1/GPa) = 0.01721161
#
# Stress axis : x y z
#
# Youngs Moduli (GPa) = 129.71298 59.44173 79.57680
#
# Poissons Ratio (x) = -0.01414 0.10032
# Poissons Ratio (y) = -0.03086 0.70990
# Poissons Ratio (z) = 0.16352 0.53027
#
# Static dielectric constant tensor:
#      x y z
#    x 1.752260 0.000000 0.000000 
#    y 0.000000 1.918570 0.000000 
#    z 0.000000 0.000000 1.755820 
# 
# From -- ./inp_files/22534.got.cif
#   From: 2010.05.17/outbox.cif.g08.bks.cpg/sg66_12_cif.got.tgz:22534.got - 2010.06.03 17:51:23.
