data_PCOD9499026
_publ_section_title
;
Structure prediction by ZEFSAII (Michael W. Deem and Ramdas Pophale) SiO2 
 PCOD9499026
Probable space group: C C C M
;
_chemical_formula_sum "Si O2"
_cell_formula_units_Z 104
_cell_length_a 9.422955
_cell_length_b 18.756218
_cell_length_c 28.481956
_cell_angle_alpha 90.000000
_cell_angle_beta 90.000000
_cell_angle_gamma 90.000000
_cell_volume 5033.872370
_symmetry_space_group_name_H-M "C C C M"
_symmetry_group_IT_number 66
_symmetry_cell_setting 'orthorhombic'
loop_
_space_group_symop_operation_xyz
x,y,z
-x,-y,z
x,-y,1/2-z
-x,y,1/2-z
-x,-y,-z
x,y,-z
-x,y,1/2+z
x,-y,1/2+z
1/2+x,1/2+y,z
1/2-x,1/2-y,z
1/2+x,1/2-y,1/2-z
1/2-x,1/2+y,1/2-z
1/2-x,1/2-y,-z
1/2+x,1/2+y,-z
1/2-x,1/2+y,1/2+z
1/2+x,1/2-y,1/2+z
loop_
_atom_site_type_symbol
_atom_site_label
_atom_site_fract_x
_atom_site_fract_y
_atom_site_fract_z
Si Si1 0.000000 0.000000 0.096781
Si Si2 0.012107 0.785788 0.554554
Si Si3 0.671078 0.078233 0.691445
Si Si4 0.768053 0.104546 0.412303
Si Si5 0.964085 0.616418 0.553776
Si Si6 0.195927 0.876105 0.882971
Si Si7 0.163628 0.592548 0.796726
O O1 0.118293 0.045846 0.070520
O O2 0.912700 0.058956 0.124629
O O3 0.988337 0.804879 0.500000
O O4 0.889382 0.818769 0.587036
O O5 0.160481 0.821785 0.570421
O O6 0.998870 0.701014 0.558151
O O7 0.748993 0.104596 0.644435
O O8 0.714830 0.103548 0.743461
O O9 0.504519 0.100118 0.692807
O O10 0.683695 0.992062 0.692290
O O11 0.614319 0.083704 0.431690
O O12 0.928738 0.600455 0.500000
O O13 0.832879 0.599491 0.587242
O O14 0.253636 0.856933 0.832247
#
# Coordination Sequence:
#
# PCOD9499026 Si02
#       7
#     8  16  16  16  16  16  16
#     4  10  24  36  54  86 128 150 170 240 316 356
#     4  10  23  41  59  84 118 157 203 251 292 328
#     4   9  17  32  59  89 118 154 193 235 285 351
#     4  11  20  38  62  86 122 153 192 244 297 346
#     4  11  23  40  64  84 104 158 223 245 270 348
#     4  11  20  38  62  86 122 153 192 244 297 346
#     4   9  17  32  59  89 118 154 193 235 285 351
#
# _framework density 20.660038
#
# number of rings (size 3 to 8) (size 9 to 14) (size 15 to 20)
#    0.000    1.846    3.077    2.769    0.000    3.077 
#    0.000   18.462    0.000    5.538    0.000    0.000 
#    0.000    0.000    0.000    0.000    0.000    0.000 
#
# Total GULP energy -290009.297708 kJ/mol
# GULP energy per Si atom -5577.101879 kJ/mol
# Density = 2.061301 g / cm^3
# Si number density = 20.660038 Si / 1000 Ang^3
#
#
#
# Elastic Constant Matrix: (Units=GPa)
#
#
# Indices 1 2 3 4 5 6 
#
# 1 92.6641 5.2056 31.3577 0.0000 0.0000 0.0000
# 2 5.2056 25.7879 18.7962 0.0000 0.0000 0.0000
# 3 31.3577 18.7962 134.6606 0.0000 0.0000 0.0000
# 4 0.0000 0.0000 0.0000 21.6796 0.0000 0.0000
# 5 0.0000 0.0000 0.0000 0.0000 30.0326 0.0000
# 6 0.0000 0.0000 0.0000 0.0000 0.0000 25.1192
#
#
#
# Elastic Compliance Matrix: (Units=1/GPa)
#
#
# Indices 1 2 3 4 5 6 
#
# 1 0.011719 -0.000419 -0.002670 0.000000 0.000000 0.000000
# 2 -0.000419 0.043185 -0.005930 0.000000 0.000000 0.000000
# 3 -0.002670 -0.005930 0.008876 0.000000 0.000000 0.000000
# 4 0.000000 0.000000 0.000000 0.046126 0.000000 0.000000
# 5 0.000000 0.000000 0.000000 0.000000 0.033297 0.000000
# 6 0.000000 0.000000 0.000000 0.000000 0.000000 0.039810
#
#
# Mechanical properties :
#
#
# Convention : Reuss Voigt Hill
#
# Bulk Modulus (GPa) = 21.86281 40.42575 31.14428
# Shear Modulus (GPa) = 23.11613 28.54983 25.83298
#
# Velocity S-wave (km/s) = 3.34860 3.72141 3.53991
# Velocity P-wave (km/s) = 5.05529 6.17047 5.64051
#
# Compressibility (1/GPa) = 0.04573977
#
# Stress axis : x y z
#
# Youngs Moduli (GPa) = 85.33230 23.15625 112.66753
#
# Poissons Ratio (x) = 0.00971 0.30087
# Poissons Ratio (y) = 0.03577 0.66814
# Poissons Ratio (z) = 0.22787 0.13732
#
# Static dielectric constant tensor:
#      x y z
#    x 1.766880 0.000000 0.000000 
#    y 0.000000 1.773900 0.000000 
#    z 0.000000 0.000000 1.744290 
# 
# From -- ./inp_files/62679.got.cif
#   From: 2010.05.17/outbox.cif.g08.bks.cpg/sg66_32_cif.got.tgz:62679.got - 2010.06.03 17:51:23.
