data_PCOD9499780
_publ_section_title
;
Structure prediction by ZEFSAII (Michael W. Deem and Ramdas Pophale) SiO2 
 PCOD9499780
Probable space group: C C C M
;
_chemical_formula_sum "Si O2"
_cell_formula_units_Z 80
_cell_length_a 10.700465
_cell_length_b 11.561247
_cell_length_c 28.104001
_cell_angle_alpha 90.000000
_cell_angle_beta 90.000000
_cell_angle_gamma 90.000000
_cell_volume 3476.766167
_symmetry_space_group_name_H-M "C C C M"
_symmetry_group_IT_number 66
_symmetry_cell_setting 'orthorhombic'
loop_
_space_group_symop_operation_xyz
x,y,z
-x,-y,z
x,-y,1/2-z
-x,y,1/2-z
-x,-y,-z
x,y,-z
-x,y,1/2+z
x,-y,1/2+z
1/2+x,1/2+y,z
1/2-x,1/2-y,z
1/2+x,1/2-y,1/2-z
1/2-x,1/2+y,1/2-z
1/2-x,1/2-y,-z
1/2+x,1/2+y,-z
1/2-x,1/2+y,1/2+z
1/2+x,1/2-y,1/2+z
loop_
_atom_site_type_symbol
_atom_site_label
_atom_site_fract_x
_atom_site_fract_y
_atom_site_fract_z
Si Si1 0.449775 0.628582 0.396020
Si Si2 0.315470 0.045179 0.901692
Si Si3 0.936918 0.335789 0.056365
Si Si4 0.550937 0.292256 0.802339
Si Si5 0.699798 0.057266 0.198060
O O1 0.500000 0.500000 0.391774
O O2 0.309817 0.613071 0.415129
O O3 0.545232 0.704881 0.426791
O O4 0.451538 0.684051 0.343504
O O5 0.327585 0.912801 0.920477
O O6 0.321428 0.032409 0.844647
O O7 0.434025 0.108495 0.924213
O O8 0.928432 0.344846 0.000000
O O9 0.500000 0.313709 0.750000
O O10 0.600294 0.161251 0.805229
O O11 0.666904 0.379726 0.809696
O O12 0.695003 0.000000 0.250000
#
# Coordination Sequence:
#
# PCOD9499780 Si02
#       5
#    16  16  16  16  16
#     4  12  25  44  75 102 143 188 233 292 363 433
#     4  11  23  45  75 102 140 187 235 292 367 426
#     4  11  27  49  72 103 138 181 242 310 368 437
#     4  11  25  43  65 103 149 185 235 289 350 430
#     4  11  24  42  69 102 142 191 236 287 351 429
#
# _framework density 23.009888
#
# number of rings (size 3 to 8) (size 9 to 14) (size 15 to 20)
#    0.000    0.800    4.000    3.000    2.800    4.000 
#    0.000    1.000    0.000    0.000    0.000    0.000 
#    0.000    0.000    0.000    0.000    0.000    0.000 
#
# Total GULP energy -224048.520701 kJ/mol
# GULP energy per Si atom -5601.213018 kJ/mol
# Density = 2.295752 g / cm^3
# Si number density = 23.009888 Si / 1000 Ang^3
#
#
#
# Elastic Constant Matrix: (Units=GPa)
#
#
# Indices 1 2 3 4 5 6 
#
# 1 93.3565 25.8182 8.6580 0.0000 0.0000 0.0000
# 2 25.8182 110.5288 17.7182 0.0000 0.0000 0.0000
# 3 8.6580 17.7182 130.1988 0.0000 0.0000 0.0000
# 4 0.0000 0.0000 0.0000 -118.6596 0.0000 0.0000
# 5 0.0000 0.0000 0.0000 0.0000 60.0004 0.0000
# 6 0.0000 0.0000 0.0000 0.0000 0.0000 24.7973
#
#
#
# Elastic Compliance Matrix: (Units=1/GPa)
#
#
# Indices 1 2 3 4 5 6 
#
# 1 0.011472 -0.002615 -0.000407 0.000000 0.000000 0.000000
# 2 -0.002615 0.009845 -0.001166 0.000000 0.000000 0.000000
# 3 -0.000407 -0.001166 0.007866 0.000000 0.000000 0.000000
# 4 0.000000 0.000000 0.000000 -0.008427 0.000000 0.000000
# 5 0.000000 0.000000 0.000000 0.000000 0.016667 0.000000
# 6 0.000000 0.000000 0.000000 0.000000 0.000000 0.040327
#
#
# Mechanical properties :
#
#
# Convention : Reuss Voigt Hill
#
# Bulk Modulus (GPa) = 48.05692 48.71922 48.38807
# Shear Modulus (GPa) = 53.72805 12.02026 32.87416
#
# Velocity S-wave (km/s) = 4.83742 2.28808 3.78391
# Velocity P-wave (km/s) = 7.22022 5.31032 6.33763
#
# Compressibility (1/GPa) = 0.02080866
#
# Stress axis : x y z
#
# Youngs Moduli (GPa) = 87.16531 101.57390 127.12461
#
# Poissons Ratio (x) = 0.26557 0.05175
# Poissons Ratio (y) = 0.22790 0.14821
# Poissons Ratio (z) = 0.03548 0.11843
#
# Static dielectric constant tensor:
#      x y z
#    x 1.891110 0.000000 0.000000 
#    y 0.000000 1.886910 0.000000 
#    z 0.000000 0.000000 1.804400 
# 
# From -- ./inp_files/68784.got.cif
#   From: 2010.05.17/outbox.cif.g08.bks.cpg/sg66_35_cif.got.tgz:68784.got - 2010.06.03 17:51:23.
