data_PCOD9499725
_publ_section_title
;
Structure prediction by ZEFSAII (Michael W. Deem and Ramdas Pophale) SiO2 
 PCOD9499725
Probable space group: C C C M
;
_chemical_formula_sum "Si O2"
_cell_formula_units_Z 56
_cell_length_a 19.513861
_cell_length_b 14.809012
_cell_length_c 8.464949
_cell_angle_alpha 90.000000
_cell_angle_beta 90.000000
_cell_angle_gamma 90.000000
_cell_volume 2446.209441
_symmetry_space_group_name_H-M "C C C M"
_symmetry_group_IT_number 66
_symmetry_cell_setting 'orthorhombic'
loop_
_space_group_symop_operation_xyz
x,y,z
-x,-y,z
x,-y,1/2-z
-x,y,1/2-z
-x,-y,-z
x,y,-z
-x,y,1/2+z
x,-y,1/2+z
1/2+x,1/2+y,z
1/2-x,1/2-y,z
1/2+x,1/2-y,1/2-z
1/2-x,1/2+y,1/2-z
1/2-x,1/2-y,-z
1/2+x,1/2+y,-z
1/2-x,1/2+y,1/2+z
1/2+x,1/2-y,1/2+z
loop_
_atom_site_type_symbol
_atom_site_label
_atom_site_fract_x
_atom_site_fract_y
_atom_site_fract_z
Si Si1 0.277944 0.852561 0.686892
Si Si2 0.075735 0.672725 0.815588
Si Si3 0.316738 0.500000 0.750000
Si Si4 0.568314 0.634985 0.175335
O O1 0.265892 0.873891 0.500000
O O2 0.250000 0.750000 0.709597
O O3 0.358153 0.864077 0.723644
O O4 0.235907 0.921057 0.798309
O O5 0.084383 0.780589 0.787025
O O6 0.000000 0.648893 0.750000
O O7 0.079635 0.651057 0.000000
O O8 0.371509 0.436622 0.837722
O O9 0.500000 0.594940 0.250000
O O10 0.554683 0.672133 0.000000
#
# Coordination Sequence:
#
# PCOD9499725 Si02
#       4
#    16  16   8  16
#     4  11  24  46  70  98 138 182 225 278 341 403
#     4  11  23  42  70 100 134 178 230 280 338 402
#     4  12  25  40  69 100 134 178 226 276 333 408
#     4  11  23  41  65  98 139 180 225 276 341 408
#
# _framework density 22.892561000000001
#
# number of rings (size 3 to 8) (size 9 to 14) (size 15 to 20)
#    0.000    0.857    2.857    6.429    0.000    8.571 
#    0.000    0.714    0.000    3.429    0.000    0.000 
#    0.000    0.000    0.000    0.000    0.000    0.000 
#
# Total GULP energy -156056.860545 kJ/mol
# GULP energy per Si atom -5573.459305 kJ/mol
# Density = 2.284046 g / cm^3
# Si number density = 22.892561 Si / 1000 Ang^3
#
#
#
# Elastic Constant Matrix: (Units=GPa)
#
#
# Indices 1 2 3 4 5 6 
#
# 1 208.9829 30.4050 34.2138 0.0000 0.0000 0.0000
# 2 30.4050 42.9782 -7.2164 0.0000 0.0000 0.0000
# 3 34.2138 -7.2164 74.9475 0.0000 0.0000 0.0000
# 4 0.0000 0.0000 0.0000 3.9440 0.0000 0.0000
# 5 0.0000 0.0000 0.0000 0.0000 17.9231 0.0000
# 6 0.0000 0.0000 0.0000 0.0000 0.0000 45.2390
#
#
#
# Elastic Compliance Matrix: (Units=1/GPa)
#
#
# Indices 1 2 3 4 5 6 
#
# 1 0.006006 -0.004787 -0.003203 0.000000 0.000000 0.000000
# 2 -0.004787 0.027465 0.004830 0.000000 0.000000 0.000000
# 3 -0.003203 0.004830 0.015270 0.000000 0.000000 0.000000
# 4 0.000000 0.000000 0.000000 0.253552 0.000000 0.000000
# 5 0.000000 0.000000 0.000000 0.000000 0.055794 0.000000
# 6 0.000000 0.000000 0.000000 0.000000 0.000000 0.022105
#
#
# Mechanical properties :
#
#
# Convention : Reuss Voigt Hill
#
# Bulk Modulus (GPa) = 23.57317 49.07928 36.32623
# Shear Modulus (GPa) = 12.47971 31.38830 21.93401
#
# Velocity S-wave (km/s) = 2.33736 3.70687 3.09872
# Velocity P-wave (km/s) = 4.19571 6.30926 5.35774
#
# Compressibility (1/GPa) = 0.04242111
#
# Stress axis : x y z
#
# Youngs Moduli (GPa) = 166.50624 36.41031 65.48939
#
# Poissons Ratio (x) = 0.17428 0.20973
# Poissons Ratio (y) = 0.79699 -0.31628
# Poissons Ratio (z) = 0.53324 -0.17584
#
# Static dielectric constant tensor:
#      x y z
#    x 10.831020 0.000000 0.000000 
#    y 0.000000 1.856560 0.000000 
#    z 0.000000 0.000000 1.816680 
# 
# From -- ./inp_files/6013.got.cif
#   From: 2010.05.17/outbox.cif.g08.bks.cpg/sg66_4_cif.got.tgz:6013.got - 2010.06.03 17:51:23.
