data_PCOD9499217
_publ_section_title
;
Structure prediction by ZEFSAII (Michael W. Deem and Ramdas Pophale) SiO2 
 PCOD9499217
Probable space group: C C C M
;
_chemical_formula_sum "Si O2"
_cell_formula_units_Z 64
_cell_length_a 11.203381
_cell_length_b 8.901326
_cell_length_c 30.602303
_cell_angle_alpha 90.000000
_cell_angle_beta 90.000000
_cell_angle_gamma 90.000000
_cell_volume 3051.813032
_symmetry_space_group_name_H-M "C C C M"
_symmetry_group_IT_number 66
_symmetry_cell_setting 'orthorhombic'
loop_
_space_group_symop_operation_xyz
x,y,z
-x,-y,z
x,-y,1/2-z
-x,y,1/2-z
-x,-y,-z
x,y,-z
-x,y,1/2+z
x,-y,1/2+z
1/2+x,1/2+y,z
1/2-x,1/2-y,z
1/2+x,1/2-y,1/2-z
1/2-x,1/2+y,1/2-z
1/2-x,1/2-y,-z
1/2+x,1/2+y,-z
1/2-x,1/2+y,1/2+z
1/2+x,1/2-y,1/2+z
loop_
_atom_site_type_symbol
_atom_site_label
_atom_site_fract_x
_atom_site_fract_y
_atom_site_fract_z
Si Si1 0.989312 0.738067 0.500000
Si Si2 0.152925 0.115313 0.572786
Si Si3 0.704252 0.963627 0.000000
Si Si4 0.616511 0.412503 0.825545
Si Si5 0.121466 0.564372 0.799050
O O1 0.956103 0.829766 0.543045
O O2 0.893681 0.600328 0.500000
O O3 0.123013 0.681694 0.500000
O O4 0.250000 0.250000 0.575378
O O5 0.113415 0.089239 0.621908
O O6 0.218550 0.989072 0.543672
O O7 0.500000 0.500000 0.809105
O O8 0.747340 0.480859 0.815890
O O9 0.614659 0.244402 0.805354
O O10 0.119771 0.500000 0.750000
O O11 0.000000 0.500000 0.820884
#
# Coordination Sequence:
#
# PCOD9499217 Si02
#       5
#     8  16   8  16  16
#     4   8  15  27  52  84 120 170 213 249 300 357
#     4   9  16  33  54  86 128 161 209 258 305 363
#     4   8  15  27  52  84 120 172 211 251 298 359
#     4  11  24  42  68  98 129 166 210 265 324 384
#     4  10  24  45  67  93 124 161 206 262 322 391
#
# _framework density 20.971140999999999
#
# number of rings (size 3 to 8) (size 9 to 14) (size 15 to 20)
#    0.000    2.500    2.500    1.500    0.000   11.500 
#    0.000    2.500    0.000    1.500    0.000    0.000 
#    0.000    0.000    0.000    0.000    0.000    0.000 
#
# Total GULP energy -178519.556484 kJ/mol
# GULP energy per Si atom -5578.736140 kJ/mol
# Density = 2.092341 g / cm^3
# Si number density = 20.971141 Si / 1000 Ang^3
#
#
#
# Elastic Constant Matrix: (Units=GPa)
#
#
# Indices 1 2 3 4 5 6 
#
# 1 195.9201 70.4162 39.1250 0.0000 0.0000 0.0000
# 2 70.4162 64.2013 39.9215 0.0000 0.0000 0.0000
# 3 39.1250 39.9215 124.8200 0.0000 0.0000 0.0000
# 4 0.0000 0.0000 0.0000 5.9938 0.0000 0.0000
# 5 0.0000 0.0000 0.0000 0.0000 -69.2224 0.0000
# 6 0.0000 0.0000 0.0000 0.0000 0.0000 47.5492
#
#
#
# Elastic Compliance Matrix: (Units=1/GPa)
#
#
# Indices 1 2 3 4 5 6 
#
# 1 0.008441 -0.009503 0.000393 0.000000 0.000000 0.000000
# 2 -0.009503 0.030141 -0.006661 0.000000 0.000000 0.000000
# 3 0.000393 -0.006661 0.010019 0.000000 0.000000 0.000000
# 4 0.000000 0.000000 0.000000 0.166839 0.000000 0.000000
# 5 0.000000 0.000000 0.000000 0.000000 -0.014446 0.000000
# 6 0.000000 0.000000 0.000000 0.000000 0.000000 0.021031
#
#
# Mechanical properties :
#
#
# Convention : Reuss Voigt Hill
#
# Bulk Modulus (GPa) = 58.61937 75.98519 67.30228
# Shear Modulus (GPa) = 19.28628 12.56269 15.92449
#
# Velocity S-wave (km/s) = 3.03588 2.45020 2.75862
# Velocity P-wave (km/s) = 6.34837 6.65706 6.50455
#
# Compressibility (1/GPa) = 0.01705921
#
# Stress axis : x y z
#
# Youngs Moduli (GPa) = 118.47007 33.17764 99.81306
#
# Poissons Ratio (x) = 0.31528 -0.03927
# Poissons Ratio (y) = 1.12579 0.66489
# Poissons Ratio (z) = -0.04661 0.22101
#
# Static dielectric constant tensor:
#      x y z
#    x 1.848850 0.000000 0.000000 
#    y 0.000000 1.776640 0.000000 
#    z 0.000000 0.000000 -2.111370 
# 
# From -- ./inp_files/68616.got.cif
#   From: 2010.05.17/outbox.cif.g08.bks.cpg/sg66_35_cif.got.tgz:68616.got - 2010.06.03 17:51:23.
