data_PCOD9499796
_publ_section_title
;
Structure prediction by ZEFSAII (Michael W. Deem and Ramdas Pophale) SiO2 
 PCOD9499796
Probable space group: C C C M
;
_chemical_formula_sum "Si O2"
_cell_formula_units_Z 88
_cell_length_a 18.299614
_cell_length_b 15.696001
_cell_length_c 14.971626
_cell_angle_alpha 90.000000
_cell_angle_beta 90.000000
_cell_angle_gamma 90.000000
_cell_volume 4300.311509
_symmetry_space_group_name_H-M "C C C M"
_symmetry_group_IT_number 66
_symmetry_cell_setting 'orthorhombic'
loop_
_space_group_symop_operation_xyz
x,y,z
-x,-y,z
x,-y,1/2-z
-x,y,1/2-z
-x,-y,-z
x,y,-z
-x,y,1/2+z
x,-y,1/2+z
1/2+x,1/2+y,z
1/2-x,1/2-y,z
1/2+x,1/2-y,1/2-z
1/2-x,1/2+y,1/2-z
1/2-x,1/2-y,-z
1/2+x,1/2+y,-z
1/2-x,1/2+y,1/2+z
1/2+x,1/2-y,1/2+z
loop_
_atom_site_type_symbol
_atom_site_label
_atom_site_fract_x
_atom_site_fract_y
_atom_site_fract_z
Si Si1 0.568932 0.648748 0.000000
Si Si2 0.831622 0.287356 0.156949
Si Si3 0.801589 0.486433 0.852948
Si Si4 0.450795 0.077861 0.894727
Si Si5 0.399827 0.318008 0.500000
Si Si6 0.680618 0.504738 0.500000
Si Si7 0.063231 0.755837 0.313563
O O1 0.614135 0.561497 0.000000
O O2 0.584532 0.696259 0.094675
O O3 0.481179 0.645433 0.000000
O O4 0.750000 0.250000 0.149909
O O5 0.827546 0.388215 0.137569
O O6 0.866815 0.264454 0.252254
O O7 0.882013 0.240300 0.084729
O O8 0.783095 0.500000 0.750000
O O9 0.867797 0.548375 0.879624
O O10 0.732658 0.505565 0.914556
O O11 0.467687 0.164661 0.844982
O O12 0.500000 0.000000 0.862287
O O13 0.464164 0.090243 0.000000
O O14 0.347122 0.398801 0.500000
O O15 0.000000 0.796797 0.250000
#
# Coordination Sequence:
#
# PCOD9499796 Si02
#       7
#     8  16  16  16   8   8  16
#     4  12  29  46  74 102 142 190 231 306 361 420
#     4  12  25  43  76 106 137 182 239 297 351 417
#     4  12  25  43  69 105 144 183 230 284 354 430
#     4  11  24  40  66 102 143 183 221 278 354 431
#     4  12  25  50  74 101 135 182 253 302 345 410
#     4  12  28  49  69  97 139 187 242 297 352 409
#     4  12  25  45  68 105 143 182 233 285 357 436
#
# _framework density 20.463633000000002
#
# number of rings (size 3 to 8) (size 9 to 14) (size 15 to 20)
#    0.000    0.182    7.273    2.182    2.545    0.000 
#    0.000    1.364    0.000    0.000    0.000    0.000 
#    0.000    0.000    0.000    0.000    0.000    0.000 
#
# Total GULP energy -246216.707512 kJ/mol
# GULP energy per Si atom -5595.834262 kJ/mol
# Density = 2.041706 g / cm^3
# Si number density = 20.463633 Si / 1000 Ang^3
#
#
#
# Elastic Constant Matrix: (Units=GPa)
#
#
# Indices 1 2 3 4 5 6 
#
# 1 98.4830 18.6520 32.0463 0.0000 0.0000 0.0000
# 2 18.6520 89.6564 45.7497 0.0000 0.0000 0.0000
# 3 32.0463 45.7497 131.1052 0.0000 0.0000 0.0000
# 4 0.0000 0.0000 0.0000 17.6961 0.0000 0.0000
# 5 0.0000 0.0000 0.0000 0.0000 65.6683 0.0000
# 6 0.0000 0.0000 0.0000 0.0000 0.0000 37.3366
#
#
#
# Elastic Compliance Matrix: (Units=1/GPa)
#
#
# Indices 1 2 3 4 5 6 
#
# 1 0.011124 -0.001128 -0.002326 0.000000 0.000000 0.000000
# 2 -0.001128 0.013684 -0.004500 0.000000 0.000000 0.000000
# 3 -0.002326 -0.004500 0.009766 0.000000 0.000000 0.000000
# 4 0.000000 0.000000 0.000000 0.056509 0.000000 0.000000
# 5 0.000000 0.000000 0.000000 0.000000 0.015228 0.000000
# 6 0.000000 0.000000 0.000000 0.000000 0.000000 0.026783
#
#
# Mechanical properties :
#
#
# Convention : Reuss Voigt Hill
#
# Bulk Modulus (GPa) = 53.56443 56.90451 55.23447
# Shear Modulus (GPa) = 32.21145 38.99333 35.60239
#
# Velocity S-wave (km/s) = 3.97178 4.36993 4.17560
# Velocity P-wave (km/s) = 6.87500 7.30272 7.09208
#
# Compressibility (1/GPa) = 0.01866910
#
# Stress axis : x y z
#
# Youngs Moduli (GPa) = 89.89281 73.07639 102.39523
#
# Poissons Ratio (x) = 0.08240 0.23814
# Poissons Ratio (y) = 0.10136 0.46074
# Poissons Ratio (z) = 0.20906 0.32881
#
# Static dielectric constant tensor:
#      x y z
#    x 1.719470 0.000000 0.000000 
#    y 0.000000 1.696600 0.000000 
#    z 0.000000 0.000000 1.757340 
# 
# From -- ./inp_files/30076.got.cif
#   From: 2010.05.17/outbox.cif.g08.bks.cpg/sg66_16_cif.got.tgz:30076.got - 2010.06.03 17:51:23.
