data_PCOD9499850
_publ_section_title
;
Structure prediction by ZEFSAII (Michael W. Deem and Ramdas Pophale) SiO2 
 PCOD9499850
Probable space group: C C C M
;
_chemical_formula_sum "Si O2"
_cell_formula_units_Z 48
_cell_length_a 8.761038
_cell_length_b 28.829936
_cell_length_c 9.761412
_cell_angle_alpha 90.000000
_cell_angle_beta 90.000000
_cell_angle_gamma 90.000000
_cell_volume 2465.539052
_symmetry_space_group_name_H-M "C C C M"
_symmetry_group_IT_number 66
_symmetry_cell_setting 'orthorhombic'
loop_
_space_group_symop_operation_xyz
x,y,z
-x,-y,z
x,-y,1/2-z
-x,y,1/2-z
-x,-y,-z
x,y,-z
-x,y,1/2+z
x,-y,1/2+z
1/2+x,1/2+y,z
1/2-x,1/2-y,z
1/2+x,1/2-y,1/2-z
1/2-x,1/2+y,1/2-z
1/2-x,1/2-y,-z
1/2+x,1/2+y,-z
1/2-x,1/2+y,1/2+z
1/2+x,1/2-y,1/2+z
loop_
_atom_site_type_symbol
_atom_site_label
_atom_site_fract_x
_atom_site_fract_y
_atom_site_fract_z
Si Si1 0.682041 0.641564 0.256562
Si Si2 0.312782 0.803130 0.500000
Si Si3 0.661190 0.953798 0.669831
Si Si4 0.322282 0.199748 0.500000
O O1 0.500000 0.644701 0.250000
O O2 0.732360 0.589234 0.291022
O O3 0.755781 0.672313 0.373508
O O4 0.753684 0.665759 0.124596
O O5 0.250000 0.750000 0.500000
O O6 0.495442 0.799490 0.500000
O O7 0.500000 0.944844 0.750000
O O8 0.646819 0.958276 0.500000
O O9 0.717671 0.000000 0.750000
O O10 0.250000 0.250000 0.500000
#
# Coordination Sequence:
#
# PCOD9499850 Si02
#       4
#    16   8  16   8
#     4  12  26  44  67 102 140 178 226 282 342 405
#     4  12  26  44  71 100 135 186 226 281 339 401
#     4  11  24  44  71 104 138 181 229 281 343 412
#     4  12  24  46  69  98 137 178 232 279 337 409
#
# _framework density 19.468359
#
# number of rings (size 3 to 8) (size 9 to 14) (size 15 to 20)
#    0.000    0.333    1.667    9.000    4.667    0.667 
#    0.000    1.667    0.000    0.000    0.000    0.000 
#    0.000    0.000    0.000    0.000    0.000    0.000 
#
# Total GULP energy -133950.309937 kJ/mol
# GULP energy per Si atom -5581.262914 kJ/mol
# Density = 1.942405 g / cm^3
# Si number density = 19.468359 Si / 1000 Ang^3
#
#
#
# Elastic Constant Matrix: (Units=GPa)
#
#
# Indices 1 2 3 4 5 6 
#
# 1 201.4710 118.3173 87.5946 0.0000 0.0000 0.0000
# 2 118.3173 175.5232 91.1101 0.0000 0.0000 0.0000
# 3 87.5946 91.1101 235.7328 0.0000 0.0000 0.0000
# 4 0.0000 0.0000 0.0000 42.5910 0.0000 0.0000
# 5 0.0000 0.0000 0.0000 0.0000 24.3057 0.0000
# 6 0.0000 0.0000 0.0000 0.0000 0.0000 47.7905
#
#
#
# Elastic Compliance Matrix: (Units=1/GPa)
#
#
# Indices 1 2 3 4 5 6 
#
# 1 0.008469 -0.005098 -0.001177 0.000000 0.000000 0.000000
# 2 -0.005098 0.010196 -0.002046 0.000000 0.000000 0.000000
# 3 -0.001177 -0.002046 0.005470 0.000000 0.000000 0.000000
# 4 0.000000 0.000000 0.000000 0.023479 0.000000 0.000000
# 5 0.000000 0.000000 0.000000 0.000000 0.041143 0.000000
# 6 0.000000 0.000000 0.000000 0.000000 0.000000 0.020925
#
#
# Mechanical properties :
#
#
# Convention : Reuss Voigt Hill
#
# Bulk Modulus (GPa) = 133.45442 134.08568 133.77005
# Shear Modulus (GPa) = 38.81351 43.98445 41.39898
#
# Velocity S-wave (km/s) = 4.46990 4.75834 4.61637
# Velocity P-wave (km/s) = 9.76413 9.96054 9.86282
#
# Compressibility (1/GPa) = 0.00749320
#
# Stress axis : x y z
#
# Youngs Moduli (GPa) = 118.07841 98.07778 182.80900
#
# Poissons Ratio (x) = 0.50001 0.21508
# Poissons Ratio (y) = 0.60197 0.37409
# Poissons Ratio (z) = 0.13892 0.20070
#
# Static dielectric constant tensor:
#      x y z
#    x 1.654490 0.000000 0.000000 
#    y 0.000000 1.510620 0.000000 
#    z 0.000000 0.000000 1.619290 
# 
# From -- ./inp_files/2776.got.cif
#   From: 2010.05.17/outbox.cif.g08.bks.cpg/sg66_2_cif.got.tgz:2776.got - 2010.06.03 17:51:23.
