data_PCOD9499515
_publ_section_title
;
Structure prediction by ZEFSAII (Michael W. Deem and Ramdas Pophale) SiO2 
 PCOD9499515
Probable space group: C C C M
;
_chemical_formula_sum "Si O2"
_cell_formula_units_Z 64
_cell_length_a 22.004958
_cell_length_b 8.568223
_cell_length_c 14.603296
_cell_angle_alpha 90.000000
_cell_angle_beta 90.000000
_cell_angle_gamma 90.000000
_cell_volume 2753.354893
_symmetry_space_group_name_H-M "C C C M"
_symmetry_group_IT_number 66
_symmetry_cell_setting 'orthorhombic'
loop_
_space_group_symop_operation_xyz
x,y,z
-x,-y,z
x,-y,1/2-z
-x,y,1/2-z
-x,-y,-z
x,y,-z
-x,y,1/2+z
x,-y,1/2+z
1/2+x,1/2+y,z
1/2-x,1/2-y,z
1/2+x,1/2-y,1/2-z
1/2-x,1/2+y,1/2-z
1/2-x,1/2-y,-z
1/2+x,1/2+y,-z
1/2-x,1/2+y,1/2+z
1/2+x,1/2-y,1/2+z
loop_
_atom_site_type_symbol
_atom_site_label
_atom_site_fract_x
_atom_site_fract_y
_atom_site_fract_z
Si Si1 0.854407 0.628659 0.810268
Si Si2 0.416758 0.867248 0.500000
Si Si3 0.744050 0.561100 0.394058
Si Si4 0.944558 0.733236 0.500000
Si Si5 0.116378 0.103854 0.673740
O O1 0.891168 0.500000 0.750000
O O2 0.885325 0.676874 0.904874
O O3 0.791803 0.543752 0.838985
O O4 0.852460 0.766130 0.738004
O O5 0.483628 0.793725 0.500000
O O6 0.417613 0.057428 0.500000
O O7 0.756539 0.528950 0.500000
O O8 0.750000 0.750000 0.383840
O O9 0.674831 0.519615 0.370441
O O10 0.921826 0.822763 0.591017
O O11 0.082401 0.000000 0.750000
#
# Coordination Sequence:
#
# PCOD9499515 Si02
#       5
#    16   8  16   8  16
#     4  12  23  43  72 110 145 191 258 298 370 447
#     4  11  24  46  80 104 141 188 262 332 352 434
#     4  11  21  39  70 102 151 198 236 307 379 439
#     4  11  24  50  74 108 140 199 257 310 378 425
#     4  12  27  45  71 109 157 201 242 304 379 460
#
# _framework density 23.244371000000001
#
# number of rings (size 3 to 8) (size 9 to 14) (size 15 to 20)
#    0.000    0.500    7.500    0.750    0.000    2.000 
#    0.000    5.000    0.000    0.000    0.000    0.000 
#    0.000    0.000    0.000    0.000    0.000    0.000 
#
# Total GULP energy -178855.054023 kJ/mol
# GULP energy per Si atom -5589.220438 kJ/mol
# Density = 2.319147 g / cm^3
# Si number density = 23.244371 Si / 1000 Ang^3
#
#
#
# Elastic Constant Matrix: (Units=GPa)
#
#
# Indices 1 2 3 4 5 6 
#
# 1 92.6768 34.5405 75.7436 0.0000 0.0000 0.0000
# 2 34.5405 74.9180 62.9479 0.0000 0.0000 0.0000
# 3 75.7436 62.9479 236.2286 0.0000 0.0000 0.0000
# 4 0.0000 0.0000 0.0000 50.7807 0.0000 0.0000
# 5 0.0000 0.0000 0.0000 0.0000 -6.5368 0.0000
# 6 0.0000 0.0000 0.0000 0.0000 0.0000 6.3230
#
#
#
# Elastic Compliance Matrix: (Units=1/GPa)
#
#
# Indices 1 2 3 4 5 6 
#
# 1 0.015421 -0.003808 -0.003930 0.000000 0.000000 0.000000
# 2 -0.003808 0.018139 -0.003613 0.000000 0.000000 0.000000
# 3 -0.003930 -0.003613 0.006456 0.000000 0.000000 0.000000
# 4 0.000000 0.000000 0.000000 0.019693 0.000000 0.000000
# 5 0.000000 0.000000 0.000000 0.000000 -0.152980 0.000000
# 6 0.000000 0.000000 0.000000 0.000000 0.000000 0.158153
#
#
# Mechanical properties :
#
#
# Convention : Reuss Voigt Hill
#
# Bulk Modulus (GPa) = 57.75217 83.36527 70.55872
# Shear Modulus (GPa) = 53.55942 25.48614 39.52278
#
# Velocity S-wave (km/s) = 4.80540 3.31485 4.12796
# Velocity P-wave (km/s) = 7.46249 7.11291 7.28980
#
# Compressibility (1/GPa) = 0.01731537
#
# Stress axis : x y z
#
# Youngs Moduli (GPa) = 64.84551 55.13036 154.89698
#
# Poissons Ratio (x) = 0.20993 0.60874
# Poissons Ratio (y) = 0.24692 0.55957
# Poissons Ratio (z) = 0.25484 0.19916
#
# Static dielectric constant tensor:
#      x y z
#    x 1.873670 0.000000 0.000000 
#    y 0.000000 2.018640 0.000000 
#    z 0.000000 0.000000 1.864750 
# 
# From -- ./inp_files/31917.got.cif
#   From: 2010.05.17/outbox.cif.g08.bks.cpg/sg66_16_cif.got.tgz:31917.got - 2010.06.03 17:51:23.
