data_PCOD9499437
_publ_section_title
;
Structure prediction by ZEFSAII (Michael W. Deem and Ramdas Pophale) SiO2 
 PCOD9499437
Probable space group: C C C M
;
_chemical_formula_sum "Si O2"
_cell_formula_units_Z 60
_cell_length_a 8.914405
_cell_length_b 20.097788
_cell_length_c 16.517193
_cell_angle_alpha 90.000000
_cell_angle_beta 90.000000
_cell_angle_gamma 90.000000
_cell_volume 2959.217355
_symmetry_space_group_name_H-M "C C C M"
_symmetry_group_IT_number 66
_symmetry_cell_setting 'orthorhombic'
loop_
_space_group_symop_operation_xyz
x,y,z
-x,-y,z
x,-y,1/2-z
-x,y,1/2-z
-x,-y,-z
x,y,-z
-x,y,1/2+z
x,-y,1/2+z
1/2+x,1/2+y,z
1/2-x,1/2-y,z
1/2+x,1/2-y,1/2-z
1/2-x,1/2+y,1/2-z
1/2-x,1/2-y,-z
1/2+x,1/2+y,-z
1/2-x,1/2+y,1/2+z
1/2+x,1/2-y,1/2+z
loop_
_atom_site_type_symbol
_atom_site_label
_atom_site_fract_x
_atom_site_fract_y
_atom_site_fract_z
Si Si1 0.296395 0.427420 0.000000
Si Si2 0.000000 0.500000 0.750000
Si Si3 0.546946 0.671651 0.500000
Si Si4 0.686689 0.076922 0.000000
Si Si5 0.562560 0.104174 0.629881
Si Si6 0.932613 0.245796 0.664314
O O1 0.272752 0.506476 0.000000
O O2 0.208600 0.394908 0.074838
O O3 0.460535 0.398752 0.000000
O O4 0.096442 0.550792 0.698235
O O5 0.717835 0.645316 0.500000
O O6 0.496287 0.710335 0.582309
O O7 0.575910 0.077312 0.076845
O O8 0.519833 0.177081 0.658449
O O9 0.750000 0.250000 0.665664
O O10 0.000000 0.218742 0.750000
#
# Coordination Sequence:
#
# PCOD9499437 Si02
#       6
#     8   4   8   8  16  16
#     4  11  20  45  65  93 127 178 219 268 330 396
#     4  12  20  38  68 102 124 162 222 290 316 386
#     4  12  26  44  68  96 143 177 216 275 342 400
#     4  11  24  40  67 100 126 176 225 270 327 396
#     4  11  22  40  71  92 127 173 225 269 326 396
#     4  12  27  45  69  98 134 178 223 276 337 400
#
# _framework density 20.275632999999999
#
# number of rings (size 3 to 8) (size 9 to 14) (size 15 to 20)
#    0.000    0.533    6.667    3.200    3.733    1.067 
#    0.000    0.000    0.000    3.200    0.000    0.000 
#    0.000    0.000    0.000    0.000    0.000    0.000 
#
# Total GULP energy -167327.254587 kJ/mol
# GULP energy per Si atom -5577.575153 kJ/mol
# Density = 2.022949 g / cm^3
# Si number density = 20.275633 Si / 1000 Ang^3
#
#
#
# Elastic Constant Matrix: (Units=GPa)
#
#
# Indices 1 2 3 4 5 6 
#
# 1 60.1369 17.5426 28.5940 0.0000 0.0000 0.0000
# 2 17.5426 109.6683 37.8799 0.0000 0.0000 0.0000
# 3 28.5940 37.8799 127.6584 0.0000 0.0000 0.0000
# 4 0.0000 0.0000 0.0000 47.8963 0.0000 0.0000
# 5 0.0000 0.0000 0.0000 0.0000 42.7375 0.0000
# 6 0.0000 0.0000 0.0000 0.0000 0.0000 32.6112
#
#
#
# Elastic Compliance Matrix: (Units=1/GPa)
#
#
# Indices 1 2 3 4 5 6 
#
# 1 0.018904 -0.001740 -0.003718 0.000000 0.000000 0.000000
# 2 -0.001740 0.010320 -0.002673 0.000000 0.000000 0.000000
# 3 -0.003718 -0.002673 0.009459 0.000000 0.000000 0.000000
# 4 0.000000 0.000000 0.000000 0.020878 0.000000 0.000000
# 5 0.000000 0.000000 0.000000 0.000000 0.023399 0.000000
# 6 0.000000 0.000000 0.000000 0.000000 0.000000 0.030664
#
#
# Mechanical properties :
#
#
# Convention : Reuss Voigt Hill
#
# Bulk Modulus (GPa) = 44.59793 51.72184 48.15989
# Shear Modulus (GPa) = 36.40092 38.87882 37.63987
#
# Velocity S-wave (km/s) = 4.24170 4.38369 4.31328
# Velocity P-wave (km/s) = 6.78476 7.15452 6.97209
#
# Compressibility (1/GPa) = 0.02242256
#
# Stress axis : x y z
#
# Youngs Moduli (GPa) = 52.89863 96.90135 105.71700
#
# Poissons Ratio (x) = 0.16858 0.39306
# Poissons Ratio (y) = 0.09203 0.28253
# Poissons Ratio (z) = 0.19668 0.25897
#
# Static dielectric constant tensor:
#      x y z
#    x 1.721230 0.000000 0.000000 
#    y 0.000000 1.717490 0.000000 
#    z 0.000000 0.000000 1.799590 
# 
# From -- ./inp_files/36147.got.cif
#   From: 2010.05.17/outbox.cif.g08.bks.cpg/sg66_19_cif.got.tgz:36147.got - 2010.06.03 17:51:23.
