data_PCOD9499286
_publ_section_title
;
Structure prediction by ZEFSAII (Michael W. Deem and Ramdas Pophale) SiO2 
 PCOD9499286
Probable space group: C C C M
;
_chemical_formula_sum "Si O2"
_cell_formula_units_Z 36
_cell_length_a 7.365802
_cell_length_b 7.200540
_cell_length_c 27.082122
_cell_angle_alpha 90.000000
_cell_angle_beta 90.000000
_cell_angle_gamma 90.000000
_cell_volume 1436.374868
_symmetry_space_group_name_H-M "C C C M"
_symmetry_group_IT_number 66
_symmetry_cell_setting 'orthorhombic'
loop_
_space_group_symop_operation_xyz
x,y,z
-x,-y,z
x,-y,1/2-z
-x,y,1/2-z
-x,-y,-z
x,y,-z
-x,y,1/2+z
x,-y,1/2+z
1/2+x,1/2+y,z
1/2-x,1/2-y,z
1/2+x,1/2-y,1/2-z
1/2-x,1/2+y,1/2-z
1/2-x,1/2-y,-z
1/2+x,1/2+y,-z
1/2-x,1/2+y,1/2+z
1/2+x,1/2-y,1/2+z
loop_
_atom_site_type_symbol
_atom_site_label
_atom_site_fract_x
_atom_site_fract_y
_atom_site_fract_z
Si Si1 0.214113 0.033560 0.500000
Si Si2 0.250000 0.250000 0.916676
Si Si3 0.500000 0.500000 0.750000
Si Si4 0.454592 0.784292 0.322755
O O1 0.250000 0.250000 0.500000
O O2 0.283151 0.925018 0.548229
O O3 0.000000 0.000000 0.500000
O O4 0.422620 0.270385 0.879974
O O5 0.423632 0.354085 0.709093
O O6 0.250000 0.750000 0.302474
O O7 0.500000 0.000000 0.318603
#
# Coordination Sequence:
#
# PCOD9499286 Si02
#       4
#     8   8   4  16
#     4  11  26  41  72 102 138 183 236 297 364 438
#     4   9  26  44  70 100 142 180 242 291 368 434
#     4  12  26  40  70  96 136 184 242 294 368 428
#     4  10  26  43  70  97 142 182 239 296 363 435
#
# _framework density 25.063096000000002
#
# number of rings (size 3 to 8) (size 9 to 14) (size 15 to 20)
#    1.333    0.444    0.000    0.667   15.556    1.778 
#    0.000    0.000    0.000    0.000    0.000    0.000 
#    0.000    0.000    0.000    0.000    0.000    0.000 
#
# Total GULP energy -100393.080544 kJ/mol
# GULP energy per Si atom -5577.393364 kJ/mol
# Density = 2.500605 g / cm^3
# Si number density = 25.063096 Si / 1000 Ang^3
#
#
#
# Elastic Constant Matrix: (Units=GPa)
#
#
# Indices 1 2 3 4 5 6 
#
# 1 76.7832 38.2017 18.1558 0.0000 0.0000 0.0000
# 2 38.2017 290.1585 125.7732 0.0000 0.0000 0.0000
# 3 18.1558 125.7732 236.2548 0.0000 0.0000 0.0000
# 4 0.0000 0.0000 0.0000 -7.2643 0.0000 0.0000
# 5 0.0000 0.0000 0.0000 0.0000 -27.0416 0.0000
# 6 0.0000 0.0000 0.0000 0.0000 0.0000 44.2751
#
#
#
# Elastic Compliance Matrix: (Units=1/GPa)
#
#
# Indices 1 2 3 4 5 6 
#
# 1 0.013939 -0.001782 -0.000122 0.000000 0.000000 0.000000
# 2 -0.001782 0.004708 -0.002369 0.000000 0.000000 0.000000
# 3 -0.000122 -0.002369 0.005504 0.000000 0.000000 0.000000
# 4 0.000000 0.000000 0.000000 -0.137660 0.000000 0.000000
# 5 0.000000 0.000000 0.000000 0.000000 -0.036980 0.000000
# 6 0.000000 0.000000 0.000000 0.000000 0.000000 0.022586
#
#
# Mechanical properties :
#
#
# Convention : Reuss Voigt Hill
#
# Bulk Modulus (GPa) = 64.09104 107.49530 85.79317
# Shear Modulus (GPa) = -43.80031 30.06491 -6.86770
#
# Velocity S-wave (km/s) = -4.18497 3.46724 -1.65714
# Velocity P-wave (km/s) = 1.50846 7.68192 5.53568
#
# Compressibility (1/GPa) = 0.01560281
#
# Stress axis : x y z
#
# Youngs Moduli (GPa) = 71.73965 212.39987 181.70111
#
# Poissons Ratio (x) = 0.37852 0.02225
# Poissons Ratio (y) = 0.12785 0.43053
# Poissons Ratio (z) = 0.00879 0.50327
#
# Static dielectric constant tensor:
#      x y z
#    x 2.712540 0.000000 0.000000 
#    y 0.000000 1.950290 0.000000 
#    z 0.000000 0.000000 2.002520 
# 
# From -- ./inp_files/63106.got.cif
#   From: 2010.05.17/outbox.cif.g08.bks.cpg/sg66_32_cif.got.tgz:63106.got - 2010.06.03 17:51:23.
