data_PCOD9499700
_publ_section_title
;
Structure prediction by ZEFSAII (Michael W. Deem and Ramdas Pophale) SiO2 
 PCOD9499700
Probable space group: C C C M
;
_chemical_formula_sum "Si O2"
_cell_formula_units_Z 72
_cell_length_a 18.062289
_cell_length_b 12.478162
_cell_length_c 15.382094
_cell_angle_alpha 90.000000
_cell_angle_beta 90.000000
_cell_angle_gamma 90.000000
_cell_volume 3466.880462
_symmetry_space_group_name_H-M "C C C M"
_symmetry_group_IT_number 66
_symmetry_cell_setting 'orthorhombic'
loop_
_space_group_symop_operation_xyz
x,y,z
-x,-y,z
x,-y,1/2-z
-x,y,1/2-z
-x,-y,-z
x,y,-z
-x,y,1/2+z
x,-y,1/2+z
1/2+x,1/2+y,z
1/2-x,1/2-y,z
1/2+x,1/2-y,1/2-z
1/2-x,1/2+y,1/2-z
1/2-x,1/2-y,-z
1/2+x,1/2+y,-z
1/2-x,1/2+y,1/2+z
1/2+x,1/2-y,1/2+z
loop_
_atom_site_type_symbol
_atom_site_label
_atom_site_fract_x
_atom_site_fract_y
_atom_site_fract_z
Si Si1 0.411860 0.016058 0.407180
Si Si2 0.187754 0.675451 0.644584
Si Si3 0.582289 0.210426 0.788356
Si Si4 0.682438 0.662568 0.601893
Si Si5 0.777853 0.000000 0.750000
O O1 0.390058 0.067806 0.500000
O O2 0.398714 0.091853 0.324855
O O3 0.500000 0.000000 0.407394
O O4 0.369104 0.903495 0.403687
O O5 0.250000 0.750000 0.600851
O O6 0.136406 0.742968 0.709985
O O7 0.232333 0.593742 0.704582
O O8 0.500000 0.213067 0.750000
O O9 0.605060 0.282333 0.870205
O O10 0.685798 0.634348 0.500000
O O11 0.750000 0.750000 0.617256
O O12 0.687106 0.561334 0.666724
#
# Coordination Sequence:
#
# PCOD9499700 Si02
#       5
#    16  16  16  16   8
#     4  11  23  37  59  94 132 168 220 282 348 418
#     4  12  22  38  62  93 129 174 218 272 343 418
#     4  12  21  38  66  94 128 173 220 280 343 409
#     4  11  23  42  69  98 131 176 229 281 340 417
#     4  12  20  38  66  94 128 168 230 276 328 398
#
# _framework density 20.767949000000002
#
# number of rings (size 3 to 8) (size 9 to 14) (size 15 to 20)
#    0.000    0.444    8.889    0.667    0.000    3.111 
#    0.000    0.556    0.000    4.667    0.000    0.000 
#    0.000    0.000    0.000    0.000    0.000    0.000 
#
# Total GULP energy -200572.409183 kJ/mol
# GULP energy per Si atom -5571.455811 kJ/mol
# Density = 2.072068 g / cm^3
# Si number density = 20.767949 Si / 1000 Ang^3
#
#
#
# Elastic Constant Matrix: (Units=GPa)
#
#
# Indices 1 2 3 4 5 6 
#
# 1 109.9071 60.4362 49.4361 0.0000 0.0000 0.0000
# 2 60.4362 64.3943 51.0337 0.0000 0.0000 0.0000
# 3 49.4361 51.0337 136.4708 0.0000 0.0000 0.0000
# 4 0.0000 0.0000 0.0000 54.4372 0.0000 0.0000
# 5 0.0000 0.0000 0.0000 0.0000 64.2260 0.0000
# 6 0.0000 0.0000 0.0000 0.0000 0.0000 33.0852
#
#
#
# Elastic Compliance Matrix: (Units=1/GPa)
#
#
# Indices 1 2 3 4 5 6 
#
# 1 0.018811 -0.017416 -0.000302 0.000000 0.000000 0.000000
# 2 -0.017416 0.038194 -0.007974 0.000000 0.000000 0.000000
# 3 -0.000302 -0.007974 0.010419 0.000000 0.000000 0.000000
# 4 0.000000 0.000000 0.000000 0.018370 0.000000 0.000000
# 5 0.000000 0.000000 0.000000 0.000000 0.015570 0.000000
# 6 0.000000 0.000000 0.000000 0.000000 0.000000 0.030225
#
#
# Mechanical properties :
#
#
# Convention : Reuss Voigt Hill
#
# Bulk Modulus (GPa) = 62.33941 70.28715 66.31328
# Shear Modulus (GPa) = 26.55086 40.34075 33.44581
#
# Velocity S-wave (km/s) = 3.57943 4.41211 4.01740
# Velocity P-wave (km/s) = 6.86770 7.73777 7.31568
#
# Compressibility (1/GPa) = 0.01604122
#
# Stress axis : x y z
#
# Youngs Moduli (GPa) = 53.16100 26.18207 95.98101
#
# Poissons Ratio (x) = 0.45598 0.02894
# Poissons Ratio (y) = 0.92583 0.76536
# Poissons Ratio (z) = 0.01603 0.20878
#
# Static dielectric constant tensor:
#      x y z
#    x 1.775930 0.000000 0.000000 
#    y 0.000000 1.792370 0.000000 
#    z 0.000000 0.000000 1.819110 
# 
# From -- ./inp_files/29794.got.cif
#   From: 2010.05.17/outbox.cif.g08.bks.cpg/sg66_15_cif.got.tgz:29794.got - 2010.06.03 17:51:23.
