data_PCOD9499908
_publ_section_title
;
Structure prediction by ZEFSAII (Michael W. Deem and Ramdas Pophale) SiO2 
 PCOD9499908
Probable space group: C C C M
;
_chemical_formula_sum "Si O2"
_cell_formula_units_Z 36
_cell_length_a 18.138588
_cell_length_b 4.813785
_cell_length_c 18.264577
_cell_angle_alpha 90.000000
_cell_angle_beta 90.000000
_cell_angle_gamma 90.000000
_cell_volume 1594.776341
_symmetry_space_group_name_H-M "C C C M"
_symmetry_group_IT_number 66
_symmetry_cell_setting 'orthorhombic'
loop_
_space_group_symop_operation_xyz
x,y,z
-x,-y,z
x,-y,1/2-z
-x,y,1/2-z
-x,-y,-z
x,y,-z
-x,y,1/2+z
x,-y,1/2+z
1/2+x,1/2+y,z
1/2-x,1/2-y,z
1/2+x,1/2-y,1/2-z
1/2-x,1/2+y,1/2-z
1/2-x,1/2-y,-z
1/2+x,1/2+y,-z
1/2-x,1/2+y,1/2+z
1/2+x,1/2-y,1/2+z
loop_
_atom_site_type_symbol
_atom_site_label
_atom_site_fract_x
_atom_site_fract_y
_atom_site_fract_z
Si Si1 0.000000 0.000000 0.250000
Si Si2 0.667373 0.630819 0.084012
Si Si3 0.122357 0.622496 0.175387
O O1 0.050980 0.206764 0.297378
O O2 0.750000 0.750000 0.084773
O O3 0.833394 0.147607 0.130971
O O4 0.614749 0.858561 0.122277
O O5 0.646023 0.577555 0.000000
O O6 0.157383 0.500000 0.250000
#
# Coordination Sequence:
#
# PCOD9499908 Si02
#       3
#     4  16  16
#     4  12  26  48  68  96 146 180 240 302 318 396
#     4  11  25  46  71 105 145 178 222 288 356 417
#     4  12  24  45  73  99 139 184 233 282 345 400
#
# _framework density 22.573699000000001
#
# number of rings (size 3 to 8) (size 9 to 14) (size 15 to 20)
#    0.000    0.444    4.444    3.333    0.000    7.111 
#    4.000    6.667    0.000    0.000    0.000    0.000 
#    0.000    0.000    0.000    0.000    0.000    0.000 
#
# Total GULP energy -100707.932437 kJ/mol
# GULP energy per Si atom -5594.885135 kJ/mol
# Density = 2.252232 g / cm^3
# Si number density = 22.573699 Si / 1000 Ang^3
#
#
#
# Elastic Constant Matrix: (Units=GPa)
#
#
# Indices 1 2 3 4 5 6 
#
# 1 54.1694 34.4353 50.0563 0.0000 0.0000 0.0000
# 2 34.4353 193.5360 104.4422 0.0000 0.0000 0.0000
# 3 50.0563 104.4422 213.4702 0.0000 0.0000 0.0000
# 4 0.0000 0.0000 0.0000 5.2269 0.0000 0.0000
# 5 0.0000 0.0000 0.0000 0.0000 18.2054 0.0000
# 6 0.0000 0.0000 0.0000 0.0000 0.0000 40.2874
#
#
#
# Elastic Compliance Matrix: (Units=1/GPa)
#
#
# Indices 1 2 3 4 5 6 
#
# 1 0.023959 -0.001673 -0.004800 0.000000 0.000000 0.000000
# 2 -0.001673 0.007137 -0.003100 0.000000 0.000000 0.000000
# 3 -0.004800 -0.003100 0.007327 0.000000 0.000000 0.000000
# 4 0.000000 0.000000 0.000000 0.191318 0.000000 0.000000
# 5 0.000000 0.000000 0.000000 0.000000 0.054929 0.000000
# 6 0.000000 0.000000 0.000000 0.000000 0.000000 0.024822
#
#
# Mechanical properties :
#
#
# Convention : Reuss Voigt Hill
#
# Bulk Modulus (GPa) = 51.87093 93.22703 72.54898
# Shear Modulus (GPa) = 14.92259 30.89340 22.90799
#
# Velocity S-wave (km/s) = 2.57390 3.70341 3.18906
# Velocity P-wave (km/s) = 5.64461 7.72500 6.76525
#
# Compressibility (1/GPa) = 0.01927862
#
# Stress axis : x y z
#
# Youngs Moduli (GPa) = 41.73743 140.10595 136.48916
#
# Poissons Ratio (x) = 0.23437 0.65511
# Poissons Ratio (y) = 0.06982 0.42309
# Poissons Ratio (z) = 0.20033 0.43430
#
# Static dielectric constant tensor:
#      x y z
#    x 1.879630 0.000000 0.000000 
#    y 0.000000 1.837940 0.000000 
#    z 0.000000 0.000000 1.827670 
# 
# From -- ./inp_files/29192.got.cif
#   From: 2010.05.17/outbox.cif.g08.bks.cpg/sg66_15_cif.got.tgz:29192.got - 2010.06.03 17:51:23.
