data_PCOD9499533
_publ_section_title
;
Structure prediction by ZEFSAII (Michael W. Deem and Ramdas Pophale) SiO2 
 PCOD9499533
Probable space group: C C C M
;
_chemical_formula_sum "Si O2"
_cell_formula_units_Z 88
_cell_length_a 11.862985
_cell_length_b 20.945246
_cell_length_c 15.278193
_cell_angle_alpha 90.000000
_cell_angle_beta 90.000000
_cell_angle_gamma 90.000000
_cell_volume 3796.220575
_symmetry_space_group_name_H-M "C C C M"
_symmetry_group_IT_number 66
_symmetry_cell_setting 'orthorhombic'
loop_
_space_group_symop_operation_xyz
x,y,z
-x,-y,z
x,-y,1/2-z
-x,y,1/2-z
-x,-y,-z
x,y,-z
-x,y,1/2+z
x,-y,1/2+z
1/2+x,1/2+y,z
1/2-x,1/2-y,z
1/2+x,1/2-y,1/2-z
1/2-x,1/2+y,1/2-z
1/2-x,1/2-y,-z
1/2+x,1/2+y,-z
1/2-x,1/2+y,1/2+z
1/2+x,1/2-y,1/2+z
loop_
_atom_site_type_symbol
_atom_site_label
_atom_site_fract_x
_atom_site_fract_y
_atom_site_fract_z
Si Si1 0.493049 0.193650 0.897712
Si Si2 0.309217 0.497867 0.155439
Si Si3 0.990424 0.827123 0.152131
Si Si4 0.752675 0.645926 0.104803
Si Si5 0.565933 0.059799 0.157359
Si Si6 0.426555 0.574748 0.000000
O O1 0.543302 0.256204 0.852362
O O2 0.369938 0.173772 0.861556
O O3 0.560642 0.127735 0.889249
O O4 0.482748 0.210449 0.000000
O O5 0.366160 0.500000 0.250000
O O6 0.268868 0.426277 0.134938
O O7 0.195260 0.539729 0.164792
O O8 0.381832 0.524337 0.076034
O O9 0.858322 0.816630 0.132153
O O10 0.000000 0.853359 0.250000
O O11 0.036414 0.874068 0.077813
O O12 0.759909 0.645630 0.000000
O O13 0.500000 0.066677 0.250000
O O14 0.500000 0.000000 0.112705
#
# Coordination Sequence:
#
# PCOD9499533 Si02
#       6
#    16  16  16  16  16   8
#     4  11  23  41  74 106 138 181 241 302 363 433
#     4  12  24  43  72 107 145 191 236 298 370 428
#     4  12  26  48  71  99 145 198 240 297 363 429
#     4  11  22  42  72 102 130 177 246 301 345 419
#     4  11  21  41  69 107 148 179 238 299 366 437
#     4  12  28  49  69 108 150 187 246 297 357 445
#
# _framework density 23.180951
#
# number of rings (size 3 to 8) (size 9 to 14) (size 15 to 20)
#    0.000    0.545    6.364    2.182    1.273    3.273 
#    0.000    5.455    0.000    0.000    0.000    0.000 
#    0.000    0.000    0.000    0.000    0.000    0.000 
#
# Total GULP energy -245235.678948 kJ/mol
# GULP energy per Si atom -5573.538158 kJ/mol
# Density = 2.312819 g / cm^3
# Si number density = 23.180951 Si / 1000 Ang^3
#
#
#
# Elastic Constant Matrix: (Units=GPa)
#
#
# Indices 1 2 3 4 5 6 
#
# 1 56.9950 27.2484 20.6085 0.0000 0.0000 0.0000
# 2 27.2484 140.8635 37.0934 0.0000 0.0000 0.0000
# 3 20.6085 37.0934 178.7246 0.0000 0.0000 0.0000
# 4 0.0000 0.0000 0.0000 28.5096 0.0000 0.0000
# 5 0.0000 0.0000 0.0000 0.0000 1.0850 0.0000
# 6 0.0000 0.0000 0.0000 0.0000 0.0000 19.7294
#
#
#
# Elastic Compliance Matrix: (Units=1/GPa)
#
#
# Indices 1 2 3 4 5 6 
#
# 1 0.019741 -0.003405 -0.001570 0.000000 0.000000 0.000000
# 2 -0.003405 0.008097 -0.001288 0.000000 0.000000 0.000000
# 3 -0.001570 -0.001288 0.006043 0.000000 0.000000 0.000000
# 4 0.000000 0.000000 0.000000 0.035076 0.000000 0.000000
# 5 0.000000 0.000000 0.000000 0.000000 0.921656 0.000000
# 6 0.000000 0.000000 0.000000 0.000000 0.000000 0.050686
#
#
# Mechanical properties :
#
#
# Convention : Reuss Voigt Hill
#
# Bulk Modulus (GPa) = 46.82537 60.72040 53.77289
# Shear Modulus (GPa) = 4.71279 29.30699 17.00989
#
# Velocity S-wave (km/s) = 1.42740 3.55952 2.71179
# Velocity P-wave (km/s) = 4.79170 6.56845 5.74913
#
# Compressibility (1/GPa) = 0.02135595
#
# Stress axis : x y z
#
# Youngs Moduli (GPa) = 50.65606 123.50392 165.46807
#
# Poissons Ratio (x) = 0.42057 0.25971
# Poissons Ratio (y) = 0.17250 0.21309
# Poissons Ratio (z) = 0.07951 0.15905
#
# Static dielectric constant tensor:
#      x y z
#    x 1.889070 0.000000 0.000000 
#    y 0.000000 1.927970 0.000000 
#    z 0.000000 0.000000 1.862930 
# 
# From -- ./inp_files/26504.got.cif
#   From: 2010.05.17/outbox.cif.g08.bks.cpg/sg66_14_cif.got.tgz:26504.got - 2010.06.03 17:51:23.
