data_PCOD9499498
_publ_section_title
;
Structure prediction by ZEFSAII (Michael W. Deem and Ramdas Pophale) SiO2 
 PCOD9499498
Probable space group: C C C M
;
_chemical_formula_sum "Si O2"
_cell_formula_units_Z 80
_cell_length_a 11.541539
_cell_length_b 16.139743
_cell_length_c 22.406710
_cell_angle_alpha 90.000000
_cell_angle_beta 90.000000
_cell_angle_gamma 90.000000
_cell_volume 4173.865323
_symmetry_space_group_name_H-M "C C C M"
_symmetry_group_IT_number 66
_symmetry_cell_setting 'orthorhombic'
loop_
_space_group_symop_operation_xyz
x,y,z
-x,-y,z
x,-y,1/2-z
-x,y,1/2-z
-x,-y,-z
x,y,-z
-x,y,1/2+z
x,-y,1/2+z
1/2+x,1/2+y,z
1/2-x,1/2-y,z
1/2+x,1/2-y,1/2-z
1/2-x,1/2+y,1/2-z
1/2-x,1/2-y,-z
1/2+x,1/2+y,-z
1/2-x,1/2+y,1/2+z
1/2+x,1/2-y,1/2+z
loop_
_atom_site_type_symbol
_atom_site_label
_atom_site_fract_x
_atom_site_fract_y
_atom_site_fract_z
Si Si1 0.827156 0.668552 0.787188
Si Si2 0.814513 0.969164 0.152671
Si Si3 0.923351 0.307607 0.157210
Si Si4 0.123079 0.454130 0.429136
Si Si5 0.462791 0.625365 0.819380
O O1 0.750000 0.750000 0.798806
O O2 0.765056 0.584006 0.803794
O O3 0.857736 0.668227 0.717748
O O4 0.942108 0.676604 0.826853
O O5 0.925908 0.908838 0.144316
O O6 0.731905 0.995535 0.098181
O O7 0.870585 0.051681 0.179982
O O8 0.883514 0.365380 0.103641
O O9 0.913204 0.208645 0.151920
O O10 0.134187 0.446291 0.500000
O O11 0.000000 0.500000 0.416251
O O12 0.500000 0.642363 0.750000
#
# Coordination Sequence:
#
# PCOD9499498 Si02
#       5
#    16  16  16  16  16
#     4  11  21  38  63  98 132 158 202 257 326 398
#     4  11  23  40  65  92 128 170 205 256 324 385
#     4  11  23  39  61  96 128 163 205 264 320 375
#     4  11  26  45  63  90 128 172 223 271 309 367
#     4  11  23  40  62 100 135 162 200 261 335 391
#
# _framework density 19.166886000000002
#
# number of rings (size 3 to 8) (size 9 to 14) (size 15 to 20)
#    0.000    1.000    6.000    1.200    8.400    0.000 
#    0.000    5.000    0.000    3.600    0.000    0.000 
#    0.000    0.000    0.000    0.000    0.000    0.000 
#
# Total GULP energy -223577.603939 kJ/mol
# GULP energy per Si atom -5589.440098 kJ/mol
# Density = 1.912326 g / cm^3
# Si number density = 19.166886 Si / 1000 Ang^3
#
#
#
# Elastic Constant Matrix: (Units=GPa)
#
#
# Indices 1 2 3 4 5 6 
#
# 1 89.8541 51.7625 39.4227 0.0000 0.0000 0.0000
# 2 51.7625 153.7135 60.4159 0.0000 0.0000 0.0000
# 3 39.4227 60.4159 86.3641 0.0000 0.0000 0.0000
# 4 0.0000 0.0000 0.0000 18.4607 0.0000 0.0000
# 5 0.0000 0.0000 0.0000 0.0000 23.5925 0.0000
# 6 0.0000 0.0000 0.0000 0.0000 0.0000 37.8621
#
#
#
# Elastic Compliance Matrix: (Units=1/GPa)
#
#
# Indices 1 2 3 4 5 6 
#
# 1 0.015013 -0.003258 -0.004574 0.000000 0.000000 0.000000
# 2 -0.003258 0.009680 -0.005284 0.000000 0.000000 0.000000
# 3 -0.004574 -0.005284 0.017363 0.000000 0.000000 0.000000
# 4 0.000000 0.000000 0.000000 0.054169 0.000000 0.000000
# 5 0.000000 0.000000 0.000000 0.000000 0.042386 0.000000
# 6 0.000000 0.000000 0.000000 0.000000 0.000000 0.026412
#
#
# Mechanical properties :
#
#
# Convention : Reuss Voigt Hill
#
# Bulk Modulus (GPa) = 63.19611 70.34820 66.77216
# Shear Modulus (GPa) = 25.44155 27.87177 26.65666
#
# Velocity S-wave (km/s) = 3.64726 3.81749 3.73334
# Velocity P-wave (km/s) = 7.12599 7.49757 7.31414
#
# Compressibility (1/GPa) = 0.01582376
#
# Stress axis : x y z
#
# Youngs Moduli (GPa) = 66.61079 103.31019 57.59257
#
# Poissons Ratio (x) = 0.33656 0.26342
# Poissons Ratio (y) = 0.21700 0.30434
# Poissons Ratio (z) = 0.30467 0.54592
#
# Static dielectric constant tensor:
#      x y z
#    x 1.747150 0.000000 0.000000 
#    y 0.000000 1.681270 0.000000 
#    z 0.000000 0.000000 1.608480 
# 
# From -- ./inp_files/56566.got.cif
#   From: 2010.05.17/outbox.cif.g08.bks.cpg/sg66_29_cif.got.tgz:56566.got - 2010.06.03 17:51:23.
