data_PCOD9499945
_publ_section_title
;
Structure prediction by ZEFSAII (Michael W. Deem and Ramdas Pophale) SiO2 
 PCOD9499945
Probable space group: C C C M
;
_chemical_formula_sum "Si O2"
_cell_formula_units_Z 64
_cell_length_a 12.568509
_cell_length_b 25.695570
_cell_length_c 10.054934
_cell_angle_alpha 90.000000
_cell_angle_beta 90.000000
_cell_angle_gamma 90.000000
_cell_volume 3247.291238
_symmetry_space_group_name_H-M "C C C M"
_symmetry_group_IT_number 66
_symmetry_cell_setting 'orthorhombic'
loop_
_space_group_symop_operation_xyz
x,y,z
-x,-y,z
x,-y,1/2-z
-x,y,1/2-z
-x,-y,-z
x,y,-z
-x,y,1/2+z
x,-y,1/2+z
1/2+x,1/2+y,z
1/2-x,1/2-y,z
1/2+x,1/2-y,1/2-z
1/2-x,1/2+y,1/2-z
1/2-x,1/2-y,-z
1/2+x,1/2+y,-z
1/2-x,1/2+y,1/2+z
1/2+x,1/2-y,1/2+z
loop_
_atom_site_type_symbol
_atom_site_label
_atom_site_fract_x
_atom_site_fract_y
_atom_site_fract_z
Si Si1 0.500000 0.133930 0.750000
Si Si2 0.200569 0.305416 0.844100
Si Si3 0.619234 0.384811 0.732847
Si Si4 0.277713 0.569701 0.000000
Si Si5 0.393074 0.533000 0.500000
Si Si6 0.474558 0.062368 0.500000
O O1 0.396733 0.171587 0.757135
O O2 0.515592 0.094123 0.627452
O O3 0.250000 0.250000 0.802352
O O4 0.298185 0.345012 0.830083
O O5 0.167232 0.301626 0.000000
O O6 0.500000 0.362977 0.750000
O O7 0.609254 0.432392 0.631002
O O8 0.667572 0.404902 0.871343
O O9 0.299272 0.508263 0.000000
O O10 0.151537 0.573821 0.000000
O O11 0.500000 0.500000 0.500000
O O12 0.500000 0.000000 0.500000
#
# Coordination Sequence:
#
# PCOD9499945 Si02
#       6
#     8  16  16   8   8   8
#     4  12  25  50  70 104 142 180 237 294 344 416
#     4  11  26  48  74 100 134 183 230 292 357 407
#     4  12  24  43  66 100 139 179 229 281 338 412
#     4  12  26  40  64 101 140 181 230 278 342 407
#     4  12  24  40  62  96 140 189 218 270 336 410
#     4  12  28  44  70 103 144 192 233 283 346 423
#
# _framework density 19.708734
#
# number of rings (size 3 to 8) (size 9 to 14) (size 15 to 20)
#    0.000    0.250    7.500    1.125    5.250    2.000 
#    0.000    2.500    0.000    0.000    0.000    0.000 
#    0.000    0.000    0.000    0.000    0.000    0.000 
#
# Total GULP energy -178817.202119 kJ/mol
# GULP energy per Si atom -5588.037566 kJ/mol
# Density = 1.966388 g / cm^3
# Si number density = 19.708734 Si / 1000 Ang^3
#
#
#
# Elastic Constant Matrix: (Units=GPa)
#
#
# Indices 1 2 3 4 5 6 
#
# 1 96.4803 39.1436 -6.4044 0.0000 0.0000 0.0000
# 2 39.1436 129.4355 36.6021 0.0000 0.0000 0.0000
# 3 -6.4044 36.6021 107.2775 0.0000 0.0000 0.0000
# 4 0.0000 0.0000 0.0000 -9.6124 0.0000 0.0000
# 5 0.0000 0.0000 0.0000 0.0000 27.2228 0.0000
# 6 0.0000 0.0000 0.0000 0.0000 0.0000 37.8203
#
#
#
# Elastic Compliance Matrix: (Units=1/GPa)
#
#
# Indices 1 2 3 4 5 6 
#
# 1 0.012271 -0.004337 0.002212 0.000000 0.000000 0.000000
# 2 -0.004337 0.010083 -0.003699 0.000000 0.000000 0.000000
# 3 0.002212 -0.003699 0.010716 0.000000 0.000000 0.000000
# 4 0.000000 0.000000 0.000000 -0.104032 0.000000 0.000000
# 5 0.000000 0.000000 0.000000 0.000000 0.036734 0.000000
# 6 0.000000 0.000000 0.000000 0.000000 0.000000 0.026441
#
#
# Mechanical properties :
#
#
# Convention : Reuss Voigt Hill
#
# Bulk Modulus (GPa) = 46.67876 52.43065 49.55471
# Shear Modulus (GPa) = 454.50724 28.67628 241.59176
#
# Velocity S-wave (km/s) = 15.20239 3.81859 11.08364
# Velocity P-wave (km/s) = 18.21774 6.78989 13.74752
#
# Compressibility (1/GPa) = 0.02142302
#
# Stress axis : x y z
#
# Youngs Moduli (GPa) = 81.49258 99.17301 93.31981
#
# Poissons Ratio (x) = 0.43007 -0.20644
# Poissons Ratio (y) = 0.35340 0.34521
# Poissons Ratio (z) = -0.18028 0.36687
#
# Static dielectric constant tensor:
#      x y z
#    x 1.733420 0.000000 0.000000 
#    y 0.000000 1.682010 0.000000 
#    z 0.000000 0.000000 1.706660 
# 
# From -- ./inp_files/14720.got.cif
#   From: 2010.05.17/outbox.cif.g08.bks.cpg/sg66_8_cif.got.tgz:14720.got - 2010.06.03 17:51:23.
