data_PCOD9499463
_publ_section_title
;
Structure prediction by ZEFSAII (Michael W. Deem and Ramdas Pophale) SiO2 
 PCOD9499463
Probable space group: C C C M
;
_chemical_formula_sum "Si O2"
_cell_formula_units_Z 64
_cell_length_a 17.862109
_cell_length_b 8.785019
_cell_length_c 21.301252
_cell_angle_alpha 90.000000
_cell_angle_beta 90.000000
_cell_angle_gamma 90.000000
_cell_volume 3342.570458
_symmetry_space_group_name_H-M "C C C M"
_symmetry_group_IT_number 66
_symmetry_cell_setting 'orthorhombic'
loop_
_space_group_symop_operation_xyz
x,y,z
-x,-y,z
x,-y,1/2-z
-x,y,1/2-z
-x,-y,-z
x,y,-z
-x,y,1/2+z
x,-y,1/2+z
1/2+x,1/2+y,z
1/2-x,1/2-y,z
1/2+x,1/2-y,1/2-z
1/2-x,1/2+y,1/2-z
1/2-x,1/2-y,-z
1/2+x,1/2+y,-z
1/2-x,1/2+y,1/2+z
1/2+x,1/2-y,1/2+z
loop_
_atom_site_type_symbol
_atom_site_label
_atom_site_fract_x
_atom_site_fract_y
_atom_site_fract_z
Si Si1 0.816637 0.665094 0.270427
Si Si2 0.598542 0.612755 0.190571
Si Si3 0.964217 0.334897 0.853868
Si Si4 0.582973 0.427781 0.931583
O O1 0.790893 0.500000 0.250000
O O2 0.750000 0.750000 0.306564
O O3 0.837095 0.771716 0.211490
O O4 0.894526 0.648234 0.307003
O O5 0.586529 0.500000 0.250000
O O6 0.526250 0.718175 0.174637
O O7 0.617183 0.512640 0.129099
O O8 0.930918 0.248006 0.914076
O O9 0.000000 0.500000 0.864732
O O10 0.500000 0.500000 0.935340
O O11 0.619067 0.447771 0.000000
#
# Coordination Sequence:
#
# PCOD9499463 Si02
#       4
#    16  16  16  16
#     4  12  25  36  56  92 124 154 199 254 304 352
#     4  11  21  35  62  88 119 156 198 246 302 354
#     4  11  22  36  60  88 119 157 202 249 296 356
#     4   9  20  35  57  88 122 152 190 245 306 358
#
# _framework density 19.146941999999999
#
# number of rings (size 3 to 8) (size 9 to 14) (size 15 to 20)
#    0.000    1.250    5.000    1.500    7.000    0.500 
#    0.000    0.000    0.000    1.500    0.000    0.000 
#    0.000    0.000    0.000    0.000    0.000    0.000 
#
# Total GULP energy -178522.877528 kJ/mol
# GULP energy per Si atom -5578.839923 kJ/mol
# Density = 1.910336 g / cm^3
# Si number density = 19.146942 Si / 1000 Ang^3
#
#
#
# Elastic Constant Matrix: (Units=GPa)
#
#
# Indices 1 2 3 4 5 6 
#
# 1 51.8085 26.9316 0.9278 0.0000 0.0000 0.0000
# 2 26.9316 155.9589 52.3354 0.0000 0.0000 0.0000
# 3 0.9278 52.3354 125.0905 0.0000 0.0000 0.0000
# 4 0.0000 0.0000 0.0000 8.8372 0.0000 0.0000
# 5 0.0000 0.0000 0.0000 0.0000 -2.4045 0.0000
# 6 0.0000 0.0000 0.0000 0.0000 0.0000 35.3464
#
#
#
# Elastic Compliance Matrix: (Units=1/GPa)
#
#
# Indices 1 2 3 4 5 6 
#
# 1 0.021484 -0.004254 0.001620 0.000000 0.000000 0.000000
# 2 -0.004254 0.008301 -0.003442 0.000000 0.000000 0.000000
# 3 0.001620 -0.003442 0.009422 0.000000 0.000000 0.000000
# 4 0.000000 0.000000 0.000000 0.113158 0.000000 0.000000
# 5 0.000000 0.000000 0.000000 0.000000 -0.415888 0.000000
# 6 0.000000 0.000000 0.000000 0.000000 0.000000 0.028291
#
#
# Mechanical properties :
#
#
# Convention : Reuss Voigt Hill
#
# Bulk Modulus (GPa) = 36.95822 54.80528 45.88175
# Shear Modulus (GPa) = -23.35769 25.20005 0.92118
#
# Velocity S-wave (km/s) = -3.49652 3.63180 0.69437
# Velocity P-wave (km/s) = 1.74455 6.80237 4.96567
#
# Compressibility (1/GPa) = 0.02705758
#
# Stress axis : x y z
#
# Youngs Moduli (GPa) = 46.54625 120.46191 106.13367
#
# Poissons Ratio (x) = 0.51240 -0.17197
# Poissons Ratio (y) = 0.19799 0.36527
# Poissons Ratio (z) = -0.07542 0.41458
#
# Static dielectric constant tensor:
#      x y z
#    x 1.683160 0.000000 0.000000 
#    y 0.000000 1.691600 0.000000 
#    z 0.000000 0.000000 1.718060 
# 
# From -- ./inp_files/50496.got.cif
#   From: 2010.05.17/outbox.cif.g08.bks.cpg/sg66_26_cif.got.tgz:50496.got - 2010.06.03 17:51:23.
