data_PCOD9499781
_publ_section_title
;
Structure prediction by ZEFSAII (Michael W. Deem and Ramdas Pophale) SiO2 
 PCOD9499781
Probable space group: C C C M
;
_chemical_formula_sum "Si O2"
_cell_formula_units_Z 80
_cell_length_a 19.878954
_cell_length_b 11.488664
_cell_length_c 15.463508
_cell_angle_alpha 90.000000
_cell_angle_beta 90.000000
_cell_angle_gamma 90.000000
_cell_volume 3531.596521
_symmetry_space_group_name_H-M "C C C M"
_symmetry_group_IT_number 66
_symmetry_cell_setting 'orthorhombic'
loop_
_space_group_symop_operation_xyz
x,y,z
-x,-y,z
x,-y,1/2-z
-x,y,1/2-z
-x,-y,-z
x,y,-z
-x,y,1/2+z
x,-y,1/2+z
1/2+x,1/2+y,z
1/2-x,1/2-y,z
1/2+x,1/2-y,1/2-z
1/2-x,1/2+y,1/2-z
1/2-x,1/2-y,-z
1/2+x,1/2+y,-z
1/2-x,1/2+y,1/2+z
1/2+x,1/2-y,1/2+z
loop_
_atom_site_type_symbol
_atom_site_label
_atom_site_fract_x
_atom_site_fract_y
_atom_site_fract_z
Si Si1 0.837061 0.993830 0.155889
Si Si2 0.011225 0.363933 0.646722
Si Si3 0.157529 0.738308 0.099813
Si Si4 0.378960 0.259804 0.091918
Si Si5 0.197652 0.614806 0.267855
O O1 0.873656 0.898013 0.099224
O O2 0.763496 0.936243 0.181723
O O3 0.871543 0.000000 0.250000
O O4 0.838235 0.122514 0.116261
O O5 0.082849 0.311986 0.618245
O O6 0.000000 0.500000 0.624031
O O7 0.000000 0.352122 0.750000
O O8 0.953483 0.288083 0.601960
O O9 0.200894 0.672412 0.173535
O O10 0.175589 0.712615 0.000000
O O11 0.336910 0.205412 0.169942
O O12 0.350115 0.220622 0.000000
O O13 0.153247 0.500000 0.250000
#
# Coordination Sequence:
#
# PCOD9499781 Si02
#       5
#    16  16  16  16  16
#     4  11  24  46  72  98 147 200 245 307 381 449
#     4  11  23  45  75 107 151 200 246 310 381 445
#     4  12  26  47  75 112 151 197 257 317 376 448
#     4  12  25  43  72 108 143 192 252 306 374 455
#     4  11  25  44  72 100 147 196 244 308 373 440
#
# _framework density 22.652646000000001
#
# number of rings (size 3 to 8) (size 9 to 14) (size 15 to 20)
#    0.000    0.600    4.000    3.000    2.800    7.200 
#    0.000   14.000    0.000    0.000    0.000    0.000 
#    0.000    0.000    0.000    0.000    0.000    0.000 
#
# Total GULP energy -223454.484538 kJ/mol
# GULP energy per Si atom -5586.362113 kJ/mol
# Density = 2.260109 g / cm^3
# Si number density = 22.652646 Si / 1000 Ang^3
#
#
#
# Elastic Constant Matrix: (Units=GPa)
#
#
# Indices 1 2 3 4 5 6 
#
# 1 115.5606 70.9287 27.6175 0.0000 0.0000 0.0000
# 2 70.9287 188.7802 55.7502 0.0000 0.0000 0.0000
# 3 27.6175 55.7502 174.8916 0.0000 0.0000 0.0000
# 4 0.0000 0.0000 0.0000 47.3595 0.0000 0.0000
# 5 0.0000 0.0000 0.0000 0.0000 -31.5860 0.0000
# 6 0.0000 0.0000 0.0000 0.0000 0.0000 32.1938
#
#
#
# Elastic Compliance Matrix: (Units=1/GPa)
#
#
# Indices 1 2 3 4 5 6 
#
# 1 0.011283 -0.004099 -0.000475 0.000000 0.000000 0.000000
# 2 -0.004099 0.007337 -0.001691 0.000000 0.000000 0.000000
# 3 -0.000475 -0.001691 0.006332 0.000000 0.000000 0.000000
# 4 0.000000 0.000000 0.000000 0.021115 0.000000 0.000000
# 5 0.000000 0.000000 0.000000 0.000000 -0.031660 0.000000
# 6 0.000000 0.000000 0.000000 0.000000 0.000000 0.031062
#
#
# Mechanical properties :
#
#
# Convention : Reuss Voigt Hill
#
# Bulk Modulus (GPa) = 80.51080 87.53615 84.02348
# Shear Modulus (GPa) = 80.46323 31.25583 55.85953
#
# Velocity S-wave (km/s) = 5.96637 3.71858 4.97119
# Velocity P-wave (km/s) = 9.11493 7.56067 8.37394
#
# Compressibility (1/GPa) = 0.01242069
#
# Stress axis : x y z
#
# Youngs Moduli (GPa) = 88.63024 136.30055 157.92703
#
# Poissons Ratio (x) = 0.55868 0.07503
# Poissons Ratio (y) = 0.36329 0.26713
# Poissons Ratio (z) = 0.04211 0.23055
#
# Static dielectric constant tensor:
#      x y z
#    x 1.908720 0.000000 0.000000 
#    y 0.000000 1.856000 0.000000 
#    z 0.000000 0.000000 1.847100 
# 
# From -- ./inp_files/32114.got.cif
#   From: 2010.05.17/outbox.cif.g08.bks.cpg/sg66_17_cif.got.tgz:32114.got - 2010.06.03 17:51:23.
