data_PCOD9499636
_publ_section_title
;
Structure prediction by ZEFSAII (Michael W. Deem and Ramdas Pophale) SiO2 
 PCOD9499636
Probable space group: C C C M
;
_chemical_formula_sum "Si O2"
_cell_formula_units_Z 72
_cell_length_a 27.155329
_cell_length_b 9.393313
_cell_length_c 14.178018
_cell_angle_alpha 90.000000
_cell_angle_beta 90.000000
_cell_angle_gamma 90.000000
_cell_volume 3616.507634
_symmetry_space_group_name_H-M "C C C M"
_symmetry_group_IT_number 66
_symmetry_cell_setting 'orthorhombic'
loop_
_space_group_symop_operation_xyz
x,y,z
-x,-y,z
x,-y,1/2-z
-x,y,1/2-z
-x,-y,-z
x,y,-z
-x,y,1/2+z
x,-y,1/2+z
1/2+x,1/2+y,z
1/2-x,1/2-y,z
1/2+x,1/2-y,1/2-z
1/2-x,1/2+y,1/2-z
1/2-x,1/2-y,-z
1/2+x,1/2+y,-z
1/2-x,1/2+y,1/2+z
1/2+x,1/2-y,1/2+z
loop_
_atom_site_type_symbol
_atom_site_label
_atom_site_fract_x
_atom_site_fract_y
_atom_site_fract_z
Si Si1 0.690307 0.212346 0.000000
Si Si2 0.054176 0.940538 0.000000
Si Si3 0.156121 0.966942 0.500000
Si Si4 0.211348 0.132794 0.187173
Si Si5 0.353292 0.149621 0.698903
Si Si6 0.055284 0.842101 0.209669
O O1 0.750000 0.250000 0.000000
O O2 0.663335 0.363971 0.000000
O O3 0.668961 0.135097 0.093027
O O4 0.057334 0.856902 0.902916
O O5 0.000000 0.000000 0.000000
O O6 0.097629 0.057490 0.000000
O O7 0.181322 0.914926 0.404351
O O8 0.250000 0.250000 0.153572
O O9 0.178469 0.221710 0.259042
O O10 0.230615 0.000000 0.250000
O O11 0.407921 0.210196 0.723079
O O12 0.347143 0.000000 0.750000
O O13 0.000000 0.820449 0.250000
O O14 0.071146 0.000000 0.250000
#
# Coordination Sequence:
#
# PCOD9499636 Si02
#       6
#     8   8   8  16  16  16
#     4  12  26  46  72  96 141 188 228 290 360 407
#     4  12  20  39  70 104 131 176 228 288 348 413
#     4  12  25  43  72 101 141 177 238 293 341 422
#     4  12  25  43  68 102 138 184 236 288 347 414
#     4  12  26  45  69  99 144 183 233 287 355 421
#     4  11  22  40  69 101 133 176 231 285 350 413
#
# _framework density 19.908709999999999
#
# number of rings (size 3 to 8) (size 9 to 14) (size 15 to 20)
#    0.000    0.222    6.667    3.667    3.111    1.333 
#    0.000    2.222    0.000    2.667    0.000    0.000 
#    0.000    0.000    0.000    0.000    0.000    0.000 
#
# Total GULP energy -200796.371154 kJ/mol
# GULP energy per Si atom -5577.676977 kJ/mol
# Density = 1.986340 g / cm^3
# Si number density = 19.908710 Si / 1000 Ang^3
#
#
#
# Elastic Constant Matrix: (Units=GPa)
#
#
# Indices 1 2 3 4 5 6 
#
# 1 124.2102 48.1280 41.6573 0.0000 0.0000 0.0000
# 2 48.1280 122.0212 57.0970 0.0000 0.0000 0.0000
# 3 41.6573 57.0970 158.3006 0.0000 0.0000 0.0000
# 4 0.0000 0.0000 0.0000 73.2944 0.0000 0.0000
# 5 0.0000 0.0000 0.0000 0.0000 23.4753 0.0000
# 6 0.0000 0.0000 0.0000 0.0000 0.0000 25.1131
#
#
#
# Elastic Compliance Matrix: (Units=1/GPa)
#
#
# Indices 1 2 3 4 5 6 
#
# 1 0.009761 -0.003186 -0.001420 0.000000 0.000000 0.000000
# 2 -0.003186 0.010899 -0.003093 0.000000 0.000000 0.000000
# 3 -0.001420 -0.003093 0.007806 0.000000 0.000000 0.000000
# 4 0.000000 0.000000 0.000000 0.013644 0.000000 0.000000
# 5 0.000000 0.000000 0.000000 0.000000 0.042598 0.000000
# 6 0.000000 0.000000 0.000000 0.000000 0.000000 0.039820
#
#
# Mechanical properties :
#
#
# Convention : Reuss Voigt Hill
#
# Bulk Modulus (GPa) = 76.51033 77.58849 77.04941
# Shear Modulus (GPa) = 34.65449 41.55321 38.10385
#
# Velocity S-wave (km/s) = 4.17666 4.57353 4.37959
# Velocity P-wave (km/s) = 7.85960 8.18207 8.02246
#
# Compressibility (1/GPa) = 0.01307013
#
# Stress axis : x y z
#
# Youngs Moduli (GPa) = 102.44421 91.75106 128.10317
#
# Poissons Ratio (x) = 0.29230 0.18186
# Poissons Ratio (y) = 0.32637 0.39620
# Poissons Ratio (z) = 0.14544 0.28377
#
# Static dielectric constant tensor:
#      x y z
#    x 0.553880 0.000000 0.000000 
#    y 0.000000 1.614400 0.000000 
#    z 0.000000 0.000000 1.706570 
# 
# From -- ./inp_files/24520.got.cif
#   From: 2010.05.17/outbox.cif.g08.bks.cpg/sg66_13_cif.got.tgz:24520.got - 2010.06.03 17:51:23.
