data_PCOD9499768
_publ_section_title
;
Structure prediction by ZEFSAII (Michael W. Deem and Ramdas Pophale) SiO2 
 PCOD9499768
Probable space group: C C C M
;
_chemical_formula_sum "Si O2"
_cell_formula_units_Z 64
_cell_length_a 8.882988
_cell_length_b 18.133988
_cell_length_c 16.302276
_cell_angle_alpha 90.000000
_cell_angle_beta 90.000000
_cell_angle_gamma 90.000000
_cell_volume 2626.035791
_symmetry_space_group_name_H-M "C C C M"
_symmetry_group_IT_number 66
_symmetry_cell_setting 'orthorhombic'
loop_
_space_group_symop_operation_xyz
x,y,z
-x,-y,z
x,-y,1/2-z
-x,y,1/2-z
-x,-y,-z
x,y,-z
-x,y,1/2+z
x,-y,1/2+z
1/2+x,1/2+y,z
1/2-x,1/2-y,z
1/2+x,1/2-y,1/2-z
1/2-x,1/2+y,1/2-z
1/2-x,1/2-y,-z
1/2+x,1/2+y,-z
1/2-x,1/2+y,1/2+z
1/2+x,1/2-y,1/2+z
loop_
_atom_site_type_symbol
_atom_site_label
_atom_site_fract_x
_atom_site_fract_y
_atom_site_fract_z
Si Si1 0.620793 0.084315 0.096653
Si Si2 0.793680 0.421945 0.654510
Si Si3 0.107659 0.195628 0.911075
Si Si4 0.675659 0.674852 0.696553
O O1 0.464708 0.105706 0.141475
O O2 0.739599 0.147357 0.114680
O O3 0.683663 0.008173 0.136102
O O4 0.593397 0.073839 0.000000
O O5 0.683166 0.385124 0.589241
O O6 0.720832 0.390107 0.738610
O O7 0.250000 0.250000 0.901013
O O8 0.990846 0.193326 0.836322
O O9 0.039211 0.212949 0.000000
O O10 0.750000 0.750000 0.725780
#
# Coordination Sequence:
#
# PCOD9499768 Si02
#       4
#    16  16  16  16
#     4  11  24  45  75 106 141 187 242 301 364 438
#     4  11  23  44  70 103 142 187 238 294 365 438
#     4  11  24  43  69 101 143 193 244 299 359 430
#     4  12  26  43  68 105 147 192 241 299 366 438
#
# _framework density 24.371334999999998
#
# number of rings (size 3 to 8) (size 9 to 14) (size 15 to 20)
#    0.000    0.750    0.000    8.250    0.000    9.000 
#    0.000    5.000    0.000    0.000    0.000    0.000 
#    0.000    0.000    0.000    0.000    0.000    0.000 
#
# Total GULP energy -178760.710671 kJ/mol
# GULP energy per Si atom -5586.272208 kJ/mol
# Density = 2.431587 g / cm^3
# Si number density = 24.371335 Si / 1000 Ang^3
#
#
#
# Elastic Constant Matrix: (Units=GPa)
#
#
# Indices 1 2 3 4 5 6 
#
# 1 111.0426 32.6397 74.2327 0.0000 0.0000 0.0000
# 2 32.6397 46.8482 40.3624 0.0000 0.0000 0.0000
# 3 74.2327 40.3624 203.0154 0.0000 0.0000 0.0000
# 4 0.0000 0.0000 0.0000 27.1055 0.0000 0.0000
# 5 0.0000 0.0000 0.0000 0.0000 21.6600 0.0000
# 6 0.0000 0.0000 0.0000 0.0000 0.0000 48.4565
#
#
#
# Elastic Compliance Matrix: (Units=1/GPa)
#
#
# Indices 1 2 3 4 5 6 
#
# 1 0.013216 -0.006087 -0.003622 0.000000 0.000000 0.000000
# 2 -0.006087 0.028561 -0.003453 0.000000 0.000000 0.000000
# 3 -0.003622 -0.003453 0.006937 0.000000 0.000000 0.000000
# 4 0.000000 0.000000 0.000000 0.036893 0.000000 0.000000
# 5 0.000000 0.000000 0.000000 0.000000 0.046168 0.000000
# 6 0.000000 0.000000 0.000000 0.000000 0.000000 0.020637
#
#
# Mechanical properties :
#
#
# Convention : Reuss Voigt Hill
#
# Bulk Modulus (GPa) = 44.66279 72.81954 58.74116
# Shear Modulus (GPa) = 26.85289 33.68917 30.27103
#
# Velocity S-wave (km/s) = 3.32297 3.72200 3.52813
# Velocity P-wave (km/s) = 5.75227 6.95809 6.38372
#
# Compressibility (1/GPa) = 0.02239000
#
# Stress axis : x y z
#
# Youngs Moduli (GPa) = 75.66374 35.01259 144.16111
#
# Poissons Ratio (x) = 0.21313 0.52220
# Poissons Ratio (y) = 0.46057 0.49773
# Poissons Ratio (z) = 0.27408 0.12089
#
# Static dielectric constant tensor:
#      x y z
#    x 1.992120 0.000000 0.000000 
#    y 0.000000 1.941110 0.000000 
#    z 0.000000 0.000000 2.000700 
# 
# From -- ./inp_files/41225.got.cif
#   From: 2010.05.17/outbox.cif.g08.bks.cpg/sg66_21_cif.got.tgz:41225.got - 2010.06.03 17:51:23.
