data_PCOD9499015
_publ_section_title
;
Structure prediction by ZEFSAII (Michael W. Deem and Ramdas Pophale) SiO2 
 PCOD9499015
Probable space group: C C C M
;
_chemical_formula_sum "Si O2"
_cell_formula_units_Z 96
_cell_length_a 10.200327
_cell_length_b 28.348841
_cell_length_c 17.607310
_cell_angle_alpha 90.000000
_cell_angle_beta 90.000000
_cell_angle_gamma 90.000000
_cell_volume 5091.460904
_symmetry_space_group_name_H-M "C C C M"
_symmetry_group_IT_number 66
_symmetry_cell_setting 'orthorhombic'
loop_
_space_group_symop_operation_xyz
x,y,z
-x,-y,z
x,-y,1/2-z
-x,y,1/2-z
-x,-y,-z
x,y,-z
-x,y,1/2+z
x,-y,1/2+z
1/2+x,1/2+y,z
1/2-x,1/2-y,z
1/2+x,1/2-y,1/2-z
1/2-x,1/2+y,1/2-z
1/2-x,1/2-y,-z
1/2+x,1/2+y,-z
1/2-x,1/2+y,1/2+z
1/2+x,1/2-y,1/2+z
loop_
_atom_site_type_symbol
_atom_site_label
_atom_site_fract_x
_atom_site_fract_y
_atom_site_fract_z
Si Si1 0.237634 0.585789 0.590801
Si Si2 0.903098 0.746824 0.821328
Si Si3 0.537685 0.341299 0.590759
Si Si4 0.004979 0.356123 0.841160
Si Si5 0.767362 0.108747 0.908219
Si Si6 0.845525 0.992345 0.340265
O O1 0.230822 0.587766 0.500000
O O2 0.357011 0.619689 0.617140
O O3 0.105900 0.606118 0.626095
O O4 0.267022 0.533237 0.617302
O O5 0.750000 0.750000 0.798888
O O6 0.930175 0.790660 0.875721
O O7 0.938793 0.696254 0.858161
O O8 0.000000 0.751492 0.750000
O O9 0.546205 0.339340 0.500000
O O10 0.392491 0.358726 0.610580
O O11 0.000000 0.359792 0.750000
O O12 0.863558 0.366920 0.876660
O O13 0.795775 0.058396 0.868734
O O14 0.760335 0.102979 0.000000
O O15 0.829695 0.000000 0.250000
O O16 0.000000 0.000000 0.358135
#
# Coordination Sequence:
#
# PCOD9499015 Si02
#       6
#    16  16  16  16  16  16
#     4  11  22  41  66  94 126 168 216 261 316 382
#     4  11  25  42  66  95 129 169 215 265 319 382
#     4  10  23  40  65  94 126 167 213 262 314 379
#     4  11  25  43  63  94 131 168 211 266 325 378
#     4  11  24  43  65  95 131 168 212 268 323 377
#     4  11  23  39  65  98 129 167 213 263 319 384
#
# _framework density 18.8551
#
# number of rings (size 3 to 8) (size 9 to 14) (size 15 to 20)
#    0.000    1.167    3.333    2.000    4.667    4.333 
#    0.000    5.000    0.000    0.000    0.000    0.000 
#    0.000    0.000    0.000    0.000    0.000    0.000 
#
# Total GULP energy -268311.070243 kJ/mol
# GULP energy per Si atom -5589.813963 kJ/mol
# Density = 1.881218 g / cm^3
# Si number density = 18.855100 Si / 1000 Ang^3
#
#
#
# Elastic Constant Matrix: (Units=GPa)
#
#
# Indices 1 2 3 4 5 6 
#
# 1 156.2497 51.9198 40.3789 0.0000 0.0000 0.0000
# 2 51.9198 114.3830 31.9261 0.0000 0.0000 0.0000
# 3 40.3789 31.9261 48.8159 0.0000 0.0000 0.0000
# 4 0.0000 0.0000 0.0000 24.4233 0.0000 0.0000
# 5 0.0000 0.0000 0.0000 0.0000 23.9128 0.0000
# 6 0.0000 0.0000 0.0000 0.0000 0.0000 36.7074
#
#
#
# Elastic Compliance Matrix: (Units=1/GPa)
#
#
# Indices 1 2 3 4 5 6 
#
# 1 0.008629 -0.002354 -0.005598 0.000000 0.000000 0.000000
# 2 -0.002354 0.011337 -0.005467 0.000000 0.000000 0.000000
# 3 -0.005598 -0.005467 0.028691 0.000000 0.000000 0.000000
# 4 0.000000 0.000000 0.000000 0.040945 0.000000 0.000000
# 5 0.000000 0.000000 0.000000 0.000000 0.041819 0.000000
# 6 0.000000 0.000000 0.000000 0.000000 0.000000 0.027242
#
#
# Mechanical properties :
#
#
# Convention : Reuss Voigt Hill
#
# Bulk Modulus (GPa) = 45.83271 63.09980 54.46625
# Shear Modulus (GPa) = 25.93705 30.02362 27.98033
#
# Velocity S-wave (km/s) = 3.71293 3.99474 3.85641
# Velocity P-wave (km/s) = 6.53772 7.40375 6.98417
#
# Compressibility (1/GPa) = 0.02181848
#
# Stress axis : x y z
#
# Youngs Moduli (GPa) = 115.88894 88.20520 34.85403
#
# Poissons Ratio (x) = 0.20766 0.19511
# Poissons Ratio (y) = 0.27284 0.19055
# Poissons Ratio (z) = 0.64873 0.48224
#
# Static dielectric constant tensor:
#      x y z
#    x 1.651420 0.000000 0.000000 
#    y 0.000000 1.630910 0.000000 
#    z 0.000000 0.000000 1.648620 
# 
# From -- ./inp_files/47342.got.cif
#   From: 2010.05.17/outbox.cif.g08.bks.cpg/sg66_24_cif.got.tgz:47342.got - 2010.06.03 17:51:23.
