data_PCOD9499209
_publ_section_title
;
Structure prediction by ZEFSAII (Michael W. Deem and Ramdas Pophale) SiO2 
 PCOD9499209
Probable space group: C C C M
;
_chemical_formula_sum "Si O2"
_cell_formula_units_Z 60
_cell_length_a 5.152271
_cell_length_b 26.740160
_cell_length_c 18.835928
_cell_angle_alpha 90.000000
_cell_angle_beta 90.000000
_cell_angle_gamma 90.000000
_cell_volume 2595.073849
_symmetry_space_group_name_H-M "C C C M"
_symmetry_group_IT_number 66
_symmetry_cell_setting 'orthorhombic'
loop_
_space_group_symop_operation_xyz
x,y,z
-x,-y,z
x,-y,1/2-z
-x,y,1/2-z
-x,-y,-z
x,y,-z
-x,y,1/2+z
x,-y,1/2+z
1/2+x,1/2+y,z
1/2-x,1/2-y,z
1/2+x,1/2-y,1/2-z
1/2-x,1/2+y,1/2-z
1/2-x,1/2-y,-z
1/2+x,1/2+y,-z
1/2-x,1/2+y,1/2+z
1/2+x,1/2-y,1/2+z
loop_
_atom_site_type_symbol
_atom_site_label
_atom_site_fract_x
_atom_site_fract_y
_atom_site_fract_z
Si Si1 0.287962 0.616911 0.500000
Si Si2 0.594456 0.801398 0.896721
Si Si3 0.250000 0.750000 0.000000
Si Si4 0.214083 0.548805 0.000000
Si Si5 0.000000 0.649595 0.750000
Si Si6 0.000000 0.919606 0.750000
Si Si7 0.000000 0.000000 0.373229
O O1 0.243903 0.652976 0.566805
O O2 0.563765 0.591052 0.500000
O O3 0.062006 0.575435 0.500000
O O4 0.750000 0.750000 0.910256
O O5 0.330638 0.790989 0.938644
O O6 0.552881 0.815094 0.816459
O O7 0.277074 0.517569 0.071674
O O8 0.248998 0.614541 0.763597
O O9 0.943997 0.954421 0.818984
#
# Coordination Sequence:
#
# PCOD9499209 Si02
#       7
#     8  16   4   8   8   8   8
#     4  11  24  43  67 100 143 175 243 286 357 413
#     4  11  27  43  71 102 142 195 234 303 349 430
#     4  10  24  44  68  98 132 188 226 292 350 410
#     4  11  24  41  69 104 131 187 228 299 338 439
#     4  12  28  46  74 105 146 185 250 292 358 424
#     4  11  26  47  68 105 140 191 226 307 352 435
#     4  10  24  44  72  98 144 178 238 282 374 422
#
# _framework density 23.120730999999999
#
# number of rings (size 3 to 8) (size 9 to 14) (size 15 to 20)
#    0.000    1.067    0.000    4.800   13.067    6.400 
#    0.000    0.000    0.000    0.000    0.000    0.000 
#    0.000    0.000    0.000    0.000    0.000    0.000 
#
# Total GULP energy -167522.967877 kJ/mol
# GULP energy per Si atom -5584.098929 kJ/mol
# Density = 2.306811 g / cm^3
# Si number density = 23.120731 Si / 1000 Ang^3
#
#
#
# Elastic Constant Matrix: (Units=GPa)
#
#
# Indices 1 2 3 4 5 6 
#
# 1 69.3905 35.9263 -13.5212 0.0000 0.0000 0.0000
# 2 35.9263 109.8944 41.4306 0.0000 0.0000 0.0000
# 3 -13.5212 41.4306 171.7298 0.0000 0.0000 0.0000
# 4 0.0000 0.0000 0.0000-1043.0919 0.0000 0.0000
# 5 0.0000 0.0000 0.0000 0.0000 -21.6834 0.0000
# 6 0.0000 0.0000 0.0000 0.0000 0.0000 52.0005
#
#
#
# Elastic Compliance Matrix: (Units=1/GPa)
#
#
# Indices 1 2 3 4 5 6 
#
# 1 0.018885 -0.007408 0.003274 0.000000 0.000000 0.000000
# 2 -0.007408 0.012916 -0.003699 0.000000 0.000000 0.000000
# 3 0.003274 -0.003699 0.006973 0.000000 0.000000 0.000000
# 4 0.000000 0.000000 0.000000 -0.000959 0.000000 0.000000
# 5 0.000000 0.000000 0.000000 0.000000 -0.046118 0.000000
# 6 0.000000 0.000000 0.000000 0.000000 0.000000 0.019231
#
#
# Mechanical properties :
#
#
# Convention : Reuss Voigt Hill
#
# Bulk Modulus (GPa) = 43.27589 53.18736 48.23163
# Shear Modulus (GPa) = 145.78619 -183.40968 -18.81175
#
# Velocity S-wave (km/s) = 7.94929 -8.91623 -2.85552
# Velocity P-wave (km/s) = 10.14953 9.10740 3.16766
#
# Compressibility (1/GPa) = 0.02310755
#
# Stress axis : x y z
#
# Youngs Moduli (GPa) = 52.95311 77.42260 143.40264
#
# Poissons Ratio (x) = 0.57355 -0.46952
# Poissons Ratio (y) = 0.39228 0.53050
# Poissons Ratio (z) = -0.17337 0.28641
#
# Static dielectric constant tensor:
#      x y z
#    x 1.937450 0.000000 0.000000 
#    y 0.000000 1.851710 0.000000 
#    z 0.000000 0.000000 1.829280 
# 
# From -- ./inp_files/34919.got.cif
#   From: 2010.05.17/outbox.cif.g08.bks.cpg/sg66_18_cif.got.tgz:34919.got - 2010.06.03 17:51:23.
