data_PCOD9499689
_publ_section_title
;
Structure prediction by ZEFSAII (Michael W. Deem and Ramdas Pophale) SiO2 
 PCOD9499689
Probable space group: C C C M
;
_chemical_formula_sum "Si O2"
_cell_formula_units_Z 88
_cell_length_a 24.829480
_cell_length_b 6.968892
_cell_length_c 24.951339
_cell_angle_alpha 90.000000
_cell_angle_beta 90.000000
_cell_angle_gamma 90.000000
_cell_volume 4317.429108
_symmetry_space_group_name_H-M "C C C M"
_symmetry_group_IT_number 66
_symmetry_cell_setting 'orthorhombic'
loop_
_space_group_symop_operation_xyz
x,y,z
-x,-y,z
x,-y,1/2-z
-x,y,1/2-z
-x,-y,-z
x,y,-z
-x,y,1/2+z
x,-y,1/2+z
1/2+x,1/2+y,z
1/2-x,1/2-y,z
1/2+x,1/2-y,1/2-z
1/2-x,1/2+y,1/2-z
1/2-x,1/2-y,-z
1/2+x,1/2+y,-z
1/2-x,1/2+y,1/2+z
1/2+x,1/2-y,1/2+z
loop_
_atom_site_type_symbol
_atom_site_label
_atom_site_fract_x
_atom_site_fract_y
_atom_site_fract_z
Si Si1 0.941254 0.096910 0.879557
Si Si2 0.452559 0.270103 0.500000
Si Si3 0.750000 0.750000 0.861841
Si Si4 0.894910 0.590648 0.690227
Si Si5 0.427213 0.178589 0.000000
Si Si6 0.868905 0.252260 0.610464
Si Si7 0.201646 0.881926 0.202702
O O1 0.939380 0.269546 0.836468
O O2 0.892510 0.948793 0.867761
O O3 0.932343 0.159495 0.941800
O O4 0.000000 0.000000 0.876703
O O5 0.482971 0.706372 0.500000
O O6 0.440766 0.044482 0.500000
O O7 0.805057 0.717734 0.893598
O O8 0.731564 0.550314 0.831726
O O9 0.900971 0.500000 0.750000
O O10 0.889553 0.411975 0.650950
O O11 0.841115 0.722286 0.684247
O O12 0.394876 0.225223 0.947155
O O13 0.250000 0.750000 0.224868
O O14 0.173630 0.000000 0.250000
#
# Coordination Sequence:
#
# PCOD9499689 Si02
#       7
#    16   8   8  16   8  16  16
#     4  12  25  45  77 105 137 191 248 304 362 427
#     4  11  22  45  79 107 131 182 262 306 350 427
#     4  12  24  39  68 106 142 184 230 291 362 442
#     4  12  27  45  69 103 151 190 235 294 361 433
#     4  11  23  43  78 102 137 186 240 311 359 430
#     4  12  25  45  71 105 144 185 240 297 365 430
#     4  12  22  40  69 100 132 188 246 286 331 413
#
# _framework density 20.382501000000001
#
# number of rings (size 3 to 8) (size 9 to 14) (size 15 to 20)
#    0.000    0.182    8.182    2.455    0.000    1.091 
#    0.000    2.727    0.000    2.182    0.000    0.000 
#    0.000    0.000    0.000    0.000    0.000    0.000 
#
# Total GULP energy -245297.782559 kJ/mol
# GULP energy per Si atom -5574.949604 kJ/mol
# Density = 2.033611 g / cm^3
# Si number density = 20.382501 Si / 1000 Ang^3
#
#
#
# Elastic Constant Matrix: (Units=GPa)
#
#
# Indices 1 2 3 4 5 6 
#
# 1 73.7925 37.1658 31.8124 0.0000 0.0000 0.0000
# 2 37.1658 141.1099 74.9437 0.0000 0.0000 0.0000
# 3 31.8124 74.9437 121.2960 0.0000 0.0000 0.0000
# 4 0.0000 0.0000 0.0000 53.1992 0.0000 0.0000
# 5 0.0000 0.0000 0.0000 0.0000 22.9746 0.0000
# 6 0.0000 0.0000 0.0000 0.0000 0.0000 38.1199
#
#
#
# Elastic Compliance Matrix: (Units=1/GPa)
#
#
# Indices 1 2 3 4 5 6 
#
# 1 0.016073 -0.002969 -0.002381 0.000000 0.000000 0.000000
# 2 -0.002969 0.011096 -0.006077 0.000000 0.000000 0.000000
# 3 -0.002381 -0.006077 0.012624 0.000000 0.000000 0.000000
# 4 0.000000 0.000000 0.000000 0.018797 0.000000 0.000000
# 5 0.000000 0.000000 0.000000 0.000000 0.043526 0.000000
# 6 0.000000 0.000000 0.000000 0.000000 0.000000 0.026233
#
#
# Mechanical properties :
#
#
# Convention : Reuss Voigt Hill
#
# Bulk Modulus (GPa) = 59.03657 69.33805 64.18731
# Shear Modulus (GPa) = 31.87744 35.67718 33.77731
#
# Velocity S-wave (km/s) = 3.95899 4.18830 4.07525
# Velocity P-wave (km/s) = 7.06578 7.58165 7.32826
#
# Compressibility (1/GPa) = 0.01693865
#
# Stress axis : x y z
#
# Youngs Moduli (GPa) = 62.21497 90.12068 79.21578
#
# Poissons Ratio (x) = 0.26754 0.18864
# Poissons Ratio (y) = 0.18470 0.48142
# Poissons Ratio (z) = 0.14815 0.54769
#
# Static dielectric constant tensor:
#      x y z
#    x 1.738600 0.000000 0.000000 
#    y 0.000000 1.770050 0.000000 
#    z 0.000000 0.000000 1.710240 
# 
# From -- ./inp_files/70413.got.cif
#   From: 2010.05.17/outbox.cif.g08.bks.cpg/sg66_36_cif.got.tgz:70413.got - 2010.06.03 17:51:23.
