data_PCOD9499406
_publ_section_title
;
Structure prediction by ZEFSAII (Michael W. Deem and Ramdas Pophale) SiO2 
 PCOD9499406
Probable space group: C C C M
;
_chemical_formula_sum "Si O2"
_cell_formula_units_Z 80
_cell_length_a 11.430164
_cell_length_b 21.941900
_cell_length_c 14.120855
_cell_angle_alpha 90.000000
_cell_angle_beta 90.000000
_cell_angle_gamma 90.000000
_cell_volume 3541.503592
_symmetry_space_group_name_H-M "C C C M"
_symmetry_group_IT_number 66
_symmetry_cell_setting 'orthorhombic'
loop_
_space_group_symop_operation_xyz
x,y,z
-x,-y,z
x,-y,1/2-z
-x,y,1/2-z
-x,-y,-z
x,y,-z
-x,y,1/2+z
x,-y,1/2+z
1/2+x,1/2+y,z
1/2-x,1/2-y,z
1/2+x,1/2-y,1/2-z
1/2-x,1/2+y,1/2-z
1/2-x,1/2-y,-z
1/2+x,1/2+y,-z
1/2-x,1/2+y,1/2+z
1/2+x,1/2-y,1/2+z
loop_
_atom_site_type_symbol
_atom_site_label
_atom_site_fract_x
_atom_site_fract_y
_atom_site_fract_z
Si Si1 0.671330 0.358846 0.193700
Si Si2 0.446539 0.914636 0.603164
Si Si3 0.074793 0.831333 0.611525
Si Si4 0.682401 0.968097 0.345951
Si Si5 0.626256 0.795925 0.201887
O O1 0.624653 0.373282 0.301654
O O2 0.563940 0.330334 0.135606
O O3 0.720804 0.417011 0.136624
O O4 0.778262 0.313121 0.217861
O O5 0.498200 0.903290 0.500000
O O6 0.560408 0.931273 0.664692
O O7 0.378605 0.855579 0.636413
O O8 0.361162 0.972884 0.597381
O O9 0.094687 0.845712 0.500000
O O10 0.130332 0.765624 0.639179
O O11 0.720062 0.000000 0.250000
O O12 0.500000 0.791545 0.250000
#
# Coordination Sequence:
#
# PCOD9499406 Si02
#       5
#    16  16  16  16  16
#     4  11  24  44  74  95 140 190 226 291 357 415
#     4  11  22  35  62 106 141 171 222 288 354 422
#     4  11  27  47  68 102 139 186 246 290 340 425
#     4  11  20  39  64  93 133 182 221 275 353 414
#     4  12  21  42  70 100 138 181 222 285 357 425
#
# _framework density 22.589276000000002
#
# number of rings (size 3 to 8) (size 9 to 14) (size 15 to 20)
#    0.000    0.800    6.000    3.600    0.000    4.000 
#    0.000    3.000    0.000    1.200    0.000    0.000 
#    0.000    0.000    0.000    0.000    0.000    0.000 
#
# Total GULP energy -222810.293198 kJ/mol
# GULP energy per Si atom -5570.257330 kJ/mol
# Density = 2.253786 g / cm^3
# Si number density = 22.589276 Si / 1000 Ang^3
#
#
#
# Elastic Constant Matrix: (Units=GPa)
#
#
# Indices 1 2 3 4 5 6 
#
# 1 106.6601 19.6325 6.5847 0.0000 0.0000 0.0000
# 2 19.6325 118.5170 2.4259 0.0000 0.0000 0.0000
# 3 6.5847 2.4259 53.6105 0.0000 0.0000 0.0000
# 4 0.0000 0.0000 0.0000 -14.2527 0.0000 0.0000
# 5 0.0000 0.0000 0.0000 0.0000 21.3526 0.0000
# 6 0.0000 0.0000 0.0000 0.0000 0.0000 41.7013
#
#
#
# Elastic Compliance Matrix: (Units=1/GPa)
#
#
# Indices 1 2 3 4 5 6 
#
# 1 0.009738 -0.001590 -0.001124 0.000000 0.000000 0.000000
# 2 -0.001590 0.008705 -0.000199 0.000000 0.000000 0.000000
# 3 -0.001124 -0.000199 0.018800 0.000000 0.000000 0.000000
# 4 0.000000 0.000000 0.000000 -0.070162 0.000000 0.000000
# 5 0.000000 0.000000 0.000000 0.000000 0.046833 0.000000
# 6 0.000000 0.000000 0.000000 0.000000 0.000000 0.023980
#
#
# Mechanical properties :
#
#
# Convention : Reuss Voigt Hill
#
# Bulk Modulus (GPa) = 31.82953 37.34153 34.58553
# Shear Modulus (GPa) = 92.26574 26.43656 59.35115
#
# Velocity S-wave (km/s) = 6.39794 3.42470 5.13138
# Velocity P-wave (km/s) = 8.28850 5.67491 7.10295
#
# Compressibility (1/GPa) = 0.03141736
#
# Stress axis : x y z
#
# Youngs Moduli (GPa) = 102.69427 114.87568 53.19117
#
# Poissons Ratio (x) = 0.18266 0.05979
# Poissons Ratio (y) = 0.16329 0.01056
# Poissons Ratio (z) = 0.11544 0.02282
#
# Static dielectric constant tensor:
#      x y z
#    x 1.892270 0.000000 0.000000 
#    y 0.000000 1.889640 0.000000 
#    z 0.000000 0.000000 1.915410 
# 
# From -- ./inp_files/26365.got.cif
#   From: 2010.05.17/outbox.cif.g08.bks.cpg/sg66_14_cif.got.tgz:26365.got - 2010.06.03 17:51:23.
