data_PCOD9499382
_publ_section_title
;
Structure prediction by ZEFSAII (Michael W. Deem and Ramdas Pophale) SiO2 
 PCOD9499382
Probable space group: C C C M
;
_chemical_formula_sum "Si O2"
_cell_formula_units_Z 80
_cell_length_a 22.850428
_cell_length_b 23.084090
_cell_length_c 9.938935
_cell_angle_alpha 90.000000
_cell_angle_beta 90.000000
_cell_angle_gamma 90.000000
_cell_volume 5242.602717
_symmetry_space_group_name_H-M "C C C M"
_symmetry_group_IT_number 66
_symmetry_cell_setting 'orthorhombic'
loop_
_space_group_symop_operation_xyz
x,y,z
-x,-y,z
x,-y,1/2-z
-x,y,1/2-z
-x,-y,-z
x,y,-z
-x,y,1/2+z
x,-y,1/2+z
1/2+x,1/2+y,z
1/2-x,1/2-y,z
1/2+x,1/2-y,1/2-z
1/2-x,1/2+y,1/2-z
1/2-x,1/2-y,-z
1/2+x,1/2+y,-z
1/2-x,1/2+y,1/2+z
1/2+x,1/2-y,1/2+z
loop_
_atom_site_type_symbol
_atom_site_label
_atom_site_fract_x
_atom_site_fract_y
_atom_site_fract_z
Si Si1 0.861732 0.441765 0.000000
Si Si2 0.676502 0.870380 0.254765
Si Si3 0.879389 0.247884 0.839435
Si Si4 0.287793 0.690361 0.346343
Si Si5 0.511889 0.121383 0.000000
Si Si6 0.000000 0.707835 0.750000
Si Si7 0.112199 0.423490 0.000000
O O1 0.828802 0.418657 0.131468
O O2 0.926127 0.411255 0.000000
O O3 0.867206 0.510496 0.000000
O O4 0.651266 0.810719 0.317545
O O5 0.741655 0.857603 0.202480
O O6 0.636588 0.889739 0.129732
O O7 0.839047 0.202111 0.760326
O O8 0.942020 0.253714 0.766628
O O9 0.884485 0.237504 0.000000
O O10 0.307840 0.679877 0.500000
O O11 0.250000 0.750000 0.349988
O O12 0.503806 0.164235 0.125013
O O13 0.457901 0.077483 0.000000
#
# Coordination Sequence:
#
# PCOD9499382 Si02
#       7
#     8  16  16  16   8   8   8
#     4  12  23  36  48  75  95 135 185 222 261 284
#     4  11  20  36  50  69  99 127 167 220 262 303
#     4  11  21  33  51  75  97 130 168 205 257 307
#     4   9  20  32  52  74  91 122 163 207 261 315
#     4  12  21  36  48  66  98 142 178 224 253 282
#     4  12  20  32  51  70 104 134 169 208 256 296
#     4  12  23  34  54  67  97 137 183 226 253 292
#
# _framework density 15.259596
#
# number of rings (size 3 to 8) (size 9 to 14) (size 15 to 20)
#    0.000    1.000    7.000    0.900    4.200    1.200 
#    0.000    3.000    0.000    0.000    0.000    0.000 
#    0.000    0.000    0.000    5.400    0.000    0.000 
#
# Total GULP energy -223197.664481 kJ/mol
# GULP energy per Si atom -5579.941612 kJ/mol
# Density = 1.522486 g / cm^3
# Si number density = 15.259596 Si / 1000 Ang^3
#
#
#
# Elastic Constant Matrix: (Units=GPa)
#
#
# Indices 1 2 3 4 5 6 
#
# 1 65.0547 28.1409 16.9823 0.0000 0.0000 0.0000
# 2 28.1409 40.9671 18.1271 0.0000 0.0000 0.0000
# 3 16.9823 18.1271 90.0095 0.0000 0.0000 0.0000
# 4 0.0000 0.0000 0.0000 260.6190 0.0000 0.0000
# 5 0.0000 0.0000 0.0000 0.0000 20.7013 0.0000
# 6 0.0000 0.0000 0.0000 0.0000 0.0000 20.8936
#
#
#
# Elastic Compliance Matrix: (Units=1/GPa)
#
#
# Indices 1 2 3 4 5 6 
#
# 1 0.021991 -0.014568 -0.001215 0.000000 0.000000 0.000000
# 2 -0.014568 0.036449 -0.004592 0.000000 0.000000 0.000000
# 3 -0.001215 -0.004592 0.012264 0.000000 0.000000 0.000000
# 4 0.000000 0.000000 0.000000 0.003837 0.000000 0.000000
# 5 0.000000 0.000000 0.000000 0.000000 0.048306 0.000000
# 6 0.000000 0.000000 0.000000 0.000000 0.000000 0.047862
#
#
# Mechanical properties :
#
#
# Convention : Reuss Voigt Hill
#
# Bulk Modulus (GPa) = 33.38543 35.83689 34.61116
# Shear Modulus (GPa) = 22.57924 69.29485 45.93704
#
# Velocity S-wave (km/s) = 3.85083 6.74605 5.49264
# Velocity P-wave (km/s) = 6.45737 9.17686 7.93450
#
# Compressibility (1/GPa) = 0.02995319
#
# Stress axis : x y z
#
# Youngs Moduli (GPa) = 45.47393 27.43586 81.53973
#
# Poissons Ratio (x) = 0.39969 0.09908
# Poissons Ratio (y) = 0.66247 0.37442
# Poissons Ratio (z) = 0.05526 0.12598
#
# Static dielectric constant tensor:
#      x y z
#    x 1.525350 0.000000 0.000000 
#    y 0.000000 1.474950 0.000000 
#    z 0.000000 0.000000 1.546110 
# 
# From -- ./inp_files/6810.got.cif
#   From: 2010.05.17/outbox.cif.g08.bks.cpg/sg66_4_cif.got.tgz:6810.got - 2010.06.03 17:51:23.
