data_PCOD9499236
_publ_section_title
;
Structure prediction by ZEFSAII (Michael W. Deem and Ramdas Pophale) SiO2 
 PCOD9499236
Probable space group: C C C M
;
_chemical_formula_sum "Si O2"
_cell_formula_units_Z 56
_cell_length_a 5.056223
_cell_length_b 28.183764
_cell_length_c 18.312965
_cell_angle_alpha 90.000000
_cell_angle_beta 90.000000
_cell_angle_gamma 90.000000
_cell_volume 2609.659699
_symmetry_space_group_name_H-M "C C C M"
_symmetry_group_IT_number 66
_symmetry_cell_setting 'orthorhombic'
loop_
_space_group_symop_operation_xyz
x,y,z
-x,-y,z
x,-y,1/2-z
-x,y,1/2-z
-x,-y,-z
x,y,-z
-x,y,1/2+z
x,-y,1/2+z
1/2+x,1/2+y,z
1/2-x,1/2-y,z
1/2+x,1/2-y,1/2-z
1/2-x,1/2+y,1/2-z
1/2-x,1/2-y,-z
1/2+x,1/2+y,-z
1/2-x,1/2+y,1/2+z
1/2+x,1/2-y,1/2+z
loop_
_atom_site_type_symbol
_atom_site_label
_atom_site_fract_x
_atom_site_fract_y
_atom_site_fract_z
Si Si1 0.427382 0.595314 0.415467
Si Si2 0.250000 0.750000 0.798939
Si Si3 0.059333 0.443767 0.332408
Si Si4 0.046399 0.794496 0.417545
O O1 0.498298 0.585264 0.500000
O O2 0.657369 0.574672 0.362361
O O3 0.362514 0.651647 0.410874
O O4 0.155315 0.572696 0.390703
O O5 0.500000 0.761814 0.750000
O O6 0.328985 0.709127 0.854771
O O7 0.000000 0.500000 0.328382
O O8 0.000000 0.425122 0.250000
O O9 0.942857 0.789494 0.500000
O O10 0.250000 0.750000 0.407266
#
# Coordination Sequence:
#
# PCOD9499236 Si02
#       4
#    16   8  16  16
#     4  11  25  43  70 102 131 175 229 277 330 394
#     4  12  25  42  63  96 132 172 222 274 321 378
#     4  11  25  46  69  98 137 177 217 274 348 409
#     4  10  24  46  68  94 137 183 223 270 332 399
#
# _framework density 21.458738
#
# number of rings (size 3 to 8) (size 9 to 14) (size 15 to 20)
#    0.000    1.143    1.429    3.000    4.000    9.143 
#    0.000    0.000    0.000    0.000    0.000    0.000 
#    0.000    0.000    0.000    0.000    0.000    0.000 
#
# Total GULP energy -156156.820844 kJ/mol
# GULP energy per Si atom -5577.029316 kJ/mol
# Density = 2.140990 g / cm^3
# Si number density = 21.458738 Si / 1000 Ang^3
#
#
#
# Elastic Constant Matrix: (Units=GPa)
#
#
# Indices 1 2 3 4 5 6 
#
# 1 79.6333 8.7482 11.2437 0.0000 0.0000 0.0000
# 2 8.7482 92.6881 17.2510 0.0000 0.0000 0.0000
# 3 11.2437 17.2510 118.1185 0.0000 0.0000 0.0000
# 4 0.0000 0.0000 0.0000 18.5065 0.0000 0.0000
# 5 0.0000 0.0000 0.0000 0.0000 49.0385 0.0000
# 6 0.0000 0.0000 0.0000 0.0000 0.0000 36.7772
#
#
#
# Elastic Compliance Matrix: (Units=1/GPa)
#
#
# Indices 1 2 3 4 5 6 
#
# 1 0.012820 -0.001010 -0.001073 0.000000 0.000000 0.000000
# 2 -0.001010 0.011170 -0.001535 0.000000 0.000000 0.000000
# 3 -0.001073 -0.001535 0.008792 0.000000 0.000000 0.000000
# 4 0.000000 0.000000 0.000000 0.054035 0.000000 0.000000
# 5 0.000000 0.000000 0.000000 0.000000 0.020392 0.000000
# 6 0.000000 0.000000 0.000000 0.000000 0.000000 0.027191
#
#
# Mechanical properties :
#
#
# Convention : Reuss Voigt Hill
#
# Bulk Modulus (GPa) = 39.14535 40.54727 39.84631
# Shear Modulus (GPa) = 33.29956 37.74424 35.52190
#
# Velocity S-wave (km/s) = 3.94356 4.19850 4.07302
# Velocity P-wave (km/s) = 6.24638 6.51457 6.38189
#
# Compressibility (1/GPa) = 0.02554582
#
# Stress axis : x y z
#
# Youngs Moduli (GPa) = 78.00297 89.52593 113.73455
#
# Poissons Ratio (x) = 0.09045 0.12201
# Poissons Ratio (y) = 0.07881 0.17460
# Poissons Ratio (z) = 0.08368 0.13744
#
# Static dielectric constant tensor:
#      x y z
#    x 1.763100 0.000000 0.000000 
#    y 0.000000 14.079240 0.000000 
#    z 0.000000 0.000000 1.784070 
# 
# From -- ./inp_files/34870.got.cif
#   From: 2010.05.17/outbox.cif.g08.bks.cpg/sg66_18_cif.got.tgz:34870.got - 2010.06.03 17:51:23.
