data_PCOD9499246
_publ_section_title
;
Structure prediction by ZEFSAII (Michael W. Deem and Ramdas Pophale) SiO2 
 PCOD9499246
Probable space group: C C C M
;
_chemical_formula_sum "Si O2"
_cell_formula_units_Z 68
_cell_length_a 27.925673
_cell_length_b 4.920346
_cell_length_c 20.751254
_cell_angle_alpha 90.000000
_cell_angle_beta 90.000000
_cell_angle_gamma 90.000000
_cell_volume 2851.304754
_symmetry_space_group_name_H-M "C C C M"
_symmetry_group_IT_number 66
_symmetry_cell_setting 'orthorhombic'
loop_
_space_group_symop_operation_xyz
x,y,z
-x,-y,z
x,-y,1/2-z
-x,y,1/2-z
-x,-y,-z
x,y,-z
-x,y,1/2+z
x,-y,1/2+z
1/2+x,1/2+y,z
1/2-x,1/2-y,z
1/2+x,1/2-y,1/2-z
1/2-x,1/2+y,1/2-z
1/2-x,1/2-y,-z
1/2+x,1/2+y,-z
1/2-x,1/2+y,1/2+z
1/2+x,1/2-y,1/2+z
loop_
_atom_site_type_symbol
_atom_site_label
_atom_site_fract_x
_atom_site_fract_y
_atom_site_fract_z
Si Si1 0.716957 0.017868 0.638127
Si Si2 0.392250 0.310996 0.500000
Si Si3 0.174710 0.320687 0.000000
Si Si4 0.875673 0.727087 0.208834
Si Si5 0.000000 0.500000 0.500000
Si Si6 0.951777 0.901968 0.895100
O O1 0.750000 0.250000 0.667143
O O2 0.668373 0.051293 0.678589
O O3 0.750000 0.750000 0.638216
O O4 0.703250 0.101808 0.564683
O O5 0.371518 0.012752 0.500000
O O6 0.426220 0.370552 0.560229
O O7 0.346450 0.515587 0.500000
O O8 0.902709 0.500000 0.250000
O O9 0.909870 0.813173 0.151419
O O10 0.862837 0.000000 0.250000
O O11 0.028271 0.679664 0.555664
O O12 0.000000 0.000000 0.860000
#
# Coordination Sequence:
#
# PCOD9499246 Si02
#       6
#    16   8   8  16   4  16
#     4  12  26  48  79 112 147 192 252 320 391 461
#     4  11  24  41  79 110 152 195 236 312 390 460
#     4  12  24  44  77 115 152 185 236 325 401 460
#     4  12  30  52  77 107 155 211 264 314 376 459
#     4  10  24  48  78 120 148 192 256 320 398 464
#     4  11  27  46  78 112 152 198 256 312 383 460
#
# _framework density 23.848728999999999
#
# number of rings (size 3 to 8) (size 9 to 14) (size 15 to 20)
#    0.000    0.471    2.353    4.941   13.176    2.353 
#    0.000    0.000    0.000    0.000    0.000    0.000 
#    0.000    0.000    0.000    0.000    0.000    0.000 
#
# Total GULP energy -189762.710532 kJ/mol
# GULP energy per Si atom -5581.256192 kJ/mol
# Density = 2.379445 g / cm^3
# Si number density = 23.848729 Si / 1000 Ang^3
#
#
#
# Elastic Constant Matrix: (Units=GPa)
#
#
# Indices 1 2 3 4 5 6 
#
# 1 134.9591 24.9643 30.8883 0.0000 0.0000 0.0000
# 2 24.9643 79.5401 5.5257 0.0000 0.0000 0.0000
# 3 30.8883 5.5257 93.0231 0.0000 0.0000 0.0000
# 4 0.0000 0.0000 0.0000 -564.5142 0.0000 0.0000
# 5 0.0000 0.0000 0.0000 0.0000 -45.9940 0.0000
# 6 0.0000 0.0000 0.0000 0.0000 0.0000 55.0683
#
#
#
# Elastic Compliance Matrix: (Units=1/GPa)
#
#
# Indices 1 2 3 4 5 6 
#
# 1 0.008478 -0.002476 -0.002668 0.000000 0.000000 0.000000
# 2 -0.002476 0.013347 0.000029 0.000000 0.000000 0.000000
# 3 -0.002668 0.000029 0.011634 0.000000 0.000000 0.000000
# 4 0.000000 0.000000 0.000000 -0.001771 0.000000 0.000000
# 5 0.000000 0.000000 0.000000 0.000000 -0.021742 0.000000
# 6 0.000000 0.000000 0.000000 0.000000 0.000000 0.018159
#
#
# Mechanical properties :
#
#
# Convention : Reuss Voigt Hill
#
# Bulk Modulus (GPa) = 43.04669 47.80875 45.42772
# Shear Modulus (GPa) = 108.51096 -94.67840 6.91628
#
# Velocity S-wave (km/s) = 6.75266 -6.30759 1.70480
# Velocity P-wave (km/s) = 8.88184 5.74086 4.79216
#
# Compressibility (1/GPa) = 0.02323059
#
# Stress axis : x y z
#
# Youngs Moduli (GPa) = 117.94893 74.92184 85.95317
#
# Poissons Ratio (x) = 0.18548 0.22934
# Poissons Ratio (y) = 0.29200 -0.00251
# Poissons Ratio (z) = 0.31470 -0.00219
#
# Static dielectric constant tensor:
#      x y z
#    x 1.571240 0.000000 0.000000 
#    y 0.000000 1.960350 0.000000 
#    z 0.000000 0.000000 1.864810 
# 
# From -- ./inp_files/52839.got.cif
#   From: 2010.05.17/outbox.cif.g08.bks.cpg/sg66_27_cif.got.tgz:52839.got - 2010.06.03 17:51:23.
