data_PCOD9499249
_publ_section_title
;
Structure prediction by ZEFSAII (Michael W. Deem and Ramdas Pophale) SiO2 
 PCOD9499249
Probable space group: C C C M
;
_chemical_formula_sum "Si O2"
_cell_formula_units_Z 116
_cell_length_a 11.424821
_cell_length_b 25.960185
_cell_length_c 17.916110
_cell_angle_alpha 90.000000
_cell_angle_beta 90.000000
_cell_angle_gamma 90.000000
_cell_volume 5313.747427
_symmetry_space_group_name_H-M "C C C M"
_symmetry_group_IT_number 66
_symmetry_cell_setting 'orthorhombic'
loop_
_space_group_symop_operation_xyz
x,y,z
-x,-y,z
x,-y,1/2-z
-x,y,1/2-z
-x,-y,-z
x,y,-z
-x,y,1/2+z
x,-y,1/2+z
1/2+x,1/2+y,z
1/2-x,1/2-y,z
1/2+x,1/2-y,1/2-z
1/2-x,1/2+y,1/2-z
1/2-x,1/2-y,-z
1/2+x,1/2+y,-z
1/2-x,1/2+y,1/2+z
1/2+x,1/2-y,1/2+z
loop_
_atom_site_type_symbol
_atom_site_label
_atom_site_fract_x
_atom_site_fract_y
_atom_site_fract_z
Si Si1 0.753219 0.613954 0.357349
Si Si2 0.754154 0.098049 0.414252
Si Si3 0.250000 0.750000 0.500000
Si Si4 0.129038 0.156954 0.783354
Si Si5 0.912537 0.742985 0.145932
Si Si6 0.518320 0.126018 0.333727
Si Si7 0.369972 0.486726 0.413176
Si Si8 0.853898 0.213884 0.085524
O O1 0.722509 0.633300 0.274036
O O2 0.891568 0.618531 0.371535
O O3 0.698419 0.558029 0.370508
O O4 0.685658 0.655236 0.408065
O O5 0.756141 0.117553 0.500000
O O6 0.842432 0.131262 0.363267
O O7 0.624529 0.101489 0.379983
O O8 0.797832 0.039568 0.412495
O O9 0.153848 0.738927 0.432744
O O10 0.147623 0.217711 0.796308
O O11 0.000000 0.145496 0.750000
O O12 0.945198 0.686078 0.171890
O O13 0.031559 0.774195 0.131107
O O14 0.500000 0.105014 0.250000
O O15 0.500000 0.500000 0.383799
O O16 0.383840 0.470195 0.500000
O O17 0.750000 0.250000 0.113781
O O18 0.875773 0.227941 0.000000
#
# Coordination Sequence:
#
# PCOD9499249 Si02
#       8
#    16  16   4  16  16  16  16  16
#     4  12  25  46  74 107 143 198 254 307 380 457
#     4  11  27  49  78 112 151 198 260 321 381 455
#     4  12  28  44  66 112 140 208 256 308 372 436
#     4  12  25  44  71 109 147 197 247 310 385 449
#     4  12  26  43  69 102 153 197 251 309 373 458
#     4  12  27  48  71 105 152 203 251 315 375 455
#     4  10  24  50  79 113 149 192 249 325 390 454
#     4  11  23  41  66 101 141 187 243 304 370 451
#
# _framework density 21.830168
#
# number of rings (size 3 to 8) (size 9 to 14) (size 15 to 20)
#    0.000    0.552    4.828    2.483    3.862    2.207 
#    2.483    3.448    0.000    0.000    0.000    0.000 
#    0.000    0.000    0.000    0.000    0.000    0.000 
#
# Total GULP energy -324093.758736 kJ/mol
# GULP energy per Si atom -5587.823426 kJ/mol
# Density = 2.178048 g / cm^3
# Si number density = 21.830168 Si / 1000 Ang^3
#
#
#
# Elastic Constant Matrix: (Units=GPa)
#
#
# Indices 1 2 3 4 5 6 
#
# 1 138.3201 59.8044 52.2241 0.0000 0.0000 0.0000
# 2 59.8044 103.2414 28.0137 0.0000 0.0000 0.0000
# 3 52.2241 28.0137 122.7459 0.0000 0.0000 0.0000
# 4 0.0000 0.0000 0.0000 25.4760 0.0000 0.0000
# 5 0.0000 0.0000 0.0000 0.0000 3.7697 0.0000
# 6 0.0000 0.0000 0.0000 0.0000 0.0000 28.6966
#
#
#
# Elastic Compliance Matrix: (Units=1/GPa)
#
#
# Indices 1 2 3 4 5 6 
#
# 1 0.010820 -0.005350 -0.003382 0.000000 0.000000 0.000000
# 2 -0.005350 0.012971 -0.000684 0.000000 0.000000 0.000000
# 3 -0.003382 -0.000684 0.009742 0.000000 0.000000 0.000000
# 4 0.000000 0.000000 0.000000 0.039253 0.000000 0.000000
# 5 0.000000 0.000000 0.000000 0.000000 0.265275 0.000000
# 6 0.000000 0.000000 0.000000 0.000000 0.000000 0.034847
#
#
# Mechanical properties :
#
#
# Convention : Reuss Voigt Hill
#
# Bulk Modulus (GPa) = 68.02767 71.59907 69.81337
# Shear Modulus (GPa) = 12.60589 26.53948 19.57268
#
# Velocity S-wave (km/s) = 2.40563 3.49051 2.99756
# Velocity P-wave (km/s) = 6.24067 7.00816 6.63552
#
# Compressibility (1/GPa) = 0.01469990
#
# Stress axis : x y z
#
# Youngs Moduli (GPa) = 92.42401 77.09764 102.64665
#
# Poissons Ratio (x) = 0.41245 0.34720
# Poissons Ratio (y) = 0.49444 0.07022
# Poissons Ratio (z) = 0.31262 0.05274
#
# Static dielectric constant tensor:
#      x y z
#    x 1.885340 0.000000 0.000000 
#    y 0.000000 1.790780 0.000000 
#    z 0.000000 0.000000 1.835170 
# 
# From -- ./inp_files/39227.got.cif
#   From: 2010.05.17/outbox.cif.g08.bks.cpg/sg66_20_cif.got.tgz:39227.got - 2010.06.03 17:51:23.
