data_PCOD9499984
_publ_section_title
;
Structure prediction by ZEFSAII (Michael W. Deem and Ramdas Pophale) SiO2 
 PCOD9499984
Probable space group: C C C M
;
_chemical_formula_sum "Si O2"
_cell_formula_units_Z 104
_cell_length_a 12.633874
_cell_length_b 17.519201
_cell_length_c 26.146211
_cell_angle_alpha 90.000000
_cell_angle_beta 90.000000
_cell_angle_gamma 90.000000
_cell_volume 5787.081495
_symmetry_space_group_name_H-M "C C C M"
_symmetry_group_IT_number 66
_symmetry_cell_setting 'orthorhombic'
loop_
_space_group_symop_operation_xyz
x,y,z
-x,-y,z
x,-y,1/2-z
-x,y,1/2-z
-x,-y,-z
x,y,-z
-x,y,1/2+z
x,-y,1/2+z
1/2+x,1/2+y,z
1/2-x,1/2-y,z
1/2+x,1/2-y,1/2-z
1/2-x,1/2+y,1/2-z
1/2-x,1/2-y,-z
1/2+x,1/2+y,-z
1/2-x,1/2+y,1/2+z
1/2+x,1/2-y,1/2+z
loop_
_atom_site_type_symbol
_atom_site_label
_atom_site_fract_x
_atom_site_fract_y
_atom_site_fract_z
Si Si1 0.129939 0.152162 0.440421
Si Si2 0.010627 0.409123 0.651369
Si Si3 0.428802 0.575794 0.836203
Si Si4 0.830855 0.306358 0.698756
Si Si5 0.000000 0.804163 0.250000
Si Si6 0.290454 0.922868 0.779734
Si Si7 0.881608 0.332691 0.058488
O O1 0.104384 0.132442 0.500000
O O2 0.076721 0.104364 0.394957
O O3 0.105260 0.241963 0.432784
O O4 0.257463 0.147481 0.434641
O O5 0.107476 0.392874 0.690036
O O6 0.047949 0.379770 0.596826
O O7 0.000000 0.500000 0.651913
O O8 0.905976 0.363450 0.667527
O O9 0.500000 0.500000 0.831039
O O10 0.471495 0.641621 0.798125
O O11 0.308921 0.561574 0.816317
O O12 0.750000 0.250000 0.669834
O O13 0.764721 0.359822 0.737266
O O14 0.907235 0.251988 0.731604
O O15 0.319210 0.000000 0.750000
O O16 0.908894 0.348438 0.000000
#
# Coordination Sequence:
#
# PCOD9499984 Si02
#       7
#    16  16  16  16   8  16  16
#     4   9  19  38  64  89 115 151 200 257 312 368
#     4  12  23  38  63  89 118 164 207 254 313 370
#     4  12  25  38  58  87 128 165 200 250 314 382
#     4  12  25  38  59  87 122 161 211 262 299 376
#     4  12  23  38  57  88 116 164 206 240 313 368
#     4  12  23  40  57  84 126 162 208 251 306 373
#     4   9  19  38  64  91 114 144 199 263 312 366
#
# _framework density 17.971060999999999
#
# number of rings (size 3 to 8) (size 9 to 14) (size 15 to 20)
#    0.000    0.923    6.154    3.000    0.000    0.615 
#    0.000    0.000    0.000    0.462    0.000    0.000 
#    0.000    0.000    0.000    0.000    0.000    0.000 
#
# Total GULP energy -290300.196937 kJ/mol
# GULP energy per Si atom -5582.696095 kJ/mol
# Density = 1.793016 g / cm^3
# Si number density = 17.971061 Si / 1000 Ang^3
#
#
#
# Elastic Constant Matrix: (Units=GPa)
#
#
# Indices 1 2 3 4 5 6 
#
# 1 70.0515 45.1457 32.1717 0.0000 0.0000 0.0000
# 2 45.1457 105.6486 57.4267 0.0000 0.0000 0.0000
# 3 32.1717 57.4267 95.7779 0.0000 0.0000 0.0000
# 4 0.0000 0.0000 0.0000 26.9824 0.0000 0.0000
# 5 0.0000 0.0000 0.0000 0.0000 25.0938 0.0000
# 6 0.0000 0.0000 0.0000 0.0000 0.0000 33.1759
#
#
#
# Elastic Compliance Matrix: (Units=1/GPa)
#
#
# Indices 1 2 3 4 5 6 
#
# 1 0.020057 -0.007282 -0.002371 0.000000 0.000000 0.000000
# 2 -0.007282 0.016686 -0.007558 0.000000 0.000000 0.000000
# 3 -0.002371 -0.007558 0.015769 0.000000 0.000000 0.000000
# 4 0.000000 0.000000 0.000000 0.037061 0.000000 0.000000
# 5 0.000000 0.000000 0.000000 0.000000 0.039850 0.000000
# 6 0.000000 0.000000 0.000000 0.000000 0.000000 0.030142
#
#
# Mechanical properties :
#
#
# Convention : Reuss Voigt Hill
#
# Bulk Modulus (GPa) = 55.28207 60.10735 57.69471
# Shear Modulus (GPa) = 24.99776 26.16603 25.58190
#
# Velocity S-wave (km/s) = 3.73366 3.81991 3.77703
# Velocity P-wave (km/s) = 7.02961 7.27839 7.15508
#
# Compressibility (1/GPa) = 0.01808905
#
# Stress axis : x y z
#
# Youngs Moduli (GPa) = 49.85766 59.93226 63.41521
#
# Poissons Ratio (x) = 0.43643 0.15036
# Poissons Ratio (y) = 0.36306 0.47931
# Poissons Ratio (z) = 0.11821 0.45299
#
# Static dielectric constant tensor:
#      x y z
#    x 1.647170 0.000000 0.000000 
#    y 0.000000 1.619080 0.000000 
#    z 0.000000 0.000000 1.604450 
# 
# From -- ./inp_files/63786.got.cif
#   From: 2010.05.17/outbox.cif.g08.bks.cpg/sg66_32_cif.got.tgz:63786.got - 2010.06.03 17:51:23.
