data_PCOD9499200
_publ_section_title
;
Structure prediction by ZEFSAII (Michael W. Deem and Ramdas Pophale) SiO2 
 PCOD9499200
Probable space group: C C C M
;
_chemical_formula_sum "Si O2"
_cell_formula_units_Z 48
_cell_length_a 7.878382
_cell_length_b 16.799417
_cell_length_c 15.575367
_cell_angle_alpha 90.000000
_cell_angle_beta 90.000000
_cell_angle_gamma 90.000000
_cell_volume 2061.434470
_symmetry_space_group_name_H-M "C C C M"
_symmetry_group_IT_number 66
_symmetry_cell_setting 'orthorhombic'
loop_
_space_group_symop_operation_xyz
x,y,z
-x,-y,z
x,-y,1/2-z
-x,y,1/2-z
-x,-y,-z
x,y,-z
-x,y,1/2+z
x,-y,1/2+z
1/2+x,1/2+y,z
1/2-x,1/2-y,z
1/2+x,1/2-y,1/2-z
1/2-x,1/2+y,1/2-z
1/2-x,1/2-y,-z
1/2+x,1/2+y,-z
1/2-x,1/2+y,1/2+z
1/2+x,1/2-y,1/2+z
loop_
_atom_site_type_symbol
_atom_site_label
_atom_site_fract_x
_atom_site_fract_y
_atom_site_fract_z
Si Si1 0.870728 0.573076 0.000000
Si Si2 0.701755 0.510181 0.654506
Si Si3 0.115176 0.180940 0.332851
Si Si4 0.542506 0.755296 0.500000
O O1 0.767618 0.553160 0.086431
O O2 0.000000 0.500000 0.000000
O O3 0.959986 0.658071 0.000000
O O4 0.500000 0.500000 0.656811
O O5 0.773999 0.500000 0.750000
O O6 0.720075 0.603871 0.634430
O O7 0.250000 0.250000 0.310670
O O8 0.999409 0.210682 0.411735
O O9 0.000000 0.162122 0.250000
O O10 0.750000 0.750000 0.500000
#
# Coordination Sequence:
#
# PCOD9499200 Si02
#       4
#     8  16  16   8
#     4  12  25  44  74 107 141 192 246 297 359 431
#     4  11  24  47  69 103 146 193 240 299 359 429
#     4  11  23  43  69  97 142 185 234 297 359 416
#     4  10  24  44  65 103 146 182 235 307 365 422
#
# _framework density 23.284756000000002
#
# number of rings (size 3 to 8) (size 9 to 14) (size 15 to 20)
#    0.000    1.000    3.333    5.500    4.667    0.667 
#    0.000    2.500    0.000    0.000    0.000    0.000 
#    0.000    0.000    0.000    0.000    0.000    0.000 
#
# Total GULP energy -134173.746237 kJ/mol
# GULP energy per Si atom -5590.572760 kJ/mol
# Density = 2.323176 g / cm^3
# Si number density = 23.284756 Si / 1000 Ang^3
#
#
#
# Elastic Constant Matrix: (Units=GPa)
#
#
# Indices 1 2 3 4 5 6 
#
# 1 57.6517 35.9738 42.4098 0.0000 0.0000 0.0000
# 2 35.9738 203.5968 67.1347 0.0000 0.0000 0.0000
# 3 42.4098 67.1347 205.1082 0.0000 0.0000 0.0000
# 4 0.0000 0.0000 0.0000 65.8684 0.0000 0.0000
# 5 0.0000 0.0000 0.0000 0.0000 32.2266 0.0000
# 6 0.0000 0.0000 0.0000 0.0000 0.0000 44.8558
#
#
#
# Elastic Compliance Matrix: (Units=1/GPa)
#
#
# Indices 1 2 3 4 5 6 
#
# 1 0.021647 -0.002633 -0.003614 0.000000 0.000000 0.000000
# 2 -0.002633 0.005826 -0.001363 0.000000 0.000000 0.000000
# 3 -0.003614 -0.001363 0.006069 0.000000 0.000000 0.000000
# 4 0.000000 0.000000 0.000000 0.015182 0.000000 0.000000
# 5 0.000000 0.000000 0.000000 0.000000 0.031030 0.000000
# 6 0.000000 0.000000 0.000000 0.000000 0.000000 0.022294
#
#
# Mechanical properties :
#
#
# Convention : Reuss Voigt Hill
#
# Bulk Modulus (GPa) = 54.57747 84.15480 69.36613
# Shear Modulus (GPa) = 40.52688 49.97940 45.25314
#
# Velocity S-wave (km/s) = 4.17644 4.63800 4.41326
# Velocity P-wave (km/s) = 6.83717 8.05614 7.47156
#
# Compressibility (1/GPa) = 0.01832258
#
# Stress axis : x y z
#
# Youngs Moduli (GPa) = 46.19538 171.63807 164.77913
#
# Poissons Ratio (x) = 0.45195 0.59552
# Poissons Ratio (y) = 0.12164 0.22452
# Poissons Ratio (z) = 0.16695 0.23386
#
# Static dielectric constant tensor:
#      x y z
#    x 1.948270 0.000000 0.000000 
#    y 0.000000 1.917990 0.000000 
#    z 0.000000 0.000000 2.078540 
# 
# From -- ./inp_files/23523.got.cif
#   From: 2010.05.17/outbox.cif.g08.bks.cpg/sg66_12_cif.got.tgz:23523.got - 2010.06.03 17:51:23.
