data_PCOD9499624
_publ_section_title
;
Structure prediction by ZEFSAII (Michael W. Deem and Ramdas Pophale) SiO2 
 PCOD9499624
Probable space group: C C C M
;
_chemical_formula_sum "Si O2"
_cell_formula_units_Z 72
_cell_length_a 8.625163
_cell_length_b 23.757276
_cell_length_c 18.363204
_cell_angle_alpha 90.000000
_cell_angle_beta 90.000000
_cell_angle_gamma 90.000000
_cell_volume 3762.811072
_symmetry_space_group_name_H-M "C C C M"
_symmetry_group_IT_number 66
_symmetry_cell_setting 'orthorhombic'
loop_
_space_group_symop_operation_xyz
x,y,z
-x,-y,z
x,-y,1/2-z
-x,y,1/2-z
-x,-y,-z
x,y,-z
-x,y,1/2+z
x,-y,1/2+z
1/2+x,1/2+y,z
1/2-x,1/2-y,z
1/2+x,1/2-y,1/2-z
1/2-x,1/2+y,1/2-z
1/2-x,1/2-y,-z
1/2+x,1/2+y,-z
1/2-x,1/2+y,1/2+z
1/2+x,1/2-y,1/2+z
loop_
_atom_site_type_symbol
_atom_site_label
_atom_site_fract_x
_atom_site_fract_y
_atom_site_fract_z
Si Si1 0.984412 0.683011 0.500000
Si Si2 0.239969 0.589585 0.500000
Si Si3 0.178561 0.080986 0.723717
Si Si4 0.264128 0.312581 0.372154
Si Si5 0.820642 0.520056 0.143288
Si Si6 0.513651 0.310232 0.500000
O O1 0.879095 0.680250 0.427704
O O2 0.089063 0.628645 0.500000
O O3 0.066628 0.744497 0.500000
O O4 0.234518 0.550111 0.429671
O O5 0.372881 0.636888 0.500000
O O6 0.220164 0.140457 0.688726
O O7 0.289669 0.063443 0.790570
O O8 0.000000 0.079106 0.750000
O O9 0.214308 0.033537 0.663218
O O10 0.250000 0.250000 0.340354
O O11 0.409466 0.315179 0.427376
O O12 0.000000 0.500000 0.139600
#
# Coordination Sequence:
#
# PCOD9499624 Si02
#       6
#     8   8  16  16  16   8
#     4   9  19  36  60  86 118 151 183 235 288 333
#     4  12  22  37  60  86 112 150 200 233 274 349
#     4  11  22  40  59  83 116 150 189 240 288 334
#     4   9  19  39  62  84 113 151 189 229 286 347
#     4  11  24  39  56  82 117 154 189 238 292 336
#     4   9  19  35  58  88 118 145 183 240 288 326
#
# _framework density 19.134630999999999
#
# number of rings (size 3 to 8) (size 9 to 14) (size 15 to 20)
#    0.000    1.778    0.000    7.333    0.000    1.778 
#    0.000   12.222    0.000    0.000    0.000    0.000 
#    0.000    0.000    0.000    0.000    0.000    0.000 
#
# Total GULP energy -200972.581348 kJ/mol
# GULP energy per Si atom -5582.571704 kJ/mol
# Density = 1.909108 g / cm^3
# Si number density = 19.134631 Si / 1000 Ang^3
#
#
#
# Elastic Constant Matrix: (Units=GPa)
#
#
# Indices 1 2 3 4 5 6 
#
# 1 75.8750 48.3656 19.1209 0.0000 0.0000 0.0000
# 2 48.3656 172.2523 84.5214 0.0000 0.0000 0.0000
# 3 19.1209 84.5214 74.1984 0.0000 0.0000 0.0000
# 4 0.0000 0.0000 0.0000 38.0784 0.0000 0.0000
# 5 0.0000 0.0000 0.0000 0.0000 28.9011 0.0000
# 6 0.0000 0.0000 0.0000 0.0000 0.0000 27.0888
#
#
#
# Elastic Compliance Matrix: (Units=1/GPa)
#
#
# Indices 1 2 3 4 5 6 
#
# 1 0.016222 -0.005676 0.002286 0.000000 0.000000 0.000000
# 2 -0.005676 0.015149 -0.015794 0.000000 0.000000 0.000000
# 3 0.002286 -0.015794 0.030880 0.000000 0.000000 0.000000
# 4 0.000000 0.000000 0.000000 0.026262 0.000000 0.000000
# 5 0.000000 0.000000 0.000000 0.000000 0.034601 0.000000
# 6 0.000000 0.000000 0.000000 0.000000 0.000000 0.036916
#
#
# Mechanical properties :
#
#
# Convention : Reuss Voigt Hill
#
# Bulk Modulus (GPa) = 41.87344 69.59351 55.73347
# Shear Modulus (GPa) = 24.22971 30.16819 27.19895
#
# Velocity S-wave (km/s) = 3.56234 3.97498 3.77430
# Velocity P-wave (km/s) = 6.23309 7.58398 6.94148
#
# Compressibility (1/GPa) = 0.02388149
#
# Stress axis : x y z
#
# Youngs Moduli (GPa) = 61.64493 66.01043 32.38386
#
# Poissons Ratio (x) = 0.37471 -0.07402
# Poissons Ratio (y) = 0.34993 0.51147
# Poissons Ratio (z) = -0.14091 1.04256
#
# Static dielectric constant tensor:
#      x y z
#    x 1.696300 0.000000 0.000000 
#    y 0.000000 1.659170 0.000000 
#    z 0.000000 0.000000 1.572880 
# 
# From -- ./inp_files/36779.got.cif
#   From: 2010.05.17/outbox.cif.g08.bks.cpg/sg66_19_cif.got.tgz:36779.got - 2010.06.03 17:51:23.
