data_PCOD9499951
_publ_section_title
;
Structure prediction by ZEFSAII (Michael W. Deem and Ramdas Pophale) SiO2 
 PCOD9499951
Probable space group: C C C M
;
_chemical_formula_sum "Si O2"
_cell_formula_units_Z 72
_cell_length_a 15.302841
_cell_length_b 8.076938
_cell_length_c 24.979346
_cell_angle_alpha 90.000000
_cell_angle_beta 90.000000
_cell_angle_gamma 90.000000
_cell_volume 3087.449613
_symmetry_space_group_name_H-M "C C C M"
_symmetry_group_IT_number 66
_symmetry_cell_setting 'orthorhombic'
loop_
_space_group_symop_operation_xyz
x,y,z
-x,-y,z
x,-y,1/2-z
-x,y,1/2-z
-x,-y,-z
x,y,-z
-x,y,1/2+z
x,-y,1/2+z
1/2+x,1/2+y,z
1/2-x,1/2-y,z
1/2+x,1/2-y,1/2-z
1/2-x,1/2+y,1/2-z
1/2-x,1/2-y,-z
1/2+x,1/2+y,-z
1/2-x,1/2+y,1/2+z
1/2+x,1/2-y,1/2+z
loop_
_atom_site_type_symbol
_atom_site_label
_atom_site_fract_x
_atom_site_fract_y
_atom_site_fract_z
Si Si1 0.204818 0.570690 0.886729
Si Si2 0.445098 0.676945 0.702839
Si Si3 0.031230 0.671723 0.106853
Si Si4 0.750000 0.750000 0.816741
Si Si5 0.324962 0.111242 0.000000
Si Si6 0.989349 0.191587 0.000000
O O1 0.250000 0.750000 0.889648
O O2 0.113874 0.622356 0.858469
O O3 0.241612 0.416131 0.853212
O O4 0.187812 0.497825 0.946361
O O5 0.500000 0.500000 0.698386
O O6 0.500000 0.763278 0.750000
O O7 0.458662 0.747973 0.643459
O O8 0.341459 0.704445 0.714041
O O9 0.000000 0.500000 0.083260
O O10 0.058537 0.774343 0.055610
O O11 0.250000 0.250000 0.000000
O O12 0.418185 0.209086 0.000000
O O13 0.000000 0.000000 0.000000
#
# Coordination Sequence:
#
# PCOD9499951 Si02
#       6
#    16  16  16   8   8   8
#     4  12  26  43  72 107 148 201 252 309 385 457
#     4  11  26  51  77 112 152 198 259 322 392 468
#     4  12  23  46  70 102 150 192 249 316 374 457
#     4  12  24  51  78 108 154 195 254 324 388 464
#     4  12  24  40  62 100 151 193 248 311 371 449
#     4  12  26  41  72 104 145 206 252 308 393 459
#
# _framework density 23.320218000000001
#
# number of rings (size 3 to 8) (size 9 to 14) (size 15 to 20)
#    0.000    0.222    5.556    3.333    3.111    0.444 
#   10.000    0.000    0.000    0.000    0.000    0.000 
#    0.000    0.000    0.000    0.000    0.000    0.000 
#
# Total GULP energy -200478.019849 kJ/mol
# GULP energy per Si atom -5568.833885 kJ/mol
# Density = 2.326714 g / cm^3
# Si number density = 23.320218 Si / 1000 Ang^3
#
#
#
# Elastic Constant Matrix: (Units=GPa)
#
#
# Indices 1 2 3 4 5 6 
#
# 1 152.3682 42.0416 19.7914 0.0000 0.0000 0.0000
# 2 42.0416 152.3351 19.6765 0.0000 0.0000 0.0000
# 3 19.7914 19.6765 77.7035 0.0000 0.0000 0.0000
# 4 0.0000 0.0000 0.0000 32.7650 0.0000 0.0000
# 5 0.0000 0.0000 0.0000 0.0000 25.8225 0.0000
# 6 0.0000 0.0000 0.0000 0.0000 0.0000 33.3751
#
#
#
# Elastic Compliance Matrix: (Units=1/GPa)
#
#
# Indices 1 2 3 4 5 6 
#
# 1 0.007245 -0.001821 -0.001384 0.000000 0.000000 0.000000
# 2 -0.001821 0.007244 -0.001371 0.000000 0.000000 0.000000
# 3 -0.001384 -0.001371 0.013569 0.000000 0.000000 0.000000
# 4 0.000000 0.000000 0.000000 0.030520 0.000000 0.000000
# 5 0.000000 0.000000 0.000000 0.000000 0.038726 0.000000
# 6 0.000000 0.000000 0.000000 0.000000 0.000000 0.029962
#
#
# Mechanical properties :
#
#
# Convention : Reuss Voigt Hill
#
# Bulk Modulus (GPa) = 52.89057 60.60287 56.74672
# Shear Modulus (GPa) = 35.03346 38.45235 36.74291
#
# Velocity S-wave (km/s) = 3.88013 4.06505 3.97367
# Velocity P-wave (km/s) = 6.54242 6.93373 6.74091
#
# Compressibility (1/GPa) = 0.01890696
#
# Stress axis : x y z
#
# Youngs Moduli (GPa) = 138.02158 138.04527 73.69685
#
# Poissons Ratio (x) = 0.25134 0.10202
# Poissons Ratio (y) = 0.25130 0.10101
# Poissons Ratio (z) = 0.19107 0.18921
#
# Static dielectric constant tensor:
#      x y z
#    x 2.084240 0.000000 0.000000 
#    y 0.000000 2.094010 0.000000 
#    z 0.000000 0.000000 1.882280 
# 
# From -- ./inp_files/64376.got.cif
#   From: 2010.05.17/outbox.cif.g08.bks.cpg/sg66_33_cif.got.tgz:64376.got - 2010.06.03 17:51:23.
