data_PCOD9499570
_publ_section_title
;
Structure prediction by ZEFSAII (Michael W. Deem and Ramdas Pophale) SiO2 
 PCOD9499570
Probable space group: C C C M
;
_chemical_formula_sum "Si O2"
_cell_formula_units_Z 116
_cell_length_a 11.179481
_cell_length_b 18.396055
_cell_length_c 29.615857
_cell_angle_alpha 90.000000
_cell_angle_beta 90.000000
_cell_angle_gamma 90.000000
_cell_volume 6090.748206
_symmetry_space_group_name_H-M "C C C M"
_symmetry_group_IT_number 66
_symmetry_cell_setting 'orthorhombic'
loop_
_space_group_symop_operation_xyz
x,y,z
-x,-y,z
x,-y,1/2-z
-x,y,1/2-z
-x,-y,-z
x,y,-z
-x,y,1/2+z
x,-y,1/2+z
1/2+x,1/2+y,z
1/2-x,1/2-y,z
1/2+x,1/2-y,1/2-z
1/2-x,1/2+y,1/2-z
1/2-x,1/2-y,-z
1/2+x,1/2+y,-z
1/2-x,1/2+y,1/2+z
1/2+x,1/2-y,1/2+z
loop_
_atom_site_type_symbol
_atom_site_label
_atom_site_fract_x
_atom_site_fract_y
_atom_site_fract_z
Si Si1 0.576999 0.706618 0.787460
Si Si2 0.884610 0.550980 0.853771
Si Si3 0.875441 0.793688 0.641152
Si Si4 0.961268 0.585216 0.051011
Si Si5 0.108537 0.269469 0.451066
Si Si6 0.293006 0.563111 0.812872
Si Si7 0.000000 0.000000 0.250000
Si Si8 0.180958 0.641369 0.727608
O O1 0.500000 0.665932 0.750000
O O2 0.485239 0.725584 0.826336
O O3 0.691889 0.657895 0.797142
O O4 0.626176 0.779611 0.764059
O O5 0.882310 0.589958 0.902972
O O6 0.773847 0.499435 0.840675
O O7 0.897400 0.602273 0.810119
O O8 0.000000 0.500000 0.855323
O O9 0.750000 0.750000 0.647566
O O10 0.927308 0.777159 0.591891
O O11 0.836753 0.874946 0.653058
O O12 0.000000 0.500000 0.049857
O O13 0.068263 0.645845 0.056203
O O14 0.910790 0.599091 0.000000
O O15 0.057881 0.248885 0.500000
O O16 0.250000 0.250000 0.453132
O O17 0.405403 0.534486 0.785208
O O18 0.206909 0.598067 0.773658
#
# Coordination Sequence:
#
# PCOD9499570 Si02
#       8
#    16  16  16  16  16  16   4  16
#     4  11  22  37  58  80 113 156 201 241 300 357
#     4  11  25  37  59  89 119 155 200 250 310 369
#     4  11  23  36  60  88 120 156 199 257 302 360
#     4   9  19  37  60  88 124 160 196 252 321 384
#     4   9  19  35  59  89 121 160 203 252 310 374
#     4  12  24  40  58  86 117 166 207 251 303 360
#     4  12  24  48  62  76 126 168 222 246 292 376
#     4  11  23  39  56  82 116 156 200 249 294 356
#
# _framework density 19.045278
#
# number of rings (size 3 to 8) (size 9 to 14) (size 15 to 20)
#    0.000    1.379    2.759    2.483   11.586    0.552 
#    0.000    0.000    0.000    0.828    0.000    4.828 
#    0.000    0.000    0.000    0.000    0.000    0.000 
#
# Total GULP energy -322879.628457 kJ/mol
# GULP energy per Si atom -5566.890146 kJ/mol
# Density = 1.900193 g / cm^3
# Si number density = 19.045278 Si / 1000 Ang^3
#
#
#
# Elastic Constant Matrix: (Units=GPa)
#
#
# Indices 1 2 3 4 5 6 
#
# 1 76.8642 25.8630 36.1356 0.0000 0.0000 0.0000
# 2 25.8630 77.3550 36.0610 0.0000 0.0000 0.0000
# 3 36.1356 36.0610 153.2985 0.0000 0.0000 0.0000
# 4 0.0000 0.0000 0.0000 103.8081 0.0000 0.0000
# 5 0.0000 0.0000 0.0000 0.0000 31.4290 0.0000
# 6 0.0000 0.0000 0.0000 0.0000 0.0000 37.5179
#
#
#
# Elastic Compliance Matrix: (Units=1/GPa)
#
#
# Indices 1 2 3 4 5 6 
#
# 1 0.015633 -0.003941 -0.002758 0.000000 0.000000 0.000000
# 2 -0.003941 0.015513 -0.002720 0.000000 0.000000 0.000000
# 3 -0.002758 -0.002720 0.007813 0.000000 0.000000 0.000000
# 4 0.000000 0.000000 0.000000 0.009633 0.000000 0.000000
# 5 0.000000 0.000000 0.000000 0.000000 0.031818 0.000000
# 6 0.000000 0.000000 0.000000 0.000000 0.000000 0.026654
#
#
# Mechanical properties :
#
#
# Convention : Reuss Voigt Hill
#
# Bulk Modulus (GPa) = 49.69996 55.95964 52.82980
# Shear Modulus (GPa) = 37.70489 48.51487 43.10988
#
# Velocity S-wave (km/s) = 4.45427 5.05260 4.76284
# Velocity P-wave (km/s) = 7.25302 7.96772 7.61875
#
# Compressibility (1/GPa) = 0.02012074
#
# Stress axis : x y z
#
# Youngs Moduli (GPa) = 63.96914 64.46146 127.98847
#
# Poissons Ratio (x) = 0.25404 0.35297
# Poissons Ratio (y) = 0.25210 0.34816
# Poissons Ratio (z) = 0.17642 0.17535
#
# Static dielectric constant tensor:
#      x y z
#    x 1.723020 0.000000 0.000000 
#    y 0.000000 1.599740 0.000000 
#    z 0.000000 0.000000 1.680330 
# 
# From -- ./inp_files/69203.got.cif
#   From: 2010.05.17/outbox.cif.g08.bks.cpg/sg66_35_cif.got.tgz:69203.got - 2010.06.03 17:51:23.
