data_PCOD9499287
_publ_section_title
;
Structure prediction by ZEFSAII (Michael W. Deem and Ramdas Pophale) SiO2 
 PCOD9499287
Probable space group: C C C M
;
_chemical_formula_sum "Si O2"
_cell_formula_units_Z 44
_cell_length_a 14.385838
_cell_length_b 15.305918
_cell_length_c 8.755646
_cell_angle_alpha 90.000000
_cell_angle_beta 90.000000
_cell_angle_gamma 90.000000
_cell_volume 1927.892181
_symmetry_space_group_name_H-M "C C C M"
_symmetry_group_IT_number 66
_symmetry_cell_setting 'orthorhombic'
loop_
_space_group_symop_operation_xyz
x,y,z
-x,-y,z
x,-y,1/2-z
-x,y,1/2-z
-x,-y,-z
x,y,-z
-x,y,1/2+z
x,-y,1/2+z
1/2+x,1/2+y,z
1/2-x,1/2-y,z
1/2+x,1/2-y,1/2-z
1/2-x,1/2+y,1/2-z
1/2-x,1/2-y,-z
1/2+x,1/2+y,-z
1/2-x,1/2+y,1/2+z
1/2+x,1/2-y,1/2+z
loop_
_atom_site_type_symbol
_atom_site_label
_atom_site_fract_x
_atom_site_fract_y
_atom_site_fract_z
Si Si1 0.361501 0.143119 0.663676
Si Si2 0.268116 0.144530 0.000000
Si Si3 0.425892 0.420575 0.000000
Si Si4 0.000000 0.500000 0.250000
Si Si5 0.000000 0.207049 0.750000
O O1 0.307996 0.144737 0.500000
O O2 0.315290 0.133651 0.831938
O O3 0.433206 0.063417 0.657544
O O4 0.424324 0.230278 0.672774
O O5 0.250000 0.250000 0.000000
O O6 0.185326 0.072119 0.000000
O O7 0.500000 0.500000 0.000000
O O8 0.446250 0.357752 0.859290
#
# Coordination Sequence:
#
# PCOD9499287 Si02
#       5
#    16   8   8   4   8
#     4  11  24  45  78 109 151 194 250 314 387 454
#     4  12  26  49  74 111 151 196 262 314 367 464
#     4  12  26  50  72 105 153 204 255 316 378 453
#     4  10  26  44  72 122 144 186 248 320 382 460
#     4  11  21  45  75 104 142 206 251 303 387 461
#
# _framework density 22.822852000000001
#
# number of rings (size 3 to 8) (size 9 to 14) (size 15 to 20)
#    0.000    0.727    5.455    1.091   10.182    0.727 
#    9.818    0.000    0.000    0.000    0.000    0.000 
#    0.000    0.000    0.000    0.000    0.000    0.000 
#
# Total GULP energy -122573.360113 kJ/mol
# GULP energy per Si atom -5571.516369 kJ/mol
# Density = 2.277091 g / cm^3
# Si number density = 22.822852 Si / 1000 Ang^3
#
#
#
# Elastic Constant Matrix: (Units=GPa)
#
#
# Indices 1 2 3 4 5 6 
#
# 1 84.1390 31.5894 67.5358 0.0000 0.0000 0.0000
# 2 31.5894 133.9845 36.9773 0.0000 0.0000 0.0000
# 3 67.5358 36.9773 235.4483 0.0000 0.0000 0.0000
# 4 0.0000 0.0000 0.0000 -253.2164 0.0000 0.0000
# 5 0.0000 0.0000 0.0000 0.0000 13.9248 0.0000
# 6 0.0000 0.0000 0.0000 0.0000 0.0000 24.1101
#
#
#
# Elastic Compliance Matrix: (Units=1/GPa)
#
#
# Indices 1 2 3 4 5 6 
#
# 1 0.016305 -0.002669 -0.004258 0.000000 0.000000 0.000000
# 2 -0.002669 0.008239 -0.000528 0.000000 0.000000 0.000000
# 3 -0.004258 -0.000528 0.005551 0.000000 0.000000 0.000000
# 4 0.000000 0.000000 0.000000 -0.003949 0.000000 0.000000
# 5 0.000000 0.000000 0.000000 0.000000 0.071814 0.000000
# 6 0.000000 0.000000 0.000000 0.000000 0.000000 0.041476
#
#
# Mechanical properties :
#
#
# Convention : Reuss Voigt Hill
#
# Bulk Modulus (GPa) = 65.85574 80.64187 73.24880
# Shear Modulus (GPa) = 31.36607 -21.87169 4.74719
#
# Velocity S-wave (km/s) = 3.71121 -3.09904 1.44379
# Velocity P-wave (km/s) = 6.87619 4.75449 5.91131
#
# Compressibility (1/GPa) = 0.01518471
#
# Stress axis : x y z
#
# Youngs Moduli (GPa) = 61.33212 121.37929 180.13338
#
# Poissons Ratio (x) = 0.32397 0.76694
# Poissons Ratio (y) = 0.16370 0.09516
# Poissons Ratio (z) = 0.26113 0.06412
#
# Static dielectric constant tensor:
#      x y z
#    x 1.992310 0.000000 0.000000 
#    y 0.000000 1.800190 0.000000 
#    z 0.000000 0.000000 1.921920 
# 
# From -- ./inp_files/5838.got.cif
#   From: 2010.05.17/outbox.cif.g08.bks.cpg/sg66_3_cif.got.tgz:5838.got - 2010.06.03 17:51:23.
