data_PCOD9499357
_publ_section_title
;
Structure prediction by ZEFSAII (Michael W. Deem and Ramdas Pophale) SiO2 
 PCOD9499357
Probable space group: C C C M
;
_chemical_formula_sum "Si O2"
_cell_formula_units_Z 80
_cell_length_a 25.914707
_cell_length_b 22.439257
_cell_length_c 9.845263
_cell_angle_alpha 90.000000
_cell_angle_beta 90.000000
_cell_angle_gamma 90.000000
_cell_volume 5725.087091
_symmetry_space_group_name_H-M "C C C M"
_symmetry_group_IT_number 66
_symmetry_cell_setting 'orthorhombic'
loop_
_space_group_symop_operation_xyz
x,y,z
-x,-y,z
x,-y,1/2-z
-x,y,1/2-z
-x,-y,-z
x,y,-z
-x,y,1/2+z
x,-y,1/2+z
1/2+x,1/2+y,z
1/2-x,1/2-y,z
1/2+x,1/2-y,1/2-z
1/2-x,1/2+y,1/2-z
1/2-x,1/2-y,-z
1/2+x,1/2+y,-z
1/2-x,1/2+y,1/2+z
1/2+x,1/2-y,1/2+z
loop_
_atom_site_type_symbol
_atom_site_label
_atom_site_fract_x
_atom_site_fract_y
_atom_site_fract_z
Si Si1 0.616686 0.620265 0.269181
Si Si2 0.046188 0.079483 0.500000
Si Si3 0.224218 0.940828 0.841071
Si Si4 0.424910 0.440801 0.000000
Si Si5 0.773989 0.655063 0.157916
Si Si6 0.833215 0.769957 0.843927
O O1 0.569091 0.610716 0.368168
O O2 0.668355 0.591299 0.331981
O O3 0.628038 0.689568 0.240798
O O4 0.604308 0.585010 0.130565
O O5 0.984663 0.078981 0.500000
O O6 0.069745 0.012298 0.500000
O O7 0.264776 0.897343 0.764849
O O8 0.221344 0.000000 0.750000
O O9 0.235838 0.951863 0.000000
O O10 0.817743 0.703133 0.197524
O O11 0.720262 0.692297 0.156717
O O12 0.782069 0.635855 0.000000
O O13 0.850884 0.767646 0.000000
#
# Coordination Sequence:
#
# PCOD9499357 Si02
#       6
#    16   8  16   8  16  16
#     4  11  20  32  46  63  79 109 147 186 219 259
#     4  11  22  34  42  65  80 108 143 190 231 259
#     4  11  21  30  43  64  88 113 142 176 213 251
#     4  11  22  34  48  53  84 112 145 182 231 271
#     4   8  15  28  45  62  82 107 137 170 207 250
#     4   8  14  28  46  62  79 106 138 171 211 256
#
# _framework density 13.973587
#
# number of rings (size 3 to 8) (size 9 to 14) (size 15 to 20)
#    0.000    2.200    2.000    4.200    2.800    1.600 
#    1.800    2.000    0.000    0.000    0.000    0.000 
#    0.000    0.000    0.000    0.000    0.000    6.000 
#
# Total GULP energy -222849.267211 kJ/mol
# GULP energy per Si atom -5571.231680 kJ/mol
# Density = 1.394178 g / cm^3
# Si number density = 13.973587 Si / 1000 Ang^3
#
#
#
# Elastic Constant Matrix: (Units=GPa)
#
#
# Indices 1 2 3 4 5 6 
#
# 1 34.6724 24.7555 19.8059 0.0000 0.0000 0.0000
# 2 24.7555 55.2326 32.5823 0.0000 0.0000 0.0000
# 3 19.8059 32.5823 92.1142 0.0000 0.0000 0.0000
# 4 0.0000 0.0000 0.0000 33.2439 0.0000 0.0000
# 5 0.0000 0.0000 0.0000 0.0000 9.6103 0.0000
# 6 0.0000 0.0000 0.0000 0.0000 0.0000 24.7582
#
#
#
# Elastic Compliance Matrix: (Units=1/GPa)
#
#
# Indices 1 2 3 4 5 6 
#
# 1 0.043093 -0.017500 -0.003076 0.000000 0.000000 0.000000
# 2 -0.017500 0.029986 -0.006844 0.000000 0.000000 0.000000
# 3 -0.003076 -0.006844 0.013938 0.000000 0.000000 0.000000
# 4 0.000000 0.000000 0.000000 0.030081 0.000000 0.000000
# 5 0.000000 0.000000 0.000000 0.000000 0.104055 0.000000
# 6 0.000000 0.000000 0.000000 0.000000 0.000000 0.040391
#
#
# Mechanical properties :
#
#
# Convention : Reuss Voigt Hill
#
# Bulk Modulus (GPa) = 31.07689 37.36742 34.22216
# Shear Modulus (GPa) = 15.28543 20.51418 17.89981
#
# Velocity S-wave (km/s) = 3.31097 3.83569 3.58295
# Velocity P-wave (km/s) = 6.07493 6.81295 6.45450
#
# Compressibility (1/GPa) = 0.03217825
#
# Stress axis : x y z
#
# Youngs Moduli (GPa) = 23.20560 33.34868 71.74560
#
# Poissons Ratio (x) = 0.58361 0.22066
# Poissons Ratio (y) = 0.40610 0.49101
# Poissons Ratio (z) = 0.07137 0.22823
#
# Static dielectric constant tensor:
#      x y z
#    x 1.441280 0.000000 0.000000 
#    y 0.000000 1.473650 0.000000 
#    z 0.000000 0.000000 1.730820 
# 
# From -- ./inp_files/7712.got.cif
#   From: 2010.05.17/outbox.cif.g08.bks.cpg/sg66_4_cif.got.tgz:7712.got - 2010.06.03 17:51:23.
