data_PCOD9499845
_publ_section_title
;
Structure prediction by ZEFSAII (Michael W. Deem and Ramdas Pophale) SiO2 
 PCOD9499845
Probable space group: C C C M
;
_chemical_formula_sum "Si O2"
_cell_formula_units_Z 88
_cell_length_a 10.054195
_cell_length_b 31.034748
_cell_length_c 14.877668
_cell_angle_alpha 90.000000
_cell_angle_beta 90.000000
_cell_angle_gamma 90.000000
_cell_volume 4642.269941
_symmetry_space_group_name_H-M "C C C M"
_symmetry_group_IT_number 66
_symmetry_cell_setting 'orthorhombic'
loop_
_space_group_symop_operation_xyz
x,y,z
-x,-y,z
x,-y,1/2-z
-x,y,1/2-z
-x,-y,-z
x,y,-z
-x,y,1/2+z
x,-y,1/2+z
1/2+x,1/2+y,z
1/2-x,1/2-y,z
1/2+x,1/2-y,1/2-z
1/2-x,1/2+y,1/2-z
1/2-x,1/2-y,-z
1/2+x,1/2+y,-z
1/2-x,1/2+y,1/2+z
1/2+x,1/2-y,1/2+z
loop_
_atom_site_type_symbol
_atom_site_label
_atom_site_fract_x
_atom_site_fract_y
_atom_site_fract_z
Si Si1 0.534175 0.180999 0.148673
Si Si2 0.737606 0.383960 0.106523
Si Si3 0.712436 0.880877 0.104376
Si Si4 0.660438 0.050023 0.247178
Si Si5 0.527715 0.257212 0.000000
Si Si6 0.483167 0.667212 0.353459
O O1 0.500000 0.194978 0.250000
O O2 0.673322 0.155557 0.144121
O O3 0.421833 0.146284 0.121012
O O4 0.535703 0.219630 0.078415
O O5 0.785367 0.426149 0.158756
O O6 0.586174 0.371561 0.127376
O O7 0.758608 0.386979 0.000000
O O8 0.712489 0.922045 0.168994
O O9 0.835078 0.849843 0.128627
O O10 0.720207 0.892826 0.000000
O O11 0.500000 0.052928 0.250000
O O12 0.697904 0.000000 0.250000
O O13 0.516456 0.294667 0.921786
O O14 0.500000 0.680470 0.250000
#
# Coordination Sequence:
#
# PCOD9499845 Si02
#       6
#    16  16  16  16   8  16
#     4  12  23  41  67  93 132 177 225 273 326 375
#     4  12  22  43  68  95 133 177 211 271 336 386
#     4  12  22  43  68  95 133 177 211 271 336 386
#     4  11  24  43  73 106 130 163 222 271 321 403
#     4  12  26  42  64 104 126 176 240 270 308 392
#     4  12  25  43  65  93 134 177 221 267 330 387
#
# _framework density 18.956243000000001
#
# number of rings (size 3 to 8) (size 9 to 14) (size 15 to 20)
#    0.000    0.182    9.091    0.545    0.000    3.636 
#    0.000    7.273    0.000    2.182    0.000    0.000 
#    0.000    0.000    0.000    0.000    0.000    0.000 
#
# Total GULP energy -245020.532204 kJ/mol
# GULP energy per Si atom -5568.648459 kJ/mol
# Density = 1.891310 g / cm^3
# Si number density = 18.956243 Si / 1000 Ang^3
#
#
#
# Elastic Constant Matrix: (Units=GPa)
#
#
# Indices 1 2 3 4 5 6 
#
# 1 35.4020 -15.2027 -23.2076 0.0000 0.0000 0.0000
# 2 -15.2027 105.4490 26.1124 0.0000 0.0000 0.0000
# 3 -23.2076 26.1124 166.2691 0.0000 0.0000 0.0000
# 4 0.0000 0.0000 0.0000 -62.5344 0.0000 0.0000
# 5 0.0000 0.0000 0.0000 0.0000 13.4013 0.0000
# 6 0.0000 0.0000 0.0000 0.0000 0.0000 -11.5039
#
#
#
# Elastic Compliance Matrix: (Units=1/GPa)
#
#
# Indices 1 2 3 4 5 6 
#
# 1 0.032421 0.003697 0.003945 0.000000 0.000000 0.000000
# 2 0.003697 0.010289 -0.001100 0.000000 0.000000 0.000000
# 3 0.003945 -0.001100 0.006738 0.000000 0.000000 0.000000
# 4 0.000000 0.000000 0.000000 -0.015991 0.000000 0.000000
# 5 0.000000 0.000000 0.000000 0.000000 0.074620 0.000000
# 6 0.000000 0.000000 0.000000 0.000000 0.000000 -0.086927
#
#
# Mechanical properties :
#
#
# Convention : Reuss Voigt Hill
#
# Bulk Modulus (GPa) = 15.99202 31.39156 23.69179
# Shear Modulus (GPa) = 172.96283 9.16712 91.06498
#
# Velocity S-wave (km/s) = 9.56249 2.20146 6.93858
# Velocity P-wave (km/s) = 11.41824 4.80186 8.75883
#
# Compressibility (1/GPa) = 0.06253117
#
# Stress axis : x y z
#
# Youngs Moduli (GPa) = 30.84459 97.19462 148.41989
#
# Poissons Ratio (x) = -0.35936 -0.58545
# Poissons Ratio (y) = -0.11404 0.16322
# Poissons Ratio (z) = -0.12167 0.10689
#
# Static dielectric constant tensor:
#      x y z
#    x 1.660290 0.000000 0.000000 
#    y 0.000000 1.610380 0.000000 
#    z 0.000000 0.000000 1.656730 
# 
# From -- ./inp_files/26900.got.cif
#   From: 2010.05.17/outbox.cif.g08.bks.cpg/sg66_14_cif.got.tgz:26900.got - 2010.06.03 17:51:23.
