data_PCOD9499539
_publ_section_title
;
Structure prediction by ZEFSAII (Michael W. Deem and Ramdas Pophale) SiO2 
 PCOD9499539
Probable space group: C C C M
;
_chemical_formula_sum "Si O2"
_cell_formula_units_Z 68
_cell_length_a 11.020138
_cell_length_b 16.847395
_cell_length_c 18.132820
_cell_angle_alpha 90.000000
_cell_angle_beta 90.000000
_cell_angle_gamma 90.000000
_cell_volume 3366.550564
_symmetry_space_group_name_H-M "C C C M"
_symmetry_group_IT_number 66
_symmetry_cell_setting 'orthorhombic'
loop_
_space_group_symop_operation_xyz
x,y,z
-x,-y,z
x,-y,1/2-z
-x,y,1/2-z
-x,-y,-z
x,y,-z
-x,y,1/2+z
x,-y,1/2+z
1/2+x,1/2+y,z
1/2-x,1/2-y,z
1/2+x,1/2-y,1/2-z
1/2-x,1/2+y,1/2-z
1/2-x,1/2-y,-z
1/2+x,1/2+y,-z
1/2-x,1/2+y,1/2+z
1/2+x,1/2-y,1/2+z
loop_
_atom_site_type_symbol
_atom_site_label
_atom_site_fract_x
_atom_site_fract_y
_atom_site_fract_z
Si Si1 0.257273 0.446502 0.500000
Si Si2 0.157869 0.619902 0.153166
Si Si3 0.514319 0.635151 0.000000
Si Si4 0.796181 0.379970 0.500000
Si Si5 0.500000 0.000000 0.250000
Si Si6 0.934159 0.730416 0.883902
Si Si7 0.250000 0.250000 0.244874
O O1 0.218572 0.407647 0.422412
O O2 0.404297 0.427341 0.500000
O O3 0.172541 0.527342 0.500000
O O4 0.245296 0.671309 0.205460
O O5 0.089923 0.551514 0.199025
O O6 0.050808 0.679139 0.131999
O O7 0.651986 0.604223 0.000000
O O8 0.519049 0.694243 0.929826
O O9 0.843249 0.326422 0.568061
O O10 0.865240 0.751445 0.809257
#
# Coordination Sequence:
#
# PCOD9499539 Si02
#       7
#     8  16   8   8   4  16   8
#     4  12  27  42  64  97 142 172 214 283 344 396
#     4  12  26  42  66 102 135 174 221 280 340 397
#     4  11  22  41  70  95 129 179 231 274 328 409
#     4  11  22  41  68  95 129 177 225 273 340 412
#     4  12  24  42  68 100 138 176 220 280 344 392
#     4  11  21  42  71  95 125 177 232 275 327 397
#     4  12  22  42  66  98 136 174 224 278 332 402
#
# _framework density 20.198716000000001
#
# number of rings (size 3 to 8) (size 9 to 14) (size 15 to 20)
#    0.000    0.471    4.706    5.294    0.000    2.824 
#    0.000    0.000    0.000    0.000    0.000    0.000 
#    0.000    0.000    0.000    0.000    0.000    0.000 
#
# Total GULP energy -189691.464739 kJ/mol
# GULP energy per Si atom -5579.160728 kJ/mol
# Density = 2.015274 g / cm^3
# Si number density = 20.198716 Si / 1000 Ang^3
#
#
#
# Elastic Constant Matrix: (Units=GPa)
#
#
# Indices 1 2 3 4 5 6 
#
# 1 69.8663 1.2743 23.0528 0.0000 0.0000 0.0000
# 2 1.2743 68.9688 39.5987 0.0000 0.0000 0.0000
# 3 23.0528 39.5987 136.4587 0.0000 0.0000 0.0000
# 4 0.0000 0.0000 0.0000 -93.9242 0.0000 0.0000
# 5 0.0000 0.0000 0.0000 0.0000 44.1797 0.0000
# 6 0.0000 0.0000 0.0000 0.0000 0.0000 49.5289
#
#
#
# Elastic Compliance Matrix: (Units=1/GPa)
#
#
# Indices 1 2 3 4 5 6 
#
# 1 0.015276 0.001439 -0.002998 0.000000 0.000000 0.000000
# 2 0.001439 0.017534 -0.005331 0.000000 0.000000 0.000000
# 3 -0.002998 -0.005331 0.009382 0.000000 0.000000 0.000000
# 4 0.000000 0.000000 0.000000 -0.010647 0.000000 0.000000
# 5 0.000000 0.000000 0.000000 0.000000 0.022635 0.000000
# 6 0.000000 0.000000 0.000000 0.000000 0.000000 0.020190
#
#
# Mechanical properties :
#
#
# Convention : Reuss Voigt Hill
#
# Bulk Modulus (GPa) = 35.19765 44.79394 39.99580
# Shear Modulus (GPa) = 51.21870 14.04809 32.63339
#
# Velocity S-wave (km/s) = 5.04108 2.64008 4.02383
# Velocity P-wave (km/s) = 7.16567 5.61410 6.43681
#
# Compressibility (1/GPa) = 0.02841099
#
# Stress axis : x y z
#
# Youngs Moduli (GPa) = 65.46167 57.03325 106.58935
#
# Poissons Ratio (x) = -0.08209 0.31959
# Poissons Ratio (y) = -0.09422 0.56825
# Poissons Ratio (z) = 0.19628 0.30406
#
# Static dielectric constant tensor:
#      x y z
#    x 1.716760 0.000000 0.000000 
#    y 0.000000 1.404940 0.000000 
#    z 0.000000 0.000000 1.755010 
# 
# From -- ./inp_files/38409.got.cif
#   From: 2010.05.17/outbox.cif.g08.bks.cpg/sg66_20_cif.got.tgz:38409.got - 2010.06.03 17:51:23.
