data_PCOD9499973
_publ_section_title
;
Structure prediction by ZEFSAII (Michael W. Deem and Ramdas Pophale) SiO2 
 PCOD9499973
Probable space group: C C C M
;
_chemical_formula_sum "Si O2"
_cell_formula_units_Z 56
_cell_length_a 18.580392
_cell_length_b 9.252822
_cell_length_c 16.732684
_cell_angle_alpha 90.000000
_cell_angle_beta 90.000000
_cell_angle_gamma 90.000000
_cell_volume 2876.700768
_symmetry_space_group_name_H-M "C C C M"
_symmetry_group_IT_number 66
_symmetry_cell_setting 'orthorhombic'
loop_
_space_group_symop_operation_xyz
x,y,z
-x,-y,z
x,-y,1/2-z
-x,y,1/2-z
-x,-y,-z
x,y,-z
-x,y,1/2+z
x,-y,1/2+z
1/2+x,1/2+y,z
1/2-x,1/2-y,z
1/2+x,1/2-y,1/2-z
1/2-x,1/2+y,1/2-z
1/2-x,1/2-y,-z
1/2+x,1/2+y,-z
1/2-x,1/2+y,1/2+z
1/2+x,1/2-y,1/2+z
loop_
_atom_site_type_symbol
_atom_site_label
_atom_site_fract_x
_atom_site_fract_y
_atom_site_fract_z
Si Si1 0.192565 0.001446 0.000000
Si Si2 0.079450 0.478131 0.628846
Si Si3 0.904645 0.728815 0.000000
Si Si4 0.237602 0.579171 0.828403
Si Si5 0.436996 0.727171 0.000000
O O1 0.234875 0.971692 0.916685
O O2 0.123980 0.893302 0.000000
O O3 0.161936 0.163648 0.000000
O O4 0.093348 0.620031 0.574738
O O5 0.152619 0.450792 0.674432
O O6 0.072643 0.335531 0.574106
O O7 0.000000 0.500000 0.665036
O O8 0.979501 0.818431 0.000000
O O9 0.270721 0.500000 0.750000
O O10 0.250000 0.750000 0.822856
#
# Coordination Sequence:
#
# PCOD9499973 Si02
#       5
#     8  16   8  16   8
#     4  12  22  40  69  93 132 176 202 267 335 371
#     4   9  19  39  64  91 125 169 218 257 313 386
#     4   9  20  32  65 101 125 162 222 262 308 388
#     4  12  27  43  66  96 131 167 216 268 322 384
#     4   9  16  37  63  94 125 171 216 258 315 386
#
# _framework density 19.466745
#
# number of rings (size 3 to 8) (size 9 to 14) (size 15 to 20)
#    0.000    1.714    2.857    4.286    4.000    1.714 
#    0.000    0.000    0.000    3.429    0.000    0.000 
#    0.000    0.000    0.000    0.000    0.000    0.000 
#
# Total GULP energy -156043.256407 kJ/mol
# GULP energy per Si atom -5572.973443 kJ/mol
# Density = 1.942244 g / cm^3
# Si number density = 19.466745 Si / 1000 Ang^3
#
#
#
# Elastic Constant Matrix: (Units=GPa)
#
#
# Indices 1 2 3 4 5 6 
#
# 1 139.3717 62.2864 55.1790 0.0000 0.0000 0.0000
# 2 62.2864 114.1046 60.0428 0.0000 0.0000 0.0000
# 3 55.1790 60.0428 142.1338 0.0000 0.0000 0.0000
# 4 0.0000 0.0000 0.0000 -26.2926 0.0000 0.0000
# 5 0.0000 0.0000 0.0000 0.0000 -8.1790 0.0000
# 6 0.0000 0.0000 0.0000 0.0000 0.0000 32.4009
#
#
#
# Elastic Compliance Matrix: (Units=1/GPa)
#
#
# Indices 1 2 3 4 5 6 
#
# 1 0.009918 -0.004356 -0.002010 0.000000 0.000000 0.000000
# 2 -0.004356 0.013182 -0.003878 0.000000 0.000000 0.000000
# 3 -0.002010 -0.003878 0.009454 0.000000 0.000000 0.000000
# 4 0.000000 0.000000 0.000000 -0.038033 0.000000 0.000000
# 5 0.000000 0.000000 0.000000 0.000000 -0.122264 0.000000
# 6 0.000000 0.000000 0.000000 0.000000 0.000000 0.030863
#
#
# Mechanical properties :
#
#
# Convention : Reuss Voigt Hill
#
# Bulk Modulus (GPa) = 82.87427 83.40294 83.13861
# Shear Modulus (GPa) = -69.08812 14.12598 -27.48107
#
# Velocity S-wave (km/s) = -5.96384 2.69671 -3.76133
# Velocity P-wave (km/s) = 2.18140 7.25487 4.89258
#
# Compressibility (1/GPa) = 0.01206647
#
# Stress axis : x y z
#
# Youngs Moduli (GPa) = 100.83081 75.86042 105.77553
#
# Poissons Ratio (x) = 0.33045 0.21261
# Poissons Ratio (y) = 0.43922 0.41015
# Poissons Ratio (z) = 0.20267 0.29415
#
# Static dielectric constant tensor:
#      x y z
#    x 1.708750 0.000000 0.000000 
#    y 0.000000 1.641150 0.000000 
#    z 0.000000 0.000000 1.716910 
# 
# From -- ./inp_files/36103.got.cif
#   From: 2010.05.17/outbox.cif.g08.bks.cpg/sg66_19_cif.got.tgz:36103.got - 2010.06.03 17:51:23.
