data_PCOD9499302
_publ_section_title
;
Structure prediction by ZEFSAII (Michael W. Deem and Ramdas Pophale) SiO2 
 PCOD9499302
Probable space group: C C C M
;
_chemical_formula_sum "Si O2"
_cell_formula_units_Z 92
_cell_length_a 11.890199
_cell_length_b 18.008364
_cell_length_c 20.463347
_cell_angle_alpha 90.000000
_cell_angle_beta 90.000000
_cell_angle_gamma 90.000000
_cell_volume 4381.673897
_symmetry_space_group_name_H-M "C C C M"
_symmetry_group_IT_number 66
_symmetry_cell_setting 'orthorhombic'
loop_
_space_group_symop_operation_xyz
x,y,z
-x,-y,z
x,-y,1/2-z
-x,y,1/2-z
-x,-y,-z
x,y,-z
-x,y,1/2+z
x,-y,1/2+z
1/2+x,1/2+y,z
1/2-x,1/2-y,z
1/2+x,1/2-y,1/2-z
1/2-x,1/2+y,1/2-z
1/2-x,1/2-y,-z
1/2+x,1/2+y,-z
1/2-x,1/2+y,1/2+z
1/2+x,1/2-y,1/2+z
loop_
_atom_site_type_symbol
_atom_site_label
_atom_site_fract_x
_atom_site_fract_y
_atom_site_fract_z
Si Si1 0.830586 0.979402 0.000000
Si Si2 0.000000 0.000000 0.750000
Si Si3 0.092290 0.565464 0.000000
Si Si4 0.294561 0.168429 0.000000
Si Si5 0.389123 0.965490 0.321989
Si Si6 0.481974 0.162564 0.108631
Si Si7 0.133232 0.205572 0.576778
Si Si8 0.158091 0.957930 0.866966
O O1 0.799994 0.893397 0.000000
O O2 0.713558 0.027302 0.000000
O O3 0.885451 0.000364 0.931659
O O4 0.083635 0.960294 0.801320
O O5 0.072403 0.617221 0.936399
O O6 0.000000 0.500000 0.000000
O O7 0.250000 0.250000 0.000000
O O8 0.373888 0.159856 0.937863
O O9 0.429122 0.879499 0.328160
O O10 0.500000 0.000000 0.355125
O O11 0.384136 0.000000 0.250000
O O12 0.274693 0.996531 0.353271
O O13 0.537771 0.243872 0.112294
O O14 0.100501 0.194867 0.500000
O O15 0.250000 0.250000 0.577265
O O16 0.159186 0.127759 0.611449
#
# Coordination Sequence:
#
# PCOD9499302 Si02
#       8
#     8   4   8   8  16  16  16  16
#     4  12  21  38  76 106 125 177 255 305 355 415
#     4  12  32  54  66  84 152 202 254 290 344 430
#     4  11  16  31  65 105 143 163 205 291 383 410
#     4  11  23  35  58  99 145 173 218 292 379 427
#     4  11  22  40  72 106 137 182 248 300 354 433
#     4  11  21  38  63 104 149 176 213 301 374 415
#     4  11  22  39  68 112 152 178 223 299 381 436
#     4  12  25  47  72 103 140 197 248 296 353 434
#
# _framework density 20.996542000000002
#
# number of rings (size 3 to 8) (size 9 to 14) (size 15 to 20)
#    0.000    0.696    6.957    3.652    0.000    1.739 
#    0.000    3.478    0.000    0.000    0.000    0.000 
#    0.000    0.000    0.000    0.000    0.000    0.000 
#
# Total GULP energy -256342.205895 kJ/mol
# GULP energy per Si atom -5572.656650 kJ/mol
# Density = 2.094875 g / cm^3
# Si number density = 20.996542 Si / 1000 Ang^3
#
#
#
# Elastic Constant Matrix: (Units=GPa)
#
#
# Indices 1 2 3 4 5 6 
#
# 1 113.6317 49.3841 46.2378 0.0000 0.0000 0.0000
# 2 49.3841 140.7573 52.0942 0.0000 0.0000 0.0000
# 3 46.2378 52.0942 136.8611 0.0000 0.0000 0.0000
# 4 0.0000 0.0000 0.0000 1.1289 0.0000 0.0000
# 5 0.0000 0.0000 0.0000 0.0000 7.4539 0.0000
# 6 0.0000 0.0000 0.0000 0.0000 0.0000 33.4589
#
#
#
# Elastic Compliance Matrix: (Units=1/GPa)
#
#
# Indices 1 2 3 4 5 6 
#
# 1 0.011154 -0.002932 -0.002652 0.000000 0.000000 0.000000
# 2 -0.002932 0.009040 -0.002450 0.000000 0.000000 0.000000
# 3 -0.002652 -0.002450 0.009135 0.000000 0.000000 0.000000
# 4 0.000000 0.000000 0.000000 0.885850 0.000000 0.000000
# 5 0.000000 0.000000 0.000000 0.000000 0.134158 0.000000
# 6 0.000000 0.000000 0.000000 0.000000 0.000000 0.029887
#
#
# Mechanical properties :
#
#
# Convention : Reuss Voigt Hill
#
# Bulk Modulus (GPa) = 75.41343 76.29804 75.85574
# Shear Modulus (GPa) = 4.54664 24.64392 14.59528
#
# Velocity S-wave (km/s) = 1.47313 3.42967 2.63939
# Velocity P-wave (km/s) = 6.23607 7.21809 6.74497
#
# Compressibility (1/GPa) = 0.01326024
#
# Stress axis : x y z
#
# Youngs Moduli (GPa) = 89.65645 110.62087 109.46311
#
# Poissons Ratio (x) = 0.32430 0.29033
# Poissons Ratio (y) = 0.26284 0.26824
# Poissons Ratio (z) = 0.23780 0.27107
#
# Static dielectric constant tensor:
#      x y z
#    x -6.791850 0.000000 0.000000 
#    y 0.000000 1.760330 0.000000 
#    z 0.000000 0.000000 1.817160 
# 
# From -- ./inp_files/48614.got.cif
#   From: 2010.05.17/outbox.cif.g08.bks.cpg/sg66_25_cif.got.tgz:48614.got - 2010.06.03 17:51:23.
