data_PCOD9499841
_publ_section_title
;
Structure prediction by ZEFSAII (Michael W. Deem and Ramdas Pophale) SiO2 
 PCOD9499841
Probable space group: C C C M
;
_chemical_formula_sum "Si O2"
_cell_formula_units_Z 108
_cell_length_a 20.277524
_cell_length_b 15.708732
_cell_length_c 15.082527
_cell_angle_alpha 90.000000
_cell_angle_beta 90.000000
_cell_angle_gamma 90.000000
_cell_volume 4804.300523
_symmetry_space_group_name_H-M "C C C M"
_symmetry_group_IT_number 66
_symmetry_cell_setting 'orthorhombic'
loop_
_space_group_symop_operation_xyz
x,y,z
-x,-y,z
x,-y,1/2-z
-x,y,1/2-z
-x,-y,-z
x,y,-z
-x,y,1/2+z
x,-y,1/2+z
1/2+x,1/2+y,z
1/2-x,1/2-y,z
1/2+x,1/2-y,1/2-z
1/2-x,1/2+y,1/2-z
1/2-x,1/2-y,-z
1/2+x,1/2+y,-z
1/2-x,1/2+y,1/2+z
1/2+x,1/2-y,1/2+z
loop_
_atom_site_type_symbol
_atom_site_label
_atom_site_fract_x
_atom_site_fract_y
_atom_site_fract_z
Si Si1 0.573328 0.525143 0.147283
Si Si2 0.807490 0.088494 0.900210
Si Si3 0.091621 0.643910 0.335696
Si Si4 0.500000 0.000000 0.250000
Si Si5 0.172080 0.498480 0.856238
Si Si6 0.520586 0.694883 0.101283
Si Si7 0.876698 0.368982 0.000000
Si Si8 0.116619 0.760192 0.166458
O O1 0.500000 0.500000 0.116464
O O2 0.579070 0.500000 0.250000
O O3 0.629898 0.473617 0.098720
O O4 0.573833 0.626285 0.133881
O O5 0.745364 0.033966 0.869591
O O6 0.826679 0.168434 0.838901
O O7 0.791943 0.119704 0.000000
O O8 0.043020 0.565993 0.308464
O O9 0.153950 0.598390 0.380232
O O10 0.050214 0.710835 0.392244
O O11 0.114718 0.697539 0.249846
O O12 0.160776 0.500000 0.750000
O O13 0.129314 0.557973 0.920876
O O14 0.454566 0.693125 0.160096
O O15 0.503116 0.675660 0.000000
O O16 0.878834 0.295492 0.077828
#
# Coordination Sequence:
#
# PCOD9499841 Si02
#       8
#    16  16  16   4  16  16   8  16
#     4  11  24  43  71 105 144 191 238 300 371 443
#     4  12  25  44  74 105 143 184 239 304 363 438
#     4  12  26  45  71 104 149 196 238 300 371 449
#     4  12  20  44  74 100 138 192 244 296 360 442
#     4  12  27  48  68 103 144 193 242 292 364 439
#     4  12  25  42  70 111 146 186 243 304 374 438
#     4  12  24  47  73 103 142 186 246 299 362 430
#     4  12  23  45  74 110 141 182 243 310 370 423
#
# _framework density 22.479859999999999
#
# number of rings (size 3 to 8) (size 9 to 14) (size 15 to 20)
#    0.000    0.148    7.407    1.778    3.111    1.778 
#    0.000    3.333    0.000    1.778    0.000    0.000 
#    0.000    0.000    0.000    0.000    0.000    0.000 
#
# Total GULP energy -301006.418066 kJ/mol
# GULP energy per Si atom -5574.192927 kJ/mol
# Density = 2.242869 g / cm^3
# Si number density = 22.479860 Si / 1000 Ang^3
#
#
#
# Elastic Constant Matrix: (Units=GPa)
#
#
# Indices 1 2 3 4 5 6 
#
# 1 54.2024 36.9591 17.5197 0.0000 0.0000 0.0000
# 2 36.9591 137.9750 28.1294 0.0000 0.0000 0.0000
# 3 17.5197 28.1294 84.5777 0.0000 0.0000 0.0000
# 4 0.0000 0.0000 0.0000 31.9933 0.0000 0.0000
# 5 0.0000 0.0000 0.0000 0.0000 13.9762 0.0000
# 6 0.0000 0.0000 0.0000 0.0000 0.0000 39.4514
#
#
#
# Elastic Compliance Matrix: (Units=1/GPa)
#
#
# Indices 1 2 3 4 5 6 
#
# 1 0.023235 -0.005624 -0.002943 0.000000 0.000000 0.000000
# 2 -0.005624 0.009136 -0.001874 0.000000 0.000000 0.000000
# 3 -0.002943 -0.001874 0.013056 0.000000 0.000000 0.000000
# 4 0.000000 0.000000 0.000000 0.031257 0.000000 0.000000
# 5 0.000000 0.000000 0.000000 0.000000 0.071550 0.000000
# 6 0.000000 0.000000 0.000000 0.000000 0.000000 0.025348
#
#
# Mechanical properties :
#
#
# Convention : Reuss Voigt Hill
#
# Bulk Modulus (GPa) = 40.73780 49.10794 44.92287
# Shear Modulus (GPa) = 24.67373 30.02732 27.35052
#
# Velocity S-wave (km/s) = 3.31659 3.65875 3.49186
# Velocity P-wave (km/s) = 5.72954 6.30407 6.02366
#
# Compressibility (1/GPa) = 0.02454723
#
# Stress axis : x y z
#
# Youngs Moduli (GPa) = 43.03777 109.45492 76.59256
#
# Poissons Ratio (x) = 0.61559 0.22538
# Poissons Ratio (y) = 0.24205 0.14350
# Poissons Ratio (z) = 0.12664 0.20507
#
# Static dielectric constant tensor:
#      x y z
#    x 1.897120 0.000000 0.000000 
#    y 0.000000 1.882690 0.000000 
#    z 0.000000 0.000000 1.828050 
# 
# From -- ./inp_files/32537.got.cif
#   From: 2010.05.17/outbox.cif.g08.bks.cpg/sg66_17_cif.got.tgz:32537.got - 2010.06.03 17:51:23.
