data_PCOD9499433
_publ_section_title
;
Structure prediction by ZEFSAII (Michael W. Deem and Ramdas Pophale) SiO2 
 PCOD9499433
Probable space group: C C C M
;
_chemical_formula_sum "Si O2"
_cell_formula_units_Z 56
_cell_length_a 12.161589
_cell_length_b 14.842155
_cell_length_c 14.735622
_cell_angle_alpha 90.000000
_cell_angle_beta 90.000000
_cell_angle_gamma 90.000000
_cell_volume 2659.841498
_symmetry_space_group_name_H-M "C C C M"
_symmetry_group_IT_number 66
_symmetry_cell_setting 'orthorhombic'
loop_
_space_group_symop_operation_xyz
x,y,z
-x,-y,z
x,-y,1/2-z
-x,y,1/2-z
-x,-y,-z
x,y,-z
-x,y,1/2+z
x,-y,1/2+z
1/2+x,1/2+y,z
1/2-x,1/2-y,z
1/2+x,1/2-y,1/2-z
1/2-x,1/2+y,1/2-z
1/2-x,1/2-y,-z
1/2+x,1/2+y,-z
1/2-x,1/2+y,1/2+z
1/2+x,1/2-y,1/2+z
loop_
_atom_site_type_symbol
_atom_site_label
_atom_site_fract_x
_atom_site_fract_y
_atom_site_fract_z
Si Si1 0.500000 0.284326 0.250000
Si Si2 0.165776 0.476875 0.356154
Si Si3 0.088450 0.920193 0.896149
Si Si4 0.965095 0.650863 0.099989
O O1 0.570030 0.346398 0.182078
O O2 0.435850 0.219530 0.180077
O O3 0.161916 0.500000 0.250000
O O4 0.288577 0.457112 0.386421
O O5 0.116213 0.566201 0.400726
O O6 0.084184 0.393904 0.378289
O O7 0.073989 0.887308 0.000000
O O8 0.000000 0.000000 0.881691
O O9 0.966282 0.692363 0.000000
#
# Coordination Sequence:
#
# PCOD9499433 Si02
#       4
#     8  16  16  16
#     4  12  23  43  62 102 134 170 218 281 335 384
#     4  11  20  42  69  98 133 177 219 266 334 405
#     4  11  25  45  67  93 132 182 226 267 331 408
#     4  11  22  40  68 101 134 171 222 279 334 393
#
# _framework density 21.053885999999999
#
# number of rings (size 3 to 8) (size 9 to 14) (size 15 to 20)
#    0.000    0.857    2.857    7.286    0.000    1.143 
#    5.143    2.857    0.000    6.857    0.000    0.000 
#    0.000    0.000    0.000    0.000    0.000    0.000 
#
# Total GULP energy -156535.482404 kJ/mol
# GULP energy per Si atom -5590.552943 kJ/mol
# Density = 2.100597 g / cm^3
# Si number density = 21.053886 Si / 1000 Ang^3
#
#
#
# Elastic Constant Matrix: (Units=GPa)
#
#
# Indices 1 2 3 4 5 6 
#
# 1 127.5121 55.3884 26.3280 0.0000 0.0000 0.0000
# 2 55.3884 91.8038 64.4376 0.0000 0.0000 0.0000
# 3 26.3280 64.4376 210.3210 0.0000 0.0000 0.0000
# 4 0.0000 0.0000 0.0000 4.0833 0.0000 0.0000
# 5 0.0000 0.0000 0.0000 0.0000 34.6162 0.0000
# 6 0.0000 0.0000 0.0000 0.0000 0.0000 8.5186
#
#
#
# Elastic Compliance Matrix: (Units=1/GPa)
#
#
# Indices 1 2 3 4 5 6 
#
# 1 0.010736 -0.007051 0.000816 0.000000 0.000000 0.000000
# 2 -0.007051 0.018507 -0.004788 0.000000 0.000000 0.000000
# 3 0.000816 -0.004788 0.006119 0.000000 0.000000 0.000000
# 4 0.000000 0.000000 0.000000 0.244898 0.000000 0.000000
# 5 0.000000 0.000000 0.000000 0.000000 0.028888 0.000000
# 6 0.000000 0.000000 0.000000 0.000000 0.000000 0.117390
#
#
# Mechanical properties :
#
#
# Convention : Reuss Voigt Hill
#
# Bulk Modulus (GPa) = 75.08143 80.21610 77.64876
# Shear Modulus (GPa) = 11.03697 28.34250 19.68974
#
# Velocity S-wave (km/s) = 2.29208 3.67302 3.06143
# Velocity P-wave (km/s) = 6.53788 7.49475 7.03260
#
# Compressibility (1/GPa) = 0.01331887
#
# Stress axis : x y z
#
# Youngs Moduli (GPa) = 93.14045 54.03357 163.41826
#
# Poissons Ratio (x) = 0.38097 -0.13337
# Poissons Ratio (y) = 0.65669 0.78237
# Poissons Ratio (z) = -0.07601 0.25869
#
# Static dielectric constant tensor:
#      x y z
#    x 1.713100 0.000000 0.000000 
#    y 0.000000 1.765870 0.000000 
#    z 0.000000 0.000000 1.789030 
# 
# From -- ./inp_files/25355.got.cif
#   From: 2010.05.17/outbox.cif.g08.bks.cpg/sg66_13_cif.got.tgz:25355.got - 2010.06.03 17:51:23.
