data_PCOD9499961
_publ_section_title
;
Structure prediction by ZEFSAII (Michael W. Deem and Ramdas Pophale) SiO2 
 PCOD9499961
Probable space group: C C C M
;
_chemical_formula_sum "Si O2"
_cell_formula_units_Z 72
_cell_length_a 7.129005
_cell_length_b 25.913229
_cell_length_c 13.943072
_cell_angle_alpha 90.000000
_cell_angle_beta 90.000000
_cell_angle_gamma 90.000000
_cell_volume 2575.780923
_symmetry_space_group_name_H-M "C C C M"
_symmetry_group_IT_number 66
_symmetry_cell_setting 'orthorhombic'
loop_
_space_group_symop_operation_xyz
x,y,z
-x,-y,z
x,-y,1/2-z
-x,y,1/2-z
-x,-y,-z
x,y,-z
-x,y,1/2+z
x,-y,1/2+z
1/2+x,1/2+y,z
1/2-x,1/2-y,z
1/2+x,1/2-y,1/2-z
1/2-x,1/2+y,1/2-z
1/2-x,1/2-y,-z
1/2+x,1/2+y,-z
1/2-x,1/2+y,1/2+z
1/2+x,1/2-y,1/2+z
loop_
_atom_site_type_symbol
_atom_site_label
_atom_site_fract_x
_atom_site_fract_y
_atom_site_fract_z
Si Si1 0.736200 0.500000 0.250000
Si Si2 0.417129 0.691706 0.383769
Si Si3 0.472235 0.797678 0.883937
Si Si4 0.597303 0.090313 0.888595
Si Si5 0.354061 0.418157 0.107226
O O1 0.841287 0.456910 0.180182
O O2 0.627931 0.535831 0.177519
O O3 0.422862 0.693037 0.500000
O O4 0.554219 0.737850 0.352665
O O5 0.195931 0.698356 0.361586
O O6 0.458608 0.633057 0.358465
O O7 0.371420 0.850442 0.851602
O O8 0.449199 0.799054 0.000000
O O9 0.370849 0.089917 0.895222
O O10 0.662918 0.084244 0.000000
O O11 0.414417 0.430065 0.000000
#
# Coordination Sequence:
#
# PCOD9499961 Si02
#       5
#     8  16  16  16  16
#     4  12  19  22  28  42  70 100 118 130 152 198
#     4   7  10  18  31  43  53  69 100 142 179 199
#     4   7  10  18  31  43  53  69 100 142 179 199
#     4   9  16  23  30  41  60  87 115 141 165 192
#     4   9  16  23  30  41  60  87 115 141 165 192
#
# _framework density 27.952687999999998
#
# number of rings (size 3 to 8) (size 9 to 14) (size 15 to 20)
#    0.000    3.556    0.000    6.667    0.000    1.778 
#    0.000    0.000    0.000    0.000    0.000    0.000 
#    0.000    7.111    0.000   65.778    0.000    5.778 
#
# Total GULP energy -201188.729351 kJ/mol
# GULP energy per Si atom -5588.575815 kJ/mol
# Density = 2.788907 g / cm^3
# Si number density = 27.952688 Si / 1000 Ang^3
#
#
#
# Elastic Constant Matrix: (Units=GPa)
#
#
# Indices 1 2 3 4 5 6 
#
# 1 127.3925 74.3802 26.7311 0.0000 0.0000 0.0000
# 2 74.3802 354.0797 104.2654 0.0000 0.0000 0.0000
# 3 26.7311 104.2654 161.6036 0.0000 0.0000 0.0000
# 4 0.0000 0.0000 0.0000 93.6935 0.0000 0.0000
# 5 0.0000 0.0000 0.0000 0.0000 3.2044 0.0000
# 6 0.0000 0.0000 0.0000 0.0000 0.0000 -5.5685
#
#
#
# Elastic Compliance Matrix: (Units=1/GPa)
#
#
# Indices 1 2 3 4 5 6 
#
# 1 0.008961 -0.001785 -0.000331 0.000000 0.000000 0.000000
# 2 -0.001785 0.003842 -0.002184 0.000000 0.000000 0.000000
# 3 -0.000331 -0.002184 0.007652 0.000000 0.000000 0.000000
# 4 0.000000 0.000000 0.000000 0.010673 0.000000 0.000000
# 5 0.000000 0.000000 0.000000 0.000000 0.312070 0.000000
# 6 0.000000 0.000000 0.000000 0.000000 0.000000 -0.179582
#
#
# Mechanical properties :
#
#
# Convention : Reuss Voigt Hill
#
# Bulk Modulus (GPa) = 84.34259 117.09213 100.71736
# Shear Modulus (GPa) = 28.38217 47.44583 37.91400
#
# Velocity S-wave (km/s) = 3.18994 4.12437 3.68688
# Velocity P-wave (km/s) = 6.61864 8.04120 7.36435
#
# Compressibility (1/GPa) = 0.01185641
#
# Stress axis : x y z
#
# Youngs Moduli (GPa) = 111.58957 260.26370 130.69209
#
# Poissons Ratio (x) = 0.46461 0.04320
# Poissons Ratio (y) = 0.19920 0.28539
# Poissons Ratio (z) = 0.03689 0.56834
#
# Static dielectric constant tensor:
#      x y z
#    x 2.279600 0.000000 0.000000 
#    y 0.000000 2.262050 0.000000 
#    z 0.000000 0.000000 2.207220 
# 
# From -- ./inp_files/24475.got.cif
#   From: 2010.05.17/outbox.cif.g08.bks.cpg/sg66_13_cif.got.tgz:24475.got - 2010.06.03 17:51:23.
