data_PCOD9499889
_publ_section_title
;
Structure prediction by ZEFSAII (Michael W. Deem and Ramdas Pophale) SiO2 
 PCOD9499889
Probable space group: C C C M
;
_chemical_formula_sum "Si O2"
_cell_formula_units_Z 104
_cell_length_a 13.797480
_cell_length_b 20.273657
_cell_length_c 17.420264
_cell_angle_alpha 90.000000
_cell_angle_beta 90.000000
_cell_angle_gamma 90.000000
_cell_volume 4872.889915
_symmetry_space_group_name_H-M "C C C M"
_symmetry_group_IT_number 66
_symmetry_cell_setting 'orthorhombic'
loop_
_space_group_symop_operation_xyz
x,y,z
-x,-y,z
x,-y,1/2-z
-x,y,1/2-z
-x,-y,-z
x,y,-z
-x,y,1/2+z
x,-y,1/2+z
1/2+x,1/2+y,z
1/2-x,1/2-y,z
1/2+x,1/2-y,1/2-z
1/2-x,1/2+y,1/2-z
1/2-x,1/2-y,-z
1/2+x,1/2+y,-z
1/2-x,1/2+y,1/2+z
1/2+x,1/2-y,1/2+z
loop_
_atom_site_type_symbol
_atom_site_label
_atom_site_fract_x
_atom_site_fract_y
_atom_site_fract_z
Si Si1 0.362448 0.237013 0.216734
Si Si2 0.903580 0.678272 0.379885
Si Si3 0.698019 0.611123 0.383472
Si Si4 0.602605 0.385066 0.720035
Si Si5 0.718397 0.542686 0.087371
Si Si6 0.412189 0.701574 0.000000
Si Si7 0.100074 0.370354 0.910810
O O1 0.250000 0.250000 0.234337
O O2 0.405330 0.202754 0.292262
O O3 0.407941 0.308033 0.198737
O O4 0.368094 0.188806 0.144584
O O5 0.796793 0.651448 0.398360
O O6 0.924408 0.740584 0.433705
O O7 0.985785 0.623230 0.394096
O O8 0.673375 0.612683 0.293405
O O9 0.712052 0.535619 0.406539
O O10 0.615489 0.646898 0.432755
O O11 0.500000 0.411355 0.750000
O O12 0.647497 0.424319 0.649228
O O13 0.827368 0.569064 0.103472
O O14 0.693329 0.562988 0.000000
O O15 0.111223 0.352436 0.000000
#
# Coordination Sequence:
#
# PCOD9499889 Si02
#       7
#    16  16  16  16  16   8  16
#     4  12  22  43  70  99 132 173 226 286 346 396
#     4  12  22  41  71 106 135 169 227 288 346 405
#     4  12  24  43  70  97 139 181 226 282 341 405
#     4  12  26  46  70  98 131 179 232 288 343 401
#     4  11  26  47  66  97 139 186 228 272 340 418
#     4  12  23  40  66 105 137 172 223 288 337 384
#     4  11  25  42  68 102 141 179 220 276 344 422
#
# _framework density 21.342571
#
# number of rings (size 3 to 8) (size 9 to 14) (size 15 to 20)
#    0.000    0.308    6.154    3.231    0.000    2.769 
#    1.385    2.308    0.000    3.692    0.000    0.000 
#    0.000    0.000    0.000    0.000    0.000    0.000 
#
# Total GULP energy -289938.752539 kJ/mol
# GULP energy per Si atom -5575.745241 kJ/mol
# Density = 2.129399 g / cm^3
# Si number density = 21.342571 Si / 1000 Ang^3
#
#
#
# Elastic Constant Matrix: (Units=GPa)
#
#
# Indices 1 2 3 4 5 6 
#
# 1 47.6755 6.8100 14.1876 0.0000 0.0000 0.0000
# 2 6.8100 53.7173 -13.2271 0.0000 0.0000 0.0000
# 3 14.1876 -13.2271 72.0786 0.0000 0.0000 0.0000
# 4 0.0000 0.0000 0.0000 4.3443 0.0000 0.0000
# 5 0.0000 0.0000 0.0000 0.0000 8.6902 0.0000
# 6 0.0000 0.0000 0.0000 0.0000 0.0000 6.2170
#
#
#
# Elastic Compliance Matrix: (Units=1/GPa)
#
#
# Indices 1 2 3 4 5 6 
#
# 1 0.023172 -0.004253 -0.005342 0.000000 0.000000 0.000000
# 2 -0.004253 0.020278 0.004558 0.000000 0.000000 0.000000
# 3 -0.005342 0.004558 0.015762 0.000000 0.000000 0.000000
# 4 0.000000 0.000000 0.000000 0.230189 0.000000 0.000000
# 5 0.000000 0.000000 0.000000 0.000000 0.115072 0.000000
# 6 0.000000 0.000000 0.000000 0.000000 0.000000 0.160850
#
#
# Mechanical properties :
#
#
# Convention : Reuss Voigt Hill
#
# Bulk Modulus (GPa) = 20.35047 21.00137 20.67592
# Shear Modulus (GPa) = 8.44917 14.89702 11.67309
#
# Velocity S-wave (km/s) = 1.99184 2.64483 2.34121
# Velocity P-wave (km/s) = 3.85302 4.38045 4.12517
#
# Compressibility (1/GPa) = 0.04913892
#
# Stress axis : x y z
#
# Youngs Moduli (GPa) = 43.15517 49.31566 63.44527
#
# Poissons Ratio (x) = 0.20974 0.33890
# Poissons Ratio (y) = 0.18354 -0.28920
# Poissons Ratio (z) = 0.23052 -0.22479
#
# Static dielectric constant tensor:
#      x y z
#    x 1.850230 0.000000 0.000000 
#    y 0.000000 1.729800 0.000000 
#    z 0.000000 0.000000 1.754440 
# 
# From -- ./inp_files/40561.got.cif
#   From: 2010.05.17/outbox.cif.g08.bks.cpg/sg66_21_cif.got.tgz:40561.got - 2010.06.03 17:51:23.
