data_PCOD9499518
_publ_section_title
;
Structure prediction by ZEFSAII (Michael W. Deem and Ramdas Pophale) SiO2 
 PCOD9499518
Probable space group: C C C M
;
_chemical_formula_sum "Si O2"
_cell_formula_units_Z 88
_cell_length_a 25.585391
_cell_length_b 11.572596
_cell_length_c 14.185644
_cell_angle_alpha 90.000000
_cell_angle_beta 90.000000
_cell_angle_gamma 90.000000
_cell_volume 4200.218729
_symmetry_space_group_name_H-M "C C C M"
_symmetry_group_IT_number 66
_symmetry_cell_setting 'orthorhombic'
loop_
_space_group_symop_operation_xyz
x,y,z
-x,-y,z
x,-y,1/2-z
-x,y,1/2-z
-x,-y,-z
x,y,-z
-x,y,1/2+z
x,-y,1/2+z
1/2+x,1/2+y,z
1/2-x,1/2-y,z
1/2+x,1/2-y,1/2-z
1/2-x,1/2+y,1/2-z
1/2-x,1/2-y,-z
1/2+x,1/2+y,-z
1/2-x,1/2+y,1/2+z
1/2+x,1/2-y,1/2+z
loop_
_atom_site_type_symbol
_atom_site_label
_atom_site_fract_x
_atom_site_fract_y
_atom_site_fract_z
Si Si1 0.807053 0.778421 0.838817
Si Si2 0.122548 0.054747 0.500000
Si Si3 0.840459 0.400589 0.500000
Si Si4 0.395538 0.373496 0.707647
Si Si5 0.225859 0.957947 0.500000
Si Si6 0.517273 0.782959 0.660390
Si Si7 0.533331 0.622710 0.000000
Si Si8 0.556932 0.060581 0.000000
O O1 0.750000 0.750000 0.797518
O O2 0.832138 0.680855 0.907593
O O3 0.847318 0.813141 0.758802
O O4 0.791708 0.882495 0.909680
O O5 0.106671 0.114597 0.595643
O O6 0.185165 0.059750 0.500000
O O7 0.092826 0.928228 0.500000
O O8 0.787452 0.477947 0.500000
O O9 0.894420 0.471551 0.500000
O O10 0.398991 0.500000 0.750000
O O11 0.447997 0.304652 0.721782
O O12 0.500000 0.860641 0.750000
O O13 0.481354 0.705958 0.588427
O O14 0.554149 0.858756 0.592051
O O15 0.500000 0.500000 0.000000
O O16 0.500000 0.000000 0.000000
#
# Coordination Sequence:
#
# PCOD9499518 Si02
#       8
#    16   8   8  16   8  16   8   8
#     4   9  20  40  66 102 126 170 230 269 315 402
#     4  12  21  35  62  97 136 173 206 259 340 397
#     4   9  21  45  75  90 124 179 225 277 320 368
#     4  12  23  38  65  98 138 169 208 273 338 400
#     4   9  18  38  68  98 128 161 222 269 321 393
#     4  11  26  42  64  98 134 172 222 271 327 397
#     4  11  21  40  62  93 137 178 212 259 323 400
#     4  11  27  50  68  93 128 174 230 280 317 379
#
# _framework density 20.95129
#
# number of rings (size 3 to 8) (size 9 to 14) (size 15 to 20)
#    0.000    1.455    3.636    2.727    2.545    1.818 
#    3.273    0.455    0.000    0.000    0.000    0.000 
#    0.000    0.000    0.000    0.000    0.000    0.000 
#
# Total GULP energy -245196.248745 kJ/mol
# GULP energy per Si atom -5572.642017 kJ/mol
# Density = 2.090360 g / cm^3
# Si number density = 20.951290 Si / 1000 Ang^3
#
#
#
# Elastic Constant Matrix: (Units=GPa)
#
#
# Indices 1 2 3 4 5 6 
#
# 1 139.4156 46.5783 45.8580 0.0000 0.0000 0.0000
# 2 46.5783 69.4322 34.4821 0.0000 0.0000 0.0000
# 3 45.8580 34.4821 146.6578 0.0000 0.0000 0.0000
# 4 0.0000 0.0000 0.0000 38.1172 0.0000 0.0000
# 5 0.0000 0.0000 0.0000 0.0000 48.7880 0.0000
# 6 0.0000 0.0000 0.0000 0.0000 0.0000 13.8392
#
#
#
# Elastic Compliance Matrix: (Units=1/GPa)
#
#
# Indices 1 2 3 4 5 6 
#
# 1 0.009599 -0.005603 -0.001684 0.000000 0.000000 0.000000
# 2 -0.005603 0.019577 -0.002851 0.000000 0.000000 0.000000
# 3 -0.001684 -0.002851 0.008015 0.000000 0.000000 0.000000
# 4 0.000000 0.000000 0.000000 0.026235 0.000000 0.000000
# 5 0.000000 0.000000 0.000000 0.000000 0.020497 0.000000
# 6 0.000000 0.000000 0.000000 0.000000 0.000000 0.072258
#
#
# Mechanical properties :
#
#
# Convention : Reuss Voigt Hill
#
# Bulk Modulus (GPa) = 59.11766 67.70472 63.41119
# Shear Modulus (GPa) = 27.45811 35.38803 31.42307
#
# Velocity S-wave (km/s) = 3.62411 4.11428 3.87695
# Velocity P-wave (km/s) = 6.76684 7.41318 7.09737
#
# Compressibility (1/GPa) = 0.01691542
#
# Stress axis : x y z
#
# Youngs Moduli (GPa) = 104.18167 51.08010 124.75841
#
# Poissons Ratio (x) = 0.28619 0.21010
# Poissons Ratio (y) = 0.58372 0.35569
# Poissons Ratio (z) = 0.17544 0.14563
#
# Static dielectric constant tensor:
#      x y z
#    x 1.778580 0.000000 0.000000 
#    y 0.000000 1.796510 0.000000 
#    z 0.000000 0.000000 1.645600 
# 
# From -- ./inp_files/32268.got.cif
#   From: 2010.05.17/outbox.cif.g08.bks.cpg/sg66_17_cif.got.tgz:32268.got - 2010.06.03 17:51:23.
