data_PCOD9499836
_publ_section_title
;
Structure prediction by ZEFSAII (Michael W. Deem and Ramdas Pophale) SiO2 
 PCOD9499836
Probable space group: C C C M
;
_chemical_formula_sum "Si O2"
_cell_formula_units_Z 48
_cell_length_a 17.881029
_cell_length_b 8.657001
_cell_length_c 14.702525
_cell_angle_alpha 90.000000
_cell_angle_beta 90.000000
_cell_angle_gamma 90.000000
_cell_volume 2275.893323
_symmetry_space_group_name_H-M "C C C M"
_symmetry_group_IT_number 66
_symmetry_cell_setting 'orthorhombic'
loop_
_space_group_symop_operation_xyz
x,y,z
-x,-y,z
x,-y,1/2-z
-x,y,1/2-z
-x,-y,-z
x,y,-z
-x,y,1/2+z
x,-y,1/2+z
1/2+x,1/2+y,z
1/2-x,1/2-y,z
1/2+x,1/2-y,1/2-z
1/2-x,1/2+y,1/2-z
1/2-x,1/2-y,-z
1/2+x,1/2+y,-z
1/2-x,1/2+y,1/2+z
1/2+x,1/2-y,1/2+z
loop_
_atom_site_type_symbol
_atom_site_label
_atom_site_fract_x
_atom_site_fract_y
_atom_site_fract_z
Si Si1 0.247378 0.432772 0.000000
Si Si2 0.916823 0.923109 0.500000
Si Si3 0.580546 0.329006 0.207952
Si Si4 0.203481 0.602418 0.826193
O O1 0.250000 0.250000 0.000000
O O2 0.335306 0.489088 0.000000
O O3 0.201343 0.495902 0.086180
O O4 0.917792 0.839629 0.402012
O O5 0.000000 0.000000 0.500000
O O6 0.598392 0.500000 0.250000
O O7 0.500000 0.294398 0.250000
O O8 0.634440 0.183761 0.225167
O O9 0.243008 0.500000 0.750000
O O10 0.250000 0.750000 0.857438
#
# Coordination Sequence:
#
# PCOD9499836 Si02
#       4
#     8   8  16  16
#     4  12  28  46  73 108 141 193 247 300 368 434
#     4  12  23  43  72  98 145 187 238 294 352 443
#     4  11  24  43  70 105 140 192 239 292 365 435
#     4  12  25  43  70 101 144 183 238 301 353 425
#
# _framework density 21.090620999999999
#
# number of rings (size 3 to 8) (size 9 to 14) (size 15 to 20)
#    0.000    0.333    6.667    3.500    4.667    0.667 
#    0.000    0.000    0.000    6.000    0.000    0.000 
#    0.000    0.000    0.000    0.000    0.000    0.000 
#
# Total GULP energy -133639.654525 kJ/mol
# GULP energy per Si atom -5568.318939 kJ/mol
# Density = 2.104262 g / cm^3
# Si number density = 21.090621 Si / 1000 Ang^3
#
#
#
# Elastic Constant Matrix: (Units=GPa)
#
#
# Indices 1 2 3 4 5 6 
#
# 1 149.6645 28.7751 -5.0424 0.0000 0.0000 0.0000
# 2 28.7751 115.8655 29.0876 0.0000 0.0000 0.0000
# 3 -5.0424 29.0876 135.8463 0.0000 0.0000 0.0000
# 4 0.0000 0.0000 0.0000 19.4882 0.0000 0.0000
# 5 0.0000 0.0000 0.0000 0.0000 26.2725 0.0000
# 6 0.0000 0.0000 0.0000 0.0000 0.0000 2.7862
#
#
#
# Elastic Compliance Matrix: (Units=1/GPa)
#
#
# Indices 1 2 3 4 5 6 
#
# 1 0.007075 -0.001926 0.000675 0.000000 0.000000 0.000000
# 2 -0.001926 0.009646 -0.002137 0.000000 0.000000 0.000000
# 3 0.000675 -0.002137 0.007844 0.000000 0.000000 0.000000
# 4 0.000000 0.000000 0.000000 0.051313 0.000000 0.000000
# 5 0.000000 0.000000 0.000000 0.000000 0.038063 0.000000
# 6 0.000000 0.000000 0.000000 0.000000 0.000000 0.358917
#
#
# Mechanical properties :
#
#
# Convention : Reuss Voigt Hill
#
# Bulk Modulus (GPa) = 56.21843 56.33520 56.27681
# Shear Modulus (GPa) = 10.29733 32.94644 21.62188
#
# Velocity S-wave (km/s) = 2.21202 3.95668 3.20533
# Velocity P-wave (km/s) = 5.76520 6.90237 6.35926
#
# Compressibility (1/GPa) = 0.01778776
#
# Stress axis : x y z
#
# Youngs Moduli (GPa) = 141.34774 103.67439 127.48823
#
# Poissons Ratio (x) = 0.19973 -0.08607
# Poissons Ratio (y) = 0.27231 0.27242
# Poissons Ratio (z) = -0.09543 0.22153
#
# Static dielectric constant tensor:
#      x y z
#    x 1.863640 0.000000 0.000000 
#    y 0.000000 1.758970 0.000000 
#    z 0.000000 0.000000 1.645430 
# 
# From -- ./inp_files/23546.got.cif
#   From: 2010.05.17/outbox.cif.g08.bks.cpg/sg66_12_cif.got.tgz:23546.got - 2010.06.03 17:51:23.
