data_PCOD9499946
_publ_section_title
;
Structure prediction by ZEFSAII (Michael W. Deem and Ramdas Pophale) SiO2 
 PCOD9499946
Probable space group: C C C M
;
_chemical_formula_sum "Si O2"
_cell_formula_units_Z 40
_cell_length_a 7.452101
_cell_length_b 11.631020
_cell_length_c 19.975790
_cell_angle_alpha 90.000000
_cell_angle_beta 90.000000
_cell_angle_gamma 90.000000
_cell_volume 1731.412301
_symmetry_space_group_name_H-M "C C C M"
_symmetry_group_IT_number 66
_symmetry_cell_setting 'orthorhombic'
loop_
_space_group_symop_operation_xyz
x,y,z
-x,-y,z
x,-y,1/2-z
-x,y,1/2-z
-x,-y,-z
x,y,-z
-x,y,1/2+z
x,-y,1/2+z
1/2+x,1/2+y,z
1/2-x,1/2-y,z
1/2+x,1/2-y,1/2-z
1/2-x,1/2+y,1/2-z
1/2-x,1/2-y,-z
1/2+x,1/2+y,-z
1/2-x,1/2+y,1/2+z
1/2+x,1/2-y,1/2+z
loop_
_atom_site_type_symbol
_atom_site_label
_atom_site_fract_x
_atom_site_fract_y
_atom_site_fract_z
Si Si1 0.089384 0.165899 0.182852
Si Si2 0.788197 0.505866 0.925231
Si Si3 0.750000 0.250000 0.108953
O O1 0.250000 0.250000 0.202318
O O2 0.065591 0.244505 0.349751
O O3 0.000000 0.117731 0.250000
O O4 0.173771 0.074797 0.130079
O O5 0.737606 0.371734 0.927670
O O6 0.000000 0.500000 0.909379
O O7 0.764280 0.557051 0.000000
#
# Coordination Sequence:
#
# PCOD9499946 Si02
#       3
#    16  16   8
#     4  12  26  50  76 111 153 204 260 318 386 456
#     4  11  26  48  78 116 156 200 254 318 387 463
#     4  12  25  46  78 110 151 200 244 320 385 456
#
# _framework density 23.102525
#
# number of rings (size 3 to 8) (size 9 to 14) (size 15 to 20)
#    0.000    0.400    6.000    1.800    0.000    8.800 
#    0.000    4.000    0.000    0.000    0.000    0.000 
#    0.000    0.000    0.000    0.000    0.000    0.000 
#
# Total GULP energy -111728.991643 kJ/mol
# GULP energy per Si atom -5586.449582 kJ/mol
# Density = 2.304994 g / cm^3
# Si number density = 23.102525 Si / 1000 Ang^3
#
#
#
# Elastic Constant Matrix: (Units=GPa)
#
#
# Indices 1 2 3 4 5 6 
#
# 1 179.3474 47.1982 94.7905 0.0000 0.0000 0.0000
# 2 47.1982 134.5419 80.6983 0.0000 0.0000 0.0000
# 3 94.7905 80.6983 195.8222 0.0000 0.0000 0.0000
# 4 0.0000 0.0000 0.0000 28.4844 0.0000 0.0000
# 5 0.0000 0.0000 0.0000 0.0000 59.2245 0.0000
# 6 0.0000 0.0000 0.0000 0.0000 0.0000 28.2544
#
#
#
# Elastic Compliance Matrix: (Units=1/GPa)
#
#
# Indices 1 2 3 4 5 6 
#
# 1 0.007530 -0.000605 -0.003396 0.000000 0.000000 0.000000
# 2 -0.000605 0.009922 -0.003796 0.000000 0.000000 0.000000
# 3 -0.003396 -0.003796 0.008315 0.000000 0.000000 0.000000
# 4 0.000000 0.000000 0.000000 0.035107 0.000000 0.000000
# 5 0.000000 0.000000 0.000000 0.000000 0.016885 0.000000
# 6 0.000000 0.000000 0.000000 0.000000 0.000000 0.035393
#
#
# Mechanical properties :
#
#
# Convention : Reuss Voigt Hill
#
# Bulk Modulus (GPa) = 98.29682 106.12062 102.20872
# Shear Modulus (GPa) = 37.84036 42.32764 40.08400
#
# Velocity S-wave (km/s) = 4.05153 4.28502 4.16991
# Velocity P-wave (km/s) = 8.03287 8.39740 8.21715
#
# Compressibility (1/GPa) = 0.01017327
#
# Stress axis : x y z
#
# Youngs Moduli (GPa) = 132.80931 100.79032 120.26948
#
# Poissons Ratio (x) = 0.06095 0.40839
# Poissons Ratio (y) = 0.08032 0.45654
# Poissons Ratio (z) = 0.45097 0.38259
#
# Static dielectric constant tensor:
#      x y z
#    x 1.850530 0.000000 0.000000 
#    y 0.000000 1.879320 0.000000 
#    z 0.000000 0.000000 1.933440 
# 
# From -- ./inp_files/46138.got.cif
#   From: 2010.05.17/outbox.cif.g08.bks.cpg/sg66_24_cif.got.tgz:46138.got - 2010.06.03 17:51:23.
