data_PCOD9499356
_publ_section_title
;
Structure prediction by ZEFSAII (Michael W. Deem and Ramdas Pophale) SiO2 
 PCOD9499356
Probable space group: C C C M
;
_chemical_formula_sum "Si O2"
_cell_formula_units_Z 80
_cell_length_a 13.481886
_cell_length_b 16.843224
_cell_length_c 16.689773
_cell_angle_alpha 90.000000
_cell_angle_beta 90.000000
_cell_angle_gamma 90.000000
_cell_volume 3789.887380
_symmetry_space_group_name_H-M "C C C M"
_symmetry_group_IT_number 66
_symmetry_cell_setting 'orthorhombic'
loop_
_space_group_symop_operation_xyz
x,y,z
-x,-y,z
x,-y,1/2-z
-x,y,1/2-z
-x,-y,-z
x,y,-z
-x,y,1/2+z
x,-y,1/2+z
1/2+x,1/2+y,z
1/2-x,1/2-y,z
1/2+x,1/2-y,1/2-z
1/2-x,1/2+y,1/2-z
1/2-x,1/2-y,-z
1/2+x,1/2+y,-z
1/2-x,1/2+y,1/2+z
1/2+x,1/2-y,1/2+z
loop_
_atom_site_type_symbol
_atom_site_label
_atom_site_fract_x
_atom_site_fract_y
_atom_site_fract_z
Si Si1 0.742047 0.002438 0.908342
Si Si2 0.439416 0.580525 0.095260
Si Si3 0.959073 0.763204 0.907894
Si Si4 0.920898 0.380632 0.138139
Si Si5 0.638920 0.868967 0.182841
O O1 0.829915 0.058375 0.875793
O O2 0.644039 0.056526 0.908553
O O3 0.721982 0.924865 0.854980
O O4 0.766318 0.978284 0.000000
O O5 0.500000 0.500000 0.104352
O O6 0.501207 0.654652 0.127924
O O7 0.429392 0.598502 0.000000
O O8 0.052865 0.702276 0.904759
O O9 0.875215 0.717638 0.856821
O O10 0.926404 0.772249 0.000000
O O11 0.864700 0.364942 0.221887
O O12 0.032625 0.409026 0.158724
#
# Coordination Sequence:
#
# PCOD9499356 Si02
#       5
#    16  16  16  16  16
#     4  11  20  31  57  89 111 142 189 232 279 336
#     4   9  20  38  58  80 111 145 185 240 287 323
#     4   9  17  33  59  83 107 143 186 229 276 333
#     4   9  19  33  56  79 118 149 176 223 289 335
#     4   9  19  34  55  80 119 150 176 221 287 341
#
# _framework density 21.108805
#
# number of rings (size 3 to 8) (size 9 to 14) (size 15 to 20)
#    1.200    1.400    0.000    2.400    0.000    3.200 
#    0.000    4.000   22.000    4.800    0.000    0.000 
#    0.000    0.000    0.000    0.000    0.000    0.000 
#
# Total GULP energy -222721.390163 kJ/mol
# GULP energy per Si atom -5568.034754 kJ/mol
# Density = 2.106076 g / cm^3
# Si number density = 21.108805 Si / 1000 Ang^3
#
#
#
# Elastic Constant Matrix: (Units=GPa)
#
#
# Indices 1 2 3 4 5 6 
#
# 1 30.8997 12.0046 1.6959 0.0000 0.0000 0.0000
# 2 12.0046 98.3217 17.0646 0.0000 0.0000 0.0000
# 3 1.6959 17.0646 69.3532 0.0000 0.0000 0.0000
# 4 0.0000 0.0000 0.0000 -79.9185 0.0000 0.0000
# 5 0.0000 0.0000 0.0000 0.0000 4.3170 0.0000
# 6 0.0000 0.0000 0.0000 0.0000 0.0000 -28.6326
#
#
#
# Elastic Compliance Matrix: (Units=1/GPa)
#
#
# Indices 1 2 3 4 5 6 
#
# 1 0.033977 -0.004183 0.000198 0.000000 0.000000 0.000000
# 2 -0.004183 0.011139 -0.002639 0.000000 0.000000 0.000000
# 3 0.000198 -0.002639 0.015063 0.000000 0.000000 0.000000
# 4 0.000000 0.000000 0.000000 -0.012513 0.000000 0.000000
# 5 0.000000 0.000000 0.000000 0.000000 0.231641 0.000000
# 6 0.000000 0.000000 0.000000 0.000000 0.000000 -0.034925
#
#
# Mechanical properties :
#
#
# Convention : Reuss Voigt Hill
#
# Bulk Modulus (GPa) = 21.30678 28.90053 25.10366
# Shear Modulus (GPa) = 18.29671 -9.65952 4.31860
#
# Velocity S-wave (km/s) = 2.94731 -2.14149 1.43189
# Velocity P-wave (km/s) = 4.65810 2.75795 3.82780
#
# Compressibility (1/GPa) = 0.04693341
#
# Stress axis : x y z
#
# Youngs Moduli (GPa) = 29.43177 89.77182 66.38634
#
# Poissons Ratio (x) = 0.37550 -0.01317
# Poissons Ratio (y) = 0.12311 0.17517
# Poissons Ratio (z) = -0.00584 0.23687
#
# Static dielectric constant tensor:
#      x y z
#    x 1.788480 0.000000 0.000000 
#    y 0.000000 1.778120 0.000000 
#    z 0.000000 0.000000 1.746360 
# 
# From -- ./inp_files/40235.got.cif
#   From: 2010.05.17/outbox.cif.g08.bks.cpg/sg66_21_cif.got.tgz:40235.got - 2010.06.03 17:51:23.
