data_PCOD9499477
_publ_section_title
;
Structure prediction by ZEFSAII (Michael W. Deem and Ramdas Pophale) SiO2 
 PCOD9499477
Probable space group: C C C M
;
_chemical_formula_sum "Si O2"
_cell_formula_units_Z 48
_cell_length_a 10.539868
_cell_length_b 11.688423
_cell_length_c 20.836813
_cell_angle_alpha 90.000000
_cell_angle_beta 90.000000
_cell_angle_gamma 90.000000
_cell_volume 2566.979416
_symmetry_space_group_name_H-M "C C C M"
_symmetry_group_IT_number 66
_symmetry_cell_setting 'orthorhombic'
loop_
_space_group_symop_operation_xyz
x,y,z
-x,-y,z
x,-y,1/2-z
-x,y,1/2-z
-x,-y,-z
x,y,-z
-x,y,1/2+z
x,-y,1/2+z
1/2+x,1/2+y,z
1/2-x,1/2-y,z
1/2+x,1/2-y,1/2-z
1/2-x,1/2+y,1/2-z
1/2-x,1/2-y,-z
1/2+x,1/2+y,-z
1/2-x,1/2+y,1/2+z
1/2+x,1/2-y,1/2+z
loop_
_atom_site_type_symbol
_atom_site_label
_atom_site_fract_x
_atom_site_fract_y
_atom_site_fract_z
Si Si1 0.930513 0.877855 0.691142
Si Si2 0.500000 0.000000 0.143348
Si Si3 0.303068 0.000000 0.750000
Si Si4 0.900099 0.722605 0.427470
O O1 0.788803 0.906895 0.715908
O O2 0.946605 0.810941 0.625915
O O3 0.000000 0.815428 0.750000
O O4 0.000000 0.000000 0.683640
O O5 0.391696 0.045375 0.192496
O O6 0.562231 0.098220 0.099637
O O7 0.949398 0.736697 0.500000
O O8 0.750000 0.750000 0.429609
#
# Coordination Sequence:
#
# PCOD9499477 Si02
#       4
#    16   8   8  16
#     4   9  20  39  61  86 119 157 200 260 305 360
#     4  11  21  36  62  90 120 158 200 262 302 368
#     4   9  19  36  58  92 113 151 210 250 308 357
#     4  11  23  38  59  86 125 166 201 250 308 372
#
# _framework density 18.699020999999998
#
# number of rings (size 3 to 8) (size 9 to 14) (size 15 to 20)
#    0.000    2.333    3.333    0.500    4.667    0.667 
#    0.000    0.000    0.000    8.000    0.000    0.000 
#    0.000    0.000    0.000    0.000    0.000    0.000 
#
# Total GULP energy -133711.633832 kJ/mol
# GULP energy per Si atom -5571.318076 kJ/mol
# Density = 1.865646 g / cm^3
# Si number density = 18.699021 Si / 1000 Ang^3
#
#
#
# Elastic Constant Matrix: (Units=GPa)
#
#
# Indices 1 2 3 4 5 6 
#
# 1 80.0710 27.8329 43.8128 0.0000 0.0000 0.0000
# 2 27.8329 92.7331 76.3181 0.0000 0.0000 0.0000
# 3 43.8128 76.3181 210.0509 0.0000 0.0000 0.0000
# 4 0.0000 0.0000 0.0000 26.1066 0.0000 0.0000
# 5 0.0000 0.0000 0.0000 0.0000 26.5165 0.0000
# 6 0.0000 0.0000 0.0000 0.0000 0.0000 14.7855
#
#
#
# Elastic Compliance Matrix: (Units=1/GPa)
#
#
# Indices 1 2 3 4 5 6 
#
# 1 0.014546 -0.002666 -0.002065 0.000000 0.000000 0.000000
# 2 -0.002666 0.015872 -0.005211 0.000000 0.000000 0.000000
# 3 -0.002065 -0.005211 0.007085 0.000000 0.000000 0.000000
# 4 0.000000 0.000000 0.000000 0.038305 0.000000 0.000000
# 5 0.000000 0.000000 0.000000 0.000000 0.037712 0.000000
# 6 0.000000 0.000000 0.000000 0.000000 0.000000 0.067634
#
#
# Mechanical properties :
#
#
# Convention : Reuss Voigt Hill
#
# Bulk Modulus (GPa) = 56.75867 75.42032 66.08949
# Shear Modulus (GPa) = 24.16501 29.14112 26.65307
#
# Velocity S-wave (km/s) = 3.59878 3.95198 3.77951
# Velocity P-wave (km/s) = 6.90565 7.82596 7.38016
#
# Compressibility (1/GPa) = 0.01761845
#
# Stress axis : x y z
#
# Youngs Moduli (GPa) = 68.74875 63.00311 141.14744
#
# Poissons Ratio (x) = 0.16797 0.29152
# Poissons Ratio (y) = 0.18329 0.73549
# Poissons Ratio (z) = 0.14199 0.32830
#
# Static dielectric constant tensor:
#      x y z
#    x 1.694430 0.000000 0.000000 
#    y 0.000000 1.652980 0.000000 
#    z 0.000000 0.000000 1.661900 
# 
# From -- ./inp_files/56237.got.cif
#   From: 2010.05.17/outbox.cif.g08.bks.cpg/sg66_29_cif.got.tgz:56237.got - 2010.06.03 17:51:23.
