data_PCOD9499089
_publ_section_title
;
Structure prediction by ZEFSAII (Michael W. Deem and Ramdas Pophale) SiO2 
 PCOD9499089
Probable space group: C C C M
;
_chemical_formula_sum "Si O2"
_cell_formula_units_Z 64
_cell_length_a 9.793298
_cell_length_b 35.839320
_cell_length_c 10.002939
_cell_angle_alpha 90.000000
_cell_angle_beta 90.000000
_cell_angle_gamma 90.000000
_cell_volume 3510.882954
_symmetry_space_group_name_H-M "C C C M"
_symmetry_group_IT_number 66
_symmetry_cell_setting 'orthorhombic'
loop_
_space_group_symop_operation_xyz
x,y,z
-x,-y,z
x,-y,1/2-z
-x,y,1/2-z
-x,-y,-z
x,y,-z
-x,y,1/2+z
x,-y,1/2+z
1/2+x,1/2+y,z
1/2-x,1/2-y,z
1/2+x,1/2-y,1/2-z
1/2-x,1/2+y,1/2-z
1/2-x,1/2-y,-z
1/2+x,1/2+y,-z
1/2-x,1/2+y,1/2+z
1/2+x,1/2-y,1/2+z
loop_
_atom_site_type_symbol
_atom_site_label
_atom_site_fract_x
_atom_site_fract_y
_atom_site_fract_z
Si Si1 0.865758 0.218608 0.340065
Si Si2 0.401883 0.464032 0.500000
Si Si3 0.000000 0.591125 0.250000
Si Si4 0.500000 0.584164 0.250000
Si Si5 0.921706 0.460928 0.000000
Si Si6 0.242191 0.862994 0.342531
O O1 0.899823 0.217366 0.500000
O O2 0.750000 0.250000 0.321430
O O3 0.800132 0.178692 0.300926
O O4 0.000000 0.225236 0.250000
O O5 0.500000 0.500000 0.500000
O O6 0.437332 0.440810 0.367290
O O7 0.239492 0.470389 0.500000
O O8 0.035509 0.564051 0.126808
O O9 0.128266 0.618104 0.274188
O O10 0.384834 0.610250 0.313284
O O11 0.000000 0.500000 0.000000
O O12 0.270605 0.861717 0.500000
#
# Coordination Sequence:
#
# PCOD9499089 Si02
#       6
#    16   8   8   8   8  16
#     4  10  23  43  66  98 137 174 214 262 319 379
#     4  12  28  42  64  94 125 166 214 262 327 389
#     4  12  25  44  65  94 126 170 214 268 325 386
#     4  12  23  42  67  92 122 164 216 268 317 372
#     4  12  28  44  64  92 129 168 213 265 330 392
#     4  11  23  42  68  96 127 168 215 272 314 374
#
# _framework density 18.229033999999999
#
# number of rings (size 3 to 8) (size 9 to 14) (size 15 to 20)
#    0.000    0.750    6.250    0.750    5.250    2.500 
#    2.250    0.000    0.000    0.000    0.000    0.000 
#    0.000    0.000    0.000    0.000    0.000    0.000 
#
# Total GULP energy -178826.636554 kJ/mol
# GULP energy per Si atom -5588.332392 kJ/mol
# Density = 1.818754 g / cm^3
# Si number density = 18.229034 Si / 1000 Ang^3
#
#
#
# Elastic Constant Matrix: (Units=GPa)
#
#
# Indices 1 2 3 4 5 6 
#
# 1 169.1639 84.9553 55.0675 0.0000 0.0000 0.0000
# 2 84.9553 148.8368 57.3286 0.0000 0.0000 0.0000
# 3 55.0675 57.3286 103.2787 0.0000 0.0000 0.0000
# 4 0.0000 0.0000 0.0000 34.7288 0.0000 0.0000
# 5 0.0000 0.0000 0.0000 0.0000 30.9844 0.0000
# 6 0.0000 0.0000 0.0000 0.0000 0.0000 -32.5964
#
#
#
# Elastic Compliance Matrix: (Units=1/GPa)
#
#
# Indices 1 2 3 4 5 6 
#
# 1 0.008732 -0.004059 -0.002403 0.000000 0.000000 0.000000
# 2 -0.004059 0.010432 -0.003627 0.000000 0.000000 0.000000
# 3 -0.002403 -0.003627 0.012977 0.000000 0.000000 0.000000
# 4 0.000000 0.000000 0.000000 0.028795 0.000000 0.000000
# 5 0.000000 0.000000 0.000000 0.000000 0.032274 0.000000
# 6 0.000000 0.000000 0.000000 0.000000 0.000000 -0.030678
#
#
# Mechanical properties :
#
#
# Convention : Reuss Voigt Hill
#
# Bulk Modulus (GPa) = 83.58044 90.66470 87.12257
# Shear Modulus (GPa) = 57.67232 21.55190 39.61211
#
# Velocity S-wave (km/s) = 5.63083 3.44217 4.66663
# Velocity P-wave (km/s) = 9.39280 8.10200 8.77118
#
# Compressibility (1/GPa) = 0.01196452
#
# Stress axis : x y z
#
# Youngs Moduli (GPa) = 114.52279 95.85552 77.05956
#
# Poissons Ratio (x) = 0.38904 0.18517
# Poissons Ratio (y) = 0.46480 0.27948
# Poissons Ratio (z) = 0.27519 0.34765
#
# Static dielectric constant tensor:
#      x y z
#    x 1.610100 0.000000 0.000000 
#    y 0.000000 1.605670 0.000000 
#    z 0.000000 0.000000 1.613010 
# 
# From -- ./inp_files/13631.got.cif
#   From: 2010.05.17/outbox.cif.g08.bks.cpg/sg66_7_cif.got.tgz:13631.got - 2010.06.03 17:51:23.
