data_PCOD9499716
_publ_section_title
;
Structure prediction by ZEFSAII (Michael W. Deem and Ramdas Pophale) SiO2 
 PCOD9499716
Probable space group: C C C M
;
_chemical_formula_sum "Si O2"
_cell_formula_units_Z 68
_cell_length_a 8.906680
_cell_length_b 28.613425
_cell_length_c 14.154537
_cell_angle_alpha 90.000000
_cell_angle_beta 90.000000
_cell_angle_gamma 90.000000
_cell_volume 3607.292533
_symmetry_space_group_name_H-M "C C C M"
_symmetry_group_IT_number 66
_symmetry_cell_setting 'orthorhombic'
loop_
_space_group_symop_operation_xyz
x,y,z
-x,-y,z
x,-y,1/2-z
-x,y,1/2-z
-x,-y,-z
x,y,-z
-x,y,1/2+z
x,-y,1/2+z
1/2+x,1/2+y,z
1/2-x,1/2-y,z
1/2+x,1/2-y,1/2-z
1/2-x,1/2+y,1/2-z
1/2-x,1/2-y,-z
1/2+x,1/2+y,-z
1/2-x,1/2+y,1/2+z
1/2+x,1/2-y,1/2+z
loop_
_atom_site_type_symbol
_atom_site_label
_atom_site_fract_x
_atom_site_fract_y
_atom_site_fract_z
Si Si1 0.146107 0.455919 0.311853
Si Si2 0.627962 0.686864 0.500000
Si Si3 0.848216 0.134340 0.193613
Si Si4 0.982804 0.709116 0.500000
Si Si5 0.500000 0.000000 0.000000
Si Si6 0.857101 0.293585 0.311016
O O1 0.205914 0.500000 0.250000
O O2 0.260527 0.413739 0.320678
O O3 0.093827 0.472701 0.414887
O O4 0.000000 0.440444 0.250000
O O5 0.604653 0.658463 0.404414
O O6 0.807238 0.696878 0.500000
O O7 0.528161 0.734066 0.500000
O O8 0.737310 0.168650 0.252304
O O9 0.000000 0.126332 0.250000
O O10 0.069566 0.690189 0.408871
O O11 0.750000 0.250000 0.329917
O O12 0.000000 0.277336 0.250000
#
# Coordination Sequence:
#
# PCOD9499716 Si02
#       6
#    16   8  16   8   4  16
#     4   9  20  40  66  96 123 160 211 258 320 387
#     4  11  23  42  62  91 126 172 219 258 323 389
#     4  12  25  41  64  94 134 172 213 265 326 384
#     4  11  23  40  61  89 125 170 224 267 318 383
#     4   8  16  40  70  92 122 158 200 266 318 376
#     4  12  23  39  61  90 127 175 220 275 326 380
#
# _framework density 18.850701999999998
#
# number of rings (size 3 to 8) (size 9 to 14) (size 15 to 20)
#    0.000    1.412    2.353    5.294    0.000    1.412 
#    0.000    4.706    0.000    7.059    0.000    0.000 
#    0.000    0.000    0.000    0.000    0.000    0.000 
#
# Total GULP energy -189383.880264 kJ/mol
# GULP energy per Si atom -5570.114125 kJ/mol
# Density = 1.880780 g / cm^3
# Si number density = 18.850702 Si / 1000 Ang^3
#
#
#
# Elastic Constant Matrix: (Units=GPa)
#
#
# Indices 1 2 3 4 5 6 
#
# 1 68.6780 26.3871 28.3295 0.0000 0.0000 0.0000
# 2 26.3871 72.6602 28.0050 0.0000 0.0000 0.0000
# 3 28.3295 28.0050 173.1216 0.0000 0.0000 0.0000
# 4 0.0000 0.0000 0.0000 3.0674 0.0000 0.0000
# 5 0.0000 0.0000 0.0000 0.0000 32.3263 0.0000
# 6 0.0000 0.0000 0.0000 0.0000 0.0000 35.5552
#
#
#
# Elastic Compliance Matrix: (Units=1/GPa)
#
#
# Indices 1 2 3 4 5 6 
#
# 1 0.017524 -0.005608 -0.001960 0.000000 0.000000 0.000000
# 2 -0.005608 0.016473 -0.001747 0.000000 0.000000 0.000000
# 3 -0.001960 -0.001747 0.006380 0.000000 0.000000 0.000000
# 4 0.000000 0.000000 0.000000 0.326008 0.000000 0.000000
# 5 0.000000 0.000000 0.000000 0.000000 0.030935 0.000000
# 6 0.000000 0.000000 0.000000 0.000000 0.000000 0.028125
#
#
# Mechanical properties :
#
#
# Convention : Reuss Voigt Hill
#
# Bulk Modulus (GPa) = 45.98752 53.32256 49.65504
# Shear Modulus (GPa) = 11.07850 29.63900 20.35875
#
# Velocity S-wave (km/s) = 2.42688 3.96953 3.28990
# Velocity P-wave (km/s) = 5.68345 7.02551 6.38981
#
# Compressibility (1/GPa) = 0.02174503
#
# Stress axis : x y z
#
# Youngs Moduli (GPa) = 57.06393 60.70629 156.74762
#
# Poissons Ratio (x) = 0.34047 0.30729
# Poissons Ratio (y) = 0.32004 0.27383
# Poissons Ratio (z) = 0.11187 0.10605
#
# Static dielectric constant tensor:
#      x y z
#    x 1.633650 0.000000 0.000000 
#    y 0.000000 1.656420 0.000000 
#    z 0.000000 0.000000 1.669000 
# 
# From -- ./inp_files/24424.got.cif
#   From: 2010.05.17/outbox.cif.g08.bks.cpg/sg66_13_cif.got.tgz:24424.got - 2010.06.03 17:51:23.
