data_PCOD9499909
_publ_section_title
;
Structure prediction by ZEFSAII (Michael W. Deem and Ramdas Pophale) SiO2 
 PCOD9499909
Probable space group: C C C M
;
_chemical_formula_sum "Si O2"
_cell_formula_units_Z 64
_cell_length_a 15.865237
_cell_length_b 9.484287
_cell_length_c 17.373989
_cell_angle_alpha 90.000000
_cell_angle_beta 90.000000
_cell_angle_gamma 90.000000
_cell_volume 2614.272135
_symmetry_space_group_name_H-M "C C C M"
_symmetry_group_IT_number 66
_symmetry_cell_setting 'orthorhombic'
loop_
_space_group_symop_operation_xyz
x,y,z
-x,-y,z
x,-y,1/2-z
-x,y,1/2-z
-x,-y,-z
x,y,-z
-x,y,1/2+z
x,-y,1/2+z
1/2+x,1/2+y,z
1/2-x,1/2-y,z
1/2+x,1/2-y,1/2-z
1/2-x,1/2+y,1/2-z
1/2-x,1/2-y,-z
1/2+x,1/2+y,-z
1/2-x,1/2+y,1/2+z
1/2+x,1/2-y,1/2+z
loop_
_atom_site_type_symbol
_atom_site_label
_atom_site_fract_x
_atom_site_fract_y
_atom_site_fract_z
Si Si1 0.156738 0.531813 0.411553
Si Si2 0.682517 0.559038 0.329134
Si Si3 0.559222 0.809224 0.675181
Si Si4 0.586025 0.670900 0.088161
O O1 0.132432 0.503791 0.500000
O O2 0.247079 0.463461 0.393836
O O3 0.092327 0.459396 0.352893
O O4 0.151898 0.700004 0.401303
O O5 0.720264 0.500000 0.250000
O O6 0.641893 0.710994 0.315743
O O7 0.607446 0.454084 0.354088
O O8 0.500000 0.808588 0.750000
O O9 0.503505 0.739139 0.607919
O O10 0.589607 0.622867 0.000000
#
# Coordination Sequence:
#
# PCOD9499909 Si02
#       4
#    16  16  16  16
#     4  11  27  48  73 107 143 187 241 291 354 425
#     4  12  26  45  71 105 146 186 238 294 352 423
#     4  12  26  45  70 107 144 189 239 293 350 420
#     4  11  25  46  74 104 143 188 234 290 355 422
#
# _framework density 24.481003000000001
#
# number of rings (size 3 to 8) (size 9 to 14) (size 15 to 20)
#    0.000    0.500    2.500    4.500    3.500   13.000 
#    0.000    0.000    0.000    0.000    0.000    0.000 
#    0.000    0.000    0.000    0.000    0.000    0.000 
#
# Total GULP energy -179390.675792 kJ/mol
# GULP energy per Si atom -5605.958618 kJ/mol
# Density = 2.442528 g / cm^3
# Si number density = 24.481003 Si / 1000 Ang^3
#
#
#
# Elastic Constant Matrix: (Units=GPa)
#
#
# Indices 1 2 3 4 5 6 
#
# 1 75.6778 -2.9175 -8.1336 0.0000 0.0000 0.0000
# 2 -2.9175 79.9809 28.6889 0.0000 0.0000 0.0000
# 3 -8.1336 28.6889 97.9799 0.0000 0.0000 0.0000
# 4 0.0000 0.0000 0.0000 26.3633 0.0000 0.0000
# 5 0.0000 0.0000 0.0000 0.0000 45.2784 0.0000
# 6 0.0000 0.0000 0.0000 0.0000 0.0000 31.5969
#
#
#
# Elastic Compliance Matrix: (Units=1/GPa)
#
#
# Indices 1 2 3 4 5 6 
#
# 1 0.013334 0.000100 0.001078 0.000000 0.000000 0.000000
# 2 0.000100 0.013971 -0.004082 0.000000 0.000000 0.000000
# 3 0.001078 -0.004082 0.011491 0.000000 0.000000 0.000000
# 4 0.000000 0.000000 0.000000 0.037932 0.000000 0.000000
# 5 0.000000 0.000000 0.000000 0.000000 0.022086 0.000000
# 6 0.000000 0.000000 0.000000 0.000000 0.000000 0.031649
#
#
# Mechanical properties :
#
#
# Convention : Reuss Voigt Hill
#
# Bulk Modulus (GPa) = 30.31629 32.10156 31.20893
# Shear Modulus (GPa) = 33.95204 36.38111 35.16657
#
# Velocity S-wave (km/s) = 3.72811 3.85917 3.79421
# Velocity P-wave (km/s) = 5.56258 5.74447 5.65426
#
# Compressibility (1/GPa) = 0.03298556
#
# Stress axis : x y z
#
# Youngs Moduli (GPa) = 74.99859 71.57685 87.02467
#
# Poissons Ratio (x) = -0.00715 -0.09378
# Poissons Ratio (y) = -0.00749 0.35528
# Poissons Ratio (z) = -0.08082 0.29221
#
# Static dielectric constant tensor:
#      x y z
#    x 1.966230 0.000000 0.000000 
#    y 0.000000 1.948110 0.000000 
#    z 0.000000 0.000000 1.853310 
# 
# From -- ./inp_files/39797.got.cif
#   From: 2010.05.17/outbox.cif.g08.bks.cpg/sg66_20_cif.got.tgz:39797.got - 2010.06.03 17:51:23.
