data_PCOD9499855
_publ_section_title
;
Structure prediction by ZEFSAII (Michael W. Deem and Ramdas Pophale) SiO2 
 PCOD9499855
Probable space group: C C C M
;
_chemical_formula_sum "Si O2"
_cell_formula_units_Z 68
_cell_length_a 17.931104
_cell_length_b 10.606728
_cell_length_c 15.131303
_cell_angle_alpha 90.000000
_cell_angle_beta 90.000000
_cell_angle_gamma 90.000000
_cell_volume 2877.827706
_symmetry_space_group_name_H-M "C C C M"
_symmetry_group_IT_number 66
_symmetry_cell_setting 'orthorhombic'
loop_
_space_group_symop_operation_xyz
x,y,z
-x,-y,z
x,-y,1/2-z
-x,y,1/2-z
-x,-y,-z
x,y,-z
-x,y,1/2+z
x,-y,1/2+z
1/2+x,1/2+y,z
1/2-x,1/2-y,z
1/2+x,1/2-y,1/2-z
1/2-x,1/2+y,1/2-z
1/2-x,1/2-y,-z
1/2+x,1/2+y,-z
1/2-x,1/2+y,1/2+z
1/2+x,1/2-y,1/2+z
loop_
_atom_site_type_symbol
_atom_site_label
_atom_site_fract_x
_atom_site_fract_y
_atom_site_fract_z
Si Si1 0.885706 0.952523 0.345585
Si Si2 0.424574 0.817945 0.896832
Si Si3 0.789893 0.536861 0.349935
Si Si4 0.566005 0.611930 0.000000
Si Si5 0.675277 0.165385 0.500000
Si Si6 0.500000 0.000000 0.750000
O O1 0.932329 0.830043 0.375749
O O2 0.908308 0.000000 0.250000
O O3 0.796997 0.930107 0.348196
O O4 0.894819 0.067757 0.411198
O O5 0.461659 0.904533 0.821435
O O6 0.337602 0.847625 0.885443
O O7 0.444526 0.841211 0.000000
O O8 0.810493 0.500000 0.250000
O O9 0.814751 0.423010 0.413997
O O10 0.500000 0.500000 0.000000
O O11 0.595870 0.759850 0.000000
O O12 0.750000 0.250000 0.500000
#
# Coordination Sequence:
#
# PCOD9499855 Si02
#       6
#    16  16  16   8   8   4
#     4  11  26  47  74 110 153 196 253 326 402 472
#     4  12  26  48  77 109 150 201 262 326 394 481
#     4  11  24  44  76 115 145 196 258 326 395 461
#     4  12  28  47  71 113 151 203 256 320 405 489
#     4  12  24  45  79 107 153 199 262 321 396 483
#     4  12  30  52  74 110 160 212 260 314 420 494
#
# _framework density 23.628934000000001
#
# number of rings (size 3 to 8) (size 9 to 14) (size 15 to 20)
#    0.000    0.471    5.882    1.059    3.294    5.176 
#    0.000    0.000    0.000    0.000    0.000    0.000 
#    0.000    0.000    0.000    0.000    0.000    0.000 
#
# Total GULP energy -189642.669603 kJ/mol
# GULP energy per Si atom -5577.725577 kJ/mol
# Density = 2.357515 g / cm^3
# Si number density = 23.628934 Si / 1000 Ang^3
#
#
#
# Elastic Constant Matrix: (Units=GPa)
#
#
# Indices 1 2 3 4 5 6 
#
# 1 80.8373 32.3238 35.8975 0.0000 0.0000 0.0000
# 2 32.3238 129.9541 61.2869 0.0000 0.0000 0.0000
# 3 35.8975 61.2869 225.5314 0.0000 0.0000 0.0000
# 4 0.0000 0.0000 0.0000 5.1766 0.0000 0.0000
# 5 0.0000 0.0000 0.0000 0.0000 49.1271 0.0000
# 6 0.0000 0.0000 0.0000 0.0000 0.0000 29.5580
#
#
#
# Elastic Compliance Matrix: (Units=1/GPa)
#
#
# Indices 1 2 3 4 5 6 
#
# 1 0.014159 -0.002820 -0.001487 0.000000 0.000000 0.000000
# 2 -0.002820 0.009388 -0.002102 0.000000 0.000000 0.000000
# 3 -0.001487 -0.002102 0.005242 0.000000 0.000000 0.000000
# 4 0.000000 0.000000 0.000000 0.193176 0.000000 0.000000
# 5 0.000000 0.000000 0.000000 0.000000 0.020355 0.000000
# 6 0.000000 0.000000 0.000000 0.000000 0.000000 0.033832
#
#
# Mechanical properties :
#
#
# Convention : Reuss Voigt Hill
#
# Bulk Modulus (GPa) = 62.62107 77.25990 69.94049
# Shear Modulus (GPa) = 16.98982 37.22665 27.10823
#
# Velocity S-wave (km/s) = 2.68437 3.97352 3.39078
# Velocity P-wave (km/s) = 6.01392 7.33621 6.70773
#
# Compressibility (1/GPa) = 0.01596907
#
# Stress axis : x y z
#
# Youngs Moduli (GPa) = 70.62794 106.51959 190.76864
#
# Poissons Ratio (x) = 0.30042 0.28371
# Poissons Ratio (y) = 0.19920 0.40104
# Poissons Ratio (z) = 0.10504 0.22393
#
# Static dielectric constant tensor:
#      x y z
#    x 1.983230 0.000000 0.000000 
#    y 0.000000 1.892880 0.000000 
#    z 0.000000 0.000000 1.820400 
# 
# From -- ./inp_files/30906.got.cif
#   From: 2010.05.17/outbox.cif.g08.bks.cpg/sg66_16_cif.got.tgz:30906.got - 2010.06.03 17:51:23.
