data_PCOD9499786
_publ_section_title
;
Structure prediction by ZEFSAII (Michael W. Deem and Ramdas Pophale) SiO2 
 PCOD9499786
Probable space group: C C C M
;
_chemical_formula_sum "Si O2"
_cell_formula_units_Z 88
_cell_length_a 32.353910
_cell_length_b 11.104885
_cell_length_c 14.189628
_cell_angle_alpha 90.000000
_cell_angle_beta 90.000000
_cell_angle_gamma 90.000000
_cell_volume 5098.141069
_symmetry_space_group_name_H-M "C C C M"
_symmetry_group_IT_number 66
_symmetry_cell_setting 'orthorhombic'
loop_
_space_group_symop_operation_xyz
x,y,z
-x,-y,z
x,-y,1/2-z
-x,y,1/2-z
-x,-y,-z
x,y,-z
-x,y,1/2+z
x,-y,1/2+z
1/2+x,1/2+y,z
1/2-x,1/2-y,z
1/2+x,1/2-y,1/2-z
1/2-x,1/2+y,1/2-z
1/2-x,1/2-y,-z
1/2+x,1/2+y,-z
1/2-x,1/2+y,1/2+z
1/2+x,1/2-y,1/2+z
loop_
_atom_site_type_symbol
_atom_site_label
_atom_site_fract_x
_atom_site_fract_y
_atom_site_fract_z
Si Si1 0.079181 0.123352 0.500000
Si Si2 0.413903 0.202722 0.158286
Si Si3 0.455808 0.060304 0.000000
Si Si4 0.164531 0.464274 0.151896
Si Si5 0.877261 0.379874 0.000000
Si Si6 0.202741 0.712402 0.500000
Si Si7 0.045898 0.875645 0.206042
Si Si8 0.375641 0.628322 0.500000
O O1 0.106513 0.244583 0.500000
O O2 0.050850 0.119403 0.406162
O O3 0.110259 0.009378 0.500000
O O4 0.377653 0.107811 0.175182
O O5 0.430018 0.261381 0.253217
O O6 0.395601 0.306752 0.090926
O O7 0.448777 0.139995 0.093716
O O8 0.500000 0.000000 0.000000
O O9 0.418140 0.964796 0.000000
O O10 0.184875 0.500000 0.250000
O O11 0.150100 0.577948 0.089350
O O12 0.190845 0.372514 0.088497
O O13 0.250000 0.750000 0.500000
O O14 0.172020 0.828112 0.500000
O O15 0.000000 0.866885 0.250000
O O16 0.063253 0.000000 0.250000
#
# Coordination Sequence:
#
# PCOD9499786 Si02
#       8
#     8  16   8  16   8   8  16   8
#     4  12  22  36  58  75 116 140 206 238 272 346
#     4   9  18  36  53  78 111 143 193 230 281 338
#     4   9  19  32  55  79 108 145 193 247 290 321
#     4   9  17  35  61  81 115 151 182 221 279 342
#     4   9  20  32  53  89 104 149 190 234 280 327
#     4   9  19  36  66  92 112 141 184 222 278 343
#     4  11  24  35  50  78 107 152 193 238 294 321
#     4   9  18  35  61  81 103 150 176 228 269 334
#
# _framework density 17.261192999999999
#
# number of rings (size 3 to 8) (size 9 to 14) (size 15 to 20)
#    0.000    2.364    1.818    3.273    2.545    2.182 
#    0.000    0.000   12.000    1.091    0.000    0.000 
#    0.000    0.000    0.000    0.000    0.000    0.000 
#
# Total GULP energy -245330.920685 kJ/mol
# GULP energy per Si atom -5575.702743 kJ/mol
# Density = 1.722191 g / cm^3
# Si number density = 17.261193 Si / 1000 Ang^3
#
#
#
# Elastic Constant Matrix: (Units=GPa)
#
#
# Indices 1 2 3 4 5 6 
#
# 1 91.3306 30.3478 43.1249 0.0000 0.0000 0.0000
# 2 30.3478 96.7268 43.2061 0.0000 0.0000 0.0000
# 3 43.1249 43.2061 143.1881 0.0000 0.0000 0.0000
# 4 0.0000 0.0000 0.0000 12.5259 0.0000 0.0000
# 5 0.0000 0.0000 0.0000 0.0000 4.9334 0.0000
# 6 0.0000 0.0000 0.0000 0.0000 0.0000 13.4077
#
#
#
# Elastic Compliance Matrix: (Units=1/GPa)
#
#
# Indices 1 2 3 4 5 6 
#
# 1 0.013378 -0.002771 -0.003193 0.000000 0.000000 0.000000
# 2 -0.002771 0.012523 -0.002944 0.000000 0.000000 0.000000
# 3 -0.003193 -0.002944 0.008834 0.000000 0.000000 0.000000
# 4 0.000000 0.000000 0.000000 0.079835 0.000000 0.000000
# 5 0.000000 0.000000 0.000000 0.000000 0.202698 0.000000
# 6 0.000000 0.000000 0.000000 0.000000 0.000000 0.074584
#
#
# Mechanical properties :
#
#
# Convention : Reuss Voigt Hill
#
# Bulk Modulus (GPa) = 59.10770 62.73369 60.92069
# Shear Modulus (GPa) = 12.03930 20.47785 16.25857
#
# Velocity S-wave (km/s) = 2.64385 3.44808 3.07239
# Velocity P-wave (km/s) = 6.60586 7.23015 6.92504
#
# Compressibility (1/GPa) = 0.01691827
#
# Stress axis : x y z
#
# Youngs Moduli (GPa) = 74.75162 79.85381 113.20126
#
# Poissons Ratio (x) = 0.22127 0.36144
# Poissons Ratio (y) = 0.20714 0.33328
# Poissons Ratio (z) = 0.23867 0.23510
#
# Static dielectric constant tensor:
#      x y z
#    x 1.556870 0.000000 0.000000 
#    y 0.000000 1.605300 0.000000 
#    z 0.000000 0.000000 1.616720 
# 
# From -- ./inp_files/33729.got.cif
#   From: 2010.05.17/outbox.cif.g08.bks.cpg/sg66_17_cif.got.tgz:33729.got - 2010.06.03 17:51:23.
