data_PCOD9499949
_publ_section_title
;
Structure prediction by ZEFSAII (Michael W. Deem and Ramdas Pophale) SiO2 
 PCOD9499949
Probable space group: C C C M
;
_chemical_formula_sum "Si O2"
_cell_formula_units_Z 64
_cell_length_a 21.934281
_cell_length_b 5.048812
_cell_length_c 23.201814
_cell_angle_alpha 90.000000
_cell_angle_beta 90.000000
_cell_angle_gamma 90.000000
_cell_volume 2569.416704
_symmetry_space_group_name_H-M "C C C M"
_symmetry_group_IT_number 66
_symmetry_cell_setting 'orthorhombic'
loop_
_space_group_symop_operation_xyz
x,y,z
-x,-y,z
x,-y,1/2-z
-x,y,1/2-z
-x,-y,-z
x,y,-z
-x,y,1/2+z
x,-y,1/2+z
1/2+x,1/2+y,z
1/2-x,1/2-y,z
1/2+x,1/2-y,1/2-z
1/2-x,1/2+y,1/2-z
1/2-x,1/2-y,-z
1/2+x,1/2+y,-z
1/2-x,1/2+y,1/2+z
1/2+x,1/2-y,1/2+z
loop_
_atom_site_type_symbol
_atom_site_label
_atom_site_fract_x
_atom_site_fract_y
_atom_site_fract_z
Si Si1 0.694027 0.593172 0.311902
Si Si2 0.602280 0.416842 0.500000
Si Si3 0.103309 0.500000 0.250000
Si Si4 0.750000 0.750000 0.900259
Si Si5 0.314616 0.069861 0.500000
Si Si6 0.000000 0.500000 0.667710
Si Si7 0.000000 0.000000 0.406394
O O1 0.717973 0.500000 0.250000
O O2 0.750000 0.750000 0.338330
O O3 0.694324 0.351123 0.357781
O O4 0.640870 0.788031 0.288535
O O5 0.628215 0.124484 0.500000
O O6 0.558335 0.442630 0.445561
O O7 0.656485 0.636019 0.500000
O O8 0.055351 0.622894 0.294834
O O9 0.723226 0.972140 0.943937
O O10 0.019711 0.253974 0.629905
#
# Coordination Sequence:
#
# PCOD9499949 Si02
#       7
#    16   8   8   8   8   8   8
#     4  12  24  46  70 110 155 208 253 319 390 487
#     4  11  26  49  78 111 149 201 264 325 397 463
#     4  11  28  46  76 112 162 197 270 316 400 481
#     4  11  28  46  76 114 164 203 274 318 406 479
#     4  11  28  49  78 115 157 210 267 338 390 475
#     4  11  28  49  78 116 152 207 260 333 392 472
#     4  11  26  49  78 112 148 199 266 323 398 468
#
# _framework density 24.908377999999999
#
# number of rings (size 3 to 8) (size 9 to 14) (size 15 to 20)
#    0.000    0.750    2.500    1.500   10.500    8.000 
#    0.000    0.000    0.000    0.000    0.000    0.000 
#    0.000    0.000    0.000    0.000    0.000    0.000 
#
# Total GULP energy -178584.145385 kJ/mol
# GULP energy per Si atom -5580.754543 kJ/mol
# Density = 2.485169 g / cm^3
# Si number density = 24.908378 Si / 1000 Ang^3
#
#
#
# Elastic Constant Matrix: (Units=GPa)
#
#
# Indices 1 2 3 4 5 6 
#
# 1 119.2276 27.6258 48.0150 0.0000 0.0000 0.0000
# 2 27.6258 66.6095 20.2287 0.0000 0.0000 0.0000
# 3 48.0150 20.2287 150.6775 0.0000 0.0000 0.0000
# 4 0.0000 0.0000 0.0000 25.3331 0.0000 0.0000
# 5 0.0000 0.0000 0.0000 0.0000 16.1448 0.0000
# 6 0.0000 0.0000 0.0000 0.0000 0.0000 49.7075
#
#
#
# Elastic Compliance Matrix: (Units=1/GPa)
#
#
# Indices 1 2 3 4 5 6 
#
# 1 0.010319 -0.003421 -0.002829 0.000000 0.000000 0.000000
# 2 -0.003421 0.016785 -0.001163 0.000000 0.000000 0.000000
# 3 -0.002829 -0.001163 0.007694 0.000000 0.000000 0.000000
# 4 0.000000 0.000000 0.000000 0.039474 0.000000 0.000000
# 5 0.000000 0.000000 0.000000 0.000000 0.061939 0.000000
# 6 0.000000 0.000000 0.000000 0.000000 0.000000 0.020118
#
#
# Mechanical properties :
#
#
# Convention : Reuss Voigt Hill
#
# Bulk Modulus (GPa) = 50.06946 58.69484 54.38215
# Shear Modulus (GPa) = 28.11936 34.28008 31.19972
#
# Velocity S-wave (km/s) = 3.36357 3.71380 3.54302
# Velocity P-wave (km/s) = 5.93548 6.48115 6.21430
#
# Compressibility (1/GPa) = 0.01997226
#
# Stress axis : x y z
#
# Youngs Moduli (GPa) = 96.90643 59.57744 129.96460
#
# Poissons Ratio (x) = 0.20379 0.36768
# Poissons Ratio (y) = 0.33148 0.15120
# Poissons Ratio (z) = 0.27416 0.06931
#
# Static dielectric constant tensor:
#      x y z
#    x 2.068940 0.000000 0.000000 
#    y 0.000000 2.190600 0.000000 
#    z 0.000000 0.000000 1.953170 
# 
# From -- ./inp_files/59757.got.cif
#   From: 2010.05.17/outbox.cif.g08.bks.cpg/sg66_30_cif.got.tgz:59757.got - 2010.06.03 17:51:23.
