data_PCOD9499276
_publ_section_title
;
Structure prediction by ZEFSAII (Michael W. Deem and Ramdas Pophale) SiO2 
 PCOD9499276
Probable space group: C C C M
;
_chemical_formula_sum "Si O2"
_cell_formula_units_Z 64
_cell_length_a 11.538737
_cell_length_b 8.258388
_cell_length_c 27.634620
_cell_angle_alpha 90.000000
_cell_angle_beta 90.000000
_cell_angle_gamma 90.000000
_cell_volume 2633.340721
_symmetry_space_group_name_H-M "C C C M"
_symmetry_group_IT_number 66
_symmetry_cell_setting 'orthorhombic'
loop_
_space_group_symop_operation_xyz
x,y,z
-x,-y,z
x,-y,1/2-z
-x,y,1/2-z
-x,-y,-z
x,y,-z
-x,y,1/2+z
x,-y,1/2+z
1/2+x,1/2+y,z
1/2-x,1/2-y,z
1/2+x,1/2-y,1/2-z
1/2-x,1/2+y,1/2-z
1/2-x,1/2-y,-z
1/2+x,1/2+y,-z
1/2-x,1/2+y,1/2+z
1/2+x,1/2-y,1/2+z
loop_
_atom_site_type_symbol
_atom_site_label
_atom_site_fract_x
_atom_site_fract_y
_atom_site_fract_z
Si Si1 0.854080 0.828373 0.276321
Si Si2 0.372528 0.704230 0.583792
Si Si3 0.369971 0.343793 0.556970
Si Si4 0.937864 0.672104 0.816541
O O1 0.750000 0.750000 0.305973
O O2 0.867890 0.696657 0.232838
O O3 0.965493 0.811472 0.309749
O O4 0.845296 0.000000 0.250000
O O5 0.250000 0.750000 0.558347
O O6 0.370154 0.510087 0.586793
O O7 0.503558 0.741401 0.564107
O O8 0.369810 0.795160 0.635024
O O9 0.366168 0.388811 0.500000
O O10 0.250000 0.250000 0.567315
O O11 0.000000 0.500000 0.817836
#
# Coordination Sequence:
#
# PCOD9499276 Si02
#       4
#    16  16  16  16
#     4  11  23  41  66  94 131 189 236 289 347 413
#     4  11  25  42  71 105 143 182 233 293 353 417
#     4  10  25  48  74 103 141 184 232 291 360 440
#     4  11  24  41  62  94 139 180 238 290 343 412
#
# _framework density 24.303730000000002
#
# number of rings (size 3 to 8) (size 9 to 14) (size 15 to 20)
#    0.000    1.250    0.000    6.750   10.500    3.000 
#    0.000    2.500    0.000    0.000    0.000    0.000 
#    0.000    0.000    0.000    0.000    0.000    0.000 
#
# Total GULP energy -178630.943935 kJ/mol
# GULP energy per Si atom -5582.216998 kJ/mol
# Density = 2.424841 g / cm^3
# Si number density = 24.303730 Si / 1000 Ang^3
#
#
#
# Elastic Constant Matrix: (Units=GPa)
#
#
# Indices 1 2 3 4 5 6 
#
# 1 210.4132 51.7409 -1.7893 0.0000 0.0000 0.0000
# 2 51.7409 125.8850 22.5289 0.0000 0.0000 0.0000
# 3 -1.7893 22.5289 66.3303 0.0000 0.0000 0.0000
# 4 0.0000 0.0000 0.0000 13.1043 0.0000 0.0000
# 5 0.0000 0.0000 0.0000 0.0000 -5.1814 0.0000
# 6 0.0000 0.0000 0.0000 0.0000 0.0000 47.0188
#
#
#
# Elastic Compliance Matrix: (Units=1/GPa)
#
#
# Indices 1 2 3 4 5 6 
#
# 1 0.005342 -0.002365 0.000947 0.000000 0.000000 0.000000
# 2 -0.002365 0.009505 -0.003292 0.000000 0.000000 0.000000
# 3 0.000947 -0.003292 0.016220 0.000000 0.000000 0.000000
# 4 0.000000 0.000000 0.000000 0.076311 0.000000 0.000000
# 5 0.000000 0.000000 0.000000 0.000000 -0.192999 0.000000
# 6 0.000000 0.000000 0.000000 0.000000 0.000000 0.021268
#
#
# Mechanical properties :
#
#
# Convention : Reuss Voigt Hill
#
# Bulk Modulus (GPa) = 46.19548 60.84325 53.51936
# Shear Modulus (GPa) = -104.78353 32.99822 -35.89265
#
# Velocity S-wave (km/s) = -6.57326 3.68875 -3.84713
# Velocity P-wave (km/s) = 6.20979 6.57506 1.52805
#
# Compressibility (1/GPa) = 0.02164714
#
# Stress axis : x y z
#
# Youngs Moduli (GPa) = 187.18719 105.20637 61.65296
#
# Poissons Ratio (x) = 0.24885 -0.05842
# Poissons Ratio (y) = 0.44276 0.20297
# Poissons Ratio (z) = -0.17736 0.34636
#
# Static dielectric constant tensor:
#      x y z
#    x 2.202420 0.000000 0.000000 
#    y 0.000000 1.890470 0.000000 
#    z 0.000000 0.000000 1.896240 
# 
# From -- ./inp_files/68584.got.cif
#   From: 2010.05.17/outbox.cif.g08.bks.cpg/sg66_35_cif.got.tgz:68584.got - 2010.06.03 17:51:23.
