data_PCOD9499585
_publ_section_title
;
Structure prediction by ZEFSAII (Michael W. Deem and Ramdas Pophale) SiO2 
 PCOD9499585
Probable space group: C C C M
;
_chemical_formula_sum "Si O2"
_cell_formula_units_Z 96
_cell_length_a 23.307097
_cell_length_b 9.141716
_cell_length_c 22.294262
_cell_angle_alpha 90.000000
_cell_angle_beta 90.000000
_cell_angle_gamma 90.000000
_cell_volume 4750.168435
_symmetry_space_group_name_H-M "C C C M"
_symmetry_group_IT_number 66
_symmetry_cell_setting 'orthorhombic'
loop_
_space_group_symop_operation_xyz
x,y,z
-x,-y,z
x,-y,1/2-z
-x,y,1/2-z
-x,-y,-z
x,y,-z
-x,y,1/2+z
x,-y,1/2+z
1/2+x,1/2+y,z
1/2-x,1/2-y,z
1/2+x,1/2-y,1/2-z
1/2-x,1/2+y,1/2-z
1/2-x,1/2-y,-z
1/2+x,1/2+y,-z
1/2-x,1/2+y,1/2+z
1/2+x,1/2-y,1/2+z
loop_
_atom_site_type_symbol
_atom_site_label
_atom_site_fract_x
_atom_site_fract_y
_atom_site_fract_z
Si Si1 0.358424 0.081358 0.312206
Si Si2 0.603523 0.511640 0.870666
Si Si3 0.033001 0.218892 0.307869
Si Si4 0.934950 0.347254 0.377669
Si Si5 0.250000 0.750000 0.797048
Si Si6 0.982355 0.253446 0.500000
Si Si7 0.177087 0.000000 0.750000
Si Si8 0.090553 0.052949 0.500000
O O1 0.407172 0.200313 0.295474
O O2 0.299560 0.160604 0.332527
O O3 0.345023 0.000000 0.250000
O O4 0.389075 0.969338 0.358370
O O5 0.549364 0.406622 0.855316
O O6 0.591026 0.683544 0.873684
O O7 0.641920 0.497515 0.811542
O O8 0.623594 0.456420 0.936344
O O9 0.000000 0.159270 0.250000
O O10 0.988843 0.337847 0.333107
O O11 0.963054 0.347841 0.443076
O O12 0.216108 0.858718 0.754155
O O13 0.047682 0.193004 0.500000
O O14 0.947053 0.098291 0.500000
#
# Coordination Sequence:
#
# PCOD9499585 Si02
#       8
#    16  16  16  16   8   8   8   8
#     4  12  24  43  59  89 128 169 211 277 344 390
#     4  11  22  39  63 100 127 172 214 264 330 397
#     4  12  22  36  58  96 137 167 206 265 335 404
#     4  11  22  37  63  93 133 167 212 262 325 408
#     4  12  26  44  66  88 124 174 226 290 342 402
#     4   9  18  36  58  91 128 186 210 245 316 402
#     4  12  24  42  67  96 121 168 228 284 340 394
#     4   9  18  36  61  89 140 170 212 263 319 400
#
# _framework density 20.209809
#
# number of rings (size 3 to 8) (size 9 to 14) (size 15 to 20)
#    0.000    0.833    5.833    3.000    0.000    0.667 
#    0.000    2.500    0.000    2.500    0.000    0.000 
#    0.000    0.000    0.000    0.000    0.000    0.000 
#
# Total GULP energy -267818.057812 kJ/mol
# GULP energy per Si atom -5579.542871 kJ/mol
# Density = 2.016381 g / cm^3
# Si number density = 20.209809 Si / 1000 Ang^3
#
#
#
# Elastic Constant Matrix: (Units=GPa)
#
#
# Indices 1 2 3 4 5 6 
#
# 1 113.1994 52.0991 50.2973 0.0000 0.0000 0.0000
# 2 52.0991 115.8997 39.2165 0.0000 0.0000 0.0000
# 3 50.2973 39.2165 137.6594 0.0000 0.0000 0.0000
# 4 0.0000 0.0000 0.0000 3.4962 0.0000 0.0000
# 5 0.0000 0.0000 0.0000 0.0000 -23.3869 0.0000
# 6 0.0000 0.0000 0.0000 0.0000 0.0000 48.3892
#
#
#
# Elastic Compliance Matrix: (Units=1/GPa)
#
#
# Indices 1 2 3 4 5 6 
#
# 1 0.012315 -0.004442 -0.003234 0.000000 0.000000 0.000000
# 2 -0.004442 0.011150 -0.001554 0.000000 0.000000 0.000000
# 3 -0.003234 -0.001554 0.008889 0.000000 0.000000 0.000000
# 4 0.000000 0.000000 0.000000 0.286024 0.000000 0.000000
# 5 0.000000 0.000000 0.000000 0.000000 -0.042759 0.000000
# 6 0.000000 0.000000 0.000000 0.000000 0.000000 0.020666
#
#
# Mechanical properties :
#
#
# Convention : Reuss Voigt Hill
#
# Bulk Modulus (GPa) = 71.96775 72.22049 72.09412
# Shear Modulus (GPa) = 15.65550 20.70940 18.18245
#
# Velocity S-wave (km/s) = 2.78627 3.20460 3.00273
# Velocity P-wave (km/s) = 6.78518 7.03602 6.91174
#
# Compressibility (1/GPa) = 0.01389511
#
# Stress axis : x y z
#
# Youngs Moduli (GPa) = 81.20003 89.68263 112.50248
#
# Poissons Ratio (x) = 0.39833 0.36388
# Poissons Ratio (y) = 0.36065 0.17480
# Poissons Ratio (z) = 0.26263 0.13934
#
# Static dielectric constant tensor:
#      x y z
#    x 1.751680 0.000000 0.000000 
#    y 0.000000 1.780510 0.000000 
#    z 0.000000 0.000000 1.808920 
# 
# From -- ./inp_files/59856.got.cif
#   From: 2010.05.17/outbox.cif.g08.bks.cpg/sg66_30_cif.got.tgz:59856.got - 2010.06.03 17:51:23.
