data_PCOD9499683
_publ_section_title
;
Structure prediction by ZEFSAII (Michael W. Deem and Ramdas Pophale) SiO2 
 PCOD9499683
Probable space group: C C C M
;
_chemical_formula_sum "Si O2"
_cell_formula_units_Z 60
_cell_length_a 26.401276
_cell_length_b 7.082229
_cell_length_c 15.624322
_cell_angle_alpha 90.000000
_cell_angle_beta 90.000000
_cell_angle_gamma 90.000000
_cell_volume 2921.433892
_symmetry_space_group_name_H-M "C C C M"
_symmetry_group_IT_number 66
_symmetry_cell_setting 'orthorhombic'
loop_
_space_group_symop_operation_xyz
x,y,z
-x,-y,z
x,-y,1/2-z
-x,y,1/2-z
-x,-y,-z
x,y,-z
-x,y,1/2+z
x,-y,1/2+z
1/2+x,1/2+y,z
1/2-x,1/2-y,z
1/2+x,1/2-y,1/2-z
1/2-x,1/2+y,1/2-z
1/2-x,1/2-y,-z
1/2+x,1/2+y,-z
1/2-x,1/2+y,1/2+z
1/2+x,1/2-y,1/2+z
loop_
_atom_site_type_symbol
_atom_site_label
_atom_site_fract_x
_atom_site_fract_y
_atom_site_fract_z
Si Si1 0.910600 0.303264 0.143929
Si Si2 0.500000 0.000000 0.750000
Si Si3 0.606276 0.890839 0.000000
Si Si4 0.697456 0.634343 0.668537
Si Si5 0.441101 0.489090 0.500000
Si Si6 0.199816 0.127141 0.000000
O O1 0.902930 0.480936 0.081828
O O2 0.854644 0.255334 0.181559
O O3 0.959649 0.362699 0.200281
O O4 0.922836 0.124403 0.083481
O O5 0.660364 0.796809 0.000000
O O6 0.573011 0.706005 0.000000
O O7 0.702010 0.500000 0.750000
O O8 0.750000 0.750000 0.660980
O O9 0.693434 0.507206 0.582640
O O10 0.500000 0.500000 0.500000
O O11 0.250000 0.250000 0.000000
#
# Coordination Sequence:
#
# PCOD9499683 Si02
#       6
#    16   4   8  16   8   8
#     4  11  26  46  68 107 143 188 251 301 374 447
#     4  12  28  42  74 100 152 200 232 322 366 438
#     4  11  22  45  73 100 140 190 238 314 360 433
#     4  12  27  46  72 110 151 193 244 310 369 450
#     4  11  22  44  73 100 138 185 247 298 371 439
#     4  12  23  44  77 105 140 196 238 301 376 437
#
# _framework density 20.537862000000001
#
# number of rings (size 3 to 8) (size 9 to 14) (size 15 to 20)
#    0.000    0.533    2.667    5.200    5.600    4.267 
#    0.000    1.333    0.000    0.000    0.000    0.000 
#    0.000    0.000    0.000    0.000    0.000    0.000 
#
# Total GULP energy -167463.648664 kJ/mol
# GULP energy per Si atom -5582.121622 kJ/mol
# Density = 2.049112 g / cm^3
# Si number density = 20.537862 Si / 1000 Ang^3
#
#
#
# Elastic Constant Matrix: (Units=GPa)
#
#
# Indices 1 2 3 4 5 6 
#
# 1 208.5205 60.1737 40.6634 0.0000 0.0000 0.0000
# 2 60.1737 135.8122 48.1624 0.0000 0.0000 0.0000
# 3 40.6634 48.1624 115.9284 0.0000 0.0000 0.0000
# 4 0.0000 0.0000 0.0000 3818.5282 0.0000 0.0000
# 5 0.0000 0.0000 0.0000 0.0000 -11.6386 0.0000
# 6 0.0000 0.0000 0.0000 0.0000 0.0000 62.5742
#
#
#
# Elastic Compliance Matrix: (Units=1/GPa)
#
#
# Indices 1 2 3 4 5 6 
#
# 1 0.005615 -0.002099 -0.001098 0.000000 0.000000 0.000000
# 2 -0.002099 0.009420 -0.003177 0.000000 0.000000 0.000000
# 3 -0.001098 -0.003177 0.010331 0.000000 0.000000 0.000000
# 4 0.000000 0.000000 0.000000 0.000262 0.000000 0.000000
# 5 0.000000 0.000000 0.000000 0.000000 -0.085921 0.000000
# 6 0.000000 0.000000 0.000000 0.000000 0.000000 0.015981
#
#
# Mechanical properties :
#
#
# Convention : Reuss Voigt Hill
#
# Bulk Modulus (GPa) = 79.24745 84.25112 81.74929
# Shear Modulus (GPa) = -182.75805 794.64354 305.94275
#
# Velocity S-wave (km/s) = -9.44347 19.69153 12.21837
# Velocity P-wave (km/s) = 8.95744 23.62456 15.45775
#
# Compressibility (1/GPa) = 0.01261870
#
# Stress axis : x y z
#
# Youngs Moduli (GPa) = 178.08186 106.16050 96.79540
#
# Poissons Ratio (x) = 0.22280 0.10626
# Poissons Ratio (y) = 0.37374 0.30754
# Poissons Ratio (z) = 0.19549 0.33730
#
# Static dielectric constant tensor:
#      x y z
#    x 1.712350 0.000000 0.000000 
#    y 0.000000 1.675100 0.000000 
#    z 0.000000 0.000000 1.725720 
# 
# From -- ./inp_files/34916.got.cif
#   From: 2010.05.17/outbox.cif.g08.bks.cpg/sg66_18_cif.got.tgz:34916.got - 2010.06.03 17:51:23.
