data_PCOD9499328
_publ_section_title
;
Structure prediction by ZEFSAII (Michael W. Deem and Ramdas Pophale) SiO2 
 PCOD9499328
Probable space group: C C C M
;
_chemical_formula_sum "Si O2"
_cell_formula_units_Z 72
_cell_length_a 15.560553
_cell_length_b 7.005254
_cell_length_c 25.384153
_cell_angle_alpha 90.000000
_cell_angle_beta 90.000000
_cell_angle_gamma 90.000000
_cell_volume 2767.015492
_symmetry_space_group_name_H-M "C C C M"
_symmetry_group_IT_number 66
_symmetry_cell_setting 'orthorhombic'
loop_
_space_group_symop_operation_xyz
x,y,z
-x,-y,z
x,-y,1/2-z
-x,y,1/2-z
-x,-y,-z
x,y,-z
-x,y,1/2+z
x,-y,1/2+z
1/2+x,1/2+y,z
1/2-x,1/2-y,z
1/2+x,1/2-y,1/2-z
1/2-x,1/2+y,1/2-z
1/2-x,1/2-y,-z
1/2+x,1/2+y,-z
1/2-x,1/2+y,1/2+z
1/2+x,1/2-y,1/2+z
loop_
_atom_site_type_symbol
_atom_site_label
_atom_site_fract_x
_atom_site_fract_y
_atom_site_fract_z
Si Si1 0.403443 0.269800 0.733586
Si Si2 0.624141 0.648782 0.888516
Si Si3 0.075219 0.275264 0.500000
Si Si4 0.250000 0.250000 0.805038
Si Si5 0.625343 0.357750 0.500000
Si Si6 0.060322 0.720537 0.884372
O O1 0.398832 0.500000 0.750000
O O2 0.500000 0.217739 0.750000
O O3 0.326622 0.185531 0.767702
O O4 0.395478 0.201974 0.672766
O O5 0.698183 0.620262 0.846142
O O6 0.582331 0.442227 0.895763
O O7 0.543285 0.785835 0.873754
O O8 0.658445 0.714308 0.944673
O O9 0.084046 0.370269 0.558301
O O10 0.975982 0.201510 0.500000
O O11 0.134523 0.087386 0.500000
#
# Coordination Sequence:
#
# PCOD9499328 Si02
#       6
#    16  16   8   8   8  16
#     4  11  19  32  48  66  93 127 156 191 233 277
#     4   9  15  25  42  68  93 120 150 185 233 284
#     4   7  12  20  44  63  78 120 156 176 232 276
#     4  12  20  25  44  71  90 124 164 190 230 282
#     4   7  12  21  36  62  98 118 136 180 234 284
#     4   9  14  29  44  62  91 120 152 194 227 277
#
# _framework density 26.020817000000001
#
# number of rings (size 3 to 8) (size 9 to 14) (size 15 to 20)
#    0.000    2.667    4.444    4.000    0.000    0.444 
#    0.000    0.000    0.000    1.333    0.000    0.000 
#    0.000    0.000    0.000   16.000    0.000    0.000 
#
# Total GULP energy -200454.696230 kJ/mol
# GULP energy per Si atom -5568.186006 kJ/mol
# Density = 2.596159 g / cm^3
# Si number density = 26.020817 Si / 1000 Ang^3
#
#
#
# Elastic Constant Matrix: (Units=GPa)
#
#
# Indices 1 2 3 4 5 6 
#
# 1 134.4435 19.0195 79.7292 0.0000 0.0000 0.0000
# 2 19.0195 83.7819 21.6507 0.0000 0.0000 0.0000
# 3 79.7292 21.6507 296.6318 0.0000 0.0000 0.0000
# 4 0.0000 0.0000 0.0000 -7.1310 0.0000 0.0000
# 5 0.0000 0.0000 0.0000 0.0000 -1.4497 0.0000
# 6 0.0000 0.0000 0.0000 0.0000 0.0000 2.1809
#
#
#
# Elastic Compliance Matrix: (Units=1/GPa)
#
#
# Indices 1 2 3 4 5 6 
#
# 1 0.009018 -0.001448 -0.002318 0.000000 0.000000 0.000000
# 2 -0.001448 0.012398 -0.000516 0.000000 0.000000 0.000000
# 3 -0.002318 -0.000516 0.004032 0.000000 0.000000 0.000000
# 4 0.000000 0.000000 0.000000 -0.140233 0.000000 0.000000
# 5 0.000000 0.000000 0.000000 0.000000 -0.689793 0.000000
# 6 0.000000 0.000000 0.000000 0.000000 0.000000 0.458526
#
#
# Mechanical properties :
#
#
# Convention : Reuss Voigt Hill
#
# Bulk Modulus (GPa) = 59.22916 83.96178 71.59547
# Shear Modulus (GPa) = -15.06652 25.01723 4.97536
#
# Velocity S-wave (km/s) = -2.40889 3.10406 1.38428
# Velocity P-wave (km/s) = 3.88261 6.72191 5.48902
#
# Compressibility (1/GPa) = 0.01688358
#
# Stress axis : x y z
#
# Youngs Moduli (GPa) = 110.89404 80.65989 248.02331
#
# Poissons Ratio (x) = 0.11680 0.57494
# Poissons Ratio (y) = 0.16058 0.12790
# Poissons Ratio (z) = 0.25706 0.04159
#
# Static dielectric constant tensor:
#      x y z
#    x 2.007230 0.000000 0.000000 
#    y 0.000000 2.138350 0.000000 
#    z 0.000000 0.000000 2.121060 
# 
# From -- ./inp_files/63428.got.cif
#   From: 2010.05.17/outbox.cif.g08.bks.cpg/sg66_32_cif.got.tgz:63428.got - 2010.06.03 17:51:23.
