data_PCOD9499959
_publ_section_title
;
Structure prediction by ZEFSAII (Michael W. Deem and Ramdas Pophale) SiO2 
 PCOD9499959
Probable space group: C C C M
;
_chemical_formula_sum "Si O2"
_cell_formula_units_Z 80
_cell_length_a 13.666695
_cell_length_b 10.498285
_cell_length_c 26.266951
_cell_angle_alpha 90.000000
_cell_angle_beta 90.000000
_cell_angle_gamma 90.000000
_cell_volume 3768.699628
_symmetry_space_group_name_H-M "C C C M"
_symmetry_group_IT_number 66
_symmetry_cell_setting 'orthorhombic'
loop_
_space_group_symop_operation_xyz
x,y,z
-x,-y,z
x,-y,1/2-z
-x,y,1/2-z
-x,-y,-z
x,y,-z
-x,y,1/2+z
x,-y,1/2+z
1/2+x,1/2+y,z
1/2-x,1/2-y,z
1/2+x,1/2-y,1/2-z
1/2-x,1/2+y,1/2-z
1/2-x,1/2-y,-z
1/2+x,1/2+y,-z
1/2-x,1/2+y,1/2+z
1/2+x,1/2-y,1/2+z
loop_
_atom_site_type_symbol
_atom_site_label
_atom_site_fract_x
_atom_site_fract_y
_atom_site_fract_z
Si Si1 0.500000 0.000000 0.135669
Si Si2 0.610877 0.528450 0.831810
Si Si3 0.365435 0.401266 0.057619
Si Si4 0.766392 0.500000 0.250000
Si Si5 0.921591 0.705190 0.790913
Si Si6 0.631407 0.109212 0.443291
O O1 0.487940 0.120904 0.171419
O O2 0.408285 0.012401 0.098343
O O3 0.500000 0.500000 0.815581
O O4 0.612958 0.513187 0.892988
O O5 0.693901 0.463002 0.796940
O O6 0.627205 0.677899 0.819851
O O7 0.403167 0.255643 0.065166
O O8 0.248073 0.390134 0.057763
O O9 0.393553 0.442745 0.000000
O O10 0.838850 0.613279 0.232653
O O11 0.000000 0.752646 0.750000
O O12 0.600649 0.072487 0.500000
#
# Coordination Sequence:
#
# PCOD9499959 Si02
#       6
#     8  16  16   8  16  16
#     4  12  18  34  58  92 126 162 198 274 314 376
#     4  12  26  43  64  92 131 169 210 263 319 384
#     4   9  19  37  62  89 123 165 211 257 313 380
#     4  12  24  42  64  92 120 172 208 262 314 368
#     4  12  24  41  61  94 125 162 217 259 322 385
#     4   9  18  32  57  93 123 160 208 262 318 371
#
# _framework density 21.227481000000001
#
# number of rings (size 3 to 8) (size 9 to 14) (size 15 to 20)
#    0.000    1.200    4.000    4.800    2.800    0.400 
#    0.000    0.000    0.000    0.000    0.000    2.800 
#    0.000    0.000    0.000    0.000    0.000    0.000 
#
# Total GULP energy -223179.085652 kJ/mol
# GULP energy per Si atom -5579.477141 kJ/mol
# Density = 2.117917 g / cm^3
# Si number density = 21.227481 Si / 1000 Ang^3
#
#
#
# Elastic Constant Matrix: (Units=GPa)
#
#
# Indices 1 2 3 4 5 6 
#
# 1 86.5493 14.9786 37.4010 0.0000 0.0000 0.0000
# 2 14.9786 41.4444 20.7031 0.0000 0.0000 0.0000
# 3 37.4010 20.7031 156.4781 0.0000 0.0000 0.0000
# 4 0.0000 0.0000 0.0000 -72.6611 0.0000 0.0000
# 5 0.0000 0.0000 0.0000 0.0000 27.5604 0.0000
# 6 0.0000 0.0000 0.0000 0.0000 0.0000 26.1488
#
#
#
# Elastic Compliance Matrix: (Units=1/GPa)
#
#
# Indices 1 2 3 4 5 6 
#
# 1 0.013331 -0.003455 -0.002729 0.000000 0.000000 0.000000
# 2 -0.003455 0.026732 -0.002711 0.000000 0.000000 0.000000
# 3 -0.002729 -0.002711 0.007402 0.000000 0.000000 0.000000
# 4 0.000000 0.000000 0.000000 -0.013763 0.000000 0.000000
# 5 0.000000 0.000000 0.000000 0.000000 0.036284 0.000000
# 6 0.000000 0.000000 0.000000 0.000000 0.000000 0.038243
#
#
# Mechanical properties :
#
#
# Convention : Reuss Voigt Hill
#
# Bulk Modulus (GPa) = 33.69901 47.84858 40.77379
# Shear Modulus (GPa) = 36.78891 10.30223 23.54557
#
# Velocity S-wave (km/s) = 4.16754 2.20540 3.33408
# Velocity P-wave (km/s) = 6.25040 5.39211 5.83705
#
# Compressibility (1/GPa) = 0.02967446
#
# Stress axis : x y z
#
# Youngs Moduli (GPa) = 75.01050 37.40899 135.10372
#
# Poissons Ratio (x) = 0.12924 0.36875
# Poissons Ratio (y) = 0.25914 0.36627
# Poissons Ratio (z) = 0.20473 0.10142
#
# Static dielectric constant tensor:
#      x y z
#    x 1.760350 0.000000 0.000000 
#    y 0.000000 1.778580 0.000000 
#    z 0.000000 0.000000 1.844200 
# 
# From -- ./inp_files/64503.got.cif
#   From: 2010.05.17/outbox.cif.g08.bks.cpg/sg66_33_cif.got.tgz:64503.got - 2010.06.03 17:51:23.
