data_PCOD9499070
_publ_section_title
;
Structure prediction by ZEFSAII (Michael W. Deem and Ramdas Pophale) SiO2 
 PCOD9499070
Probable space group: C C C M
;
_chemical_formula_sum "Si O2"
_cell_formula_units_Z 60
_cell_length_a 21.171589
_cell_length_b 5.241015
_cell_length_c 26.533179
_cell_angle_alpha 90.000000
_cell_angle_beta 90.000000
_cell_angle_gamma 90.000000
_cell_volume 2944.137874
_symmetry_space_group_name_H-M "C C C M"
_symmetry_group_IT_number 66
_symmetry_cell_setting 'orthorhombic'
loop_
_space_group_symop_operation_xyz
x,y,z
-x,-y,z
x,-y,1/2-z
-x,y,1/2-z
-x,-y,-z
x,y,-z
-x,y,1/2+z
x,-y,1/2+z
1/2+x,1/2+y,z
1/2-x,1/2-y,z
1/2+x,1/2-y,1/2-z
1/2-x,1/2+y,1/2-z
1/2-x,1/2-y,-z
1/2+x,1/2+y,-z
1/2-x,1/2+y,1/2+z
1/2+x,1/2-y,1/2+z
loop_
_atom_site_type_symbol
_atom_site_label
_atom_site_fract_x
_atom_site_fract_y
_atom_site_fract_z
Si Si1 0.687068 0.419841 0.000000
Si Si2 0.076236 0.496171 0.500000
Si Si3 0.500000 0.500000 0.250000
Si Si4 0.250000 0.250000 0.083512
Si Si5 0.375747 0.118002 0.109022
Si Si6 0.064775 0.891823 0.152150
O O1 0.750000 0.250000 0.000000
O O2 0.702124 0.587867 0.049013
O O3 0.621486 0.262082 0.000000
O O4 0.097432 0.629589 0.448160
O O5 0.000000 0.500000 0.500000
O O6 0.544843 0.354268 0.210542
O O7 0.300258 0.072198 0.111014
O O8 0.388799 0.373920 0.140791
O O9 0.411448 0.872959 0.131053
O O10 0.000000 0.000000 0.127323
#
# Coordination Sequence:
#
# PCOD9499070 Si02
#       6
#     8   8   4   8  16  16
#     4  11  20  43  61  85 139 209 256 247 341 407
#     4  12  24  38  63 100 147 185 216 300 320 403
#     4   8  24  46  76  92 132 170 228 282 386 436
#     4  11  24  38  64  96 132 202 236 284 310 429
#     4  12  24  40  64  99 143 179 233 268 347 403
#     4  10  23  42  68  99 126 172 226 289 346 425
#
# _framework density 20.379481999999999
#
# number of rings (size 3 to 8) (size 9 to 14) (size 15 to 20)
#    0.800    0.267    2.667    4.800    0.000    3.200 
#    0.000    6.667    0.000    3.200    0.000    0.000 
#    0.000    0.000    0.000    0.000    0.000    0.000 
#
# Total GULP energy -167039.484144 kJ/mol
# GULP energy per Si atom -5567.982805 kJ/mol
# Density = 2.033310 g / cm^3
# Si number density = 20.379482 Si / 1000 Ang^3
#
#
#
# Elastic Constant Matrix: (Units=GPa)
#
#
# Indices 1 2 3 4 5 6 
#
# 1 158.2652 21.2086 43.4875 0.0000 0.0000 0.0000
# 2 21.2086 62.9113 42.9132 0.0000 0.0000 0.0000
# 3 43.4875 42.9132 110.6515 0.0000 0.0000 0.0000
# 4 0.0000 0.0000 0.0000 -7.5934 0.0000 0.0000
# 5 0.0000 0.0000 0.0000 0.0000 -5.3941 0.0000
# 6 0.0000 0.0000 0.0000 0.0000 0.0000 36.5866
#
#
#
# Elastic Compliance Matrix: (Units=1/GPa)
#
#
# Indices 1 2 3 4 5 6 
#
# 1 0.007104 -0.000667 -0.002533 0.000000 0.000000 0.000000
# 2 -0.000667 0.021676 -0.008144 0.000000 0.000000 0.000000
# 3 -0.002533 -0.008144 0.013192 0.000000 0.000000 0.000000
# 4 0.000000 0.000000 0.000000 -0.131694 0.000000 0.000000
# 5 0.000000 0.000000 0.000000 0.000000 -0.185386 0.000000
# 6 0.000000 0.000000 0.000000 0.000000 0.000000 0.027332
#
#
# Mechanical properties :
#
#
# Convention : Reuss Voigt Hill
#
# Bulk Modulus (GPa) = 51.86104 60.78294 56.32199
# Shear Modulus (GPa) = -22.86647 19.66774 -1.59937
#
# Velocity S-wave (km/s) = -3.35331 3.10994 -0.88685
# Velocity P-wave (km/s) = 3.24191 6.54109 5.16217
#
# Compressibility (1/GPa) = 0.01928230
#
# Stress axis : x y z
#
# Youngs Moduli (GPa) = 140.76633 46.13498 75.80628
#
# Poissons Ratio (x) = 0.03076 0.19204
# Poissons Ratio (y) = 0.09387 0.61738
# Poissons Ratio (z) = 0.35661 0.37573
#
# Static dielectric constant tensor:
#      x y z
#    x 2.073160 0.000000 0.000000 
#    y 0.000000 2.047120 0.000000 
#    z 0.000000 0.000000 1.748610 
# 
# From -- ./inp_files/59200.got.cif
#   From: 2010.05.17/outbox.cif.g08.bks.cpg/sg66_30_cif.got.tgz:59200.got - 2010.06.03 17:51:23.
