data_PCOD9499155
_publ_section_title
;
Structure prediction by ZEFSAII (Michael W. Deem and Ramdas Pophale) SiO2 
 PCOD9499155
Probable space group: C C C M
;
_chemical_formula_sum "Si O2"
_cell_formula_units_Z 56
_cell_length_a 20.718663
_cell_length_b 12.984624
_cell_length_c 10.503999
_cell_angle_alpha 90.000000
_cell_angle_beta 90.000000
_cell_angle_gamma 90.000000
_cell_volume 2825.828340
_symmetry_space_group_name_H-M "C C C M"
_symmetry_group_IT_number 66
_symmetry_cell_setting 'orthorhombic'
loop_
_space_group_symop_operation_xyz
x,y,z
-x,-y,z
x,-y,1/2-z
-x,y,1/2-z
-x,-y,-z
x,y,-z
-x,y,1/2+z
x,-y,1/2+z
1/2+x,1/2+y,z
1/2-x,1/2-y,z
1/2+x,1/2-y,1/2-z
1/2-x,1/2+y,1/2-z
1/2-x,1/2-y,-z
1/2+x,1/2+y,-z
1/2-x,1/2+y,1/2+z
1/2+x,1/2-y,1/2+z
loop_
_atom_site_type_symbol
_atom_site_label
_atom_site_fract_x
_atom_site_fract_y
_atom_site_fract_z
Si Si1 0.853833 0.808211 0.500000
Si Si2 0.941243 0.323486 0.647084
Si Si3 0.215718 0.589572 0.000000
Si Si4 0.654307 0.000000 0.750000
Si Si5 0.422937 0.616680 0.248296
O O1 0.827723 0.692723 0.500000
O O2 0.790248 0.878816 0.500000
O O3 0.897253 0.832592 0.379602
O O4 0.960385 0.346747 0.500000
O O5 0.890695 0.406932 0.699687
O O6 0.911258 0.207598 0.649968
O O7 0.000000 0.325782 0.750000
O O8 0.197105 0.531732 0.129173
O O9 0.396020 0.500000 0.250000
O O10 0.500000 0.605198 0.250000
#
# Coordination Sequence:
#
# PCOD9499155 Si02
#       5
#     8  16   8   8  16
#     4  11  24  47  68  95 136 185 223 270 346 408
#     4  11  25  40  65 100 142 179 222 280 340 397
#     4  11  26  44  69  96 141 183 226 271 335 409
#     4  12  23  44  66 100 131 180 230 278 324 408
#     4  10  24  40  67  96 133 172 227 279 337 393
#
# _framework density 19.817198999999999
#
# number of rings (size 3 to 8) (size 9 to 14) (size 15 to 20)
#    0.000    1.143    4.286    0.429   14.000    2.286 
#    0.000    0.000    0.000    5.143    0.000    0.000 
#    0.000    0.000    0.000    0.000    0.000    0.000 
#
# Total GULP energy -156158.356258 kJ/mol
# GULP energy per Si atom -5577.084152 kJ/mol
# Density = 1.977209 g / cm^3
# Si number density = 19.817199 Si / 1000 Ang^3
#
#
#
# Elastic Constant Matrix: (Units=GPa)
#
#
# Indices 1 2 3 4 5 6 
#
# 1 67.9499 32.5986 58.4386 0.0000 0.0000 0.0000
# 2 32.5986 115.3130 36.0929 0.0000 0.0000 0.0000
# 3 58.4386 36.0929 186.4946 0.0000 0.0000 0.0000
# 4 0.0000 0.0000 0.0000 27.7829 0.0000 0.0000
# 5 0.0000 0.0000 0.0000 0.0000 172.1902 0.0000
# 6 0.0000 0.0000 0.0000 0.0000 0.0000 -9.8007
#
#
#
# Elastic Compliance Matrix: (Units=1/GPa)
#
#
# Indices 1 2 3 4 5 6 
#
# 1 0.022000 -0.004324 -0.006057 0.000000 0.000000 0.000000
# 2 -0.004324 0.010081 -0.000596 0.000000 0.000000 0.000000
# 3 -0.006057 -0.000596 0.007375 0.000000 0.000000 0.000000
# 4 0.000000 0.000000 0.000000 0.035993 0.000000 0.000000
# 5 0.000000 0.000000 0.000000 0.000000 0.005808 0.000000
# 6 0.000000 0.000000 0.000000 0.000000 0.000000 -0.102034
#
#
# Mechanical properties :
#
#
# Convention : Reuss Voigt Hill
#
# Bulk Modulus (GPa) = 57.13322 69.33528 63.23425
# Shear Modulus (GPa) = 713.08811 54.20964 383.64887
#
# Velocity S-wave (km/s) = 18.98984 5.23586 13.92890
# Velocity P-wave (km/s) = 22.57679 8.46261 17.04886
#
# Compressibility (1/GPa) = 0.01750295
#
# Stress axis : x y z
#
# Youngs Moduli (GPa) = 45.45429 99.19742 135.58469
#
# Poissons Ratio (x) = 0.42888 0.82124
# Poissons Ratio (y) = 0.19652 0.08084
# Poissons Ratio (z) = 0.27532 0.05914
#
# Static dielectric constant tensor:
#      x y z
#    x 1.657230 0.000000 0.000000 
#    y 0.000000 1.770220 0.000000 
#    z 0.000000 0.000000 1.676840 
# 
# From -- ./inp_files/4868.got.cif
#   From: 2010.05.17/outbox.cif.g08.bks.cpg/sg66_3_cif.got.tgz:4868.got - 2010.06.03 17:51:23.
