data_PCOD9499778
_publ_section_title
;
Structure prediction by ZEFSAII (Michael W. Deem and Ramdas Pophale) SiO2 
 PCOD9499778
Probable space group: C C C M
;
_chemical_formula_sum "Si O2"
_cell_formula_units_Z 56
_cell_length_a 4.780662
_cell_length_b 14.683255
_cell_length_c 32.148566
_cell_angle_alpha 90.000000
_cell_angle_beta 90.000000
_cell_angle_gamma 90.000000
_cell_volume 2256.690426
_symmetry_space_group_name_H-M "C C C M"
_symmetry_group_IT_number 66
_symmetry_cell_setting 'orthorhombic'
loop_
_space_group_symop_operation_xyz
x,y,z
-x,-y,z
x,-y,1/2-z
-x,y,1/2-z
-x,-y,-z
x,y,-z
-x,y,1/2+z
x,-y,1/2+z
1/2+x,1/2+y,z
1/2-x,1/2-y,z
1/2+x,1/2-y,1/2-z
1/2-x,1/2+y,1/2-z
1/2-x,1/2-y,-z
1/2+x,1/2+y,-z
1/2-x,1/2+y,1/2+z
1/2+x,1/2-y,1/2+z
loop_
_atom_site_type_symbol
_atom_site_label
_atom_site_fract_x
_atom_site_fract_y
_atom_site_fract_z
Si Si1 0.259578 0.937543 0.425394
Si Si2 0.019976 0.326348 0.292953
Si Si3 0.493878 0.820728 0.500000
Si Si4 0.505826 0.391546 0.657014
O O1 0.433934 0.884160 0.460166
O O2 0.113062 0.877377 0.389864
O O3 0.500000 0.000000 0.404794
O O4 0.000000 0.000000 0.442106
O O5 0.250000 0.250000 0.276711
O O6 0.196087 0.359745 0.332683
O O7 0.000000 0.383236 0.250000
O O8 0.706888 0.336996 0.311551
O O9 0.250000 0.750000 0.500000
O O10 0.750000 0.750000 0.500000
O O11 0.500000 0.500000 0.664167
#
# Coordination Sequence:
#
# PCOD9499778 Si02
#       4
#    16  16   8  16
#     4  11  23  45  69  95 137 185 227 276 349 421
#     4  12  25  43  65  95 136 181 224 278 352 420
#     4  12  26  42  68 108 140 174 230 286 340 408
#     4  11  24  42  67  98 129 174 234 287 338 406
#
# _framework density 24.815100000000001
#
# number of rings (size 3 to 8) (size 9 to 14) (size 15 to 20)
#    0.000    0.571    0.000   10.286    0.000    6.857 
#    0.000    0.000    0.000    0.000    0.000    0.000 
#    0.000    0.000    0.000    0.000    0.000    0.000 
#
# Total GULP energy -155936.109925 kJ/mol
# GULP energy per Si atom -5569.146783 kJ/mol
# Density = 2.475862 g / cm^3
# Si number density = 24.815100 Si / 1000 Ang^3
#
#
#
# Elastic Constant Matrix: (Units=GPa)
#
#
# Indices 1 2 3 4 5 6 
#
# 1 202.3608 6.3747 21.3318 0.0000 0.0000 0.0000
# 2 6.3747 56.3176 8.8181 0.0000 0.0000 0.0000
# 3 21.3318 8.8181 134.6767 0.0000 0.0000 0.0000
# 4 0.0000 0.0000 0.0000 27.1804 0.0000 0.0000
# 5 0.0000 0.0000 0.0000 0.0000 189.7685 0.0000
# 6 0.0000 0.0000 0.0000 0.0000 0.0000 49.8483
#
#
#
# Elastic Compliance Matrix: (Units=1/GPa)
#
#
# Indices 1 2 3 4 5 6 
#
# 1 0.005037 -0.000450 -0.000768 0.000000 0.000000 0.000000
# 2 -0.000450 0.017981 -0.001106 0.000000 0.000000 0.000000
# 3 -0.000768 -0.001106 0.007619 0.000000 0.000000 0.000000
# 4 0.000000 0.000000 0.000000 0.036791 0.000000 0.000000
# 5 0.000000 0.000000 0.000000 0.000000 0.005270 0.000000
# 6 0.000000 0.000000 0.000000 0.000000 0.000000 0.020061
#
#
# Mechanical properties :
#
#
# Convention : Reuss Voigt Hill
#
# Bulk Modulus (GPa) = 38.47894 51.82272 45.15083
# Shear Modulus (GPa) = 47.13892 77.14816 62.14354
#
# Velocity S-wave (km/s) = 4.36318 5.58182 5.00969
# Velocity P-wave (km/s) = 6.39711 7.90387 7.19007
#
# Compressibility (1/GPa) = 0.02598824
#
# Stress axis : x y z
#
# Youngs Moduli (GPa) = 198.53747 55.61573 131.24552
#
# Poissons Ratio (x) = 0.02502 0.10084
# Poissons Ratio (y) = 0.08931 0.14516
# Poissons Ratio (z) = 0.15255 0.06151
#
# Static dielectric constant tensor:
#      x y z
#    x 1.007360 0.000000 0.000000 
#    y 0.000000 0.918720 0.000000 
#    z 0.000000 0.000000 1.886430 
# 
# From -- ./inp_files/66749.got.cif
#   From: 2010.05.17/outbox.cif.g08.bks.cpg/sg66_34_cif.got.tgz:66749.got - 2010.06.03 17:51:23.
