data_PCOD9499214
_publ_section_title
;
Structure prediction by ZEFSAII (Michael W. Deem and Ramdas Pophale) SiO2 
 PCOD9499214
Probable space group: C C C M
;
_chemical_formula_sum "Si O2"
_cell_formula_units_Z 56
_cell_length_a 5.778717
_cell_length_b 14.321987
_cell_length_c 29.922181
_cell_angle_alpha 90.000000
_cell_angle_beta 90.000000
_cell_angle_gamma 90.000000
_cell_volume 2476.440781
_symmetry_space_group_name_H-M "C C C M"
_symmetry_group_IT_number 66
_symmetry_cell_setting 'orthorhombic'
loop_
_space_group_symop_operation_xyz
x,y,z
-x,-y,z
x,-y,1/2-z
-x,y,1/2-z
-x,-y,-z
x,y,-z
-x,y,1/2+z
x,-y,1/2+z
1/2+x,1/2+y,z
1/2-x,1/2-y,z
1/2+x,1/2-y,1/2-z
1/2-x,1/2+y,1/2-z
1/2-x,1/2-y,-z
1/2+x,1/2+y,-z
1/2-x,1/2+y,1/2+z
1/2+x,1/2-y,1/2+z
loop_
_atom_site_type_symbol
_atom_site_label
_atom_site_fract_x
_atom_site_fract_y
_atom_site_fract_z
Si Si1 0.254956 0.393634 0.266970
Si Si2 0.705373 0.640264 0.371417
Si Si3 0.638219 0.353999 0.548066
Si Si4 0.500000 0.000000 0.572552
O O1 0.255038 0.500000 0.250000
O O2 0.500000 0.350635 0.250000
O O3 0.288179 0.391326 0.320238
O O4 0.000000 0.357558 0.250000
O O5 0.750000 0.750000 0.371070
O O6 0.489609 0.629011 0.404948
O O7 0.895346 0.579628 0.396167
O O8 0.503507 0.353944 0.500000
O O9 0.750000 0.250000 0.550421
O O10 0.812971 0.440691 0.545803
#
# Coordination Sequence:
#
# PCOD9499214 Si02
#       4
#    16  16  16   8
#     4  10  24  44  72 108 150 202 255 330 398 470
#     4  12  27  46  76 112 154 203 264 325 396 476
#     4  11  26  48  76 115 159 206 263 325 395 480
#     4  12  25  46  77 108 152 208 251 322 401 458
#
# _framework density 22.613098000000001
#
# number of rings (size 3 to 8) (size 9 to 14) (size 15 to 20)
#    0.000    0.857    2.857    3.000   12.000    5.143 
#    0.000    0.000    0.000    0.000    0.000    0.000 
#    0.000    0.000    0.000    0.000    0.000    0.000 
#
# Total GULP energy -156085.365208 kJ/mol
# GULP energy per Si atom -5574.477329 kJ/mol
# Density = 2.256163 g / cm^3
# Si number density = 22.613098 Si / 1000 Ang^3
#
#
#
# Elastic Constant Matrix: (Units=GPa)
#
#
# Indices 1 2 3 4 5 6 
#
# 1 122.1414 21.1764 84.5345 0.0000 0.0000 0.0000
# 2 21.1764 162.8583 47.7376 0.0000 0.0000 0.0000
# 3 84.5345 47.7376 249.1009 0.0000 0.0000 0.0000
# 4 0.0000 0.0000 0.0000 36.6554 0.0000 0.0000
# 5 0.0000 0.0000 0.0000 0.0000 35.2267 0.0000
# 6 0.0000 0.0000 0.0000 0.0000 0.0000 17.4331
#
#
#
# Elastic Compliance Matrix: (Units=1/GPa)
#
#
# Indices 1 2 3 4 5 6 
#
# 1 0.010719 -0.000347 -0.003571 0.000000 0.000000 0.000000
# 2 -0.000347 0.006517 -0.001131 0.000000 0.000000 0.000000
# 3 -0.003571 -0.001131 0.005443 0.000000 0.000000 0.000000
# 4 0.000000 0.000000 0.000000 0.027281 0.000000 0.000000
# 5 0.000000 0.000000 0.000000 0.000000 0.028388 0.000000
# 6 0.000000 0.000000 0.000000 0.000000 0.000000 0.057362
#
#
# Mechanical properties :
#
#
# Convention : Reuss Voigt Hill
#
# Bulk Modulus (GPa) = 79.48772 93.44418 86.46595
# Shear Modulus (GPa) = 33.33293 43.23984 38.28638
#
# Velocity S-wave (km/s) = 3.84351 4.37757 4.11920
# Velocity P-wave (km/s) = 7.41109 8.18313 7.80666
#
# Compressibility (1/GPa) = 0.01258056
#
# Stress axis : x y z
#
# Youngs Moduli (GPa) = 93.29275 153.44492 183.71945
#
# Poissons Ratio (x) = 0.05325 0.65607
# Poissons Ratio (y) = 0.03237 0.20781
# Poissons Ratio (z) = 0.33315 0.17357
#
# Static dielectric constant tensor:
#      x y z
#    x 1.958160 0.000000 0.000000 
#    y 0.000000 1.809030 0.000000 
#    z 0.000000 0.000000 3.195370 
# 
# From -- ./inp_files/66745.got.cif
#   From: 2010.05.17/outbox.cif.g08.bks.cpg/sg66_34_cif.got.tgz:66745.got - 2010.06.03 17:51:23.
