data_PCOD9499582
_publ_section_title
;
Structure prediction by ZEFSAII (Michael W. Deem and Ramdas Pophale) SiO2 
 PCOD9499582
Probable space group: C C C M
;
_chemical_formula_sum "Si O2"
_cell_formula_units_Z 96
_cell_length_a 7.426959
_cell_length_b 25.929480
_cell_length_c 22.335993
_cell_angle_alpha 90.000000
_cell_angle_beta 90.000000
_cell_angle_gamma 90.000000
_cell_volume 4301.402653
_symmetry_space_group_name_H-M "C C C M"
_symmetry_group_IT_number 66
_symmetry_cell_setting 'orthorhombic'
loop_
_space_group_symop_operation_xyz
x,y,z
-x,-y,z
x,-y,1/2-z
-x,y,1/2-z
-x,-y,-z
x,y,-z
-x,y,1/2+z
x,-y,1/2+z
1/2+x,1/2+y,z
1/2-x,1/2-y,z
1/2+x,1/2-y,1/2-z
1/2-x,1/2+y,1/2-z
1/2-x,1/2-y,-z
1/2+x,1/2+y,-z
1/2-x,1/2+y,1/2+z
1/2+x,1/2-y,1/2+z
loop_
_atom_site_type_symbol
_atom_site_label
_atom_site_fract_x
_atom_site_fract_y
_atom_site_fract_z
Si Si1 0.725694 0.540461 0.128737
Si Si2 0.004714 0.391234 0.568307
Si Si3 0.308601 0.309361 0.066255
Si Si4 0.145677 0.804287 0.302528
Si Si5 0.851061 0.078115 0.878680
Si Si6 0.212169 0.410408 0.754461
O O1 0.911509 0.565456 0.108909
O O2 0.706944 0.481547 0.111029
O O3 0.560519 0.575079 0.103644
O O4 0.710367 0.547420 0.199919
O O5 0.994354 0.408332 0.500000
O O6 0.876398 0.341743 0.574734
O O7 0.212078 0.385865 0.586367
O O8 0.250000 0.250000 0.062865
O O9 0.418847 0.313477 0.128710
O O10 0.384748 0.323455 0.000000
O O11 0.250000 0.750000 0.302375
O O12 0.263262 0.854296 0.284935
O O13 0.000000 0.801259 0.250000
O O14 0.814141 0.089388 0.808679
O O15 0.000000 0.420566 0.750000
#
# Coordination Sequence:
#
# PCOD9499582 Si02
#       6
#    16  16  16  16  16  16
#     4  11  23  40  60  92 122 169 210 268 321 393
#     4  11  23  41  65  90 122 167 219 272 325 392
#     4   9  19  39  66  91 123 171 221 267 329 402
#     4  11  22  37  62  96 129 165 213 275 336 393
#     4  11  24  39  62  88 129 165 213 260 335 395
#     4  12  22  38  62  89 125 164 211 265 327 392
#
# _framework density 22.318301000000002
#
# number of rings (size 3 to 8) (size 9 to 14) (size 15 to 20)
#    0.000    1.167    3.333    3.000    0.000    5.333 
#    0.000    1.667    0.000    0.500    0.000    0.000 
#    0.000    0.000    0.000    0.000    0.000    0.000 
#
# Total GULP energy -268130.431408 kJ/mol
# GULP energy per Si atom -5586.050654 kJ/mol
# Density = 2.226750 g / cm^3
# Si number density = 22.318301 Si / 1000 Ang^3
#
#
#
# Elastic Constant Matrix: (Units=GPa)
#
#
# Indices 1 2 3 4 5 6 
#
# 1 94.6458 1.6226 25.1301 0.0000 0.0000 0.0000
# 2 1.6226 69.0608 -5.2472 0.0000 0.0000 0.0000
# 3 25.1301 -5.2472 139.9917 0.0000 0.0000 0.0000
# 4 0.0000 0.0000 0.0000 6.6071 0.0000 0.0000
# 5 0.0000 0.0000 0.0000 0.0000 20.8237 0.0000
# 6 0.0000 0.0000 0.0000 0.0000 0.0000 21.8193
#
#
#
# Elastic Compliance Matrix: (Units=1/GPa)
#
#
# Indices 1 2 3 4 5 6 
#
# 1 0.011106 -0.000414 -0.002009 0.000000 0.000000 0.000000
# 2 -0.000414 0.014537 0.000619 0.000000 0.000000 0.000000
# 3 -0.002009 0.000619 0.007527 0.000000 0.000000 0.000000
# 4 0.000000 0.000000 0.000000 0.151353 0.000000 0.000000
# 5 0.000000 0.000000 0.000000 0.000000 0.048022 0.000000
# 6 0.000000 0.000000 0.000000 0.000000 0.000000 0.045831
#
#
# Mechanical properties :
#
#
# Convention : Reuss Voigt Hill
#
# Bulk Modulus (GPa) = 33.82627 38.52324 36.17476
# Shear Modulus (GPa) = 17.13277 28.66287 22.89782
#
# Velocity S-wave (km/s) = 2.77367 3.58757 3.20655
# Velocity P-wave (km/s) = 5.04448 5.87019 5.47293
#
# Compressibility (1/GPa) = 0.02956282
#
# Stress axis : x y z
#
# Youngs Moduli (GPa) = 90.03918 68.79112 132.85216
#
# Poissons Ratio (x) = 0.02845 0.26693
# Poissons Ratio (y) = 0.03724 -0.08225
# Poissons Ratio (z) = 0.18091 -0.04259
#
# Static dielectric constant tensor:
#      x y z
#    x 1.825400 0.000000 0.000000 
#    y 0.000000 1.820140 0.000000 
#    z 0.000000 0.000000 1.850540 
# 
# From -- ./inp_files/47271.got.cif
#   From: 2010.05.17/outbox.cif.g08.bks.cpg/sg66_24_cif.got.tgz:47271.got - 2010.06.03 17:51:23.
