data_PCOD9499688
_publ_section_title
;
Structure prediction by ZEFSAII (Michael W. Deem and Ramdas Pophale) SiO2 
 PCOD9499688
Probable space group: C C C M
;
_chemical_formula_sum "Si O2"
_cell_formula_units_Z 68
_cell_length_a 18.886498
_cell_length_b 7.389948
_cell_length_c 20.800247
_cell_angle_alpha 90.000000
_cell_angle_beta 90.000000
_cell_angle_gamma 90.000000
_cell_volume 2903.095427
_symmetry_space_group_name_H-M "C C C M"
_symmetry_group_IT_number 66
_symmetry_cell_setting 'orthorhombic'
loop_
_space_group_symop_operation_xyz
x,y,z
-x,-y,z
x,-y,1/2-z
-x,y,1/2-z
-x,-y,-z
x,y,-z
-x,y,1/2+z
x,-y,1/2+z
1/2+x,1/2+y,z
1/2-x,1/2-y,z
1/2+x,1/2-y,1/2-z
1/2-x,1/2+y,1/2-z
1/2-x,1/2-y,-z
1/2+x,1/2+y,-z
1/2-x,1/2+y,1/2+z
1/2+x,1/2-y,1/2+z
loop_
_atom_site_type_symbol
_atom_site_label
_atom_site_fract_x
_atom_site_fract_y
_atom_site_fract_z
Si Si1 0.111400 0.307517 0.098535
Si Si2 0.328881 0.287398 0.228341
Si Si3 0.822349 0.346588 0.130717
Si Si4 0.000000 0.500000 0.000000
Si Si5 0.074695 0.069444 0.427776
O O1 0.111699 0.265531 0.175990
O O2 0.170645 0.461785 0.096721
O O3 0.123678 0.107434 0.071630
O O4 0.047013 0.392551 0.057411
O O5 0.334616 0.500000 0.250000
O O6 0.250000 0.250000 0.199815
O O7 0.327996 0.164704 0.292279
O O8 0.750000 0.250000 0.112319
O O9 0.888581 0.227717 0.109125
O O10 0.061555 0.137547 0.500000
O O11 0.000000 0.000000 0.401011
#
# Coordination Sequence:
#
# PCOD9499688 Si02
#       5
#    16  16  16   4  16
#     4  12  25  46  75 102 146 196 248 305 381 451
#     4  11  22  45  74 110 150 188 244 321 393 454
#     4  11  25  45  73 110 147 188 244 318 389 457
#     4  12  28  52  72 104 150 212 256 314 368 452
#     4  11  25  45  71 103 147 198 250 307 371 450
#
# _framework density 23.423273999999999
#
# number of rings (size 3 to 8) (size 9 to 14) (size 15 to 20)
#    0.000    0.706    3.529    4.941    4.941    0.471 
#    0.000   11.176    0.000    0.000    0.000    0.000 
#    0.000    0.000    0.000    0.000    0.000    0.000 
#
# Total GULP energy -189307.557340 kJ/mol
# GULP energy per Si atom -5567.869334 kJ/mol
# Density = 2.336996 g / cm^3
# Si number density = 23.423274 Si / 1000 Ang^3
#
#
#
# Elastic Constant Matrix: (Units=GPa)
#
#
# Indices 1 2 3 4 5 6 
#
# 1 80.8502 39.3822 59.1245 0.0000 0.0000 0.0000
# 2 39.3822 97.2958 26.1631 0.0000 0.0000 0.0000
# 3 59.1245 26.1631 65.7490 0.0000 0.0000 0.0000
# 4 0.0000 0.0000 0.0000 42.1989 0.0000 0.0000
# 5 0.0000 0.0000 0.0000 0.0000 41.6000 0.0000
# 6 0.0000 0.0000 0.0000 0.0000 0.0000 46.0308
#
#
#
# Elastic Compliance Matrix: (Units=1/GPa)
#
#
# Indices 1 2 3 4 5 6 
#
# 1 0.040340 -0.007361 -0.033346 0.000000 0.000000 0.000000
# 2 -0.007361 0.012853 0.001505 0.000000 0.000000 0.000000
# 3 -0.033346 0.001505 0.044597 0.000000 0.000000 0.000000
# 4 0.000000 0.000000 0.000000 0.023697 0.000000 0.000000
# 5 0.000000 0.000000 0.000000 0.000000 0.024038 0.000000
# 6 0.000000 0.000000 0.000000 0.000000 0.000000 0.021725
#
#
# Mechanical properties :
#
#
# Convention : Reuss Voigt Hill
#
# Bulk Modulus (GPa) = 51.58669 54.80383 53.19526
# Shear Modulus (GPa) = 19.83222 33.91430 26.87326
#
# Velocity S-wave (km/s) = 2.91295 3.80924 3.39084
# Velocity P-wave (km/s) = 5.77799 6.54179 6.17172
#
# Compressibility (1/GPa) = 0.01938484
#
# Stress axis : x y z
#
# Youngs Moduli (GPa) = 24.78955 77.80399 22.42326
#
# Poissons Ratio (x) = 0.57274 0.74772
# Poissons Ratio (y) = 0.18248 -0.03375
# Poissons Ratio (z) = 0.82663 -0.11711
#
# Static dielectric constant tensor:
#      x y z
#    x 1.903580 0.000000 0.000000 
#    y 0.000000 2.009270 0.000000 
#    z 0.000000 0.000000 1.902640 
# 
# From -- ./inp_files/50611.got.cif
#   From: 2010.05.17/outbox.cif.g08.bks.cpg/sg66_26_cif.got.tgz:50611.got - 2010.06.03 17:51:23.
