data_PCOD9499024
_publ_section_title
;
Structure prediction by ZEFSAII (Michael W. Deem and Ramdas Pophale) SiO2 
 PCOD9499024
Probable space group: C C C M
;
_chemical_formula_sum "Si O2"
_cell_formula_units_Z 116
_cell_length_a 11.613868
_cell_length_b 27.632791
_cell_length_c 18.033520
_cell_angle_alpha 90.000000
_cell_angle_beta 90.000000
_cell_angle_gamma 90.000000
_cell_volume 5787.381927
_symmetry_space_group_name_H-M "C C C M"
_symmetry_group_IT_number 66
_symmetry_cell_setting 'orthorhombic'
loop_
_space_group_symop_operation_xyz
x,y,z
-x,-y,z
x,-y,1/2-z
-x,y,1/2-z
-x,-y,-z
x,y,-z
-x,y,1/2+z
x,-y,1/2+z
1/2+x,1/2+y,z
1/2-x,1/2-y,z
1/2+x,1/2-y,1/2-z
1/2-x,1/2+y,1/2-z
1/2-x,1/2-y,-z
1/2+x,1/2+y,-z
1/2-x,1/2+y,1/2+z
1/2+x,1/2-y,1/2+z
loop_
_atom_site_type_symbol
_atom_site_label
_atom_site_fract_x
_atom_site_fract_y
_atom_site_fract_z
Si Si1 0.672564 0.967040 0.412588
Si Si2 0.206990 0.878772 0.141437
Si Si3 0.250000 0.250000 0.000000
Si Si4 0.583489 0.233645 0.358571
Si Si5 0.840411 0.709170 0.414326
Si Si6 0.465076 0.655590 0.667970
Si Si7 0.085265 0.427792 0.088547
Si Si8 0.283951 0.854857 0.690876
O O1 0.693904 0.964648 0.500000
O O2 0.767687 0.934770 0.373082
O O3 0.547775 0.942281 0.399620
O O4 0.658005 0.023477 0.394258
O O5 0.284226 0.843405 0.091631
O O6 0.250056 0.868161 0.225415
O O7 0.076101 0.862491 0.123983
O O8 0.347246 0.240098 0.934977
O O9 0.460261 0.209212 0.371746
O O10 0.551127 0.286731 0.329916
O O11 0.664979 0.199336 0.309632
O O12 0.864055 0.721600 0.500000
O O13 0.750000 0.750000 0.386027
O O14 0.500000 0.638528 0.750000
O O15 0.337198 0.639201 0.646595
O O16 0.125858 0.387076 0.145401
O O17 0.098878 0.415766 0.000000
#
# Coordination Sequence:
#
# PCOD9499024 Si02
#       8
#    16  16   4  16  16  16  16  16
#     4   9  19  40  64  90 116 153 187 241 308 363
#     4  11  23  39  59  86 119 155 200 243 297 359
#     4  12  24  40  58  84 112 160 210 252 294 348
#     4  12  23  39  58  82 118 156 206 248 292 346
#     4  11  23  36  55  83 115 152 194 239 295 347
#     4  10  23  41  57  78 121 164 197 241 297 351
#     4   9  20  39  65  88 119 148 190 245 304 358
#     4  11  24  37  59  89 112 158 203 245 294 353
#
# _framework density 20.043606
#
# number of rings (size 3 to 8) (size 9 to 14) (size 15 to 20)
#    0.000    1.517    3.448    2.069    2.897    3.310 
#    1.241    2.069    0.000    4.138    0.000    0.000 
#    0.000    0.000    0.000    0.000    0.000    0.000 
#
# Total GULP energy -323069.090342 kJ/mol
# GULP energy per Si atom -5570.156730 kJ/mol
# Density = 1.999799 g / cm^3
# Si number density = 20.043606 Si / 1000 Ang^3
#
#
#
# Elastic Constant Matrix: (Units=GPa)
#
#
# Indices 1 2 3 4 5 6 
#
# 1 85.4005 12.6998 11.2555 0.0000 0.0000 0.0000
# 2 12.6998 66.1963 15.3288 0.0000 0.0000 0.0000
# 3 11.2555 15.3288 30.6004 0.0000 0.0000 0.0000
# 4 0.0000 0.0000 0.0000 1.7549 0.0000 0.0000
# 5 0.0000 0.0000 0.0000 0.0000 25.1462 0.0000
# 6 0.0000 0.0000 0.0000 0.0000 0.0000 18.4486
#
#
#
# Elastic Compliance Matrix: (Units=1/GPa)
#
#
# Indices 1 2 3 4 5 6 
#
# 1 0.012437 -0.001501 -0.003823 0.000000 0.000000 0.000000
# 2 -0.001501 0.017270 -0.008099 0.000000 0.000000 0.000000
# 3 -0.003823 -0.008099 0.038143 0.000000 0.000000 0.000000
# 4 0.000000 0.000000 0.000000 0.569847 0.000000 0.000000
# 5 0.000000 0.000000 0.000000 0.000000 0.039767 0.000000
# 6 0.000000 0.000000 0.000000 0.000000 0.000000 0.054205
#
#
# Mechanical properties :
#
#
# Convention : Reuss Voigt Hill
#
# Bulk Modulus (GPa) = 24.38787 28.97393 26.68090
# Shear Modulus (GPa) = 6.47516 18.59747 12.53632
#
# Velocity S-wave (km/s) = 1.79932 3.04937 2.50362
# Velocity P-wave (km/s) = 4.06332 5.18508 4.65809
#
# Compressibility (1/GPa) = 0.04100399
#
# Stress axis : x y z
#
# Youngs Moduli (GPa) = 80.40831 57.90396 26.21745
#
# Poissons Ratio (x) = 0.08690 0.10022
# Poissons Ratio (y) = 0.12067 0.21234
# Poissons Ratio (z) = 0.30737 0.46897
#
# Static dielectric constant tensor:
#      x y z
#    x 1.703140 0.000000 0.000000 
#    y 0.000000 1.743980 0.000000 
#    z 0.000000 0.000000 1.726070 
# 
# From -- ./inp_files/39158.got.cif
#   From: 2010.05.17/outbox.cif.g08.bks.cpg/sg66_20_cif.got.tgz:39158.got - 2010.06.03 17:51:23.
