data_PCOD9499684
_publ_section_title
;
Structure prediction by ZEFSAII (Michael W. Deem and Ramdas Pophale) SiO2 
 PCOD9499684
Probable space group: C C C M
;
_chemical_formula_sum "Si O2"
_cell_formula_units_Z 56
_cell_length_a 6.310346
_cell_length_b 23.181425
_cell_length_c 14.905422
_cell_angle_alpha 90.000000
_cell_angle_beta 90.000000
_cell_angle_gamma 90.000000
_cell_volume 2180.407052
_symmetry_space_group_name_H-M "C C C M"
_symmetry_group_IT_number 66
_symmetry_cell_setting 'orthorhombic'
loop_
_space_group_symop_operation_xyz
x,y,z
-x,-y,z
x,-y,1/2-z
-x,y,1/2-z
-x,-y,-z
x,y,-z
-x,y,1/2+z
x,-y,1/2+z
1/2+x,1/2+y,z
1/2-x,1/2-y,z
1/2+x,1/2-y,1/2-z
1/2-x,1/2+y,1/2-z
1/2-x,1/2-y,-z
1/2+x,1/2+y,-z
1/2-x,1/2+y,1/2+z
1/2+x,1/2-y,1/2+z
loop_
_atom_site_type_symbol
_atom_site_label
_atom_site_fract_x
_atom_site_fract_y
_atom_site_fract_z
Si Si1 0.660092 0.948243 0.500000
Si Si2 0.859504 0.691465 0.673655
Si Si3 0.037603 0.910243 0.147119
Si Si4 0.229932 0.632597 0.500000
Si Si5 0.507356 0.245047 0.500000
O O1 0.809851 0.949977 0.412739
O O2 0.515430 0.889999 0.500000
O O3 0.500000 0.000000 0.500000
O O4 0.750000 0.750000 0.708682
O O5 0.669177 0.649897 0.648114
O O6 0.017244 0.710356 0.593854
O O7 0.000000 0.663082 0.750000
O O8 0.000000 0.927243 0.250000
O O9 0.830126 0.897643 0.088481
O O10 0.353424 0.696704 0.500000
O O11 0.250000 0.250000 0.500000
#
# Coordination Sequence:
#
# PCOD9499684 Si02
#       5
#     8  16  16   8   8
#     4  11  26  50  75 102 142 181 230 302 362 411
#     4  12  23  39  61 100 144 186 234 284 340 412
#     4  11  24  43  72 103 140 185 236 289 351 422
#     4  11  22  45  67 100 140 179 231 297 342 408
#     4  12  21  36  63  94 139 186 232 276 346 416
#
# _framework density 25.683278000000001
#
# number of rings (size 3 to 8) (size 9 to 14) (size 15 to 20)
#    0.000    0.571    2.857    6.429    0.000    2.286 
#    0.000    4.286    0.000    0.000    0.000    0.000 
#    0.000    0.000    0.000    0.000    0.000    0.000 
#
# Total GULP energy -156642.875719 kJ/mol
# GULP energy per Si atom -5594.388419 kJ/mol
# Density = 2.562482 g / cm^3
# Si number density = 25.683278 Si / 1000 Ang^3
#
#
#
# Elastic Constant Matrix: (Units=GPa)
#
#
# Indices 1 2 3 4 5 6 
#
# 1 133.7360 13.1305 73.3923 0.0000 0.0000 0.0000
# 2 13.1305 96.9055 20.0674 0.0000 0.0000 0.0000
# 3 73.3923 20.0674 223.1582 0.0000 0.0000 0.0000
# 4 0.0000 0.0000 0.0000 4.3036 0.0000 0.0000
# 5 0.0000 0.0000 0.0000 0.0000 38.8543 0.0000
# 6 0.0000 0.0000 0.0000 0.0000 0.0000 39.4615
#
#
#
# Elastic Compliance Matrix: (Units=1/GPa)
#
#
# Indices 1 2 3 4 5 6 
#
# 1 0.009162 -0.000629 -0.002957 0.000000 0.000000 0.000000
# 2 -0.000629 0.010558 -0.000743 0.000000 0.000000 0.000000
# 3 -0.002957 -0.000743 0.005520 0.000000 0.000000 0.000000
# 4 0.000000 0.000000 0.000000 0.232366 0.000000 0.000000
# 5 0.000000 0.000000 0.000000 0.000000 0.025737 0.000000
# 6 0.000000 0.000000 0.000000 0.000000 0.000000 0.025341
#
#
# Mechanical properties :
#
#
# Convention : Reuss Voigt Hill
#
# Bulk Modulus (GPa) = 60.29964 74.10892 67.20428
# Shear Modulus (GPa) = 15.48616 39.67117 27.57866
#
# Velocity S-wave (km/s) = 2.45820 3.93444 3.28044
# Velocity P-wave (km/s) = 5.62016 7.03970 6.36960
#
# Compressibility (1/GPa) = 0.01658385
#
# Stress axis : x y z
#
# Youngs Moduli (GPa) = 109.15024 94.71179 181.15158
#
# Poissons Ratio (x) = 0.05959 0.53558
# Poissons Ratio (y) = 0.06867 0.13451
# Poissons Ratio (z) = 0.32270 0.07033
#
# Static dielectric constant tensor:
#      x y z
#    x 2.309310 0.000000 0.000000 
#    y 0.000000 2.337980 0.000000 
#    z 0.000000 0.000000 2.057190 
# 
# From -- ./inp_files/22551.got.cif
#   From: 2010.05.17/outbox.cif.g08.bks.cpg/sg66_12_cif.got.tgz:22551.got - 2010.06.03 17:51:23.
