data_PCOD9499745
_publ_section_title
;
Structure prediction by ZEFSAII (Michael W. Deem and Ramdas Pophale) SiO2 
 PCOD9499745
Probable space group: C C C M
;
_chemical_formula_sum "Si O2"
_cell_formula_units_Z 96
_cell_length_a 11.708319
_cell_length_b 17.859026
_cell_length_c 23.005297
_cell_angle_alpha 90.000000
_cell_angle_beta 90.000000
_cell_angle_gamma 90.000000
_cell_volume 4810.388587
_symmetry_space_group_name_H-M "C C C M"
_symmetry_group_IT_number 66
_symmetry_cell_setting 'orthorhombic'
loop_
_space_group_symop_operation_xyz
x,y,z
-x,-y,z
x,-y,1/2-z
-x,y,1/2-z
-x,-y,-z
x,y,-z
-x,y,1/2+z
x,-y,1/2+z
1/2+x,1/2+y,z
1/2-x,1/2-y,z
1/2+x,1/2-y,1/2-z
1/2-x,1/2+y,1/2-z
1/2-x,1/2-y,-z
1/2+x,1/2+y,-z
1/2-x,1/2+y,1/2+z
1/2+x,1/2-y,1/2+z
loop_
_atom_site_type_symbol
_atom_site_label
_atom_site_fract_x
_atom_site_fract_y
_atom_site_fract_z
Si Si1 0.420410 0.200896 0.000000
Si Si2 0.998428 0.340422 0.874507
Si Si3 0.290740 0.101470 0.689279
Si Si4 0.568924 0.577579 0.881461
Si Si5 0.559210 0.311258 0.188152
Si Si6 0.705732 0.074148 0.319619
Si Si7 0.327297 0.370983 0.000000
O O1 0.487928 0.185885 0.940542
O O2 0.381018 0.287448 0.000000
O O3 0.307790 0.147201 0.000000
O O4 0.106771 0.393318 0.860292
O O5 0.881951 0.382546 0.860313
O O6 0.984270 0.270891 0.829708
O O7 0.191814 0.164049 0.692352
O O8 0.335192 0.097424 0.755533
O O9 0.263298 0.014091 0.678479
O O10 0.500000 0.500000 0.872210
O O11 0.476451 0.639887 0.867635
O O12 0.670380 0.603655 0.837705
O O13 0.627815 0.584527 0.943883
O O14 0.500000 0.331200 0.250000
#
# Coordination Sequence:
#
# PCOD9499745 Si02
#       7
#     8  16  16  16  16  16   8
#     4  11  24  42  70  90 130 187 226 294 336 405
#     4  12  25  44  64  98 135 177 235 275 337 413
#     4  11  24  43  66  98 140 179 216 273 348 417
#     4  12  23  41  71 101 134 170 227 285 337 406
#     4  12  24  40  68 102 136 173 219 284 350 409
#     4  11  23  42  70  97 136 179 217 275 350 417
#     4  11  23  46  66  96 133 177 238 284 346 392
#
# _framework density 19.956807000000001
#
# number of rings (size 3 to 8) (size 9 to 14) (size 15 to 20)
#    0.000    0.500    6.667    2.750    0.000    2.333 
#    0.000    5.000    0.000    0.000    0.000    0.000 
#    0.000    0.000    0.000    0.000    0.000    0.000 
#
# Total GULP energy -267278.656533 kJ/mol
# GULP energy per Si atom -5568.305344 kJ/mol
# Density = 1.991138 g / cm^3
# Si number density = 19.956807 Si / 1000 Ang^3
#
#
#
# Elastic Constant Matrix: (Units=GPa)
#
#
# Indices 1 2 3 4 5 6 
#
# 1 93.9858 14.1630 36.7194 0.0000 0.0000 0.0000
# 2 14.1630 36.3492 9.4108 0.0000 0.0000 0.0000
# 3 36.7194 9.4108 79.4642 0.0000 0.0000 0.0000
# 4 0.0000 0.0000 0.0000 23.6139 0.0000 0.0000
# 5 0.0000 0.0000 0.0000 0.0000 28.7941 0.0000
# 6 0.0000 0.0000 0.0000 0.0000 0.0000 42.0424
#
#
#
# Elastic Compliance Matrix: (Units=1/GPa)
#
#
# Indices 1 2 3 4 5 6 
#
# 1 0.013462 -0.003750 -0.005776 0.000000 0.000000 0.000000
# 2 -0.003750 0.029426 -0.001752 0.000000 0.000000 0.000000
# 3 -0.005776 -0.001752 0.015461 0.000000 0.000000 0.000000
# 4 0.000000 0.000000 0.000000 0.042348 0.000000 0.000000
# 5 0.000000 0.000000 0.000000 0.000000 0.034729 0.000000
# 6 0.000000 0.000000 0.000000 0.000000 0.000000 0.023786
#
#
# Mechanical properties :
#
#
# Convention : Reuss Voigt Hill
#
# Bulk Modulus (GPa) = 27.93938 36.70953 32.32445
# Shear Modulus (GPa) = 25.81336 28.85714 27.33525
#
# Velocity S-wave (km/s) = 3.60037 3.80673 3.70499
# Velocity P-wave (km/s) = 5.59588 6.14459 5.87665
#
# Compressibility (1/GPa) = 0.03579177
#
# Stress axis : x y z
#
# Youngs Moduli (GPa) = 74.28453 33.98409 64.67891
#
# Poissons Ratio (x) = 0.12743 0.37361
# Poissons Ratio (y) = 0.27854 0.11333
# Poissons Ratio (z) = 0.42910 0.05955
#
# Static dielectric constant tensor:
#      x y z
#    x 1.732550 0.000000 0.000000 
#    y 0.000000 1.849000 0.000000 
#    z 0.000000 0.000000 1.693550 
# 
# From -- ./inp_files/57000.got.cif
#   From: 2010.05.17/outbox.cif.g08.bks.cpg/sg66_29_cif.got.tgz:57000.got - 2010.06.03 17:51:23.
