data_PCOD9499190
_publ_section_title
;
Structure prediction by ZEFSAII (Michael W. Deem and Ramdas Pophale) SiO2 
 PCOD9499190
Probable space group: C C C M
;
_chemical_formula_sum "Si O2"
_cell_formula_units_Z 68
_cell_length_a 8.053215
_cell_length_b 21.541643
_cell_length_c 18.487722
_cell_angle_alpha 90.000000
_cell_angle_beta 90.000000
_cell_angle_gamma 90.000000
_cell_volume 3207.240446
_symmetry_space_group_name_H-M "C C C M"
_symmetry_group_IT_number 66
_symmetry_cell_setting 'orthorhombic'
loop_
_space_group_symop_operation_xyz
x,y,z
-x,-y,z
x,-y,1/2-z
-x,y,1/2-z
-x,-y,-z
x,y,-z
-x,y,1/2+z
x,-y,1/2+z
1/2+x,1/2+y,z
1/2-x,1/2-y,z
1/2+x,1/2-y,1/2-z
1/2-x,1/2+y,1/2-z
1/2-x,1/2-y,-z
1/2+x,1/2+y,-z
1/2-x,1/2+y,1/2+z
1/2+x,1/2-y,1/2+z
loop_
_atom_site_type_symbol
_atom_site_label
_atom_site_fract_x
_atom_site_fract_y
_atom_site_fract_z
Si Si1 0.885390 0.073384 0.323241
Si Si2 0.250000 0.750000 0.000000
Si Si3 0.168596 0.150537 0.619098
Si Si4 0.813161 0.524549 0.584659
Si Si5 0.191861 0.686141 0.730026
O O1 0.735975 0.121407 0.307929
O O2 0.000000 0.065898 0.250000
O O3 0.001543 0.110497 0.378753
O O4 0.807333 0.012459 0.360006
O O5 0.173909 0.795892 0.061953
O O6 0.305654 0.097704 0.602378
O O7 0.199800 0.180448 0.697026
O O8 0.764799 0.515612 0.500000
O O9 0.000000 0.500000 0.593471
O O10 0.250000 0.750000 0.691965
O O11 0.000000 0.689789 0.750000
#
# Coordination Sequence:
#
# PCOD9499190 Si02
#       5
#    16   4  16  16  16
#     4  10  24  43  65 100 128 171 225 269 331 388
#     4  12  24  40  64  98 130 172 216 264 326 392
#     4  11  23  41  68  93 129 173 215 269 322 390
#     4  11  24  43  66  97 135 174 217 272 334 393
#     4  11  22  40  65  93 131 171 217 268 322 386
#
# _framework density 21.202027999999999
#
# number of rings (size 3 to 8) (size 9 to 14) (size 15 to 20)
#    0.000    1.176    2.353    4.235    1.647    7.529 
#    0.000    5.882    0.000    3.529    0.000    0.000 
#    0.000    0.000    0.000    0.000    0.000    0.000 
#
# Total GULP energy -189419.686433 kJ/mol
# GULP energy per Si atom -5571.167248 kJ/mol
# Density = 2.115377 g / cm^3
# Si number density = 21.202028 Si / 1000 Ang^3
#
#
#
# Elastic Constant Matrix: (Units=GPa)
#
#
# Indices 1 2 3 4 5 6 
#
# 1 77.2199 22.3634 -2.5339 0.0000 0.0000 0.0000
# 2 22.3634 81.8583 28.3157 0.0000 0.0000 0.0000
# 3 -2.5339 28.3157 76.2710 0.0000 0.0000 0.0000
# 4 0.0000 0.0000 0.0000 63.6349 0.0000 0.0000
# 5 0.0000 0.0000 0.0000 0.0000 49.3151 0.0000
# 6 0.0000 0.0000 0.0000 0.0000 0.0000 30.6974
#
#
#
# Elastic Compliance Matrix: (Units=1/GPa)
#
#
# Indices 1 2 3 4 5 6 
#
# 1 0.014384 -0.004698 0.002222 0.000000 0.000000 0.000000
# 2 -0.004698 0.015551 -0.005929 0.000000 0.000000 0.000000
# 3 0.002222 -0.005929 0.015386 0.000000 0.000000 0.000000
# 4 0.000000 0.000000 0.000000 0.015715 0.000000 0.000000
# 5 0.000000 0.000000 0.000000 0.000000 0.020278 0.000000
# 6 0.000000 0.000000 0.000000 0.000000 0.000000 0.032576
#
#
# Mechanical properties :
#
#
# Convention : Reuss Voigt Hill
#
# Bulk Modulus (GPa) = 35.07578 36.84883 35.96230
# Shear Modulus (GPa) = 35.66255 41.20975 38.43615
#
# Velocity S-wave (km/s) = 4.10571 4.41349 4.26238
# Velocity P-wave (km/s) = 6.24943 6.58707 6.42047
#
# Compressibility (1/GPa) = 0.02850970
#
# Stress axis : x y z
#
# Youngs Moduli (GPa) = 69.52381 64.30549 64.99316
#
# Poissons Ratio (x) = 0.30212 -0.14442
# Poissons Ratio (y) = 0.32663 0.38537
# Poissons Ratio (z) = -0.15449 0.38129
#
# Static dielectric constant tensor:
#      x y z
#    x 1.771950 0.000000 0.000000 
#    y 0.000000 1.817110 0.000000 
#    z 0.000000 0.000000 1.761800 
# 
# From -- ./inp_files/36514.got.cif
#   From: 2010.05.17/outbox.cif.g08.bks.cpg/sg66_19_cif.got.tgz:36514.got - 2010.06.03 17:51:23.
