data_PCOD9499158
_publ_section_title
;
Structure prediction by ZEFSAII (Michael W. Deem and Ramdas Pophale) SiO2 
 PCOD9499158
Probable space group: C C C M
;
_chemical_formula_sum "Si O2"
_cell_formula_units_Z 80
_cell_length_a 26.039684
_cell_length_b 10.252593
_cell_length_c 13.723977
_cell_angle_alpha 90.000000
_cell_angle_beta 90.000000
_cell_angle_gamma 90.000000
_cell_volume 3663.948904
_symmetry_space_group_name_H-M "C C C M"
_symmetry_group_IT_number 66
_symmetry_cell_setting 'orthorhombic'
loop_
_space_group_symop_operation_xyz
x,y,z
-x,-y,z
x,-y,1/2-z
-x,y,1/2-z
-x,-y,-z
x,y,-z
-x,y,1/2+z
x,-y,1/2+z
1/2+x,1/2+y,z
1/2-x,1/2-y,z
1/2+x,1/2-y,1/2-z
1/2-x,1/2+y,1/2-z
1/2-x,1/2-y,-z
1/2+x,1/2+y,-z
1/2-x,1/2+y,1/2+z
1/2+x,1/2-y,1/2+z
loop_
_atom_site_type_symbol
_atom_site_label
_atom_site_fract_x
_atom_site_fract_y
_atom_site_fract_z
Si Si1 0.635748 0.249571 0.750415
Si Si2 0.713041 0.124086 0.386472
Si Si3 0.285347 0.378060 0.391989
Si Si4 0.563434 0.392798 0.615317
Si Si5 0.453231 0.697769 0.116669
O O1 0.669109 0.140598 0.694899
O O2 0.672063 0.341393 0.814748
O O3 0.612924 0.334414 0.663528
O O4 0.587207 0.217877 0.821125
O O5 0.694342 0.117151 0.500000
O O6 0.750000 0.250000 0.378688
O O7 0.748779 0.999002 0.369593
O O8 0.308421 0.400466 0.500000
O O9 0.250000 0.250000 0.396678
O O10 0.566158 0.390257 0.500000
O O11 0.557975 0.545088 0.640665
O O12 0.513969 0.302571 0.640546
O O13 0.446969 0.718369 0.000000
#
# Coordination Sequence:
#
# PCOD9499158 Si02
#       5
#    16  16  16  16  16
#     4  12  21  32  60  89 117 161 216 257 318 380
#     4  10  24  41  57  86 125 160 202 260 320 375
#     4  10  24  45  63  83 121 169 215 260 310 375
#     4   9  19  34  52  82 125 167 208 259 313 380
#     4   9  19  34  52  82 124 167 212 256 311 379
#
# _framework density 21.834365999999999
#
# number of rings (size 3 to 8) (size 9 to 14) (size 15 to 20)
#    0.000    2.000    0.000    4.200    5.600    4.000 
#    0.000    0.000    0.000    2.400    0.000   11.200 
#    0.000   32.000    0.000    0.000    0.000    0.000 
#
# Total GULP energy -223558.648359 kJ/mol
# GULP energy per Si atom -5588.966209 kJ/mol
# Density = 2.178467 g / cm^3
# Si number density = 21.834366 Si / 1000 Ang^3
#
#
#
# Elastic Constant Matrix: (Units=GPa)
#
#
# Indices 1 2 3 4 5 6 
#
# 1 109.1095 34.8303 57.9830 0.0000 0.0000 0.0000
# 2 34.8303 76.2693 22.2641 0.0000 0.0000 0.0000
# 3 57.9830 22.2641 108.9423 0.0000 0.0000 0.0000
# 4 0.0000 0.0000 0.0000 10.1278 0.0000 0.0000
# 5 0.0000 0.0000 0.0000 0.0000 70.6511 0.0000
# 6 0.0000 0.0000 0.0000 0.0000 0.0000 21.0110
#
#
#
# Elastic Compliance Matrix: (Units=1/GPa)
#
#
# Indices 1 2 3 4 5 6 
#
# 1 0.014107 -0.004520 -0.006585 0.000000 0.000000 0.000000
# 2 -0.004520 0.015392 -0.000740 0.000000 0.000000 0.000000
# 3 -0.006585 -0.000740 0.012835 0.000000 0.000000 0.000000
# 4 0.000000 0.000000 0.000000 0.098739 0.000000 0.000000
# 5 0.000000 0.000000 0.000000 0.000000 0.014154 0.000000
# 6 0.000000 0.000000 0.000000 0.000000 0.000000 0.047594
#
#
# Mechanical properties :
#
#
# Convention : Reuss Voigt Hill
#
# Bulk Modulus (GPa) = 53.63458 58.27510 55.95484
# Shear Modulus (GPa) = 21.48464 32.30757 26.89610
#
# Velocity S-wave (km/s) = 3.14025 3.85082 3.51354
# Velocity P-wave (km/s) = 6.14539 6.82050 6.49173
#
# Compressibility (1/GPa) = 0.01864469
#
# Stress axis : x y z
#
# Youngs Moduli (GPa) = 70.88537 64.97023 77.91265
#
# Poissons Ratio (x) = 0.29369 0.51302
# Poissons Ratio (y) = 0.32042 0.05763
# Poissons Ratio (z) = 0.46675 0.04806
#
# Static dielectric constant tensor:
#      x y z
#    x 1.835650 0.000000 0.000000 
#    y 0.000000 1.756680 0.000000 
#    z 0.000000 0.000000 1.866620 
# 
# From -- ./inp_files/32120.got.cif
#   From: 2010.05.17/outbox.cif.g08.bks.cpg/sg66_17_cif.got.tgz:32120.got - 2010.06.03 17:51:23.
