data_PCOD9499492
_publ_section_title
;
Structure prediction by ZEFSAII (Michael W. Deem and Ramdas Pophale) SiO2 
 PCOD9499492
Probable space group: C C C M
;
_chemical_formula_sum "Si O2"
_cell_formula_units_Z 88
_cell_length_a 16.886231
_cell_length_b 16.345562
_cell_length_c 18.288951
_cell_angle_alpha 90.000000
_cell_angle_beta 90.000000
_cell_angle_gamma 90.000000
_cell_volume 5048.023635
_symmetry_space_group_name_H-M "C C C M"
_symmetry_group_IT_number 66
_symmetry_cell_setting 'orthorhombic'
loop_
_space_group_symop_operation_xyz
x,y,z
-x,-y,z
x,-y,1/2-z
-x,y,1/2-z
-x,-y,-z
x,y,-z
-x,y,1/2+z
x,-y,1/2+z
1/2+x,1/2+y,z
1/2-x,1/2-y,z
1/2+x,1/2-y,1/2-z
1/2-x,1/2+y,1/2-z
1/2-x,1/2-y,-z
1/2+x,1/2+y,-z
1/2-x,1/2+y,1/2+z
1/2+x,1/2-y,1/2+z
loop_
_atom_site_type_symbol
_atom_site_label
_atom_site_fract_x
_atom_site_fract_y
_atom_site_fract_z
Si Si1 0.250000 0.250000 0.752516
Si Si2 0.305762 0.624060 0.500000
Si Si3 0.911630 0.491862 0.163207
Si Si4 0.304775 0.431469 0.500000
Si Si5 0.566238 0.240825 0.500000
Si Si6 0.379634 0.737204 0.000000
Si Si7 0.800080 0.649405 0.621178
Si Si8 0.171364 0.657220 0.619086
O O1 0.250161 0.322970 0.692187
O O2 0.185724 0.285799 0.809941
O O3 0.321704 0.527256 0.500000
O O4 0.388113 0.672373 0.500000
O O5 0.251130 0.650355 0.569540
O O6 0.916530 0.500000 0.250000
O O7 0.874548 0.404633 0.144966
O O8 0.855511 0.565576 0.137683
O O9 0.000000 0.500000 0.131578
O O10 0.371438 0.360994 0.500000
O O11 0.252287 0.408205 0.570047
O O12 0.472007 0.241880 0.500000
O O13 0.602041 0.194893 0.570079
O O14 0.334536 0.777062 0.070185
#
# Coordination Sequence:
#
# PCOD9499492 Si02
#       8
#     8   8  16   8   8   8  16  16
#     4  12  20  36  64  84 114 156 198 234 274 342
#     4  11  21  38  62  84 110 150 203 240 276 340
#     4  11  22  33  53  89 123 148 178 233 306 355
#     4  11  21  38  62  84 110 150 203 240 276 340
#     4  11  23  39  57  83 117 152 195 242 289 342
#     4  11  23  39  57  83 117 152 195 242 289 342
#     4  11  21  38  59  86 114 152 195 238 285 345
#     4  11  21  38  59  86 114 152 195 238 285 345
#
# _framework density 17.432565
#
# number of rings (size 3 to 8) (size 9 to 14) (size 15 to 20)
#    0.000    0.909    7.273    2.182    0.000    0.364 
#    0.000    2.727    0.000    0.000    0.000    2.545 
#    0.000    0.000    0.000    0.000    0.000    0.000 
#
# Total GULP energy -245087.683929 kJ/mol
# GULP energy per Si atom -5570.174635 kJ/mol
# Density = 1.739289 g / cm^3
# Si number density = 17.432565 Si / 1000 Ang^3
#
#
#
# Elastic Constant Matrix: (Units=GPa)
#
#
# Indices 1 2 3 4 5 6 
#
# 1 65.1589 26.2785 25.2740 0.0000 0.0000 0.0000
# 2 26.2785 105.5307 29.0533 0.0000 0.0000 0.0000
# 3 25.2740 29.0533 105.1250 0.0000 0.0000 0.0000
# 4 0.0000 0.0000 0.0000 8.3681 0.0000 0.0000
# 5 0.0000 0.0000 0.0000 0.0000 8.0226 0.0000
# 6 0.0000 0.0000 0.0000 0.0000 0.0000 14.1702
#
#
#
# Elastic Compliance Matrix: (Units=1/GPa)
#
#
# Indices 1 2 3 4 5 6 
#
# 1 0.018095 -0.003581 -0.003361 0.000000 0.000000 0.000000
# 2 -0.003581 0.010965 -0.002169 0.000000 0.000000 0.000000
# 3 -0.003361 -0.002169 0.010920 0.000000 0.000000 0.000000
# 4 0.000000 0.000000 0.000000 0.119502 0.000000 0.000000
# 5 0.000000 0.000000 0.000000 0.000000 0.124648 0.000000
# 6 0.000000 0.000000 0.000000 0.000000 0.000000 0.070571
#
#
# Mechanical properties :
#
#
# Convention : Reuss Voigt Hill
#
# Bulk Modulus (GPa) = 45.96025 48.55848 47.25937
# Shear Modulus (GPa) = 13.15187 19.12610 16.13898
#
# Velocity S-wave (km/s) = 2.74969 3.31592 3.04599
# Velocity P-wave (km/s) = 6.04176 6.52502 6.28804
#
# Compressibility (1/GPa) = 0.02175793
#
# Stress axis : x y z
#
# Youngs Moduli (GPa) = 55.26471 91.20095 91.57466
#
# Poissons Ratio (x) = 0.32655 0.30776
# Poissons Ratio (y) = 0.19788 0.19867
# Poissons Ratio (z) = 0.18573 0.19786
#
# Static dielectric constant tensor:
#      x y z
#    x 1.585650 0.000000 0.000000 
#    y 0.000000 1.613710 0.000000 
#    z 0.000000 0.000000 1.598770 
# 
# From -- ./inp_files/40401.got.cif
#   From: 2010.05.17/outbox.cif.g08.bks.cpg/sg66_21_cif.got.tgz:40401.got - 2010.06.03 17:51:23.
