data_PCOD9499948
_publ_section_title
;
Structure prediction by ZEFSAII (Michael W. Deem and Ramdas Pophale) SiO2 
 PCOD9499948
Probable space group: C C C M
;
_chemical_formula_sum "Si O2"
_cell_formula_units_Z 80
_cell_length_a 10.045561
_cell_length_b 24.727542
_cell_length_c 15.999425
_cell_angle_alpha 90.000000
_cell_angle_beta 90.000000
_cell_angle_gamma 90.000000
_cell_volume 3974.289673
_symmetry_space_group_name_H-M "C C C M"
_symmetry_group_IT_number 66
_symmetry_cell_setting 'orthorhombic'
loop_
_space_group_symop_operation_xyz
x,y,z
-x,-y,z
x,-y,1/2-z
-x,y,1/2-z
-x,-y,-z
x,y,-z
-x,y,1/2+z
x,-y,1/2+z
1/2+x,1/2+y,z
1/2-x,1/2-y,z
1/2+x,1/2-y,1/2-z
1/2-x,1/2+y,1/2-z
1/2-x,1/2-y,-z
1/2+x,1/2+y,-z
1/2-x,1/2+y,1/2+z
1/2+x,1/2-y,1/2+z
loop_
_atom_site_type_symbol
_atom_site_label
_atom_site_fract_x
_atom_site_fract_y
_atom_site_fract_z
Si Si1 0.073490 0.306115 0.000000
Si Si2 0.808436 0.536394 0.166838
Si Si3 0.971880 0.627343 0.342802
Si Si4 0.108085 0.180342 0.000000
Si Si5 0.278661 0.568815 0.094900
Si Si6 0.954806 0.108814 0.661185
O O1 0.011438 0.332966 0.082657
O O2 0.057426 0.241735 0.000000
O O3 0.231197 0.318575 0.000000
O O4 0.823545 0.500000 0.250000
O O5 0.935391 0.573795 0.150893
O O6 0.779861 0.508574 0.402453
O O7 0.680855 0.575420 0.172570
O O8 0.000000 0.649593 0.250000
O O9 0.820817 0.607830 0.354638
O O10 0.063071 0.149863 0.084293
O O11 0.424358 0.569448 0.134889
O O12 0.285657 0.588205 0.000000
O O13 0.000000 0.133654 0.750000
#
# Coordination Sequence:
#
# PCOD9499948 Si02
#       6
#     8  16  16   8  16  16
#     4  11  26  49  72  96 127 174 233 289 334 386
#     4  12  24  40  64 101 138 188 216 261 322 408
#     4  12  24  44  68  98 137 175 223 272 332 397
#     4  11  26  49  72  96 127 174 233 289 334 386
#     4  12  26  38  62 102 142 175 221 269 327 399
#     4  12  24  44  68  98 137 175 223 272 332 397
#
# _framework density 20.129383000000001
#
# number of rings (size 3 to 8) (size 9 to 14) (size 15 to 20)
#    0.000    0.200    8.000    1.200    2.800    2.400 
#    0.000    2.000    0.000    0.000    0.000    0.000 
#    0.000    0.000    0.000    0.000    0.000    0.000 
#
# Total GULP energy -223724.461357 kJ/mol
# GULP energy per Si atom -5593.111534 kJ/mol
# Density = 2.008357 g / cm^3
# Si number density = 20.129383 Si / 1000 Ang^3
#
#
#
# Elastic Constant Matrix: (Units=GPa)
#
#
# Indices 1 2 3 4 5 6 
#
# 1 83.4861 14.6802 5.1739 0.0000 0.0000 0.0000
# 2 14.6802 91.4194 43.5869 0.0000 0.0000 0.0000
# 3 5.1739 43.5869 144.9028 0.0000 0.0000 0.0000
# 4 0.0000 0.0000 0.0000 23.3791 0.0000 0.0000
# 5 0.0000 0.0000 0.0000 0.0000 30.8948 0.0000
# 6 0.0000 0.0000 0.0000 0.0000 0.0000 16.4425
#
#
#
# Elastic Compliance Matrix: (Units=1/GPa)
#
#
# Indices 1 2 3 4 5 6 
#
# 1 0.012330 -0.002066 0.000181 0.000000 0.000000 0.000000
# 2 -0.002066 0.013116 -0.003872 0.000000 0.000000 0.000000
# 3 0.000181 -0.003872 0.008059 0.000000 0.000000 0.000000
# 4 0.000000 0.000000 0.000000 0.042773 0.000000 0.000000
# 5 0.000000 0.000000 0.000000 0.000000 0.032368 0.000000
# 6 0.000000 0.000000 0.000000 0.000000 0.000000 0.060818
#
#
# Mechanical properties :
#
#
# Convention : Reuss Voigt Hill
#
# Bulk Modulus (GPa) = 45.47039 49.63224 47.55132
# Shear Modulus (GPa) = 26.55206 31.23443 28.89325
#
# Velocity S-wave (km/s) = 3.63584 3.94341 3.79275
# Velocity P-wave (km/s) = 6.34538 6.74123 6.54630
#
# Compressibility (1/GPa) = 0.02199233
#
# Stress axis : x y z
#
# Youngs Moduli (GPa) = 81.10186 76.24080 124.08041
#
# Poissons Ratio (x) = 0.15755 -0.02250
# Poissons Ratio (y) = 0.16759 0.48039
# Poissons Ratio (z) = -0.01471 0.29518
#
# Static dielectric constant tensor:
#      x y z
#    x 1.698230 0.000000 0.000000 
#    y 0.000000 1.669760 0.000000 
#    z 0.000000 0.000000 1.745040 
# 
# From -- ./inp_files/37063.got.cif
#   From: 2010.05.17/outbox.cif.g08.bks.cpg/sg66_19_cif.got.tgz:37063.got - 2010.06.03 17:51:23.
