data_PCOD9499059
_publ_section_title
;
Structure prediction by ZEFSAII (Michael W. Deem and Ramdas Pophale) SiO2 
 PCOD9499059
Probable space group: C C C M
;
_chemical_formula_sum "Si O2"
_cell_formula_units_Z 44
_cell_length_a 27.814798
_cell_length_b 4.957572
_cell_length_c 13.982136
_cell_angle_alpha 90.000000
_cell_angle_beta 90.000000
_cell_angle_gamma 90.000000
_cell_volume 1928.050757
_symmetry_space_group_name_H-M "C C C M"
_symmetry_group_IT_number 66
_symmetry_cell_setting 'orthorhombic'
loop_
_space_group_symop_operation_xyz
x,y,z
-x,-y,z
x,-y,1/2-z
-x,y,1/2-z
-x,-y,-z
x,y,-z
-x,y,1/2+z
x,-y,1/2+z
1/2+x,1/2+y,z
1/2-x,1/2-y,z
1/2+x,1/2-y,1/2-z
1/2-x,1/2+y,1/2-z
1/2-x,1/2-y,-z
1/2+x,1/2+y,-z
1/2-x,1/2+y,1/2+z
1/2+x,1/2-y,1/2+z
loop_
_atom_site_type_symbol
_atom_site_label
_atom_site_fract_x
_atom_site_fract_y
_atom_site_fract_z
Si Si1 0.500000 0.000000 0.250000
Si Si2 0.780651 0.500000 0.250000
Si Si3 0.142452 0.254261 0.392278
Si Si4 0.573414 0.268965 0.608879
O O1 0.531636 0.191502 0.318387
O O2 0.750000 0.750000 0.207059
O O3 0.814131 0.653658 0.326085
O O4 0.159432 0.190830 0.500000
O O5 0.106384 0.504934 0.395687
O O6 0.109319 0.006113 0.360068
O O7 0.556207 0.329980 0.500000
#
# Coordination Sequence:
#
# PCOD9499059 Si02
#       4
#     4   8  16  16
#     4  12  24  38  68 104 136 170 226 290 318 364
#     4  12  25  40  68 105 130 161 224 282 329 398
#     4  10  23  45  66  90 134 180 214 264 335 399
#     4  10  23  42  65  94 132 179 223 264 325 395
#
# _framework density 22.820976000000002
#
# number of rings (size 3 to 8) (size 9 to 14) (size 15 to 20)
#    0.000    1.455    0.000    3.818    0.000    8.727 
#    0.000    5.455    0.000    2.182    0.000    0.000 
#    0.000    0.000    0.000    0.000    0.000    0.000 
#
# Total GULP energy -123156.445513 kJ/mol
# GULP energy per Si atom -5598.020251 kJ/mol
# Density = 2.276903 g / cm^3
# Si number density = 22.820976 Si / 1000 Ang^3
#
#
#
# Elastic Constant Matrix: (Units=GPa)
#
#
# Indices 1 2 3 4 5 6 
#
# 1 131.6863 74.9286 93.5936 0.0000 0.0000 0.0000
# 2 74.9286 194.4462 52.4247 0.0000 0.0000 0.0000
# 3 93.5936 52.4247 170.1858 0.0000 0.0000 0.0000
# 4 0.0000 0.0000 0.0000 22.2393 0.0000 0.0000
# 5 0.0000 0.0000 0.0000 0.0000 -87.2745 0.0000
# 6 0.0000 0.0000 0.0000 0.0000 0.0000 47.1866
#
#
#
# Elastic Compliance Matrix: (Units=1/GPa)
#
#
# Indices 1 2 3 4 5 6 
#
# 1 0.014642 -0.003786 -0.006886 0.000000 0.000000 0.000000
# 2 -0.003786 0.006587 0.000053 0.000000 0.000000 0.000000
# 3 -0.006886 0.000053 0.009647 0.000000 0.000000 0.000000
# 4 0.000000 0.000000 0.000000 0.044965 0.000000 0.000000
# 5 0.000000 0.000000 0.000000 0.000000 -0.011458 0.000000
# 6 0.000000 0.000000 0.000000 0.000000 0.000000 0.021192
#
#
# Mechanical properties :
#
#
# Convention : Reuss Voigt Hill
#
# Bulk Modulus (GPa) = 103.75735 104.24576 104.00155
# Shear Modulus (GPa) = 45.44336 14.78838 30.11587
#
# Velocity S-wave (km/s) = 4.46724 2.54838 3.63665
# Velocity P-wave (km/s) = 8.49545 7.37821 7.95647
#
# Compressibility (1/GPa) = 0.00963787
#
# Stress axis : x y z
#
# Youngs Moduli (GPa) = 68.29631 151.80577 103.66137
#
# Poissons Ratio (x) = 0.57468 0.71384
# Poissons Ratio (y) = 0.25854 -0.00546
# Poissons Ratio (z) = 0.47031 -0.00800
#
# Static dielectric constant tensor:
#      x y z
#    x 1.827790 0.000000 0.000000 
#    y 0.000000 1.795030 0.000000 
#    z 0.000000 0.000000 1.914500 
# 
# From -- ./inp_files/32799.got.cif
#   From: 2010.05.17/outbox.cif.g08.bks.cpg/sg66_17_cif.got.tgz:32799.got - 2010.06.03 17:51:23.
