data_PCOD9499116
_publ_section_title
;
Structure prediction by ZEFSAII (Michael W. Deem and Ramdas Pophale) SiO2 
 PCOD9499116
Probable space group: C C C M
;
_chemical_formula_sum "Si O2"
_cell_formula_units_Z 88
_cell_length_a 15.836932
_cell_length_b 27.481507
_cell_length_c 10.586613
_cell_angle_alpha 90.000000
_cell_angle_beta 90.000000
_cell_angle_gamma 90.000000
_cell_volume 4607.534904
_symmetry_space_group_name_H-M "C C C M"
_symmetry_group_IT_number 66
_symmetry_cell_setting 'orthorhombic'
loop_
_space_group_symop_operation_xyz
x,y,z
-x,-y,z
x,-y,1/2-z
-x,y,1/2-z
-x,-y,-z
x,y,-z
-x,y,1/2+z
x,-y,1/2+z
1/2+x,1/2+y,z
1/2-x,1/2-y,z
1/2+x,1/2-y,1/2-z
1/2-x,1/2+y,1/2-z
1/2-x,1/2-y,-z
1/2+x,1/2+y,-z
1/2-x,1/2+y,1/2+z
1/2+x,1/2-y,1/2+z
loop_
_atom_site_type_symbol
_atom_site_label
_atom_site_fract_x
_atom_site_fract_y
_atom_site_fract_z
Si Si1 0.568852 0.307667 0.144157
Si Si2 0.090570 0.295077 0.259741
Si Si3 0.878785 0.603754 0.000000
Si Si4 0.323942 0.944502 0.235691
Si Si5 0.336417 0.218447 0.000000
Si Si6 0.452852 0.946926 0.000000
Si Si7 0.252909 0.353112 0.350820
O O1 0.500000 0.320470 0.250000
O O2 0.578884 0.249241 0.144932
O O3 0.659818 0.328280 0.185601
O O4 0.550222 0.323744 0.000000
O O5 0.113038 0.269968 0.126592
O O6 0.169834 0.328039 0.293138
O O7 0.000000 0.321387 0.250000
O O8 0.852185 0.576038 0.871931
O O9 0.839343 0.658388 0.000000
O O10 0.980244 0.597391 0.000000
O O11 0.396484 0.943361 0.126969
O O12 0.250923 0.909054 0.187770
O O13 0.298111 0.000000 0.250000
O O14 0.250000 0.250000 0.000000
O O15 0.500000 0.000000 0.000000
O O16 0.244828 0.348038 0.500000
#
# Coordination Sequence:
#
# PCOD9499116 Si02
#       7
#    16  16   8  16   8   8  16
#     4  10  23  44  69  95 121 163 216 273 337 398
#     4  11  25  38  61  93 129 172 216 266 324 395
#     4  12  26  38  62  92 120 178 236 271 334 377
#     4  12  24  41  60  92 130 173 216 268 329 398
#     4  12  26  42  60  89 135 180 232 283 325 389
#     4  12  24  42  64  89 135 183 222 276 331 410
#     4  11  23  42  66  90 128 171 215 269 326 393
#
# _framework density 19.099150000000002
#
# number of rings (size 3 to 8) (size 9 to 14) (size 15 to 20)
#    0.000    0.727    4.545    2.727    8.909    1.455 
#    3.273    0.000    0.000    0.545    0.000    2.545 
#    0.000    0.000    0.000    0.000    0.000    0.000 
#
# Total GULP energy -245725.402362 kJ/mol
# GULP energy per Si atom -5584.668235 kJ/mol
# Density = 1.905568 g / cm^3
# Si number density = 19.099150 Si / 1000 Ang^3
#
#
#
# Elastic Constant Matrix: (Units=GPa)
#
#
# Indices 1 2 3 4 5 6 
#
# 1 131.1361 66.2299 56.2137 0.0000 0.0000 0.0000
# 2 66.2299 107.0710 25.2827 0.0000 0.0000 0.0000
# 3 56.2137 25.2827 118.5607 0.0000 0.0000 0.0000
# 4 0.0000 0.0000 0.0000 26.2260 0.0000 0.0000
# 5 0.0000 0.0000 0.0000 0.0000 32.2347 0.0000
# 6 0.0000 0.0000 0.0000 0.0000 0.0000 -108.1786
#
#
#
# Elastic Compliance Matrix: (Units=1/GPa)
#
#
# Indices 1 2 3 4 5 6 
#
# 1 0.013237 -0.007061 -0.004770 0.000000 0.000000 0.000000
# 2 -0.007061 0.013602 0.000447 0.000000 0.000000 0.000000
# 3 -0.004770 0.000447 0.010601 0.000000 0.000000 0.000000
# 4 0.000000 0.000000 0.000000 0.038130 0.000000 0.000000
# 5 0.000000 0.000000 0.000000 0.000000 0.031022 0.000000
# 6 0.000000 0.000000 0.000000 0.000000 0.000000 -0.009244
#
#
# Mechanical properties :
#
#
# Convention : Reuss Voigt Hill
#
# Bulk Modulus (GPa) = 68.16058 72.46893 70.31476
# Shear Modulus (GPa) = 39.99788 3.99253 21.99520
#
# Velocity S-wave (km/s) = 4.58123 1.44740 3.39725
# Velocity P-wave (km/s) = 7.98429 6.38899 7.23077
#
# Compressibility (1/GPa) = 0.01467124
#
# Stress axis : x y z
#
# Youngs Moduli (GPa) = 75.54685 73.51954 94.33260
#
# Poissons Ratio (x) = 0.51915 0.44999
# Poissons Ratio (y) = 0.53347 -0.04221
# Poissons Ratio (z) = 0.36037 -0.03290
#
# Static dielectric constant tensor:
#      x y z
#    x 1.696020 0.000000 0.000000 
#    y 0.000000 1.678950 0.000000 
#    z 0.000000 0.000000 1.717050 
# 
# From -- ./inp_files/16649.got.cif
#   From: 2010.05.17/outbox.cif.g08.bks.cpg/sg66_9_cif.got.tgz:16649.got - 2010.06.03 17:51:23.
