data_PCOD9499439
_publ_section_title
;
Structure prediction by ZEFSAII (Michael W. Deem and Ramdas Pophale) SiO2 
 PCOD9499439
Probable space group: C C C M
;
_chemical_formula_sum "Si O2"
_cell_formula_units_Z 96
_cell_length_a 26.567675
_cell_length_b 28.434095
_cell_length_c 9.557380
_cell_angle_alpha 90.000000
_cell_angle_beta 90.000000
_cell_angle_gamma 90.000000
_cell_volume 7219.910498
_symmetry_space_group_name_H-M "C C C M"
_symmetry_group_IT_number 66
_symmetry_cell_setting 'orthorhombic'
loop_
_space_group_symop_operation_xyz
x,y,z
-x,-y,z
x,-y,1/2-z
-x,y,1/2-z
-x,-y,-z
x,y,-z
-x,y,1/2+z
x,-y,1/2+z
1/2+x,1/2+y,z
1/2-x,1/2-y,z
1/2+x,1/2-y,1/2-z
1/2-x,1/2+y,1/2-z
1/2-x,1/2-y,-z
1/2+x,1/2+y,-z
1/2-x,1/2+y,1/2+z
1/2+x,1/2-y,1/2+z
loop_
_atom_site_type_symbol
_atom_site_label
_atom_site_fract_x
_atom_site_fract_y
_atom_site_fract_z
Si Si1 0.280758 0.700384 0.838447
Si Si2 0.398799 0.893460 0.238740
Si Si3 0.955471 0.567325 0.000000
Si Si4 0.301788 0.155387 0.841219
Si Si5 0.635267 0.746617 0.161980
Si Si6 0.051234 0.296050 0.337377
Si Si7 0.072711 0.459401 0.500000
O O1 0.250000 0.750000 0.839494
O O2 0.243806 0.662991 0.765595
O O3 0.329478 0.709631 0.742744
O O4 0.292522 0.689355 0.000000
O O5 0.436098 0.904848 0.365958
O O6 0.343063 0.882474 0.293933
O O7 0.419799 0.846166 0.166845
O O8 0.401109 0.937183 0.134670
O O9 0.930982 0.515393 0.000000
O O10 0.015143 0.559752 0.000000
O O11 0.332424 0.204850 0.843175
O O12 0.284500 0.146641 0.000000
O O13 0.586795 0.759352 0.254878
O O14 0.624194 0.734217 0.000000
O O15 0.042725 0.283673 0.500000
O O16 0.000000 0.300612 0.250000
#
# Coordination Sequence:
#
# PCOD9499439 Si02
#       7
#    16  16   8  16  16  16   8
#     4   9  16  25  41  59  79  98 121 148 182 227
#     4  11  21  32  46  60  77  96 126 165 205 249
#     4  11  22  36  46  58  75  98 126 162 208 259
#     4   9  17  28  41  57  76  98 120 149 193 237
#     4   9  17  28  41  58  80 102 125 151 186 229
#     4  11  21  30  43  59  79 104 133 164 200 235
#     4  11  22  34  48  60  73  96 128 164 208 253
#
# _framework density 13.296564
#
# number of rings (size 3 to 8) (size 9 to 14) (size 15 to 20)
#    0.000    2.000    1.667    3.500    3.500    5.333 
#    0.000    0.000    0.000    0.000    0.000    0.000 
#    0.000    0.000    0.000    0.000    0.000    0.000 
#
# Total GULP energy -267631.821337 kJ/mol
# GULP energy per Si atom -5575.662945 kJ/mol
# Density = 1.326630 g / cm^3
# Si number density = 13.296564 Si / 1000 Ang^3
#
#
#
# Elastic Constant Matrix: (Units=GPa)
#
#
# Indices 1 2 3 4 5 6 
#
# 1 41.0516 21.3773 30.1347 0.0000 0.0000 0.0000
# 2 21.3773 24.9673 19.3147 0.0000 0.0000 0.0000
# 3 30.1347 19.3147 122.0270 0.0000 0.0000 0.0000
# 4 0.0000 0.0000 0.0000 10.1946 0.0000 0.0000
# 5 0.0000 0.0000 0.0000 0.0000 20.8892 0.0000
# 6 0.0000 0.0000 0.0000 0.0000 0.0000 20.2034
#
#
#
# Elastic Compliance Matrix: (Units=1/GPa)
#
#
# Indices 1 2 3 4 5 6 
#
# 1 0.047570 -0.036058 -0.006040 0.000000 0.000000 0.000000
# 2 -0.036058 0.072972 -0.002646 0.000000 0.000000 0.000000
# 3 -0.006040 -0.002646 0.010105 0.000000 0.000000 0.000000
# 4 0.000000 0.000000 0.000000 0.098091 0.000000 0.000000
# 5 0.000000 0.000000 0.000000 0.000000 0.047872 0.000000
# 6 0.000000 0.000000 0.000000 0.000000 0.000000 0.049497
#
#
# Mechanical properties :
#
#
# Convention : Reuss Voigt Hill
#
# Bulk Modulus (GPa) = 24.29507 36.63326 30.46417
# Shear Modulus (GPa) = 11.64647 18.07203 14.85925
#
# Velocity S-wave (km/s) = 2.96277 3.69067 3.34657
# Velocity P-wave (km/s) = 5.47863 6.76551 6.15579
#
# Compressibility (1/GPa) = 0.04116061
#
# Stress axis : x y z
#
# Youngs Moduli (GPa) = 21.02152 13.70387 98.95764
#
# Poissons Ratio (x) = 0.49413 0.59773
# Poissons Ratio (y) = 0.75798 0.26181
# Poissons Ratio (z) = 0.12698 0.03626
#
# Static dielectric constant tensor:
#      x y z
#    x 1.428740 0.000000 0.000000 
#    y 0.000000 1.404950 0.000000 
#    z 0.000000 0.000000 1.445430 
# 
# From -- ./inp_files/9330.got.cif
#   From: 2010.05.17/outbox.cif.g08.bks.cpg/sg66_5_cif.got.tgz:9330.got - 2010.06.03 17:51:23.
