data_PCOD9499154
_publ_section_title
;
Structure prediction by ZEFSAII (Michael W. Deem and Ramdas Pophale) SiO2 
 PCOD9499154
Probable space group: C C C M
;
_chemical_formula_sum "Si O2"
_cell_formula_units_Z 96
_cell_length_a 10.362003
_cell_length_b 16.012990
_cell_length_c 26.385897
_cell_angle_alpha 90.000000
_cell_angle_beta 90.000000
_cell_angle_gamma 90.000000
_cell_volume 4378.123508
_symmetry_space_group_name_H-M "C C C M"
_symmetry_group_IT_number 66
_symmetry_cell_setting 'orthorhombic'
loop_
_space_group_symop_operation_xyz
x,y,z
-x,-y,z
x,-y,1/2-z
-x,y,1/2-z
-x,-y,-z
x,y,-z
-x,y,1/2+z
x,-y,1/2+z
1/2+x,1/2+y,z
1/2-x,1/2-y,z
1/2+x,1/2-y,1/2-z
1/2-x,1/2+y,1/2-z
1/2-x,1/2-y,-z
1/2+x,1/2+y,-z
1/2-x,1/2+y,1/2+z
1/2+x,1/2-y,1/2+z
loop_
_atom_site_type_symbol
_atom_site_label
_atom_site_fract_x
_atom_site_fract_y
_atom_site_fract_z
Si Si1 0.424413 0.199512 0.586383
Si Si2 0.227873 0.130795 0.667461
Si Si3 0.436411 0.137964 0.000000
Si Si4 0.750000 0.250000 0.744264
Si Si5 0.023534 0.189408 0.500000
Si Si6 0.172629 0.959244 0.500000
Si Si7 0.149013 0.023098 0.114779
Si Si8 0.568450 0.692816 0.156278
O O1 0.312370 0.170447 0.622711
O O2 0.472726 0.127206 0.548771
O O3 0.398957 0.280690 0.549765
O O4 0.545340 0.228647 0.620068
O O5 0.280923 0.171646 0.718955
O O6 0.077777 0.159708 0.665536
O O7 0.227444 0.032552 0.654928
O O8 0.413287 0.238613 0.000000
O O9 0.304445 0.092010 0.000000
O O10 0.635570 0.279397 0.707662
O O11 0.955438 0.100683 0.500000
O O12 0.175075 0.000156 0.444092
O O13 0.150866 0.121394 0.127493
O O14 0.000000 0.000000 0.122486
#
# Coordination Sequence:
#
# PCOD9499154 Si02
#       8
#    16  16   8   8   8   8  16  16
#     4   9  19  38  64  97 134 169 223 271 340 395
#     4  11  23  44  62  97 136 173 221 293 335 409
#     4   8  21  32  63  99 131 179 222 271 329 418
#     4  12  26  38  74  94 124 170 248 280 346 390
#     4   8  19  32  64 100 133 178 227 277 323 412
#     4  12  18  38  63 100 142 179 223 277 339 424
#     4  10  24  40  65  96 141 176 223 275 355 405
#     4  11  22  41  69  98 125 180 223 287 336 403
#
# _framework density 21.927202999999999
#
# number of rings (size 3 to 8) (size 9 to 14) (size 15 to 20)
#    1.000    0.667    3.333    1.000    2.333    2.000 
#    0.000   12.500    0.000    0.000    0.000    0.000 
#    0.000    0.000    0.000    0.000    0.000    0.000 
#
# Total GULP energy -267484.691038 kJ/mol
# GULP energy per Si atom -5572.597730 kJ/mol
# Density = 2.187730 g / cm^3
# Si number density = 21.927203 Si / 1000 Ang^3
#
#
#
# Elastic Constant Matrix: (Units=GPa)
#
#
# Indices 1 2 3 4 5 6 
#
# 1 73.4143 43.1152 58.3428 0.0000 0.0000 0.0000
# 2 43.1152 55.2375 33.5368 0.0000 0.0000 0.0000
# 3 58.3428 33.5368 161.2490 0.0000 0.0000 0.0000
# 4 0.0000 0.0000 0.0000 20.3447 0.0000 0.0000
# 5 0.0000 0.0000 0.0000 0.0000 44.5694 0.0000
# 6 0.0000 0.0000 0.0000 0.0000 0.0000 19.7850
#
#
#
# Elastic Compliance Matrix: (Units=1/GPa)
#
#
# Indices 1 2 3 4 5 6 
#
# 1 0.030848 -0.019802 -0.007043 0.000000 0.000000 0.000000
# 2 -0.019802 0.033432 0.000212 0.000000 0.000000 0.000000
# 3 -0.007043 0.000212 0.008706 0.000000 0.000000 0.000000
# 4 0.000000 0.000000 0.000000 0.049153 0.000000 0.000000
# 5 0.000000 0.000000 0.000000 0.000000 0.022437 0.000000
# 6 0.000000 0.000000 0.000000 0.000000 0.000000 0.050543
#
#
# Mechanical properties :
#
#
# Convention : Reuss Voigt Hill
#
# Bulk Modulus (GPa) = 50.71363 62.21005 56.46184
# Shear Modulus (GPa) = 19.61109 27.26689 23.43899
#
# Velocity S-wave (km/s) = 2.99385 3.53018 3.27302
# Velocity P-wave (km/s) = 5.92699 6.71186 6.33160
#
# Compressibility (1/GPa) = 0.01971857
#
# Stress axis : x y z
#
# Youngs Moduli (GPa) = 32.41722 29.91187 114.86596
#
# Poissons Ratio (x) = 0.59232 0.80898
# Poissons Ratio (y) = 0.64193 -0.02431
# Poissons Ratio (z) = 0.22831 -0.00633
#
# Static dielectric constant tensor:
#      x y z
#    x 1.804530 0.000000 0.000000 
#    y 0.000000 1.880870 0.000000 
#    z 0.000000 0.000000 1.840040 
# 
# From -- ./inp_files/57025.got.cif
#   From: 2010.05.17/outbox.cif.g08.bks.cpg/sg66_29_cif.got.tgz:57025.got - 2010.06.03 17:51:23.
