data_PCOD9499121
_publ_section_title
;
Structure prediction by ZEFSAII (Michael W. Deem and Ramdas Pophale) SiO2 
 PCOD9499121
Probable space group: C C C M
;
_chemical_formula_sum "Si O2"
_cell_formula_units_Z 104
_cell_length_a 21.451353
_cell_length_b 8.859090
_cell_length_c 25.931097
_cell_angle_alpha 90.000000
_cell_angle_beta 90.000000
_cell_angle_gamma 90.000000
_cell_volume 4927.931849
_symmetry_space_group_name_H-M "C C C M"
_symmetry_group_IT_number 66
_symmetry_cell_setting 'orthorhombic'
loop_
_space_group_symop_operation_xyz
x,y,z
-x,-y,z
x,-y,1/2-z
-x,y,1/2-z
-x,-y,-z
x,y,-z
-x,y,1/2+z
x,-y,1/2+z
1/2+x,1/2+y,z
1/2-x,1/2-y,z
1/2+x,1/2-y,1/2-z
1/2-x,1/2+y,1/2-z
1/2-x,1/2-y,-z
1/2+x,1/2+y,-z
1/2-x,1/2+y,1/2+z
1/2+x,1/2-y,1/2+z
loop_
_atom_site_type_symbol
_atom_site_label
_atom_site_fract_x
_atom_site_fract_y
_atom_site_fract_z
Si Si1 0.845536 0.206585 0.674488
Si Si2 0.490389 0.318643 0.189217
Si Si3 0.180123 0.558933 0.589640
Si Si4 0.195147 0.658264 0.777862
Si Si5 0.684503 0.540015 0.594307
Si Si6 0.329024 0.311590 0.000000
Si Si7 0.896008 0.319083 0.871006
O O1 0.920032 0.218565 0.673782
O O2 0.815815 0.340204 0.640995
O O3 0.824722 0.226967 0.732756
O O4 0.826279 0.052679 0.647219
O O5 0.500000 0.500000 0.185696
O O6 0.500000 0.277447 0.250000
O O7 0.537529 0.236385 0.149837
O O8 0.240638 0.451101 0.586880
O O9 0.182336 0.678739 0.544011
O O10 0.116135 0.464280 0.593025
O O11 0.209826 0.500000 0.750000
O O12 0.250000 0.750000 0.805596
O O13 0.140390 0.638348 0.818417
O O14 0.662636 0.437951 0.546130
O O15 0.641727 0.685571 0.600883
#
# Coordination Sequence:
#
# PCOD9499121 Si02
#       7
#    16  16  16  16  16   8  16
#     4  11  22  39  64  88 130 177 220 259 313 389
#     4  11  23  42  61  88 131 183 231 254 309 387
#     4  11  22  41  64 101 128 164 214 272 342 389
#     4  12  25  39  58  97 141 180 211 262 330 394
#     4  11  22  41  68  97 129 169 215 271 334 405
#     4  10  23  44  72  96 131 173 213 269 353 421
#     4  12  25  39  63  99 135 171 223 277 314 388
#
# _framework density 21.104189000000002
#
# number of rings (size 3 to 8) (size 9 to 14) (size 15 to 20)
#    0.000    0.769    4.615    5.077    2.154    1.231 
#    0.000    3.077    0.000   14.769    0.000    0.000 
#    0.000    0.000    0.000    0.000    0.000    0.000 
#
# Total GULP energy -289588.470780 kJ/mol
# GULP energy per Si atom -5569.009053 kJ/mol
# Density = 2.105615 g / cm^3
# Si number density = 21.104189 Si / 1000 Ang^3
#
#
#
# Elastic Constant Matrix: (Units=GPa)
#
#
# Indices 1 2 3 4 5 6 
#
# 1 96.1338 17.3825 10.0640 0.0000 0.0000 0.0000
# 2 17.3825 68.7080 21.7600 0.0000 0.0000 0.0000
# 3 10.0640 21.7600 102.5430 0.0000 0.0000 0.0000
# 4 0.0000 0.0000 0.0000 23.8605 0.0000 0.0000
# 5 0.0000 0.0000 0.0000 0.0000 -9.4128 0.0000
# 6 0.0000 0.0000 0.0000 0.0000 0.0000 24.7140
#
#
#
# Elastic Compliance Matrix: (Units=1/GPa)
#
#
# Indices 1 2 3 4 5 6 
#
# 1 0.010927 -0.002599 -0.000521 0.000000 0.000000 0.000000
# 2 -0.002599 0.016221 -0.003187 0.000000 0.000000 0.000000
# 3 -0.000521 -0.003187 0.010479 0.000000 0.000000 0.000000
# 4 0.000000 0.000000 0.000000 0.041910 0.000000 0.000000
# 5 0.000000 0.000000 0.000000 0.000000 -0.106238 0.000000
# 6 0.000000 0.000000 0.000000 0.000000 0.000000 0.040463
#
#
# Mechanical properties :
#
#
# Convention : Reuss Voigt Hill
#
# Bulk Modulus (GPa) = 39.97947 40.64421 40.31184
# Shear Modulus (GPa) = 144.03252 22.37757 83.20505
#
# Velocity S-wave (km/s) = 8.27022 3.25982 6.28581
# Velocity P-wave (km/s) = 10.49668 5.78526 8.47495
#
# Compressibility (1/GPa) = 0.02501284
#
# Stress axis : x y z
#
# Youngs Moduli (GPa) = 91.51891 61.64715 95.42503
#
# Poissons Ratio (x) = 0.16025 0.04970
# Poissons Ratio (y) = 0.23790 0.30413
# Poissons Ratio (z) = 0.04766 0.19648
#
# Static dielectric constant tensor:
#      x y z
#    x 1.778050 0.000000 0.000000 
#    y 0.000000 1.807010 0.000000 
#    z 0.000000 0.000000 1.736910 
# 
# From -- ./inp_files/65719.got.cif
#   From: 2010.05.17/outbox.cif.g08.bks.cpg/sg66_33_cif.got.tgz:65719.got - 2010.06.03 17:51:23.
