data_PCOD9499916
_publ_section_title
;
Structure prediction by ZEFSAII (Michael W. Deem and Ramdas Pophale) SiO2 
 PCOD9499916
Probable space group: C C C M
;
_chemical_formula_sum "Si O2"
_cell_formula_units_Z 56
_cell_length_a 11.324502
_cell_length_b 7.747501
_cell_length_c 27.357818
_cell_angle_alpha 90.000000
_cell_angle_beta 90.000000
_cell_angle_gamma 90.000000
_cell_volume 2400.281677
_symmetry_space_group_name_H-M "C C C M"
_symmetry_group_IT_number 66
_symmetry_cell_setting 'orthorhombic'
loop_
_space_group_symop_operation_xyz
x,y,z
-x,-y,z
x,-y,1/2-z
-x,y,1/2-z
-x,-y,-z
x,y,-z
-x,y,1/2+z
x,-y,1/2+z
1/2+x,1/2+y,z
1/2-x,1/2-y,z
1/2+x,1/2-y,1/2-z
1/2-x,1/2+y,1/2-z
1/2-x,1/2-y,-z
1/2+x,1/2+y,-z
1/2-x,1/2+y,1/2+z
1/2+x,1/2-y,1/2+z
loop_
_atom_site_type_symbol
_atom_site_label
_atom_site_fract_x
_atom_site_fract_y
_atom_site_fract_z
Si Si1 0.160320 0.411758 0.056384
Si Si2 0.494803 0.691421 0.375973
Si Si3 0.382585 0.690307 0.727803
Si Si4 0.750000 0.750000 0.612211
O O1 0.250000 0.250000 0.058106
O O2 0.049681 0.333503 0.086159
O O3 0.778014 0.420798 0.080294
O O4 0.132903 0.448384 0.000000
O O5 0.500000 0.500000 0.398729
O O6 0.407594 0.688249 0.330130
O O7 0.628732 0.726211 0.358484
O O8 0.384840 0.500000 0.750000
O O9 0.500000 0.782083 0.750000
O O10 0.250000 0.750000 0.737137
#
# Coordination Sequence:
#
# PCOD9499916 Si02
#       4
#    16  16  16   8
#     4  11  25  47  75 110 152 202 258 312 375 452
#     4  12  25  47  74 108 155 194 252 318 378 452
#     4  11  26  49  75 109 147 193 250 317 384 458
#     4  12  27  46  78 108 150 208 246 312 383 450
#
# _framework density 23.330594999999999
#
# number of rings (size 3 to 8) (size 9 to 14) (size 15 to 20)
#    0.000    0.571    5.714    2.143    2.000    4.571 
#    5.143    0.000    0.000    0.000    0.000    0.000 
#    0.000    0.000    0.000    0.000    0.000    0.000 
#
# Total GULP energy -156558.654843 kJ/mol
# GULP energy per Si atom -5591.380530 kJ/mol
# Density = 2.327749 g / cm^3
# Si number density = 23.330595 Si / 1000 Ang^3
#
#
#
# Elastic Constant Matrix: (Units=GPa)
#
#
# Indices 1 2 3 4 5 6 
#
# 1 220.5805 39.4433 23.6352 0.0000 0.0000 0.0000
# 2 39.4433 137.9315 29.7981 0.0000 0.0000 0.0000
# 3 23.6352 29.7981 87.5617 0.0000 0.0000 0.0000
# 4 0.0000 0.0000 0.0000 -10.3256 0.0000 0.0000
# 5 0.0000 0.0000 0.0000 0.0000 27.8085 0.0000
# 6 0.0000 0.0000 0.0000 0.0000 0.0000 38.7689
#
#
#
# Elastic Compliance Matrix: (Units=1/GPa)
#
#
# Indices 1 2 3 4 5 6 
#
# 1 0.004843 -0.001190 -0.000902 0.000000 0.000000 0.000000
# 2 -0.001190 0.008118 -0.002441 0.000000 0.000000 0.000000
# 3 -0.000902 -0.002441 0.012495 0.000000 0.000000 0.000000
# 4 0.000000 0.000000 0.000000 -0.096847 0.000000 0.000000
# 5 0.000000 0.000000 0.000000 0.000000 0.035960 0.000000
# 6 0.000000 0.000000 0.000000 0.000000 0.000000 0.025794
#
#
# Mechanical properties :
#
#
# Convention : Reuss Voigt Hill
#
# Bulk Modulus (GPa) = 61.01893 70.20298 65.61095
# Shear Modulus (GPa) = 1021.96280 34.79684 528.37982
#
# Velocity S-wave (km/s) = 20.95200 3.86614 15.06542
# Velocity P-wave (km/s) = 24.72905 7.07709 18.18806
#
# Compressibility (1/GPa) = 0.01638836
#
# Stress axis : x y z
#
# Youngs Moduli (GPa) = 206.48534 123.18793 80.03281
#
# Poissons Ratio (x) = 0.14659 0.07221
# Poissons Ratio (y) = 0.24571 0.19539
# Poissons Ratio (z) = 0.18631 0.30074
#
# Static dielectric constant tensor:
#      x y z
#    x 2.007570 0.000000 0.000000 
#    y 0.000000 1.888620 0.000000 
#    z 0.000000 0.000000 1.831900 
# 
# From -- ./inp_files/61943.got.cif
#   From: 2010.05.17/outbox.cif.g08.bks.cpg/sg66_31_cif.got.tgz:61943.got - 2010.06.03 17:51:23.
