data_PCOD9499801
_publ_section_title
;
Structure prediction by ZEFSAII (Michael W. Deem and Ramdas Pophale) SiO2 
 PCOD9499801
Probable space group: C C C M
;
_chemical_formula_sum "Si O2"
_cell_formula_units_Z 64
_cell_length_a 4.917345
_cell_length_b 34.812925
_cell_length_c 16.908336
_cell_angle_alpha 90.000000
_cell_angle_beta 90.000000
_cell_angle_gamma 90.000000
_cell_volume 2894.490066
_symmetry_space_group_name_H-M "C C C M"
_symmetry_group_IT_number 66
_symmetry_cell_setting 'orthorhombic'
loop_
_space_group_symop_operation_xyz
x,y,z
-x,-y,z
x,-y,1/2-z
-x,y,1/2-z
-x,-y,-z
x,y,-z
-x,y,1/2+z
x,-y,1/2+z
1/2+x,1/2+y,z
1/2-x,1/2-y,z
1/2+x,1/2-y,1/2-z
1/2-x,1/2+y,1/2-z
1/2-x,1/2-y,-z
1/2+x,1/2+y,-z
1/2-x,1/2+y,1/2+z
1/2+x,1/2-y,1/2+z
loop_
_atom_site_type_symbol
_atom_site_label
_atom_site_fract_x
_atom_site_fract_y
_atom_site_fract_z
Si Si1 0.932943 0.330366 0.342933
Si Si2 0.916147 0.212659 0.907631
Si Si3 0.108609 0.043552 0.589789
Si Si4 0.619019 0.919835 0.162314
O O1 0.688342 0.301453 0.364845
O O2 0.873309 0.374902 0.359058
O O3 0.000000 0.326230 0.250000
O O4 0.195134 0.320306 0.394656
O O5 0.750000 0.250000 0.877268
O O6 0.979015 0.219053 0.000000
O O7 0.054221 0.056624 0.500000
O O8 0.420968 0.053396 0.609231
O O9 0.924377 0.066143 0.651694
O O10 0.000000 0.000000 0.594939
O O11 0.500000 0.923156 0.250000
#
# Coordination Sequence:
#
# PCOD9499801 Si02
#       4
#    16  16  16  16
#     4  11  24  42  64  93 128 164 208 260 312 373
#     4  11  24  42  65  94 127 164 208 257 311 374
#     4  11  24  41  62  91 126 164 210 262 314 373
#     4  11  24  41  63  92 125 164 210 259 313 374
#
# _framework density 22.110976999999998
#
# number of rings (size 3 to 8) (size 9 to 14) (size 15 to 20)
#    0.000    1.000    0.000    6.000    0.000   19.000 
#    0.000    0.000    0.000    0.000    0.000    0.000 
#    0.000    0.000    0.000    0.000    0.000    0.000 
#
# Total GULP energy -178929.392508 kJ/mol
# GULP energy per Si atom -5591.543516 kJ/mol
# Density = 2.206065 g / cm^3
# Si number density = 22.110977 Si / 1000 Ang^3
#
#
#
# Elastic Constant Matrix: (Units=GPa)
#
#
# Indices 1 2 3 4 5 6 
#
# 1 119.5244 17.7331 13.3478 0.0000 0.0000 0.0000
# 2 17.7331 66.5500 29.4098 0.0000 0.0000 0.0000
# 3 13.3478 29.4098 39.7704 0.0000 0.0000 0.0000
# 4 0.0000 0.0000 0.0000 22.6997 0.0000 0.0000
# 5 0.0000 0.0000 0.0000 0.0000 38.3614 0.0000
# 6 0.0000 0.0000 0.0000 0.0000 0.0000 31.5469
#
#
#
# Elastic Compliance Matrix: (Units=1/GPa)
#
#
# Indices 1 2 3 4 5 6 
#
# 1 0.008798 -0.001544 -0.001811 0.000000 0.000000 0.000000
# 2 -0.001544 0.022592 -0.016188 0.000000 0.000000 0.000000
# 3 -0.001811 -0.016188 0.037723 0.000000 0.000000 0.000000
# 4 0.000000 0.000000 0.000000 0.044053 0.000000 0.000000
# 5 0.000000 0.000000 0.000000 0.000000 0.026068 0.000000
# 6 0.000000 0.000000 0.000000 0.000000 0.000000 0.031699
#
#
# Mechanical properties :
#
#
# Convention : Reuss Voigt Hill
#
# Bulk Modulus (GPa) = 33.30403 38.53626 35.92014
# Shear Modulus (GPa) = 22.72445 29.54520 26.13483
#
# Velocity S-wave (km/s) = 3.20932 3.65940 3.44173
# Velocity P-wave (km/s) = 5.36916 5.94318 5.66345
#
# Compressibility (1/GPa) = 0.03002640
#
# Stress axis : x y z
#
# Youngs Moduli (GPa) = 113.66476 44.26438 26.50900
#
# Poissons Ratio (x) = 0.06834 0.04801
# Poissons Ratio (y) = 0.17550 0.42913
# Poissons Ratio (z) = 0.20584 0.71655
#
# Static dielectric constant tensor:
#      x y z
#    x 1.769150 0.000000 0.000000 
#    y 0.000000 1.825170 0.000000 
#    z 0.000000 0.000000 1.799430 
# 
# From -- ./inp_files/35017.got.cif
#   From: 2010.05.17/outbox.cif.g08.bks.cpg/sg66_18_cif.got.tgz:35017.got - 2010.06.03 17:51:23.
