data_PCOD9499069
_publ_section_title
;
Structure prediction by ZEFSAII (Michael W. Deem and Ramdas Pophale) SiO2 
 PCOD9499069
Probable space group: C C C M
;
_chemical_formula_sum "Si O2"
_cell_formula_units_Z 68
_cell_length_a 21.293857
_cell_length_b 7.712722
_cell_length_c 18.399657
_cell_angle_alpha 90.000000
_cell_angle_beta 90.000000
_cell_angle_gamma 90.000000
_cell_volume 3021.841896
_symmetry_space_group_name_H-M "C C C M"
_symmetry_group_IT_number 66
_symmetry_cell_setting 'orthorhombic'
loop_
_space_group_symop_operation_xyz
x,y,z
-x,-y,z
x,-y,1/2-z
-x,y,1/2-z
-x,-y,-z
x,y,-z
-x,y,1/2+z
x,-y,1/2+z
1/2+x,1/2+y,z
1/2-x,1/2-y,z
1/2+x,1/2-y,1/2-z
1/2-x,1/2+y,1/2-z
1/2-x,1/2-y,-z
1/2+x,1/2+y,-z
1/2-x,1/2+y,1/2+z
1/2+x,1/2-y,1/2+z
loop_
_atom_site_type_symbol
_atom_site_label
_atom_site_fract_x
_atom_site_fract_y
_atom_site_fract_z
Si Si1 0.062562 0.885756 0.080901
Si Si2 0.155543 0.857078 0.348746
Si Si3 0.750000 0.750000 0.500000
Si Si4 0.399814 0.822666 0.216394
Si Si5 0.287361 0.009665 0.364520
O O1 0.063793 0.750820 0.147079
O O2 0.119750 0.017610 0.095984
O O3 0.069766 0.808208 0.000000
O O4 0.000000 0.000000 0.082727
O O5 0.111128 0.816154 0.279992
O O6 0.221160 0.949832 0.331226
O O7 0.173865 0.667577 0.378886
O O8 0.773854 0.615314 0.436544
O O9 0.426244 0.000000 0.250000
O O10 0.330319 0.873752 0.187570
#
# Coordination Sequence:
#
# PCOD9499069 Si02
#       5
#    16  16   4  16  16
#     4  11  26  46  70  99 136 186 233 289 351 412
#     4  10  23  42  68  97 140 181 230 283 341 425
#     4  12  24  34  56  96 138 186 212 280 336 414
#     4  10  23  44  69 104 138 180 226 290 346 418
#     4  10  24  38  64 103 141 177 223 284 358 413
#
# _framework density 22.502832000000001
#
# number of rings (size 3 to 8) (size 9 to 14) (size 15 to 20)
#    0.000    1.647    0.000    2.118    8.235   19.765 
#    0.000    8.235    0.000   11.294    0.000    0.000 
#    0.000    0.000    0.000    0.000    0.000    0.000 
#
# Total GULP energy -189739.864400 kJ/mol
# GULP energy per Si atom -5580.584247 kJ/mol
# Density = 2.245161 g / cm^3
# Si number density = 22.502832 Si / 1000 Ang^3
#
#
#
# Elastic Constant Matrix: (Units=GPa)
#
#
# Indices 1 2 3 4 5 6 
#
# 1 63.3445 8.8317 14.7152 0.0000 0.0000 0.0000
# 2 8.8317 103.0580 60.8061 0.0000 0.0000 0.0000
# 3 14.7152 60.8061 176.1853 0.0000 0.0000 0.0000
# 4 0.0000 0.0000 0.0000 33.7807 0.0000 0.0000
# 5 0.0000 0.0000 0.0000 0.0000 5.5953 0.0000
# 6 0.0000 0.0000 0.0000 0.0000 0.0000 8.6147
#
#
#
# Elastic Compliance Matrix: (Units=1/GPa)
#
#
# Indices 1 2 3 4 5 6 
#
# 1 0.016144 -0.000738 -0.001094 0.000000 0.000000 0.000000
# 2 -0.000738 0.012218 -0.004155 0.000000 0.000000 0.000000
# 3 -0.001094 -0.004155 0.007201 0.000000 0.000000 0.000000
# 4 0.000000 0.000000 0.000000 0.029603 0.000000 0.000000
# 5 0.000000 0.000000 0.000000 0.000000 0.178723 0.000000
# 6 0.000000 0.000000 0.000000 0.000000 0.000000 0.116080
#
#
# Mechanical properties :
#
#
# Convention : Reuss Voigt Hill
#
# Bulk Modulus (GPa) = 42.39234 56.81043 49.60139
# Shear Modulus (GPa) = 13.16462 26.81380 19.98921
#
# Velocity S-wave (km/s) = 2.42134 3.45566 2.98367
# Velocity P-wave (km/s) = 5.16689 6.42050 5.82751
#
# Compressibility (1/GPa) = 0.02358916
#
# Stress axis : x y z
#
# Youngs Moduli (GPa) = 61.94387 81.84552 138.86532
#
# Poissons Ratio (x) = 0.06042 0.15186
# Poissons Ratio (y) = 0.04573 0.57700
# Poissons Ratio (z) = 0.06774 0.34008
#
# Static dielectric constant tensor:
#      x y z
#    x 1.850470 0.000000 0.000000 
#    y 0.000000 1.840480 0.000000 
#    z 0.000000 0.000000 1.818260 
# 
# From -- ./inp_files/42491.got.cif
#   From: 2010.05.17/outbox.cif.g08.bks.cpg/sg66_22_cif.got.tgz:42491.got - 2010.06.03 17:51:23.
