data_PCOD9499418
_publ_section_title
;
Structure prediction by ZEFSAII (Michael W. Deem and Ramdas Pophale) SiO2 
 PCOD9499418
Probable space group: C C C M
;
_chemical_formula_sum "Si O2"
_cell_formula_units_Z 80
_cell_length_a 20.238784
_cell_length_b 20.007836
_cell_length_c 10.956439
_cell_angle_alpha 90.000000
_cell_angle_beta 90.000000
_cell_angle_gamma 90.000000
_cell_volume 4436.637640
_symmetry_space_group_name_H-M "C C C M"
_symmetry_group_IT_number 66
_symmetry_cell_setting 'orthorhombic'
loop_
_space_group_symop_operation_xyz
x,y,z
-x,-y,z
x,-y,1/2-z
-x,y,1/2-z
-x,-y,-z
x,y,-z
-x,y,1/2+z
x,-y,1/2+z
1/2+x,1/2+y,z
1/2-x,1/2-y,z
1/2+x,1/2-y,1/2-z
1/2-x,1/2+y,1/2-z
1/2-x,1/2-y,-z
1/2+x,1/2+y,-z
1/2-x,1/2+y,1/2+z
1/2+x,1/2-y,1/2+z
loop_
_atom_site_type_symbol
_atom_site_label
_atom_site_fract_x
_atom_site_fract_y
_atom_site_fract_z
Si Si1 0.365078 0.944922 0.145612
Si Si2 0.781652 0.073371 0.754989
Si Si3 0.226376 0.141875 0.000000
Si Si4 0.422002 0.806328 0.243703
Si Si5 0.685241 0.289377 0.142368
Si Si6 0.857069 0.729321 0.000000
O O1 0.286756 0.932103 0.168870
O O2 0.403388 0.877833 0.185086
O O3 0.382904 0.000000 0.250000
O O4 0.375538 0.960471 0.000000
O O5 0.767721 0.095533 0.617420
O O6 0.820848 0.136271 0.806725
O O7 0.812886 0.000000 0.750000
O O8 0.162683 0.191706 0.000000
O O9 0.288637 0.190105 0.000000
O O10 0.500000 0.796967 0.250000
O O11 0.379918 0.752951 0.166775
O O12 0.394952 0.794626 0.380034
O O13 0.750000 0.250000 0.196750
O O14 0.697638 0.295400 0.000000
#
# Coordination Sequence:
#
# PCOD9499418 Si02
#       6
#    16  16   8  16  16   8
#     4  11  25  42  62  91 128 170 213 257 306 368
#     4  11  23  35  62  94 128 159 203 258 315 375
#     4  11  20  40  62  94 124 160 211 258 321 365
#     4  12  26  41  63  92 126 166 211 258 313 376
#     4  11  21  40  63  89 122 160 208 263 310 363
#     4  11  22  40  64  89 125 165 204 270 311 367
#
# _framework density 18.031673999999999
#
# number of rings (size 3 to 8) (size 9 to 14) (size 15 to 20)
#    0.000    0.800    6.000    1.200   11.200    0.400 
#    0.000    1.000    0.000    0.600    0.000    2.800 
#    0.000    0.000    0.000    0.000    0.000    0.000 
#
# Total GULP energy -223191.856066 kJ/mol
# GULP energy per Si atom -5579.796402 kJ/mol
# Density = 1.799063 g / cm^3
# Si number density = 18.031674 Si / 1000 Ang^3
#
#
#
# Elastic Constant Matrix: (Units=GPa)
#
#
# Indices 1 2 3 4 5 6 
#
# 1 69.5609 44.4224 7.4512 0.0000 0.0000 0.0000
# 2 44.4224 153.6020 31.2171 0.0000 0.0000 0.0000
# 3 7.4512 31.2171 114.8496 0.0000 0.0000 0.0000
# 4 0.0000 0.0000 0.0000 55.3896 0.0000 0.0000
# 5 0.0000 0.0000 0.0000 0.0000 329.2917 0.0000
# 6 0.0000 0.0000 0.0000 0.0000 0.0000 13.1662
#
#
#
# Elastic Compliance Matrix: (Units=1/GPa)
#
#
# Indices 1 2 3 4 5 6 
#
# 1 0.017640 -0.005154 0.000256 0.000000 0.000000 0.000000
# 2 -0.005154 0.008397 -0.001948 0.000000 0.000000 0.000000
# 3 0.000256 -0.001948 0.009220 0.000000 0.000000 0.000000
# 4 0.000000 0.000000 0.000000 0.018054 0.000000 0.000000
# 5 0.000000 0.000000 0.000000 0.000000 0.003037 0.000000
# 6 0.000000 0.000000 0.000000 0.000000 0.000000 0.075952
#
#
# Mechanical properties :
#
#
# Convention : Reuss Voigt Hill
#
# Bulk Modulus (GPa) = 46.36963 56.02153 51.19558
# Shear Modulus (GPa) = 32.64188 96.56429 64.60308
#
# Velocity S-wave (km/s) = 4.25932 7.32590 5.99211
# Velocity P-wave (km/s) = 7.06828 10.13382 8.73656
#
# Compressibility (1/GPa) = 0.02156584
#
# Stress axis : x y z
#
# Youngs Moduli (GPa) = 56.69083 119.09519 108.46135
#
# Poissons Ratio (x) = 0.61376 -0.02780
# Poissons Ratio (y) = 0.29216 0.21127
# Poissons Ratio (z) = -0.01453 0.23199
#
# Static dielectric constant tensor:
#      x y z
#    x 1.597680 0.000000 0.000000 
#    y 0.000000 1.656850 0.000000 
#    z 0.000000 0.000000 1.680460 
# 
# From -- ./inp_files/18735.got.cif
#   From: 2010.05.17/outbox.cif.g08.bks.cpg/sg66_10_cif.got.tgz:18735.got - 2010.06.03 17:51:23.
