data_PCOD9499621
_publ_section_title
;
Structure prediction by ZEFSAII (Michael W. Deem and Ramdas Pophale) SiO2 
 PCOD9499621
Probable space group: C C C M
;
_chemical_formula_sum "Si O2"
_cell_formula_units_Z 96
_cell_length_a 8.326508
_cell_length_b 27.965694
_cell_length_c 18.557983
_cell_angle_alpha 90.000000
_cell_angle_beta 90.000000
_cell_angle_gamma 90.000000
_cell_volume 4321.348357
_symmetry_space_group_name_H-M "C C C M"
_symmetry_group_IT_number 66
_symmetry_cell_setting 'orthorhombic'
loop_
_space_group_symop_operation_xyz
x,y,z
-x,-y,z
x,-y,1/2-z
-x,y,1/2-z
-x,-y,-z
x,y,-z
-x,y,1/2+z
x,-y,1/2+z
1/2+x,1/2+y,z
1/2-x,1/2-y,z
1/2+x,1/2-y,1/2-z
1/2-x,1/2+y,1/2-z
1/2-x,1/2-y,-z
1/2+x,1/2+y,-z
1/2-x,1/2+y,1/2+z
1/2+x,1/2-y,1/2+z
loop_
_atom_site_type_symbol
_atom_site_label
_atom_site_fract_x
_atom_site_fract_y
_atom_site_fract_z
Si Si1 0.815683 0.006132 0.663700
Si Si2 0.002460 0.265556 0.084419
Si Si3 0.622437 0.098725 0.684791
Si Si4 0.668475 0.676398 0.414399
Si Si5 0.831756 0.584175 0.587045
Si Si6 0.827279 0.299246 0.712287
O O1 0.741663 0.058515 0.656099
O O2 0.810635 0.000000 0.750000
O O3 0.709151 0.966619 0.622591
O O4 0.000000 0.000000 0.639704
O O5 0.838419 0.295997 0.093826
O O6 0.964561 0.212467 0.115602
O O7 0.141349 0.289940 0.128335
O O8 0.035145 0.263291 0.000000
O O9 0.500000 0.083683 0.750000
O O10 0.496270 0.105605 0.619390
O O11 0.720773 0.145029 0.713966
O O12 0.639127 0.674383 0.500000
O O13 0.694583 0.622534 0.389903
O O14 0.837857 0.581601 0.500000
O O15 0.750000 0.250000 0.740732
O O16 0.000000 0.300881 0.750000
#
# Coordination Sequence:
#
# PCOD9499621 Si02
#       6
#    16  16  16  16  16  16
#     4  11  25  44  65  94 128 171 215 263 331 398
#     4   9  17  34  59  86 122 163 207 254 306 367
#     4  11  23  43  66  91 128 170 218 269 320 386
#     4   8  16  31  59  93 120 158 204 252 308 366
#     4  11  22  39  69 101 128 167 219 274 319 373
#     4  11  26  41  59  93 132 170 209 264 319 374
#
# _framework density 22.215288999999999
#
# number of rings (size 3 to 8) (size 9 to 14) (size 15 to 20)
#    0.000    1.833    3.333    1.500    2.333    3.333 
#    3.000    0.000    0.000    0.000    0.000    0.000 
#    0.000    0.000    0.000    0.000    0.000    0.000 
#
# Total GULP energy -267636.957244 kJ/mol
# GULP energy per Si atom -5575.769943 kJ/mol
# Density = 2.216473 g / cm^3
# Si number density = 22.215289 Si / 1000 Ang^3
#
#
#
# Elastic Constant Matrix: (Units=GPa)
#
#
# Indices 1 2 3 4 5 6 
#
# 1 41.7558 36.5111 4.8573 0.0000 0.0000 0.0000
# 2 36.5111 174.2002 14.5048 0.0000 0.0000 0.0000
# 3 4.8573 14.5048 82.3422 0.0000 0.0000 0.0000
# 4 0.0000 0.0000 0.0000 11.8104 0.0000 0.0000
# 5 0.0000 0.0000 0.0000 0.0000 15.6851 0.0000
# 6 0.0000 0.0000 0.0000 0.0000 0.0000 38.0312
#
#
#
# Elastic Compliance Matrix: (Units=1/GPa)
#
#
# Indices 1 2 3 4 5 6 
#
# 1 0.029358 -0.006098 -0.000658 0.000000 0.000000 0.000000
# 2 -0.006098 0.007093 -0.000890 0.000000 0.000000 0.000000
# 3 -0.000658 -0.000890 0.012340 0.000000 0.000000 0.000000
# 4 0.000000 0.000000 0.000000 0.084671 0.000000 0.000000
# 5 0.000000 0.000000 0.000000 0.000000 0.063755 0.000000
# 6 0.000000 0.000000 0.000000 0.000000 0.000000 0.026294
#
#
# Mechanical properties :
#
#
# Convention : Reuss Voigt Hill
#
# Bulk Modulus (GPa) = 29.85147 45.56050 37.70598
# Shear Modulus (GPa) = 20.00256 29.26702 24.63479
#
# Velocity S-wave (km/s) = 3.00392 3.63358 3.33364
# Velocity P-wave (km/s) = 5.04954 6.17713 5.64158
#
# Compressibility (1/GPa) = 0.03349919
#
# Stress axis : x y z
#
# Youngs Moduli (GPa) = 34.06267 140.98841 81.03759
#
# Poissons Ratio (x) = 0.85980 0.05328
# Poissons Ratio (y) = 0.20773 0.07210
# Poissons Ratio (z) = 0.02240 0.12543
#
# Static dielectric constant tensor:
#      x y z
#    x 1.832590 0.000000 0.000000 
#    y 0.000000 1.910690 0.000000 
#    z 0.000000 0.000000 1.832780 
# 
# From -- ./inp_files/47348.got.cif
#   From: 2010.05.17/outbox.cif.g08.bks.cpg/sg66_24_cif.got.tgz:47348.got - 2010.06.03 17:51:23.
