data_PCOD9499084
_publ_section_title
;
Structure prediction by ZEFSAII (Michael W. Deem and Ramdas Pophale) SiO2 
 PCOD9499084
Probable space group: C C C M
;
_chemical_formula_sum "Si O2"
_cell_formula_units_Z 60
_cell_length_a 13.280603
_cell_length_b 15.167842
_cell_length_c 13.991474
_cell_angle_alpha 90.000000
_cell_angle_beta 90.000000
_cell_angle_gamma 90.000000
_cell_volume 2818.415770
_symmetry_space_group_name_H-M "C C C M"
_symmetry_group_IT_number 66
_symmetry_cell_setting 'orthorhombic'
loop_
_space_group_symop_operation_xyz
x,y,z
-x,-y,z
x,-y,1/2-z
-x,y,1/2-z
-x,-y,-z
x,y,-z
-x,y,1/2+z
x,-y,1/2+z
1/2+x,1/2+y,z
1/2-x,1/2-y,z
1/2+x,1/2-y,1/2-z
1/2-x,1/2+y,1/2-z
1/2-x,1/2-y,-z
1/2+x,1/2+y,-z
1/2-x,1/2+y,1/2+z
1/2+x,1/2-y,1/2+z
loop_
_atom_site_type_symbol
_atom_site_label
_atom_site_fract_x
_atom_site_fract_y
_atom_site_fract_z
Si Si1 0.841330 0.817614 0.110805
Si Si2 0.500000 0.765514 0.750000
Si Si3 0.170159 0.329835 0.612574
Si Si4 0.169457 0.976113 0.889036
Si Si5 0.500000 0.500000 0.250000
O O1 0.750000 0.750000 0.127712
O O2 0.811676 0.919730 0.124154
O O3 0.930443 0.791534 0.180367
O O4 0.872336 0.808070 0.000000
O O5 0.575855 0.819553 0.682034
O O6 0.141129 0.328193 0.500000
O O7 0.250000 0.250000 0.627127
O O8 0.233239 0.418226 0.632192
O O9 0.076238 0.951156 0.821851
O O10 0.142491 0.960384 0.000000
#
# Coordination Sequence:
#
# PCOD9499084 Si02
#       5
#    16   8  16  16   4
#     4  10  23  43  65  92 129 170 215 268 320 383
#     4  12  23  40  70 101 130 172 227 268 328 393
#     4  10  24  44  65  95 139 177 214 271 335 393
#     4  10  24  43  64  96 134 169 213 271 329 387
#     4  12  24  36  72 102 124 166 228 268 324 394
#
# _framework density 21.288556
#
# number of rings (size 3 to 8) (size 9 to 14) (size 15 to 20)
#    0.000    1.600    0.000    2.800   11.200    0.000 
#    0.000    2.667    0.000    6.400    0.000    0.000 
#    0.000    0.000    0.000    0.000    0.000    0.000 
#
# Total GULP energy -167919.937629 kJ/mol
# GULP energy per Si atom -5597.331254 kJ/mol
# Density = 2.124010 g / cm^3
# Si number density = 21.288556 Si / 1000 Ang^3
#
#
#
# Elastic Constant Matrix: (Units=GPa)
#
#
# Indices 1 2 3 4 5 6 
#
# 1 159.3859 100.9980 125.5920 0.0000 0.0000 0.0000
# 2 100.9980 135.0127 91.6564 0.0000 0.0000 0.0000
# 3 125.5920 91.6564 165.3816 0.0000 0.0000 0.0000
# 4 0.0000 0.0000 0.0000 14.5912 0.0000 0.0000
# 5 0.0000 0.0000 0.0000 0.0000 49.6872 0.0000
# 6 0.0000 0.0000 0.0000 0.0000 0.0000 36.2384
#
#
#
# Elastic Compliance Matrix: (Units=1/GPa)
#
#
# Indices 1 2 3 4 5 6 
#
# 1 0.019118 -0.007127 -0.010568 0.000000 0.000000 0.000000
# 2 -0.007127 0.014531 -0.002641 0.000000 0.000000 0.000000
# 3 -0.010568 -0.002641 0.015536 0.000000 0.000000 0.000000
# 4 0.000000 0.000000 0.000000 0.068535 0.000000 0.000000
# 5 0.000000 0.000000 0.000000 0.000000 0.020126 0.000000
# 6 0.000000 0.000000 0.000000 0.000000 0.000000 0.027595
#
#
# Mechanical properties :
#
#
# Convention : Reuss Voigt Hill
#
# Bulk Modulus (GPa) = 117.47806 121.80810 119.64308
# Shear Modulus (GPa) = 23.92916 29.53894 26.73405
#
# Velocity S-wave (km/s) = 3.35631 3.72902 3.54756
# Velocity P-wave (km/s) = 8.38589 8.71107 8.55003
#
# Compressibility (1/GPa) = 0.00851223
#
# Stress axis : x y z
#
# Youngs Moduli (GPa) = 52.30777 68.81901 64.36596
#
# Poissons Ratio (x) = 0.49044 0.68025
# Poissons Ratio (y) = 0.37277 0.17000
# Poissons Ratio (z) = 0.55281 0.18177
#
# Static dielectric constant tensor:
#      x y z
#    x 1.724280 0.000000 0.000000 
#    y 0.000000 1.794410 0.000000 
#    z 0.000000 0.000000 1.798140 
# 
# From -- ./inp_files/27764.got.cif
#   From: 2010.05.17/outbox.cif.g08.bks.cpg/sg66_14_cif.got.tgz:27764.got - 2010.06.03 17:51:23.
