data_PCOD9499876
_publ_section_title
;
Structure prediction by ZEFSAII (Michael W. Deem and Ramdas Pophale) SiO2 
 PCOD9499876
Probable space group: C C C M
;
_chemical_formula_sum "Si O2"
_cell_formula_units_Z 68
_cell_length_a 8.047069
_cell_length_b 15.837396
_cell_length_c 21.150573
_cell_angle_alpha 90.000000
_cell_angle_beta 90.000000
_cell_angle_gamma 90.000000
_cell_volume 2695.526705
_symmetry_space_group_name_H-M "C C C M"
_symmetry_group_IT_number 66
_symmetry_cell_setting 'orthorhombic'
loop_
_space_group_symop_operation_xyz
x,y,z
-x,-y,z
x,-y,1/2-z
-x,y,1/2-z
-x,-y,-z
x,y,-z
-x,y,1/2+z
x,-y,1/2+z
1/2+x,1/2+y,z
1/2-x,1/2-y,z
1/2+x,1/2-y,1/2-z
1/2-x,1/2+y,1/2-z
1/2-x,1/2-y,-z
1/2+x,1/2+y,-z
1/2-x,1/2+y,1/2+z
1/2+x,1/2-y,1/2+z
loop_
_atom_site_type_symbol
_atom_site_label
_atom_site_fract_x
_atom_site_fract_y
_atom_site_fract_z
Si Si1 0.217727 0.649069 0.000000
Si Si2 0.993206 0.404091 0.323116
Si Si3 0.838185 0.885097 0.637898
Si Si4 0.500000 0.500000 0.750000
Si Si5 0.630664 0.076233 0.500000
Si Si6 0.196238 0.162467 0.893222
O O1 0.250000 0.750000 0.000000
O O2 0.296075 0.603382 0.937896
O O3 0.016510 0.646090 0.000000
O O4 0.156439 0.352909 0.343250
O O5 0.000000 0.500000 0.351832
O O6 0.000000 0.414805 0.250000
O O7 0.825271 0.355961 0.337925
O O8 0.010750 0.836427 0.631384
O O9 0.884572 0.949709 0.697338
O O10 0.753373 0.088695 0.558674
O O11 0.500000 0.000000 0.500000
O O12 0.250000 0.250000 0.923489
#
# Coordination Sequence:
#
# PCOD9499876 Si02
#       6
#     8  16  16   4   8  16
#     4  12  27  49  83 116 162 217 274 348 430 504
#     4  11  24  47  75 107 155 208 264 329 399 489
#     4  12  26  48  82 114 160 213 269 344 418 496
#     4  12  28  50  78 120 156 208 286 340 414 506
#     4  12  26  48  78 114 151 209 269 334 415 498
#     4  12  26  46  72 111 156 200 259 334 410 493
#
# _framework density 25.226983000000001
#
# number of rings (size 3 to 8) (size 9 to 14) (size 15 to 20)
#    0.000    0.235    2.353    7.412    3.294    0.471 
#    6.353    1.176    0.000    0.000    0.000    0.000 
#    0.000    0.000    0.000    0.000    0.000    0.000 
#
# Total GULP energy -189428.396007 kJ/mol
# GULP energy per Si atom -5571.423412 kJ/mol
# Density = 2.516956 g / cm^3
# Si number density = 25.226983 Si / 1000 Ang^3
#
#
#
# Elastic Constant Matrix: (Units=GPa)
#
#
# Indices 1 2 3 4 5 6 
#
# 1 212.8923 35.0907 27.3748 0.0000 0.0000 0.0000
# 2 35.0907 104.4717 26.0150 0.0000 0.0000 0.0000
# 3 27.3748 26.0150 176.5586 0.0000 0.0000 0.0000
# 4 0.0000 0.0000 0.0000 10.8145 0.0000 0.0000
# 5 0.0000 0.0000 0.0000 0.0000 52.9712 0.0000
# 6 0.0000 0.0000 0.0000 0.0000 0.0000 16.3052
#
#
#
# Elastic Compliance Matrix: (Units=1/GPa)
#
#
# Indices 1 2 3 4 5 6 
#
# 1 0.005024 -0.001550 -0.000550 0.000000 0.000000 0.000000
# 2 -0.001550 0.010415 -0.001294 0.000000 0.000000 0.000000
# 3 -0.000550 -0.001294 0.005940 0.000000 0.000000 0.000000
# 4 0.000000 0.000000 0.000000 0.092469 0.000000 0.000000
# 5 0.000000 0.000000 0.000000 0.000000 0.018878 0.000000
# 6 0.000000 0.000000 0.000000 0.000000 0.000000 0.061330
#
#
# Mechanical properties :
#
#
# Convention : Reuss Voigt Hill
#
# Bulk Modulus (GPa) = 68.54728 74.54264 71.54496
# Shear Modulus (GPa) = 24.30626 43.04764 33.67695
#
# Velocity S-wave (km/s) = 3.10740 4.13536 3.65767
# Velocity P-wave (km/s) = 6.33291 7.23978 6.80148
#
# Compressibility (1/GPa) = 0.01458847
#
# Stress axis : x y z
#
# Youngs Moduli (GPa) = 199.06359 96.01568 168.35339
#
# Poissons Ratio (x) = 0.14885 0.09267
# Poissons Ratio (y) = 0.30860 0.21789
# Poissons Ratio (z) = 0.10958 0.12427
#
# Static dielectric constant tensor:
#      x y z
#    x 1.962330 0.000000 0.000000 
#    y 0.000000 2.367450 0.000000 
#    z 0.000000 0.000000 2.019040 
# 
# From -- ./inp_files/46801.got.cif
#   From: 2010.05.17/outbox.cif.g08.bks.cpg/sg66_24_cif.got.tgz:46801.got - 2010.06.03 17:51:23.
