data_PCOD9499306
_publ_section_title
;
Structure prediction by ZEFSAII (Michael W. Deem and Ramdas Pophale) SiO2 
 PCOD9499306
Probable space group: C C C M
;
_chemical_formula_sum "Si O2"
_cell_formula_units_Z 96
_cell_length_a 11.718004
_cell_length_b 20.041442
_cell_length_c 24.282895
_cell_angle_alpha 90.000000
_cell_angle_beta 90.000000
_cell_angle_gamma 90.000000
_cell_volume 5702.733414
_symmetry_space_group_name_H-M "C C C M"
_symmetry_group_IT_number 66
_symmetry_cell_setting 'orthorhombic'
loop_
_space_group_symop_operation_xyz
x,y,z
-x,-y,z
x,-y,1/2-z
-x,y,1/2-z
-x,-y,-z
x,y,-z
-x,y,1/2+z
x,-y,1/2+z
1/2+x,1/2+y,z
1/2-x,1/2-y,z
1/2+x,1/2-y,1/2-z
1/2-x,1/2+y,1/2-z
1/2-x,1/2-y,-z
1/2+x,1/2+y,-z
1/2-x,1/2+y,1/2+z
1/2+x,1/2-y,1/2+z
loop_
_atom_site_type_symbol
_atom_site_label
_atom_site_fract_x
_atom_site_fract_y
_atom_site_fract_z
Si Si1 0.357463 0.571157 0.684886
Si Si2 0.165938 0.952376 0.500000
Si Si3 0.925280 0.421142 0.064864
Si Si4 0.614570 0.414273 0.815588
Si Si5 0.225712 0.172168 0.405256
Si Si6 0.829971 0.561214 0.101881
Si Si7 0.913957 0.893963 0.500000
O O1 0.358586 0.584596 0.750333
O O2 0.481804 0.600757 0.669423
O O3 0.367534 0.492232 0.670075
O O4 0.238822 0.587942 0.654861
O O5 0.238843 0.933389 0.446934
O O6 0.045915 0.914350 0.500000
O O7 0.147311 0.032867 0.500000
O O8 0.839875 0.360735 0.071120
O O9 0.871082 0.483355 0.098914
O O10 0.050510 0.404011 0.087489
O O11 0.932507 0.439541 0.000000
O O12 0.693540 0.363664 0.848182
O O13 0.250000 0.250000 0.400549
O O14 0.127090 0.148408 0.447503
#
# Coordination Sequence:
#
# PCOD9499306 Si02
#       7
#    16   8  16  16  16  16   8
#     4   9  17  32  61  80 109 128 175 243 285 325
#     4  11  18  30  56  85 117 128 170 255 280 318
#     4  11  20  33  51  80 119 151 177 208 278 337
#     4   9  18  34  54  87 103 137 177 232 292 305
#     4  12  22  36  55  76 114 151 187 217 257 342
#     4  11  17  31  54  83 111 143 169 228 283 328
#     4  11  21  31  51  88 110 139 188 225 283 318
#
# _framework density 16.834033000000002
#
# number of rings (size 3 to 8) (size 9 to 14) (size 15 to 20)
#    0.000    1.500    5.833    2.750    0.000    2.667 
#    0.000    0.833    7.333    4.000    0.000    0.000 
#    0.000    0.000    0.000    0.000    0.000    0.000 
#
# Total GULP energy -267284.367948 kJ/mol
# GULP energy per Si atom -5568.424332 kJ/mol
# Density = 1.679572 g / cm^3
# Si number density = 16.834033 Si / 1000 Ang^3
#
#
#
# Elastic Constant Matrix: (Units=GPa)
#
#
# Indices 1 2 3 4 5 6 
#
# 1 137.4891 33.2694 51.4202 0.0000 0.0000 0.0000
# 2 33.2694 76.8986 30.0608 0.0000 0.0000 0.0000
# 3 51.4202 30.0608 60.2765 0.0000 0.0000 0.0000
# 4 0.0000 0.0000 0.0000 8.0534 0.0000 0.0000
# 5 0.0000 0.0000 0.0000 0.0000 30.8749 0.0000
# 6 0.0000 0.0000 0.0000 0.0000 0.0000 15.3181
#
#
#
# Elastic Compliance Matrix: (Units=1/GPa)
#
#
# Indices 1 2 3 4 5 6 
#
# 1 0.010789 -0.001329 -0.008541 0.000000 0.000000 0.000000
# 2 -0.001329 0.016317 -0.007004 0.000000 0.000000 0.000000
# 3 -0.008541 -0.007004 0.027369 0.000000 0.000000 0.000000
# 4 0.000000 0.000000 0.000000 0.124171 0.000000 0.000000
# 5 0.000000 0.000000 0.000000 0.000000 0.032389 0.000000
# 6 0.000000 0.000000 0.000000 0.000000 0.000000 0.065282
#
#
# Mechanical properties :
#
#
# Convention : Reuss Voigt Hill
#
# Bulk Modulus (GPa) = 48.24483 56.01833 52.13158
# Shear Modulus (GPa) = 15.77414 21.51021 18.64217
#
# Velocity S-wave (km/s) = 3.06443 3.57848 3.33139
# Velocity P-wave (km/s) = 6.42202 7.10093 6.76999
#
# Compressibility (1/GPa) = 0.02072761
#
# Stress axis : x y z
#
# Youngs Moduli (GPa) = 92.68474 61.28577 36.53716
#
# Poissons Ratio (x) = 0.08145 0.31207
# Poissons Ratio (y) = 0.12318 0.25590
# Poissons Ratio (z) = 0.79164 0.42923
#
# Static dielectric constant tensor:
#      x y z
#    x 1.604280 0.000000 0.000000 
#    y 0.000000 1.549720 0.000000 
#    z 0.000000 0.000000 1.617080 
# 
# From -- ./inp_files/56980.got.cif
#   From: 2010.05.17/outbox.cif.g08.bks.cpg/sg66_29_cif.got.tgz:56980.got - 2010.06.03 17:51:23.
