data_PCOD9499149
_publ_section_title
;
Structure prediction by ZEFSAII (Michael W. Deem and Ramdas Pophale) SiO2 
 PCOD9499149
Probable space group: C C C M
;
_chemical_formula_sum "Si O2"
_cell_formula_units_Z 96
_cell_length_a 14.908952
_cell_length_b 22.951278
_cell_length_c 14.343304
_cell_angle_alpha 90.000000
_cell_angle_beta 90.000000
_cell_angle_gamma 90.000000
_cell_volume 4907.984620
_symmetry_space_group_name_H-M "C C C M"
_symmetry_group_IT_number 66
_symmetry_cell_setting 'orthorhombic'
loop_
_space_group_symop_operation_xyz
x,y,z
-x,-y,z
x,-y,1/2-z
-x,y,1/2-z
-x,-y,-z
x,y,-z
-x,y,1/2+z
x,-y,1/2+z
1/2+x,1/2+y,z
1/2-x,1/2-y,z
1/2+x,1/2-y,1/2-z
1/2-x,1/2+y,1/2-z
1/2-x,1/2-y,-z
1/2+x,1/2+y,-z
1/2-x,1/2+y,1/2+z
1/2+x,1/2-y,1/2+z
loop_
_atom_site_type_symbol
_atom_site_label
_atom_site_fract_x
_atom_site_fract_y
_atom_site_fract_z
Si Si1 0.144277 0.238556 0.676409
Si Si2 0.406612 0.637117 0.298541
Si Si3 0.910174 0.369442 0.192994
Si Si4 0.821742 0.404835 0.000000
Si Si5 0.218164 0.972342 0.500000
Si Si6 0.367577 0.657692 0.000000
Si Si7 0.547852 0.403425 0.500000
Si Si8 0.241395 0.563156 0.705344
O O1 0.250000 0.250000 0.667446
O O2 0.125216 0.200859 0.768310
O O3 0.094543 0.300092 0.677850
O O4 0.115786 0.197369 0.590685
O O5 0.500000 0.625088 0.250000
O O6 0.419128 0.629365 0.407849
O O7 0.335922 0.589558 0.262214
O O8 0.831249 0.391254 0.260167
O O9 0.000000 0.385418 0.250000
O O10 0.883618 0.397389 0.092197
O O11 0.764450 0.464447 0.000000
O O12 0.738251 0.359096 0.000000
O O13 0.108793 0.962986 0.500000
O O14 0.253282 0.942890 0.594457
O O15 0.439245 0.604171 0.000000
O O16 0.225115 0.500000 0.750000
#
# Coordination Sequence:
#
# PCOD9499149 Si02
#       8
#    16  16  16   8   8   8   8  16
#     4  12  22  42  67  99 136 182 226 284 347 405
#     4  11  22  41  65  97 140 180 219 275 348 416
#     4  12  27  44  68 100 132 179 240 286 342 401
#     4  12  23  46  70  99 137 181 229 294 335 400
#     4  10  24  43  68  98 142 179 220 277 342 405
#     4  12  22  39  70 106 140 171 228 285 349 412
#     4  10  24  39  64 107 140 178 220 271 344 427
#     4  11  23  44  67  96 135 178 228 282 335 405
#
# _framework density 19.559964000000001
#
# number of rings (size 3 to 8) (size 9 to 14) (size 15 to 20)
#    0.000    0.667    6.667    1.250    0.000    1.667 
#    0.000    5.417    0.000    0.000    0.000    0.000 
#    0.000    0.000    0.000    0.000    0.000    0.000 
#
# Total GULP energy -267882.232202 kJ/mol
# GULP energy per Si atom -5580.879838 kJ/mol
# Density = 1.951544 g / cm^3
# Si number density = 19.559964 Si / 1000 Ang^3
#
#
#
# Elastic Constant Matrix: (Units=GPa)
#
#
# Indices 1 2 3 4 5 6 
#
# 1 95.6822 31.7081 52.8630 0.0000 0.0000 0.0000
# 2 31.7081 86.4621 42.6146 0.0000 0.0000 0.0000
# 3 52.8630 42.6146 116.4997 0.0000 0.0000 0.0000
# 4 0.0000 0.0000 0.0000 12.5036 0.0000 0.0000
# 5 0.0000 0.0000 0.0000 0.0000 4.1399 0.0000
# 6 0.0000 0.0000 0.0000 0.0000 0.0000 11.6109
#
#
#
# Elastic Compliance Matrix: (Units=1/GPa)
#
#
# Indices 1 2 3 4 5 6 
#
# 1 0.014381 -0.002510 -0.005607 0.000000 0.000000 0.000000
# 2 -0.002510 0.014548 -0.004182 0.000000 0.000000 0.000000
# 3 -0.005607 -0.004182 0.012658 0.000000 0.000000 0.000000
# 4 0.000000 0.000000 0.000000 0.079977 0.000000 0.000000
# 5 0.000000 0.000000 0.000000 0.000000 0.241549 0.000000
# 6 0.000000 0.000000 0.000000 0.000000 0.000000 0.086126
#
#
# Mechanical properties :
#
#
# Convention : Reuss Voigt Hill
#
# Bulk Modulus (GPa) = 58.86908 61.44614 60.15761
# Shear Modulus (GPa) = 10.42751 17.08145 13.75448
#
# Velocity S-wave (km/s) = 2.31141 2.95835 2.65466
# Velocity P-wave (km/s) = 6.10619 6.56898 6.34181
#
# Compressibility (1/GPa) = 0.01698685
#
# Stress axis : x y z
#
# Youngs Moduli (GPa) = 69.53562 68.73928 79.00148
#
# Poissons Ratio (x) = 0.17255 0.44299
# Poissons Ratio (y) = 0.17455 0.33041
# Poissons Ratio (z) = 0.38991 0.28749
#
# Static dielectric constant tensor:
#      x y z
#    x 1.697110 0.000000 0.000000 
#    y 0.000000 1.694890 0.000000 
#    z 0.000000 0.000000 1.659750 
# 
# From -- ./inp_files/28487.got.cif
#   From: 2010.05.17/outbox.cif.g08.bks.cpg/sg66_15_cif.got.tgz:28487.got - 2010.06.03 17:51:23.
