data_PCOD9499226
_publ_section_title
;
Structure prediction by ZEFSAII (Michael W. Deem and Ramdas Pophale) SiO2 
 PCOD9499226
Probable space group: C C C M
;
_chemical_formula_sum "Si O2"
_cell_formula_units_Z 84
_cell_length_a 22.719520
_cell_length_b 5.594278
_cell_length_c 29.339298
_cell_angle_alpha 90.000000
_cell_angle_beta 90.000000
_cell_angle_gamma 90.000000
_cell_volume 3729.004558
_symmetry_space_group_name_H-M "C C C M"
_symmetry_group_IT_number 66
_symmetry_cell_setting 'orthorhombic'
loop_
_space_group_symop_operation_xyz
x,y,z
-x,-y,z
x,-y,1/2-z
-x,y,1/2-z
-x,-y,-z
x,y,-z
-x,y,1/2+z
x,-y,1/2+z
1/2+x,1/2+y,z
1/2-x,1/2-y,z
1/2+x,1/2-y,1/2-z
1/2-x,1/2+y,1/2-z
1/2-x,1/2-y,-z
1/2+x,1/2+y,-z
1/2-x,1/2+y,1/2+z
1/2+x,1/2-y,1/2+z
loop_
_atom_site_type_symbol
_atom_site_label
_atom_site_fract_x
_atom_site_fract_y
_atom_site_fract_z
Si Si1 0.500000 0.500000 0.837152
Si Si2 0.000000 0.000000 0.000000
Si Si3 0.856391 0.478466 0.105809
Si Si4 0.907908 0.028904 0.582365
Si Si5 0.415857 0.860135 0.202250
Si Si6 0.750000 0.750000 0.869141
Si Si7 0.201027 0.068837 0.700986
O O1 0.446207 0.455207 0.871360
O O2 0.522861 0.275941 0.807917
O O3 0.050295 0.976320 0.959971
O O4 0.882193 0.703380 0.077432
O O5 0.891050 0.480419 0.155219
O O6 0.787345 0.548089 0.106105
O O7 0.867028 0.206961 0.088598
O O8 0.363012 0.670536 0.208866
O O9 0.417951 0.000000 0.250000
O O10 0.701252 0.640439 0.835257
O O11 0.250000 0.250000 0.682762
O O12 0.225692 0.000000 0.750000
#
# Coordination Sequence:
#
# PCOD9499226 Si02
#       7
#     8   4  16  16  16   8  16
#     4   9  22  43  62  90 134 172 225 291 351 409
#     4  10  24  50  86 104 126 178 222 278 368 430
#     4  11  24  42  65 103 142 176 231 286 337 408
#     4  10  24  45  72 104 132 166 224 289 343 428
#     4  11  23  42  63  91 135 194 244 291 347 411
#     4  12  22  36  66  91 138 192 224 280 370 407
#     4  12  22  38  58  91 126 182 257 317 329 388
#
# _framework density 22.526118
#
# number of rings (size 3 to 8) (size 9 to 14) (size 15 to 20)
#    0.000    1.143    2.857    4.000    0.000    8.381 
#    0.000   10.000    0.000    3.429    0.000    0.000 
#    0.000    0.000    0.000    0.000    0.000    0.000 
#
# Total GULP energy -233806.666452 kJ/mol
# GULP energy per Si atom -5566.825392 kJ/mol
# Density = 2.247485 g / cm^3
# Si number density = 22.526118 Si / 1000 Ang^3
#
#
#
# Elastic Constant Matrix: (Units=GPa)
#
#
# Indices 1 2 3 4 5 6 
#
# 1 100.5724 54.5958 29.2689 0.0000 0.0000 0.0000
# 2 54.5958 122.8729 27.4588 0.0000 0.0000 0.0000
# 3 29.2689 27.4588 87.7694 0.0000 0.0000 0.0000
# 4 0.0000 0.0000 0.0000 -5.9661 0.0000 0.0000
# 5 0.0000 0.0000 0.0000 0.0000 35.7966 0.0000
# 6 0.0000 0.0000 0.0000 0.0000 0.0000 42.1952
#
#
#
# Elastic Compliance Matrix: (Units=1/GPa)
#
#
# Indices 1 2 3 4 5 6 
#
# 1 0.013747 -0.005466 -0.002874 0.000000 0.000000 0.000000
# 2 -0.005466 0.010923 -0.001595 0.000000 0.000000 0.000000
# 3 -0.002874 -0.001595 0.012851 0.000000 0.000000 0.000000
# 4 0.000000 0.000000 0.000000 -0.167613 0.000000 0.000000
# 5 0.000000 0.000000 0.000000 0.000000 0.027936 0.000000
# 6 0.000000 0.000000 0.000000 0.000000 0.000000 0.023699
#
#
# Mechanical properties :
#
#
# Convention : Reuss Voigt Hill
#
# Bulk Modulus (GPa) = 56.65190 59.31797 57.98494
# Shear Modulus (GPa) = -94.86996 27.73122 -33.56937
#
# Velocity S-wave (km/s) = -6.49669 3.51247 -3.86455
# Velocity P-wave (km/s) = 5.57422 6.54523 2.42571
#
# Compressibility (1/GPa) = 0.01765166
#
# Stress axis : x y z
#
# Youngs Moduli (GPa) = 72.74537 91.54641 77.81567
#
# Poissons Ratio (x) = 0.50036 0.22366
# Poissons Ratio (y) = 0.39760 0.12410
# Poissons Ratio (z) = 0.20908 0.14599
#
# Static dielectric constant tensor:
#      x y z
#    x 1.923740 0.000000 0.000000 
#    y 0.000000 1.769770 0.000000 
#    z 0.000000 0.000000 1.813790 
# 
# From -- ./inp_files/70411.got.cif
#   From: 2010.05.17/outbox.cif.g08.bks.cpg/sg66_36_cif.got.tgz:70411.got - 2010.06.03 17:51:23.
