data_PCOD9499504
_publ_section_title
;
Structure prediction by ZEFSAII (Michael W. Deem and Ramdas Pophale) SiO2 
 PCOD9499504
Probable space group: C C C M
;
_chemical_formula_sum "Si O2"
_cell_formula_units_Z 68
_cell_length_a 5.671474
_cell_length_b 19.138744
_cell_length_c 24.267420
_cell_angle_alpha 90.000000
_cell_angle_beta 90.000000
_cell_angle_gamma 90.000000
_cell_volume 2634.104410
_symmetry_space_group_name_H-M "C C C M"
_symmetry_group_IT_number 66
_symmetry_cell_setting 'orthorhombic'
loop_
_space_group_symop_operation_xyz
x,y,z
-x,-y,z
x,-y,1/2-z
-x,y,1/2-z
-x,-y,-z
x,y,-z
-x,y,1/2+z
x,-y,1/2+z
1/2+x,1/2+y,z
1/2-x,1/2-y,z
1/2+x,1/2-y,1/2-z
1/2-x,1/2+y,1/2-z
1/2-x,1/2-y,-z
1/2+x,1/2+y,-z
1/2-x,1/2+y,1/2+z
1/2+x,1/2-y,1/2+z
loop_
_atom_site_type_symbol
_atom_site_label
_atom_site_fract_x
_atom_site_fract_y
_atom_site_fract_z
Si Si1 0.510583 0.416706 0.685502
Si Si2 0.001714 0.283763 0.078643
Si Si3 0.844814 0.569187 0.910864
Si Si4 0.500000 0.500000 0.000000
Si Si5 0.119069 0.683689 0.196763
O O1 0.500000 0.500000 0.682701
O O2 0.500000 0.397880 0.750000
O O3 0.730590 0.402318 0.646069
O O4 0.284845 0.373204 0.666479
O O5 0.250000 0.250000 0.059912
O O6 0.012482 0.365887 0.064279
O O7 0.750000 0.250000 0.061843
O O8 0.004507 0.278899 0.145430
O O9 0.000000 0.500000 0.901539
O O10 0.639239 0.545162 0.951796
O O11 0.250000 0.750000 0.224338
O O12 0.000000 0.648645 0.250000
#
# Coordination Sequence:
#
# PCOD9499504 Si02
#       5
#    16  16  16   4  16
#     4  11  23  41  70 111 157 196 250 314 389 469
#     4  11  25  44  75 111 156 203 253 325 395 463
#     4  12  26  51  82 111 156 207 269 329 403 486
#     4  12  30  52  86 112 144 204 284 342 412 490
#     4  11  21  38  67 108 156 210 257 302 372 469
#
# _framework density 25.815225000000002
#
# number of rings (size 3 to 8) (size 9 to 14) (size 15 to 20)
#    0.000    0.706    1.176    7.412    3.294    0.000 
#    0.000    3.529    0.000    0.000    0.000    0.000 
#    0.000    0.000    0.000    0.000    0.000    0.000 
#
# Total GULP energy -189502.356768 kJ/mol
# GULP energy per Si atom -5573.598728 kJ/mol
# Density = 2.575647 g / cm^3
# Si number density = 25.815225 Si / 1000 Ang^3
#
#
#
# Elastic Constant Matrix: (Units=GPa)
#
#
# Indices 1 2 3 4 5 6 
#
# 1 171.3172 100.6374 38.3150 0.0000 0.0000 0.0000
# 2 100.6374 169.7613 7.2693 0.0000 0.0000 0.0000
# 3 38.3150 7.2693 170.2776 0.0000 0.0000 0.0000
# 4 0.0000 0.0000 0.0000 -583.9371 0.0000 0.0000
# 5 0.0000 0.0000 0.0000 0.0000 27.2446 0.0000
# 6 0.0000 0.0000 0.0000 0.0000 0.0000 76.8697
#
#
#
# Elastic Compliance Matrix: (Units=1/GPa)
#
#
# Indices 1 2 3 4 5 6 
#
# 1 0.009537 -0.005572 -0.001908 0.000000 0.000000 0.000000
# 2 -0.005572 0.009157 0.000863 0.000000 0.000000 0.000000
# 3 -0.001908 0.000863 0.006265 0.000000 0.000000 0.000000
# 4 0.000000 0.000000 0.000000 -0.001713 0.000000 0.000000
# 5 0.000000 0.000000 0.000000 0.000000 0.036704 0.000000
# 6 0.000000 0.000000 0.000000 0.000000 0.000000 0.013009
#
#
# Mechanical properties :
#
#
# Convention : Reuss Voigt Hill
#
# Bulk Modulus (GPa) = 85.29010 89.31106 87.30058
# Shear Modulus (GPa) = 55.49208 -71.62227 -8.06510
#
# Velocity S-wave (km/s) = 4.64139 -5.27299 -1.76945
# Velocity P-wave (km/s) = 7.86345 1.54958 5.45127
#
# Compressibility (1/GPa) = 0.01172469
#
# Stress axis : x y z
#
# Youngs Moduli (GPa) = 104.85406 109.20767 159.60979
#
# Poissons Ratio (x) = 0.60851 0.30455
# Poissons Ratio (y) = 0.58425 -0.13772
# Poissons Ratio (z) = 0.20007 -0.09423
#
# Static dielectric constant tensor:
#      x y z
#    x 2.336000 0.000000 0.000000 
#    y 0.000000 1.986450 0.000000 
#    z 0.000000 0.000000 1.967120 
# 
# From -- ./inp_files/61327.got.cif
#   From: 2010.05.17/outbox.cif.g08.bks.cpg/sg66_31_cif.got.tgz:61327.got - 2010.06.03 17:51:23.
