data_PCOD9499232
_publ_section_title
;
Structure prediction by ZEFSAII (Michael W. Deem and Ramdas Pophale) SiO2 
 PCOD9499232
Probable space group: C C C M
;
_chemical_formula_sum "Si O2"
_cell_formula_units_Z 68
_cell_length_a 12.662420
_cell_length_b 11.892729
_cell_length_c 21.673852
_cell_angle_alpha 90.000000
_cell_angle_beta 90.000000
_cell_angle_gamma 90.000000
_cell_volume 3263.881185
_symmetry_space_group_name_H-M "C C C M"
_symmetry_group_IT_number 66
_symmetry_cell_setting 'orthorhombic'
loop_
_space_group_symop_operation_xyz
x,y,z
-x,-y,z
x,-y,1/2-z
-x,y,1/2-z
-x,-y,-z
x,y,-z
-x,y,1/2+z
x,-y,1/2+z
1/2+x,1/2+y,z
1/2-x,1/2-y,z
1/2+x,1/2-y,1/2-z
1/2-x,1/2+y,1/2-z
1/2-x,1/2-y,-z
1/2+x,1/2+y,-z
1/2-x,1/2+y,1/2+z
1/2+x,1/2-y,1/2+z
loop_
_atom_site_type_symbol
_atom_site_label
_atom_site_fract_x
_atom_site_fract_y
_atom_site_fract_z
Si Si1 0.640783 0.705237 0.926404
Si Si2 0.808195 0.633353 0.313805
Si Si3 0.086203 0.738753 0.073241
Si Si4 0.111914 0.024570 0.642856
Si Si5 0.500000 0.000000 0.250000
O O1 0.750000 0.750000 0.900341
O O2 0.538346 0.781590 0.914003
O O3 0.625811 0.581847 0.900495
O O4 0.647711 0.698000 0.000000
O O5 0.750000 0.750000 0.290923
O O6 0.843143 0.659272 0.384595
O O7 0.714195 0.543404 0.315794
O O8 0.914930 0.584772 0.283076
O O9 0.102926 0.863874 0.100553
O O10 0.106355 0.732647 0.000000
O O11 0.000000 0.000000 0.675538
#
# Coordination Sequence:
#
# PCOD9499232 Si02
#       5
#    16  16  16  16   4
#     4   9  17  28  48  88 131 167 200 242 309 385
#     4  10  24  46  66  96 125 168 221 265 338 387
#     4   9  18  35  61  92 129 163 203 261 326 401
#     4   9  18  35  59  89 125 162 208 256 317 397
#     4  12  28  52  68  94 132 176 220 296 312 386
#
# _framework density 20.834092999999999
#
# number of rings (size 3 to 8) (size 9 to 14) (size 15 to 20)
#    0.000    2.588    0.000    0.706    3.294    8.000 
#   12.706    0.588    0.000    0.000    0.000    0.000 
#    0.000    0.000    0.000    0.000    0.000    0.000 
#
# Total GULP energy -189340.206332 kJ/mol
# GULP energy per Si atom -5568.829598 kJ/mol
# Density = 2.078667 g / cm^3
# Si number density = 20.834093 Si / 1000 Ang^3
#
#
#
# Elastic Constant Matrix: (Units=GPa)
#
#
# Indices 1 2 3 4 5 6 
#
# 1 217.2095 47.7291 58.7698 0.0000 0.0000 0.0000
# 2 47.7291 22.5826 23.8816 0.0000 0.0000 0.0000
# 3 58.7698 23.8816 65.2637 0.0000 0.0000 0.0000
# 4 0.0000 0.0000 0.0000 37.2350 0.0000 0.0000
# 5 0.0000 0.0000 0.0000 0.0000 36.0831 0.0000
# 6 0.0000 0.0000 0.0000 0.0000 0.0000 38.1737
#
#
#
# Elastic Compliance Matrix: (Units=1/GPa)
#
#
# Indices 1 2 3 4 5 6 
#
# 1 0.008725 -0.016528 -0.001809 0.000000 0.000000 0.000000
# 2 -0.016528 0.103542 -0.023006 0.000000 0.000000 0.000000
# 3 -0.001809 -0.023006 0.025370 0.000000 0.000000 0.000000
# 4 0.000000 0.000000 0.000000 0.026856 0.000000 0.000000
# 5 0.000000 0.000000 0.000000 0.000000 0.027714 0.000000
# 6 0.000000 0.000000 0.000000 0.000000 0.000000 0.026196
#
#
# Mechanical properties :
#
#
# Convention : Reuss Voigt Hill
#
# Bulk Modulus (GPa) = 18.19750 62.86853 40.53302
# Shear Modulus (GPa) = 15.65410 33.94338 24.79874
#
# Velocity S-wave (km/s) = 2.74409 4.04074 3.45381
# Velocity P-wave (km/s) = 4.33514 7.21190 5.95000
#
# Compressibility (1/GPa) = 0.05495260
#
# Stress axis : x y z
#
# Youngs Moduli (GPa) = 114.61268 9.65791 39.41696
#
# Poissons Ratio (x) = 0.15962 0.07131
# Poissons Ratio (y) = 1.89426 0.90681
# Poissons Ratio (z) = 0.20734 0.22219
#
# Static dielectric constant tensor:
#      x y z
#    x 1.856390 0.000000 0.000000 
#    y 0.000000 1.728720 0.000000 
#    z 0.000000 0.000000 1.722130 
# 
# From -- ./inp_files/49649.got.cif
#   From: 2010.05.17/outbox.cif.g08.bks.cpg/sg66_25_cif.got.tgz:49649.got - 2010.06.03 17:51:23.
