data_PCOD9499521
_publ_section_title
;
Structure prediction by ZEFSAII (Michael W. Deem and Ramdas Pophale) SiO2 
 PCOD9499521
Probable space group: C C C M
;
_chemical_formula_sum "Si O2"
_cell_formula_units_Z 96
_cell_length_a 19.404183
_cell_length_b 15.870396
_cell_length_c 15.908679
_cell_angle_alpha 90.000000
_cell_angle_beta 90.000000
_cell_angle_gamma 90.000000
_cell_volume 4899.110601
_symmetry_space_group_name_H-M "C C C M"
_symmetry_group_IT_number 66
_symmetry_cell_setting 'orthorhombic'
loop_
_space_group_symop_operation_xyz
x,y,z
-x,-y,z
x,-y,1/2-z
-x,y,1/2-z
-x,-y,-z
x,y,-z
-x,y,1/2+z
x,-y,1/2+z
1/2+x,1/2+y,z
1/2-x,1/2-y,z
1/2+x,1/2-y,1/2-z
1/2-x,1/2+y,1/2-z
1/2-x,1/2-y,-z
1/2+x,1/2+y,-z
1/2-x,1/2+y,1/2+z
1/2+x,1/2-y,1/2+z
loop_
_atom_site_type_symbol
_atom_site_label
_atom_site_fract_x
_atom_site_fract_y
_atom_site_fract_z
Si Si1 0.180784 0.348883 0.149797
Si Si2 0.923683 0.900082 0.750000
Si Si3 0.666988 0.342107 0.095154
Si Si4 0.919677 0.500000 0.398813
Si Si5 0.680784 0.151117 0.149796
Si Si6 0.333012 0.342107 0.095154
O O1 0.122691 0.418129 0.131734
O O2 0.185765 0.334666 0.250000
O O3 0.256145 0.375219 0.116383
O O4 0.167252 0.259436 0.105504
O O5 0.883579 0.874184 0.666546
O O6 0.883579 0.874184 0.833454
O O7 0.000000 0.862037 0.750000
O O8 0.928286 0.000000 0.750000
O O9 0.667252 0.240564 0.105504
O O10 0.743855 0.375219 0.116383
O O11 0.648531 0.364797 0.000000
O O12 0.918979 0.500000 0.500000
O O13 0.877309 0.581871 0.368266
O O14 0.000000 0.500000 0.371321
O O15 0.351469 0.364797 0.000000
#
# Coordination Sequence:
#
# PCOD9499521 Si02
#       6
#    16  16  16  16  16  16
#     4  11  21  40  66  95 130 168 217 264 311 374
#     4  11  26  45  64  93 127 162 213 270 326 382
#     4  11  22  42  69  96 126 168 218 265 317 375
#     4  11  25  41  59  95 139 174 213 261 319 389
#     4  11  21  40  66  95 130 168 217 264 311 374
#     4  11  22  42  69  96 126 168 218 265 317 375
#
# _framework density 19.595393000000001
#
# number of rings (size 3 to 8) (size 9 to 14) (size 15 to 20)
#    0.000    1.000    3.333    5.500    2.333    4.000 
#    0.000    1.667    0.000    0.000    0.000    0.000 
#    0.000    0.000    0.000    0.000    0.000    0.000 
#
# Total GULP energy -268341.304309 kJ/mol
# GULP energy per Si atom -5590.443840 kJ/mol
# Density = 1.955079 g / cm^3
# Si number density = 19.595393 Si / 1000 Ang^3
#
#
#
# Elastic Constant Matrix: (Units=GPa)
#
#
# Indices 1 2 3 4 5 6 
#
# 1 172.7105 58.3277 67.6007 0.0000 0.0000 0.0000
# 2 58.3277 54.7604 14.3139 0.0000 0.0000 0.0000
# 3 67.6007 14.3139 182.6746 0.0000 0.0000 0.0000
# 4 0.0000 0.0000 0.0000 -42.7912 0.0000 0.0000
# 5 0.0000 0.0000 0.0000 0.0000 21.9946 0.0000
# 6 0.0000 0.0000 0.0000 0.0000 0.0000 51.9500
#
#
#
# Elastic Compliance Matrix: (Units=1/GPa)
#
#
# Indices 1 2 3 4 5 6 
#
# 1 0.010497 -0.010378 -0.003071 0.000000 0.000000 0.000000
# 2 -0.010378 0.028904 0.001576 0.000000 0.000000 0.000000
# 3 -0.003071 0.001576 0.006487 0.000000 0.000000 0.000000
# 4 0.000000 0.000000 0.000000 -0.023369 0.000000 0.000000
# 5 0.000000 0.000000 0.000000 0.000000 0.045466 0.000000
# 6 0.000000 0.000000 0.000000 0.000000 0.000000 0.019249
#
#
# Mechanical properties :
#
#
# Convention : Reuss Voigt Hill
#
# Bulk Modulus (GPa) = 45.16589 76.73666 60.95127
# Shear Modulus (GPa) = 42.24353 24.22422 33.23388
#
# Velocity S-wave (km/s) = 4.64808 3.51981 4.12273
# Velocity P-wave (km/s) = 7.20455 7.46755 7.33723
#
# Compressibility (1/GPa) = 0.02214060
#
# Stress axis : x y z
#
# Youngs Moduli (GPa) = 95.26468 34.59772 154.14649
#
# Poissons Ratio (x) = 0.35906 0.47344
# Poissons Ratio (y) = 0.98866 -0.24289
# Poissons Ratio (z) = 0.29259 -0.05452
#
# Static dielectric constant tensor:
#      x y z
#    x 1.687930 0.000000 0.000000 
#    y 0.000000 1.679580 0.000000 
#    z 0.000000 0.000000 1.676500 
# 
# From -- ./inp_files/31156.got.cif
#   From: 2010.05.17/outbox.cif.g08.bks.cpg/sg66_16_cif.got.tgz:31156.got - 2010.06.03 17:51:23.
