data_PCOD9499075
_publ_section_title
;
Structure prediction by ZEFSAII (Michael W. Deem and Ramdas Pophale) SiO2 
 PCOD9499075
Probable space group: C C C M
;
_chemical_formula_sum "Si O2"
_cell_formula_units_Z 88
_cell_length_a 26.914456
_cell_length_b 10.041951
_cell_length_c 15.388008
_cell_angle_alpha 90.000000
_cell_angle_beta 90.000000
_cell_angle_gamma 90.000000
_cell_volume 4158.973063
_symmetry_space_group_name_H-M "C C C M"
_symmetry_group_IT_number 66
_symmetry_cell_setting 'orthorhombic'
loop_
_space_group_symop_operation_xyz
x,y,z
-x,-y,z
x,-y,1/2-z
-x,y,1/2-z
-x,-y,-z
x,y,-z
-x,y,1/2+z
x,-y,1/2+z
1/2+x,1/2+y,z
1/2-x,1/2-y,z
1/2+x,1/2-y,1/2-z
1/2-x,1/2+y,1/2-z
1/2-x,1/2-y,-z
1/2+x,1/2+y,-z
1/2-x,1/2+y,1/2+z
1/2+x,1/2-y,1/2+z
loop_
_atom_site_type_symbol
_atom_site_label
_atom_site_fract_x
_atom_site_fract_y
_atom_site_fract_z
Si Si1 0.013106 0.843622 0.149983
Si Si2 0.851584 0.764399 0.857656
Si Si3 0.213999 0.999666 0.854680
Si Si4 0.439247 0.270551 0.000000
Si Si5 0.824896 0.473380 0.899928
Si Si6 0.872155 0.800053 0.339962
O O1 0.071678 0.827103 0.133089
O O2 0.000000 0.805254 0.250000
O O3 0.981831 0.767439 0.077438
O O4 0.000000 0.000000 0.140197
O O5 0.803814 0.853518 0.881829
O O6 0.837038 0.610051 0.850840
O O7 0.869384 0.815861 0.764055
O O8 0.895594 0.780334 0.925093
O O9 0.265836 0.952767 0.893576
O O10 0.220897 0.000000 0.750000
O O11 0.168382 0.902359 0.877337
O O12 0.854314 0.347385 0.864102
O O13 0.839367 0.494445 0.000000
#
# Coordination Sequence:
#
# PCOD9499075 Si02
#       6
#    16  16  16   8  16  16
#     4  11  24  43  71 103 137 175 230 290 349 406
#     4  11  23  44  72  99 136 180 231 278 338 416
#     4  10  23  42  71 101 134 180 229 276 340 412
#     4  12  23  42  68 100 131 176 232 284 337 400
#     4  12  26  43  64 101 143 180 225 278 343 420
#     4  11  24  45  70  99 137 179 222 287 350 409
#
# _framework density 21.15907
#
# number of rings (size 3 to 8) (size 9 to 14) (size 15 to 20)
#    0.000    0.909    2.727    4.091    7.636    5.091 
#    0.000    1.818    0.000    0.000    0.000    0.000 
#    0.000    0.000    0.000    0.000    0.000    0.000 
#
# Total GULP energy -245132.872873 kJ/mol
# GULP energy per Si atom -5571.201656 kJ/mol
# Density = 2.111091 g / cm^3
# Si number density = 21.159070 Si / 1000 Ang^3
#
#
#
# Elastic Constant Matrix: (Units=GPa)
#
#
# Indices 1 2 3 4 5 6 
#
# 1 159.5905 36.5299 28.7285 0.0000 0.0000 0.0000
# 2 36.5299 99.8704 2.5991 0.0000 0.0000 0.0000
# 3 28.7285 2.5991 58.4317 0.0000 0.0000 0.0000
# 4 0.0000 0.0000 0.0000 -40.4077 0.0000 0.0000
# 5 0.0000 0.0000 0.0000 0.0000 59.4296 0.0000
# 6 0.0000 0.0000 0.0000 0.0000 0.0000 0.6138
#
#
#
# Elastic Compliance Matrix: (Units=1/GPa)
#
#
# Indices 1 2 3 4 5 6 
#
# 1 0.007518 -0.002657 -0.003578 0.000000 0.000000 0.000000
# 2 -0.002657 0.010963 0.000819 0.000000 0.000000 0.000000
# 3 -0.003578 0.000819 0.018837 0.000000 0.000000 0.000000
# 4 0.000000 0.000000 0.000000 -0.024748 0.000000 0.000000
# 5 0.000000 0.000000 0.000000 0.000000 0.016827 0.000000
# 6 0.000000 0.000000 0.000000 0.000000 0.000000 1.629107
#
#
# Mechanical properties :
#
#
# Convention : Reuss Voigt Hill
#
# Bulk Modulus (GPa) = 37.75635 50.40083 44.07859
# Shear Modulus (GPa) = 2.97944 20.59616 11.78780
#
# Velocity S-wave (km/s) = 1.18793 3.12331 2.36287
# Velocity P-wave (km/s) = 4.44571 6.07276 5.32179
#
# Compressibility (1/GPa) = 0.02648561
#
# Stress axis : x y z
#
# Youngs Moduli (GPa) = 133.00831 91.21185 53.08740
#
# Poissons Ratio (x) = 0.24234 0.18996
# Poissons Ratio (y) = 0.35339 -0.04346
# Poissons Ratio (z) = 0.47594 -0.07467
#
# Static dielectric constant tensor:
#      x y z
#    x 1.749010 0.000000 0.000000 
#    y 0.000000 1.769710 0.000000 
#    z 0.000000 0.000000 1.578290 
# 
# From -- ./inp_files/32208.got.cif
#   From: 2010.05.17/outbox.cif.g08.bks.cpg/sg66_17_cif.got.tgz:32208.got - 2010.06.03 17:51:23.
