data_PCOD9499008
_publ_section_title
;
Structure prediction by ZEFSAII (Michael W. Deem and Ramdas Pophale) SiO2 
 PCOD9499008
Probable space group: C C C M
;
_chemical_formula_sum "Si O2"
_cell_formula_units_Z 48
_cell_length_a 12.290431
_cell_length_b 8.018212
_cell_length_c 20.702472
_cell_angle_alpha 90.000000
_cell_angle_beta 90.000000
_cell_angle_gamma 90.000000
_cell_volume 2040.172332
_symmetry_space_group_name_H-M "C C C M"
_symmetry_group_IT_number 66
_symmetry_cell_setting 'orthorhombic'
loop_
_space_group_symop_operation_xyz
x,y,z
-x,-y,z
x,-y,1/2-z
-x,y,1/2-z
-x,-y,-z
x,y,-z
-x,y,1/2+z
x,-y,1/2+z
1/2+x,1/2+y,z
1/2-x,1/2-y,z
1/2+x,1/2-y,1/2-z
1/2-x,1/2+y,1/2-z
1/2-x,1/2-y,-z
1/2+x,1/2+y,-z
1/2-x,1/2+y,1/2+z
1/2+x,1/2-y,1/2+z
loop_
_atom_site_type_symbol
_atom_site_label
_atom_site_fract_x
_atom_site_fract_y
_atom_site_fract_z
Si Si1 0.189859 0.977092 0.324699
Si Si2 0.577782 0.862318 0.853341
Si Si3 0.926566 0.165563 0.069521
O O1 0.301424 0.932785 0.361440
O O2 0.105463 0.820326 0.323132
O O3 0.218903 0.000000 0.250000
O O4 0.141830 0.130754 0.365389
O O5 0.509426 0.814191 0.916551
O O6 0.500000 0.000000 0.820354
O O7 0.870571 0.184255 0.000000
O O8 0.000000 0.000000 0.065021
#
# Coordination Sequence:
#
# PCOD9499008 Si02
#       3
#    16  16  16
#     4  10  23  41  62  92 127 167 213 263 323 384
#     4  10  23  40  63  91 121 162 212 267 320 382
#     4   9  20  40  64  92 130 173 213 261 322 381
#
# _framework density 23.527424
#
# number of rings (size 3 to 8) (size 9 to 14) (size 15 to 20)
#    0.000    2.333    0.000    0.000    0.000   18.000 
#    0.000    8.333    0.000    0.000    0.000    0.000 
#    0.000    0.000    0.000    0.000    0.000    0.000 
#
# Total GULP energy -133660.377581 kJ/mol
# GULP energy per Si atom -5569.182399 kJ/mol
# Density = 2.347387 g / cm^3
# Si number density = 23.527424 Si / 1000 Ang^3
#
#
#
# Elastic Constant Matrix: (Units=GPa)
#
#
# Indices 1 2 3 4 5 6 
#
# 1 117.3566 48.8801 37.7080 0.0000 0.0000 0.0000
# 2 48.8801 100.7056 21.9506 0.0000 0.0000 0.0000
# 3 37.7080 21.9506 126.9249 0.0000 0.0000 0.0000
# 4 0.0000 0.0000 0.0000 -34.1822 0.0000 0.0000
# 5 0.0000 0.0000 0.0000 0.0000 9.5640 0.0000
# 6 0.0000 0.0000 0.0000 0.0000 0.0000 47.8271
#
#
#
# Elastic Compliance Matrix: (Units=1/GPa)
#
#
# Indices 1 2 3 4 5 6 
#
# 1 0.011410 -0.004987 -0.002527 0.000000 0.000000 0.000000
# 2 -0.004987 0.012499 -0.000680 0.000000 0.000000 0.000000
# 3 -0.002527 -0.000680 0.008747 0.000000 0.000000 0.000000
# 4 0.000000 0.000000 0.000000 -0.029255 0.000000 0.000000
# 5 0.000000 0.000000 0.000000 0.000000 0.104558 0.000000
# 6 0.000000 0.000000 0.000000 0.000000 0.000000 0.020909
#
#
# Mechanical properties :
#
#
# Convention : Reuss Voigt Hill
#
# Bulk Modulus (GPa) = 61.47392 62.45159 61.96275
# Shear Modulus (GPa) = 33.18286 20.40503 26.79394
#
# Velocity S-wave (km/s) = 3.75959 2.94817 3.37833
# Velocity P-wave (km/s) = 6.71054 6.17986 6.45066
#
# Compressibility (1/GPa) = 0.01626706
#
# Stress axis : x y z
#
# Youngs Moduli (GPa) = 87.63903 80.00694 114.32353
#
# Poissons Ratio (x) = 0.39903 0.28894
# Poissons Ratio (y) = 0.43710 0.07772
# Poissons Ratio (z) = 0.22150 0.05439
#
# Static dielectric constant tensor:
#      x y z
#    x 2.000120 0.000000 0.000000 
#    y 0.000000 2.003430 0.000000 
#    z 0.000000 0.000000 1.869050 
# 
# From -- ./inp_files/39507.got.cif
#   From: 2010.05.17/outbox.cif.g08.bks.cpg/sg66_20_cif.got.tgz:39507.got - 2010.06.03 17:51:23.
