data_PCOD9499218
_publ_section_title
;
Structure prediction by ZEFSAII (Michael W. Deem and Ramdas Pophale) SiO2 
 PCOD9499218
Probable space group: C C C M
;
_chemical_formula_sum "Si O2"
_cell_formula_units_Z 104
_cell_length_a 8.884021
_cell_length_b 25.842027
_cell_length_c 22.562033
_cell_angle_alpha 90.000000
_cell_angle_beta 90.000000
_cell_angle_gamma 90.000000
_cell_volume 5179.816592
_symmetry_space_group_name_H-M "C C C M"
_symmetry_group_IT_number 66
_symmetry_cell_setting 'orthorhombic'
loop_
_space_group_symop_operation_xyz
x,y,z
-x,-y,z
x,-y,1/2-z
-x,y,1/2-z
-x,-y,-z
x,y,-z
-x,y,1/2+z
x,-y,1/2+z
1/2+x,1/2+y,z
1/2-x,1/2-y,z
1/2+x,1/2-y,1/2-z
1/2-x,1/2+y,1/2-z
1/2-x,1/2-y,-z
1/2+x,1/2+y,-z
1/2-x,1/2+y,1/2+z
1/2+x,1/2-y,1/2+z
loop_
_atom_site_type_symbol
_atom_site_label
_atom_site_fract_x
_atom_site_fract_y
_atom_site_fract_z
Si Si1 0.768786 0.614265 0.109963
Si Si2 0.926090 0.214159 0.616712
Si Si3 0.986318 0.318096 0.320087
Si Si4 0.943031 0.440411 0.500000
Si Si5 0.006156 0.938371 0.819877
Si Si6 0.196784 0.146054 0.630816
Si Si7 0.929175 0.260233 0.000000
Si Si8 0.298389 0.863570 0.000000
O O1 0.693883 0.670744 0.095259
O O2 0.634981 0.583399 0.142506
O O3 0.893637 0.632304 0.157164
O O4 0.846875 0.581462 0.056962
O O5 0.906761 0.265170 0.657387
O O6 0.056392 0.181415 0.648949
O O7 0.994316 0.238031 0.557374
O O8 0.151553 0.326422 0.348014
O O9 0.000000 0.316875 0.250000
O O10 0.000000 0.500000 0.500000
O O11 0.107679 0.414969 0.500000
O O12 0.000000 0.925500 0.750000
O O13 0.156906 0.910511 0.844404
O O14 0.000000 0.000000 0.825870
O O15 0.203898 0.142629 0.559564
O O16 0.750000 0.250000 0.000000
O O17 0.933075 0.321686 0.000000
#
# Coordination Sequence:
#
# PCOD9499218 Si02
#       8
#    16  16  16   8  16  16   8   8
#     4  11  25  44  64  98 135 176 219 285 348 398
#     4  11  22  37  63  94 132 168 217 264 327 403
#     4  12  24  39  63  96 135 183 224 266 329 407
#     4  12  27  46  69  99 136 173 229 298 354 403
#     4  10  24  45  68  92 126 171 224 281 337 397
#     4  11  22  40  65  94 128 170 219 270 325 400
#     4  12  17  35  62  90 121 168 210 252 314 402
#     4  12  22  39  66  96 127 161 218 267 329 387
#
# _framework density 20.077929999999999
#
# number of rings (size 3 to 8) (size 9 to 14) (size 15 to 20)
#    0.000    0.769    4.615    2.308    2.154    6.769 
#    0.000    3.077    0.000    2.769    0.000    0.000 
#    0.000    0.000    0.000    0.000    0.000    0.000 
#
# Total GULP energy -290003.146547 kJ/mol
# GULP energy per Si atom -5576.983587 kJ/mol
# Density = 2.003223 g / cm^3
# Si number density = 20.077930 Si / 1000 Ang^3
#
#
#
# Elastic Constant Matrix: (Units=GPa)
#
#
# Indices 1 2 3 4 5 6 
#
# 1 69.8276 36.9351 25.0346 0.0000 0.0000 0.0000
# 2 36.9351 140.7417 57.9456 0.0000 0.0000 0.0000
# 3 25.0346 57.9456 151.4967 0.0000 0.0000 0.0000
# 4 0.0000 0.0000 0.0000 21.0607 0.0000 0.0000
# 5 0.0000 0.0000 0.0000 0.0000 3.9322 0.0000
# 6 0.0000 0.0000 0.0000 0.0000 0.0000 36.8678
#
#
#
# Elastic Compliance Matrix: (Units=1/GPa)
#
#
# Indices 1 2 3 4 5 6 
#
# 1 0.016841 -0.003886 -0.001297 0.000000 0.000000 0.000000
# 2 -0.003886 0.009330 -0.002926 0.000000 0.000000 0.000000
# 3 -0.001297 -0.002926 0.007934 0.000000 0.000000 0.000000
# 4 0.000000 0.000000 0.000000 0.047482 0.000000 0.000000
# 5 0.000000 0.000000 0.000000 0.000000 0.254313 0.000000
# 6 0.000000 0.000000 0.000000 0.000000 0.000000 0.027124
#
#
# Mechanical properties :
#
#
# Convention : Reuss Voigt Hill
#
# Bulk Modulus (GPa) = 55.90462 66.87742 61.39102
# Shear Modulus (GPa) = 12.98011 28.51550 20.74781
#
# Velocity S-wave (km/s) = 2.54537 3.77270 3.21809
# Velocity P-wave (km/s) = 6.04506 7.23594 6.66715
#
# Compressibility (1/GPa) = 0.01788761
#
# Stress axis : x y z
#
# Youngs Moduli (GPa) = 59.37789 107.18311 126.03334
#
# Poissons Ratio (x) = 0.41649 0.16343
# Poissons Ratio (y) = 0.23073 0.36883
# Poissons Ratio (z) = 0.07700 0.31366
#
# Static dielectric constant tensor:
#      x y z
#    x 1.742600 0.000000 0.000000 
#    y 0.000000 1.787060 0.000000 
#    z 0.000000 0.000000 1.678200 
# 
# From -- ./inp_files/47438.got.cif
#   From: 2010.05.17/outbox.cif.g08.bks.cpg/sg66_24_cif.got.tgz:47438.got - 2010.06.03 17:51:23.
