data_PCOD9499602
_publ_section_title
;
Structure prediction by ZEFSAII (Michael W. Deem and Ramdas Pophale) SiO2 
 PCOD9499602
Probable space group: C C C M
;
_chemical_formula_sum "Si O2"
_cell_formula_units_Z 80
_cell_length_a 18.651821
_cell_length_b 8.834673
_cell_length_c 26.231028
_cell_angle_alpha 90.000000
_cell_angle_beta 90.000000
_cell_angle_gamma 90.000000
_cell_volume 4322.420651
_symmetry_space_group_name_H-M "C C C M"
_symmetry_group_IT_number 66
_symmetry_cell_setting 'orthorhombic'
loop_
_space_group_symop_operation_xyz
x,y,z
-x,-y,z
x,-y,1/2-z
-x,y,1/2-z
-x,-y,-z
x,y,-z
-x,y,1/2+z
x,-y,1/2+z
1/2+x,1/2+y,z
1/2-x,1/2-y,z
1/2+x,1/2-y,1/2-z
1/2-x,1/2+y,1/2-z
1/2-x,1/2-y,-z
1/2+x,1/2+y,-z
1/2-x,1/2+y,1/2+z
1/2+x,1/2-y,1/2+z
loop_
_atom_site_type_symbol
_atom_site_label
_atom_site_fract_x
_atom_site_fract_y
_atom_site_fract_z
Si Si1 0.582696 0.689735 0.808520
Si Si2 0.410155 0.337757 0.306265
Si Si3 0.578297 0.918089 0.899753
Si Si4 0.395187 0.385901 0.500000
Si Si5 0.940010 0.783996 0.000000
Si Si6 0.333189 0.788933 0.903405
O O1 0.607742 0.720485 0.750580
O O2 0.606778 0.515382 0.815822
O O3 0.495981 0.680186 0.809610
O O4 0.599881 0.813914 0.851242
O O5 0.371634 0.249363 0.350468
O O6 0.570042 0.812617 0.949085
O O7 0.500000 0.000000 0.891128
O O8 0.639645 0.040431 0.912562
O O9 0.390896 0.566955 0.500000
O O10 0.478274 0.340098 0.500000
O O11 0.361792 0.313596 0.550418
O O12 0.250000 0.750000 0.898866
#
# Coordination Sequence:
#
# PCOD9499602 Si02
#       6
#    16  16  16   8   8  16
#     4   9  18  35  63  88 113 156 206 262 295 353
#     4   9  18  37  59  87 120 154 205 250 309 360
#     4  12  21  37  61  96 123 153 209 267 303 360
#     4  11  22  41  64  89 120 167 204 256 321 377
#     4  11  22  38  68  94 116 150 221 270 301 357
#     4  12  25  40  57  88 132 167 194 252 326 384
#
# _framework density 18.508147000000001
#
# number of rings (size 3 to 8) (size 9 to 14) (size 15 to 20)
#    0.000    1.400    4.000    3.600    0.000    4.000 
#    0.000    9.000    0.000    0.000    0.000    0.000 
#    0.000    0.000    0.000    0.000    0.000    0.000 
#
# Total GULP energy -223119.121622 kJ/mol
# GULP energy per Si atom -5577.978041 kJ/mol
# Density = 1.846602 g / cm^3
# Si number density = 18.508147 Si / 1000 Ang^3
#
#
#
# Elastic Constant Matrix: (Units=GPa)
#
#
# Indices 1 2 3 4 5 6 
#
# 1 52.5543 30.0024 30.5919 0.0000 0.0000 0.0000
# 2 30.0024 111.5523 77.3469 0.0000 0.0000 0.0000
# 3 30.5919 77.3469 136.2484 0.0000 0.0000 0.0000
# 4 0.0000 0.0000 0.0000 56.0862 0.0000 0.0000
# 5 0.0000 0.0000 0.0000 0.0000 7.4793 0.0000
# 6 0.0000 0.0000 0.0000 0.0000 0.0000 14.6955
#
#
#
# Elastic Compliance Matrix: (Units=1/GPa)
#
#
# Indices 1 2 3 4 5 6 
#
# 1 0.023081 -0.004312 -0.002735 0.000000 0.000000 0.000000
# 2 -0.004312 0.015589 -0.007882 0.000000 0.000000 0.000000
# 3 -0.002735 -0.007882 0.012428 0.000000 0.000000 0.000000
# 4 0.000000 0.000000 0.000000 0.017830 0.000000 0.000000
# 5 0.000000 0.000000 0.000000 0.000000 0.133703 0.000000
# 6 0.000000 0.000000 0.000000 0.000000 0.000000 0.068048
#
#
# Mechanical properties :
#
#
# Convention : Reuss Voigt Hill
#
# Bulk Modulus (GPa) = 47.07628 64.02638 55.55133
# Shear Modulus (GPa) = 16.25408 26.47979 21.36693
#
# Velocity S-wave (km/s) = 2.96668 3.78658 3.40142
# Velocity P-wave (km/s) = 6.10128 7.33391 6.74581
#
# Compressibility (1/GPa) = 0.02124212
#
# Stress axis : x y z
#
# Youngs Moduli (GPa) = 43.32518 64.14852 80.46433
#
# Poissons Ratio (x) = 0.27658 0.22006
# Poissons Ratio (y) = 0.18680 0.63418
# Poissons Ratio (z) = 0.11849 0.50559
#
# Static dielectric constant tensor:
#      x y z
#    x 1.625750 0.000000 0.000000 
#    y 0.000000 1.662240 0.000000 
#    z 0.000000 0.000000 1.628360 
# 
# From -- ./inp_files/59303.got.cif
#   From: 2010.05.17/outbox.cif.g08.bks.cpg/sg66_30_cif.got.tgz:59303.got - 2010.06.03 17:51:23.
