data_PCOD9499720
_publ_section_title
;
Structure prediction by ZEFSAII (Michael W. Deem and Ramdas Pophale) SiO2 
 PCOD9499720
Probable space group: C C C M
;
_chemical_formula_sum "Si O2"
_cell_formula_units_Z 52
_cell_length_a 29.047038
_cell_length_b 4.791604
_cell_length_c 16.316149
_cell_angle_alpha 90.000000
_cell_angle_beta 90.000000
_cell_angle_gamma 90.000000
_cell_volume 2270.912675
_symmetry_space_group_name_H-M "C C C M"
_symmetry_group_IT_number 66
_symmetry_cell_setting 'orthorhombic'
loop_
_space_group_symop_operation_xyz
x,y,z
-x,-y,z
x,-y,1/2-z
-x,y,1/2-z
-x,-y,-z
x,y,-z
-x,y,1/2+z
x,-y,1/2+z
1/2+x,1/2+y,z
1/2-x,1/2-y,z
1/2+x,1/2-y,1/2-z
1/2-x,1/2+y,1/2-z
1/2-x,1/2-y,-z
1/2+x,1/2+y,-z
1/2-x,1/2+y,1/2+z
1/2+x,1/2-y,1/2+z
loop_
_atom_site_type_symbol
_atom_site_label
_atom_site_fract_x
_atom_site_fract_y
_atom_site_fract_z
Si Si1 0.917902 0.179479 0.170648
Si Si2 0.374412 0.781010 0.594795
Si Si3 0.000000 0.500000 0.250000
Si Si4 0.217666 0.016114 0.406953
O O1 0.886283 0.441134 0.144834
O O2 0.966759 0.311087 0.194474
O O3 0.903105 0.000000 0.250000
O O4 0.915796 0.942038 0.101686
O O5 0.365980 0.855579 0.500000
O O6 0.330157 0.605389 0.626064
O O7 0.206792 0.120808 0.500000
O O8 0.250000 0.750000 0.413202
O O9 0.250000 0.250000 0.365676
#
# Coordination Sequence:
#
# PCOD9499720 Si02
#       4
#    16  16   4  16
#     4  12  24  44  70  93 129 180 233 272 340 426
#     4  11  23  40  67 106 138 169 225 290 337 379
#     4  12  26  48  72  88 118 180 248 260 334 468
#     4   9  17  32  57  92 136 178 211 250 310 388
#
# _framework density 22.898282999999999
#
# number of rings (size 3 to 8) (size 9 to 14) (size 15 to 20)
#    0.000    1.231    3.077    3.231    0.000    4.923 
#    0.000    4.615    0.000    5.538    4.000    0.000 
#    0.000    0.000    0.000    0.000    0.000   14.462 
#
# Total GULP energy -145093.356051 kJ/mol
# GULP energy per Si atom -5580.513694 kJ/mol
# Density = 2.284617 g / cm^3
# Si number density = 22.898283 Si / 1000 Ang^3
#
#
#
# Elastic Constant Matrix: (Units=GPa)
#
#
# Indices 1 2 3 4 5 6 
#
# 1 129.4090 83.5506 54.3888 0.0000 0.0000 0.0000
# 2 83.5506 210.8745 50.0881 0.0000 0.0000 0.0000
# 3 54.3888 50.0881 55.3497 0.0000 0.0000 0.0000
# 4 0.0000 0.0000 0.0000 50.0513 0.0000 0.0000
# 5 0.0000 0.0000 0.0000 0.0000 -63.0168 0.0000
# 6 0.0000 0.0000 0.0000 0.0000 0.0000 54.6053
#
#
#
# Elastic Compliance Matrix: (Units=1/GPa)
#
#
# Indices 1 2 3 4 5 6 
#
# 1 0.014525 -0.003012 -0.011547 0.000000 0.000000 0.000000
# 2 -0.003012 0.006665 -0.003072 0.000000 0.000000 0.000000
# 3 -0.011547 -0.003072 0.032193 0.000000 0.000000 0.000000
# 4 0.000000 0.000000 0.000000 0.019980 0.000000 0.000000
# 5 0.000000 0.000000 0.000000 0.000000 -0.015869 0.000000
# 6 0.000000 0.000000 0.000000 0.000000 0.000000 0.018313
#
#
# Mechanical properties :
#
#
# Convention : Reuss Voigt Hill
#
# Bulk Modulus (GPa) = 55.18272 85.74314 70.46293
# Shear Modulus (GPa) = 42.69444 22.16832 32.43138
#
# Velocity S-wave (km/s) = 4.32270 3.11484 3.76749
# Velocity P-wave (km/s) = 7.00469 7.10372 7.05438
#
# Compressibility (1/GPa) = 0.01812162
#
# Stress axis : x y z
#
# Youngs Moduli (GPa) = 68.84448 150.03142 31.06225
#
# Poissons Ratio (x) = 0.45195 0.35869
# Poissons Ratio (y) = 0.20738 0.09541
# Poissons Ratio (z) = 0.79497 0.46084
#
# Static dielectric constant tensor:
#      x y z
#    x 1.945580 0.000000 0.000000 
#    y 0.000000 1.863330 0.000000 
#    z 0.000000 0.000000 1.941270 
# 
# From -- ./inp_files/43897.got.cif
#   From: 2010.05.17/outbox.cif.g08.bks.cpg/sg66_22_cif.got.tgz:43897.got - 2010.06.03 17:51:23.
