data_PCOD9499692
_publ_section_title
;
Structure prediction by ZEFSAII (Michael W. Deem and Ramdas Pophale) SiO2 
 PCOD9499692
Probable space group: C C C M
;
_chemical_formula_sum "Si O2"
_cell_formula_units_Z 64
_cell_length_a 18.303034
_cell_length_b 19.087217
_cell_length_c 9.350107
_cell_angle_alpha 90.000000
_cell_angle_beta 90.000000
_cell_angle_gamma 90.000000
_cell_volume 3266.497110
_symmetry_space_group_name_H-M "C C C M"
_symmetry_group_IT_number 66
_symmetry_cell_setting 'orthorhombic'
loop_
_space_group_symop_operation_xyz
x,y,z
-x,-y,z
x,-y,1/2-z
-x,y,1/2-z
-x,-y,-z
x,y,-z
-x,y,1/2+z
x,-y,1/2+z
1/2+x,1/2+y,z
1/2-x,1/2-y,z
1/2+x,1/2-y,1/2-z
1/2-x,1/2+y,1/2-z
1/2-x,1/2-y,-z
1/2+x,1/2+y,-z
1/2-x,1/2+y,1/2+z
1/2+x,1/2-y,1/2+z
loop_
_atom_site_type_symbol
_atom_site_label
_atom_site_fract_x
_atom_site_fract_y
_atom_site_fract_z
Si Si1 0.405195 0.935461 0.500000
Si Si2 0.923176 0.397486 0.000000
Si Si3 0.170044 0.178768 0.831387
Si Si4 0.921654 0.932948 0.327579
Si Si5 0.839490 0.337810 0.730902
O O1 0.488437 0.904733 0.500000
O O2 0.363146 0.901603 0.631324
O O3 0.402580 0.019533 0.500000
O O4 0.886789 0.355884 0.130599
O O5 0.119744 0.134955 0.726168
O O6 0.144509 0.259642 0.826143
O O7 0.251437 0.166619 0.768365
O O8 0.169279 0.157482 0.000000
O O9 0.926320 0.939854 0.500000
O O10 0.000000 0.928797 0.250000
O O11 0.884800 0.000000 0.250000
#
# Coordination Sequence:
#
# PCOD9499692 Si02
#       5
#     8   8  16  16  16
#     4  11  22  47  60  94 134 181 218 265 346 388
#     4  11  26  37  68  98 132 167 226 289 316 410
#     4  11  23  44  68  92 132 175 217 270 333 397
#     4  11  24  43  67  97 134 169 213 268 323 389
#     4  11  23  43  67  91 133 172 217 273 335 387
#
# _framework density 19.592852000000001
#
# number of rings (size 3 to 8) (size 9 to 14) (size 15 to 20)
#    0.000    1.000    2.500    5.250    3.500    7.000 
#    0.000    0.000    0.000    0.000    0.000    0.000 
#    0.000    0.000    0.000    0.000    0.000    0.000 
#
# Total GULP energy -178295.140333 kJ/mol
# GULP energy per Si atom -5571.723135 kJ/mol
# Density = 1.954826 g / cm^3
# Si number density = 19.592852 Si / 1000 Ang^3
#
#
#
# Elastic Constant Matrix: (Units=GPa)
#
#
# Indices 1 2 3 4 5 6 
#
# 1 61.4535 46.3096 28.5523 0.0000 0.0000 0.0000
# 2 46.3096 90.7461 15.1500 0.0000 0.0000 0.0000
# 3 28.5523 15.1500 83.9761 0.0000 0.0000 0.0000
# 4 0.0000 0.0000 0.0000 36.3479 0.0000 0.0000
# 5 0.0000 0.0000 0.0000 0.0000 42.9682 0.0000
# 6 0.0000 0.0000 0.0000 0.0000 0.0000 41.0457
#
#
#
# Elastic Compliance Matrix: (Units=1/GPa)
#
#
# Indices 1 2 3 4 5 6 
#
# 1 0.030771 -0.014390 -0.007866 0.000000 0.000000 0.000000
# 2 -0.014390 0.018091 0.001629 0.000000 0.000000 0.000000
# 3 -0.007866 0.001629 0.014289 0.000000 0.000000 0.000000
# 4 0.000000 0.000000 0.000000 0.027512 0.000000 0.000000
# 5 0.000000 0.000000 0.000000 0.000000 0.023273 0.000000
# 6 0.000000 0.000000 0.000000 0.000000 0.000000 0.024363
#
#
# Mechanical properties :
#
#
# Convention : Reuss Voigt Hill
#
# Bulk Modulus (GPa) = 45.66924 46.24440 45.95682
# Shear Modulus (GPa) = 26.75904 33.81660 30.28782
#
# Velocity S-wave (km/s) = 3.69962 4.15898 3.93601
# Velocity P-wave (km/s) = 6.45053 6.83497 6.64553
#
# Compressibility (1/GPa) = 0.02189657
#
# Stress axis : x y z
#
# Youngs Moduli (GPa) = 32.49804 55.27526 69.98451
#
# Poissons Ratio (x) = 0.79540 0.55052
# Poissons Ratio (y) = 0.46764 -0.11399
# Poissons Ratio (z) = 0.25564 -0.09003
#
# Static dielectric constant tensor:
#      x y z
#    x 1.706350 0.000000 0.000000 
#    y 0.000000 2.449840 0.000000 
#    z 0.000000 0.000000 -0.634630 
# 
# From -- ./inp_files/6199.got.cif
#   From: 2010.05.17/outbox.cif.g08.bks.cpg/sg66_4_cif.got.tgz:6199.got - 2010.06.03 17:51:23.
