data_PCOD9499930
_publ_section_title
;
Structure prediction by ZEFSAII (Michael W. Deem and Ramdas Pophale) SiO2 
 PCOD9499930
Probable space group: C C C M
;
_chemical_formula_sum "Si O2"
_cell_formula_units_Z 96
_cell_length_a 17.207825
_cell_length_b 9.401613
_cell_length_c 28.482573
_cell_angle_alpha 90.000000
_cell_angle_beta 90.000000
_cell_angle_gamma 90.000000
_cell_volume 4607.948007
_symmetry_space_group_name_H-M "C C C M"
_symmetry_group_IT_number 66
_symmetry_cell_setting 'orthorhombic'
loop_
_space_group_symop_operation_xyz
x,y,z
-x,-y,z
x,-y,1/2-z
-x,y,1/2-z
-x,-y,-z
x,y,-z
-x,y,1/2+z
x,-y,1/2+z
1/2+x,1/2+y,z
1/2-x,1/2-y,z
1/2+x,1/2-y,1/2-z
1/2-x,1/2+y,1/2-z
1/2-x,1/2-y,-z
1/2+x,1/2+y,-z
1/2-x,1/2+y,1/2+z
1/2+x,1/2-y,1/2+z
loop_
_atom_site_type_symbol
_atom_site_label
_atom_site_fract_x
_atom_site_fract_y
_atom_site_fract_z
Si Si1 0.867274 0.634280 0.447724
Si Si2 0.929221 0.338361 0.850176
Si Si3 0.412069 0.507458 0.134839
Si Si4 0.561749 0.270469 0.709950
Si Si5 0.194174 0.038014 0.447639
Si Si6 0.190151 0.368708 0.724228
O O1 0.897692 0.602964 0.500000
O O2 0.924206 0.614525 0.403961
O O3 0.839611 0.800031 0.447734
O O4 0.786621 0.549204 0.440537
O O5 0.864001 0.414231 0.819009
O O6 0.012470 0.333629 0.824666
O O7 0.903139 0.171008 0.849722
O O8 0.500000 0.500000 0.114706
O O9 0.410809 0.402334 0.178811
O O10 0.350286 0.466187 0.095289
O O11 0.500000 0.314949 0.750000
O O12 0.631366 0.197124 0.737460
O O13 0.179472 0.979207 0.500000
O O14 0.230666 0.500000 0.750000
O O15 0.250000 0.250000 0.708658
#
# Coordination Sequence:
#
# PCOD9499930 Si02
#       6
#    16  16  16  16  16  16
#     4   8  14  26  45  74 108 141 182 232 281 323
#     4   9  19  32  55  79 110 149 184 228 278 325
#     4   9  17  28  48  75 105 150 191 226 277 330
#     4   9  20  37  52  73 108 147 188 225 274 327
#     4   8  14  23  39  68 110 148 182 230 278 326
#     4  11  26  39  57  84 110 144 185 229 279 329
#
# _framework density 20.833569000000001
#
# number of rings (size 3 to 8) (size 9 to 14) (size 15 to 20)
#    0.000    3.000    0.000    1.000    7.000   10.333 
#    0.000    2.500    0.000    0.000    0.000    3.500 
#    0.000    6.000    0.000    0.000    0.000    0.000 
#
# Total GULP energy -267835.345044 kJ/mol
# GULP energy per Si atom -5579.903022 kJ/mol
# Density = 2.078615 g / cm^3
# Si number density = 20.833569 Si / 1000 Ang^3
#
#
#
# Elastic Constant Matrix: (Units=GPa)
#
#
# Indices 1 2 3 4 5 6 
#
# 1 52.2945 4.4396 55.1170 0.0000 0.0000 0.0000
# 2 4.4396 30.1657 17.9372 0.0000 0.0000 0.0000
# 3 55.1170 17.9372 155.1517 0.0000 0.0000 0.0000
# 4 0.0000 0.0000 0.0000 -0.6742 0.0000 0.0000
# 5 0.0000 0.0000 0.0000 0.0000 28.9291 0.0000
# 6 0.0000 0.0000 0.0000 0.0000 0.0000 19.6678
#
#
#
# Elastic Compliance Matrix: (Units=1/GPa)
#
#
# Indices 1 2 3 4 5 6 
#
# 1 0.030692 0.002111 -0.011147 0.000000 0.000000 0.000000
# 2 0.002111 0.035743 -0.004882 0.000000 0.000000 0.000000
# 3 -0.011147 -0.004882 0.010970 0.000000 0.000000 0.000000
# 4 0.000000 0.000000 0.000000 -1.483331 0.000000 0.000000
# 5 0.000000 0.000000 0.000000 0.000000 0.034567 0.000000
# 6 0.000000 0.000000 0.000000 0.000000 0.000000 0.050845
#
#
# Mechanical properties :
#
#
# Convention : Reuss Voigt Hill
#
# Bulk Modulus (GPa) = 20.17428 43.62216 31.89822
# Shear Modulus (GPa) = -3.91802 20.25909 8.17054
#
# Velocity S-wave (km/s) = -1.37285 3.12176 1.98251
# Velocity P-wave (km/s) = 2.68172 5.82904 4.53703
#
# Compressibility (1/GPa) = 0.04956807
#
# Stress axis : x y z
#
# Youngs Moduli (GPa) = 32.58149 27.97782 91.15925
#
# Poissons Ratio (x) = -0.05907 1.01619
# Poissons Ratio (y) = -0.06879 0.44506
# Poissons Ratio (z) = 0.36320 0.13660
#
# Static dielectric constant tensor:
#      x y z
#    x 1.735390 0.000000 0.000000 
#    y 0.000000 1.776050 0.000000 
#    z 0.000000 0.000000 1.758900 
# 
# From -- ./inp_files/65219.got.cif
#   From: 2010.05.17/outbox.cif.g08.bks.cpg/sg66_33_cif.got.tgz:65219.got - 2010.06.03 17:51:23.
