data_PCOD9499012
_publ_section_title
;
Structure prediction by ZEFSAII (Michael W. Deem and Ramdas Pophale) SiO2 
 PCOD9499012
Probable space group: C C C M
;
_chemical_formula_sum "Si O2"
_cell_formula_units_Z 64
_cell_length_a 16.755218
_cell_length_b 8.859032
_cell_length_c 17.190583
_cell_angle_alpha 90.000000
_cell_angle_beta 90.000000
_cell_angle_gamma 90.000000
_cell_volume 2551.684401
_symmetry_space_group_name_H-M "C C C M"
_symmetry_group_IT_number 66
_symmetry_cell_setting 'orthorhombic'
loop_
_space_group_symop_operation_xyz
x,y,z
-x,-y,z
x,-y,1/2-z
-x,y,1/2-z
-x,-y,-z
x,y,-z
-x,y,1/2+z
x,-y,1/2+z
1/2+x,1/2+y,z
1/2-x,1/2-y,z
1/2+x,1/2-y,1/2-z
1/2-x,1/2+y,1/2-z
1/2-x,1/2-y,-z
1/2+x,1/2+y,-z
1/2-x,1/2+y,1/2+z
1/2+x,1/2-y,1/2+z
loop_
_atom_site_type_symbol
_atom_site_label
_atom_site_fract_x
_atom_site_fract_y
_atom_site_fract_z
Si Si1 0.878676 0.978296 0.586113
Si Si2 0.714131 0.093247 0.632570
Si Si3 0.113266 0.315487 0.683904
Si Si4 0.057469 0.287012 0.863429
O O1 0.900558 0.921829 0.500000
O O2 0.869303 0.848956 0.650413
O O3 0.789991 0.047505 0.582974
O O4 0.937496 0.111797 0.613635
O O5 0.750000 0.250000 0.672394
O O6 0.631443 0.140120 0.591411
O O7 0.682809 0.937862 0.673184
O O8 0.087043 0.306602 0.773754
O O9 0.031522 0.350502 0.635965
#
# Coordination Sequence:
#
# PCOD9499012 Si02
#       4
#    16  16  16  16
#     4  11  25  43  64  95 135 177 223 273 329 400
#     4  10  23  40  64  93 130 170 216 274 334 392
#     4  11  22  41  68  99 130 168 220 274 337 403
#     4  10  23  41  66  98 132 168 216 279 336 398
#
# _framework density 25.081472999999999
#
# number of rings (size 3 to 8) (size 9 to 14) (size 15 to 20)
#    0.000    1.500    0.000    3.750    0.000   22.500 
#    0.000    0.000    0.000    9.000    0.000    0.000 
#    0.000    0.000    0.000    0.000    0.000    0.000 
#
# Total GULP energy -178395.716370 kJ/mol
# GULP energy per Si atom -5574.866137 kJ/mol
# Density = 2.502439 g / cm^3
# Si number density = 25.081473 Si / 1000 Ang^3
#
#
#
# Elastic Constant Matrix: (Units=GPa)
#
#
# Indices 1 2 3 4 5 6 
#
# 1 147.1594 6.9012 -2.4663 0.0000 0.0000 0.0000
# 2 6.9012 101.1973 17.5925 0.0000 0.0000 0.0000
# 3 -2.4663 17.5925 60.5970 0.0000 0.0000 0.0000
# 4 0.0000 0.0000 0.0000 -49.1371 0.0000 0.0000
# 5 0.0000 0.0000 0.0000 0.0000 21.8368 0.0000
# 6 0.0000 0.0000 0.0000 0.0000 0.0000 66.0720
#
#
#
# Elastic Compliance Matrix: (Units=1/GPa)
#
#
# Indices 1 2 3 4 5 6 
#
# 1 0.006828 -0.000541 0.000435 0.000000 0.000000 0.000000
# 2 -0.000541 0.010450 -0.003056 0.000000 0.000000 0.000000
# 3 0.000435 -0.003056 0.017407 0.000000 0.000000 0.000000
# 4 0.000000 0.000000 0.000000 -0.020351 0.000000 0.000000
# 5 0.000000 0.000000 0.000000 0.000000 0.045794 0.000000
# 6 0.000000 0.000000 0.000000 0.000000 0.000000 0.015135
#
#
# Mechanical properties :
#
#
# Convention : Reuss Voigt Hill
#
# Bulk Modulus (GPa) = 35.25955 39.22316 37.24136
# Shear Modulus (GPa) = 54.92023 26.88275 40.90149
#
# Velocity S-wave (km/s) = 4.68447 3.27741 4.04263
# Velocity P-wave (km/s) = 6.58389 5.47669 6.05565
#
# Compressibility (1/GPa) = 0.02836111
#
# Stress axis : x y z
#
# Youngs Moduli (GPa) = 146.45516 95.69529 57.44698
#
# Poissons Ratio (x) = 0.05180 -0.02499
# Poissons Ratio (y) = 0.07927 0.17555
# Poissons Ratio (z) = -0.06371 0.29243
#
# Static dielectric constant tensor:
#      x y z
#    x 2.056520 0.000000 0.000000 
#    y 0.000000 2.088760 0.000000 
#    z 0.000000 0.000000 1.949150 
# 
# From -- ./inp_files/50500.got.cif
#   From: 2010.05.17/outbox.cif.g08.bks.cpg/sg66_26_cif.got.tgz:50500.got - 2010.06.03 17:51:23.
