data_PCOD9499919
_publ_section_title
;
Structure prediction by ZEFSAII (Michael W. Deem and Ramdas Pophale) SiO2 
 PCOD9499919
Probable space group: C C C M
;
_chemical_formula_sum "Si O2"
_cell_formula_units_Z 68
_cell_length_a 4.735019
_cell_length_b 22.768256
_cell_length_c 26.653177
_cell_angle_alpha 90.000000
_cell_angle_beta 90.000000
_cell_angle_gamma 90.000000
_cell_volume 2873.429031
_symmetry_space_group_name_H-M "C C C M"
_symmetry_group_IT_number 66
_symmetry_cell_setting 'orthorhombic'
loop_
_space_group_symop_operation_xyz
x,y,z
-x,-y,z
x,-y,1/2-z
-x,y,1/2-z
-x,-y,-z
x,y,-z
-x,y,1/2+z
x,-y,1/2+z
1/2+x,1/2+y,z
1/2-x,1/2-y,z
1/2+x,1/2-y,1/2-z
1/2-x,1/2+y,1/2-z
1/2-x,1/2-y,-z
1/2+x,1/2+y,-z
1/2-x,1/2+y,1/2+z
1/2+x,1/2-y,1/2+z
loop_
_atom_site_type_symbol
_atom_site_label
_atom_site_fract_x
_atom_site_fract_y
_atom_site_fract_z
Si Si1 0.253719 0.111564 0.604505
Si Si2 0.710533 0.054038 0.557500
Si Si3 0.988116 0.209227 0.160402
Si Si4 0.000000 0.000000 0.750000
Si Si5 0.658242 0.898027 0.799897
O O1 0.152338 0.177595 0.613031
O O2 0.984172 0.070410 0.590813
O O3 0.489787 0.106940 0.562163
O O4 0.885046 0.152431 0.688325
O O5 0.796653 0.045597 0.500000
O O6 0.433966 0.095244 0.654860
O O7 0.500000 0.000000 0.572409
O O8 0.750000 0.250000 0.185998
O O9 0.250000 0.250000 0.148562
O O10 0.188466 0.041690 0.785116
O O11 0.500000 0.878690 0.750000
#
# Coordination Sequence:
#
# PCOD9499919 Si02
#       5
#    16  16  16   4  16
#     4  12  24  49  76 111 153 206 253 316 396 442
#     4  11  25  47  79 118 156 199 260 322 387 475
#     4  12  25  51  78 109 150 201 268 320 374 450
#     4  12  30  52  72 114 172 196 270 302 382 476
#     4  12  28  52  75 115 158 211 253 318 380 468
#
# _framework density 23.665106000000002
#
# number of rings (size 3 to 8) (size 9 to 14) (size 15 to 20)
#    0.000    0.235    4.706    3.176    0.000    5.647 
#   10.588    0.000    0.000   14.118    0.000    0.000 
#    0.000    0.000    0.000    0.000    0.000    0.000 
#
# Total GULP energy -190163.289831 kJ/mol
# GULP energy per Si atom -5593.037936 kJ/mol
# Density = 2.361124 g / cm^3
# Si number density = 23.665106 Si / 1000 Ang^3
#
#
#
# Elastic Constant Matrix: (Units=GPa)
#
#
# Indices 1 2 3 4 5 6 
#
# 1 212.9517 100.6956 69.1524 0.0000 0.0000 0.0000
# 2 100.6956 164.0336 51.4623 0.0000 0.0000 0.0000
# 3 69.1524 51.4623 108.3030 0.0000 0.0000 0.0000
# 4 0.0000 0.0000 0.0000 8.4435 0.0000 0.0000
# 5 0.0000 0.0000 0.0000 0.0000 27.5623 0.0000
# 6 0.0000 0.0000 0.0000 0.0000 0.0000 77.7143
#
#
#
# Elastic Compliance Matrix: (Units=1/GPa)
#
#
# Indices 1 2 3 4 5 6 
#
# 1 0.007362 -0.003578 -0.003001 0.000000 0.000000 0.000000
# 2 -0.003578 0.008903 -0.001946 0.000000 0.000000 0.000000
# 3 -0.003001 -0.001946 0.012074 0.000000 0.000000 0.000000
# 4 0.000000 0.000000 0.000000 0.118434 0.000000 0.000000
# 5 0.000000 0.000000 0.000000 0.000000 0.036281 0.000000
# 6 0.000000 0.000000 0.000000 0.000000 0.000000 0.012868
#
#
# Mechanical properties :
#
#
# Convention : Reuss Voigt Hill
#
# Bulk Modulus (GPa) = 88.57296 103.10100 95.83698
# Shear Modulus (GPa) = 23.06962 40.34255 31.70609
#
# Velocity S-wave (km/s) = 3.12563 4.13331 3.66427
# Velocity P-wave (km/s) = 7.10879 8.15109 7.64772
#
# Compressibility (1/GPa) = 0.01129013
#
# Stress axis : x y z
#
# Youngs Moduli (GPa) = 135.82855 112.31802 82.82297
#
# Poissons Ratio (x) = 0.40188 0.24852
# Poissons Ratio (y) = 0.48600 0.16117
# Poissons Ratio (z) = 0.40757 0.21857
#
# Static dielectric constant tensor:
#      x y z
#    x 1.970920 0.000000 0.000000 
#    y 0.000000 1.948040 0.000000 
#    z 0.000000 0.000000 1.903050 
# 
# From -- ./inp_files/45775.got.cif
#   From: 2010.05.17/outbox.cif.g08.bks.cpg/sg66_23_cif.got.tgz:45775.got - 2010.06.03 17:51:23.
