data_PCOD9499178
_publ_section_title
;
Structure prediction by ZEFSAII (Michael W. Deem and Ramdas Pophale) SiO2 
 PCOD9499178
Probable space group: C C C M
;
_chemical_formula_sum "Si O2"
_cell_formula_units_Z 88
_cell_length_a 21.647049
_cell_length_b 11.814425
_cell_length_c 15.912494
_cell_angle_alpha 90.000000
_cell_angle_beta 90.000000
_cell_angle_gamma 90.000000
_cell_volume 4069.579555
_symmetry_space_group_name_H-M "C C C M"
_symmetry_group_IT_number 66
_symmetry_cell_setting 'orthorhombic'
loop_
_space_group_symop_operation_xyz
x,y,z
-x,-y,z
x,-y,1/2-z
-x,y,1/2-z
-x,-y,-z
x,y,-z
-x,y,1/2+z
x,-y,1/2+z
1/2+x,1/2+y,z
1/2-x,1/2-y,z
1/2+x,1/2-y,1/2-z
1/2-x,1/2+y,1/2-z
1/2-x,1/2-y,-z
1/2+x,1/2+y,-z
1/2-x,1/2+y,1/2+z
1/2+x,1/2-y,1/2+z
loop_
_atom_site_type_symbol
_atom_site_label
_atom_site_fract_x
_atom_site_fract_y
_atom_site_fract_z
Si Si1 0.250000 0.750000 0.744009
Si Si2 0.058256 0.216914 0.194177
Si Si3 0.635987 0.130629 0.176366
Si Si4 0.782976 0.937506 0.500000
Si Si5 0.935037 0.437941 0.401641
Si Si6 0.658359 0.190252 0.000000
Si Si7 0.167051 0.932335 0.336867
O O1 0.293186 0.834051 0.800370
O O2 0.207512 0.822299 0.682665
O O3 0.096543 0.295955 0.259416
O O4 0.050968 0.307961 0.120053
O O5 0.097098 0.112181 0.158765
O O6 0.000000 0.181412 0.250000
O O7 0.621081 0.180580 0.084844
O O8 0.616209 0.999846 0.158742
O O9 0.709754 0.910508 0.500000
O O10 0.810602 0.812157 0.500000
O O11 0.806877 0.002013 0.417051
O O12 0.918323 0.449694 0.500000
O O13 0.000000 0.500000 0.385059
O O14 0.171996 0.000000 0.250000
#
# Coordination Sequence:
#
# PCOD9499178 Si02
#       7
#     8  16  16   8  16   8  16
#     4  10  24  42  66  94 132 180 232 279 353 422
#     4  11  24  42  69  94 140 184 229 280 352 417
#     4  11  21  40  67  96 134 180 225 288 343 422
#     4  11  24  43  69  95 142 172 233 286 348 423
#     4  11  23  40  64 102 137 169 221 287 345 410
#     4  11  22  40  66 101 125 181 228 280 350 421
#     4  11  25  45  67  97 134 181 229 289 344 425
#
# _framework density 21.623854000000001
#
# number of rings (size 3 to 8) (size 9 to 14) (size 15 to 20)
#    0.000    1.091    2.727    4.909    1.273    8.000 
#    0.000    0.000    0.000    2.182    0.000    0.000 
#    0.000    0.000    0.000    0.000    0.000    0.000 
#
# Total GULP energy -245603.651224 kJ/mol
# GULP energy per Si atom -5581.901164 kJ/mol
# Density = 2.157464 g / cm^3
# Si number density = 21.623854 Si / 1000 Ang^3
#
#
#
# Elastic Constant Matrix: (Units=GPa)
#
#
# Indices 1 2 3 4 5 6 
#
# 1 84.1809 39.7821 19.3089 0.0000 0.0000 0.0000
# 2 39.7821 85.5710 38.1944 0.0000 0.0000 0.0000
# 3 19.3089 38.1944 114.7583 0.0000 0.0000 0.0000
# 4 0.0000 0.0000 0.0000 51.8997 0.0000 0.0000
# 5 0.0000 0.0000 0.0000 0.0000 10.9640 0.0000
# 6 0.0000 0.0000 0.0000 0.0000 0.0000 41.9191
#
#
#
# Elastic Compliance Matrix: (Units=1/GPa)
#
#
# Indices 1 2 3 4 5 6 
#
# 1 0.015230 -0.006972 -0.000242 0.000000 0.000000 0.000000
# 2 -0.006972 0.016917 -0.004457 0.000000 0.000000 0.000000
# 3 -0.000242 -0.004457 0.010238 0.000000 0.000000 0.000000
# 4 0.000000 0.000000 0.000000 0.019268 0.000000 0.000000
# 5 0.000000 0.000000 0.000000 0.000000 0.091208 0.000000
# 6 0.000000 0.000000 0.000000 0.000000 0.000000 0.023855
#
#
# Mechanical properties :
#
#
# Convention : Reuss Voigt Hill
#
# Bulk Modulus (GPa) = 52.51583 53.23121 52.87352
# Shear Modulus (GPa) = 24.22406 33.43821 28.83114
#
# Velocity S-wave (km/s) = 3.35064 3.93664 3.65540
# Velocity P-wave (km/s) = 6.26960 6.73299 6.50542
#
# Compressibility (1/GPa) = 0.01904188
#
# Stress axis : x y z
#
# Youngs Moduli (GPa) = 65.66147 59.11164 97.67363
#
# Poissons Ratio (x) = 0.41214 0.02363
# Poissons Ratio (y) = 0.45781 0.43536
# Poissons Ratio (z) = 0.01589 0.26348
#
# Static dielectric constant tensor:
#      x y z
#    x 1.869260 0.000000 0.000000 
#    y 0.000000 1.870290 0.000000 
#    z 0.000000 0.000000 1.786140 
# 
# From -- ./inp_files/42806.got.cif
#   From: 2010.05.17/outbox.cif.g08.bks.cpg/sg66_22_cif.got.tgz:42806.got - 2010.06.03 17:51:23.
