data_PCOD9499319
_publ_section_title
;
Structure prediction by ZEFSAII (Michael W. Deem and Ramdas Pophale) SiO2 
 PCOD9499319
Probable space group: C C C M
;
_chemical_formula_sum "Si O2"
_cell_formula_units_Z 68
_cell_length_a 11.552440
_cell_length_b 21.105925
_cell_length_c 13.646680
_cell_angle_alpha 90.000000
_cell_angle_beta 90.000000
_cell_angle_gamma 90.000000
_cell_volume 3327.400826
_symmetry_space_group_name_H-M "C C C M"
_symmetry_group_IT_number 66
_symmetry_cell_setting 'orthorhombic'
loop_
_space_group_symop_operation_xyz
x,y,z
-x,-y,z
x,-y,1/2-z
-x,y,1/2-z
-x,-y,-z
x,y,-z
-x,y,1/2+z
x,-y,1/2+z
1/2+x,1/2+y,z
1/2-x,1/2-y,z
1/2+x,1/2-y,1/2-z
1/2-x,1/2+y,1/2-z
1/2-x,1/2-y,-z
1/2+x,1/2+y,-z
1/2-x,1/2+y,1/2+z
1/2+x,1/2-y,1/2+z
loop_
_atom_site_type_symbol
_atom_site_label
_atom_site_fract_x
_atom_site_fract_y
_atom_site_fract_z
Si Si1 0.176491 0.929819 0.609574
Si Si2 0.087240 0.327863 0.388986
Si Si3 0.122654 0.523438 0.137919
Si Si4 0.000000 0.000000 0.750000
Si Si5 0.823749 0.690557 0.177780
O O1 0.135661 0.912115 0.500000
O O2 0.077379 0.955194 0.680872
O O3 0.247397 0.871872 0.657596
O O4 0.266134 0.987797 0.598850
O O5 0.116808 0.307049 0.500000
O O6 0.121158 0.401794 0.377304
O O7 0.147431 0.298152 0.293079
O O8 0.948760 0.319794 0.373009
O O9 0.122990 0.500000 0.250000
O O10 0.000000 0.500000 0.098871
O O11 0.750000 0.750000 0.140356
#
# Coordination Sequence:
#
# PCOD9499319 Si02
#       5
#    16  16  16   4  16
#     4  12  24  41  66  93 128 171 213 262 324 392
#     4  11  22  39  66  98 126 161 212 271 336 386
#     4  11  18  36  67 102 132 151 191 273 346 379
#     4  12  26  44  58  90 132 176 214 260 308 390
#     4  11  24  43  62  90 129 170 214 269 315 375
#
# _framework density 20.436371999999999
#
# number of rings (size 3 to 8) (size 9 to 14) (size 15 to 20)
#    0.000    0.706    5.882    3.176    0.000    5.176 
#    0.000    1.176    0.000    0.000    0.000    0.000 
#    0.000    0.000    0.000    0.000    0.000    0.000 
#
# Total GULP energy -189799.496352 kJ/mol
# GULP energy per Si atom -5582.338128 kJ/mol
# Density = 2.038986 g / cm^3
# Si number density = 20.436372 Si / 1000 Ang^3
#
#
#
# Elastic Constant Matrix: (Units=GPa)
#
#
# Indices 1 2 3 4 5 6 
#
# 1 116.8457 52.8150 44.8373 0.0000 0.0000 0.0000
# 2 52.8150 84.5593 -2.2464 0.0000 0.0000 0.0000
# 3 44.8373 -2.2464 180.9301 0.0000 0.0000 0.0000
# 4 0.0000 0.0000 0.0000 9.7892 0.0000 0.0000
# 5 0.0000 0.0000 0.0000 0.0000 125.7378 0.0000
# 6 0.0000 0.0000 0.0000 0.0000 0.0000 24.7182
#
#
#
# Elastic Compliance Matrix: (Units=1/GPa)
#
#
# Indices 1 2 3 4 5 6 
#
# 1 0.013882 -0.008765 -0.003549 0.000000 0.000000 0.000000
# 2 -0.008765 0.017364 0.002388 0.000000 0.000000 0.000000
# 3 -0.003549 0.002388 0.006436 0.000000 0.000000 0.000000
# 4 0.000000 0.000000 0.000000 0.102153 0.000000 0.000000
# 5 0.000000 0.000000 0.000000 0.000000 0.007953 0.000000
# 6 0.000000 0.000000 0.000000 0.000000 0.000000 0.040456
#
#
# Mechanical properties :
#
#
# Convention : Reuss Voigt Hill
#
# Bulk Modulus (GPa) = 56.08639 63.68298 59.88469
# Shear Modulus (GPa) = 23.36014 51.17765 37.26890
#
# Velocity S-wave (km/s) = 3.38459 5.00967 4.27506
# Velocity P-wave (km/s) = 6.54049 8.04311 7.33040
#
# Compressibility (1/GPa) = 0.01782964
#
# Stress axis : x y z
#
# Youngs Moduli (GPa) = 72.03634 57.59090 155.37289
#
# Poissons Ratio (x) = 0.50477 0.55141
# Poissons Ratio (y) = 0.63138 -0.37097
# Poissons Ratio (z) = 0.25565 -0.13751
#
# Static dielectric constant tensor:
#      x y z
#    x 1.706910 0.000000 0.000000 
#    y 0.000000 1.692660 0.000000 
#    z 0.000000 0.000000 1.908250 
# 
# From -- ./inp_files/26104.got.cif
#   From: 2010.05.17/outbox.cif.g08.bks.cpg/sg66_14_cif.got.tgz:26104.got - 2010.06.03 17:51:23.
