data_PCOD9499239
_publ_section_title
;
Structure prediction by ZEFSAII (Michael W. Deem and Ramdas Pophale) SiO2 
 PCOD9499239
Probable space group: C C C M
;
_chemical_formula_sum "Si O2"
_cell_formula_units_Z 56
_cell_length_a 5.750524
_cell_length_b 14.293710
_cell_length_c 31.005933
_cell_angle_alpha 90.000000
_cell_angle_beta 90.000000
_cell_angle_gamma 90.000000
_cell_volume 2548.573665
_symmetry_space_group_name_H-M "C C C M"
_symmetry_group_IT_number 66
_symmetry_cell_setting 'orthorhombic'
loop_
_space_group_symop_operation_xyz
x,y,z
-x,-y,z
x,-y,1/2-z
-x,y,1/2-z
-x,-y,-z
x,y,-z
-x,y,1/2+z
x,-y,1/2+z
1/2+x,1/2+y,z
1/2-x,1/2-y,z
1/2+x,1/2-y,1/2-z
1/2-x,1/2+y,1/2-z
1/2-x,1/2-y,-z
1/2+x,1/2+y,-z
1/2-x,1/2+y,1/2+z
1/2+x,1/2-y,1/2+z
loop_
_atom_site_type_symbol
_atom_site_label
_atom_site_fract_x
_atom_site_fract_y
_atom_site_fract_z
Si Si1 0.649130 0.145519 0.836461
Si Si2 0.000000 0.000000 0.849924
Si Si3 0.747646 0.055714 0.500000
Si Si4 0.000000 0.302322 0.250000
Si Si5 0.202369 0.359339 0.906607
O O1 0.750000 0.250000 0.841810
O O2 0.828173 0.065192 0.823504
O O3 0.472250 0.148058 0.796404
O O4 0.542101 0.119879 0.882970
O O5 0.123695 0.075246 0.880470
O O6 0.730696 0.116181 0.543542
O O7 0.500000 0.000000 0.500000
O O8 0.000000 0.000000 0.500000
O O9 0.250000 0.250000 0.254539
O O10 0.250000 0.250000 0.899198
#
# Coordination Sequence:
#
# PCOD9499239 Si02
#       5
#    16   8   8   8  16
#     4  11  24  46  79 107 151 201 250 312 386 448
#     4  12  24  45  75 106 146 192 254 303 375 450
#     4  12  27  48  75 111 155 197 259 315 374 456
#     4  10  24  46  79 111 152 198 250 313 380 455
#     4  12  25  47  74 109 149 203 247 316 379 451
#
# _framework density 21.973075000000001
#
# number of rings (size 3 to 8) (size 9 to 14) (size 15 to 20)
#    0.000    0.571    4.286    3.857    4.000    0.000 
#    0.000    6.429    0.000    0.000    0.000    0.000 
#    0.000    0.000    0.000    0.000    0.000    0.000 
#
# Total GULP energy -156210.250972 kJ/mol
# GULP energy per Si atom -5578.937535 kJ/mol
# Density = 2.192306 g / cm^3
# Si number density = 21.973075 Si / 1000 Ang^3
#
#
#
# Elastic Constant Matrix: (Units=GPa)
#
#
# Indices 1 2 3 4 5 6 
#
# 1 100.9430 45.7160 19.9787 0.0000 0.0000 0.0000
# 2 45.7160 134.8221 9.2348 0.0000 0.0000 0.0000
# 3 19.9787 9.2348 114.6744 0.0000 0.0000 0.0000
# 4 0.0000 0.0000 0.0000 -170.3663 0.0000 0.0000
# 5 0.0000 0.0000 0.0000 0.0000 5.7904 0.0000
# 6 0.0000 0.0000 0.0000 0.0000 0.0000 46.1127
#
#
#
# Elastic Compliance Matrix: (Units=1/GPa)
#
#
# Indices 1 2 3 4 5 6 
#
# 1 0.012055 -0.003966 -0.001781 0.000000 0.000000 0.000000
# 2 -0.003966 0.008763 -0.000015 0.000000 0.000000 0.000000
# 3 -0.001781 -0.000015 0.009032 0.000000 0.000000 0.000000
# 4 0.000000 0.000000 0.000000 -0.005870 0.000000 0.000000
# 5 0.000000 0.000000 0.000000 0.000000 0.172700 0.000000
# 6 0.000000 0.000000 0.000000 0.000000 0.000000 0.021686
#
#
# Mechanical properties :
#
#
# Convention : Reuss Voigt Hill
#
# Bulk Modulus (GPa) = 54.56414 55.58872 55.07643
# Shear Modulus (GPa) = 21.18664 -5.32531 7.93067
#
# Velocity S-wave (km/s) = 3.10854 -1.55847 1.90187
# Velocity P-wave (km/s) = 6.14575 4.70266 5.47199
#
# Compressibility (1/GPa) = 0.01832705
#
# Stress axis : x y z
#
# Youngs Moduli (GPa) = 82.95258 114.11751 110.71991
#
# Poissons Ratio (x) = 0.45256 0.19718
# Poissons Ratio (y) = 0.32896 0.00164
# Poissons Ratio (z) = 0.14773 0.00169
#
# Static dielectric constant tensor:
#      x y z
#    x 1.946010 0.000000 0.000000 
#    y 0.000000 1.823430 0.000000 
#    z 0.000000 0.000000 1.753840 
# 
# From -- ./inp_files/66798.got.cif
#   From: 2010.05.17/outbox.cif.g08.bks.cpg/sg66_34_cif.got.tgz:66798.got - 2010.06.03 17:51:23.
