data_PCOD9499784
_publ_section_title
;
Structure prediction by ZEFSAII (Michael W. Deem and Ramdas Pophale) SiO2 
 PCOD9499784
Probable space group: C C C M
;
_chemical_formula_sum "Si O2"
_cell_formula_units_Z 36
_cell_length_a 14.524811
_cell_length_b 4.914992
_cell_length_c 19.903005
_cell_angle_alpha 90.000000
_cell_angle_beta 90.000000
_cell_angle_gamma 90.000000
_cell_volume 1420.862189
_symmetry_space_group_name_H-M "C C C M"
_symmetry_group_IT_number 66
_symmetry_cell_setting 'orthorhombic'
loop_
_space_group_symop_operation_xyz
x,y,z
-x,-y,z
x,-y,1/2-z
-x,y,1/2-z
-x,-y,-z
x,y,-z
-x,y,1/2+z
x,-y,1/2+z
1/2+x,1/2+y,z
1/2-x,1/2-y,z
1/2+x,1/2-y,1/2-z
1/2-x,1/2+y,1/2-z
1/2-x,1/2-y,-z
1/2+x,1/2+y,-z
1/2-x,1/2+y,1/2+z
1/2+x,1/2-y,1/2+z
loop_
_atom_site_type_symbol
_atom_site_label
_atom_site_fract_x
_atom_site_fract_y
_atom_site_fract_z
Si Si1 0.841564 0.856437 0.157985
Si Si2 0.395708 0.885170 0.923857
Si Si3 0.000000 0.000000 0.250000
O O1 0.750000 0.750000 0.195804
O O2 0.841328 0.653832 0.095052
O O3 0.139257 0.843977 0.127911
O O4 0.930459 0.821012 0.205424
O O5 0.500000 0.000000 0.917960
O O6 0.383420 0.787731 0.000000
#
# Coordination Sequence:
#
# PCOD9499784 Si02
#       3
#    16  16   4
#     4  12  27  46  76 109 145 203 255 313 390 457
#     4  11  23  46  76 109 150 193 244 319 398 458
#     4  12  28  54  70 104 160 202 260 332 364 464
#
# _framework density 25.336729999999999
#
# number of rings (size 3 to 8) (size 9 to 14) (size 15 to 20)
#    0.000    0.444    4.444    2.667    0.000   16.000 
#    0.000    0.000    0.000    0.000    0.000    0.000 
#    0.000    0.000    0.000    0.000    0.000    0.000 
#
# Total GULP energy -100503.674745 kJ/mol
# GULP energy per Si atom -5583.537486 kJ/mol
# Density = 2.527906 g / cm^3
# Si number density = 25.336730 Si / 1000 Ang^3
#
#
#
# Elastic Constant Matrix: (Units=GPa)
#
#
# Indices 1 2 3 4 5 6 
#
# 1 229.1878 65.0726 59.6600 0.0000 0.0000 0.0000
# 2 65.0726 125.9918 25.5316 0.0000 0.0000 0.0000
# 3 59.6600 25.5316 100.7859 0.0000 0.0000 0.0000
# 4 0.0000 0.0000 0.0000 33.8276 0.0000 0.0000
# 5 0.0000 0.0000 0.0000 0.0000 -21.7257 0.0000
# 6 0.0000 0.0000 0.0000 0.0000 0.0000 38.1997
#
#
#
# Elastic Compliance Matrix: (Units=1/GPa)
#
#
# Indices 1 2 3 4 5 6 
#
# 1 0.005781 -0.002416 -0.002810 0.000000 0.000000 0.000000
# 2 -0.002416 0.009376 -0.000945 0.000000 0.000000 0.000000
# 3 -0.002810 -0.000945 0.011825 0.000000 0.000000 0.000000
# 4 0.000000 0.000000 0.000000 0.029562 0.000000 0.000000
# 5 0.000000 0.000000 0.000000 0.000000 -0.046029 0.000000
# 6 0.000000 0.000000 0.000000 0.000000 0.000000 0.026178
#
#
# Mechanical properties :
#
#
# Convention : Reuss Voigt Hill
#
# Bulk Modulus (GPa) = 68.30704 84.05486 76.18095
# Shear Modulus (GPa) = 92.73840 30.44042 61.58941
#
# Velocity S-wave (km/s) = 6.05655 3.46993 4.93570
# Velocity P-wave (km/s) = 8.71363 7.02147 7.91291
#
# Compressibility (1/GPa) = 0.01463978
#
# Stress axis : x y z
#
# Youngs Moduli (GPa) = 172.99005 106.64992 84.56910
#
# Poissons Ratio (x) = 0.25769 0.23762
# Poissons Ratio (y) = 0.41798 0.07992
# Poissons Ratio (z) = 0.48606 0.10079
#
# Static dielectric constant tensor:
#      x y z
#    x 2.598750 0.000000 0.000000 
#    y 0.000000 1.953970 0.000000 
#    z 0.000000 0.000000 2.030190 
# 
# From -- ./inp_files/27210.got.cif
#   From: 2010.05.17/outbox.cif.g08.bks.cpg/sg66_14_cif.got.tgz:27210.got - 2010.06.03 17:51:23.
