data_PCOD9499309
_publ_section_title
;
Structure prediction by ZEFSAII (Michael W. Deem and Ramdas Pophale) SiO2 
 PCOD9499309
Probable space group: C C C M
;
_chemical_formula_sum "Si O2"
_cell_formula_units_Z 80
_cell_length_a 18.501517
_cell_length_b 14.504577
_cell_length_c 18.439173
_cell_angle_alpha 90.000000
_cell_angle_beta 90.000000
_cell_angle_gamma 90.000000
_cell_volume 4948.275210
_symmetry_space_group_name_H-M "C C C M"
_symmetry_group_IT_number 66
_symmetry_cell_setting 'orthorhombic'
loop_
_space_group_symop_operation_xyz
x,y,z
-x,-y,z
x,-y,1/2-z
-x,y,1/2-z
-x,-y,-z
x,y,-z
-x,y,1/2+z
x,-y,1/2+z
1/2+x,1/2+y,z
1/2-x,1/2-y,z
1/2+x,1/2-y,1/2-z
1/2-x,1/2+y,1/2-z
1/2-x,1/2-y,-z
1/2+x,1/2+y,-z
1/2-x,1/2+y,1/2+z
1/2+x,1/2-y,1/2+z
loop_
_atom_site_type_symbol
_atom_site_label
_atom_site_fract_x
_atom_site_fract_y
_atom_site_fract_z
Si Si1 0.420855 0.755588 0.242732
Si Si2 0.206139 0.018981 0.584703
Si Si3 0.699450 0.904408 0.289179
Si Si4 0.302500 0.671683 0.335854
Si Si5 0.573423 0.555560 0.322136
O O1 0.500000 0.799777 0.250000
O O2 0.363829 0.828617 0.210042
O O3 0.379389 0.715978 0.314297
O O4 0.436461 0.661821 0.198414
O O5 0.217885 0.029602 0.500000
O O6 0.267161 0.068463 0.633512
O O7 0.129353 0.055652 0.612765
O O8 0.199783 0.912840 0.609727
O O9 0.764289 0.863089 0.239167
O O10 0.676383 0.000000 0.250000
O O11 0.250000 0.750000 0.365070
O O12 0.500000 0.500000 0.338606
O O13 0.602497 0.500000 0.250000
#
# Coordination Sequence:
#
# PCOD9499309 Si02
#       5
#    16  16  16  16  16
#     4  11  18  30  57  80  98 132 176 230 270 301
#     4  11  20  32  50  75 112 145 171 211 266 328
#     4   9  19  35  52  75 105 136 181 224 260 310
#     4   9  17  32  54  74  97 133 180 226 258 298
#     4  11  18  32  53  77 105 135 176 217 266 311
#
# _framework density 16.167249000000002
#
# number of rings (size 3 to 8) (size 9 to 14) (size 15 to 20)
#    0.000    1.800    6.000    0.600    0.000    1.200 
#    0.000    2.000    0.000    1.200    0.000   12.600 
#    0.000    0.000    0.000    0.000    0.000    0.000 
#
# Total GULP energy -222773.883371 kJ/mol
# GULP energy per Si atom -5569.347084 kJ/mol
# Density = 1.613045 g / cm^3
# Si number density = 16.167249 Si / 1000 Ang^3
#
#
#
# Elastic Constant Matrix: (Units=GPa)
#
#
# Indices 1 2 3 4 5 6 
#
# 1 113.5021 42.9828 38.4767 0.0000 0.0000 0.0000
# 2 42.9828 79.5687 27.4622 0.0000 0.0000 0.0000
# 3 38.4767 27.4622 103.4942 0.0000 0.0000 0.0000
# 4 0.0000 0.0000 0.0000 8.8501 0.0000 0.0000
# 5 0.0000 0.0000 0.0000 0.0000 13.8675 0.0000
# 6 0.0000 0.0000 0.0000 0.0000 0.0000 32.4466
#
#
#
# Elastic Compliance Matrix: (Units=1/GPa)
#
#
# Indices 1 2 3 4 5 6 
#
# 1 0.011857 -0.005376 -0.002982 0.000000 0.000000 0.000000
# 2 -0.005376 0.016272 -0.002319 0.000000 0.000000 0.000000
# 3 -0.002982 -0.002319 0.011386 0.000000 0.000000 0.000000
# 4 0.000000 0.000000 0.000000 0.112993 0.000000 0.000000
# 5 0.000000 0.000000 0.000000 0.000000 0.072111 0.000000
# 6 0.000000 0.000000 0.000000 0.000000 0.000000 0.030820
#
#
# Mechanical properties :
#
#
# Convention : Reuss Voigt Hill
#
# Bulk Modulus (GPa) = 55.06030 57.15650 56.10840
# Shear Modulus (GPa) = 17.67740 23.54240 20.60990
#
# Velocity S-wave (km/s) = 3.31026 3.82013 3.57430
# Velocity P-wave (km/s) = 6.98148 7.40863 7.19823
#
# Compressibility (1/GPa) = 0.01816191
#
# Stress axis : x y z
#
# Youngs Moduli (GPa) = 84.33787 61.45395 87.82509
#
# Poissons Ratio (x) = 0.33038 0.26186
# Poissons Ratio (y) = 0.45341 0.20368
# Poissons Ratio (z) = 0.25146 0.14252
#
# Static dielectric constant tensor:
#      x y z
#    x 1.587480 0.000000 0.000000 
#    y 0.000000 1.576050 0.000000 
#    z 0.000000 0.000000 1.521130 
# 
# From -- ./inp_files/40187.got.cif
#   From: 2010.05.17/outbox.cif.g08.bks.cpg/sg66_21_cif.got.tgz:40187.got - 2010.06.03 17:51:23.
