data_PCOD9499627
_publ_section_title
;
Structure prediction by ZEFSAII (Michael W. Deem and Ramdas Pophale) SiO2 
 PCOD9499627
Probable space group: C C C M
;
_chemical_formula_sum "Si O2"
_cell_formula_units_Z 68
_cell_length_a 15.763029
_cell_length_b 21.193399
_cell_length_c 8.998170
_cell_angle_alpha 90.000000
_cell_angle_beta 90.000000
_cell_angle_gamma 90.000000
_cell_volume 3006.038115
_symmetry_space_group_name_H-M "C C C M"
_symmetry_group_IT_number 66
_symmetry_cell_setting 'orthorhombic'
loop_
_space_group_symop_operation_xyz
x,y,z
-x,-y,z
x,-y,1/2-z
-x,y,1/2-z
-x,-y,-z
x,y,-z
-x,y,1/2+z
x,-y,1/2+z
1/2+x,1/2+y,z
1/2-x,1/2-y,z
1/2+x,1/2-y,1/2-z
1/2-x,1/2+y,1/2-z
1/2-x,1/2-y,-z
1/2+x,1/2+y,-z
1/2-x,1/2+y,1/2+z
1/2+x,1/2-y,1/2+z
loop_
_atom_site_type_symbol
_atom_site_label
_atom_site_fract_x
_atom_site_fract_y
_atom_site_fract_z
Si Si1 0.415384 0.246822 0.830557
Si Si2 0.907221 0.437945 0.322206
Si Si3 0.500000 0.500000 0.250000
Si Si4 0.128481 0.111738 0.837629
Si Si5 0.289248 0.835282 0.823042
O O1 0.500000 0.222967 0.750000
O O2 0.423082 0.322691 0.841191
O O3 0.330215 0.230376 0.739569
O O4 0.408807 0.223145 0.000000
O O5 0.865715 0.500000 0.250000
O O6 0.911520 0.441911 0.500000
O O7 0.855944 0.379771 0.261071
O O8 0.000000 0.434347 0.250000
O O9 0.432826 0.448754 0.181267
O O10 0.200897 0.129940 0.719412
O O11 0.171336 0.105330 0.000000
O O12 0.296402 0.833228 0.000000
#
# Coordination Sequence:
#
# PCOD9499627 Si02
#       5
#    16  16   4  16  16
#     4  11  23  44  72 105 145 189 239 299 366 435
#     4  11  22  40  64  94 135 180 230 287 353 429
#     4  12  26  52  80 110 144 192 246 298 362 440
#     4  11  26  47  73 104 142 187 240 302 364 430
#     4  12  26  43  68 102 141 187 239 298 360 429
#
# _framework density 22.621137000000001
#
# number of rings (size 3 to 8) (size 9 to 14) (size 15 to 20)
#    0.000    0.706    1.176    7.412    1.647    6.588 
#    0.000    0.000    0.000    0.000    0.000    0.000 
#    0.000    0.000    0.000    0.000    0.000    0.000 
#
# Total GULP energy -189514.108941 kJ/mol
# GULP energy per Si atom -5573.944381 kJ/mol
# Density = 2.256965 g / cm^3
# Si number density = 22.621137 Si / 1000 Ang^3
#
#
#
# Elastic Constant Matrix: (Units=GPa)
#
#
# Indices 1 2 3 4 5 6 
#
# 1 115.5918 15.6085 71.2223 0.0000 0.0000 0.0000
# 2 15.6085 118.5092 30.2391 0.0000 0.0000 0.0000
# 3 71.2223 30.2391 238.3773 0.0000 0.0000 0.0000
# 4 0.0000 0.0000 0.0000 22.5197 0.0000 0.0000
# 5 0.0000 0.0000 0.0000 0.0000 14.6606 0.0000
# 6 0.0000 0.0000 0.0000 0.0000 0.0000 16.2845
#
#
#
# Elastic Compliance Matrix: (Units=1/GPa)
#
#
# Indices 1 2 3 4 5 6 
#
# 1 0.010646 -0.000610 -0.003103 0.000000 0.000000 0.000000
# 2 -0.000610 0.008755 -0.000928 0.000000 0.000000 0.000000
# 3 -0.003103 -0.000928 0.005240 0.000000 0.000000 0.000000
# 4 0.000000 0.000000 0.000000 0.044406 0.000000 0.000000
# 5 0.000000 0.000000 0.000000 0.000000 0.068210 0.000000
# 6 0.000000 0.000000 0.000000 0.000000 0.000000 0.061408
#
#
# Mechanical properties :
#
#
# Convention : Reuss Voigt Hill
#
# Bulk Modulus (GPa) = 65.11564 78.51313 71.81439
# Shear Modulus (GPa) = 23.46675 34.38685 28.92680
#
# Velocity S-wave (km/s) = 3.22433 3.90310 3.57984
# Velocity P-wave (km/s) = 6.53526 7.42263 6.99303
#
# Compressibility (1/GPa) = 0.01535729
#
# Stress axis : x y z
#
# Youngs Moduli (GPa) = 93.93513 114.21505 190.84005
#
# Poissons Ratio (x) = 0.06970 0.59223
# Poissons Ratio (y) = 0.05733 0.17716
# Poissons Ratio (z) = 0.29151 0.10603
#
# Static dielectric constant tensor:
#      x y z
#    x 1.749590 0.000000 0.000000 
#    y 0.000000 2.303500 0.000000 
#    z 0.000000 0.000000 1.804430 
# 
# From -- ./inp_files/6250.got.cif
#   From: 2010.05.17/outbox.cif.g08.bks.cpg/sg66_4_cif.got.tgz:6250.got - 2010.06.03 17:51:23.
