data_PCOD9499833
_publ_section_title
;
Structure prediction by ZEFSAII (Michael W. Deem and Ramdas Pophale) SiO2 
 PCOD9499833
Probable space group: C C C M
;
_chemical_formula_sum "Si O2"
_cell_formula_units_Z 80
_cell_length_a 11.172063
_cell_length_b 14.110288
_cell_length_c 25.460370
_cell_angle_alpha 90.000000
_cell_angle_beta 90.000000
_cell_angle_gamma 90.000000
_cell_volume 4013.598861
_symmetry_space_group_name_H-M "C C C M"
_symmetry_group_IT_number 66
_symmetry_cell_setting 'orthorhombic'
loop_
_space_group_symop_operation_xyz
x,y,z
-x,-y,z
x,-y,1/2-z
-x,y,1/2-z
-x,-y,-z
x,y,-z
-x,y,1/2+z
x,-y,1/2+z
1/2+x,1/2+y,z
1/2-x,1/2-y,z
1/2+x,1/2-y,1/2-z
1/2-x,1/2+y,1/2-z
1/2-x,1/2-y,-z
1/2+x,1/2+y,-z
1/2-x,1/2+y,1/2+z
1/2+x,1/2-y,1/2+z
loop_
_atom_site_type_symbol
_atom_site_label
_atom_site_fract_x
_atom_site_fract_y
_atom_site_fract_z
Si Si1 0.392253 0.761283 0.406181
Si Si2 0.047778 0.798599 0.000000
Si Si3 0.701206 0.896633 0.500000
Si Si4 0.995319 0.164078 0.191322
Si Si5 0.190987 0.004815 0.691186
Si Si6 0.372496 0.974251 0.402256
O O1 0.250000 0.750000 0.398385
O O2 0.459350 0.698553 0.449972
O O3 0.463569 0.737661 0.352769
O O4 0.395768 0.869638 0.424357
O O5 0.156440 0.873651 0.000000
O O6 0.122290 0.699475 0.000000
O O7 0.667017 0.956564 0.448718
O O8 0.000000 0.205639 0.250000
O O9 0.870501 0.107966 0.182483
O O10 0.090143 0.077232 0.191312
O O11 0.244278 0.000000 0.750000
O O12 0.277368 0.979237 0.644023
O O13 0.500000 0.000000 0.378641
#
# Coordination Sequence:
#
# PCOD9499833 Si02
#       6
#    16   8   8  16  16  16
#     4  12  23  41  64  95 130 159 205 263 314 364
#     4  11  24  43  66  91 120 167 212 254 309 377
#     4  11  24  44  64  86 126 165 210 248 311 385
#     4   9  19  40  64  89 122 164 208 251 305 364
#     4   9  19  39  65  88 120 164 208 253 301 366
#     4  12  23  41  62  90 128 163 199 256 320 369
#
# _framework density 19.932237000000001
#
# number of rings (size 3 to 8) (size 9 to 14) (size 15 to 20)
#    0.000    1.400    4.000    3.600    0.000    0.400 
#    3.600    1.000    0.000    0.000    0.000    0.000 
#    0.000    0.000    0.000    0.000    0.000    0.000 
#
# Total GULP energy -223130.044963 kJ/mol
# GULP energy per Si atom -5578.251124 kJ/mol
# Density = 1.988687 g / cm^3
# Si number density = 19.932237 Si / 1000 Ang^3
#
#
#
# Elastic Constant Matrix: (Units=GPa)
#
#
# Indices 1 2 3 4 5 6 
#
# 1 90.1284 4.8294 52.9264 0.0000 0.0000 0.0000
# 2 4.8294 51.1846 11.1180 0.0000 0.0000 0.0000
# 3 52.9264 11.1180 137.3870 0.0000 0.0000 0.0000
# 4 0.0000 0.0000 0.0000 6.7691 0.0000 0.0000
# 5 0.0000 0.0000 0.0000 0.0000 27.8624 0.0000
# 6 0.0000 0.0000 0.0000 0.0000 0.0000 17.0400
#
#
#
# Elastic Compliance Matrix: (Units=1/GPa)
#
#
# Indices 1 2 3 4 5 6 
#
# 1 0.014340 -0.000156 -0.005512 0.000000 0.000000 0.000000
# 2 -0.000156 0.019888 -0.001549 0.000000 0.000000 0.000000
# 3 -0.005512 -0.001549 0.009527 0.000000 0.000000 0.000000
# 4 0.000000 0.000000 0.000000 0.147731 0.000000 0.000000
# 5 0.000000 0.000000 0.000000 0.000000 0.035891 0.000000
# 6 0.000000 0.000000 0.000000 0.000000 0.000000 0.058685
#
#
# Mechanical properties :
#
#
# Convention : Reuss Voigt Hill
#
# Bulk Modulus (GPa) = 34.10398 46.27195 40.18797
# Shear Modulus (GPa) = 16.11494 24.32270 20.21882
#
# Velocity S-wave (km/s) = 2.84647 3.49703 3.18839
# Velocity P-wave (km/s) = 5.28681 6.29052 5.81038
#
# Compressibility (1/GPa) = 0.02932209
#
# Stress axis : x y z
#
# Youngs Moduli (GPa) = 69.73325 50.28058 104.95988
#
# Poissons Ratio (x) = 0.00783 0.57852
# Poissons Ratio (y) = 0.01086 0.16263
# Poissons Ratio (z) = 0.38436 0.07791
#
# Static dielectric constant tensor:
#      x y z
#    x 1.770590 0.000000 0.000000 
#    y 0.000000 1.782160 0.000000 
#    z 0.000000 0.000000 1.691100 
# 
# From -- ./inp_files/56634.got.cif
#   From: 2010.05.17/outbox.cif.g08.bks.cpg/sg66_29_cif.got.tgz:56634.got - 2010.06.03 17:51:23.
