data_PCOD9499134
_publ_section_title
;
Structure prediction by ZEFSAII (Michael W. Deem and Ramdas Pophale) SiO2 
 PCOD9499134
Probable space group: C C C M
;
_chemical_formula_sum "Si O2"
_cell_formula_units_Z 56
_cell_length_a 19.363084
_cell_length_b 9.509057
_cell_length_c 14.023375
_cell_angle_alpha 90.000000
_cell_angle_beta 90.000000
_cell_angle_gamma 90.000000
_cell_volume 2582.049286
_symmetry_space_group_name_H-M "C C C M"
_symmetry_group_IT_number 66
_symmetry_cell_setting 'orthorhombic'
loop_
_space_group_symop_operation_xyz
x,y,z
-x,-y,z
x,-y,1/2-z
-x,y,1/2-z
-x,-y,-z
x,y,-z
-x,y,1/2+z
x,-y,1/2+z
1/2+x,1/2+y,z
1/2-x,1/2-y,z
1/2+x,1/2-y,1/2-z
1/2-x,1/2+y,1/2-z
1/2-x,1/2-y,-z
1/2+x,1/2+y,-z
1/2-x,1/2+y,1/2+z
1/2+x,1/2-y,1/2+z
loop_
_atom_site_type_symbol
_atom_site_label
_atom_site_fract_x
_atom_site_fract_y
_atom_site_fract_z
Si Si1 0.500000 0.500000 0.250000
Si Si2 0.767468 0.899044 0.108698
Si Si3 0.126695 0.442048 0.644324
Si Si4 0.385441 0.382053 0.614880
Si Si5 0.000000 0.500000 0.000000
O O1 0.547520 0.590297 0.320963
O O2 0.750000 0.750000 0.157883
O O3 0.696633 0.984335 0.108958
O O4 0.828836 0.000145 0.142132
O O5 0.789119 0.865174 0.000000
O O6 0.115387 0.500000 0.750000
O O7 0.138620 0.275117 0.637458
O O8 0.060404 0.479180 0.581666
O O9 0.398953 0.390530 0.500000
#
# Coordination Sequence:
#
# PCOD9499134 Si02
#       5
#     4  16  16  16   4
#     4  12  30  44  74 114 148 194 240 312 356 454
#     4  10  23  46  76 108 143 191 245 305 363 436
#     4  12  27  44  77 108 145 193 248 300 367 440
#     4  11  26  50  75 106 151 199 242 304 374 440
#     4  12  26  48  68 108 150 190 236 314 358 450
#
# _framework density 21.688200999999999
#
# number of rings (size 3 to 8) (size 9 to 14) (size 15 to 20)
#    0.000    0.857    2.857    1.714   10.000    2.286 
#    5.143    0.000    0.000    0.000    0.000    0.000 
#    0.000    0.000    0.000    0.000    0.000    0.000 
#
# Total GULP energy -155987.575529 kJ/mol
# GULP energy per Si atom -5570.984840 kJ/mol
# Density = 2.163884 g / cm^3
# Si number density = 21.688201 Si / 1000 Ang^3
#
#
#
# Elastic Constant Matrix: (Units=GPa)
#
#
# Indices 1 2 3 4 5 6 
#
# 1 133.4579 75.9424 25.8089 0.0000 0.0000 0.0000
# 2 75.9424 168.3265 38.8890 0.0000 0.0000 0.0000
# 3 25.8089 38.8890 159.3913 0.0000 0.0000 0.0000
# 4 0.0000 0.0000 0.0000 25.9632 0.0000 0.0000
# 5 0.0000 0.0000 0.0000 0.0000 36.2622 0.0000
# 6 0.0000 0.0000 0.0000 0.0000 0.0000 10.1991
#
#
#
# Elastic Compliance Matrix: (Units=1/GPa)
#
#
# Indices 1 2 3 4 5 6 
#
# 1 0.010127 -0.004441 -0.000556 0.000000 0.000000 0.000000
# 2 -0.004441 0.008243 -0.001292 0.000000 0.000000 0.000000
# 3 -0.000556 -0.001292 0.006679 0.000000 0.000000 0.000000
# 4 0.000000 0.000000 0.000000 0.038516 0.000000 0.000000
# 5 0.000000 0.000000 0.000000 0.000000 0.027577 0.000000
# 6 0.000000 0.000000 0.000000 0.000000 0.000000 0.098048
#
#
# Mechanical properties :
#
#
# Convention : Reuss Voigt Hill
#
# Bulk Modulus (GPa) = 80.18419 82.49513 81.33966
# Shear Modulus (GPa) = 24.28058 35.85392 30.06725
#
# Velocity S-wave (km/s) = 3.34957 4.07031 3.72740
# Velocity P-wave (km/s) = 7.21187 7.75947 7.49067
#
# Compressibility (1/GPa) = 0.01247129
#
# Stress axis : x y z
#
# Youngs Moduli (GPa) = 98.74168 121.31874 149.71822
#
# Poissons Ratio (x) = 0.53872 0.08331
# Poissons Ratio (y) = 0.43847 0.19345
# Poissons Ratio (z) = 0.05494 0.15675
#
# Static dielectric constant tensor:
#      x y z
#    x 1.736400 0.000000 0.000000 
#    y 0.000000 1.902380 0.000000 
#    z 0.000000 0.000000 1.852060 
# 
# From -- ./inp_files/30731.got.cif
#   From: 2010.05.17/outbox.cif.g08.bks.cpg/sg66_16_cif.got.tgz:30731.got - 2010.06.03 17:51:23.
