data_PCOD9499890
_publ_section_title
;
Structure prediction by ZEFSAII (Michael W. Deem and Ramdas Pophale) SiO2 
 PCOD9499890
Probable space group: C C C M
;
_chemical_formula_sum "Si O2"
_cell_formula_units_Z 64
_cell_length_a 8.256831
_cell_length_b 15.508083
_cell_length_c 22.054995
_cell_angle_alpha 90.000000
_cell_angle_beta 90.000000
_cell_angle_gamma 90.000000
_cell_volume 2824.089629
_symmetry_space_group_name_H-M "C C C M"
_symmetry_group_IT_number 66
_symmetry_cell_setting 'orthorhombic'
loop_
_space_group_symop_operation_xyz
x,y,z
-x,-y,z
x,-y,1/2-z
-x,y,1/2-z
-x,-y,-z
x,y,-z
-x,y,1/2+z
x,-y,1/2+z
1/2+x,1/2+y,z
1/2-x,1/2-y,z
1/2+x,1/2-y,1/2-z
1/2-x,1/2+y,1/2-z
1/2-x,1/2-y,-z
1/2+x,1/2+y,-z
1/2-x,1/2+y,1/2+z
1/2+x,1/2-y,1/2+z
loop_
_atom_site_type_symbol
_atom_site_label
_atom_site_fract_x
_atom_site_fract_y
_atom_site_fract_z
Si Si1 0.816458 0.339658 0.129971
Si Si2 0.809653 0.342766 0.266874
Si Si3 0.648545 0.163517 0.433451
Si Si4 0.314682 0.477058 0.865364
O O1 0.750000 0.250000 0.102571
O O2 0.740915 0.343037 0.198206
O O3 0.771196 0.436042 0.111440
O O4 0.008453 0.334774 0.117301
O O5 0.750000 0.250000 0.292726
O O6 0.755252 0.425474 0.306118
O O7 0.000000 0.344621 0.250000
O O8 0.573420 0.150297 0.500000
O O9 0.750000 0.250000 0.433852
O O10 0.778523 0.090917 0.417860
O O11 0.500000 0.500000 0.854755
#
# Coordination Sequence:
#
# PCOD9499890 Si02
#       4
#    16  16  16  16
#     4  11  25  43  69 102 142 186 231 290 353 420
#     4  11  25  42  71 104 141 183 227 283 348 424
#     4  11  25  47  73 101 138 185 240 298 352 412
#     4  12  26  43  71 104 144 186 234 286 350 424
#
# _framework density 22.662168999999999
#
# number of rings (size 3 to 8) (size 9 to 14) (size 15 to 20)
#    0.000    0.750    2.500    3.750    7.000    5.000 
#    0.000    0.000    0.000    0.000    0.000    0.000 
#    0.000    0.000    0.000    0.000    0.000    0.000 
#
# Total GULP energy -178429.184647 kJ/mol
# GULP energy per Si atom -5575.912020 kJ/mol
# Density = 2.261059 g / cm^3
# Si number density = 22.662169 Si / 1000 Ang^3
#
#
#
# Elastic Constant Matrix: (Units=GPa)
#
#
# Indices 1 2 3 4 5 6 
#
# 1 147.8822 79.0341 15.7972 0.0000 0.0000 0.0000
# 2 79.0341 220.6349 28.6878 0.0000 0.0000 0.0000
# 3 15.7972 28.6878 88.9287 0.0000 0.0000 0.0000
# 4 0.0000 0.0000 0.0000 -11.1698 0.0000 0.0000
# 5 0.0000 0.0000 0.0000 0.0000 30.4510 0.0000
# 6 0.0000 0.0000 0.0000 0.0000 0.0000 43.3137
#
#
#
# Elastic Compliance Matrix: (Units=1/GPa)
#
#
# Indices 1 2 3 4 5 6 
#
# 1 0.008388 -0.002934 -0.000544 0.000000 0.000000 0.000000
# 2 -0.002934 0.005757 -0.001336 0.000000 0.000000 0.000000
# 3 -0.000544 -0.001336 0.011773 0.000000 0.000000 0.000000
# 4 0.000000 0.000000 0.000000 -0.089527 0.000000 0.000000
# 5 0.000000 0.000000 0.000000 0.000000 0.032840 0.000000
# 6 0.000000 0.000000 0.000000 0.000000 0.000000 0.023087
#
#
# Mechanical properties :
#
#
# Convention : Reuss Voigt Hill
#
# Bulk Modulus (GPa) = 61.38517 78.27602 69.83059
# Shear Modulus (GPa) = 677.93438 34.78076 356.35757
#
# Velocity S-wave (km/s) = 17.31466 3.92184 12.55345
# Velocity P-wave (km/s) = 20.66097 7.42450 15.52416
#
# Compressibility (1/GPa) = 0.01629058
#
# Stress axis : x y z
#
# Youngs Moduli (GPa) = 119.21340 173.69782 84.94369
#
# Poissons Ratio (x) = 0.50965 0.04617
# Poissons Ratio (y) = 0.34979 0.11348
# Poissons Ratio (z) = 0.06480 0.23206
#
# Static dielectric constant tensor:
#      x y z
#    x 1.859140 0.000000 0.000000 
#    y 0.000000 1.874920 0.000000 
#    z 0.000000 0.000000 1.976140 
# 
# From -- ./inp_files/54932.got.cif
#   From: 2010.05.17/outbox.cif.g08.bks.cpg/sg66_28_cif.got.tgz:54932.got - 2010.06.03 17:51:23.
