data_PCOD9499397
_publ_section_title
;
Structure prediction by ZEFSAII (Michael W. Deem and Ramdas Pophale) SiO2 
 PCOD9499397
Probable space group: C C C M
;
_chemical_formula_sum "Si O2"
_cell_formula_units_Z 64
_cell_length_a 11.086942
_cell_length_b 14.471219
_cell_length_c 20.818788
_cell_angle_alpha 90.000000
_cell_angle_beta 90.000000
_cell_angle_gamma 90.000000
_cell_volume 3340.198943
_symmetry_space_group_name_H-M "C C C M"
_symmetry_group_IT_number 66
_symmetry_cell_setting 'orthorhombic'
loop_
_space_group_symop_operation_xyz
x,y,z
-x,-y,z
x,-y,1/2-z
-x,y,1/2-z
-x,-y,-z
x,y,-z
-x,y,1/2+z
x,-y,1/2+z
1/2+x,1/2+y,z
1/2-x,1/2-y,z
1/2+x,1/2-y,1/2-z
1/2-x,1/2+y,1/2-z
1/2-x,1/2-y,-z
1/2+x,1/2+y,-z
1/2-x,1/2+y,1/2+z
1/2+x,1/2-y,1/2+z
loop_
_atom_site_type_symbol
_atom_site_label
_atom_site_fract_x
_atom_site_fract_y
_atom_site_fract_z
Si Si1 0.806121 0.647592 0.751266
Si Si2 0.894373 0.766934 0.073567
Si Si3 0.513753 0.107856 0.854815
Si Si4 0.067240 0.903096 0.310308
O O1 0.750000 0.750000 0.750721
O O2 0.915638 0.635533 0.800664
O O3 0.701727 0.586587 0.783619
O O4 0.858006 0.623282 0.680943
O O5 0.750000 0.750000 0.082828
O O6 0.975078 0.676218 0.088130
O O7 0.932510 0.842273 0.126159
O O8 0.910886 0.796529 0.000000
O O9 0.500000 0.000000 0.870810
O O10 0.000000 0.854876 0.250000
O O11 0.000000 0.000000 0.320684
#
# Coordination Sequence:
#
# PCOD9499397 Si02
#       4
#    16  16  16  16
#     4  11  20  38  60  95 126 160 209 253 330 372
#     4  11  23  43  66  91 127 175 219 258 319 391
#     4  11  23  37  62  91 133 165 204 272 310 383
#     4  11  23  36  67  96 127 158 212 269 320 376
#
# _framework density 19.160537000000001
#
# number of rings (size 3 to 8) (size 9 to 14) (size 15 to 20)
#    0.000    1.000    5.000    3.000    7.000    1.000 
#    0.000    0.000    0.000    6.750    0.000    0.000 
#    0.000    0.000    0.000    0.000    0.000    0.000 
#
# Total GULP energy -178562.523110 kJ/mol
# GULP energy per Si atom -5580.078847 kJ/mol
# Density = 1.911693 g / cm^3
# Si number density = 19.160537 Si / 1000 Ang^3
#
#
#
# Elastic Constant Matrix: (Units=GPa)
#
#
# Indices 1 2 3 4 5 6 
#
# 1 88.8775 47.9024 41.1750 0.0000 0.0000 0.0000
# 2 47.9024 155.7258 64.8422 0.0000 0.0000 0.0000
# 3 41.1750 64.8422 151.7869 0.0000 0.0000 0.0000
# 4 0.0000 0.0000 0.0000 9.7337 0.0000 0.0000
# 5 0.0000 0.0000 0.0000 0.0000 21.5590 0.0000
# 6 0.0000 0.0000 0.0000 0.0000 0.0000 29.6116
#
#
#
# Elastic Compliance Matrix: (Units=1/GPa)
#
#
# Indices 1 2 3 4 5 6 
#
# 1 0.014178 -0.003357 -0.002412 0.000000 0.000000 0.000000
# 2 -0.003357 0.008606 -0.002766 0.000000 0.000000 0.000000
# 3 -0.002412 -0.002766 0.008424 0.000000 0.000000 0.000000
# 4 0.000000 0.000000 0.000000 0.102736 0.000000 0.000000
# 5 0.000000 0.000000 0.000000 0.000000 0.046384 0.000000
# 6 0.000000 0.000000 0.000000 0.000000 0.000000 0.033771
#
#
# Mechanical properties :
#
#
# Convention : Reuss Voigt Hill
#
# Bulk Modulus (GPa) = 70.72852 78.24772 74.48812
# Shear Modulus (GPa) = 21.19711 28.34557 24.77134
#
# Velocity S-wave (km/s) = 3.32970 3.85043 3.59950
# Velocity P-wave (km/s) = 7.19558 7.79066 7.49902
#
# Compressibility (1/GPa) = 0.01413857
#
# Stress axis : x y z
#
# Youngs Moduli (GPa) = 70.53087 116.20117 118.70902
#
# Poissons Ratio (x) = 0.39009 0.28633
# Poissons Ratio (y) = 0.23677 0.32831
# Poissons Ratio (z) = 0.17012 0.32137
#
# Static dielectric constant tensor:
#      x y z
#    x 1.754810 0.000000 0.000000 
#    y 0.000000 1.723030 0.000000 
#    z 0.000000 0.000000 1.665850 
# 
# From -- ./inp_files/48159.got.cif
#   From: 2010.05.17/outbox.cif.g08.bks.cpg/sg66_25_cif.got.tgz:48159.got - 2010.06.03 17:51:23.
