data_PCOD9499502
_publ_section_title
;
Structure prediction by ZEFSAII (Michael W. Deem and Ramdas Pophale) SiO2 
 PCOD9499502
Probable space group: C C C M
;
_chemical_formula_sum "Si O2"
_cell_formula_units_Z 84
_cell_length_a 18.034961
_cell_length_b 9.483579
_cell_length_c 21.109480
_cell_angle_alpha 90.000000
_cell_angle_beta 90.000000
_cell_angle_gamma 90.000000
_cell_volume 3610.480544
_symmetry_space_group_name_H-M "C C C M"
_symmetry_group_IT_number 66
_symmetry_cell_setting 'orthorhombic'
loop_
_space_group_symop_operation_xyz
x,y,z
-x,-y,z
x,-y,1/2-z
-x,y,1/2-z
-x,-y,-z
x,y,-z
-x,y,1/2+z
x,-y,1/2+z
1/2+x,1/2+y,z
1/2-x,1/2-y,z
1/2+x,1/2-y,1/2-z
1/2-x,1/2+y,1/2-z
1/2-x,1/2-y,-z
1/2+x,1/2+y,-z
1/2-x,1/2+y,1/2+z
1/2+x,1/2-y,1/2+z
loop_
_atom_site_type_symbol
_atom_site_label
_atom_site_fract_x
_atom_site_fract_y
_atom_site_fract_z
Si Si1 0.790609 0.458869 0.863003
Si Si2 0.969730 0.657807 0.500000
Si Si3 0.500000 0.000000 0.250000
Si Si4 0.665316 0.240224 0.323567
Si Si5 0.004650 0.245784 0.142111
Si Si6 0.646248 0.663991 0.319481
Si Si7 0.702485 0.893841 0.500000
O O1 0.840747 0.569169 0.825465
O O2 0.707169 0.452292 0.836621
O O3 0.827608 0.305096 0.856470
O O4 0.785183 0.484916 0.937328
O O5 0.881681 0.654222 0.500000
O O6 0.000000 0.500000 0.500000
O O7 0.992363 0.721049 0.432053
O O8 0.506502 0.125404 0.193252
O O9 0.750000 0.250000 0.348916
O O10 0.590923 0.296904 0.354902
O O11 0.660999 0.296637 0.252818
O O12 0.939082 0.139887 0.164051
O O13 0.750000 0.750000 0.500000
#
# Coordination Sequence:
#
# PCOD9499502 Si02
#       7
#    16   8   4  16  16  16   8
#     4  11  22  38  61  94 123 155 203 249 314 367
#     4  12  22  34  54  89 122 153 196 254 311 361
#     4  12  20  34  64  84 126 146 202 256 316 368
#     4  12  25  39  61  91 125 169 203 254 309 370
#     4  12  23  37  58  90 120 160 205 254 310 368
#     4  11  21  38  64  90 125 153 200 260 312 367
#     4  12  20  38  62  91 122 157 198 254 311 370
#
# _framework density 23.265602000000001
#
# number of rings (size 3 to 8) (size 9 to 14) (size 15 to 20)
#    0.000    0.381    8.571    2.857    0.000    0.000 
#    0.000    2.857    0.000    2.286    0.000    4.000 
#    0.000    0.000    0.000    0.000    0.000    0.000 
#
# Total GULP energy -234214.277263 kJ/mol
# GULP energy per Si atom -5576.530411 kJ/mol
# Density = 2.321265 g / cm^3
# Si number density = 23.265602 Si / 1000 Ang^3
#
#
#
# Elastic Constant Matrix: (Units=GPa)
#
#
# Indices 1 2 3 4 5 6 
#
# 1 233.4243 32.2741 57.1712 0.0000 0.0000 0.0000
# 2 32.2741 35.0585 21.4414 0.0000 0.0000 0.0000
# 3 57.1712 21.4414 212.2137 0.0000 0.0000 0.0000
# 4 0.0000 0.0000 0.0000 28.0577 0.0000 0.0000
# 5 0.0000 0.0000 0.0000 0.0000 31.5936 0.0000
# 6 0.0000 0.0000 0.0000 0.0000 0.0000 32.6113
#
#
#
# Elastic Compliance Matrix: (Units=1/GPa)
#
#
# Indices 1 2 3 4 5 6 
#
# 1 0.005085 -0.004096 -0.000956 0.000000 0.000000 0.000000
# 2 -0.004096 0.033702 -0.002302 0.000000 0.000000 0.000000
# 3 -0.000956 -0.002302 0.005202 0.000000 0.000000 0.000000
# 4 0.000000 0.000000 0.000000 0.035641 0.000000 0.000000
# 5 0.000000 0.000000 0.000000 0.000000 0.031652 0.000000
# 6 0.000000 0.000000 0.000000 0.000000 0.000000 0.030664
#
#
# Mechanical properties :
#
#
# Convention : Reuss Voigt Hill
#
# Bulk Modulus (GPa) = 34.15102 78.05221 56.10162
# Shear Modulus (GPa) = 30.04555 43.10649 36.57602
#
# Velocity S-wave (km/s) = 3.59753 4.30909 3.96928
# Velocity P-wave (km/s) = 5.65393 7.64060 6.72107
#
# Compressibility (1/GPa) = 0.02928170
#
# Stress axis : x y z
#
# Youngs Moduli (GPa) = 196.67582 29.67167 192.22197
#
# Poissons Ratio (x) = 0.12154 0.18375
# Poissons Ratio (y) = 0.80559 0.44243
# Poissons Ratio (z) = 0.18801 0.06829
#
# Static dielectric constant tensor:
#      x y z
#    x 1.947950 0.000000 0.000000 
#    y 0.000000 2.000850 0.000000 
#    z 0.000000 0.000000 1.899990 
# 
# From -- ./inp_files/50857.got.cif
#   From: 2010.05.17/outbox.cif.g08.bks.cpg/sg66_26_cif.got.tgz:50857.got - 2010.06.03 17:51:23.
