data_PCOD9499603
_publ_section_title
;
Structure prediction by ZEFSAII (Michael W. Deem and Ramdas Pophale) SiO2 
 PCOD9499603
Probable space group: C C C M
;
_chemical_formula_sum "Si O2"
_cell_formula_units_Z 80
_cell_length_a 11.273466
_cell_length_b 14.685224
_cell_length_c 24.854758
_cell_angle_alpha 90.000000
_cell_angle_beta 90.000000
_cell_angle_gamma 90.000000
_cell_volume 4114.789034
_symmetry_space_group_name_H-M "C C C M"
_symmetry_group_IT_number 66
_symmetry_cell_setting 'orthorhombic'
loop_
_space_group_symop_operation_xyz
x,y,z
-x,-y,z
x,-y,1/2-z
-x,y,1/2-z
-x,-y,-z
x,y,-z
-x,y,1/2+z
x,-y,1/2+z
1/2+x,1/2+y,z
1/2-x,1/2-y,z
1/2+x,1/2-y,1/2-z
1/2-x,1/2+y,1/2-z
1/2-x,1/2-y,-z
1/2+x,1/2+y,-z
1/2-x,1/2+y,1/2+z
1/2+x,1/2-y,1/2+z
loop_
_atom_site_type_symbol
_atom_site_label
_atom_site_fract_x
_atom_site_fract_y
_atom_site_fract_z
Si Si1 0.382752 0.765704 0.398514
Si Si2 0.959240 0.854774 0.000000
Si Si3 0.804927 0.961193 0.500000
Si Si4 0.996795 0.154708 0.186377
Si Si5 0.192213 0.003537 0.686583
Si Si6 0.364279 0.974245 0.408101
O O1 0.250000 0.750000 0.376816
O O2 0.419819 0.700271 0.447307
O O3 0.474338 0.740910 0.350845
O O4 0.370551 0.867226 0.420739
O O5 0.886079 0.948418 0.000000
O O6 0.099472 0.879572 0.000000
O O7 0.718961 0.969885 0.448812
O O8 0.000000 0.175890 0.250000
O O9 0.876416 0.098422 0.174731
O O10 0.099630 0.079040 0.175499
O O11 0.217480 0.000000 0.750000
O O12 0.305530 0.988923 0.649971
O O13 0.500000 0.000000 0.410050
#
# Coordination Sequence:
#
# PCOD9499603 Si02
#       6
#    16   8   8  16  16  16
#     4  12  21  38  62  93 124 154 206 256 302 361
#     4  11  22  38  70  96 112 156 219 262 293 351
#     4  11  22  41  64  91 122 159 208 254 301 369
#     4   9  18  36  62  89 112 153 207 257 300 348
#     4   9  18  37  62  84 115 156 205 250 297 364
#     4  12  25  40  57  88 128 165 193 244 322 372
#
# _framework density 19.442066000000001
#
# number of rings (size 3 to 8) (size 9 to 14) (size 15 to 20)
#    0.000    1.400    4.000    3.600    0.000    3.600 
#    3.600    5.000    0.000    0.000    0.000    0.000 
#    0.000    0.000    0.000    0.000    0.000    0.000 
#
# Total GULP energy -223216.791944 kJ/mol
# GULP energy per Si atom -5580.419799 kJ/mol
# Density = 1.939781 g / cm^3
# Si number density = 19.442066 Si / 1000 Ang^3
#
#
#
# Elastic Constant Matrix: (Units=GPa)
#
#
# Indices 1 2 3 4 5 6 
#
# 1 123.4698 22.3279 42.3364 0.0000 0.0000 0.0000
# 2 22.3279 30.4509 15.3758 0.0000 0.0000 0.0000
# 3 42.3364 15.3758 67.0526 0.0000 0.0000 0.0000
# 4 0.0000 0.0000 0.0000 345.2145 0.0000 0.0000
# 5 0.0000 0.0000 0.0000 0.0000 1.7397 0.0000
# 6 0.0000 0.0000 0.0000 0.0000 0.0000 27.9147
#
#
#
# Elastic Compliance Matrix: (Units=1/GPa)
#
#
# Indices 1 2 3 4 5 6 
#
# 1 0.011010 -0.005161 -0.005768 0.000000 0.000000 0.000000
# 2 -0.005161 0.039559 -0.005813 0.000000 0.000000 0.000000
# 3 -0.005768 -0.005813 0.019889 0.000000 0.000000 0.000000
# 4 0.000000 0.000000 0.000000 0.002897 0.000000 0.000000
# 5 0.000000 0.000000 0.000000 0.000000 0.574808 0.000000
# 6 0.000000 0.000000 0.000000 0.000000 0.000000 0.035823
#
#
# Mechanical properties :
#
#
# Convention : Reuss Voigt Hill
#
# Bulk Modulus (GPa) = 27.04593 42.33927 34.69260
# Shear Modulus (GPa) = 6.85124 84.36932 45.61028
#
# Velocity S-wave (km/s) = 1.87925 6.59465 4.84876
# Velocity P-wave (km/s) = 4.31856 8.93366 7.01642
#
# Compressibility (1/GPa) = 0.03697414
#
# Stress axis : x y z
#
# Youngs Moduli (GPa) = 90.82413 25.27880 50.27960
#
# Poissons Ratio (x) = 0.13045 0.29004
# Poissons Ratio (y) = 0.46870 0.29227
# Poissons Ratio (z) = 0.52391 0.14694
#
# Static dielectric constant tensor:
#      x y z
#    x 1.765250 0.000000 0.000000 
#    y 0.000000 1.898400 0.000000 
#    z 0.000000 0.000000 1.682720 
# 
# From -- ./inp_files/56635.got.cif
#   From: 2010.05.17/outbox.cif.g08.bks.cpg/sg66_29_cif.got.tgz:56635.got - 2010.06.03 17:51:23.
