data_PCOD9499346
_publ_section_title
;
Structure prediction by ZEFSAII (Michael W. Deem and Ramdas Pophale) SiO2 
 PCOD9499346
Probable space group: C C C M
;
_chemical_formula_sum "Si O2"
_cell_formula_units_Z 64
_cell_length_a 9.765179
_cell_length_b 10.366516
_cell_length_c 22.897375
_cell_angle_alpha 90.000000
_cell_angle_beta 90.000000
_cell_angle_gamma 90.000000
_cell_volume 2317.921520
_symmetry_space_group_name_H-M "C C C M"
_symmetry_group_IT_number 66
_symmetry_cell_setting 'orthorhombic'
loop_
_space_group_symop_operation_xyz
x,y,z
-x,-y,z
x,-y,1/2-z
-x,y,1/2-z
-x,-y,-z
x,y,-z
-x,y,1/2+z
x,-y,1/2+z
1/2+x,1/2+y,z
1/2-x,1/2-y,z
1/2+x,1/2-y,1/2-z
1/2-x,1/2+y,1/2-z
1/2-x,1/2-y,-z
1/2+x,1/2+y,-z
1/2-x,1/2+y,1/2+z
1/2+x,1/2-y,1/2+z
loop_
_atom_site_type_symbol
_atom_site_label
_atom_site_fract_x
_atom_site_fract_y
_atom_site_fract_z
Si Si1 0.424520 0.636019 0.624101
Si Si2 0.500000 0.744752 0.250000
Si Si3 0.755314 0.041717 0.000000
Si Si4 0.342865 0.989650 0.124200
Si Si5 0.250000 0.250000 0.693985
Si Si6 0.972188 0.805331 0.000000
O O1 0.500000 0.500000 0.606888
O O2 0.487318 0.672463 0.687475
O O3 0.263923 0.606641 0.633003
O O4 0.451339 0.733641 0.569295
O O5 0.642113 0.810237 0.259574
O O6 0.660334 0.037520 0.055641
O O7 0.869525 0.152514 0.000000
O O8 0.851758 0.914231 0.000000
O O9 0.258938 0.870085 0.150760
O O10 0.500000 0.000000 0.145445
#
# Coordination Sequence:
#
# PCOD9499346 Si02
#       6
#    16   8   8  16   8   8
#     4  11  19  41  69  92 126 174 222 264 342 410
#     4  12  27  44  65  96 130 174 223 278 336 411
#     4   9  15  35  64  99 130 166 223 274 336 417
#     4  11  24  41  67 100 134 175 222 281 343 408
#     4  12  28  45  62  97 136 174 228 282 342 410
#     4   9  14  32  68  99 115 168 226 270 324 415
#
# _framework density 27.610944
#
# number of rings (size 3 to 8) (size 9 to 14) (size 15 to 20)
#    0.000    1.250    7.500    0.750    3.500    0.500 
#    0.000    1.250    0.000    0.750    0.000    7.000 
#    0.000    0.000    0.000    0.000    0.000    0.000 
#
# Total GULP energy -178386.766719 kJ/mol
# GULP energy per Si atom -5574.586460 kJ/mol
# Density = 2.754810 g / cm^3
# Si number density = 27.610944 Si / 1000 Ang^3
#
#
#
# Elastic Constant Matrix: (Units=GPa)
#
#
# Indices 1 2 3 4 5 6 
#
# 1 117.7459 11.0103 12.8870 0.0000 0.0000 0.0000
# 2 11.0103 71.8103 17.5079 0.0000 0.0000 0.0000
# 3 12.8870 17.5079 211.0325 0.0000 0.0000 0.0000
# 4 0.0000 0.0000 0.0000 -3.2010 0.0000 0.0000
# 5 0.0000 0.0000 0.0000 0.0000 507.0146 0.0000
# 6 0.0000 0.0000 0.0000 0.0000 0.0000 -12.2981
#
#
#
# Elastic Compliance Matrix: (Units=1/GPa)
#
#
# Indices 1 2 3 4 5 6 
#
# 1 0.008654 -0.001223 -0.000427 0.000000 0.000000 0.000000
# 2 -0.001223 0.014386 -0.001119 0.000000 0.000000 0.000000
# 3 -0.000427 -0.001119 0.004858 0.000000 0.000000 0.000000
# 4 0.000000 0.000000 0.000000 -0.312403 0.000000 0.000000
# 5 0.000000 0.000000 0.000000 0.000000 0.001972 0.000000
# 6 0.000000 0.000000 0.000000 0.000000 0.000000 -0.081313
#
#
# Mechanical properties :
#
#
# Convention : Reuss Voigt Hill
#
# Bulk Modulus (GPa) = 44.72257 53.71101 49.21679
# Shear Modulus (GPa) = -14.25085 122.24866 53.99890
#
# Velocity S-wave (km/s) = -2.27432 6.66120 4.42713
# Velocity P-wave (km/s) = 3.05547 8.86888 6.63299
#
# Compressibility (1/GPa) = 0.02236008
#
# Stress axis : x y z
#
# Youngs Moduli (GPa) = 115.55433 69.51282 205.86698
#
# Poissons Ratio (x) = 0.08500 0.08791
# Poissons Ratio (y) = 0.14129 0.23033
# Poissons Ratio (z) = 0.04934 0.07777
#
# Static dielectric constant tensor:
#      x y z
#    x 2.351590 0.000000 0.000000 
#    y 0.000000 2.270410 0.000000 
#    z 0.000000 0.000000 2.337930 
# 
# From -- ./inp_files/55075.got.cif
#   From: 2010.05.17/outbox.cif.g08.bks.cpg/sg66_28_cif.got.tgz:55075.got - 2010.06.03 17:51:23.
