data_PCOD9499848
_publ_section_title
;
Structure prediction by ZEFSAII (Michael W. Deem and Ramdas Pophale) SiO2 
 PCOD9499848
Probable space group: C C C M
;
_chemical_formula_sum "Si O2"
_cell_formula_units_Z 44
_cell_length_a 14.228729
_cell_length_b 7.371132
_cell_length_c 18.367323
_cell_angle_alpha 90.000000
_cell_angle_beta 90.000000
_cell_angle_gamma 90.000000
_cell_volume 1926.398626
_symmetry_space_group_name_H-M "C C C M"
_symmetry_group_IT_number 66
_symmetry_cell_setting 'orthorhombic'
loop_
_space_group_symop_operation_xyz
x,y,z
-x,-y,z
x,-y,1/2-z
-x,y,1/2-z
-x,-y,-z
x,y,-z
-x,y,1/2+z
x,-y,1/2+z
1/2+x,1/2+y,z
1/2-x,1/2-y,z
1/2+x,1/2-y,1/2-z
1/2-x,1/2+y,1/2-z
1/2-x,1/2-y,-z
1/2+x,1/2+y,-z
1/2-x,1/2+y,1/2+z
1/2+x,1/2-y,1/2+z
loop_
_atom_site_type_symbol
_atom_site_label
_atom_site_fract_x
_atom_site_fract_y
_atom_site_fract_z
Si Si1 0.398561 0.240130 0.500000
Si Si2 0.000000 0.000000 0.750000
Si Si3 0.168571 0.868581 0.660035
Si Si4 0.106411 0.181792 0.000000
Si Si5 0.250000 0.750000 0.119743
O O1 0.509012 0.207626 0.500000
O O2 0.399659 0.461195 0.500000
O O3 0.336174 0.181198 0.431437
O O4 0.931414 0.120480 0.699935
O O5 0.250000 0.750000 0.695581
O O6 0.152831 0.789315 0.578590
O O7 0.206716 0.074427 0.657568
#
# Coordination Sequence:
#
# PCOD9499848 Si02
#       5
#     8   4  16   8   8
#     4   8  14  29  60  98 133 161 202 272 339 385
#     4  12  28  46  66  98 140 184 224 276 342 408
#     4  11  24  44  69  96 134 177 224 279 335 398
#     4   9  17  37  65  98 128 168 222 277 334 389
#     4   9  18  36  64  94 128 171 216 268 328 397
#
# _framework density 22.840548999999999
#
# number of rings (size 3 to 8) (size 9 to 14) (size 15 to 20)
#    0.000    2.182    0.000    6.000    2.545    0.000 
#    0.000   10.909    0.000    0.000    0.000    0.000 
#    0.000    0.000    0.000    0.000    0.000    0.000 
#
# Total GULP energy -122789.765002 kJ/mol
# GULP energy per Si atom -5581.352955 kJ/mol
# Density = 2.278856 g / cm^3
# Si number density = 22.840549 Si / 1000 Ang^3
#
#
#
# Elastic Constant Matrix: (Units=GPa)
#
#
# Indices 1 2 3 4 5 6 
#
# 1 208.1955 45.7557 82.4453 0.0000 0.0000 0.0000
# 2 45.7557 77.5251 25.0320 0.0000 0.0000 0.0000
# 3 82.4453 25.0320 110.4359 0.0000 0.0000 0.0000
# 4 0.0000 0.0000 0.0000 31.1258 0.0000 0.0000
# 5 0.0000 0.0000 0.0000 0.0000 -29.9708 0.0000
# 6 0.0000 0.0000 0.0000 0.0000 0.0000 41.1452
#
#
#
# Elastic Compliance Matrix: (Units=1/GPa)
#
#
# Indices 1 2 3 4 5 6 
#
# 1 0.007329 -0.002761 -0.004845 0.000000 0.000000 0.000000
# 2 -0.002761 0.014958 -0.001329 0.000000 0.000000 0.000000
# 3 -0.004845 -0.001329 0.012974 0.000000 0.000000 0.000000
# 4 0.000000 0.000000 0.000000 0.032128 0.000000 0.000000
# 5 0.000000 0.000000 0.000000 0.000000 -0.033366 0.000000
# 6 0.000000 0.000000 0.000000 0.000000 0.000000 0.024304
#
#
# Mechanical properties :
#
#
# Convention : Reuss Voigt Hill
#
# Bulk Modulus (GPa) = 57.50782 78.06915 67.78849
# Shear Modulus (GPa) = 60.98027 24.65493 42.81760
#
# Velocity S-wave (km/s) = 5.17264 3.28904 4.33440
# Velocity P-wave (km/s) = 7.80433 6.97696 7.40221
#
# Compressibility (1/GPa) = 0.01738894
#
# Stress axis : x y z
#
# Youngs Moduli (GPa) = 136.44918 66.85489 77.07932
#
# Poissons Ratio (x) = 0.18458 0.37348
# Poissons Ratio (y) = 0.37672 0.10246
# Poissons Ratio (z) = 0.66115 0.08887
#
# Static dielectric constant tensor:
#      x y z
#    x 1.874580 0.000000 0.000000 
#    y 0.000000 1.843040 0.000000 
#    z 0.000000 0.000000 1.940670 
# 
# From -- ./inp_files/39489.got.cif
#   From: 2010.05.17/outbox.cif.g08.bks.cpg/sg66_20_cif.got.tgz:39489.got - 2010.06.03 17:51:23.
