data_PCOD9499763
_publ_section_title
;
Structure prediction by ZEFSAII (Michael W. Deem and Ramdas Pophale) SiO2 
 PCOD9499763
Probable space group: C C C M
;
_chemical_formula_sum "Si O2"
_cell_formula_units_Z 48
_cell_length_a 10.983412
_cell_length_b 15.069913
_cell_length_c 14.325882
_cell_angle_alpha 90.000000
_cell_angle_beta 90.000000
_cell_angle_gamma 90.000000
_cell_volume 2371.206569
_symmetry_space_group_name_H-M "C C C M"
_symmetry_group_IT_number 66
_symmetry_cell_setting 'orthorhombic'
loop_
_space_group_symop_operation_xyz
x,y,z
-x,-y,z
x,-y,1/2-z
-x,y,1/2-z
-x,-y,-z
x,y,-z
-x,y,1/2+z
x,-y,1/2+z
1/2+x,1/2+y,z
1/2-x,1/2-y,z
1/2+x,1/2-y,1/2-z
1/2-x,1/2+y,1/2-z
1/2-x,1/2-y,-z
1/2+x,1/2+y,-z
1/2-x,1/2+y,1/2+z
1/2+x,1/2-y,1/2+z
loop_
_atom_site_type_symbol
_atom_site_label
_atom_site_fract_x
_atom_site_fract_y
_atom_site_fract_z
Si Si1 0.047380 0.652197 0.000000
Si Si2 0.367642 0.475305 0.641928
Si Si3 0.615821 0.272489 0.821787
Si Si4 0.180582 0.538566 0.500000
O O1 0.905812 0.623488 0.000000
O O2 0.083816 0.705963 0.093127
O O3 0.110602 0.555795 0.000000
O O4 0.500000 0.500000 0.605937
O O5 0.361237 0.500000 0.750000
O O6 0.361472 0.369615 0.634658
O O7 0.266368 0.530981 0.589357
O O8 0.500000 0.274725 0.750000
O O9 0.750000 0.250000 0.779322
#
# Coordination Sequence:
#
# PCOD9499763 Si02
#       4
#     8  16  16   8
#     4  11  26  42  70 100 135 182 220 284 341 399
#     4  11  23  44  67  98 136 180 222 278 343 400
#     4  12  25  46  71 100 138 182 228 277 342 404
#     4  11  24  43  66 101 136 174 230 275 339 400
#
# _framework density 20.242858999999999
#
# number of rings (size 3 to 8) (size 9 to 14) (size 15 to 20)
#    0.000    0.667    6.667    2.000    4.667    0.000 
#    0.000    5.833    0.000    0.000    0.000    0.000 
#    0.000    0.000    0.000    0.000    0.000    0.000 
#
# Total GULP energy -133970.677700 kJ/mol
# GULP energy per Si atom -5582.111571 kJ/mol
# Density = 2.019678 g / cm^3
# Si number density = 20.242859 Si / 1000 Ang^3
#
#
#
# Elastic Constant Matrix: (Units=GPa)
#
#
# Indices 1 2 3 4 5 6 
#
# 1 165.5463 28.2858 48.7870 0.0000 0.0000 0.0000
# 2 28.2858 80.4535 4.6440 0.0000 0.0000 0.0000
# 3 48.7870 4.6440 107.5879 0.0000 0.0000 0.0000
# 4 0.0000 0.0000 0.0000 39.4582 0.0000 0.0000
# 5 0.0000 0.0000 0.0000 0.0000 79.3750 0.0000
# 6 0.0000 0.0000 0.0000 0.0000 0.0000 32.5294
#
#
#
# Elastic Compliance Matrix: (Units=1/GPa)
#
#
# Indices 1 2 3 4 5 6 
#
# 1 0.007414 -0.002419 -0.003257 0.000000 0.000000 0.000000
# 2 -0.002419 0.013250 0.000525 0.000000 0.000000 0.000000
# 3 -0.003257 0.000525 0.010749 0.000000 0.000000 0.000000
# 4 0.000000 0.000000 0.000000 0.025343 0.000000 0.000000
# 5 0.000000 0.000000 0.000000 0.000000 0.012598 0.000000
# 6 0.000000 0.000000 0.000000 0.000000 0.000000 0.030741
#
#
# Mechanical properties :
#
#
# Convention : Reuss Voigt Hill
#
# Bulk Modulus (GPa) = 47.37057 57.44683 52.40870
# Shear Modulus (GPa) = 42.57678 48.39724 45.48701
#
# Velocity S-wave (km/s) = 4.59115 4.89492 4.74546
# Velocity P-wave (km/s) = 7.18031 7.77093 7.48145
#
# Compressibility (1/GPa) = 0.02111015
#
# Stress axis : x y z
#
# Youngs Moduli (GPa) = 134.88290 75.47428 93.03002
#
# Poissons Ratio (x) = 0.18254 0.30304
# Poissons Ratio (y) = 0.32622 -0.04882
# Poissons Ratio (z) = 0.43938 -0.03961
#
# Static dielectric constant tensor:
#      x y z
#    x 1.777870 0.000000 0.000000 
#    y 0.000000 1.713690 0.000000 
#    z 0.000000 0.000000 1.703390 
# 
# From -- ./inp_files/25278.got.cif
#   From: 2010.05.17/outbox.cif.g08.bks.cpg/sg66_13_cif.got.tgz:25278.got - 2010.06.03 17:51:23.
