data_PCOD9499112
_publ_section_title
;
Structure prediction by ZEFSAII (Michael W. Deem and Ramdas Pophale) SiO2 
 PCOD9499112
Probable space group: C C C M
;
_chemical_formula_sum "Si O2"
_cell_formula_units_Z 52
_cell_length_a 22.284876
_cell_length_b 11.931134
_cell_length_c 8.216582
_cell_angle_alpha 90.000000
_cell_angle_beta 90.000000
_cell_angle_gamma 90.000000
_cell_volume 2184.656388
_symmetry_space_group_name_H-M "C C C M"
_symmetry_group_IT_number 66
_symmetry_cell_setting 'orthorhombic'
loop_
_space_group_symop_operation_xyz
x,y,z
-x,-y,z
x,-y,1/2-z
-x,y,1/2-z
-x,-y,-z
x,y,-z
-x,y,1/2+z
x,-y,1/2+z
1/2+x,1/2+y,z
1/2-x,1/2-y,z
1/2+x,1/2-y,1/2-z
1/2-x,1/2+y,1/2-z
1/2-x,1/2-y,-z
1/2+x,1/2+y,-z
1/2-x,1/2+y,1/2+z
1/2+x,1/2-y,1/2+z
loop_
_atom_site_type_symbol
_atom_site_label
_atom_site_fract_x
_atom_site_fract_y
_atom_site_fract_z
Si Si1 0.569120 0.119173 0.693056
Si Si2 0.400171 0.351112 0.315612
Si Si3 0.240023 0.877552 0.187646
Si Si4 0.000000 0.000000 0.750000
O O1 0.500000 0.125373 0.750000
O O2 0.572247 0.129182 0.500000
O O3 0.601646 0.220415 0.779544
O O4 0.592777 0.000000 0.750000
O O5 0.423260 0.371711 0.500000
O O6 0.332214 0.389696 0.306180
O O7 0.448557 0.409522 0.196894
O O8 0.250000 0.750000 0.260292
O O9 0.263016 0.000000 0.250000
O O10 0.260115 0.869707 0.000000
#
# Coordination Sequence:
#
# PCOD9499112 Si02
#       4
#    16  16  16   4
#     4  11  22  37  58  85 122 165 209 258 317 387
#     4  11  23  39  62  95 131 167 212 265 324 392
#     4  10  23  44  68  96 132 173 223 278 331 390
#     4  12  22  36  66  94 130 168 202 268 318 392
#
# _framework density 23.802368999999999
#
# number of rings (size 3 to 8) (size 9 to 14) (size 15 to 20)
#    0.000    1.231    3.077    4.154    0.000    4.308 
#    0.000    3.077    0.000    0.000    0.000    0.000 
#    0.000    0.000    0.000    0.000    0.000    0.000 
#
# Total GULP energy -144847.755421 kJ/mol
# GULP energy per Si atom -5571.067516 kJ/mol
# Density = 2.374819 g / cm^3
# Si number density = 23.802369 Si / 1000 Ang^3
#
#
#
# Elastic Constant Matrix: (Units=GPa)
#
#
# Indices 1 2 3 4 5 6 
#
# 1 63.0392 -5.8644 21.5531 0.0000 0.0000 0.0000
# 2 -5.8644 222.0025 54.7601 0.0000 0.0000 0.0000
# 3 21.5531 54.7601 91.3235 0.0000 0.0000 0.0000
# 4 0.0000 0.0000 0.0000 22.3068 0.0000 0.0000
# 5 0.0000 0.0000 0.0000 0.0000 7.2417 0.0000
# 6 0.0000 0.0000 0.0000 0.0000 0.0000 100.5292
#
#
#
# Elastic Compliance Matrix: (Units=1/GPa)
#
#
# Indices 1 2 3 4 5 6 
#
# 1 0.017830 0.001771 -0.005270 0.000000 0.000000 0.000000
# 2 0.001771 0.005462 -0.003693 0.000000 0.000000 0.000000
# 3 -0.005270 -0.003693 0.014408 0.000000 0.000000 0.000000
# 4 0.000000 0.000000 0.000000 0.044829 0.000000 0.000000
# 5 0.000000 0.000000 0.000000 0.000000 0.138090 0.000000
# 6 0.000000 0.000000 0.000000 0.000000 0.000000 0.009947
#
#
# Mechanical properties :
#
#
# Convention : Reuss Voigt Hill
#
# Bulk Modulus (GPa) = 42.88925 57.47365 50.18145
# Shear Modulus (GPa) = 19.78450 46.40995 33.09723
#
# Velocity S-wave (km/s) = 2.88618 4.42045 3.73299
# Velocity P-wave (km/s) = 5.40044 7.08890 6.30147
#
# Compressibility (1/GPa) = 0.02331587
#
# Stress axis : x y z
#
# Youngs Moduli (GPa) = 56.08636 183.07568 69.40411
#
# Poissons Ratio (x) = -0.32420 0.36575
# Poissons Ratio (y) = -0.09932 0.25633
# Poissons Ratio (z) = 0.29556 0.67614
#
# Static dielectric constant tensor:
#      x y z
#    x 1.806370 0.000000 0.000000 
#    y 0.000000 1.993210 0.000000 
#    z 0.000000 0.000000 1.972190 
# 
# From -- ./inp_files/3627.got.cif
#   From: 2010.05.17/outbox.cif.g08.bks.cpg/sg66_2_cif.got.tgz:3627.got - 2010.06.03 17:51:23.
