data_PCOD9499316
_publ_section_title
;
Structure prediction by ZEFSAII (Michael W. Deem and Ramdas Pophale) SiO2 
 PCOD9499316
Probable space group: C C C M
;
_chemical_formula_sum "Si O2"
_cell_formula_units_Z 80
_cell_length_a 23.316356
_cell_length_b 21.563620
_cell_length_c 10.391236
_cell_angle_alpha 90.000000
_cell_angle_beta 90.000000
_cell_angle_gamma 90.000000
_cell_volume 5224.558014
_symmetry_space_group_name_H-M "C C C M"
_symmetry_group_IT_number 66
_symmetry_cell_setting 'orthorhombic'
loop_
_space_group_symop_operation_xyz
x,y,z
-x,-y,z
x,-y,1/2-z
-x,y,1/2-z
-x,-y,-z
x,y,-z
-x,y,1/2+z
x,-y,1/2+z
1/2+x,1/2+y,z
1/2-x,1/2-y,z
1/2+x,1/2-y,1/2-z
1/2-x,1/2+y,1/2-z
1/2-x,1/2-y,-z
1/2+x,1/2+y,-z
1/2-x,1/2+y,1/2+z
1/2+x,1/2-y,1/2+z
loop_
_atom_site_type_symbol
_atom_site_label
_atom_site_fract_x
_atom_site_fract_y
_atom_site_fract_z
Si Si1 0.749201 0.414112 0.000000
Si Si2 0.108059 0.560388 0.500000
Si Si3 0.336698 0.767143 0.654981
Si Si4 0.271655 0.351360 0.768581
Si Si5 0.932526 0.356055 0.262666
Si Si6 0.112834 0.584973 0.000000
Si Si7 0.752813 0.559505 0.000000
O O1 0.727004 0.380408 0.127677
O O2 0.736687 0.487421 0.000000
O O3 0.818401 0.410455 0.000000
O O4 0.082811 0.594480 0.374808
O O5 0.095379 0.487375 0.500000
O O6 0.177530 0.565892 0.500000
O O7 0.332350 0.768426 0.500000
O O8 0.321139 0.698698 0.703727
O O9 0.287532 0.812980 0.709980
O O10 0.397003 0.794715 0.699827
O O11 0.270227 0.405253 0.874669
O O12 0.000000 0.345832 0.250000
O O13 0.910272 0.382721 0.127846
#
# Coordination Sequence:
#
# PCOD9499316 Si02
#       7
#     8   8  16  16  16   8   8
#     4  11  22  31  51  83 111 128 165 222 264 300
#     4  11  21  37  51  67 105 142 184 213 251 305
#     4  11  20  36  56  71  98 138 181 208 256 320
#     4  11  19  34  55  76 100 136 172 208 260 316
#     4  12  23  36  52  72 100 135 186 226 252 293
#     4  11  23  35  49  73 103 142 176 221 263 287
#     4  11  18  35  55  75 105 142 173 204 250 318
#
# _framework density 15.312301
#
# number of rings (size 3 to 8) (size 9 to 14) (size 15 to 20)
#    0.000    0.800    7.000    2.400    0.000    8.000 
#    0.000    0.000    0.000    0.000    0.000    0.000 
#    0.000    4.800    0.000    0.000    0.000    0.000 
#
# Total GULP energy -223480.848503 kJ/mol
# GULP energy per Si atom -5587.021213 kJ/mol
# Density = 1.527745 g / cm^3
# Si number density = 15.312301 Si / 1000 Ang^3
#
#
#
# Elastic Constant Matrix: (Units=GPa)
#
#
# Indices 1 2 3 4 5 6 
#
# 1 58.4564 55.2518 35.6852 0.0000 0.0000 0.0000
# 2 55.2518 131.6437 82.9388 0.0000 0.0000 0.0000
# 3 35.6852 82.9388 166.0533 0.0000 0.0000 0.0000
# 4 0.0000 0.0000 0.0000 13.6852 0.0000 0.0000
# 5 0.0000 0.0000 0.0000 0.0000 -9.7325 0.0000
# 6 0.0000 0.0000 0.0000 0.0000 0.0000 16.9762
#
#
#
# Elastic Compliance Matrix: (Units=1/GPa)
#
#
# Indices 1 2 3 4 5 6 
#
# 1 0.028361 -0.011766 -0.000218 0.000000 0.000000 0.000000
# 2 -0.011766 0.015965 -0.005446 0.000000 0.000000 0.000000
# 3 -0.000218 -0.005446 0.008789 0.000000 0.000000 0.000000
# 4 0.000000 0.000000 0.000000 0.073072 0.000000 0.000000
# 5 0.000000 0.000000 0.000000 0.000000 -0.102749 0.000000
# 6 0.000000 0.000000 0.000000 0.000000 0.000000 0.058906
#
#
# Mechanical properties :
#
#
# Convention : Reuss Voigt Hill
#
# Bulk Modulus (GPa) = 54.77704 78.21166 66.49435
# Shear Modulus (GPa) = 40.55523 16.33763 28.44643
#
# Velocity S-wave (km/s) = 5.15198 3.26998 4.31484
# Velocity P-wave (km/s) = 8.44046 8.08984 8.26701
#
# Compressibility (1/GPa) = 0.01825582
#
# Stress axis : x y z
#
# Youngs Moduli (GPa) = 35.26015 62.63546 113.77812
#
# Poissons Ratio (x) = 0.73695 0.02482
# Poissons Ratio (y) = 0.41486 0.61961
# Poissons Ratio (z) = 0.00769 0.34110
#
# Static dielectric constant tensor:
#      x y z
#    x 1.493060 0.000000 0.000000 
#    y 0.000000 1.503770 0.000000 
#    z 0.000000 0.000000 1.501890 
# 
# From -- ./inp_files/7740.got.cif
#   From: 2010.05.17/outbox.cif.g08.bks.cpg/sg66_4_cif.got.tgz:7740.got - 2010.06.03 17:51:23.
