data_PCOD9499798
_publ_section_title
;
Structure prediction by ZEFSAII (Michael W. Deem and Ramdas Pophale) SiO2 
 PCOD9499798
Probable space group: C C C M
;
_chemical_formula_sum "Si O2"
_cell_formula_units_Z 88
_cell_length_a 30.854419
_cell_length_b 5.038274
_cell_length_c 27.105553
_cell_angle_alpha 90.000000
_cell_angle_beta 90.000000
_cell_angle_gamma 90.000000
_cell_volume 4213.639992
_symmetry_space_group_name_H-M "C C C M"
_symmetry_group_IT_number 66
_symmetry_cell_setting 'orthorhombic'
loop_
_space_group_symop_operation_xyz
x,y,z
-x,-y,z
x,-y,1/2-z
-x,y,1/2-z
-x,-y,-z
x,y,-z
-x,y,1/2+z
x,-y,1/2+z
1/2+x,1/2+y,z
1/2-x,1/2-y,z
1/2+x,1/2-y,1/2-z
1/2-x,1/2+y,1/2-z
1/2-x,1/2-y,-z
1/2+x,1/2+y,-z
1/2-x,1/2+y,1/2+z
1/2+x,1/2-y,1/2+z
loop_
_atom_site_type_symbol
_atom_site_label
_atom_site_fract_x
_atom_site_fract_y
_atom_site_fract_z
Si Si1 0.921403 0.500000 0.750000
Si Si2 0.858635 0.017874 0.000000
Si Si3 0.000000 0.500000 0.813588
Si Si4 0.221111 0.492280 0.613418
Si Si5 0.000000 0.000000 0.122850
Si Si6 0.373729 0.851335 0.152778
Si Si7 0.092885 0.150194 0.098184
Si Si8 0.805729 0.471857 0.500000
O O1 0.959124 0.633026 0.784314
O O2 0.890189 0.373629 0.790900
O O3 0.883913 0.918548 0.047525
O O4 0.847299 0.328373 0.000000
O O5 0.814959 0.843094 0.000000
O O6 0.984108 0.250278 0.844737
O O7 0.250000 0.750000 0.623814
O O8 0.174927 0.452444 0.640454
O O9 0.214571 0.475809 0.553750
O O10 0.250000 0.250000 0.629785
O O11 0.957949 0.906039 0.093909
O O12 0.383524 0.551984 0.136008
O O13 0.400798 0.053658 0.118109
#
# Coordination Sequence:
#
# PCOD9499798 Si02
#       8
#     8   8   8  16   8  16  16   8
#     4  11  24  44  70 100 128 176 216 276 330 377
#     4  12  22  40  66  96 133 178 217 254 320 402
#     4  11  24  40  68 101 132 155 234 284 312 365
#     4  12  24  43  66  99 131 164 216 276 327 389
#     4  12  22  42  64  98 134 174 214 274 316 378
#     4  12  25  44  66  96 132 173 215 269 336 391
#     4  12  23  42  64  95 138 176 213 262 325 388
#     4  12  22  41  70  99 125 166 223 269 330 383
#
# _framework density 20.884557999999998
#
# number of rings (size 3 to 8) (size 9 to 14) (size 15 to 20)
#    0.000    0.182    7.273    2.727    0.000    4.000 
#    0.000    0.909    0.000    4.364    0.000    0.000 
#    0.000    0.000    0.000    0.000    0.000    0.000 
#
# Total GULP energy -245402.088887 kJ/mol
# GULP energy per Si atom -5577.320202 kJ/mol
# Density = 2.083702 g / cm^3
# Si number density = 20.884558 Si / 1000 Ang^3
#
#
#
# Elastic Constant Matrix: (Units=GPa)
#
#
# Indices 1 2 3 4 5 6 
#
# 1 119.6970 17.5661 13.9548 0.0000 0.0000 0.0000
# 2 17.5661 80.5886 2.9672 0.0000 0.0000 0.0000
# 3 13.9548 2.9672 81.7733 0.0000 0.0000 0.0000
# 4 0.0000 0.0000 0.0000 -13.6768 0.0000 0.0000
# 5 0.0000 0.0000 0.0000 0.0000 51.2073 0.0000
# 6 0.0000 0.0000 0.0000 0.0000 0.0000 35.8365
#
#
#
# Elastic Compliance Matrix: (Units=1/GPa)
#
#
# Indices 1 2 3 4 5 6 
#
# 1 0.008795 -0.001864 -0.001433 0.000000 0.000000 0.000000
# 2 -0.001864 0.012820 -0.000147 0.000000 0.000000 0.000000
# 3 -0.001433 -0.000147 0.012479 0.000000 0.000000 0.000000
# 4 0.000000 0.000000 0.000000 -0.073116 0.000000 0.000000
# 5 0.000000 0.000000 0.000000 0.000000 0.019528 0.000000
# 6 0.000000 0.000000 0.000000 0.000000 0.000000 0.027905
#
#
# Mechanical properties :
#
#
# Convention : Reuss Voigt Hill
#
# Bulk Modulus (GPa) = 36.75768 39.00390 37.88079
# Shear Modulus (GPa) = 205.18141 31.17812 118.17976
#
# Velocity S-wave (km/s) = 9.92264 3.86797 7.53060
# Velocity P-wave (km/s) = 12.20316 6.21810 9.68457
#
# Compressibility (1/GPa) = 0.02720520
#
# Stress axis : x y z
#
# Youngs Moduli (GPa) = 113.69935 78.00017 80.13552
#
# Poissons Ratio (x) = 0.14542 0.11486
# Poissons Ratio (y) = 0.21197 0.01178
# Poissons Ratio (z) = 0.16296 0.01147
#
# Static dielectric constant tensor:
#      x y z
#    x 1.764190 0.000000 0.000000 
#    y 0.000000 1.722440 0.000000 
#    z 0.000000 0.000000 1.797050 
# 
# From -- ./inp_files/66429.got.cif
#   From: 2010.05.17/outbox.cif.g08.bks.cpg/sg66_34_cif.got.tgz:66429.got - 2010.06.03 17:51:23.
