data_PCOD9499088
_publ_section_title
;
Structure prediction by ZEFSAII (Michael W. Deem and Ramdas Pophale) SiO2 
 PCOD9499088
Probable space group: C C C M
;
_chemical_formula_sum "Si O2"
_cell_formula_units_Z 88
_cell_length_a 9.152577
_cell_length_b 18.804230
_cell_length_c 22.479091
_cell_angle_alpha 90.000000
_cell_angle_beta 90.000000
_cell_angle_gamma 90.000000
_cell_volume 3868.812579
_symmetry_space_group_name_H-M "C C C M"
_symmetry_group_IT_number 66
_symmetry_cell_setting 'orthorhombic'
loop_
_space_group_symop_operation_xyz
x,y,z
-x,-y,z
x,-y,1/2-z
-x,y,1/2-z
-x,-y,-z
x,y,-z
-x,y,1/2+z
x,-y,1/2+z
1/2+x,1/2+y,z
1/2-x,1/2-y,z
1/2+x,1/2-y,1/2-z
1/2-x,1/2+y,1/2-z
1/2-x,1/2-y,-z
1/2+x,1/2+y,-z
1/2-x,1/2+y,1/2+z
1/2+x,1/2-y,1/2+z
loop_
_atom_site_type_symbol
_atom_site_label
_atom_site_fract_x
_atom_site_fract_y
_atom_site_fract_z
Si Si1 0.692146 0.623490 0.654241
Si Si2 0.553022 0.120059 0.935004
Si Si3 0.256848 0.600213 0.403375
Si Si4 0.329287 0.083382 0.234333
Si Si5 0.500000 0.500000 0.884551
Si Si6 0.004770 0.212805 0.068373
O O1 0.835769 0.601077 0.616958
O O2 0.740317 0.634726 0.721379
O O3 0.578134 0.559278 0.654276
O O4 0.612168 0.683424 0.615738
O O5 0.397178 0.082371 0.932775
O O6 0.503049 0.202430 0.926958
O O7 0.621975 0.112355 0.000000
O O8 0.218666 0.597220 0.333115
O O9 0.375913 0.540998 0.420128
O O10 0.340309 0.673877 0.419196
O O11 0.500000 0.094905 0.250000
O O12 0.301264 0.000000 0.250000
O O13 0.964075 0.194837 0.000000
#
# Coordination Sequence:
#
# PCOD9499088 Si02
#       6
#    16  16  16  16   8  16
#     4  11  22  41  67  97 128 172 214 266 321 385
#     4  11  23  43  68  91 127 181 222 258 318 386
#     4  11  22  41  67  97 128 172 214 266 321 385
#     4  11  22  40  69  93 132 170 217 263 317 397
#     4  10  24  39  61  94 130 156 215 267 324 374
#     4  10  23  43  66  96 133 172 218 265 313 382
#
# _framework density 22.745999000000001
#
# number of rings (size 3 to 8) (size 9 to 14) (size 15 to 20)
#    0.000    1.273    3.636    2.182    0.000    7.273 
#    0.000   22.727    0.000    0.000    0.000    0.000 
#    0.000    0.000    0.000    0.000    0.000    0.000 
#
# Total GULP energy -245919.250395 kJ/mol
# GULP energy per Si atom -5589.073873 kJ/mol
# Density = 2.269423 g / cm^3
# Si number density = 22.745999 Si / 1000 Ang^3
#
#
#
# Elastic Constant Matrix: (Units=GPa)
#
#
# Indices 1 2 3 4 5 6 
#
# 1 102.7926 6.6390 14.7561 0.0000 0.0000 0.0000
# 2 6.6390 27.2810 12.2189 0.0000 0.0000 0.0000
# 3 14.7561 12.2189 134.4600 0.0000 0.0000 0.0000
# 4 0.0000 0.0000 0.0000 14.7773 0.0000 0.0000
# 5 0.0000 0.0000 0.0000 0.0000 27.2945 0.0000
# 6 0.0000 0.0000 0.0000 0.0000 0.0000 29.7582
#
#
#
# Elastic Compliance Matrix: (Units=1/GPa)
#
#
# Indices 1 2 3 4 5 6 
#
# 1 0.009990 -0.002022 -0.000913 0.000000 0.000000 0.000000
# 2 -0.002022 0.038620 -0.003288 0.000000 0.000000 0.000000
# 3 -0.000913 -0.003288 0.007836 0.000000 0.000000 0.000000
# 4 0.000000 0.000000 0.000000 0.067671 0.000000 0.000000
# 5 0.000000 0.000000 0.000000 0.000000 0.036637 0.000000
# 6 0.000000 0.000000 0.000000 0.000000 0.000000 0.033604
#
#
# Mechanical properties :
#
#
# Convention : Reuss Voigt Hill
#
# Bulk Modulus (GPa) = 22.72668 36.86239 29.79453
# Shear Modulus (GPa) = 22.57629 29.76065 26.16847
#
# Velocity S-wave (km/s) = 3.15388 3.62109 3.39553
# Velocity P-wave (km/s) = 4.82450 5.80727 5.33855
#
# Compressibility (1/GPa) = 0.04400115
#
# Stress axis : x y z
#
# Youngs Moduli (GPa) = 100.10067 25.89315 127.61517
#
# Poissons Ratio (x) = 0.05237 0.11646
# Poissons Ratio (y) = 0.20244 0.41955
# Poissons Ratio (z) = 0.09135 0.08513
#
# Static dielectric constant tensor:
#      x y z
#    x 1.881150 0.000000 0.000000 
#    y 0.000000 1.876720 0.000000 
#    z 0.000000 0.000000 1.804770 
# 
# From -- ./inp_files/55471.got.cif
#   From: 2010.05.17/outbox.cif.g08.bks.cpg/sg66_28_cif.got.tgz:55471.got - 2010.06.03 17:51:23.
