data_PCOD9499022
_publ_section_title
;
Structure prediction by ZEFSAII (Michael W. Deem and Ramdas Pophale) SiO2 
 PCOD9499022
Probable space group: C C C M
;
_chemical_formula_sum "Si O2"
_cell_formula_units_Z 116
_cell_length_a 9.366012
_cell_length_b 28.402945
_cell_length_c 22.544813
_cell_angle_alpha 90.000000
_cell_angle_beta 90.000000
_cell_angle_gamma 90.000000
_cell_volume 5997.423542
_symmetry_space_group_name_H-M "C C C M"
_symmetry_group_IT_number 66
_symmetry_cell_setting 'orthorhombic'
loop_
_space_group_symop_operation_xyz
x,y,z
-x,-y,z
x,-y,1/2-z
-x,y,1/2-z
-x,-y,-z
x,y,-z
-x,y,1/2+z
x,-y,1/2+z
1/2+x,1/2+y,z
1/2-x,1/2-y,z
1/2+x,1/2-y,1/2-z
1/2-x,1/2+y,1/2-z
1/2-x,1/2-y,-z
1/2+x,1/2+y,-z
1/2-x,1/2+y,1/2+z
1/2+x,1/2-y,1/2+z
loop_
_atom_site_type_symbol
_atom_site_label
_atom_site_fract_x
_atom_site_fract_y
_atom_site_fract_z
Si Si1 0.499522 0.874012 0.322519
Si Si2 0.910665 0.880255 0.429726
Si Si3 0.357202 0.287659 0.226704
Si Si4 0.237691 0.694836 0.854493
Si Si5 0.331620 0.377352 0.847532
Si Si6 0.000000 0.500000 0.000000
Si Si7 0.828776 0.453920 0.891311
Si Si8 0.155966 0.979873 0.686597
O O1 0.500000 0.872640 0.250000
O O2 0.583055 0.829458 0.350736
O O3 0.339260 0.873328 0.348313
O O4 0.583106 0.920370 0.346134
O O5 0.908326 0.875500 0.500000
O O6 0.835927 0.835863 0.397655
O O7 0.811792 0.924225 0.410339
O O8 0.072718 0.884840 0.405862
O O9 0.500000 0.262963 0.250000
O O10 0.250000 0.250000 0.199811
O O11 0.288353 0.308571 0.286182
O O12 0.388373 0.330328 0.183594
O O13 0.250000 0.750000 0.869672
O O14 0.357239 0.424096 0.809410
O O15 0.078175 0.532005 0.052266
O O16 0.770722 0.501290 0.860122
O O17 0.197977 0.000000 0.750000
O O18 0.000000 0.000000 0.671490
#
# Coordination Sequence:
#
# PCOD9499022 Si02
#       8
#    16  16  16  16  16   4  16  16
#     4  11  23  41  68  98 142 170 215 277 349 419
#     4  11  24  46  66  90 133 180 231 280 323 395
#     4  11  24  39  68 102 138 169 214 278 352 415
#     4  10  23  40  69 100 130 174 219 273 344 416
#     4  12  24  40  64 103 132 176 219 278 339 409
#     4  12  24  44  72  88 130 176 242 290 324 392
#     4  11  24  46  64  95 129 180 230 275 337 396
#     4  11  24  39  67  98 137 171 218 271 344 413
#
# _framework density 19.341640000000002
#
# number of rings (size 3 to 8) (size 9 to 14) (size 15 to 20)
#    0.000    0.966    4.828    1.655    7.724    0.276 
#    4.966    2.414    0.000    2.897    0.000    0.000 
#    0.000    0.000    0.000    0.000    0.000    0.000 
#
# Total GULP energy -323327.411530 kJ/mol
# GULP energy per Si atom -5574.610544 kJ/mol
# Density = 1.929762 g / cm^3
# Si number density = 19.341640 Si / 1000 Ang^3
#
#
#
# Elastic Constant Matrix: (Units=GPa)
#
#
# Indices 1 2 3 4 5 6 
#
# 1 127.5513 29.8011 30.7356 0.0000 0.0000 0.0000
# 2 29.8011 102.9074 35.5976 0.0000 0.0000 0.0000
# 3 30.7356 35.5976 101.6528 0.0000 0.0000 0.0000
# 4 0.0000 0.0000 0.0000 10.1549 0.0000 0.0000
# 5 0.0000 0.0000 0.0000 0.0000 9.2907 0.0000
# 6 0.0000 0.0000 0.0000 0.0000 0.0000 24.5176
#
#
#
# Elastic Compliance Matrix: (Units=1/GPa)
#
#
# Indices 1 2 3 4 5 6 
#
# 1 0.008753 -0.001842 -0.002001 0.000000 0.000000 0.000000
# 2 -0.001842 0.011445 -0.003451 0.000000 0.000000 0.000000
# 3 -0.002001 -0.003451 0.011651 0.000000 0.000000 0.000000
# 4 0.000000 0.000000 0.000000 0.098474 0.000000 0.000000
# 5 0.000000 0.000000 0.000000 0.000000 0.107635 0.000000
# 6 0.000000 0.000000 0.000000 0.000000 0.000000 0.040787
#
#
# Mechanical properties :
#
#
# Convention : Reuss Voigt Hill
#
# Bulk Modulus (GPa) = 57.93916 58.26442 58.10179
# Shear Modulus (GPa) = 16.71757 24.52446 20.62101
#
# Velocity S-wave (km/s) = 2.94314 3.56471 3.26873
# Velocity P-wave (km/s) = 6.44749 6.86528 6.65966
#
# Compressibility (1/GPa) = 0.01725949
#
# Stress axis : x y z
#
# Youngs Moduli (GPa) = 114.25066 87.37672 85.83026
#
# Poissons Ratio (x) = 0.16099 0.17177
# Poissons Ratio (y) = 0.21050 0.29618
# Poissons Ratio (z) = 0.22864 0.30151
#
# Static dielectric constant tensor:
#      x y z
#    x 1.735920 0.000000 0.000000 
#    y 0.000000 1.695140 0.000000 
#    z 0.000000 0.000000 1.625040 
# 
# From -- ./inp_files/55928.got.cif
#   From: 2010.05.17/outbox.cif.g08.bks.cpg/sg66_28_cif.got.tgz:55928.got - 2010.06.03 17:51:23.
