data_PCOD9499987
_publ_section_title
;
Structure prediction by ZEFSAII (Michael W. Deem and Ramdas Pophale) SiO2 
 PCOD9499987
Probable space group: C C C M
;
_chemical_formula_sum "Si O2"
_cell_formula_units_Z 60
_cell_length_a 12.645699
_cell_length_b 7.935726
_cell_length_c 24.494055
_cell_angle_alpha 90.000000
_cell_angle_beta 90.000000
_cell_angle_gamma 90.000000
_cell_volume 2458.047060
_symmetry_space_group_name_H-M "C C C M"
_symmetry_group_IT_number 66
_symmetry_cell_setting 'orthorhombic'
loop_
_space_group_symop_operation_xyz
x,y,z
-x,-y,z
x,-y,1/2-z
-x,y,1/2-z
-x,-y,-z
x,y,-z
-x,y,1/2+z
x,-y,1/2+z
1/2+x,1/2+y,z
1/2-x,1/2-y,z
1/2+x,1/2-y,1/2-z
1/2-x,1/2+y,1/2-z
1/2-x,1/2-y,-z
1/2+x,1/2+y,-z
1/2-x,1/2+y,1/2+z
1/2+x,1/2-y,1/2+z
loop_
_atom_site_type_symbol
_atom_site_label
_atom_site_fract_x
_atom_site_fract_y
_atom_site_fract_z
Si Si1 0.237580 0.502317 0.560461
Si Si2 0.940217 0.245502 0.940630
Si Si3 0.021508 0.197973 0.822029
Si Si4 0.500000 0.000000 0.750000
Si Si5 0.750000 0.250000 0.659317
O O1 0.245532 0.579575 0.500000
O O2 0.120646 0.421974 0.561280
O O3 0.337947 0.376984 0.561643
O O4 0.246063 0.597835 0.616858
O O5 0.009167 0.215035 0.887486
O O6 0.992750 0.222008 0.000000
O O7 0.143033 0.236201 0.807307
O O8 0.958394 0.354085 0.793547
O O9 0.000000 0.000000 0.809320
#
# Coordination Sequence:
#
# PCOD9499987 Si02
#       5
#    16  16  16   4   8
#     4   9  18  34  61 102 148 190 231 277 348 437
#     4   9  19  39  68 101 145 190 228 286 356 435
#     4  12  26  50  75 105 145 184 243 302 365 436
#     4  12  30  56  74  98 130 192 246 306 368 426
#     4  12  23  40  68 108 134 186 235 300 358 432
#
# _framework density 24.409621000000001
#
# number of rings (size 3 to 8) (size 9 to 14) (size 15 to 20)
#    0.000    1.600    2.667    4.000    0.000    2.667 
#    4.800    3.333    0.000    0.000    0.000    0.000 
#    0.000    0.000    0.000    0.000    0.000    0.000 
#
# Total GULP energy -167156.991061 kJ/mol
# GULP energy per Si atom -5571.899702 kJ/mol
# Density = 2.435406 g / cm^3
# Si number density = 24.409621 Si / 1000 Ang^3
#
#
#
# Elastic Constant Matrix: (Units=GPa)
#
#
# Indices 1 2 3 4 5 6 
#
# 1 107.6142 9.5916 26.9998 0.0000 0.0000 0.0000
# 2 9.5916 89.1177 47.8061 0.0000 0.0000 0.0000
# 3 26.9998 47.8061 152.4055 0.0000 0.0000 0.0000
# 4 0.0000 0.0000 0.0000 25.1638 0.0000 0.0000
# 5 0.0000 0.0000 0.0000 0.0000 17.4727 0.0000
# 6 0.0000 0.0000 0.0000 0.0000 0.0000 20.0588
#
#
#
# Elastic Compliance Matrix: (Units=1/GPa)
#
#
# Indices 1 2 3 4 5 6 
#
# 1 0.009726 -0.000147 -0.001677 0.000000 0.000000 0.000000
# 2 -0.000147 0.013493 -0.004207 0.000000 0.000000 0.000000
# 3 -0.001677 -0.004207 0.008178 0.000000 0.000000 0.000000
# 4 0.000000 0.000000 0.000000 0.039740 0.000000 0.000000
# 5 0.000000 0.000000 0.000000 0.000000 0.057232 0.000000
# 6 0.000000 0.000000 0.000000 0.000000 0.000000 0.049853
#
#
# Mechanical properties :
#
#
# Convention : Reuss Voigt Hill
#
# Bulk Modulus (GPa) = 51.71580 57.54803 54.63191
# Shear Modulus (GPa) = 25.41558 30.18840 27.80199
#
# Velocity S-wave (km/s) = 3.23028 3.52055 3.37853
# Velocity P-wave (km/s) = 5.92837 6.33663 6.13590
#
# Compressibility (1/GPa) = 0.01933645
#
# Stress axis : x y z
#
# Youngs Moduli (GPa) = 102.81401 74.10979 122.27924
#
# Poissons Ratio (x) = 0.01091 0.20505
# Poissons Ratio (y) = 0.01514 0.51437
# Poissons Ratio (z) = 0.17241 0.31174
#
# Static dielectric constant tensor:
#      x y z
#    x 1.990620 0.000000 0.000000 
#    y 0.000000 2.142940 0.000000 
#    z 0.000000 0.000000 1.915770 
# 
# From -- ./inp_files/63261.got.cif
#   From: 2010.05.17/outbox.cif.g08.bks.cpg/sg66_32_cif.got.tgz:63261.got - 2010.06.03 17:51:23.
