data_PCOD9499954
_publ_section_title
;
Structure prediction by ZEFSAII (Michael W. Deem and Ramdas Pophale) SiO2 
 PCOD9499954
Probable space group: C C C M
;
_chemical_formula_sum "Si O2"
_cell_formula_units_Z 88
_cell_length_a 8.802604
_cell_length_b 21.570853
_cell_length_c 20.211572
_cell_angle_alpha 90.000000
_cell_angle_beta 90.000000
_cell_angle_gamma 90.000000
_cell_volume 3837.766761
_symmetry_space_group_name_H-M "C C C M"
_symmetry_group_IT_number 66
_symmetry_cell_setting 'orthorhombic'
loop_
_space_group_symop_operation_xyz
x,y,z
-x,-y,z
x,-y,1/2-z
-x,y,1/2-z
-x,-y,-z
x,y,-z
-x,y,1/2+z
x,-y,1/2+z
1/2+x,1/2+y,z
1/2-x,1/2-y,z
1/2+x,1/2-y,1/2-z
1/2-x,1/2+y,1/2-z
1/2-x,1/2-y,-z
1/2+x,1/2+y,-z
1/2-x,1/2+y,1/2+z
1/2+x,1/2-y,1/2+z
loop_
_atom_site_type_symbol
_atom_site_label
_atom_site_fract_x
_atom_site_fract_y
_atom_site_fract_z
Si Si1 0.500000 0.621154 0.250000
Si Si2 0.500000 0.000000 0.883664
Si Si3 0.641654 0.808030 0.382291
Si Si4 0.612788 0.715248 0.138215
Si Si5 0.248344 0.888357 0.000000
Si Si6 0.397814 0.648699 0.500000
Si Si7 0.191518 0.465738 0.000000
Si Si8 0.165941 0.586448 0.214185
O O1 0.529194 0.666206 0.186318
O O2 0.339207 0.582606 0.243044
O O3 0.370258 0.966786 0.840051
O O4 0.410333 0.044230 0.934585
O O5 0.750000 0.750000 0.392929
O O6 0.482417 0.775181 0.382692
O O7 0.670190 0.858947 0.437298
O O8 0.668226 0.844511 0.315081
O O9 0.750000 0.750000 0.174861
O O10 0.649307 0.682024 0.068371
O O11 0.256109 0.962501 0.000000
O O12 0.078852 0.860738 0.000000
O O13 0.328054 0.580751 0.500000
O O14 0.000000 0.583277 0.250000
#
# Coordination Sequence:
#
# PCOD9499954 Si02
#       8
#     8   8  16  16   8   8   8  16
#     4  12  28  50  79 118 158 213 264 320 406 480
#     4  11  27  54  74 112 143 203 270 324 396 455
#     4  12  23  44  77 106 153 192 245 316 391 466
#     4  12  28  45  74 116 157 204 258 322 397 481
#     4  12  22  48  73 111 145 198 259 321 399 466
#     4  12  26  47  70 114 152 201 268 329 396 461
#     4  11  27  46  81 102 147 203 263 330 390 472
#     4  12  27  49  80 111 156 205 260 324 387 471
#
# _framework density 22.93
#
# number of rings (size 3 to 8) (size 9 to 14) (size 15 to 20)
#    0.000    0.182    5.455    2.727    8.909    0.000 
#    0.000    1.818    0.000    0.000    0.000    0.000 
#    0.000    0.000    0.000    0.000    0.000    0.000 
#
# Total GULP energy -245547.119838 kJ/mol
# GULP energy per Si atom -5580.616360 kJ/mol
# Density = 2.287781 g / cm^3
# Si number density = 22.930000 Si / 1000 Ang^3
#
#
#
# Elastic Constant Matrix: (Units=GPa)
#
#
# Indices 1 2 3 4 5 6 
#
# 1 149.3145 52.4396 47.6619 0.0000 0.0000 0.0000
# 2 52.4396 113.0642 30.0958 0.0000 0.0000 0.0000
# 3 47.6619 30.0958 99.5601 0.0000 0.0000 0.0000
# 4 0.0000 0.0000 0.0000 -5.3787 0.0000 0.0000
# 5 0.0000 0.0000 0.0000 0.0000 26.1668 0.0000
# 6 0.0000 0.0000 0.0000 0.0000 0.0000 45.5136
#
#
#
# Elastic Compliance Matrix: (Units=1/GPa)
#
#
# Indices 1 2 3 4 5 6 
#
# 1 0.008882 -0.003249 -0.003270 0.000000 0.000000 0.000000
# 2 -0.003249 0.010807 -0.001711 0.000000 0.000000 0.000000
# 3 -0.003270 -0.001711 0.012127 0.000000 0.000000 0.000000
# 4 0.000000 0.000000 0.000000 -0.185919 0.000000 0.000000
# 5 0.000000 0.000000 0.000000 0.000000 0.038216 0.000000
# 6 0.000000 0.000000 0.000000 0.000000 0.000000 0.021971
#
#
# Mechanical properties :
#
#
# Convention : Reuss Voigt Hill
#
# Bulk Modulus (GPa) = 65.12468 69.14815 67.13642
# Shear Modulus (GPa) = -69.12185 28.70978 -20.20603
#
# Velocity S-wave (km/s) = -5.49638 3.54229 -2.97173
# Velocity P-wave (km/s) = 3.43759 6.85216 4.19136
#
# Compressibility (1/GPa) = 0.01535516
#
# Stress axis : x y z
#
# Youngs Moduli (GPa) = 112.58510 92.53214 82.46131
#
# Poissons Ratio (x) = 0.30065 0.26964
# Poissons Ratio (y) = 0.36581 0.14112
# Poissons Ratio (z) = 0.36814 0.15836
#
# Static dielectric constant tensor:
#      x y z
#    x 1.850640 0.000000 0.000000 
#    y 0.000000 1.798890 0.000000 
#    z 0.000000 0.000000 1.808140 
# 
# From -- ./inp_files/47215.got.cif
#   From: 2010.05.17/outbox.cif.g08.bks.cpg/sg66_24_cif.got.tgz:47215.got - 2010.06.03 17:51:23.
