data_PCOD9499392
_publ_section_title
;
Structure prediction by ZEFSAII (Michael W. Deem and Ramdas Pophale) SiO2 
 PCOD9499392
Probable space group: C C C M
;
_chemical_formula_sum "Si O2"
_cell_formula_units_Z 96
_cell_length_a 8.043837
_cell_length_b 22.829785
_cell_length_c 21.774194
_cell_angle_alpha 90.000000
_cell_angle_beta 90.000000
_cell_angle_gamma 90.000000
_cell_volume 3998.592721
_symmetry_space_group_name_H-M "C C C M"
_symmetry_group_IT_number 66
_symmetry_cell_setting 'orthorhombic'
loop_
_space_group_symop_operation_xyz
x,y,z
-x,-y,z
x,-y,1/2-z
-x,y,1/2-z
-x,-y,-z
x,y,-z
-x,y,1/2+z
x,-y,1/2+z
1/2+x,1/2+y,z
1/2-x,1/2-y,z
1/2+x,1/2-y,1/2-z
1/2-x,1/2+y,1/2-z
1/2-x,1/2-y,-z
1/2+x,1/2+y,-z
1/2-x,1/2+y,1/2+z
1/2+x,1/2-y,1/2+z
loop_
_atom_site_type_symbol
_atom_site_label
_atom_site_fract_x
_atom_site_fract_y
_atom_site_fract_z
Si Si1 0.072980 0.924404 0.681440
Si Si2 0.758588 0.372750 0.878744
Si Si3 0.333285 0.979479 0.820109
Si Si4 0.260804 0.557448 0.000000
Si Si5 0.160653 0.070246 0.000000
Si Si6 0.471612 0.229927 0.574010
Si Si7 0.307025 0.338232 0.107018
O O1 0.169478 0.983255 0.659175
O O2 0.196611 0.868958 0.673870
O O3 0.000000 0.931866 0.750000
O O4 0.926314 0.896451 0.639565
O O5 0.845911 0.409452 0.824634
O O6 0.824010 0.307303 0.892442
O O7 0.800652 0.408181 0.940661
O O8 0.500000 0.000000 0.852871
O O9 0.336386 0.000000 0.750000
O O10 0.462048 0.560770 0.000000
O O11 0.232492 0.488565 0.000000
O O12 0.195568 0.109070 0.941057
O O13 0.442607 0.230440 0.500000
O O14 0.535955 0.294782 0.593592
O O15 0.637979 0.194976 0.591618
#
# Coordination Sequence:
#
# PCOD9499392 Si02
#       7
#    16  16  16   8   8  16  16
#     4  12  25  44  70 100 142 189 238 299 370 438
#     4  12  24  41  65 106 143 183 233 300 359 441
#     4  11  24  44  71 100 136 188 240 292 359 449
#     4  11  24  36  60 105 142 177 223 301 363 436
#     4  11  20  37  62  96 134 181 235 284 362 429
#     4  11  23  44  71 103 143 187 250 295 371 440
#     4  11  22  44  71  97 136 197 239 299 358 435
#
# _framework density 24.008448999999999
#
# number of rings (size 3 to 8) (size 9 to 14) (size 15 to 20)
#    0.000    0.667    5.833    3.000    2.333    0.667 
#    0.000    6.250    0.000    0.000    0.000    0.000 
#    0.000    0.000    0.000    0.000    0.000    0.000 
#
# Total GULP energy -267418.775330 kJ/mol
# GULP energy per Si atom -5571.224486 kJ/mol
# Density = 2.395380 g / cm^3
# Si number density = 24.008449 Si / 1000 Ang^3
#
#
#
# Elastic Constant Matrix: (Units=GPa)
#
#
# Indices 1 2 3 4 5 6 
#
# 1 116.0048 39.3714 9.6583 0.0000 0.0000 0.0000
# 2 39.3714 211.8805 62.7802 0.0000 0.0000 0.0000
# 3 9.6583 62.7802 97.5814 0.0000 0.0000 0.0000
# 4 0.0000 0.0000 0.0000 31.3661 0.0000 0.0000
# 5 0.0000 0.0000 0.0000 0.0000 24.3434 0.0000
# 6 0.0000 0.0000 0.0000 0.0000 0.0000 39.0119
#
#
#
# Elastic Compliance Matrix: (Units=1/GPa)
#
#
# Indices 1 2 3 4 5 6 
#
# 1 0.009205 -0.001780 0.000234 0.000000 0.000000 0.000000
# 2 -0.001780 0.006175 -0.003797 0.000000 0.000000 0.000000
# 3 0.000234 -0.003797 0.012667 0.000000 0.000000 0.000000
# 4 0.000000 0.000000 0.000000 0.031882 0.000000 0.000000
# 5 0.000000 0.000000 0.000000 0.000000 0.041079 0.000000
# 6 0.000000 0.000000 0.000000 0.000000 0.000000 0.025633
#
#
# Mechanical properties :
#
#
# Convention : Reuss Voigt Hill
#
# Bulk Modulus (GPa) = 57.59566 72.12073 64.85820
# Shear Modulus (GPa) = 34.93718 39.85475 37.39596
#
# Velocity S-wave (km/s) = 3.81885 4.07877 3.95095
# Velocity P-wave (km/s) = 6.59444 7.23096 6.92002
#
# Compressibility (1/GPa) = 0.01736242
#
# Stress axis : x y z
#
# Youngs Moduli (GPa) = 108.63785 161.93390 78.94253
#
# Poissons Ratio (x) = 0.28820 -0.01847
# Poissons Ratio (y) = 0.19335 0.29973
# Poissons Ratio (z) = -0.02542 0.61484
#
# Static dielectric constant tensor:
#      x y z
#    x 2.234880 0.000000 0.000000 
#    y 0.000000 2.767610 0.000000 
#    z 0.000000 0.000000 2.027490 
# 
# From -- ./inp_files/55698.got.cif
#   From: 2010.05.17/outbox.cif.g08.bks.cpg/sg66_28_cif.got.tgz:55698.got - 2010.06.03 17:51:23.
