data_PCOD9499006
_publ_section_title
;
Structure prediction by ZEFSAII (Michael W. Deem and Ramdas Pophale) SiO2 
 PCOD9499006
Probable space group: C C C M
;
_chemical_formula_sum "Si O2"
_cell_formula_units_Z 52
_cell_length_a 24.315313
_cell_length_b 7.184259
_cell_length_c 13.681761
_cell_angle_alpha 90.000000
_cell_angle_beta 90.000000
_cell_angle_gamma 90.000000
_cell_volume 2390.032710
_symmetry_space_group_name_H-M "C C C M"
_symmetry_group_IT_number 66
_symmetry_cell_setting 'orthorhombic'
loop_
_space_group_symop_operation_xyz
x,y,z
-x,-y,z
x,-y,1/2-z
-x,y,1/2-z
-x,-y,-z
x,y,-z
-x,y,1/2+z
x,-y,1/2+z
1/2+x,1/2+y,z
1/2-x,1/2-y,z
1/2+x,1/2-y,1/2-z
1/2-x,1/2+y,1/2-z
1/2-x,1/2-y,-z
1/2+x,1/2+y,-z
1/2-x,1/2+y,1/2+z
1/2+x,1/2-y,1/2+z
loop_
_atom_site_type_symbol
_atom_site_label
_atom_site_fract_x
_atom_site_fract_y
_atom_site_fract_z
Si Si1 0.909698 0.487971 0.110173
Si Si2 0.687368 0.265046 0.830274
Si Si3 0.156984 0.170367 0.112008
Si Si4 0.000000 0.500000 0.750000
O O1 0.850634 0.403843 0.136727
O O2 0.899636 0.710846 0.120351
O O3 0.956681 0.403821 0.178220
O O4 0.923674 0.445846 0.000000
O O5 0.750000 0.250000 0.865309
O O6 0.657862 0.448208 0.874081
O O7 0.688542 0.273338 0.711874
O O8 0.176980 0.210774 0.000000
#
# Coordination Sequence:
#
# PCOD9499006 Si02
#       4
#    16  16  16   4
#     4  11  24  44  67  95 130 174 223 274 337 397
#     4  11  24  42  64  96 136 173 221 277 332 396
#     4  10  23  40  62  90 126 172 219 267 327 392
#     4  12  22  44  70  98 132 174 222 286 334 394
#
# _framework density 21.757024999999999
#
# number of rings (size 3 to 8) (size 9 to 14) (size 15 to 20)
#    0.000    1.231    3.077    1.385    8.615    3.077 
#    0.000    3.077    0.000    5.538    0.000    0.000 
#    0.000    0.000    0.000    0.000    0.000    0.000 
#
# Total GULP energy -144774.033897 kJ/mol
# GULP energy per Si atom -5568.232073 kJ/mol
# Density = 2.170751 g / cm^3
# Si number density = 21.757025 Si / 1000 Ang^3
#
#
#
# Elastic Constant Matrix: (Units=GPa)
#
#
# Indices 1 2 3 4 5 6 
#
# 1 105.3714 30.1058 44.6169 0.0000 0.0000 0.0000
# 2 30.1058 90.7297 20.0395 0.0000 0.0000 0.0000
# 3 44.6169 20.0395 177.6899 0.0000 0.0000 0.0000
# 4 0.0000 0.0000 0.0000 21.9945 0.0000 0.0000
# 5 0.0000 0.0000 0.0000 0.0000 -48.7628 0.0000
# 6 0.0000 0.0000 0.0000 0.0000 0.0000 12.1698
#
#
#
# Elastic Compliance Matrix: (Units=1/GPa)
#
#
# Indices 1 2 3 4 5 6 
#
# 1 0.011486 -0.003255 -0.002517 0.000000 0.000000 0.000000
# 2 -0.003255 0.012226 -0.000561 0.000000 0.000000 0.000000
# 3 -0.002517 -0.000561 0.006323 0.000000 0.000000 0.000000
# 4 0.000000 0.000000 0.000000 0.045466 0.000000 0.000000
# 5 0.000000 0.000000 0.000000 0.000000 -0.020507 0.000000
# 6 0.000000 0.000000 0.000000 0.000000 0.000000 0.082170
#
#
# Mechanical properties :
#
#
# Convention : Reuss Voigt Hill
#
# Bulk Modulus (GPa) = 57.57836 62.59059 60.08448
# Shear Modulus (GPa) = 32.12944 15.68224 23.90584
#
# Velocity S-wave (km/s) = 3.84700 2.68767 3.31836
# Velocity P-wave (km/s) = 6.80105 6.20176 6.50831
#
# Compressibility (1/GPa) = 0.01736764
#
# Stress axis : x y z
#
# Youngs Moduli (GPa) = 87.06194 81.79332 158.15057
#
# Poissons Ratio (x) = 0.26627 0.39806
# Poissons Ratio (y) = 0.28342 0.08879
# Poissons Ratio (z) = 0.21913 0.04592
#
# Static dielectric constant tensor:
#      x y z
#    x 1.770530 0.000000 0.000000 
#    y 0.000000 1.888100 0.000000 
#    z 0.000000 0.000000 1.836670 
# 
# From -- ./inp_files/23970.got.cif
#   From: 2010.05.17/outbox.cif.g08.bks.cpg/sg66_12_cif.got.tgz:23970.got - 2010.06.03 17:51:23.
