data_PCOD9499459
_publ_section_title
;
Structure prediction by ZEFSAII (Michael W. Deem and Ramdas Pophale) SiO2 
 PCOD9499459
Probable space group: C C C M
;
_chemical_formula_sum "Si O2"
_cell_formula_units_Z 64
_cell_length_a 19.913425
_cell_length_b 20.985242
_cell_length_c 8.604083
_cell_angle_alpha 90.000000
_cell_angle_beta 90.000000
_cell_angle_gamma 90.000000
_cell_volume 3595.543404
_symmetry_space_group_name_H-M "C C C M"
_symmetry_group_IT_number 66
_symmetry_cell_setting 'orthorhombic'
loop_
_space_group_symop_operation_xyz
x,y,z
-x,-y,z
x,-y,1/2-z
-x,y,1/2-z
-x,-y,-z
x,y,-z
-x,y,1/2+z
x,-y,1/2+z
1/2+x,1/2+y,z
1/2-x,1/2-y,z
1/2+x,1/2-y,1/2-z
1/2-x,1/2+y,1/2-z
1/2-x,1/2-y,-z
1/2+x,1/2+y,-z
1/2-x,1/2+y,1/2+z
1/2+x,1/2-y,1/2+z
loop_
_atom_site_type_symbol
_atom_site_label
_atom_site_fract_x
_atom_site_fract_y
_atom_site_fract_z
Si Si1 0.710749 0.067723 0.685459
Si Si2 0.206269 0.186975 0.313729
Si Si3 0.427767 0.116668 0.314085
Si Si4 0.071212 0.239438 0.185654
O O1 0.711587 0.068270 0.500000
O O2 0.755293 0.125496 0.750478
O O3 0.634837 0.078855 0.745099
O O4 0.734795 0.000000 0.750000
O O5 0.200265 0.183335 0.500000
O O6 0.250000 0.250000 0.276125
O O7 0.133607 0.196865 0.237965
O O8 0.500000 0.094883 0.250000
O O9 0.427059 0.113824 0.500000
O O10 0.419505 0.190232 0.260028
O O11 0.000000 0.215161 0.250000
O O12 0.068628 0.245876 0.000000
#
# Coordination Sequence:
#
# PCOD9499459 Si02
#       4
#    16  16  16  16
#     4  12  25  41  60  85 118 157 199 243 295 351
#     4  11  22  38  62  89 119 154 197 245 294 345
#     4  11  21  36  56  83 117 156 198 241 289 346
#     4  11  21  35  58  88 120 154 194 242 295 347
#
# _framework density 17.799811999999999
#
# number of rings (size 3 to 8) (size 9 to 14) (size 15 to 20)
#    0.000    0.750    2.500    9.000    0.000    1.500 
#    0.000    2.500    0.000    0.750    0.000    5.250 
#    0.000    0.000    0.000    0.000    0.000    0.000 
#
# Total GULP energy -179040.126328 kJ/mol
# GULP energy per Si atom -5595.003948 kJ/mol
# Density = 1.775930 g / cm^3
# Si number density = 17.799812 Si / 1000 Ang^3
#
#
#
# Elastic Constant Matrix: (Units=GPa)
#
#
# Indices 1 2 3 4 5 6 
#
# 1 110.9325 51.3320 39.5032 0.0000 0.0000 0.0000
# 2 51.3320 104.2480 39.0207 0.0000 0.0000 0.0000
# 3 39.5032 39.0207 127.7345 0.0000 0.0000 0.0000
# 4 0.0000 0.0000 0.0000 53.3892 0.0000 0.0000
# 5 0.0000 0.0000 0.0000 0.0000 35.3444 0.0000
# 6 0.0000 0.0000 0.0000 0.0000 0.0000 21.2805
#
#
#
# Elastic Compliance Matrix: (Units=1/GPa)
#
#
# Indices 1 2 3 4 5 6 
#
# 1 0.012193 -0.005185 -0.002187 0.000000 0.000000 0.000000
# 2 -0.005185 0.013036 -0.002379 0.000000 0.000000 0.000000
# 3 -0.002187 -0.002379 0.009232 0.000000 0.000000 0.000000
# 4 0.000000 0.000000 0.000000 0.018730 0.000000 0.000000
# 5 0.000000 0.000000 0.000000 0.000000 0.028293 0.000000
# 6 0.000000 0.000000 0.000000 0.000000 0.000000 0.046991
#
#
# Mechanical properties :
#
#
# Convention : Reuss Voigt Hill
#
# Bulk Modulus (GPa) = 66.84889 66.95852 66.90370
# Shear Modulus (GPa) = 32.68778 36.20678 34.44728
#
# Velocity S-wave (km/s) = 4.28999 4.51500 4.40393
# Velocity P-wave (km/s) = 7.88518 8.05478 7.97044
#
# Compressibility (1/GPa) = 0.01495911
#
# Stress axis : x y z
#
# Youngs Moduli (GPa) = 82.01763 76.71029 108.32293
#
# Poissons Ratio (x) = 0.39775 0.23687
# Poissons Ratio (y) = 0.42527 0.25767
# Poissons Ratio (z) = 0.17935 0.18247
#
# Static dielectric constant tensor:
#      x y z
#    x 1.610550 0.000000 0.000000 
#    y 0.000000 1.600610 0.000000 
#    z 0.000000 0.000000 1.587030 
# 
# From -- ./inp_files/6165.got.cif
#   From: 2010.05.17/outbox.cif.g08.bks.cpg/sg66_4_cif.got.tgz:6165.got - 2010.06.03 17:51:23.
