data_PCOD9499865
_publ_section_title
;
Structure prediction by ZEFSAII (Michael W. Deem and Ramdas Pophale) SiO2 
 PCOD9499865
Probable space group: C C C M
;
_chemical_formula_sum "Si O2"
_cell_formula_units_Z 48
_cell_length_a 16.189530
_cell_length_b 8.520262
_cell_length_c 14.789343
_cell_angle_alpha 90.000000
_cell_angle_beta 90.000000
_cell_angle_gamma 90.000000
_cell_volume 2040.027735
_symmetry_space_group_name_H-M "C C C M"
_symmetry_group_IT_number 66
_symmetry_cell_setting 'orthorhombic'
loop_
_space_group_symop_operation_xyz
x,y,z
-x,-y,z
x,-y,1/2-z
-x,y,1/2-z
-x,-y,-z
x,y,-z
-x,y,1/2+z
x,-y,1/2+z
1/2+x,1/2+y,z
1/2-x,1/2-y,z
1/2+x,1/2-y,1/2-z
1/2-x,1/2+y,1/2-z
1/2-x,1/2-y,-z
1/2+x,1/2+y,-z
1/2-x,1/2+y,1/2+z
1/2+x,1/2-y,1/2+z
loop_
_atom_site_type_symbol
_atom_site_label
_atom_site_fract_x
_atom_site_fract_y
_atom_site_fract_z
Si Si1 0.745095 0.506079 0.000000
Si Si2 0.108183 0.247789 0.000000
Si Si3 0.315872 0.860770 0.819608
Si Si4 0.482484 0.682054 0.144660
O O1 0.763797 0.420252 0.094075
O O2 0.816187 0.636278 0.000000
O O3 0.653786 0.579048 0.000000
O O4 0.049717 0.272705 0.914181
O O5 0.250000 0.750000 0.767293
O O6 0.392907 0.762792 0.860107
O O7 0.340263 0.000000 0.750000
O O8 0.500000 0.500000 0.117937
O O9 0.500000 0.689483 0.250000
#
# Coordination Sequence:
#
# PCOD9499865 Si02
#       4
#     8   8  16  16
#     4  11  26  45  74 109 148 199 249 305 377 440
#     4  11  24  45  74 103 152 193 250 308 367 448
#     4  12  28  46  77 109 152 197 253 309 375 447
#     4  11  25  44  72 105 149 195 249 308 378 435
#
# _framework density 23.529088999999999
#
# number of rings (size 3 to 8) (size 9 to 14) (size 15 to 20)
#    0.000    0.667    0.000    6.000   14.000    6.000 
#    0.000    0.000    0.000    0.000    0.000    0.000 
#    0.000    0.000    0.000    0.000    0.000    0.000 
#
# Total GULP energy -134155.863171 kJ/mol
# GULP energy per Si atom -5589.827632 kJ/mol
# Density = 2.347554 g / cm^3
# Si number density = 23.529089 Si / 1000 Ang^3
#
#
#
# Elastic Constant Matrix: (Units=GPa)
#
#
# Indices 1 2 3 4 5 6 
#
# 1 203.1669 68.8491 45.5714 0.0000 0.0000 0.0000
# 2 68.8491 95.7771 31.6519 0.0000 0.0000 0.0000
# 3 45.5714 31.6519 99.4899 0.0000 0.0000 0.0000
# 4 0.0000 0.0000 0.0000 39.9410 0.0000 0.0000
# 5 0.0000 0.0000 0.0000 0.0000 39.5515 0.0000
# 6 0.0000 0.0000 0.0000 0.0000 0.0000 42.5678
#
#
#
# Elastic Compliance Matrix: (Units=1/GPa)
#
#
# Indices 1 2 3 4 5 6 
#
# 1 0.006765 -0.004290 -0.001734 0.000000 0.000000 0.000000
# 2 -0.004290 0.014388 -0.002612 0.000000 0.000000 0.000000
# 3 -0.001734 -0.002612 0.011677 0.000000 0.000000 0.000000
# 4 0.000000 0.000000 0.000000 0.025037 0.000000 0.000000
# 5 0.000000 0.000000 0.000000 0.000000 0.025283 0.000000
# 6 0.000000 0.000000 0.000000 0.000000 0.000000 0.023492
#
#
# Mechanical properties :
#
#
# Convention : Reuss Voigt Hill
#
# Bulk Modulus (GPa) = 64.27935 76.73095 70.50515
# Shear Modulus (GPa) = 38.72984 41.23617 39.98301
#
# Velocity S-wave (km/s) = 4.06154 4.19090 4.12673
# Velocity P-wave (km/s) = 7.02661 7.49000 7.26200
#
# Compressibility (1/GPa) = 0.01555710
#
# Stress axis : x y z
#
# Youngs Moduli (GPa) = 147.82644 69.50253 85.64152
#
# Poissons Ratio (x) = 0.29815 0.14849
# Poissons Ratio (y) = 0.63415 0.22374
# Poissons Ratio (z) = 0.25630 0.18157
#
# Static dielectric constant tensor:
#      x y z
#    x 1.863780 0.000000 0.000000 
#    y 0.000000 2.055730 0.000000 
#    z 0.000000 0.000000 1.806420 
# 
# From -- ./inp_files/23517.got.cif
#   From: 2010.05.17/outbox.cif.g08.bks.cpg/sg66_12_cif.got.tgz:23517.got - 2010.06.03 17:51:23.
