data_PCOD9499873
_publ_section_title
;
Structure prediction by ZEFSAII (Michael W. Deem and Ramdas Pophale) SiO2 
 PCOD9499873
Probable space group: C C C M
;
_chemical_formula_sum "Si O2"
_cell_formula_units_Z 52
_cell_length_a 18.027447
_cell_length_b 6.044857
_cell_length_c 20.753695
_cell_angle_alpha 90.000000
_cell_angle_beta 90.000000
_cell_angle_gamma 90.000000
_cell_volume 2261.599445
_symmetry_space_group_name_H-M "C C C M"
_symmetry_group_IT_number 66
_symmetry_cell_setting 'orthorhombic'
loop_
_space_group_symop_operation_xyz
x,y,z
-x,-y,z
x,-y,1/2-z
-x,y,1/2-z
-x,-y,-z
x,y,-z
-x,y,1/2+z
x,-y,1/2+z
1/2+x,1/2+y,z
1/2-x,1/2-y,z
1/2+x,1/2-y,1/2-z
1/2-x,1/2+y,1/2-z
1/2-x,1/2-y,-z
1/2+x,1/2+y,-z
1/2-x,1/2+y,1/2+z
1/2+x,1/2-y,1/2+z
loop_
_atom_site_type_symbol
_atom_site_label
_atom_site_fract_x
_atom_site_fract_y
_atom_site_fract_z
Si Si1 0.500000 0.500000 0.500000
Si Si2 0.566253 0.845600 0.609007
Si Si3 0.177891 0.100943 0.680232
Si Si4 0.838144 0.751684 0.068066
O O1 0.532918 0.672545 0.557767
O O2 0.606106 0.750978 0.671983
O O3 0.500000 0.000000 0.629254
O O4 0.627516 0.010450 0.577343
O O5 0.250000 0.250000 0.662425
O O6 0.191147 0.000000 0.750000
O O7 0.156871 0.908840 0.629357
O O8 0.750000 0.750000 0.060291
O O9 0.873735 0.839947 0.000000
#
# Coordination Sequence:
#
# PCOD9499873 Si02
#       4
#     4  16  16  16
#     4  12  26  52  78 120 168 212 248 338 414 478
#     4  12  27  48  78 115 164 205 262 328 407 485
#     4  12  28  50  82 114 157 213 269 328 401 480
#     4  11  24  46  78 120 153 201 271 340 396 470
#
# _framework density 22.992578999999999
#
# number of rings (size 3 to 8) (size 9 to 14) (size 15 to 20)
#    0.000    0.308    4.615    3.231    6.462    0.615 
#    0.000   11.538    0.000    0.000    0.000    0.000 
#    0.000    0.000    0.000    0.000    0.000    0.000 
#
# Total GULP energy -144784.495535 kJ/mol
# GULP energy per Si atom -5568.634444 kJ/mol
# Density = 2.294025 g / cm^3
# Si number density = 22.992579 Si / 1000 Ang^3
#
#
#
# Elastic Constant Matrix: (Units=GPa)
#
#
# Indices 1 2 3 4 5 6 
#
# 1 118.4957 68.1795 13.6202 0.0000 0.0000 0.0000
# 2 68.1795 145.1199 50.4189 0.0000 0.0000 0.0000
# 3 13.6202 50.4189 97.4727 0.0000 0.0000 0.0000
# 4 0.0000 0.0000 0.0000 48.9660 0.0000 0.0000
# 5 0.0000 0.0000 0.0000 0.0000 30.9423 0.0000
# 6 0.0000 0.0000 0.0000 0.0000 0.0000 69.8682
#
#
#
# Elastic Compliance Matrix: (Units=1/GPa)
#
#
# Indices 1 2 3 4 5 6 
#
# 1 0.011738 -0.006028 0.001478 0.000000 0.000000 0.000000
# 2 -0.006028 0.011496 -0.005104 0.000000 0.000000 0.000000
# 3 0.001478 -0.005104 0.012693 0.000000 0.000000 0.000000
# 4 0.000000 0.000000 0.000000 0.020422 0.000000 0.000000
# 5 0.000000 0.000000 0.000000 0.000000 0.032318 0.000000
# 6 0.000000 0.000000 0.000000 0.000000 0.000000 0.014313
#
#
# Mechanical properties :
#
#
# Convention : Reuss Voigt Hill
#
# Bulk Modulus (GPa) = 60.17501 69.50285 64.83893
# Shear Modulus (GPa) = 39.11503 45.21328 42.16416
#
# Velocity S-wave (km/s) = 4.12904 4.43925 4.28695
# Velocity P-wave (km/s) = 6.99716 7.52130 7.26396
#
# Compressibility (1/GPa) = 0.01661819
#
# Stress axis : x y z
#
# Youngs Moduli (GPa) = 85.19630 86.98481 78.78353
#
# Poissons Ratio (x) = 0.52434 -0.11643
# Poissons Ratio (y) = 0.51356 0.40213
# Poissons Ratio (z) = -0.12591 0.44399
#
# Static dielectric constant tensor:
#      x y z
#    x 1.755060 0.000000 0.000000 
#    y 0.000000 1.700490 0.000000 
#    z 0.000000 0.000000 1.889490 
# 
# From -- ./inp_files/51470.got.cif
#   From: 2010.05.17/outbox.cif.g08.bks.cpg/sg66_26_cif.got.tgz:51470.got - 2010.06.03 17:51:23.
