data_PCOD9499259
_publ_section_title
;
Structure prediction by ZEFSAII (Michael W. Deem and Ramdas Pophale) SiO2 
 PCOD9499259
Probable space group: C C C M
;
_chemical_formula_sum "Si O2"
_cell_formula_units_Z 60
_cell_length_a 11.548550
_cell_length_b 24.765147
_cell_length_c 9.068660
_cell_angle_alpha 90.000000
_cell_angle_beta 90.000000
_cell_angle_gamma 90.000000
_cell_volume 2593.650711
_symmetry_space_group_name_H-M "C C C M"
_symmetry_group_IT_number 66
_symmetry_cell_setting 'orthorhombic'
loop_
_space_group_symop_operation_xyz
x,y,z
-x,-y,z
x,-y,1/2-z
-x,y,1/2-z
-x,-y,-z
x,y,-z
-x,y,1/2+z
x,-y,1/2+z
1/2+x,1/2+y,z
1/2-x,1/2-y,z
1/2+x,1/2-y,1/2-z
1/2-x,1/2+y,1/2-z
1/2-x,1/2-y,-z
1/2+x,1/2+y,-z
1/2-x,1/2+y,1/2+z
1/2+x,1/2-y,1/2+z
loop_
_atom_site_type_symbol
_atom_site_label
_atom_site_fract_x
_atom_site_fract_y
_atom_site_fract_z
Si Si1 0.000000 0.660765 0.250000
Si Si2 0.000000 0.000000 0.250000
Si Si3 0.346620 0.107562 0.500000
Si Si4 0.151938 0.890117 0.500000
Si Si5 0.500000 0.335480 0.750000
Si Si6 0.839435 0.299753 0.500000
Si Si7 0.838757 0.798893 0.500000
Si Si8 0.666968 0.518429 0.500000
O O1 0.922109 0.623568 0.357494
O O2 0.919481 0.696750 0.144063
O O3 0.087001 0.031602 0.358753
O O4 0.235715 0.146649 0.500000
O O5 0.288713 0.048652 0.500000
O O6 0.267663 0.855191 0.500000
O O7 0.079344 0.870914 0.641654
O O8 0.176714 0.953540 0.500000
O O9 0.418419 0.300718 0.643601
O O10 0.750000 0.250000 0.500000
O O11 0.750000 0.750000 0.500000
#
# Coordination Sequence:
#
# PCOD9499259 Si02
#       8
#     8   4   8   8   8   8   8   8
#     4  10  26  51  72 106 144 187 245 301 348 440
#     4  10  26  42  74 108 156 184 240 296 364 410
#     4  11  26  47  75 101 146 191 242 292 367 420
#     4  11  24  43  71 106 142 186 236 292 357 423
#     4  10  25  43  71 110 146 180 241 296 360 432
#     4  11  26  48  76 103 141 189 235 296 363 422
#     4  11  26  45  70 107 142 190 235 297 363 429
#     4  11  26  43  73 110 146 196 231 307 353 432
#
# _framework density 23.133416
#
# number of rings (size 3 to 8) (size 9 to 14) (size 15 to 20)
#    0.000    1.333    0.000    2.400   14.933   10.667 
#    0.000    8.000    0.000    0.000    0.000    0.000 
#    0.000    0.000    0.000    0.000    0.000    0.000 
#
# Total GULP energy -168238.733064 kJ/mol
# GULP energy per Si atom -5607.957769 kJ/mol
# Density = 2.308076 g / cm^3
# Si number density = 23.133416 Si / 1000 Ang^3
#
#
#
# Elastic Constant Matrix: (Units=GPa)
#
#
# Indices 1 2 3 4 5 6 
#
# 1 172.2706 93.1862 111.0282 0.0000 0.0000 0.0000
# 2 93.1862 162.3976 75.6399 0.0000 0.0000 0.0000
# 3 111.0282 75.6399 226.0399 0.0000 0.0000 0.0000
# 4 0.0000 0.0000 0.0000 1.1513 0.0000 0.0000
# 5 0.0000 0.0000 0.0000 0.0000 -43.6742 0.0000
# 6 0.0000 0.0000 0.0000 0.0000 0.0000 63.8889
#
#
#
# Elastic Compliance Matrix: (Units=1/GPa)
#
#
# Indices 1 2 3 4 5 6 
#
# 1 0.010545 -0.004310 -0.003737 0.000000 0.000000 0.000000
# 2 -0.004310 0.009056 -0.000913 0.000000 0.000000 0.000000
# 3 -0.003737 -0.000913 0.006565 0.000000 0.000000 0.000000
# 4 0.000000 0.000000 0.000000 0.868597 0.000000 0.000000
# 5 0.000000 0.000000 0.000000 0.000000 -0.022897 0.000000
# 6 0.000000 0.000000 0.000000 0.000000 0.000000 0.015652
#
#
# Mechanical properties :
#
#
# Convention : Reuss Voigt Hill
#
# Bulk Modulus (GPa) = 121.28546 124.49076 122.88811
# Shear Modulus (GPa) = 5.50546 22.99677 14.25112
#
# Velocity S-wave (km/s) = 1.54436 3.15634 2.48471
# Velocity P-wave (km/s) = 7.46475 8.19844 7.84018
#
# Compressibility (1/GPa) = 0.00824501
#
# Stress axis : x y z
#
# Youngs Moduli (GPa) = 94.83194 110.41885 152.31444
#
# Poissons Ratio (x) = 0.47592 0.56924
# Poissons Ratio (y) = 0.40874 0.13913
# Poissons Ratio (z) = 0.35441 0.10086
#
# Static dielectric constant tensor:
#      x y z
#    x 1.852200 0.000000 0.000000 
#    y 0.000000 1.943440 0.000000 
#    z 0.000000 0.000000 1.873980 
# 
# From -- ./inp_files/3825.got.cif
#   From: 2010.05.17/outbox.cif.g08.bks.cpg/sg66_2_cif.got.tgz:3825.got - 2010.06.03 17:51:23.
