data_PCOD9499183
_publ_section_title
;
Structure prediction by ZEFSAII (Michael W. Deem and Ramdas Pophale) SiO2 
 PCOD9499183
Probable space group: C C C M
;
_chemical_formula_sum "Si O2"
_cell_formula_units_Z 68
_cell_length_a 7.981119
_cell_length_b 20.140695
_cell_length_c 18.682086
_cell_angle_alpha 90.000000
_cell_angle_beta 90.000000
_cell_angle_gamma 90.000000
_cell_volume 3003.057211
_symmetry_space_group_name_H-M "C C C M"
_symmetry_group_IT_number 66
_symmetry_cell_setting 'orthorhombic'
loop_
_space_group_symop_operation_xyz
x,y,z
-x,-y,z
x,-y,1/2-z
-x,y,1/2-z
-x,-y,-z
x,y,-z
-x,y,1/2+z
x,-y,1/2+z
1/2+x,1/2+y,z
1/2-x,1/2-y,z
1/2+x,1/2-y,1/2-z
1/2-x,1/2+y,1/2-z
1/2-x,1/2-y,-z
1/2+x,1/2+y,-z
1/2-x,1/2+y,1/2+z
1/2+x,1/2-y,1/2+z
loop_
_atom_site_type_symbol
_atom_site_label
_atom_site_fract_x
_atom_site_fract_y
_atom_site_fract_z
Si Si1 0.705405 0.604072 0.157677
Si Si2 0.889579 0.303424 0.111602
Si Si3 0.000000 0.000000 0.250000
Si Si4 0.753348 0.442924 0.500000
Si Si5 0.250000 0.750000 0.372463
Si Si6 0.000000 0.634650 0.250000
Si Si7 0.648835 0.085538 0.000000
O O1 0.595528 0.551152 0.198736
O O2 0.692518 0.589703 0.073391
O O3 0.680163 0.683678 0.166856
O O4 0.887444 0.593786 0.194572
O O5 0.750000 0.250000 0.094922
O O6 0.834517 0.368845 0.069447
O O7 0.079554 0.279405 0.091097
O O8 0.895161 0.319607 0.195864
O O9 0.730719 0.522326 0.500000
O O10 0.953868 0.434175 0.500000
#
# Coordination Sequence:
#
# PCOD9499183 Si02
#       7
#    16  16   4   8   8   8   8
#     4  11  27  47  75 106 148 194 249 312 382 449
#     4  11  25  43  73 107 146 191 248 311 377 447
#     4  12  32  46  76 118 148 194 252 324 380 462
#     4  11  24  47  70  98 145 198 251 299 371 464
#     4  10  24  47  72 108 148 195 246 312 380 451
#     4  10  24  42  70 107 138 197 238 310 378 446
#     4  11  23  44  68 109 135 200 247 301 369 460
#
# _framework density 22.643591000000001
#
# number of rings (size 3 to 8) (size 9 to 14) (size 15 to 20)
#    0.000    1.176    4.706    0.353   13.176    3.765 
#    0.000    0.000    0.000    0.000    0.000    0.000 
#    0.000    0.000    0.000    0.000    0.000    0.000 
#
# Total GULP energy -189646.028805 kJ/mol
# GULP energy per Si atom -5577.824377 kJ/mol
# Density = 2.259205 g / cm^3
# Si number density = 22.643591 Si / 1000 Ang^3
#
#
#
# Elastic Constant Matrix: (Units=GPa)
#
#
# Indices 1 2 3 4 5 6 
#
# 1 57.8336 40.9959 19.0316 0.0000 0.0000 0.0000
# 2 40.9959 183.6864 67.2899 0.0000 0.0000 0.0000
# 3 19.0316 67.2899 165.1089 0.0000 0.0000 0.0000
# 4 0.0000 0.0000 0.0000 21.6395 0.0000 0.0000
# 5 0.0000 0.0000 0.0000 0.0000 14.4584 0.0000
# 6 0.0000 0.0000 0.0000 0.0000 0.0000 27.3123
#
#
#
# Elastic Compliance Matrix: (Units=1/GPa)
#
#
# Indices 1 2 3 4 5 6 
#
# 1 0.020589 -0.004380 -0.000588 0.000000 0.000000 0.000000
# 2 -0.004380 0.007331 -0.002483 0.000000 0.000000 0.000000
# 3 -0.000588 -0.002483 0.007136 0.000000 0.000000 0.000000
# 4 0.000000 0.000000 0.000000 0.046212 0.000000 0.000000
# 5 0.000000 0.000000 0.000000 0.000000 0.069164 0.000000
# 6 0.000000 0.000000 0.000000 0.000000 0.000000 0.036614
#
#
# Mechanical properties :
#
#
# Convention : Reuss Voigt Hill
#
# Bulk Modulus (GPa) = 49.61614 73.47375 61.54494
# Shear Modulus (GPa) = 23.96178 31.30283 27.63230
#
# Velocity S-wave (km/s) = 3.25655 3.72212 3.49709
# Velocity P-wave (km/s) = 6.00829 7.14077 6.59887
#
# Compressibility (1/GPa) = 0.02015473
#
# Stress axis : x y z
#
# Youngs Moduli (GPa) = 48.56934 136.40501 140.12767
#
# Poissons Ratio (x) = 0.59740 0.08244
# Poissons Ratio (y) = 0.21272 0.34793
# Poissons Ratio (z) = 0.02857 0.33869
#
# Static dielectric constant tensor:
#      x y z
#    x 1.902190 0.000000 0.000000 
#    y 0.000000 1.896710 0.000000 
#    z 0.000000 0.000000 2.095880 
# 
# From -- ./inp_files/46812.got.cif
#   From: 2010.05.17/outbox.cif.g08.bks.cpg/sg66_24_cif.got.tgz:46812.got - 2010.06.03 17:51:23.
