data_PCOD9499036
_publ_section_title
;
Structure prediction by ZEFSAII (Michael W. Deem and Ramdas Pophale) SiO2 
 PCOD9499036
Probable space group: C C C M
;
_chemical_formula_sum "Si O2"
_cell_formula_units_Z 112
_cell_length_a 25.183163
_cell_length_b 14.226410
_cell_length_c 14.989484
_cell_angle_alpha 90.000000
_cell_angle_beta 90.000000
_cell_angle_gamma 90.000000
_cell_volume 5370.222504
_symmetry_space_group_name_H-M "C C C M"
_symmetry_group_IT_number 66
_symmetry_cell_setting 'orthorhombic'
loop_
_space_group_symop_operation_xyz
x,y,z
-x,-y,z
x,-y,1/2-z
-x,y,1/2-z
-x,-y,-z
x,y,-z
-x,y,1/2+z
x,-y,1/2+z
1/2+x,1/2+y,z
1/2-x,1/2-y,z
1/2+x,1/2-y,1/2-z
1/2-x,1/2+y,1/2-z
1/2-x,1/2-y,-z
1/2+x,1/2+y,-z
1/2-x,1/2+y,1/2+z
1/2+x,1/2-y,1/2+z
loop_
_atom_site_type_symbol
_atom_site_label
_atom_site_fract_x
_atom_site_fract_y
_atom_site_fract_z
Si Si1 0.840806 0.482761 0.605945
Si Si2 0.602491 0.430672 0.100384
Si Si3 0.456678 0.925545 0.894072
Si Si4 0.176715 0.160766 0.741545
Si Si5 0.013402 0.781895 0.850079
Si Si6 0.596168 0.646374 0.098345
Si Si7 0.702055 0.131486 0.763590
O O1 0.831258 0.465101 0.500000
O O2 0.899629 0.526120 0.615781
O O3 0.832014 0.397911 0.676079
O O4 0.804293 0.561345 0.653291
O O5 0.647907 0.406759 0.171364
O O6 0.556084 0.354283 0.111406
O O7 0.580869 0.536470 0.112101
O O8 0.623895 0.424123 0.000000
O O9 0.463377 0.823312 0.851084
O O10 0.500000 0.000000 0.861191
O O11 0.465665 0.910206 0.000000
O O12 0.138671 0.167990 0.826463
O O13 0.236347 0.130396 0.764484
O O14 0.183619 0.266214 0.704746
O O15 0.000000 0.811312 0.750000
O O16 0.956539 0.790691 0.897388
O O17 0.620014 0.655509 0.000000
#
# Coordination Sequence:
#
# PCOD9499036 Si02
#       7
#    16  16  16  16  16  16  16
#     4  10  23  43  69  96 132 176 222 276 335 396
#     4  11  24  42  66  95 132 173 220 274 334 401
#     4  10  23  41  64  96 132 172 220 271 330 404
#     4  11  24  44  65  96 131 172 224 281 333 401
#     4  12  24  39  65  96 134 175 214 273 332 400
#     4  11  25  41  66  96 130 173 219 270 335 402
#     4  10  25  43  66  94 132 173 223 281 336 389
#
# _framework density 20.855747999999998
#
# number of rings (size 3 to 8) (size 9 to 14) (size 15 to 20)
#    0.000    1.286    1.429    3.000    6.000    6.571 
#    0.000    2.857    0.000    0.000    0.000    0.000 
#    0.000    0.000    0.000    0.000    0.000    0.000 
#
# Total GULP energy -312884.390545 kJ/mol
# GULP energy per Si atom -5587.221260 kJ/mol
# Density = 2.080828 g / cm^3
# Si number density = 20.855748 Si / 1000 Ang^3
#
#
#
# Elastic Constant Matrix: (Units=GPa)
#
#
# Indices 1 2 3 4 5 6 
#
# 1 79.9855 5.6084 14.2640 0.0000 0.0000 0.0000
# 2 5.6084 47.1542 -7.2356 0.0000 0.0000 0.0000
# 3 14.2640 -7.2356 90.0764 0.0000 0.0000 0.0000
# 4 0.0000 0.0000 0.0000 23.9207 0.0000 0.0000
# 5 0.0000 0.0000 0.0000 0.0000 123.2517 0.0000
# 6 0.0000 0.0000 0.0000 0.0000 0.0000 30.1797
#
#
#
# Elastic Compliance Matrix: (Units=1/GPa)
#
#
# Indices 1 2 3 4 5 6 
#
# 1 0.013030 -0.001890 -0.002215 0.000000 0.000000 0.000000
# 2 -0.001890 0.021746 0.002046 0.000000 0.000000 0.000000
# 3 -0.002215 0.002046 0.011617 0.000000 0.000000 0.000000
# 4 0.000000 0.000000 0.000000 0.041805 0.000000 0.000000
# 5 0.000000 0.000000 0.000000 0.000000 0.008113 0.000000
# 6 0.000000 0.000000 0.000000 0.000000 0.000000 0.033135
#
#
# Mechanical properties :
#
#
# Convention : Reuss Voigt Hill
#
# Bulk Modulus (GPa) = 23.65471 26.94328 25.29900
# Shear Modulus (GPa) = 33.86283 49.10905 41.48594
#
# Velocity S-wave (km/s) = 4.03385 4.85779 4.46487
# Velocity P-wave (km/s) = 5.75001 6.66416 6.22389
#
# Compressibility (1/GPa) = 0.04227488
#
# Stress axis : x y z
#
# Youngs Moduli (GPa) = 76.74716 45.98602 86.08209
#
# Poissons Ratio (x) = 0.08690 0.19068
# Poissons Ratio (y) = 0.14502 -0.17613
# Poissons Ratio (z) = 0.17000 -0.09409
#
# Static dielectric constant tensor:
#      x y z
#    x 1.723140 0.000000 0.000000 
#    y 0.000000 1.764580 0.000000 
#    z 0.000000 0.000000 1.726120 
# 
# From -- ./inp_files/32459.got.cif
#   From: 2010.05.17/outbox.cif.g08.bks.cpg/sg66_17_cif.got.tgz:32459.got - 2010.06.03 17:51:23.
