data_PCOD9499201
_publ_section_title
;
Structure prediction by ZEFSAII (Michael W. Deem and Ramdas Pophale) SiO2 
 PCOD9499201
Probable space group: C C C M
;
_chemical_formula_sum "Si O2"
_cell_formula_units_Z 96
_cell_length_a 13.851620
_cell_length_b 15.597193
_cell_length_c 22.526419
_cell_angle_alpha 90.000000
_cell_angle_beta 90.000000
_cell_angle_gamma 90.000000
_cell_volume 4866.751516
_symmetry_space_group_name_H-M "C C C M"
_symmetry_group_IT_number 66
_symmetry_cell_setting 'orthorhombic'
loop_
_space_group_symop_operation_xyz
x,y,z
-x,-y,z
x,-y,1/2-z
-x,y,1/2-z
-x,-y,-z
x,y,-z
-x,y,1/2+z
x,-y,1/2+z
1/2+x,1/2+y,z
1/2-x,1/2-y,z
1/2+x,1/2-y,1/2-z
1/2-x,1/2+y,1/2-z
1/2-x,1/2-y,-z
1/2+x,1/2+y,-z
1/2-x,1/2+y,1/2+z
1/2+x,1/2-y,1/2+z
loop_
_atom_site_type_symbol
_atom_site_label
_atom_site_fract_x
_atom_site_fract_y
_atom_site_fract_z
Si Si1 0.458801 0.275216 0.500000
Si Si2 0.756366 0.948681 0.691426
Si Si3 0.250000 0.750000 0.309083
Si Si4 0.320923 0.334440 0.000000
Si Si5 0.600463 0.193570 0.223516
Si Si6 0.454928 0.094273 0.000000
Si Si7 0.851838 0.198744 0.119899
Si Si8 0.795048 0.403267 0.602456
O O1 0.569808 0.304453 0.500000
O O2 0.467231 0.171072 0.500000
O O3 0.402864 0.309105 0.442686
O O4 0.672858 0.885243 0.714919
O O5 0.830803 0.888633 0.655477
O O6 0.792260 0.000000 0.750000
O O7 0.711873 0.012466 0.642339
O O8 0.341354 0.739037 0.265266
O O9 0.215908 0.673963 0.351315
O O10 0.250000 0.250000 0.000000
O O11 0.294021 0.390112 0.057370
O O12 0.500000 0.165642 0.250000
O O13 0.584012 0.240168 0.161376
O O14 0.387455 0.102032 0.941108
O O15 0.500000 0.000000 0.000000
O O16 0.750000 0.250000 0.113610
#
# Coordination Sequence:
#
# PCOD9499201 Si02
#       8
#     8  16   8   8  16   8  16  16
#     4  12  24  43  73  95 134 184 232 271 324 416
#     4  11  22  44  67  98 134 175 217 281 342 394
#     4  12  20  43  68  93 132 184 216 268 332 398
#     4  11  22  44  67  97 124 175 230 267 329 393
#     4  11  24  39  68 102 134 172 223 272 339 408
#     4  11  27  40  62 112 136 164 217 285 345 392
#     4  10  24  44  65  97 137 180 224 265 338 402
#     4  11  23  41  70  92 138 172 217 277 334 393
#
# _framework density 19.725684000000001
#
# number of rings (size 3 to 8) (size 9 to 14) (size 15 to 20)
#    0.000    1.000    6.667    0.250    9.333    1.667 
#    0.000    1.667    0.000    0.000    0.000    0.000 
#    0.000    0.000    0.000    0.000    0.000    0.000 
#
# Total GULP energy -267984.801878 kJ/mol
# GULP energy per Si atom -5583.016706 kJ/mol
# Density = 1.968079 g / cm^3
# Si number density = 19.725684 Si / 1000 Ang^3
#
#
#
# Elastic Constant Matrix: (Units=GPa)
#
#
# Indices 1 2 3 4 5 6 
#
# 1 65.7594 41.2363 44.5393 0.0000 0.0000 0.0000
# 2 41.2363 98.4380 57.3726 0.0000 0.0000 0.0000
# 3 44.5393 57.3726 167.7203 0.0000 0.0000 0.0000
# 4 0.0000 0.0000 0.0000 32.7377 0.0000 0.0000
# 5 0.0000 0.0000 0.0000 0.0000 14.3316 0.0000
# 6 0.0000 0.0000 0.0000 0.0000 0.0000 12.2544
#
#
#
# Elastic Compliance Matrix: (Units=1/GPa)
#
#
# Indices 1 2 3 4 5 6 
#
# 1 0.022049 -0.007274 -0.003367 0.000000 0.000000 0.000000
# 2 -0.007274 0.015088 -0.003230 0.000000 0.000000 0.000000
# 3 -0.003367 -0.003230 0.007961 0.000000 0.000000 0.000000
# 4 0.000000 0.000000 0.000000 0.030546 0.000000 0.000000
# 5 0.000000 0.000000 0.000000 0.000000 0.069776 0.000000
# 6 0.000000 0.000000 0.000000 0.000000 0.000000 0.081603
#
#
# Mechanical properties :
#
#
# Convention : Reuss Voigt Hill
#
# Bulk Modulus (GPa) = 57.61373 68.69047 63.15210
# Shear Modulus (GPa) = 19.19019 24.44938 21.81979
#
# Velocity S-wave (km/s) = 3.12244 3.52443 3.32951
# Velocity P-wave (km/s) = 6.50157 7.17360 6.84584
#
# Compressibility (1/GPa) = 0.01735697
#
# Stress axis : x y z
#
# Youngs Moduli (GPa) = 45.35403 66.27750 125.60953
#
# Poissons Ratio (x) = 0.48210 0.42292
# Poissons Ratio (y) = 0.32990 0.40567
# Poissons Ratio (z) = 0.15271 0.21405
#
# Static dielectric constant tensor:
#      x y z
#    x 1.670860 0.000000 0.000000 
#    y 0.000000 1.727820 0.000000 
#    z 0.000000 0.000000 1.726360 
# 
# From -- ./inp_files/49952.got.cif
#   From: 2010.05.17/outbox.cif.g08.bks.cpg/sg66_25_cif.got.tgz:49952.got - 2010.06.03 17:51:23.
