data_PCOD9499620
_publ_section_title
;
Structure prediction by ZEFSAII (Michael W. Deem and Ramdas Pophale) SiO2 
 PCOD9499620
Probable space group: C C C M
;
_chemical_formula_sum "Si O2"
_cell_formula_units_Z 48
_cell_length_a 9.716201
_cell_length_b 13.571736
_cell_length_c 16.008924
_cell_angle_alpha 90.000000
_cell_angle_beta 90.000000
_cell_angle_gamma 90.000000
_cell_volume 2111.028208
_symmetry_space_group_name_H-M "C C C M"
_symmetry_group_IT_number 66
_symmetry_cell_setting 'orthorhombic'
loop_
_space_group_symop_operation_xyz
x,y,z
-x,-y,z
x,-y,1/2-z
-x,y,1/2-z
-x,-y,-z
x,y,-z
-x,y,1/2+z
x,-y,1/2+z
1/2+x,1/2+y,z
1/2-x,1/2-y,z
1/2+x,1/2-y,1/2-z
1/2-x,1/2+y,1/2-z
1/2-x,1/2-y,-z
1/2+x,1/2+y,-z
1/2-x,1/2+y,1/2+z
1/2+x,1/2-y,1/2+z
loop_
_atom_site_type_symbol
_atom_site_label
_atom_site_fract_x
_atom_site_fract_y
_atom_site_fract_z
Si Si1 0.076743 0.896354 0.597073
Si Si2 0.635490 0.094422 0.686755
Si Si3 0.103781 0.281372 0.653555
O O1 0.080423 0.867010 0.500000
O O2 0.229768 0.908305 0.631580
O O3 0.989098 0.814883 0.645257
O O4 0.000000 0.000000 0.604906
O O5 0.500788 0.126585 0.631389
O O6 0.643828 0.182174 0.754166
O O7 0.634286 0.000000 0.750000
O O8 0.250000 0.250000 0.611652
#
# Coordination Sequence:
#
# PCOD9499620 Si02
#       3
#    16  16  16
#     4  11  26  46  68  99 142 188 232 288 356 417
#     4  11  23  42  69 101 135 178 235 289 343 416
#     4  11  22  39  67 100 133 175 230 286 345 413
#
# _framework density 22.737735000000001
#
# number of rings (size 3 to 8) (size 9 to 14) (size 15 to 20)
#    0.000    1.000    0.000    9.000    0.000    6.667 
#    0.000    1.667    0.000   16.000    0.000    0.000 
#    0.000    0.000    0.000    0.000    0.000    0.000 
#
# Total GULP energy -133658.781516 kJ/mol
# GULP energy per Si atom -5569.115897 kJ/mol
# Density = 2.268598 g / cm^3
# Si number density = 22.737735 Si / 1000 Ang^3
#
#
#
# Elastic Constant Matrix: (Units=GPa)
#
#
# Indices 1 2 3 4 5 6 
#
# 1 211.9987 52.7807 38.0855 0.0000 0.0000 0.0000
# 2 52.7807 122.7954 58.9396 0.0000 0.0000 0.0000
# 3 38.0855 58.9396 75.9947 0.0000 0.0000 0.0000
# 4 0.0000 0.0000 0.0000 -62.1664 0.0000 0.0000
# 5 0.0000 0.0000 0.0000 0.0000 -23.7179 0.0000
# 6 0.0000 0.0000 0.0000 0.0000 0.0000 33.5019
#
#
#
# Elastic Compliance Matrix: (Units=1/GPa)
#
#
# Indices 1 2 3 4 5 6 
#
# 1 0.005379 -0.001622 -0.001438 0.000000 0.000000 0.000000
# 2 -0.001622 0.013462 -0.009628 0.000000 0.000000 0.000000
# 3 -0.001438 -0.009628 0.021347 0.000000 0.000000 0.000000
# 4 0.000000 0.000000 0.000000 -0.016086 0.000000 0.000000
# 5 0.000000 0.000000 0.000000 0.000000 -0.042162 0.000000
# 6 0.000000 0.000000 0.000000 0.000000 0.000000 0.029849
#
#
# Mechanical properties :
#
#
# Convention : Reuss Voigt Hill
#
# Bulk Modulus (GPa) = 67.51174 78.93337 73.22256
# Shear Modulus (GPa) = 118.76023 6.92238 62.84131
#
# Velocity S-wave (km/s) = 7.23490 1.74673 5.26284
# Velocity P-wave (km/s) = 9.97736 6.23363 8.31883
#
# Compressibility (1/GPa) = 0.01481224
#
# Stress axis : x y z
#
# Youngs Moduli (GPa) = 185.90361 74.28309 46.84586
#
# Poissons Ratio (x) = 0.12048 0.06736
# Poissons Ratio (y) = 0.30152 0.45103
# Poissons Ratio (z) = 0.26731 0.71519
#
# Static dielectric constant tensor:
#      x y z
#    x 1.963550 0.000000 0.000000 
#    y 0.000000 1.907690 0.000000 
#    z 0.000000 0.000000 1.839590 
# 
# From -- ./inp_files/35624.got.cif
#   From: 2010.05.17/outbox.cif.g08.bks.cpg/sg66_18_cif.got.tgz:35624.got - 2010.06.03 17:51:23.
