data_PCOD9499792
_publ_section_title
;
Structure prediction by ZEFSAII (Michael W. Deem and Ramdas Pophale) SiO2 
 PCOD9499792
Probable space group: C C C M
;
_chemical_formula_sum "Si O2"
_cell_formula_units_Z 64
_cell_length_a 8.904722
_cell_length_b 12.786073
_cell_length_c 22.711383
_cell_angle_alpha 90.000000
_cell_angle_beta 90.000000
_cell_angle_gamma 90.000000
_cell_volume 2585.836887
_symmetry_space_group_name_H-M "C C C M"
_symmetry_group_IT_number 66
_symmetry_cell_setting 'orthorhombic'
loop_
_space_group_symop_operation_xyz
x,y,z
-x,-y,z
x,-y,1/2-z
-x,y,1/2-z
-x,-y,-z
x,y,-z
-x,y,1/2+z
x,-y,1/2+z
1/2+x,1/2+y,z
1/2-x,1/2-y,z
1/2+x,1/2-y,1/2-z
1/2-x,1/2+y,1/2-z
1/2-x,1/2-y,-z
1/2+x,1/2+y,-z
1/2-x,1/2+y,1/2+z
1/2+x,1/2-y,1/2+z
loop_
_atom_site_type_symbol
_atom_site_label
_atom_site_fract_x
_atom_site_fract_y
_atom_site_fract_z
Si Si1 0.810149 0.870599 0.435154
Si Si2 0.406006 0.104299 0.667859
Si Si3 0.832511 0.877675 0.763404
Si Si4 0.393593 0.709297 0.386633
O O1 0.784595 0.915896 0.500000
O O2 0.750000 0.750000 0.436629
O O3 0.717668 0.922139 0.382365
O O4 0.985652 0.862013 0.419635
O O5 0.311425 0.149729 0.723187
O O6 0.509763 0.193940 0.639576
O O7 0.500000 0.000000 0.682001
O O8 0.819884 0.851495 0.831637
O O9 0.000000 0.837179 0.750000
O O10 0.839780 0.000000 0.750000
O O11 0.250000 0.750000 0.422528
#
# Coordination Sequence:
#
# PCOD9499792 Si02
#       4
#    16  16  16  16
#     4   9  20  41  66  92 128 175 224 276 331 390
#     4  11  24  43  65  98 132 172 224 271 333 403
#     4  11  24  40  62  91 129 169 212 267 327 395
#     4  11  24  39  67  96 132 175 217 274 335 400
#
# _framework density 24.750208000000001
#
# number of rings (size 3 to 8) (size 9 to 14) (size 15 to 20)
#    0.000    1.500    2.500    1.500    3.500    3.500 
#    0.000    0.000    0.000   10.500    0.000    0.000 
#    0.000    1.000    0.000    0.000    0.000    0.000 
#
# Total GULP energy -179020.242087 kJ/mol
# GULP energy per Si atom -5594.382565 kJ/mol
# Density = 2.469388 g / cm^3
# Si number density = 24.750208 Si / 1000 Ang^3
#
#
#
# Elastic Constant Matrix: (Units=GPa)
#
#
# Indices 1 2 3 4 5 6 
#
# 1 182.4240 28.4246 50.4022 0.0000 0.0000 0.0000
# 2 28.4246 92.9421 11.1237 0.0000 0.0000 0.0000
# 3 50.4022 11.1237 119.6270 0.0000 0.0000 0.0000
# 4 0.0000 0.0000 0.0000 56.1580 0.0000 0.0000
# 5 0.0000 0.0000 0.0000 0.0000 -19.5027 0.0000
# 6 0.0000 0.0000 0.0000 0.0000 0.0000 41.8226
#
#
#
# Elastic Compliance Matrix: (Units=1/GPa)
#
#
# Indices 1 2 3 4 5 6 
#
# 1 0.006449 -0.001666 -0.002562 0.000000 0.000000 0.000000
# 2 -0.001666 0.011311 -0.000350 0.000000 0.000000 0.000000
# 3 -0.002562 -0.000350 0.009471 0.000000 0.000000 0.000000
# 4 0.000000 0.000000 0.000000 0.017807 0.000000 0.000000
# 5 0.000000 0.000000 0.000000 0.000000 -0.051275 0.000000
# 6 0.000000 0.000000 0.000000 0.000000 0.000000 0.023911
#
#
# Mechanical properties :
#
#
# Convention : Reuss Voigt Hill
#
# Bulk Modulus (GPa) = 55.32385 63.87713 59.60049
# Shear Modulus (GPa) = 152.18357 36.03174 94.10765
#
# Velocity S-wave (km/s) = 7.84992 3.81965 6.17297
# Velocity P-wave (km/s) = 10.22561 6.73185 8.65681
#
# Compressibility (1/GPa) = 0.01807539
#
# Stress axis : x y z
#
# Youngs Moduli (GPa) = 155.05710 88.41195 105.58051
#
# Poissons Ratio (x) = 0.14727 0.27053
# Poissons Ratio (y) = 0.25828 0.03695
# Poissons Ratio (z) = 0.39731 0.03094
#
# Static dielectric constant tensor:
#      x y z
#    x 2.023720 0.000000 0.000000 
#    y 0.000000 2.005740 0.000000 
#    z 0.000000 0.000000 1.941300 
# 
# From -- ./inp_files/54958.got.cif
#   From: 2010.05.17/outbox.cif.g08.bks.cpg/sg66_28_cif.got.tgz:54958.got - 2010.06.03 17:51:23.
