data_PCOD9499907
_publ_section_title
;
Structure prediction by ZEFSAII (Michael W. Deem and Ramdas Pophale) SiO2 
 PCOD9499907
Probable space group: C C C M
;
_chemical_formula_sum "Si O2"
_cell_formula_units_Z 48
_cell_length_a 11.317547
_cell_length_b 9.121110
_cell_length_c 19.920468
_cell_angle_alpha 90.000000
_cell_angle_beta 90.000000
_cell_angle_gamma 90.000000
_cell_volume 2056.361846
_symmetry_space_group_name_H-M "C C C M"
_symmetry_group_IT_number 66
_symmetry_cell_setting 'orthorhombic'
loop_
_space_group_symop_operation_xyz
x,y,z
-x,-y,z
x,-y,1/2-z
-x,y,1/2-z
-x,-y,-z
x,y,-z
-x,y,1/2+z
x,-y,1/2+z
1/2+x,1/2+y,z
1/2-x,1/2-y,z
1/2+x,1/2-y,1/2-z
1/2-x,1/2+y,1/2-z
1/2-x,1/2-y,-z
1/2+x,1/2+y,-z
1/2-x,1/2+y,1/2+z
1/2+x,1/2-y,1/2+z
loop_
_atom_site_type_symbol
_atom_site_label
_atom_site_fract_x
_atom_site_fract_y
_atom_site_fract_z
Si Si1 0.177220 0.561467 0.822728
Si Si2 0.431077 0.641422 0.850114
Si Si3 0.118826 0.318353 0.075420
O O1 0.211119 0.500000 0.750000
O O2 0.297572 0.591011 0.864488
O O3 0.102061 0.709412 0.809942
O O4 0.113700 0.440951 0.867535
O O5 0.500000 0.500000 0.821747
O O6 0.516879 0.699884 0.908642
O O7 0.250000 0.250000 0.080484
O O8 0.104321 0.375639 0.000000
#
# Coordination Sequence:
#
# PCOD9499907 Si02
#       3
#    16  16  16
#     4  11  27  46  72 111 146 197 255 313 391 458
#     4  11  25  45  74 103 143 194 248 318 378 457
#     4  11  25  47  73 107 154 204 256 315 380 453
#
# _framework density 23.342195
#
# number of rings (size 3 to 8) (size 9 to 14) (size 15 to 20)
#    0.000    1.000    3.333    1.000    4.667   10.667 
#    0.000    3.333    0.000    0.000    0.000    0.000 
#    0.000    0.000    0.000    0.000    0.000    0.000 
#
# Total GULP energy -133885.985601 kJ/mol
# GULP energy per Si atom -5578.582733 kJ/mol
# Density = 2.328907 g / cm^3
# Si number density = 23.342195 Si / 1000 Ang^3
#
#
#
# Elastic Constant Matrix: (Units=GPa)
#
#
# Indices 1 2 3 4 5 6 
#
# 1 171.6997 49.4550 32.7170 0.0000 0.0000 0.0000
# 2 49.4550 133.4977 31.7365 0.0000 0.0000 0.0000
# 3 32.7170 31.7365 86.3288 0.0000 0.0000 0.0000
# 4 0.0000 0.0000 0.0000 15.9150 0.0000 0.0000
# 5 0.0000 0.0000 0.0000 0.0000 -20.8597 0.0000
# 6 0.0000 0.0000 0.0000 0.0000 0.0000 59.9368
#
#
#
# Elastic Compliance Matrix: (Units=1/GPa)
#
#
# Indices 1 2 3 4 5 6 
#
# 1 0.006766 -0.002079 -0.001800 0.000000 0.000000 0.000000
# 2 -0.002079 0.008847 -0.002465 0.000000 0.000000 0.000000
# 3 -0.001800 -0.002465 0.013172 0.000000 0.000000 0.000000
# 4 0.000000 0.000000 0.000000 0.062834 0.000000 0.000000
# 5 0.000000 0.000000 0.000000 0.000000 -0.047939 0.000000
# 6 0.000000 0.000000 0.000000 0.000000 0.000000 0.016684
#
#
# Mechanical properties :
#
#
# Convention : Reuss Voigt Hill
#
# Bulk Modulus (GPa) = 62.11880 68.81591 65.46735
# Shear Modulus (GPa) = 63.76344 29.50628 46.63486
#
# Velocity S-wave (km/s) = 5.23222 3.55924 4.47461
# Velocity P-wave (km/s) = 7.94805 6.81442 7.40296
#
# Compressibility (1/GPa) = 0.01609819
#
# Stress axis : x y z
#
# Youngs Moduli (GPa) = 147.80252 113.03706 75.91974
#
# Poissons Ratio (x) = 0.23495 0.13666
# Poissons Ratio (y) = 0.30721 0.18711
# Poissons Ratio (z) = 0.26604 0.27858
#
# Static dielectric constant tensor:
#      x y z
#    x 1.895110 0.000000 0.000000 
#    y 0.000000 1.937630 0.000000 
#    z 0.000000 0.000000 1.765270 
# 
# From -- ./inp_files/54720.got.cif
#   From: 2010.05.17/outbox.cif.g08.bks.cpg/sg66_28_cif.got.tgz:54720.got - 2010.06.03 17:51:23.
