data_PCOD9499751
_publ_section_title
;
Structure prediction by ZEFSAII (Michael W. Deem and Ramdas Pophale) SiO2 
 PCOD9499751
Probable space group: C C C M
;
_chemical_formula_sum "Si O2"
_cell_formula_units_Z 68
_cell_length_a 5.393245
_cell_length_b 22.146225
_cell_length_c 25.575106
_cell_angle_alpha 90.000000
_cell_angle_beta 90.000000
_cell_angle_gamma 90.000000
_cell_volume 3054.691102
_symmetry_space_group_name_H-M "C C C M"
_symmetry_group_IT_number 66
_symmetry_cell_setting 'orthorhombic'
loop_
_space_group_symop_operation_xyz
x,y,z
-x,-y,z
x,-y,1/2-z
-x,y,1/2-z
-x,-y,-z
x,y,-z
-x,y,1/2+z
x,-y,1/2+z
1/2+x,1/2+y,z
1/2-x,1/2-y,z
1/2+x,1/2-y,1/2-z
1/2-x,1/2+y,1/2-z
1/2-x,1/2-y,-z
1/2+x,1/2+y,-z
1/2-x,1/2+y,1/2+z
1/2+x,1/2-y,1/2+z
loop_
_atom_site_type_symbol
_atom_site_label
_atom_site_fract_x
_atom_site_fract_y
_atom_site_fract_z
Si Si1 0.714322 0.683598 0.415435
Si Si2 0.000000 0.500000 0.250000
Si Si3 0.287972 0.109799 0.059168
Si Si4 0.816846 0.942392 0.835676
Si Si5 0.449827 0.303226 0.811831
O O1 0.750000 0.750000 0.438504
O O2 0.460344 0.651383 0.434456
O O3 0.678116 0.693556 0.352925
O O4 0.959273 0.646170 0.429033
O O5 0.864924 0.542864 0.210410
O O6 0.271052 0.060196 0.104540
O O7 0.294151 0.086881 0.000000
O O8 0.871719 0.872694 0.821286
O O9 0.000000 0.000000 0.832573
O O10 0.500000 0.294378 0.750000
O O11 0.250000 0.250000 0.827044
#
# Coordination Sequence:
#
# PCOD9499751 Si02
#       5
#    16   4  16  16  16
#     4  11  23  43  69 106 150 197 249 303 375 451
#     4  12  26  44  82 102 144 196 248 294 370 456
#     4  11  26  45  72 106 146 194 252 311 367 435
#     4  11  27  47  73 109 149 199 249 307 373 459
#     4  11  24  41  72 110 154 194 248 313 383 447
#
# _framework density 22.260842
#
# number of rings (size 3 to 8) (size 9 to 14) (size 15 to 20)
#    0.000    0.941    0.000    6.706   11.529    3.294 
#    0.000    0.588    0.000    0.000    0.000    0.000 
#    0.000    0.000    0.000    0.000    0.000    0.000 
#
# Total GULP energy -189447.058499 kJ/mol
# GULP energy per Si atom -5571.972309 kJ/mol
# Density = 2.221018 g / cm^3
# Si number density = 22.260842 Si / 1000 Ang^3
#
#
#
# Elastic Constant Matrix: (Units=GPa)
#
#
# Indices 1 2 3 4 5 6 
#
# 1 118.0517 40.7298 41.9404 0.0000 0.0000 0.0000
# 2 40.7298 123.9826 19.2431 0.0000 0.0000 0.0000
# 3 41.9404 19.2431 199.7270 0.0000 0.0000 0.0000
# 4 0.0000 0.0000 0.0000 -40.7861 0.0000 0.0000
# 5 0.0000 0.0000 0.0000 0.0000 31.3169 0.0000
# 6 0.0000 0.0000 0.0000 0.0000 0.0000 141.3983
#
#
#
# Elastic Compliance Matrix: (Units=1/GPa)
#
#
# Indices 1 2 3 4 5 6 
#
# 1 0.010181 -0.003058 -0.001843 0.000000 0.000000 0.000000
# 2 -0.003058 0.009107 -0.000235 0.000000 0.000000 0.000000
# 3 -0.001843 -0.000235 0.005417 0.000000 0.000000 0.000000
# 4 0.000000 0.000000 0.000000 -0.024518 0.000000 0.000000
# 5 0.000000 0.000000 0.000000 0.000000 0.031932 0.000000
# 6 0.000000 0.000000 0.000000 0.000000 0.000000 0.007072
#
#
# Mechanical properties :
#
#
# Convention : Reuss Voigt Hill
#
# Bulk Modulus (GPa) = 69.29695 71.73200 70.51447
# Shear Modulus (GPa) = 92.12512 49.04235 70.58374
#
# Velocity S-wave (km/s) = 6.44005 4.69879 5.63706
# Velocity P-wave (km/s) = 9.30033 7.85694 8.60894
#
# Compressibility (1/GPa) = 0.01443065
#
# Stress axis : x y z
#
# Youngs Moduli (GPa) = 98.22288 109.80688 184.61948
#
# Poissons Ratio (x) = 0.33584 0.34029
# Poissons Ratio (y) = 0.30041 0.04342
# Poissons Ratio (z) = 0.18104 0.02582
#
# Static dielectric constant tensor:
#      x y z
#    x 1.967810 0.000000 0.000000 
#    y 0.000000 1.364570 0.000000 
#    z 0.000000 0.000000 1.826880 
# 
# From -- ./inp_files/61340.got.cif
#   From: 2010.05.17/outbox.cif.g08.bks.cpg/sg66_31_cif.got.tgz:61340.got - 2010.06.03 17:51:23.
