data_PCOD9499503
_publ_section_title
;
Structure prediction by ZEFSAII (Michael W. Deem and Ramdas Pophale) SiO2 
 PCOD9499503
Probable space group: C C C M
;
_chemical_formula_sum "Si O2"
_cell_formula_units_Z 92
_cell_length_a 8.495527
_cell_length_b 21.746771
_cell_length_c 25.439466
_cell_angle_alpha 90.000000
_cell_angle_beta 90.000000
_cell_angle_gamma 90.000000
_cell_volume 4699.948471
_symmetry_space_group_name_H-M "C C C M"
_symmetry_group_IT_number 66
_symmetry_cell_setting 'orthorhombic'
loop_
_space_group_symop_operation_xyz
x,y,z
-x,-y,z
x,-y,1/2-z
-x,y,1/2-z
-x,-y,-z
x,y,-z
-x,y,1/2+z
x,-y,1/2+z
1/2+x,1/2+y,z
1/2-x,1/2-y,z
1/2+x,1/2-y,1/2-z
1/2-x,1/2+y,1/2-z
1/2-x,1/2-y,-z
1/2+x,1/2+y,-z
1/2-x,1/2+y,1/2+z
1/2+x,1/2-y,1/2+z
loop_
_atom_site_type_symbol
_atom_site_label
_atom_site_fract_x
_atom_site_fract_y
_atom_site_fract_z
Si Si1 0.500000 0.500000 0.250000
Si Si2 0.000000 0.500000 0.841186
Si Si3 0.840066 0.686789 0.717794
Si Si4 0.549413 0.430536 0.395676
Si Si5 0.305513 0.890865 0.112066
Si Si6 0.256552 0.410855 0.801761
Si Si7 0.593963 0.093350 0.000000
Si Si8 0.242459 0.038782 0.000000
O O1 0.612857 0.542921 0.217866
O O2 0.879170 0.458894 0.875346
O O3 0.902454 0.549585 0.807766
O O4 0.750000 0.750000 0.709188
O O5 0.852979 0.651482 0.661836
O O6 0.752836 0.641912 0.758899
O O7 0.000000 0.699207 0.750000
O O8 0.500000 0.500000 0.379415
O O9 0.383206 0.395222 0.393178
O O10 0.677166 0.395673 0.359224
O O11 0.637723 0.441695 0.450459
O O12 0.372883 0.872677 0.055060
O O13 0.413729 0.070587 0.000000
O O14 0.712871 0.033940 0.000000
#
# Coordination Sequence:
#
# PCOD9499503 Si02
#       8
#     4   8  16  16  16  16   8   8
#     4  12  24  34  60  98 132 162 204 278 328 424
#     4  12  20  38  62 102 134 177 207 266 348 410
#     4  12  30  49  69  93 129 184 237 289 337 396
#     4  12  21  36  58  99 142 177 211 264 333 406
#     4  12  24  41  67 100 140 176 223 274 336 409
#     4  12  23  39  63  94 137 172 218 270 337 408
#     4  11  21  38  64  99 137 185 223 266 336 404
#     4  11  22  35  60  97 152 182 214 261 332 432
#
# _framework density 19.574683
#
# number of rings (size 3 to 8) (size 9 to 14) (size 15 to 20)
#    0.000    0.174    6.087    4.957    3.652    0.696 
#    0.000    0.435    0.000    0.000    0.000    2.435 
#    0.000    0.000    0.000    0.000    0.000    0.000 
#
# Total GULP energy -256902.686529 kJ/mol
# GULP energy per Si atom -5584.841012 kJ/mol
# Density = 1.953013 g / cm^3
# Si number density = 19.574683 Si / 1000 Ang^3
#
#
#
# Elastic Constant Matrix: (Units=GPa)
#
#
# Indices 1 2 3 4 5 6 
#
# 1 115.2686 30.9501 51.5260 0.0000 0.0000 0.0000
# 2 30.9501 74.1641 57.1172 0.0000 0.0000 0.0000
# 3 51.5260 57.1172 169.8487 0.0000 0.0000 0.0000
# 4 0.0000 0.0000 0.0000 53.3607 0.0000 0.0000
# 5 0.0000 0.0000 0.0000 0.0000 38.2234 0.0000
# 6 0.0000 0.0000 0.0000 0.0000 0.0000 29.6828
#
#
#
# Elastic Compliance Matrix: (Units=1/GPa)
#
#
# Indices 1 2 3 4 5 6 
#
# 1 0.010388 -0.002575 -0.002286 0.000000 0.000000 0.000000
# 2 -0.002575 0.018835 -0.005553 0.000000 0.000000 0.000000
# 3 -0.002286 -0.005553 0.008448 0.000000 0.000000 0.000000
# 4 0.000000 0.000000 0.000000 0.018740 0.000000 0.000000
# 5 0.000000 0.000000 0.000000 0.000000 0.026162 0.000000
# 6 0.000000 0.000000 0.000000 0.000000 0.000000 0.033690
#
#
# Mechanical properties :
#
#
# Convention : Reuss Voigt Hill
#
# Bulk Modulus (GPa) = 59.36547 70.94087 65.15317
# Shear Modulus (GPa) = 35.03750 38.89927 36.96839
#
# Velocity S-wave (km/s) = 4.23536 4.46266 4.35050
# Velocity P-wave (km/s) = 7.36961 7.92929 7.65457
#
# Compressibility (1/GPa) = 0.01684481
#
# Stress axis : x y z
#
# Youngs Moduli (GPa) = 96.26063 53.09401 118.36902
#
# Poissons Ratio (x) = 0.13672 0.27053
# Poissons Ratio (y) = 0.24788 0.65725
# Poissons Ratio (z) = 0.22001 0.29481
#
# Static dielectric constant tensor:
#      x y z
#    x 1.712680 0.000000 0.000000 
#    y 0.000000 1.648550 0.000000 
#    z 0.000000 0.000000 1.771710 
# 
# From -- ./inp_files/55549.got.cif
#   From: 2010.05.17/outbox.cif.g08.bks.cpg/sg66_28_cif.got.tgz:55549.got - 2010.06.03 17:51:23.
