data_PCOD9499706
_publ_section_title
;
Structure prediction by ZEFSAII (Michael W. Deem and Ramdas Pophale) SiO2 
 PCOD9499706
Probable space group: C C C M
;
_chemical_formula_sum "Si O2"
_cell_formula_units_Z 56
_cell_length_a 19.345081
_cell_length_b 8.641694
_cell_length_c 16.444852
_cell_angle_alpha 90.000000
_cell_angle_beta 90.000000
_cell_angle_gamma 90.000000
_cell_volume 2749.156135
_symmetry_space_group_name_H-M "C C C M"
_symmetry_group_IT_number 66
_symmetry_cell_setting 'orthorhombic'
loop_
_space_group_symop_operation_xyz
x,y,z
-x,-y,z
x,-y,1/2-z
-x,y,1/2-z
-x,-y,-z
x,y,-z
-x,y,1/2+z
x,-y,1/2+z
1/2+x,1/2+y,z
1/2-x,1/2-y,z
1/2+x,1/2-y,1/2-z
1/2-x,1/2+y,1/2-z
1/2-x,1/2-y,-z
1/2+x,1/2+y,-z
1/2-x,1/2+y,1/2+z
1/2+x,1/2-y,1/2+z
loop_
_atom_site_type_symbol
_atom_site_label
_atom_site_fract_x
_atom_site_fract_y
_atom_site_fract_z
Si Si1 0.551376 0.733228 0.000000
Si Si2 0.524535 0.821250 0.666638
Si Si3 0.661728 0.478883 0.000000
Si Si4 0.822306 0.716836 0.365046
Si Si5 0.188407 0.453794 0.000000
O O1 0.505038 0.756104 0.918834
O O2 0.590394 0.569985 0.000000
O O3 0.618494 0.850676 0.000000
O O4 0.500000 0.743279 0.750000
O O5 0.606495 0.811276 0.678451
O O6 0.500000 0.000000 0.664991
O O7 0.666926 0.364915 0.923316
O O8 0.729479 0.590662 0.000000
O O9 0.750000 0.750000 0.319889
O O10 0.815561 0.567014 0.422384
#
# Coordination Sequence:
#
# PCOD9499706 Si02
#       5
#     8  16   8  16   8
#     4  12  20  36  61  87 122 152 190 251 299 327
#     4  11  23  38  62  90 113 152 207 244 281 352
#     4   9  20  32  57  93 119 152 196 234 298 364
#     4   9  18  37  59  82 116 159 194 235 292 355
#     4   9  16  33  59  86 117 155 200 236 283 354
#
# _framework density 20.369886000000001
#
# number of rings (size 3 to 8) (size 9 to 14) (size 15 to 20)
#    0.000    2.000    2.857    4.286    0.000    2.286 
#    0.000    5.714    0.000    0.000    0.000    0.000 
#    0.000    0.000    0.000    0.000    0.000    0.000 
#
# Total GULP energy -155868.770123 kJ/mol
# GULP energy per Si atom -5566.741790 kJ/mol
# Density = 2.032352 g / cm^3
# Si number density = 20.369886 Si / 1000 Ang^3
#
#
#
# Elastic Constant Matrix: (Units=GPa)
#
#
# Indices 1 2 3 4 5 6 
#
# 1 184.2612 9.3708 37.9611 0.0000 0.0000 0.0000
# 2 9.3708 41.4245 -7.7726 0.0000 0.0000 0.0000
# 3 37.9611 -7.7726 85.3477 0.0000 0.0000 0.0000
# 4 0.0000 0.0000 0.0000 5.0668 0.0000 0.0000
# 5 0.0000 0.0000 0.0000 0.0000 463.0560 0.0000
# 6 0.0000 0.0000 0.0000 0.0000 0.0000 35.5996
#
#
#
# Elastic Compliance Matrix: (Units=1/GPa)
#
#
# Indices 1 2 3 4 5 6 
#
# 1 0.006122 -0.001929 -0.002899 0.000000 0.000000 0.000000
# 2 -0.001929 0.025168 0.003150 0.000000 0.000000 0.000000
# 3 -0.002899 0.003150 0.013293 0.000000 0.000000 0.000000
# 4 0.000000 0.000000 0.000000 0.197362 0.000000 0.000000
# 5 0.000000 0.000000 0.000000 0.000000 0.002160 0.000000
# 6 0.000000 0.000000 0.000000 0.000000 0.000000 0.028090
#
#
# Mechanical properties :
#
#
# Convention : Reuss Voigt Hill
#
# Bulk Modulus (GPa) = 24.25559 43.35023 33.80291
# Shear Modulus (GPa) = 17.28355 118.84275 68.06315
#
# Velocity S-wave (km/s) = 2.91604 7.64650 5.78672
# Velocity P-wave (km/s) = 4.82401 9.96426 7.82808
#
# Compressibility (1/GPa) = 0.04122761
#
# Stress axis : x y z
#
# Youngs Moduli (GPa) = 163.33530 39.73346 75.22776
#
# Poissons Ratio (x) = 0.07664 0.21807
# Poissons Ratio (y) = 0.31505 -0.23696
# Poissons Ratio (z) = 0.47347 -0.12516
#
# Static dielectric constant tensor:
#      x y z
#    x 1.836450 0.000000 0.000000 
#    y 0.000000 1.743440 0.000000 
#    z 0.000000 0.000000 1.716150 
# 
# From -- ./inp_files/23892.got.cif
#   From: 2010.05.17/outbox.cif.g08.bks.cpg/sg66_12_cif.got.tgz:23892.got - 2010.06.03 17:51:23.
