data_PCOD9499029
_publ_section_title
;
Structure prediction by ZEFSAII (Michael W. Deem and Ramdas Pophale) SiO2 
 PCOD9499029
Probable space group: C C C M
;
_chemical_formula_sum "Si O2"
_cell_formula_units_Z 72
_cell_length_a 23.609245
_cell_length_b 13.449070
_cell_length_c 10.725098
_cell_angle_alpha 90.000000
_cell_angle_beta 90.000000
_cell_angle_gamma 90.000000
_cell_volume 3405.458735
_symmetry_space_group_name_H-M "C C C M"
_symmetry_group_IT_number 66
_symmetry_cell_setting 'orthorhombic'
loop_
_space_group_symop_operation_xyz
x,y,z
-x,-y,z
x,-y,1/2-z
-x,y,1/2-z
-x,-y,-z
x,y,-z
-x,y,1/2+z
x,-y,1/2+z
1/2+x,1/2+y,z
1/2-x,1/2-y,z
1/2+x,1/2-y,1/2-z
1/2-x,1/2+y,1/2-z
1/2-x,1/2-y,-z
1/2+x,1/2+y,-z
1/2-x,1/2+y,1/2+z
1/2+x,1/2-y,1/2+z
loop_
_atom_site_type_symbol
_atom_site_label
_atom_site_fract_x
_atom_site_fract_y
_atom_site_fract_z
Si Si1 0.554472 0.799864 0.500000
Si Si2 0.568634 0.324939 0.767563
Si Si3 0.092232 0.508947 0.500000
Si Si4 0.147128 0.000000 0.750000
Si Si5 0.072748 0.255593 0.000000
Si Si6 0.247921 0.868665 0.642123
Si Si7 0.662361 0.000000 0.750000
O O1 0.580220 0.760488 0.629739
O O2 0.494567 0.745079 0.500000
O O3 0.547146 0.918581 0.500000
O O4 0.500000 0.340546 0.750000
O O5 0.603095 0.422089 0.812071
O O6 0.591630 0.291901 0.630743
O O7 0.081241 0.626293 0.500000
O O8 0.125853 0.490254 0.626899
O O9 0.190348 0.071385 0.826210
O O10 0.263482 0.895626 0.500000
O O11 0.250000 0.750000 0.649375
O O12 0.295862 0.907572 0.734177
#
# Coordination Sequence:
#
# PCOD9499029 Si02
#       7
#     8  16   8   8   8  16   8
#     4  10  23  41  61 100 136 166 213 276 317 376
#     4  10  23  42  65  98 135 168 217 267 320 388
#     4  12  23  38  70  92 132 172 219 262 328 384
#     4  11  25  38  69  98 127 176 213 263 330 388
#     4  10  23  41  65  94 134 178 213 254 323 400
#     4  10  24  45  66  91 130 168 217 270 325 394
#     4  11  24  42  62  98 120 164 216 271 322 380
#
# _framework density 21.142524000000002
#
# number of rings (size 3 to 8) (size 9 to 14) (size 15 to 20)
#    0.000    1.556    1.111    2.000    9.333    0.000 
#    0.000    8.333    0.000    0.000    0.000    0.000 
#    0.000    0.000    0.000    0.000    0.000    0.000 
#
# Total GULP energy -200586.229903 kJ/mol
# GULP energy per Si atom -5571.839720 kJ/mol
# Density = 2.109440 g / cm^3
# Si number density = 21.142524 Si / 1000 Ang^3
#
#
#
# Elastic Constant Matrix: (Units=GPa)
#
#
# Indices 1 2 3 4 5 6 
#
# 1 44.5398 25.9130 34.9198 0.0000 0.0000 0.0000
# 2 25.9130 102.4945 29.9360 0.0000 0.0000 0.0000
# 3 34.9198 29.9360 128.7427 0.0000 0.0000 0.0000
# 4 0.0000 0.0000 0.0000 -39.7574 0.0000 0.0000
# 5 0.0000 0.0000 0.0000 0.0000 5.2050 0.0000
# 6 0.0000 0.0000 0.0000 0.0000 0.0000 30.7805
#
#
#
# Elastic Compliance Matrix: (Units=1/GPa)
#
#
# Indices 1 2 3 4 5 6 
#
# 1 0.031492 -0.005865 -0.007178 0.000000 0.000000 0.000000
# 2 -0.005865 0.011560 -0.001097 0.000000 0.000000 0.000000
# 3 -0.007178 -0.001097 0.009969 0.000000 0.000000 0.000000
# 4 0.000000 0.000000 0.000000 -0.025153 0.000000 0.000000
# 5 0.000000 0.000000 0.000000 0.000000 0.192123 0.000000
# 6 0.000000 0.000000 0.000000 0.000000 0.000000 0.032488
#
#
# Mechanical properties :
#
#
# Convention : Reuss Voigt Hill
#
# Bulk Modulus (GPa) = 40.41957 50.81274 45.61616
# Shear Modulus (GPa) = 17.30057 11.57950 14.44003
#
# Velocity S-wave (km/s) = 2.86367 2.34281 2.61623
# Velocity P-wave (km/s) = 5.48574 5.60392 5.54514
#
# Compressibility (1/GPa) = 0.02474049
#
# Stress axis : x y z
#
# Youngs Moduli (GPa) = 31.75429 86.50551 100.30656
#
# Poissons Ratio (x) = 0.50739 0.71999
# Poissons Ratio (y) = 0.18625 0.11004
# Poissons Ratio (z) = 0.22793 0.09490
#
# Static dielectric constant tensor:
#      x y z
#    x 1.803940 0.000000 0.000000 
#    y 0.000000 1.763910 0.000000 
#    z 0.000000 0.000000 1.751290 
# 
# From -- ./inp_files/20519.got.cif
#   From: 2010.05.17/outbox.cif.g08.bks.cpg/sg66_11_cif.got.tgz:20519.got - 2010.06.03 17:51:23.
