data_PCOD9499530
_publ_section_title
;
Structure prediction by ZEFSAII (Michael W. Deem and Ramdas Pophale) SiO2 
 PCOD9499530
Probable space group: C C C M
;
_chemical_formula_sum "Si O2"
_cell_formula_units_Z 104
_cell_length_a 22.548660
_cell_length_b 7.763095
_cell_length_c 30.459594
_cell_angle_alpha 90.000000
_cell_angle_beta 90.000000
_cell_angle_gamma 90.000000
_cell_volume 5331.872421
_symmetry_space_group_name_H-M "C C C M"
_symmetry_group_IT_number 66
_symmetry_cell_setting 'orthorhombic'
loop_
_space_group_symop_operation_xyz
x,y,z
-x,-y,z
x,-y,1/2-z
-x,y,1/2-z
-x,-y,-z
x,y,-z
-x,y,1/2+z
x,-y,1/2+z
1/2+x,1/2+y,z
1/2-x,1/2-y,z
1/2+x,1/2-y,1/2-z
1/2-x,1/2+y,1/2-z
1/2-x,1/2-y,-z
1/2+x,1/2+y,-z
1/2-x,1/2+y,1/2+z
1/2+x,1/2-y,1/2+z
loop_
_atom_site_type_symbol
_atom_site_label
_atom_site_fract_x
_atom_site_fract_y
_atom_site_fract_z
Si Si1 0.679899 0.951426 0.202800
Si Si2 0.551186 0.358036 0.951380
Si Si3 0.685017 0.461754 0.702497
Si Si4 0.150337 0.022675 0.892764
Si Si5 0.000000 0.500000 0.076397
Si Si6 0.765267 0.452310 0.949294
Si Si7 0.872543 0.429759 0.389370
O O1 0.685128 0.744983 0.199751
O O2 0.746779 0.024610 0.202775
O O3 0.647873 0.000238 0.157937
O O4 0.652790 0.000000 0.250000
O O5 0.500000 0.500000 0.945601
O O6 0.603158 0.401224 0.917205
O O7 0.518727 0.173778 0.948844
O O8 0.577906 0.377017 0.000000
O O9 0.657671 0.500000 0.750000
O O10 0.656782 0.531841 0.658013
O O11 0.131751 0.222594 0.892283
O O12 0.213256 0.025276 0.918175
O O13 0.940948 0.532034 0.103677
O O14 0.750000 0.250000 0.950360
O O15 0.828227 0.492950 0.926302
O O16 0.764232 0.514959 0.000000
#
# Coordination Sequence:
#
# PCOD9499530 Si02
#       7
#    16  16  16  16   8  16  16
#     4   9  18  35  57  87 124 156 201 251 308 376
#     4  11  24  43  65  91 124 170 218 263 311 372
#     4   9  18  33  59  91 121 156 197 250 312 379
#     4  11  21  41  65  91 128 160 207 260 323 376
#     4  12  25  44  65  90 124 174 222 263 309 376
#     4  11  24  39  58  90 125 159 204 262 321 378
#     4  11  23  40  62  90 125 169 208 261 312 377
#
# _framework density 19.505343
#
# number of rings (size 3 to 8) (size 9 to 14) (size 15 to 20)
#    0.000    1.538    3.077    2.077    0.000    6.769 
#    0.000    0.385    0.000    0.462    0.000    0.000 
#    0.000    0.000    0.000    0.000    0.000    0.000 
#
# Total GULP energy -290196.730946 kJ/mol
# GULP energy per Si atom -5580.706364 kJ/mol
# Density = 1.946095 g / cm^3
# Si number density = 19.505343 Si / 1000 Ang^3
#
#
#
# Elastic Constant Matrix: (Units=GPa)
#
#
# Indices 1 2 3 4 5 6 
#
# 1 108.6784 29.7393 81.3458 0.0000 0.0000 0.0000
# 2 29.7393 68.5147 25.5167 0.0000 0.0000 0.0000
# 3 81.3458 25.5167 198.0720 0.0000 0.0000 0.0000
# 4 0.0000 0.0000 0.0000 26.2861 0.0000 0.0000
# 5 0.0000 0.0000 0.0000 0.0000 28.7991 0.0000
# 6 0.0000 0.0000 0.0000 0.0000 0.0000 33.4266
#
#
#
# Elastic Compliance Matrix: (Units=1/GPa)
#
#
# Indices 1 2 3 4 5 6 
#
# 1 0.014371 -0.004243 -0.005355 0.000000 0.000000 0.000000
# 2 -0.004243 0.016584 -0.000394 0.000000 0.000000 0.000000
# 3 -0.005355 -0.000394 0.007299 0.000000 0.000000 0.000000
# 4 0.000000 0.000000 0.000000 0.038043 0.000000 0.000000
# 5 0.000000 0.000000 0.000000 0.000000 0.034723 0.000000
# 6 0.000000 0.000000 0.000000 0.000000 0.000000 0.029916
#
#
# Mechanical properties :
#
#
# Convention : Reuss Voigt Hill
#
# Bulk Modulus (GPa) = 54.73804 72.05206 63.39505
# Shear Modulus (GPa) = 29.93813 33.61325 31.77569
#
# Velocity S-wave (km/s) = 3.92199 4.15575 4.04056
# Velocity P-wave (km/s) = 6.97376 7.74899 7.37157
#
# Compressibility (1/GPa) = 0.01826883
#
# Stress axis : x y z
#
# Youngs Moduli (GPa) = 69.58381 60.29935 137.00909
#
# Poissons Ratio (x) = 0.25587 0.73374
# Poissons Ratio (y) = 0.29527 0.05394
# Poissons Ratio (z) = 0.37265 0.02374
#
# Static dielectric constant tensor:
#      x y z
#    x 1.645670 0.000000 0.000000 
#    y 0.000000 1.713570 0.000000 
#    z 0.000000 0.000000 1.717500 
# 
# From -- ./inp_files/70176.got.cif
#   From: 2010.05.17/outbox.cif.g08.bks.cpg/sg66_36_cif.got.tgz:70176.got - 2010.06.03 17:51:23.
