data_PCOD9499996
_publ_section_title
;
Structure prediction by ZEFSAII (Michael W. Deem and Ramdas Pophale) SiO2 
 PCOD9499996
Probable space group: C C C M
;
_chemical_formula_sum "Si O2"
_cell_formula_units_Z 44
_cell_length_a 25.358575
_cell_length_b 4.949368
_cell_length_c 15.093353
_cell_angle_alpha 90.000000
_cell_angle_beta 90.000000
_cell_angle_gamma 90.000000
_cell_volume 1894.350429
_symmetry_space_group_name_H-M "C C C M"
_symmetry_group_IT_number 66
_symmetry_cell_setting 'orthorhombic'
loop_
_space_group_symop_operation_xyz
x,y,z
-x,-y,z
x,-y,1/2-z
-x,y,1/2-z
-x,-y,-z
x,y,-z
-x,y,1/2+z
x,-y,1/2+z
1/2+x,1/2+y,z
1/2-x,1/2-y,z
1/2+x,1/2-y,1/2-z
1/2-x,1/2+y,1/2-z
1/2-x,1/2-y,-z
1/2+x,1/2+y,-z
1/2-x,1/2+y,1/2+z
1/2+x,1/2-y,1/2+z
loop_
_atom_site_type_symbol
_atom_site_label
_atom_site_fract_x
_atom_site_fract_y
_atom_site_fract_z
Si Si1 0.856301 0.450863 0.601768
Si Si2 0.422894 0.432169 0.348612
Si Si3 0.750000 0.750000 0.189287
Si Si4 0.000000 0.000000 0.000000
O O1 0.853892 0.540146 0.500000
O O2 0.879037 0.698726 0.657851
O O3 0.799183 0.354498 0.632845
O O4 0.896199 0.200464 0.611018
O O5 0.441483 0.500000 0.250000
O O6 0.466133 0.346296 0.420597
O O7 0.732403 0.500000 0.250000
#
# Coordination Sequence:
#
# PCOD9499996 Si02
#       4
#    16  16   8   4
#     4  12  24  47  70 106 144 188 236 294 355 428
#     4  12  26  46  74 103 144 187 236 298 360 423
#     4  12  25  42  71 106 146 192 242 287 354 439
#     4  12  26  50  72 106 140 182 254 290 372 418
#
# _framework density 23.226959999999998
#
# number of rings (size 3 to 8) (size 9 to 14) (size 15 to 20)
#    0.000    0.000    3.636    7.636    0.000    2.909 
#    0.000    9.091    0.000    0.000    0.000    0.000 
#    0.000    0.000    0.000    0.000    0.000    0.000 
#
# Total GULP energy -122786.914706 kJ/mol
# GULP energy per Si atom -5581.223396 kJ/mol
# Density = 2.317409 g / cm^3
# Si number density = 23.226960 Si / 1000 Ang^3
#
#
#
# Elastic Constant Matrix: (Units=GPa)
#
#
# Indices 1 2 3 4 5 6 
#
# 1 85.1812 14.4236 33.2573 0.0000 0.0000 0.0000
# 2 14.4236 98.2249 13.8773 0.0000 0.0000 0.0000
# 3 33.2573 13.8773 175.6425 0.0000 0.0000 0.0000
# 4 0.0000 0.0000 0.0000 10.1244 0.0000 0.0000
# 5 0.0000 0.0000 0.0000 0.0000 24.5758 0.0000
# 6 0.0000 0.0000 0.0000 0.0000 0.0000 26.5464
#
#
#
# Elastic Compliance Matrix: (Units=1/GPa)
#
#
# Indices 1 2 3 4 5 6 
#
# 1 0.012911 -0.001568 -0.002321 0.000000 0.000000 0.000000
# 2 -0.001568 0.010486 -0.000532 0.000000 0.000000 0.000000
# 3 -0.002321 -0.000532 0.006175 0.000000 0.000000 0.000000
# 4 0.000000 0.000000 0.000000 0.098772 0.000000 0.000000
# 5 0.000000 0.000000 0.000000 0.000000 0.040690 0.000000
# 6 0.000000 0.000000 0.000000 0.000000 0.000000 0.037670
#
#
# Mechanical properties :
#
#
# Convention : Reuss Voigt Hill
#
# Bulk Modulus (GPa) = 48.23623 53.57390 50.90507
# Shear Modulus (GPa) = 22.47642 32.08202 27.27922
#
# Velocity S-wave (km/s) = 3.11414 3.72054 3.43076
# Velocity P-wave (km/s) = 5.80887 6.44763 6.13657
#
# Compressibility (1/GPa) = 0.02073130
#
# Stress axis : x y z
#
# Youngs Moduli (GPa) = 77.45146 95.36457 161.94800
#
# Poissons Ratio (x) = 0.14954 0.37585
# Poissons Ratio (y) = 0.12145 0.08609
# Poissons Ratio (z) = 0.17975 0.05070
#
# Static dielectric constant tensor:
#      x y z
#    x 1.936650 0.000000 0.000000 
#    y 0.000000 1.857400 0.000000 
#    z 0.000000 0.000000 1.842750 
# 
# From -- ./inp_files/32801.got.cif
#   From: 2010.05.17/outbox.cif.g08.bks.cpg/sg66_17_cif.got.tgz:32801.got - 2010.06.03 17:51:23.
