data_PCOD9499540
_publ_section_title
;
Structure prediction by ZEFSAII (Michael W. Deem and Ramdas Pophale) SiO2 
 PCOD9499540
Probable space group: C C C M
;
_chemical_formula_sum "Si O2"
_cell_formula_units_Z 48
_cell_length_a 10.218961
_cell_length_b 11.992864
_cell_length_c 16.865129
_cell_angle_alpha 90.000000
_cell_angle_beta 90.000000
_cell_angle_gamma 90.000000
_cell_volume 2066.899299
_symmetry_space_group_name_H-M "C C C M"
_symmetry_group_IT_number 66
_symmetry_cell_setting 'orthorhombic'
loop_
_space_group_symop_operation_xyz
x,y,z
-x,-y,z
x,-y,1/2-z
-x,y,1/2-z
-x,-y,-z
x,y,-z
-x,y,1/2+z
x,-y,1/2+z
1/2+x,1/2+y,z
1/2-x,1/2-y,z
1/2+x,1/2-y,1/2-z
1/2-x,1/2+y,1/2-z
1/2-x,1/2-y,-z
1/2+x,1/2+y,-z
1/2-x,1/2+y,1/2+z
1/2+x,1/2-y,1/2+z
loop_
_atom_site_type_symbol
_atom_site_label
_atom_site_fract_x
_atom_site_fract_y
_atom_site_fract_z
Si Si1 0.302546 0.457034 0.160568
Si Si2 0.055231 0.151581 0.591362
Si Si3 0.528998 0.128166 0.656677
O O1 0.283628 0.500000 0.250000
O O2 0.322902 0.571166 0.110612
O O3 0.437544 0.391717 0.147338
O O4 0.184578 0.373568 0.140696
O O5 0.019166 0.134994 0.500000
O O6 0.056767 0.282171 0.609979
O O7 0.500000 0.145453 0.750000
O O8 0.500000 0.000000 0.637447
#
# Coordination Sequence:
#
# PCOD9499540 Si02
#       3
#    16  16  16
#     4  11  21  42  71  95 126 171 226 280 324 390
#     4  11  25  41  65 101 134 172 219 271 342 410
#     4  11  23  43  66  95 131 170 225 275 328 393
#
# _framework density 23.223192000000001
#
# number of rings (size 3 to 8) (size 9 to 14) (size 15 to 20)
#    0.000    1.000    3.333    7.000    0.000    6.000 
#    0.000    1.667    0.000    0.000    0.000    0.000 
#    0.000    0.000    0.000    0.000    0.000    0.000 
#
# Total GULP energy -134055.329567 kJ/mol
# GULP energy per Si atom -5585.638732 kJ/mol
# Density = 2.317034 g / cm^3
# Si number density = 23.223192 Si / 1000 Ang^3
#
#
#
# Elastic Constant Matrix: (Units=GPa)
#
#
# Indices 1 2 3 4 5 6 
#
# 1 83.6963 16.7118 -2.6209 0.0000 0.0000 0.0000
# 2 16.7118 142.5674 26.5239 0.0000 0.0000 0.0000
# 3 -2.6209 26.5239 37.4348 0.0000 0.0000 0.0000
# 4 0.0000 0.0000 0.0000 -730.8018 0.0000 0.0000
# 5 0.0000 0.0000 0.0000 0.0000 -6.4684 0.0000
# 6 0.0000 0.0000 0.0000 0.0000 0.0000 33.1888
#
#
#
# Elastic Compliance Matrix: (Units=1/GPa)
#
#
# Indices 1 2 3 4 5 6 
#
# 1 0.012387 -0.001858 0.002184 0.000000 0.000000 0.000000
# 2 -0.001858 0.008358 -0.006052 0.000000 0.000000 0.000000
# 3 0.002184 -0.006052 0.031154 0.000000 0.000000 0.000000
# 4 0.000000 0.000000 0.000000 -0.001368 0.000000 0.000000
# 5 0.000000 0.000000 0.000000 0.000000 -0.154598 0.000000
# 6 0.000000 0.000000 0.000000 0.000000 0.000000 0.030131
#
#
# Mechanical properties :
#
#
# Convention : Reuss Voigt Hill
#
# Bulk Modulus (GPa) = 24.72391 38.32533 31.52462
# Shear Modulus (GPa) = -102.03883 -125.94403 -113.99143
#
# Velocity S-wave (km/s) = -6.63579 -7.37223 -7.01368
# Velocity P-wave (km/s) = 6.93125 7.47847 7.21005
#
# Compressibility (1/GPa) = 0.04044667
#
# Stress axis : x y z
#
# Youngs Moduli (GPa) = 80.72707 119.64565 32.09851
#
# Poissons Ratio (x) = 0.22235 -0.07010
# Poissons Ratio (y) = 0.15002 0.19426
# Poissons Ratio (z) = -0.17631 0.72410
#
# Static dielectric constant tensor:
#      x y z
#    x 2.043060 0.000000 0.000000 
#    y 0.000000 1.946850 0.000000 
#    z 0.000000 0.000000 1.802200 
# 
# From -- ./inp_files/37600.got.cif
#   From: 2010.05.17/outbox.cif.g08.bks.cpg/sg66_19_cif.got.tgz:37600.got - 2010.06.03 17:51:23.
