data_PCOD9499420
_publ_section_title
;
Structure prediction by ZEFSAII (Michael W. Deem and Ramdas Pophale) SiO2 
 PCOD9499420
Probable space group: C C C M
;
_chemical_formula_sum "Si O2"
_cell_formula_units_Z 68
_cell_length_a 11.590090
_cell_length_b 12.579077
_cell_length_c 20.330200
_cell_angle_alpha 90.000000
_cell_angle_beta 90.000000
_cell_angle_gamma 90.000000
_cell_volume 2963.993419
_symmetry_space_group_name_H-M "C C C M"
_symmetry_group_IT_number 66
_symmetry_cell_setting 'orthorhombic'
loop_
_space_group_symop_operation_xyz
x,y,z
-x,-y,z
x,-y,1/2-z
-x,y,1/2-z
-x,-y,-z
x,y,-z
-x,y,1/2+z
x,-y,1/2+z
1/2+x,1/2+y,z
1/2-x,1/2-y,z
1/2+x,1/2-y,1/2-z
1/2-x,1/2+y,1/2-z
1/2-x,1/2-y,-z
1/2+x,1/2+y,-z
1/2-x,1/2+y,1/2+z
1/2+x,1/2-y,1/2+z
loop_
_atom_site_type_symbol
_atom_site_label
_atom_site_fract_x
_atom_site_fract_y
_atom_site_fract_z
Si Si1 0.163633 0.382072 0.253885
Si Si2 0.427600 0.651342 0.428544
Si Si3 0.586476 0.660776 0.305626
Si Si4 0.170719 0.383711 0.098020
Si Si5 0.500000 0.000000 0.500000
O O1 0.116156 0.500000 0.250000
O O2 0.288222 0.385576 0.289530
O O3 0.099863 0.288571 0.293306
O O4 0.170518 0.358092 0.176355
O O5 0.474184 0.624779 0.500000
O O6 0.525307 0.637481 0.374069
O O7 0.305450 0.594386 0.416111
O O8 0.384557 0.774084 0.428790
O O9 0.500000 0.621949 0.250000
O O10 0.095774 0.470949 0.059285
#
# Coordination Sequence:
#
# PCOD9499420 Si02
#       5
#    16  16  16  16   4
#     4  11  25  40  64  99 132 173 230 292 346 402
#     4  11  20  40  65  89 130 186 221 278 362 421
#     4  11  21  42  67  95 130 175 237 280 340 434
#     4  11  21  37  62  95 135 173 225 284 349 426
#     4  12  24  34  58 108 144 164 228 288 352 430
#
# _framework density 22.942019999999999
#
# number of rings (size 3 to 8) (size 9 to 14) (size 15 to 20)
#    0.000    0.941    7.059    2.118    3.294    0.941 
#    0.000    2.353    2.588    1.412    0.000    0.000 
#    0.000    0.000    0.000    0.000    0.000    0.000 
#
# Total GULP energy -189293.015238 kJ/mol
# GULP energy per Si atom -5567.441625 kJ/mol
# Density = 2.288980 g / cm^3
# Si number density = 22.942020 Si / 1000 Ang^3
#
#
#
# Elastic Constant Matrix: (Units=GPa)
#
#
# Indices 1 2 3 4 5 6 
#
# 1 201.9686 29.4193 101.5152 0.0000 0.0000 0.0000
# 2 29.4193 79.5521 17.6404 0.0000 0.0000 0.0000
# 3 101.5152 17.6404 229.1758 0.0000 0.0000 0.0000
# 4 0.0000 0.0000 0.0000 34.2529 0.0000 0.0000
# 5 0.0000 0.0000 0.0000 0.0000 41.8378 0.0000
# 6 0.0000 0.0000 0.0000 0.0000 0.0000 -0.0007
#
#
#
# Elastic Compliance Matrix: (Units=1/GPa)
#
#
# Indices 1 2 3 4 5 6 
#
# 1 0.006621 -0.001829 -0.002792 0.000000 0.000000 0.000000
# 2 -0.001829 0.013294 -0.000213 0.000000 0.000000 0.000000
# 3 -0.002792 -0.000213 0.005617 0.000000 0.000000 0.000000
# 4 0.000000 0.000000 0.000000 0.029195 0.000000 0.000000
# 5 0.000000 0.000000 0.000000 0.000000 0.023902 0.000000
# 6 0.000000 0.000000 0.000000 0.000000 0.000000**********
#
#
# Mechanical properties :
#
#
# Convention : Reuss Voigt Hill
#
# Bulk Modulus (GPa) = 63.03969 89.76071 76.40020
# Shear Modulus (GPa) = -0.00352 39.35944 19.67796
#
# Velocity S-wave (km/s) = -0.03921 4.14648 2.93187
# Velocity P-wave (km/s) = 5.24742 7.88253 6.69589
#
# Compressibility (1/GPa) = 0.01586302
#
# Stress axis : x y z
#
# Youngs Moduli (GPa) = 151.03208 75.22113 178.04322
#
# Poissons Ratio (x) = 0.13761 0.49711
# Poissons Ratio (y) = 0.27630 0.03791
# Poissons Ratio (z) = 0.42169 0.01602
#
# Static dielectric constant tensor:
#      x y z
#    x 1.872230 0.000000 0.000000 
#    y 0.000000 1.919420 0.000000 
#    z 0.000000 0.000000 1.895870 
# 
# From -- ./inp_files/48205.got.cif
#   From: 2010.05.17/outbox.cif.g08.bks.cpg/sg66_25_cif.got.tgz:48205.got - 2010.06.03 17:51:23.
