data_PCOD9499538
_publ_section_title
;
Structure prediction by ZEFSAII (Michael W. Deem and Ramdas Pophale) SiO2 
 PCOD9499538
Probable space group: C C C M
;
_chemical_formula_sum "Si O2"
_cell_formula_units_Z 96
_cell_length_a 11.602676
_cell_length_b 22.403301
_cell_length_c 17.422850
_cell_angle_alpha 90.000000
_cell_angle_beta 90.000000
_cell_angle_gamma 90.000000
_cell_volume 4528.865014
_symmetry_space_group_name_H-M "C C C M"
_symmetry_group_IT_number 66
_symmetry_cell_setting 'orthorhombic'
loop_
_space_group_symop_operation_xyz
x,y,z
-x,-y,z
x,-y,1/2-z
-x,y,1/2-z
-x,-y,-z
x,y,-z
-x,y,1/2+z
x,-y,1/2+z
1/2+x,1/2+y,z
1/2-x,1/2-y,z
1/2+x,1/2-y,1/2-z
1/2-x,1/2+y,1/2-z
1/2-x,1/2-y,-z
1/2+x,1/2+y,-z
1/2-x,1/2+y,1/2+z
1/2+x,1/2-y,1/2+z
loop_
_atom_site_type_symbol
_atom_site_label
_atom_site_fract_x
_atom_site_fract_y
_atom_site_fract_z
Si Si1 0.330051 0.803583 0.413147
Si Si2 0.461284 0.232311 0.666702
Si Si3 0.698200 0.592097 0.148269
Si Si4 0.729773 0.864978 0.319622
Si Si5 0.125991 0.487786 0.341127
Si Si6 0.033776 0.858884 0.908975
O O1 0.362817 0.788527 0.500000
O O2 0.250000 0.750000 0.382108
O O3 0.441118 0.813564 0.361061
O O4 0.253842 0.862055 0.411222
O O5 0.500000 0.254760 0.750000
O O6 0.340775 0.197110 0.673051
O O7 0.479374 0.288218 0.610337
O O8 0.731027 0.618687 0.232636
O O9 0.764710 0.529412 0.136311
O O10 0.562167 0.599961 0.133019
O O11 0.649662 0.918208 0.348674
O O12 0.841657 0.868866 0.372335
O O13 0.117778 0.500000 0.250000
O O14 0.000000 0.500000 0.376099
O O15 0.029080 0.868572 0.000000
#
# Coordination Sequence:
#
# PCOD9499538 Si02
#       6
#    16  16  16  16  16  16
#     4  11  22  37  62  95 130 167 212 264 325 389
#     4  12  23  39  67  98 132 171 221 271 332 395
#     4  11  21  42  68  96 128 171 225 273 329 395
#     4  11  24  41  66  99 130 172 222 274 333 399
#     4   9  20  39  69 100 129 162 213 284 338 389
#     4  12  27  43  61  91 137 181 220 273 337 399
#
# _framework density 21.197362999999999
#
# number of rings (size 3 to 8) (size 9 to 14) (size 15 to 20)
#    0.000    1.000    3.333    4.000    2.333    2.667 
#    0.000    5.000    0.000    3.500    0.000    0.000 
#    0.000    0.000    0.000    0.000    0.000    0.000 
#
# Total GULP energy -267840.559090 kJ/mol
# GULP energy per Si atom -5580.011648 kJ/mol
# Density = 2.114912 g / cm^3
# Si number density = 21.197363 Si / 1000 Ang^3
#
#
#
# Elastic Constant Matrix: (Units=GPa)
#
#
# Indices 1 2 3 4 5 6 
#
# 1 134.2751 29.1722 41.7102 0.0000 0.0000 0.0000
# 2 29.1722 76.3105 7.7872 0.0000 0.0000 0.0000
# 3 41.7102 7.7872 79.7274 0.0000 0.0000 0.0000
# 4 0.0000 0.0000 0.0000 -11.5746 0.0000 0.0000
# 5 0.0000 0.0000 0.0000 0.0000 -0.1618 0.0000
# 6 0.0000 0.0000 0.0000 0.0000 0.0000 26.7895
#
#
#
# Elastic Compliance Matrix: (Units=1/GPa)
#
#
# Indices 1 2 3 4 5 6 
#
# 1 0.009605 -0.003191 -0.004713 0.000000 0.000000 0.000000
# 2 -0.003191 0.014296 0.000273 0.000000 0.000000 0.000000
# 3 -0.004713 0.000273 0.014982 0.000000 0.000000 0.000000
# 4 0.000000 0.000000 0.000000 -0.086396 0.000000 0.000000
# 5 0.000000 0.000000 0.000000 0.000000 -6.182146 0.000000
# 6 0.000000 0.000000 0.000000 0.000000 0.000000 0.037328
#
#
# Mechanical properties :
#
#
# Convention : Reuss Voigt Hill
#
# Bulk Modulus (GPa) = 42.33552 49.73913 46.03733
# Shear Modulus (GPa) = -0.81048 17.12019 8.15486
#
# Velocity S-wave (km/s) = -0.61901 2.84501 1.96353
# Velocity P-wave (km/s) = 4.41639 5.85729 5.18712
#
# Compressibility (1/GPa) = 0.02362082
#
# Stress axis : x y z
#
# Youngs Moduli (GPa) = 104.11619 69.94830 66.74762
#
# Poissons Ratio (x) = 0.22319 0.31459
# Poissons Ratio (y) = 0.33221 -0.01822
# Poissons Ratio (z) = 0.49071 -0.01909
#
# Static dielectric constant tensor:
#      x y z
#    x 1.875990 0.000000 0.000000 
#    y 0.000000 1.857300 0.000000 
#    z 0.000000 0.000000 1.752150 
# 
# From -- ./inp_files/38887.got.cif
#   From: 2010.05.17/outbox.cif.g08.bks.cpg/sg66_20_cif.got.tgz:38887.got - 2010.06.03 17:51:23.
