data_PCOD9499094
_publ_section_title
;
Structure prediction by ZEFSAII (Michael W. Deem and Ramdas Pophale) SiO2 
 PCOD9499094
Probable space group: C C C M
;
_chemical_formula_sum "Si O2"
_cell_formula_units_Z 64
_cell_length_a 12.358932
_cell_length_b 12.852649
_cell_length_c 18.676620
_cell_angle_alpha 90.000000
_cell_angle_beta 90.000000
_cell_angle_gamma 90.000000
_cell_volume 2966.687984
_symmetry_space_group_name_H-M "C C C M"
_symmetry_group_IT_number 66
_symmetry_cell_setting 'orthorhombic'
loop_
_space_group_symop_operation_xyz
x,y,z
-x,-y,z
x,-y,1/2-z
-x,y,1/2-z
-x,-y,-z
x,y,-z
-x,y,1/2+z
x,-y,1/2+z
1/2+x,1/2+y,z
1/2-x,1/2-y,z
1/2+x,1/2-y,1/2-z
1/2-x,1/2+y,1/2-z
1/2-x,1/2-y,-z
1/2+x,1/2+y,-z
1/2-x,1/2+y,1/2+z
1/2+x,1/2-y,1/2+z
loop_
_atom_site_type_symbol
_atom_site_label
_atom_site_fract_x
_atom_site_fract_y
_atom_site_fract_z
Si Si1 0.203371 0.551161 0.321385
Si Si2 0.299483 0.142813 0.582657
Si Si3 0.949447 0.305466 0.417485
Si Si4 0.555975 0.386812 0.679580
O O1 0.153768 0.500000 0.250000
O O2 0.234626 0.456410 0.373238
O O3 0.126315 0.628648 0.364592
O O4 0.317385 0.603352 0.302543
O O5 0.264684 0.133257 0.500000
O O6 0.250000 0.250000 0.611485
O O7 0.429348 0.149374 0.584640
O O8 0.911253 0.310219 0.500000
O O9 0.955577 0.188101 0.388137
O O10 0.500000 0.500000 0.669144
O O11 0.500000 0.338942 0.750000
#
# Coordination Sequence:
#
# PCOD9499094 Si02
#       4
#    16  16  16  16
#     4  12  25  41  68 102 137 183 231 294 353 420
#     4  10  23  43  68  98 136 183 230 281 349 427
#     4  11  26  45  71 104 140 184 232 295 361 427
#     4  11  24  46  68 100 138 180 236 291 354 434
#
# _framework density 21.572879
#
# number of rings (size 3 to 8) (size 9 to 14) (size 15 to 20)
#    0.000    1.000    2.500    3.750    3.500    6.500 
#    0.000    0.000    0.000    0.000    0.000    0.000 
#    0.000    0.000    0.000    0.000    0.000    0.000 
#
# Total GULP energy -179059.409462 kJ/mol
# GULP energy per Si atom -5595.606546 kJ/mol
# Density = 2.152378 g / cm^3
# Si number density = 21.572879 Si / 1000 Ang^3
#
#
#
# Elastic Constant Matrix: (Units=GPa)
#
#
# Indices 1 2 3 4 5 6 
#
# 1 89.1627 14.8041 40.4797 0.0000 0.0000 0.0000
# 2 14.8041 62.9287 42.9757 0.0000 0.0000 0.0000
# 3 40.4797 42.9757 120.9555 0.0000 0.0000 0.0000
# 4 0.0000 0.0000 0.0000 33.6088 0.0000 0.0000
# 5 0.0000 0.0000 0.0000 0.0000 7.7781 0.0000
# 6 0.0000 0.0000 0.0000 0.0000 0.0000 32.9548
#
#
#
# Elastic Compliance Matrix: (Units=1/GPa)
#
#
# Indices 1 2 3 4 5 6 
#
# 1 0.013225 -0.000117 -0.004385 0.000000 0.000000 0.000000
# 2 -0.000117 0.020983 -0.007416 0.000000 0.000000 0.000000
# 3 -0.004385 -0.007416 0.012370 0.000000 0.000000 0.000000
# 4 0.000000 0.000000 0.000000 0.029754 0.000000 0.000000
# 5 0.000000 0.000000 0.000000 0.000000 0.128565 0.000000
# 6 0.000000 0.000000 0.000000 0.000000 0.000000 0.030345
#
#
# Mechanical properties :
#
#
# Convention : Reuss Voigt Hill
#
# Bulk Modulus (GPa) = 43.96951 52.17399 48.07175
# Shear Modulus (GPa) = 18.75053 26.52084 22.63569
#
# Velocity S-wave (km/s) = 2.95137 3.51003 3.24275
# Velocity P-wave (km/s) = 5.66041 6.37688 6.02929
#
# Compressibility (1/GPa) = 0.02274303
#
# Stress axis : x y z
#
# Youngs Moduli (GPa) = 75.61182 47.65705 80.84168
#
# Poissons Ratio (x) = 0.00558 0.35445
# Poissons Ratio (y) = 0.00885 0.59954
# Poissons Ratio (z) = 0.33152 0.35344
#
# Static dielectric constant tensor:
#      x y z
#    x 1.779860 0.000000 0.000000 
#    y 0.000000 1.783160 0.000000 
#    z 0.000000 0.000000 1.779320 
# 
# From -- ./inp_files/38011.got.cif
#   From: 2010.05.17/outbox.cif.g08.bks.cpg/sg66_20_cif.got.tgz:38011.got - 2010.06.03 17:51:23.
