data_PCOD9499195
_publ_section_title
;
Structure prediction by ZEFSAII (Michael W. Deem and Ramdas Pophale) SiO2 
 PCOD9499195
Probable space group: C C C M
;
_chemical_formula_sum "Si O2"
_cell_formula_units_Z 104
_cell_length_a 17.259749
_cell_length_b 10.001689
_cell_length_c 27.403679
_cell_angle_alpha 90.000000
_cell_angle_beta 90.000000
_cell_angle_gamma 90.000000
_cell_volume 4730.605076
_symmetry_space_group_name_H-M "C C C M"
_symmetry_group_IT_number 66
_symmetry_cell_setting 'orthorhombic'
loop_
_space_group_symop_operation_xyz
x,y,z
-x,-y,z
x,-y,1/2-z
-x,y,1/2-z
-x,-y,-z
x,y,-z
-x,y,1/2+z
x,-y,1/2+z
1/2+x,1/2+y,z
1/2-x,1/2-y,z
1/2+x,1/2-y,1/2-z
1/2-x,1/2+y,1/2-z
1/2-x,1/2-y,-z
1/2+x,1/2+y,-z
1/2-x,1/2+y,1/2+z
1/2+x,1/2-y,1/2+z
loop_
_atom_site_type_symbol
_atom_site_label
_atom_site_fract_x
_atom_site_fract_y
_atom_site_fract_z
Si Si1 0.908926 0.649017 0.741888
Si Si2 0.193930 0.859790 0.722604
Si Si3 0.465770 0.358397 0.082329
Si Si4 0.554554 0.140816 0.500000
Si Si5 0.610769 0.733781 0.635615
Si Si6 0.197970 0.040905 0.881863
Si Si7 0.663919 0.941959 0.445873
O O1 0.874357 0.500000 0.750000
O O2 0.882792 0.769658 0.777308
O O3 0.888306 0.693219 0.687147
O O4 0.000000 0.637495 0.750000
O O5 0.250000 0.750000 0.747326
O O6 0.223612 0.891951 0.668522
O O7 0.184059 0.000000 0.750000
O O8 0.500000 0.500000 0.064215
O O9 0.471614 0.245504 0.042078
O O10 0.523445 0.316850 0.125742
O O11 0.376458 0.381266 0.096853
O O12 0.591644 0.037552 0.458555
O O13 0.666256 0.605313 0.633074
O O14 0.638381 0.829772 0.591983
O O15 0.265993 0.024364 0.921229
O O16 0.687928 0.890095 0.500000
#
# Coordination Sequence:
#
# PCOD9499195 Si02
#       7
#    16  16  16   8  16  16  16
#     4  11  26  47  73 109 148 192 239 299 366 439
#     4  12  27  44  73 106 145 188 242 301 365 434
#     4  10  24  43  70  99 136 180 235 290 359 424
#     4  10  25  44  65 100 136 180 231 293 355 424
#     4  11  24  46  72 101 143 185 242 290 360 440
#     4  11  25  45  71 103 139 189 234 297 359 435
#     4  10  27  44  69  99 138 189 234 296 355 433
#
# _framework density 21.984501999999999
#
# number of rings (size 3 to 8) (size 9 to 14) (size 15 to 20)
#    0.462    0.769    1.538    2.077    8.615    5.846 
#    0.000    0.000    0.000    0.000    0.000    0.000 
#    0.000    0.000    0.000    0.000    0.000    0.000 
#
# Total GULP energy -289507.462418 kJ/mol
# GULP energy per Si atom -5567.451200 kJ/mol
# Density = 2.193446 g / cm^3
# Si number density = 21.984502 Si / 1000 Ang^3
#
#
#
# Elastic Constant Matrix: (Units=GPa)
#
#
# Indices 1 2 3 4 5 6 
#
# 1 60.2092 25.4747 9.8116 0.0000 0.0000 0.0000
# 2 25.4747 126.5716 43.9362 0.0000 0.0000 0.0000
# 3 9.8116 43.9362 122.6203 0.0000 0.0000 0.0000
# 4 0.0000 0.0000 0.0000 28.8690 0.0000 0.0000
# 5 0.0000 0.0000 0.0000 0.0000 33.0081 0.0000
# 6 0.0000 0.0000 0.0000 0.0000 0.0000 31.0744
#
#
#
# Elastic Compliance Matrix: (Units=1/GPa)
#
#
# Indices 1 2 3 4 5 6 
#
# 1 0.018158 -0.003598 -0.000164 0.000000 0.000000 0.000000
# 2 -0.003598 0.009736 -0.003201 0.000000 0.000000 0.000000
# 3 -0.000164 -0.003201 0.009315 0.000000 0.000000 0.000000
# 4 0.000000 0.000000 0.000000 0.034639 0.000000 0.000000
# 5 0.000000 0.000000 0.000000 0.000000 0.030296 0.000000
# 6 0.000000 0.000000 0.000000 0.000000 0.000000 0.032181
#
#
# Mechanical properties :
#
#
# Convention : Reuss Voigt Hill
#
# Bulk Modulus (GPa) = 42.94711 51.98292 47.46501
# Shear Modulus (GPa) = 32.04926 33.93553 32.99240
#
# Velocity S-wave (km/s) = 3.82227 3.93314 3.87810
# Velocity P-wave (km/s) = 6.24958 6.65753 6.45678
#
# Compressibility (1/GPa) = 0.02328446
#
# Stress axis : x y z
#
# Youngs Moduli (GPa) = 55.07322 102.71416 107.35192
#
# Poissons Ratio (x) = 0.36953 0.01759
# Poissons Ratio (y) = 0.19814 0.34359
# Poissons Ratio (z) = 0.00902 0.32874
#
# Static dielectric constant tensor:
#      x y z
#    x 1.914850 0.000000 0.000000 
#    y 0.000000 1.830060 0.000000 
#    z 0.000000 0.000000 1.766090 
# 
# From -- ./inp_files/65724.got.cif
#   From: 2010.05.17/outbox.cif.g08.bks.cpg/sg66_33_cif.got.tgz:65724.got - 2010.06.03 17:51:23.
