data_PCOD9499131
_publ_section_title
;
Structure prediction by ZEFSAII (Michael W. Deem and Ramdas Pophale) SiO2 
 PCOD9499131
Probable space group: C C C M
;
_chemical_formula_sum "Si O2"
_cell_formula_units_Z 52
_cell_length_a 8.093162
_cell_length_b 23.395124
_cell_length_c 13.533066
_cell_angle_alpha 90.000000
_cell_angle_beta 90.000000
_cell_angle_gamma 90.000000
_cell_volume 2562.357869
_symmetry_space_group_name_H-M "C C C M"
_symmetry_group_IT_number 66
_symmetry_cell_setting 'orthorhombic'
loop_
_space_group_symop_operation_xyz
x,y,z
-x,-y,z
x,-y,1/2-z
-x,y,1/2-z
-x,-y,-z
x,y,-z
-x,y,1/2+z
x,-y,1/2+z
1/2+x,1/2+y,z
1/2-x,1/2-y,z
1/2+x,1/2-y,1/2-z
1/2-x,1/2+y,1/2-z
1/2-x,1/2-y,-z
1/2+x,1/2+y,-z
1/2-x,1/2+y,1/2+z
1/2+x,1/2-y,1/2+z
loop_
_atom_site_type_symbol
_atom_site_label
_atom_site_fract_x
_atom_site_fract_y
_atom_site_fract_z
Si Si1 0.330374 0.194589 0.299399
Si Si2 0.328756 0.345314 0.000000
Si Si3 0.903185 0.099730 0.885842
Si Si4 0.500000 0.500000 0.750000
Si Si5 0.005008 0.278831 0.000000
O O1 0.500000 0.173383 0.250000
O O2 0.250000 0.250000 0.245003
O O3 0.196566 0.146957 0.325046
O O4 0.396087 0.217214 0.403574
O O5 0.407854 0.378937 0.906812
O O6 0.136893 0.330941 0.000000
O O7 0.410524 0.282857 0.000000
O O8 0.839101 0.094655 0.000000
O O9 0.901461 0.041875 0.823747
#
# Coordination Sequence:
#
# PCOD9499131 Si02
#       5
#    16   8  16   4   8
#     4  12  25  38  67 103 141 176 218 277 345 413
#     4   9  21  37  72  93 135 171 218 269 344 416
#     4  10  23  46  64  96 134 178 228 281 334 392
#     4  12  26  40  78  90 132 188 244 274 320 406
#     4  11  20  41  63 105 136 173 205 278 361 403
#
# _framework density 20.293807999999999
#
# number of rings (size 3 to 8) (size 9 to 14) (size 15 to 20)
#    0.923    0.308    4.615    0.923   10.769    0.000 
#    0.000    0.769    0.000    3.692    0.000    0.000 
#    0.000    0.000    0.000    0.000    0.000    0.000 
#
# Total GULP energy -145031.715352 kJ/mol
# GULP energy per Si atom -5578.142898 kJ/mol
# Density = 2.024762 g / cm^3
# Si number density = 20.293808 Si / 1000 Ang^3
#
#
#
# Elastic Constant Matrix: (Units=GPa)
#
#
# Indices 1 2 3 4 5 6 
#
# 1 91.6461 35.5983 14.8810 0.0000 0.0000 0.0000
# 2 35.5983 123.5107 29.1240 0.0000 0.0000 0.0000
# 3 14.8810 29.1240 86.8167 0.0000 0.0000 0.0000
# 4 0.0000 0.0000 0.0000 22.0469 0.0000 0.0000
# 5 0.0000 0.0000 0.0000 0.0000 29.8667 0.0000
# 6 0.0000 0.0000 0.0000 0.0000 0.0000 24.1505
#
#
#
# Elastic Compliance Matrix: (Units=1/GPa)
#
#
# Indices 1 2 3 4 5 6 
#
# 1 0.012367 -0.003328 -0.001003 0.000000 0.000000 0.000000
# 2 -0.003328 0.009687 -0.002679 0.000000 0.000000 0.000000
# 3 -0.001003 -0.002679 0.012589 0.000000 0.000000 0.000000
# 4 0.000000 0.000000 0.000000 0.045358 0.000000 0.000000
# 5 0.000000 0.000000 0.000000 0.000000 0.033482 0.000000
# 6 0.000000 0.000000 0.000000 0.000000 0.000000 0.041407
#
#
# Mechanical properties :
#
#
# Convention : Reuss Voigt Hill
#
# Bulk Modulus (GPa) = 48.49055 51.24224 49.86639
# Shear Modulus (GPa) = 28.44360 30.03748 29.24054
#
# Velocity S-wave (km/s) = 3.74784 3.85142 3.79998
# Velocity P-wave (km/s) = 6.53258 6.71438 6.62410
#
# Compressibility (1/GPa) = 0.02062258
#
# Stress axis : x y z
#
# Youngs Moduli (GPa) = 80.85957 103.22668 79.43216
#
# Poissons Ratio (x) = 0.34352 0.07971
# Poissons Ratio (y) = 0.26909 0.21283
# Poissons Ratio (z) = 0.08114 0.27658
#
# Static dielectric constant tensor:
#      x y z
#    x 1.767950 0.000000 0.000000 
#    y 0.000000 1.704870 0.000000 
#    z 0.000000 0.000000 1.725050 
# 
# From -- ./inp_files/23800.got.cif
#   From: 2010.05.17/outbox.cif.g08.bks.cpg/sg66_12_cif.got.tgz:23800.got - 2010.06.03 17:51:23.
