data_PCOD9499207
_publ_section_title
;
Structure prediction by ZEFSAII (Michael W. Deem and Ramdas Pophale) SiO2 
 PCOD9499207
Probable space group: C C C M
;
_chemical_formula_sum "Si O2"
_cell_formula_units_Z 104
_cell_length_a 24.970210
_cell_length_b 9.471682
_cell_length_c 22.060564
_cell_angle_alpha 90.000000
_cell_angle_beta 90.000000
_cell_angle_gamma 90.000000
_cell_volume 5217.541534
_symmetry_space_group_name_H-M "C C C M"
_symmetry_group_IT_number 66
_symmetry_cell_setting 'orthorhombic'
loop_
_space_group_symop_operation_xyz
x,y,z
-x,-y,z
x,-y,1/2-z
-x,y,1/2-z
-x,-y,-z
x,y,-z
-x,y,1/2+z
x,-y,1/2+z
1/2+x,1/2+y,z
1/2-x,1/2-y,z
1/2+x,1/2-y,1/2-z
1/2-x,1/2+y,1/2-z
1/2-x,1/2-y,-z
1/2+x,1/2+y,-z
1/2-x,1/2+y,1/2+z
1/2+x,1/2-y,1/2+z
loop_
_atom_site_type_symbol
_atom_site_label
_atom_site_fract_x
_atom_site_fract_y
_atom_site_fract_z
Si Si1 0.483762 0.156141 0.819691
Si Si2 0.441456 0.153965 0.500000
Si Si3 0.084832 0.255598 0.629675
Si Si4 0.750000 0.750000 0.321629
Si Si5 0.932303 0.686489 0.000000
Si Si6 0.335570 0.032348 0.678161
Si Si7 0.372740 0.757569 0.626424
Si Si8 0.342568 0.472527 0.685640
O O1 0.500000 0.154695 0.750000
O O2 0.523219 0.262816 0.853300
O O3 0.423386 0.204785 0.829987
O O4 0.500000 0.000000 0.845600
O O5 0.412685 0.205300 0.560126
O O6 0.503119 0.212570 0.500000
O O7 0.435286 0.984423 0.500000
O O8 0.108598 0.384534 0.670063
O O9 0.119670 0.122159 0.644837
O O10 0.707173 0.857413 0.348894
O O11 0.708616 0.628158 0.295946
O O12 0.900171 0.740320 0.940260
O O13 0.326423 0.000000 0.750000
O O14 0.335239 0.892055 0.638735
O O15 0.340459 0.620253 0.649471
O O16 0.369859 0.500000 0.750000
#
# Coordination Sequence:
#
# PCOD9499207 Si02
#       8
#    16   8  16   8   8  16  16  16
#     4  11  19  32  57  92 130 175 214 260 327 390
#     4  11  20  41  65  90 133 186 240 250 308 384
#     4  11  22  38  61  93 134 181 217 263 317 388
#     4  10  24  44  68  93 126 171 208 274 358 406
#     4  11  22  39  65  96 130 178 238 274 295 370
#     4  11  21  38  65  96 125 163 216 275 338 398
#     4  12  23  38  64  97 133 168 225 277 314 384
#     4  11  25  44  65 100 132 167 217 274 343 402
#
# _framework density 19.932759999999998
#
# number of rings (size 3 to 8) (size 9 to 14) (size 15 to 20)
#    0.000    0.923    4.615    4.154    0.000    1.846 
#    0.000    2.308    0.000   17.538    0.000    0.000 
#    0.000    0.000    0.000    0.000    0.000    0.000 
#
# Total GULP energy -289489.345759 kJ/mol
# GULP energy per Si atom -5567.102803 kJ/mol
# Density = 1.988739 g / cm^3
# Si number density = 19.932760 Si / 1000 Ang^3
#
#
#
# Elastic Constant Matrix: (Units=GPa)
#
#
# Indices 1 2 3 4 5 6 
#
# 1 59.2237 28.6196 15.5979 0.0000 0.0000 0.0000
# 2 28.6196 123.2547 26.9862 0.0000 0.0000 0.0000
# 3 15.5979 26.9862 108.0417 0.0000 0.0000 0.0000
# 4 0.0000 0.0000 0.0000 25.5425 0.0000 0.0000
# 5 0.0000 0.0000 0.0000 0.0000 7.3965 0.0000
# 6 0.0000 0.0000 0.0000 0.0000 0.0000 27.8334
#
#
#
# Elastic Compliance Matrix: (Units=1/GPa)
#
#
# Indices 1 2 3 4 5 6 
#
# 1 0.019333 -0.004102 -0.001766 0.000000 0.000000 0.000000
# 2 -0.004102 0.009453 -0.001769 0.000000 0.000000 0.000000
# 3 -0.001766 -0.001769 0.009953 0.000000 0.000000 0.000000
# 4 0.000000 0.000000 0.000000 0.039150 0.000000 0.000000
# 5 0.000000 0.000000 0.000000 0.000000 0.135199 0.000000
# 6 0.000000 0.000000 0.000000 0.000000 0.000000 0.035928
#
#
# Mechanical properties :
#
#
# Convention : Reuss Voigt Hill
#
# Bulk Modulus (GPa) = 42.61996 48.10306 45.36151
# Shear Modulus (GPa) = 18.37479 26.77558 22.57519
#
# Velocity S-wave (km/s) = 3.03947 3.66908 3.36901
# Velocity P-wave (km/s) = 5.80914 6.49111 6.15957
#
# Compressibility (1/GPa) = 0.02346318
#
# Stress axis : x y z
#
# Youngs Moduli (GPa) = 51.72564 105.78506 100.47699
#
# Poissons Ratio (x) = 0.43396 0.17748
# Poissons Ratio (y) = 0.21219 0.17773
# Poissons Ratio (z) = 0.09137 0.18712
#
# Static dielectric constant tensor:
#      x y z
#    x 1.774960 0.000000 0.000000 
#    y 0.000000 1.753200 0.000000 
#    z 0.000000 0.000000 1.589430 
# 
# From -- ./inp_files/53091.got.cif
#   From: 2010.05.17/outbox.cif.g08.bks.cpg/sg66_27_cif.got.tgz:53091.got - 2010.06.03 17:51:23.
