data_PCOD9499511
_publ_section_title
;
Structure prediction by ZEFSAII (Michael W. Deem and Ramdas Pophale) SiO2 
 PCOD9499511
Probable space group: C C C M
;
_chemical_formula_sum "Si O2"
_cell_formula_units_Z 120
_cell_length_a 24.136368
_cell_length_b 18.706264
_cell_length_c 14.854797
_cell_angle_alpha 90.000000
_cell_angle_beta 90.000000
_cell_angle_gamma 90.000000
_cell_volume 6706.959738
_symmetry_space_group_name_H-M "C C C M"
_symmetry_group_IT_number 66
_symmetry_cell_setting 'orthorhombic'
loop_
_space_group_symop_operation_xyz
x,y,z
-x,-y,z
x,-y,1/2-z
-x,y,1/2-z
-x,-y,-z
x,y,-z
-x,y,1/2+z
x,-y,1/2+z
1/2+x,1/2+y,z
1/2-x,1/2-y,z
1/2+x,1/2-y,1/2-z
1/2-x,1/2+y,1/2-z
1/2-x,1/2-y,-z
1/2+x,1/2+y,-z
1/2-x,1/2+y,1/2+z
1/2+x,1/2-y,1/2+z
loop_
_atom_site_type_symbol
_atom_site_label
_atom_site_fract_x
_atom_site_fract_y
_atom_site_fract_z
Si Si1 0.200266 0.693424 0.895766
Si Si2 0.942428 0.030661 0.648124
Si Si3 0.089068 0.218424 0.360320
Si Si4 0.747117 0.920820 0.265940
Si Si5 0.850317 0.928419 0.599743
Si Si6 0.714613 0.677138 0.894520
Si Si7 0.489910 0.746903 0.500000
Si Si8 0.585684 0.304363 0.653715
O O1 0.250000 0.750000 0.879021
O O2 0.142687 0.733592 0.880700
O O3 0.208471 0.629131 0.826696
O O4 0.204139 0.670830 0.000000
O O5 0.940586 0.115885 0.644709
O O6 0.939770 0.000000 0.750000
O O7 0.887759 0.998990 0.602762
O O8 0.000000 0.000000 0.609466
O O9 0.108058 0.137319 0.382480
O O10 0.038328 0.240363 0.421892
O O11 0.075885 0.221093 0.254969
O O12 0.804062 0.928217 0.323572
O O13 0.760431 0.882118 0.172071
O O14 0.724883 0.000000 0.250000
O O15 0.825701 0.919274 0.500000
O O16 0.750000 0.750000 0.883916
O O17 0.651374 0.689498 0.863821
O O18 0.715707 0.656724 0.000000
O O19 0.442092 0.743981 0.578780
#
# Coordination Sequence:
#
# PCOD9499511 Si02
#       8
#    16  16  16  16  16  16   8  16
#     4  11  21  39  65  91 119 159 207 258 322 375
#     4  11  23  35  47  71 113 172 213 238 283 336
#     4  12  22  39  59  83 118 157 210 260 303 359
#     4  12  24  38  60  91 121 157 199 253 318 374
#     4  12  22  34  52  79 115 155 210 253 289 340
#     4  11  23  42  65  86 115 163 207 251 311 374
#     4  12  26  36  55  86 112 165 206 257 304 357
#     4  12  23  40  57  78 123 161 207 265 302 349
#
# _framework density 17.891862
#
# number of rings (size 3 to 8) (size 9 to 14) (size 15 to 20)
#    0.000    0.400    6.000    4.000    2.800    2.400 
#    0.000    0.000    0.000    0.000    0.000    0.000 
#    0.000   12.800    0.000    0.000    0.000    0.000 
#
# Total GULP energy -334636.165220 kJ/mol
# GULP energy per Si atom -5577.269420 kJ/mol
# Density = 1.785114 g / cm^3
# Si number density = 17.891862 Si / 1000 Ang^3
#
#
#
# Elastic Constant Matrix: (Units=GPa)
#
#
# Indices 1 2 3 4 5 6 
#
# 1 55.2695 17.6804 15.1798 0.0000 0.0000 0.0000
# 2 17.6804 46.6465 38.1461 0.0000 0.0000 0.0000
# 3 15.1798 38.1461 159.6571 0.0000 0.0000 0.0000
# 4 0.0000 0.0000 0.0000 -0.1360 0.0000 0.0000
# 5 0.0000 0.0000 0.0000 0.0000 30.6856 0.0000
# 6 0.0000 0.0000 0.0000 0.0000 0.0000 17.6786
#
#
#
# Elastic Compliance Matrix: (Units=1/GPa)
#
#
# Indices 1 2 3 4 5 6 
#
# 1 0.020591 -0.007710 -0.000116 0.000000 0.000000 0.000000
# 2 -0.007710 0.029531 -0.006323 0.000000 0.000000 0.000000
# 3 -0.000116 -0.006323 0.007785 0.000000 0.000000 0.000000
# 4 0.000000 0.000000 0.000000 -7.355402 0.000000 0.000000
# 5 0.000000 0.000000 0.000000 0.000000 0.032589 0.000000
# 6 0.000000 0.000000 0.000000 0.000000 0.000000 0.056566
#
#
# Mechanical properties :
#
#
# Convention : Reuss Voigt Hill
#
# Bulk Modulus (GPa) = 33.77205 44.84286 39.30746
# Shear Modulus (GPa) = -0.69733 22.35011 10.82639
#
# Velocity S-wave (km/s) = -0.62498 3.53820 2.46255
# Velocity P-wave (km/s) = 4.28904 6.46603 5.48659
#
# Compressibility (1/GPa) = 0.02961028
#
# Stress axis : x y z
#
# Youngs Moduli (GPa) = 48.56403 33.86321 128.45171
#
# Poissons Ratio (x) = 0.26109 0.01485
# Poissons Ratio (y) = 0.37444 0.81214
# Poissons Ratio (z) = 0.00561 0.21410
#
# Static dielectric constant tensor:
#      x y z
#    x 1.610580 0.000000 0.000000 
#    y 0.000000 1.615460 0.000000 
#    z 0.000000 0.000000 1.645620 
# 
# From -- ./inp_files/32708.got.cif
#   From: 2010.05.17/outbox.cif.g08.bks.cpg/sg66_17_cif.got.tgz:32708.got - 2010.06.03 17:51:23.
