data_PCOD9499532
_publ_section_title
;
Structure prediction by ZEFSAII (Michael W. Deem and Ramdas Pophale) SiO2 
 PCOD9499532
Probable space group: C C C M
;
_chemical_formula_sum "Si O2"
_cell_formula_units_Z 64
_cell_length_a 14.241084
_cell_length_b 15.477455
_cell_length_c 14.430876
_cell_angle_alpha 90.000000
_cell_angle_beta 90.000000
_cell_angle_gamma 90.000000
_cell_volume 3180.792166
_symmetry_space_group_name_H-M "C C C M"
_symmetry_group_IT_number 66
_symmetry_cell_setting 'orthorhombic'
loop_
_space_group_symop_operation_xyz
x,y,z
-x,-y,z
x,-y,1/2-z
-x,y,1/2-z
-x,-y,-z
x,y,-z
-x,y,1/2+z
x,-y,1/2+z
1/2+x,1/2+y,z
1/2-x,1/2-y,z
1/2+x,1/2-y,1/2-z
1/2-x,1/2+y,1/2-z
1/2-x,1/2-y,-z
1/2+x,1/2+y,-z
1/2-x,1/2+y,1/2+z
1/2+x,1/2-y,1/2+z
loop_
_atom_site_type_symbol
_atom_site_label
_atom_site_fract_x
_atom_site_fract_y
_atom_site_fract_z
Si Si1 0.305661 0.463106 0.395154
Si Si2 0.603411 0.975208 0.141973
Si Si3 0.104920 0.883495 0.274761
Si Si4 0.860294 0.273919 0.604004
O O1 0.340434 0.449680 0.500000
O O2 0.193679 0.475589 0.398081
O O3 0.349023 0.550691 0.349417
O O4 0.334694 0.391405 0.319483
O O5 0.622129 0.873717 0.126846
O O6 0.500000 0.000000 0.106363
O O7 0.604429 0.000000 0.250000
O O8 0.098616 0.789730 0.319814
O O9 0.000000 0.910084 0.250000
O O10 0.896543 0.256424 0.500000
O O11 0.750000 0.250000 0.603485
#
# Coordination Sequence:
#
# PCOD9499532 Si02
#       4
#    16  16  16  16
#     4  11  21  41  67  94 130 170 214 269 331 390
#     4  11  23  40  69  97 130 172 214 272 331 397
#     4  11  24  40  63  96 128 169 218 273 325 389
#     4  11  22  41  69  95 128 173 223 268 323 404
#
# _framework density 20.120774000000001
#
# number of rings (size 3 to 8) (size 9 to 14) (size 15 to 20)
#    0.000    1.000    5.000    3.000    3.500    5.000 
#    0.000    0.000    0.000    2.250    0.000    0.000 
#    0.000    0.000    0.000    0.000    0.000    0.000 
#
# Total GULP energy -178681.842802 kJ/mol
# GULP energy per Si atom -5583.807588 kJ/mol
# Density = 2.007498 g / cm^3
# Si number density = 20.120774 Si / 1000 Ang^3
#
#
#
# Elastic Constant Matrix: (Units=GPa)
#
#
# Indices 1 2 3 4 5 6 
#
# 1 132.6940 39.8656 36.7132 0.0000 0.0000 0.0000
# 2 39.8656 110.6823 56.6551 0.0000 0.0000 0.0000
# 3 36.7132 56.6551 182.6500 0.0000 0.0000 0.0000
# 4 0.0000 0.0000 0.0000 -20.0356 0.0000 0.0000
# 5 0.0000 0.0000 0.0000 0.0000 -19.4817 0.0000
# 6 0.0000 0.0000 0.0000 0.0000 0.0000 20.2789
#
#
#
# Elastic Compliance Matrix: (Units=1/GPa)
#
#
# Indices 1 2 3 4 5 6 
#
# 1 0.008576 -0.002623 -0.000910 0.000000 0.000000 0.000000
# 2 -0.002623 0.011542 -0.003053 0.000000 0.000000 0.000000
# 3 -0.000910 -0.003053 0.006605 0.000000 0.000000 0.000000
# 4 0.000000 0.000000 0.000000 -0.049911 0.000000 0.000000
# 5 0.000000 0.000000 0.000000 0.000000 -0.051330 0.000000
# 6 0.000000 0.000000 0.000000 0.000000 0.000000 0.049312
#
#
# Mechanical properties :
#
#
# Convention : Reuss Voigt Hill
#
# Bulk Modulus (GPa) = 73.79618 76.94379 75.36999
# Shear Modulus (GPa) = -665.21871 15.67182 -324.77345
#
# Velocity S-wave (km/s) = -18.20249 2.79388 -12.71859
# Velocity P-wave (km/s) = 20.12506 6.98081 13.34703
#
# Compressibility (1/GPa) = 0.01355084
#
# Stress axis : x y z
#
# Youngs Moduli (GPa) = 116.60451 86.63730 151.40276
#
# Poissons Ratio (x) = 0.22725 0.13781
# Poissons Ratio (y) = 0.30585 0.46224
# Poissons Ratio (z) = 0.10613 0.26451
#
# Static dielectric constant tensor:
#      x y z
#    x 1.729530 0.000000 0.000000 
#    y 0.000000 1.728690 0.000000 
#    z 0.000000 0.000000 1.760530 
# 
# From -- ./inp_files/27725.got.cif
#   From: 2010.05.17/outbox.cif.g08.bks.cpg/sg66_14_cif.got.tgz:27725.got - 2010.06.03 17:51:23.
