data_PCOD9499874
_publ_section_title
;
Structure prediction by ZEFSAII (Michael W. Deem and Ramdas Pophale) SiO2 
 PCOD9499874
Probable space group: C C C M
;
_chemical_formula_sum "Si O2"
_cell_formula_units_Z 56
_cell_length_a 7.339269
_cell_length_b 17.461471
_cell_length_c 18.914074
_cell_angle_alpha 90.000000
_cell_angle_beta 90.000000
_cell_angle_gamma 90.000000
_cell_volume 2423.922425
_symmetry_space_group_name_H-M "C C C M"
_symmetry_group_IT_number 66
_symmetry_cell_setting 'orthorhombic'
loop_
_space_group_symop_operation_xyz
x,y,z
-x,-y,z
x,-y,1/2-z
-x,y,1/2-z
-x,-y,-z
x,y,-z
-x,y,1/2+z
x,-y,1/2+z
1/2+x,1/2+y,z
1/2-x,1/2-y,z
1/2+x,1/2-y,1/2-z
1/2-x,1/2+y,1/2-z
1/2-x,1/2-y,-z
1/2+x,1/2+y,-z
1/2-x,1/2+y,1/2+z
1/2+x,1/2-y,1/2+z
loop_
_atom_site_type_symbol
_atom_site_label
_atom_site_fract_x
_atom_site_fract_y
_atom_site_fract_z
Si Si1 0.797303 0.107050 0.500000
Si Si2 0.500000 0.628541 0.250000
Si Si3 0.226493 0.066498 0.500000
Si Si4 0.709003 0.832166 0.632085
Si Si5 0.701902 0.838057 0.154914
O O1 0.741751 0.150129 0.428402
O O2 0.011529 0.087478 0.500000
O O3 0.717770 0.021688 0.500000
O O4 0.629485 0.663092 0.310898
O O5 0.667777 0.602600 0.197883
O O6 0.291536 0.104786 0.571792
O O7 0.750000 0.750000 0.596978
O O8 0.512768 0.841816 0.667588
O O9 0.750000 0.750000 0.174581
#
# Coordination Sequence:
#
# PCOD9499874 Si02
#       5
#     8   8   8  16  16
#     4  11  24  47  70  94 131 174 222 277 325 381
#     4  12  24  42  65 104 135 176 210 264 338 382
#     4  11  24  47  70  94 131 174 222 277 325 381
#     4  12  24  41  70 100 134 170 219 270 327 387
#     4  12  24  41  70 100 134 170 219 270 327 387
#
# _framework density 23.103048000000001
#
# number of rings (size 3 to 8) (size 9 to 14) (size 15 to 20)
#    0.000    0.286    5.714    3.429    0.000    2.286 
#    0.000    2.857    0.000    3.429    0.000    0.000 
#    0.000    0.000    0.000    0.000    0.000    0.000 
#
# Total GULP energy -156082.813333 kJ/mol
# GULP energy per Si atom -5574.386190 kJ/mol
# Density = 2.305046 g / cm^3
# Si number density = 23.103048 Si / 1000 Ang^3
#
#
#
# Elastic Constant Matrix: (Units=GPa)
#
#
# Indices 1 2 3 4 5 6 
#
# 1 184.0533 5.1602 16.9033 0.0000 0.0000 0.0000
# 2 5.1602 44.0424 22.0408 0.0000 0.0000 0.0000
# 3 16.9033 22.0408 121.8900 0.0000 0.0000 0.0000
# 4 0.0000 0.0000 0.0000 1.0486 0.0000 0.0000
# 5 0.0000 0.0000 0.0000 0.0000 -12.5344 0.0000
# 6 0.0000 0.0000 0.0000 0.0000 0.0000 16.5207
#
#
#
# Elastic Compliance Matrix: (Units=1/GPa)
#
#
# Indices 1 2 3 4 5 6 
#
# 1 0.005507 -0.000289 -0.000711 0.000000 0.000000 0.000000
# 2 -0.000289 0.024980 -0.004477 0.000000 0.000000 0.000000
# 3 -0.000711 -0.004477 0.009112 0.000000 0.000000 0.000000
# 4 0.000000 0.000000 0.000000 0.953697 0.000000 0.000000
# 5 0.000000 0.000000 0.000000 0.000000 -0.079780 0.000000
# 6 0.000000 0.000000 0.000000 0.000000 0.000000 0.060530
#
#
# Mechanical properties :
#
#
# Convention : Reuss Voigt Hill
#
# Bulk Modulus (GPa) = 34.91154 48.68828 41.79991
# Shear Modulus (GPa) = 5.02741 21.39907 13.21324
#
# Velocity S-wave (km/s) = 1.47675 3.04673 2.39409
# Velocity P-wave (km/s) = 4.24874 5.78765 5.07684
#
# Compressibility (1/GPa) = 0.02864383
#
# Stress axis : x y z
#
# Youngs Moduli (GPa) = 181.59876 40.03252 109.74181
#
# Poissons Ratio (x) = 0.01158 0.07806
# Poissons Ratio (y) = 0.05252 0.49130
# Poissons Ratio (z) = 0.12918 0.17922
#
# Static dielectric constant tensor:
#      x y z
#    x 1.908850 0.000000 0.000000 
#    y 0.000000 1.878730 0.000000 
#    z 0.000000 0.000000 1.876590 
# 
# From -- ./inp_files/36121.got.cif
#   From: 2010.05.17/outbox.cif.g08.bks.cpg/sg66_19_cif.got.tgz:36121.got - 2010.06.03 17:51:23.
