data_PCOD9499815
_publ_section_title
;
Structure prediction by ZEFSAII (Michael W. Deem and Ramdas Pophale) SiO2 
 PCOD9499815
Probable space group: C C C M
;
_chemical_formula_sum "Si O2"
_cell_formula_units_Z 56
_cell_length_a 14.263077
_cell_length_b 8.415824
_cell_length_c 17.897955
_cell_angle_alpha 90.000000
_cell_angle_beta 90.000000
_cell_angle_gamma 90.000000
_cell_volume 2148.390796
_symmetry_space_group_name_H-M "C C C M"
_symmetry_group_IT_number 66
_symmetry_cell_setting 'orthorhombic'
loop_
_space_group_symop_operation_xyz
x,y,z
-x,-y,z
x,-y,1/2-z
-x,y,1/2-z
-x,-y,-z
x,y,-z
-x,y,1/2+z
x,-y,1/2+z
1/2+x,1/2+y,z
1/2-x,1/2-y,z
1/2+x,1/2-y,1/2-z
1/2-x,1/2+y,1/2-z
1/2-x,1/2-y,-z
1/2+x,1/2+y,-z
1/2-x,1/2+y,1/2+z
1/2+x,1/2-y,1/2+z
loop_
_atom_site_type_symbol
_atom_site_label
_atom_site_fract_x
_atom_site_fract_y
_atom_site_fract_z
Si Si1 0.872123 0.598249 0.087359
Si Si2 0.629915 0.000000 0.750000
Si Si3 0.149241 0.969130 0.415959
Si Si4 0.106398 0.162988 0.281861
O O1 0.909056 0.518693 0.163742
O O2 0.884207 0.788391 0.098818
O O3 0.761926 0.548770 0.090338
O O4 0.900541 0.564338 0.000000
O O5 0.661583 0.180571 0.760545
O O6 0.125171 0.006579 0.500000
O O7 0.107876 0.111772 0.367435
O O8 0.000000 0.178365 0.250000
O O9 0.149935 0.000000 0.250000
#
# Coordination Sequence:
#
# PCOD9499815 Si02
#       4
#    16   8  16  16
#     4   9  20  37  64 103 133 160 210 269 326 392
#     4  12  23  38  68  94 131 170 212 272 324 366
#     4   9  19  40  66  95 132 167 210 268 324 385
#     4  11  24  42  61  91 124 172 225 258 307 380
#
# _framework density 26.066019000000001
#
# number of rings (size 3 to 8) (size 9 to 14) (size 15 to 20)
#    0.000    2.000    2.857    2.143    2.000    2.286 
#    0.000    7.143    0.000    3.429    0.000    0.000 
#    0.000    0.000    0.000    0.000    0.000    0.000 
#
# Total GULP energy -155941.153957 kJ/mol
# GULP energy per Si atom -5569.326927 kJ/mol
# Density = 2.600669 g / cm^3
# Si number density = 26.066019 Si / 1000 Ang^3
#
#
#
# Elastic Constant Matrix: (Units=GPa)
#
#
# Indices 1 2 3 4 5 6 
#
# 1 112.3150 65.5454 52.7710 0.0000 0.0000 0.0000
# 2 65.5454 190.7471 66.2519 0.0000 0.0000 0.0000
# 3 52.7710 66.2519 242.6169 0.0000 0.0000 0.0000
# 4 0.0000 0.0000 0.0000 55.3809 0.0000 0.0000
# 5 0.0000 0.0000 0.0000 0.0000 -34.1387 0.0000
# 6 0.0000 0.0000 0.0000 0.0000 0.0000 -6.1786
#
#
#
# Elastic Compliance Matrix: (Units=1/GPa)
#
#
# Indices 1 2 3 4 5 6 
#
# 1 0.011670 -0.003456 -0.001594 0.000000 0.000000 0.000000
# 2 -0.003456 0.006815 -0.001109 0.000000 0.000000 0.000000
# 3 -0.001594 -0.001109 0.004771 0.000000 0.000000 0.000000
# 4 0.000000 0.000000 0.000000 0.018057 0.000000 0.000000
# 5 0.000000 0.000000 0.000000 0.000000 -0.029292 0.000000
# 6 0.000000 0.000000 0.000000 0.000000 0.000000 -0.161849
#
#
# Mechanical properties :
#
#
# Convention : Reuss Voigt Hill
#
# Bulk Modulus (GPa) = 91.43610 101.64619 96.54114
# Shear Modulus (GPa) = -37.35184 27.08676 -5.13254
#
# Velocity S-wave (km/s) = -3.78957 3.22710 -1.40475
# Velocity P-wave (km/s) = 4.00088 7.27777 5.87252
#
# Compressibility (1/GPa) = 0.01093660
#
# Stress axis : x y z
#
# Youngs Moduli (GPa) = 85.69224 146.72451 209.57909
#
# Poissons Ratio (x) = 0.50711 0.33416
# Poissons Ratio (y) = 0.29617 0.23250
# Poissons Ratio (z) = 0.13663 0.16277
#
# Static dielectric constant tensor:
#      x y z
#    x 2.102560 0.000000 0.000000 
#    y 0.000000 1.958860 0.000000 
#    z 0.000000 0.000000 2.207180 
# 
# From -- ./inp_files/42333.got.cif
#   From: 2010.05.17/outbox.cif.g08.bks.cpg/sg66_22_cif.got.tgz:42333.got - 2010.06.03 17:51:23.
