data_PCOD9499257
_publ_section_title
;
Structure prediction by ZEFSAII (Michael W. Deem and Ramdas Pophale) SiO2 
 PCOD9499257
Probable space group: C C C M
;
_chemical_formula_sum "Si O2"
_cell_formula_units_Z 60
_cell_length_a 21.660293
_cell_length_b 5.879491
_cell_length_c 20.998547
_cell_angle_alpha 90.000000
_cell_angle_beta 90.000000
_cell_angle_gamma 90.000000
_cell_volume 2674.196411
_symmetry_space_group_name_H-M "C C C M"
_symmetry_group_IT_number 66
_symmetry_cell_setting 'orthorhombic'
loop_
_space_group_symop_operation_xyz
x,y,z
-x,-y,z
x,-y,1/2-z
-x,y,1/2-z
-x,-y,-z
x,y,-z
-x,y,1/2+z
x,-y,1/2+z
1/2+x,1/2+y,z
1/2-x,1/2-y,z
1/2+x,1/2-y,1/2-z
1/2-x,1/2+y,1/2-z
1/2-x,1/2-y,-z
1/2+x,1/2+y,-z
1/2-x,1/2+y,1/2+z
1/2+x,1/2-y,1/2+z
loop_
_atom_site_type_symbol
_atom_site_label
_atom_site_fract_x
_atom_site_fract_y
_atom_site_fract_z
Si Si1 0.250000 0.250000 0.610707
Si Si2 0.842841 0.886136 0.070130
Si Si3 0.500000 0.000000 0.000000
Si Si4 0.042746 0.812975 0.110009
Si Si5 0.862414 0.494230 0.174315
O O1 0.279942 0.464268 0.573634
O O2 0.194204 0.335911 0.653437
O O3 0.851038 0.717536 0.130257
O O4 0.899016 0.063166 0.076716
O O5 0.846814 0.770630 0.000000
O O6 0.496657 0.804859 0.055448
O O7 0.073823 0.623235 0.153769
O O8 0.000000 0.000000 0.143560
O O9 0.861051 0.500000 0.250000
#
# Coordination Sequence:
#
# PCOD9499257 Si02
#       5
#     8  16   4  16  16
#     4  10  25  42  74 106 145 190 242 304 361 434
#     4  11  24  45  71 109 145 187 241 301 366 424
#     4  12  22  44  74 104 136 184 238 302 368 422
#     4  11  25  43  72 104 142 184 238 297 357 431
#     4  11  27  46  72 106 148 196 239 294 363 442
#
# _framework density 22.436644999999999
#
# number of rings (size 3 to 8) (size 9 to 14) (size 15 to 20)
#    0.000    1.067    1.333    3.200    9.333    6.400 
#    0.000   10.000    0.000    0.000    0.000    0.000 
#    0.000    0.000    0.000    0.000    0.000    0.000 
#
# Total GULP energy -167104.342102 kJ/mol
# GULP energy per Si atom -5570.144737 kJ/mol
# Density = 2.238558 g / cm^3
# Si number density = 22.436645 Si / 1000 Ang^3
#
#
#
# Elastic Constant Matrix: (Units=GPa)
#
#
# Indices 1 2 3 4 5 6 
#
# 1 76.0243 20.6669 20.4174 0.0000 0.0000 0.0000
# 2 20.6669 105.2762 59.7659 0.0000 0.0000 0.0000
# 3 20.4174 59.7659 182.3977 0.0000 0.0000 0.0000
# 4 0.0000 0.0000 0.0000 14.8747 0.0000 0.0000
# 5 0.0000 0.0000 0.0000 0.0000 3.8378 0.0000
# 6 0.0000 0.0000 0.0000 0.0000 0.0000 51.9915
#
#
#
# Elastic Compliance Matrix: (Units=1/GPa)
#
#
# Indices 1 2 3 4 5 6 
#
# 1 0.013994 -0.002282 -0.000819 0.000000 0.000000 0.000000
# 2 -0.002282 0.012042 -0.003690 0.000000 0.000000 0.000000
# 3 -0.000819 -0.003690 0.006783 0.000000 0.000000 0.000000
# 4 0.000000 0.000000 0.000000 0.067228 0.000000 0.000000
# 5 0.000000 0.000000 0.000000 0.000000 0.260563 0.000000
# 6 0.000000 0.000000 0.000000 0.000000 0.000000 0.019234
#
#
# Mechanical properties :
#
#
# Convention : Reuss Voigt Hill
#
# Bulk Modulus (GPa) = 51.98418 62.82209 57.40313
# Shear Modulus (GPa) = 12.50503 31.66399 22.08451
#
# Velocity S-wave (km/s) = 2.36338 3.76075 3.14077
# Velocity P-wave (km/s) = 5.53778 6.84969 6.22837
#
# Compressibility (1/GPa) = 0.01923662
#
# Stress axis : x y z
#
# Youngs Moduli (GPa) = 71.45910 83.04361 147.42021
#
# Poissons Ratio (x) = 0.18954 0.12068
# Poissons Ratio (y) = 0.16310 0.54402
# Poissons Ratio (z) = 0.05850 0.30645
#
# Static dielectric constant tensor:
#      x y z
#    x 1.866710 0.000000 0.000000 
#    y 0.000000 1.903810 0.000000 
#    z 0.000000 0.000000 1.784960 
# 
# From -- ./inp_files/52221.got.cif
#   From: 2010.05.17/outbox.cif.g08.bks.cpg/sg66_27_cif.got.tgz:52221.got - 2010.06.03 17:51:23.
