data_PCOD9499899
_publ_section_title
;
Structure prediction by ZEFSAII (Michael W. Deem and Ramdas Pophale) SiO2 
 PCOD9499899
Probable space group: C C C M
;
_chemical_formula_sum "Si O2"
_cell_formula_units_Z 56
_cell_length_a 7.730006
_cell_length_b 11.566851
_cell_length_c 28.164510
_cell_angle_alpha 90.000000
_cell_angle_beta 90.000000
_cell_angle_gamma 90.000000
_cell_volume 2518.240313
_symmetry_space_group_name_H-M "C C C M"
_symmetry_group_IT_number 66
_symmetry_cell_setting 'orthorhombic'
loop_
_space_group_symop_operation_xyz
x,y,z
-x,-y,z
x,-y,1/2-z
-x,y,1/2-z
-x,-y,-z
x,y,-z
-x,y,1/2+z
x,-y,1/2+z
1/2+x,1/2+y,z
1/2-x,1/2-y,z
1/2+x,1/2-y,1/2-z
1/2-x,1/2+y,1/2-z
1/2-x,1/2-y,-z
1/2+x,1/2+y,-z
1/2-x,1/2+y,1/2+z
1/2+x,1/2-y,1/2+z
loop_
_atom_site_type_symbol
_atom_site_label
_atom_site_fract_x
_atom_site_fract_y
_atom_site_fract_z
Si Si1 0.658771 0.085270 0.127061
Si Si2 0.000000 0.000000 0.578687
Si Si3 0.547811 0.754993 0.946629
Si Si4 0.801934 0.375587 0.234945
O O1 0.822289 0.013509 0.107862
O O2 0.578162 0.178085 0.089733
O O3 0.712262 0.131694 0.178237
O O4 0.500000 0.000000 0.135751
O O5 0.999818 0.120415 0.551293
O O6 0.750000 0.750000 0.931802
O O7 0.536990 0.806308 0.000000
O O8 0.719622 0.500000 0.250000
O O9 0.750000 0.250000 0.255668
O O10 0.000000 0.384240 0.250000
#
# Coordination Sequence:
#
# PCOD9499899 Si02
#       4
#    16   8  16  16
#     4  12  25  48  73 103 144 186 237 295 354 428
#     4  12  25  44  73 102 142 194 233 286 359 414
#     4  11  25  44  71 105 143 190 240 292 350 421
#     4  11  25  46  72 103 139 182 233 294 360 428
#
# _framework density 22.237749000000001
#
# number of rings (size 3 to 8) (size 9 to 14) (size 15 to 20)
#    0.000    0.571    5.714    3.000    0.000   10.286 
#    0.000    0.000    0.000    0.000    0.000    0.000 
#    0.000    0.000    0.000    0.000    0.000    0.000 
#
# Total GULP energy -156177.659605 kJ/mol
# GULP energy per Si atom -5577.773557 kJ/mol
# Density = 2.218714 g / cm^3
# Si number density = 22.237749 Si / 1000 Ang^3
#
#
#
# Elastic Constant Matrix: (Units=GPa)
#
#
# Indices 1 2 3 4 5 6 
#
# 1 85.6919 18.9213 12.3798 0.0000 0.0000 0.0000
# 2 18.9213 179.6476 34.6842 0.0000 0.0000 0.0000
# 3 12.3798 34.6842 106.2151 0.0000 0.0000 0.0000
# 4 0.0000 0.0000 0.0000 26.4335 0.0000 0.0000
# 5 0.0000 0.0000 0.0000 0.0000 -12.2465 0.0000
# 6 0.0000 0.0000 0.0000 0.0000 0.0000 18.0519
#
#
#
# Elastic Compliance Matrix: (Units=1/GPa)
#
#
# Indices 1 2 3 4 5 6 
#
# 1 0.012058 -0.001066 -0.001057 0.000000 0.000000 0.000000
# 2 -0.001066 0.006035 -0.001847 0.000000 0.000000 0.000000
# 3 -0.001057 -0.001847 0.010141 0.000000 0.000000 0.000000
# 4 0.000000 0.000000 0.000000 0.037831 0.000000 0.000000
# 5 0.000000 0.000000 0.000000 0.000000 -0.081656 0.000000
# 6 0.000000 0.000000 0.000000 0.000000 0.000000 0.055396
#
#
# Mechanical properties :
#
#
# Convention : Reuss Voigt Hill
#
# Bulk Modulus (GPa) = 49.27411 55.94727 52.61069
# Shear Modulus (GPa) = 91.72733 26.81905 59.27319
#
# Velocity S-wave (km/s) = 6.42947 3.47654 5.16838
# Velocity P-wave (km/s) = 8.79337 6.42872 7.70233
#
# Compressibility (1/GPa) = 0.02029463
#
# Stress axis : x y z
#
# Youngs Moduli (GPa) = 82.93376 165.69396 98.60881
#
# Poissons Ratio (x) = 0.17660 0.10426
# Poissons Ratio (y) = 0.08839 0.18209
# Poissons Ratio (z) = 0.08769 0.30596
#
# Static dielectric constant tensor:
#      x y z
#    x 1.809990 0.000000 0.000000 
#    y 0.000000 1.919240 0.000000 
#    z 0.000000 0.000000 1.866010 
# 
# From -- ./inp_files/61951.got.cif
#   From: 2010.05.17/outbox.cif.g08.bks.cpg/sg66_31_cif.got.tgz:61951.got - 2010.06.03 17:51:23.
