data_PCOD9499846
_publ_section_title
;
Structure prediction by ZEFSAII (Michael W. Deem and Ramdas Pophale) SiO2 
 PCOD9499846
Probable space group: C C C M
;
_chemical_formula_sum "Si O2"
_cell_formula_units_Z 56
_cell_length_a 5.053621
_cell_length_b 19.403756
_cell_length_c 24.066267
_cell_angle_alpha 90.000000
_cell_angle_beta 90.000000
_cell_angle_gamma 90.000000
_cell_volume 2359.919582
_symmetry_space_group_name_H-M "C C C M"
_symmetry_group_IT_number 66
_symmetry_cell_setting 'orthorhombic'
loop_
_space_group_symop_operation_xyz
x,y,z
-x,-y,z
x,-y,1/2-z
-x,y,1/2-z
-x,-y,-z
x,y,-z
-x,y,1/2+z
x,-y,1/2+z
1/2+x,1/2+y,z
1/2-x,1/2-y,z
1/2+x,1/2-y,1/2-z
1/2-x,1/2+y,1/2-z
1/2-x,1/2-y,-z
1/2+x,1/2+y,-z
1/2-x,1/2+y,1/2+z
1/2+x,1/2-y,1/2+z
loop_
_atom_site_type_symbol
_atom_site_label
_atom_site_fract_x
_atom_site_fract_y
_atom_site_fract_z
Si Si1 0.250000 0.750000 0.104943
Si Si2 0.500000 0.000000 0.165909
Si Si3 0.500000 0.127271 0.250000
Si Si4 0.750000 0.250000 0.687127
Si Si5 0.243958 0.593956 0.500000
Si Si6 0.269769 0.657946 0.000000
Si Si7 0.500000 0.500000 0.908440
O O1 0.498739 0.741011 0.146009
O O2 0.192161 0.690091 0.059672
O O3 0.519951 0.929682 0.200997
O O4 0.755285 0.017135 0.129839
O O5 0.711740 0.183453 0.273180
O O6 0.409835 0.664810 0.500000
O O7 0.379190 0.558467 0.552575
O O8 0.929086 0.591903 0.500000
#
# Coordination Sequence:
#
# PCOD9499846 Si02
#       7
#     8   8   8   8   8   8   8
#     4  11  27  44  75 110 151 198 247 301 394 446
#     4  11  28  51  80 106 152 201 254 315 380 444
#     4  11  30  52  76 113 148 198 266 317 370 448
#     4  12  27  49  77 110 151 201 249 326 372 444
#     4  11  24  43  74 109 149 188 248 306 369 470
#     4  11  24  45  70 113 149 194 244 306 365 487
#     4  11  26  45  74 112 142 197 248 309 384 444
#
# _framework density 23.729621000000002
#
# number of rings (size 3 to 8) (size 9 to 14) (size 15 to 20)
#    0.000    0.857    0.000    4.286   12.000   11.429 
#    0.000    0.000    0.000    0.000    0.000    0.000 
#    0.000    0.000    0.000    0.000    0.000    0.000 
#
# Total GULP energy -155912.331131 kJ/mol
# GULP energy per Si atom -5568.297540 kJ/mol
# Density = 2.367561 g / cm^3
# Si number density = 23.729621 Si / 1000 Ang^3
#
#
#
# Elastic Constant Matrix: (Units=GPa)
#
#
# Indices 1 2 3 4 5 6 
#
# 1 109.9905 30.8650 14.4378 0.0000 0.0000 0.0000
# 2 30.8650 125.7092 50.6581 0.0000 0.0000 0.0000
# 3 14.4378 50.6581 77.0697 0.0000 0.0000 0.0000
# 4 0.0000 0.0000 0.0000 -268.6753 0.0000 0.0000
# 5 0.0000 0.0000 0.0000 0.0000 -9.8503 0.0000
# 6 0.0000 0.0000 0.0000 0.0000 0.0000 27.1002
#
#
#
# Elastic Compliance Matrix: (Units=1/GPa)
#
#
# Indices 1 2 3 4 5 6 
#
# 1 0.009771 -0.002260 -0.000345 0.000000 0.000000 0.000000
# 2 -0.002260 0.011344 -0.007033 0.000000 0.000000 0.000000
# 3 -0.000345 -0.007033 0.017663 0.000000 0.000000 0.000000
# 4 0.000000 0.000000 0.000000 -0.003722 0.000000 0.000000
# 5 0.000000 0.000000 0.000000 0.000000 -0.101520 0.000000
# 6 0.000000 0.000000 0.000000 0.000000 0.000000 0.036900
#
#
# Mechanical properties :
#
#
# Convention : Reuss Voigt Hill
#
# Bulk Modulus (GPa) = 51.27734 56.07678 53.67706
# Shear Modulus (GPa) = -1320.16140 -35.83117 -677.99628
#
# Velocity S-wave (km/s) = -23.61234 -3.89006 -16.92151
# Velocity P-wave (km/s) = 26.86511 1.87247 18.95030
#
# Compressibility (1/GPa) = 0.01950179
#
# Stress axis : x y z
#
# Youngs Moduli (GPa) = 102.34166 88.15291 56.61659
#
# Poissons Ratio (x) = 0.19923 0.01953
# Poissons Ratio (y) = 0.23130 0.39818
# Poissons Ratio (z) = 0.03530 0.61998
#
# Static dielectric constant tensor:
#      x y z
#    x 1.943800 0.000000 0.000000 
#    y 0.000000 2.370260 0.000000 
#    z 0.000000 0.000000 1.940660 
# 
# From -- ./inp_files/53950.got.cif
#   From: 2010.05.17/outbox.cif.g08.bks.cpg/sg66_27_cif.got.tgz:53950.got - 2010.06.03 17:51:23.
