data_PCOD9499167
_publ_section_title
;
Structure prediction by ZEFSAII (Michael W. Deem and Ramdas Pophale) SiO2 
 PCOD9499167
Probable space group: C C C M
;
_chemical_formula_sum "Si O2"
_cell_formula_units_Z 60
_cell_length_a 14.998845
_cell_length_b 13.259244
_cell_length_c 15.923225
_cell_angle_alpha 90.000000
_cell_angle_beta 90.000000
_cell_angle_gamma 90.000000
_cell_volume 3166.705028
_symmetry_space_group_name_H-M "C C C M"
_symmetry_group_IT_number 66
_symmetry_cell_setting 'orthorhombic'
loop_
_space_group_symop_operation_xyz
x,y,z
-x,-y,z
x,-y,1/2-z
-x,y,1/2-z
-x,-y,-z
x,y,-z
-x,y,1/2+z
x,-y,1/2+z
1/2+x,1/2+y,z
1/2-x,1/2-y,z
1/2+x,1/2-y,1/2-z
1/2-x,1/2+y,1/2-z
1/2-x,1/2-y,-z
1/2+x,1/2+y,-z
1/2-x,1/2+y,1/2+z
1/2+x,1/2-y,1/2+z
loop_
_atom_site_type_symbol
_atom_site_label
_atom_site_fract_x
_atom_site_fract_y
_atom_site_fract_z
Si Si1 0.657286 0.869359 0.681439
Si Si2 0.947854 0.103304 0.000000
Si Si3 0.073607 0.154378 0.677735
Si Si4 0.000000 0.500000 0.250000
Si Si5 0.240734 0.371019 0.500000
Si Si6 0.699061 0.500000 0.250000
O O1 0.637914 0.750688 0.686821
O O2 0.692860 0.896328 0.587981
O O3 0.728643 0.908647 0.751066
O O4 0.565269 0.928113 0.697163
O O5 0.968765 0.161173 0.085784
O O6 0.841073 0.088124 0.000000
O O7 0.000000 0.000000 0.000000
O O8 0.129163 0.049674 0.684558
O O9 0.000000 0.155750 0.750000
O O10 0.250000 0.250000 0.500000
#
# Coordination Sequence:
#
# PCOD9499167 Si02
#       6
#    16   8  16   4   8   8
#     4  11  22  40  63  89 127 168 221 267 327 396
#     4  12  24  40  62 100 138 164 224 273 329 401
#     4  12  23  40  64  95 131 174 213 276 334 385
#     4  10  24  42  58  94 122 170 222 272 324 402
#     4  12  20  39  64  89 121 170 213 268 327 398
#     4  11  21  35  61  92 122 160 217 259 319 385
#
# _framework density 18.947140000000001
#
# number of rings (size 3 to 8) (size 9 to 14) (size 15 to 20)
#    0.000    0.533    6.667    2.800    0.000    0.533 
#    0.000    0.000    0.000    1.600    0.000   11.200 
#    0.000    0.000    0.000    0.000    0.000    0.000 
#
# Total GULP energy -167034.129188 kJ/mol
# GULP energy per Si atom -5567.804306 kJ/mol
# Density = 1.890402 g / cm^3
# Si number density = 18.947140 Si / 1000 Ang^3
#
#
#
# Elastic Constant Matrix: (Units=GPa)
#
#
# Indices 1 2 3 4 5 6 
#
# 1 102.6673 24.0382 57.6766 0.0000 0.0000 0.0000
# 2 24.0382 92.3667 38.1699 0.0000 0.0000 0.0000
# 3 57.6766 38.1699 130.3597 0.0000 0.0000 0.0000
# 4 0.0000 0.0000 0.0000 8.6100 0.0000 0.0000
# 5 0.0000 0.0000 0.0000 0.0000 42.8738 0.0000
# 6 0.0000 0.0000 0.0000 0.0000 0.0000 46.9985
#
#
#
# Elastic Compliance Matrix: (Units=1/GPa)
#
#
# Indices 1 2 3 4 5 6 
#
# 1 0.013069 -0.001151 -0.005445 0.000000 0.000000 0.000000
# 2 -0.001151 0.012418 -0.003127 0.000000 0.000000 0.000000
# 3 -0.005445 -0.003127 0.010996 0.000000 0.000000 0.000000
# 4 0.000000 0.000000 0.000000 0.116144 0.000000 0.000000
# 5 0.000000 0.000000 0.000000 0.000000 0.023324 0.000000
# 6 0.000000 0.000000 0.000000 0.000000 0.000000 0.021277
#
#
# Mechanical properties :
#
#
# Convention : Reuss Voigt Hill
#
# Bulk Modulus (GPa) = 58.69675 62.79591 60.74633
# Shear Modulus (GPa) = 22.48683 33.39706 27.94195
#
# Velocity S-wave (km/s) = 3.44876 4.20294 3.84439
# Velocity P-wave (km/s) = 6.84873 7.53443 7.19974
#
# Compressibility (1/GPa) = 0.01703672
#
# Stress axis : x y z
#
# Youngs Moduli (GPa) = 76.51913 80.52768 90.94396
#
# Poissons Ratio (x) = 0.09268 0.49520
# Poissons Ratio (y) = 0.08807 0.28437
# Poissons Ratio (z) = 0.41665 0.25180
#
# Static dielectric constant tensor:
#      x y z
#    x 1.690710 0.000000 0.000000 
#    y 0.000000 1.677130 0.000000 
#    z 0.000000 0.000000 1.690780 
# 
# From -- ./inp_files/27785.got.cif
#   From: 2010.05.17/outbox.cif.g08.bks.cpg/sg66_14_cif.got.tgz:27785.got - 2010.06.03 17:51:23.
