data_PCOD9499671
_publ_section_title
;
Structure prediction by ZEFSAII (Michael W. Deem and Ramdas Pophale) SiO2 
 PCOD9499671
Probable space group: C C C M
;
_chemical_formula_sum "Si O2"
_cell_formula_units_Z 64
_cell_length_a 8.757789
_cell_length_b 11.833364
_cell_length_c 27.864752
_cell_angle_alpha 90.000000
_cell_angle_beta 90.000000
_cell_angle_gamma 90.000000
_cell_volume 2887.738637
_symmetry_space_group_name_H-M "C C C M"
_symmetry_group_IT_number 66
_symmetry_cell_setting 'orthorhombic'
loop_
_space_group_symop_operation_xyz
x,y,z
-x,-y,z
x,-y,1/2-z
-x,y,1/2-z
-x,-y,-z
x,y,-z
-x,y,1/2+z
x,-y,1/2+z
1/2+x,1/2+y,z
1/2-x,1/2-y,z
1/2+x,1/2-y,1/2-z
1/2-x,1/2+y,1/2-z
1/2-x,1/2-y,-z
1/2+x,1/2+y,-z
1/2-x,1/2+y,1/2+z
1/2+x,1/2-y,1/2+z
loop_
_atom_site_type_symbol
_atom_site_label
_atom_site_fract_x
_atom_site_fract_y
_atom_site_fract_z
Si Si1 0.926583 0.626122 0.053500
Si Si2 0.374637 0.155002 0.356863
Si Si3 0.159720 0.053711 0.883072
Si Si4 0.414001 0.283743 0.794435
O O1 0.756723 0.614844 0.075316
O O2 0.000000 0.500000 0.050300
O O3 0.033542 0.681112 0.093918
O O4 0.930054 0.674896 0.000000
O O5 0.250000 0.250000 0.349071
O O6 0.495454 0.173783 0.314258
O O7 0.281285 0.039009 0.362909
O O8 0.112554 0.135466 0.839728
O O9 0.000000 0.000000 0.900449
O O10 0.500000 0.338801 0.750000
O O11 0.250000 0.250000 0.775837
#
# Coordination Sequence:
#
# PCOD9499671 Si02
#       4
#    16  16  16  16
#     4   9  20  40  67  98 133 173 219 271 331 397
#     4  11  22  43  67  95 136 174 216 275 330 390
#     4  11  23  42  69  93 134 175 214 274 332 392
#     4  12  26  46  67  98 131 174 227 279 332 396
#
# _framework density 22.162669999999999
#
# number of rings (size 3 to 8) (size 9 to 14) (size 15 to 20)
#    0.000    1.250    5.000    0.750    0.000    1.500 
#    0.000    3.750    0.000    0.000    0.000    0.000 
#    0.000    0.000    0.000    0.000    0.000    0.000 
#
# Total GULP energy -178830.281379 kJ/mol
# GULP energy per Si atom -5588.446293 kJ/mol
# Density = 2.211223 g / cm^3
# Si number density = 22.162670 Si / 1000 Ang^3
#
#
#
# Elastic Constant Matrix: (Units=GPa)
#
#
# Indices 1 2 3 4 5 6 
#
# 1 165.6947 18.5880 54.3206 0.0000 0.0000 0.0000
# 2 18.5880 49.7067 14.6245 0.0000 0.0000 0.0000
# 3 54.3206 14.6245 123.4142 0.0000 0.0000 0.0000
# 4 0.0000 0.0000 0.0000 55.6993 0.0000 0.0000
# 5 0.0000 0.0000 0.0000 0.0000 27.6427 0.0000
# 6 0.0000 0.0000 0.0000 0.0000 0.0000 19.2210
#
#
#
# Elastic Compliance Matrix: (Units=1/GPa)
#
#
# Indices 1 2 3 4 5 6 
#
# 1 0.007209 -0.001826 -0.002957 0.000000 0.000000 0.000000
# 2 -0.001826 0.021307 -0.001721 0.000000 0.000000 0.000000
# 3 -0.002957 -0.001721 0.009608 0.000000 0.000000 0.000000
# 4 0.000000 0.000000 0.000000 0.017954 0.000000 0.000000
# 5 0.000000 0.000000 0.000000 0.000000 0.036176 0.000000
# 6 0.000000 0.000000 0.000000 0.000000 0.000000 0.052026
#
#
# Mechanical properties :
#
#
# Convention : Reuss Voigt Hill
#
# Bulk Modulus (GPa) = 39.81400 57.09797 48.45598
# Shear Modulus (GPa) = 30.18212 37.26478 33.72345
#
# Velocity S-wave (km/s) = 3.69432 4.10496 3.90504
# Velocity P-wave (km/s) = 6.01671 6.94886 6.49952
#
# Compressibility (1/GPa) = 0.02511679
#
# Stress axis : x y z
#
# Youngs Moduli (GPa) = 138.70784 46.93240 104.07784
#
# Poissons Ratio (x) = 0.08570 0.30774
# Poissons Ratio (y) = 0.25329 0.17913
# Poissons Ratio (z) = 0.41013 0.08078
#
# Static dielectric constant tensor:
#      x y z
#    x 1.828940 0.000000 0.000000 
#    y 0.000000 1.871040 0.000000 
#    z 0.000000 0.000000 1.781200 
# 
# From -- ./inp_files/54945.got.cif
#   From: 2010.05.17/outbox.cif.g08.bks.cpg/sg66_28_cif.got.tgz:54945.got - 2010.06.03 17:51:23.
