data_PCOD9499413
_publ_section_title
;
Structure prediction by ZEFSAII (Michael W. Deem and Ramdas Pophale) SiO2 
 PCOD9499413
Probable space group: C C C M
;
_chemical_formula_sum "Si O2"
_cell_formula_units_Z 48
_cell_length_a 9.080105
_cell_length_b 13.422987
_cell_length_c 16.937404
_cell_angle_alpha 90.000000
_cell_angle_beta 90.000000
_cell_angle_gamma 90.000000
_cell_volume 2064.366899
_symmetry_space_group_name_H-M "C C C M"
_symmetry_group_IT_number 66
_symmetry_cell_setting 'orthorhombic'
loop_
_space_group_symop_operation_xyz
x,y,z
-x,-y,z
x,-y,1/2-z
-x,y,1/2-z
-x,-y,-z
x,y,-z
-x,y,1/2+z
x,-y,1/2+z
1/2+x,1/2+y,z
1/2-x,1/2-y,z
1/2+x,1/2-y,1/2-z
1/2-x,1/2+y,1/2-z
1/2-x,1/2-y,-z
1/2+x,1/2+y,-z
1/2-x,1/2+y,1/2+z
1/2+x,1/2-y,1/2+z
loop_
_atom_site_type_symbol
_atom_site_label
_atom_site_fract_x
_atom_site_fract_y
_atom_site_fract_z
Si Si1 0.605720 0.782406 0.685228
Si Si2 0.870812 0.838704 0.089578
Si Si3 0.327384 0.014943 0.655780
O O1 0.500000 0.831187 0.750000
O O2 0.750000 0.750000 0.732503
O O3 0.505506 0.699665 0.643989
O O4 0.680271 0.868087 0.632436
O O5 0.750000 0.750000 0.089440
O O6 0.784965 0.938635 0.115603
O O7 0.924438 0.851075 0.000000
O O8 0.500000 0.000000 0.636537
O O9 0.300736 0.000000 0.750000
#
# Coordination Sequence:
#
# PCOD9499413 Si02
#       3
#    16  16  16
#     4  12  24  42  69  98 134 177 231 291 344 405
#     4  11  24  42  66 101 138 177 228 278 343 419
#     4  11  20  39  69  95 131 175 232 278 330 404
#
# _framework density 23.251681999999999
#
# number of rings (size 3 to 8) (size 9 to 14) (size 15 to 20)
#    0.000    0.667    6.667    3.000    0.000    4.000 
#    0.000    5.000    0.000    0.000    0.000    0.000 
#    0.000    0.000    0.000    0.000    0.000    0.000 
#
# Total GULP energy -133769.225508 kJ/mol
# GULP energy per Si atom -5573.717730 kJ/mol
# Density = 2.319876 g / cm^3
# Si number density = 23.251682 Si / 1000 Ang^3
#
#
#
# Elastic Constant Matrix: (Units=GPa)
#
#
# Indices 1 2 3 4 5 6 
#
# 1 150.8523 62.7163 37.2799 0.0000 0.0000 0.0000
# 2 62.7163 109.2608 20.8596 0.0000 0.0000 0.0000
# 3 37.2799 20.8596 83.3730 0.0000 0.0000 0.0000
# 4 0.0000 0.0000 0.0000 18.6612 0.0000 0.0000
# 5 0.0000 0.0000 0.0000 0.0000 9.8194 0.0000
# 6 0.0000 0.0000 0.0000 0.0000 0.0000 24.9692
#
#
#
# Elastic Compliance Matrix: (Units=1/GPa)
#
#
# Indices 1 2 3 4 5 6 
#
# 1 0.009365 -0.004805 -0.002985 0.000000 0.000000 0.000000
# 2 -0.004805 0.012077 -0.000873 0.000000 0.000000 0.000000
# 3 -0.002985 -0.000873 0.013547 0.000000 0.000000 0.000000
# 4 0.000000 0.000000 0.000000 0.053587 0.000000 0.000000
# 5 0.000000 0.000000 0.000000 0.000000 0.101840 0.000000
# 6 0.000000 0.000000 0.000000 0.000000 0.000000 0.040049
#
#
# Mechanical properties :
#
#
# Convention : Reuss Voigt Hill
#
# Bulk Modulus (GPa) = 56.61699 65.02195 60.81947
# Shear Modulus (GPa) = 19.70990 25.53198 22.62094
#
# Velocity S-wave (km/s) = 2.91465 3.31731 3.12248
# Velocity P-wave (km/s) = 5.97741 6.53436 6.26208
#
# Compressibility (1/GPa) = 0.01766254
#
# Stress axis : x y z
#
# Youngs Moduli (GPa) = 106.78623 82.79920 73.81470
#
# Poissons Ratio (x) = 0.39788 0.22034
# Poissons Ratio (y) = 0.51315 0.06444
# Poissons Ratio (z) = 0.31876 0.07228
#
# Static dielectric constant tensor:
#      x y z
#    x 1.897640 0.000000 0.000000 
#    y 0.000000 2.207930 0.000000 
#    z 0.000000 0.000000 1.834900 
# 
# From -- ./inp_files/35741.got.cif
#   From: 2010.05.17/outbox.cif.g08.bks.cpg/sg66_18_cif.got.tgz:35741.got - 2010.06.03 17:51:23.
