data_PCOD9499184
_publ_section_title
;
Structure prediction by ZEFSAII (Michael W. Deem and Ramdas Pophale) SiO2 
 PCOD9499184
Probable space group: C C C M
;
_chemical_formula_sum "Si O2"
_cell_formula_units_Z 88
_cell_length_a 14.073410
_cell_length_b 13.947856
_cell_length_c 19.715127
_cell_angle_alpha 90.000000
_cell_angle_beta 90.000000
_cell_angle_gamma 90.000000
_cell_volume 3869.959091
_symmetry_space_group_name_H-M "C C C M"
_symmetry_group_IT_number 66
_symmetry_cell_setting 'orthorhombic'
loop_
_space_group_symop_operation_xyz
x,y,z
-x,-y,z
x,-y,1/2-z
-x,y,1/2-z
-x,-y,-z
x,y,-z
-x,y,1/2+z
x,-y,1/2+z
1/2+x,1/2+y,z
1/2-x,1/2-y,z
1/2+x,1/2-y,1/2-z
1/2-x,1/2+y,1/2-z
1/2-x,1/2-y,-z
1/2+x,1/2+y,-z
1/2-x,1/2+y,1/2+z
1/2+x,1/2-y,1/2+z
loop_
_atom_site_type_symbol
_atom_site_label
_atom_site_fract_x
_atom_site_fract_y
_atom_site_fract_z
Si Si1 0.308030 0.090096 0.000000
Si Si2 0.146284 0.734117 0.872990
Si Si3 0.473796 0.889270 0.611564
Si Si4 0.201126 0.849921 0.380592
Si Si5 0.153452 0.612556 0.734817
Si Si6 0.003004 0.886176 0.169335
O O1 0.389221 0.110953 0.941627
O O2 0.228378 0.076920 0.939428
O O3 0.250000 0.750000 0.903911
O O4 0.159249 0.675637 0.802116
O O5 0.096717 0.835262 0.858403
O O6 0.066600 0.669765 0.909991
O O7 0.432010 0.856971 0.684483
O O8 0.500000 0.000000 0.619547
O O9 0.250000 0.750000 0.404952
O O10 0.251334 0.874774 0.309638
O O11 0.089775 0.843393 0.367630
O O12 0.141992 0.500000 0.750000
O O13 0.000000 0.868318 0.250000
O O14 0.000000 0.000000 0.159110
#
# Coordination Sequence:
#
# PCOD9499184 Si02
#       6
#     8  16  16  16  16  16
#     4  10  24  42  70  94 129 177 241 285 337 407
#     4  12  25  40  63 101 141 178 222 286 352 417
#     4  11  22  41  67  98 134 178 230 291 350 411
#     4  11  23  42  67  96 132 178 233 282 336 409
#     4  11  22  36  66 101 136 172 221 285 360 419
#     4  11  24  40  64  98 142 181 220 273 343 415
#
# _framework density 22.739259000000001
#
# number of rings (size 3 to 8) (size 9 to 14) (size 15 to 20)
#    0.000    0.909    1.818    7.091    5.091    0.000 
#    0.000    0.909    0.000    2.182    0.000    0.000 
#    0.000    0.000    0.000    0.000    0.000    0.000 
#
# Total GULP energy -245203.118456 kJ/mol
# GULP energy per Si atom -5572.798147 kJ/mol
# Density = 2.268750 g / cm^3
# Si number density = 22.739259 Si / 1000 Ang^3
#
#
#
# Elastic Constant Matrix: (Units=GPa)
#
#
# Indices 1 2 3 4 5 6 
#
# 1 148.8676 14.0146 2.1594 0.0000 0.0000 0.0000
# 2 14.0146 82.3191 -22.1374 0.0000 0.0000 0.0000
# 3 2.1594 -22.1374 54.8343 0.0000 0.0000 0.0000
# 4 0.0000 0.0000 0.0000 12.3685 0.0000 0.0000
# 5 0.0000 0.0000 0.0000 0.0000 9.5868 0.0000
# 6 0.0000 0.0000 0.0000 0.0000 0.0000 17.6324
#
#
#
# Elastic Compliance Matrix: (Units=1/GPa)
#
#
# Indices 1 2 3 4 5 6 
#
# 1 0.006860 -0.001392 -0.000832 0.000000 0.000000 0.000000
# 2 -0.001392 0.013910 0.005670 0.000000 0.000000 0.000000
# 3 -0.000832 0.005670 0.020559 0.000000 0.000000 0.000000
# 4 0.000000 0.000000 0.000000 0.080851 0.000000 0.000000
# 5 0.000000 0.000000 0.000000 0.000000 0.104310 0.000000
# 6 0.000000 0.000000 0.000000 0.000000 0.000000 0.056714
#
#
# Mechanical properties :
#
#
# Convention : Reuss Voigt Hill
#
# Bulk Modulus (GPa) = 20.73744 30.45493 25.59618
# Shear Modulus (GPa) = 17.10075 27.38315 22.24195
#
# Velocity S-wave (km/s) = 2.74530 3.47396 3.13090
# Velocity P-wave (km/s) = 4.38045 5.43262 4.93466
#
# Compressibility (1/GPa) = 0.04822196
#
# Stress axis : x y z
#
# Youngs Moduli (GPa) = 145.76272 71.89250 48.64120
#
# Poissons Ratio (x) = 0.10005 0.04047
# Poissons Ratio (y) = 0.20286 -0.27581
# Poissons Ratio (z) = 0.12128 -0.40765
#
# Static dielectric constant tensor:
#      x y z
#    x 1.909890 0.000000 0.000000 
#    y 0.000000 1.912080 0.000000 
#    z 0.000000 0.000000 1.847140 
# 
# From -- ./inp_files/49851.got.cif
#   From: 2010.05.17/outbox.cif.g08.bks.cpg/sg66_25_cif.got.tgz:49851.got - 2010.06.03 17:51:23.
