data_PCOD9499065
_publ_section_title
;
Structure prediction by ZEFSAII (Michael W. Deem and Ramdas Pophale) SiO2 
 PCOD9499065
Probable space group: C C C M
;
_chemical_formula_sum "Si O2"
_cell_formula_units_Z 64
_cell_length_a 10.278937
_cell_length_b 14.478881
_cell_length_c 18.988317
_cell_angle_alpha 90.000000
_cell_angle_beta 90.000000
_cell_angle_gamma 90.000000
_cell_volume 2825.983855
_symmetry_space_group_name_H-M "C C C M"
_symmetry_group_IT_number 66
_symmetry_cell_setting 'orthorhombic'
loop_
_space_group_symop_operation_xyz
x,y,z
-x,-y,z
x,-y,1/2-z
-x,y,1/2-z
-x,-y,-z
x,y,-z
-x,y,1/2+z
x,-y,1/2+z
1/2+x,1/2+y,z
1/2-x,1/2-y,z
1/2+x,1/2-y,1/2-z
1/2-x,1/2+y,1/2-z
1/2-x,1/2-y,-z
1/2+x,1/2+y,-z
1/2-x,1/2+y,1/2+z
1/2+x,1/2-y,1/2+z
loop_
_atom_site_type_symbol
_atom_site_label
_atom_site_fract_x
_atom_site_fract_y
_atom_site_fract_z
Si Si1 0.736460 0.857318 0.580979
Si Si2 0.930520 0.646675 0.081001
Si Si3 0.260266 0.477811 0.173174
Si Si4 0.388348 0.706989 0.304820
O O1 0.782242 0.868103 0.500000
O O2 0.750000 0.750000 0.600140
O O3 0.582346 0.878426 0.582687
O O4 0.801523 0.928602 0.634260
O O5 0.843658 0.575017 0.124341
O O6 0.915678 0.744185 0.120645
O O7 0.888637 0.650706 0.000000
O O8 0.203220 0.500000 0.250000
O O9 0.371503 0.402132 0.186367
O O10 0.500000 0.731320 0.250000
O O11 0.250000 0.750000 0.280464
#
# Coordination Sequence:
#
# PCOD9499065 Si02
#       4
#    16  16  16  16
#     4  10  23  42  66  97 140 187 234 288 350 418
#     4  10  23  43  71 100 135 187 239 292 348 420
#     4  11  25  40  65 103 134 184 226 294 345 421
#     4  10  25  45  72 106 143 186 230 294 352 428
#
# _framework density 22.646981
#
# number of rings (size 3 to 8) (size 9 to 14) (size 15 to 20)
#    0.000    1.750    0.000    1.500   10.500    9.000 
#    0.000    0.000    0.000    4.500    0.000    0.000 
#    0.000    0.000    0.000    0.000    0.000    0.000 
#
# Total GULP energy -179150.519078 kJ/mol
# GULP energy per Si atom -5598.453721 kJ/mol
# Density = 2.259544 g / cm^3
# Si number density = 22.646981 Si / 1000 Ang^3
#
#
#
# Elastic Constant Matrix: (Units=GPa)
#
#
# Indices 1 2 3 4 5 6 
#
# 1 62.8344 11.0640 37.3784 0.0000 0.0000 0.0000
# 2 11.0640 143.2625 85.3632 0.0000 0.0000 0.0000
# 3 37.3784 85.3632 194.4895 0.0000 0.0000 0.0000
# 4 0.0000 0.0000 0.0000 36.4715 0.0000 0.0000
# 5 0.0000 0.0000 0.0000 0.0000 5.9432 0.0000
# 6 0.0000 0.0000 0.0000 0.0000 0.0000 20.9856
#
#
#
# Elastic Compliance Matrix: (Units=1/GPa)
#
#
# Indices 1 2 3 4 5 6 
#
# 1 0.018057 0.000912 -0.003870 0.000000 0.000000 0.000000
# 2 0.000912 0.009498 -0.004344 0.000000 0.000000 0.000000
# 3 -0.003870 -0.004344 0.007792 0.000000 0.000000 0.000000
# 4 0.000000 0.000000 0.000000 0.027419 0.000000 0.000000
# 5 0.000000 0.000000 0.000000 0.000000 0.168259 0.000000
# 6 0.000000 0.000000 0.000000 0.000000 0.000000 0.047652
#
#
# Mechanical properties :
#
#
# Convention : Reuss Voigt Hill
#
# Bulk Modulus (GPa) = 48.21251 74.24418 61.22835
# Shear Modulus (GPa) = 16.65579 30.46545 23.56062
#
# Velocity S-wave (km/s) = 2.71487 3.67172 3.22893
# Velocity P-wave (km/s) = 5.58232 7.12950 6.40281
#
# Compressibility (1/GPa) = 0.02074150
#
# Stress axis : x y z
#
# Youngs Moduli (GPa) = 55.38105 105.28308 128.33406
#
# Poissons Ratio (x) = -0.09599 0.49671
# Poissons Ratio (y) = -0.05049 0.55749
# Poissons Ratio (z) = 0.21435 0.45736
#
# Static dielectric constant tensor:
#      x y z
#    x 1.862870 0.000000 0.000000 
#    y 0.000000 1.866800 0.000000 
#    z 0.000000 0.000000 1.817100 
# 
# From -- ./inp_files/37978.got.cif
#   From: 2010.05.17/outbox.cif.g08.bks.cpg/sg66_19_cif.got.tgz:37978.got - 2010.06.03 17:51:23.
