data_PCOD9499405
_publ_section_title
;
Structure prediction by ZEFSAII (Michael W. Deem and Ramdas Pophale) SiO2 
 PCOD9499405
Probable space group: C C C M
;
_chemical_formula_sum "Si O2"
_cell_formula_units_Z 96
_cell_length_a 14.958933
_cell_length_b 11.702811
_cell_length_c 27.099109
_cell_angle_alpha 90.000000
_cell_angle_beta 90.000000
_cell_angle_gamma 90.000000
_cell_volume 4744.012450
_symmetry_space_group_name_H-M "C C C M"
_symmetry_group_IT_number 66
_symmetry_cell_setting 'orthorhombic'
loop_
_space_group_symop_operation_xyz
x,y,z
-x,-y,z
x,-y,1/2-z
-x,y,1/2-z
-x,-y,-z
x,y,-z
-x,y,1/2+z
x,-y,1/2+z
1/2+x,1/2+y,z
1/2-x,1/2-y,z
1/2+x,1/2-y,1/2-z
1/2-x,1/2+y,1/2-z
1/2-x,1/2-y,-z
1/2+x,1/2+y,-z
1/2-x,1/2+y,1/2+z
1/2+x,1/2-y,1/2+z
loop_
_atom_site_type_symbol
_atom_site_label
_atom_site_fract_x
_atom_site_fract_y
_atom_site_fract_z
Si Si1 0.191351 0.927653 0.053846
Si Si2 0.713377 0.872950 0.277074
Si Si3 0.035243 0.159277 0.194944
Si Si4 0.967837 0.373227 0.838336
Si Si5 0.864467 0.035394 0.844033
Si Si6 0.387414 0.829379 0.055264
O O1 0.154943 0.996300 0.099956
O O2 0.297178 0.905090 0.057972
O O3 0.146124 0.802034 0.057048
O O4 0.171363 0.976342 0.000000
O O5 0.750000 0.750000 0.254314
O O6 0.617036 0.851219 0.302471
O O7 0.783212 0.894476 0.321630
O O8 0.709691 0.000000 0.250000
O O9 0.000000 0.148964 0.250000
O O10 0.045954 0.288285 0.179002
O O11 0.954537 0.109588 0.161327
O O12 0.118432 0.077511 0.187733
O O13 0.943773 0.353995 0.895809
O O14 0.000000 0.500000 0.831020
O O15 0.427121 0.847477 0.000000
#
# Coordination Sequence:
#
# PCOD9499405 Si02
#       6
#    16  16  16  16  16  16
#     4   9  16  31  62  93 115 147 198 260 308 359
#     4  12  25  42  66  91 124 168 220 260 306 378
#     4  11  24  39  59  87 126 164 201 249 317 364
#     4  12  26  40  61  92 128 160 204 266 314 364
#     4  11  20  39  64  88 118 159 207 249 299 378
#     4   9  17  35  60  88 119 155 199 250 311 372
#
# _framework density 20.236035000000001
#
# number of rings (size 3 to 8) (size 9 to 14) (size 15 to 20)
#    0.000    1.333    5.000    3.000    2.333    0.333 
#    0.000    2.500    0.000    0.000    0.000    2.333 
#    0.000    0.000    0.000    0.000    0.000    0.000 
#
# Total GULP energy -267818.878238 kJ/mol
# GULP energy per Si atom -5579.559963 kJ/mol
# Density = 2.018998 g / cm^3
# Si number density = 20.236035 Si / 1000 Ang^3
#
#
#
# Elastic Constant Matrix: (Units=GPa)
#
#
# Indices 1 2 3 4 5 6 
#
# 1 25.2005 6.7544 5.2439 0.0000 0.0000 0.0000
# 2 6.7544 110.7864 29.8011 0.0000 0.0000 0.0000
# 3 5.2439 29.8011 120.2425 0.0000 0.0000 0.0000
# 4 0.0000 0.0000 0.0000 -115.3651 0.0000 0.0000
# 5 0.0000 0.0000 0.0000 0.0000 13.7275 0.0000
# 6 0.0000 0.0000 0.0000 0.0000 0.0000 25.1669
#
#
#
# Elastic Compliance Matrix: (Units=1/GPa)
#
#
# Indices 1 2 3 4 5 6 
#
# 1 0.040512 -0.002137 -0.001237 0.000000 0.000000 0.000000
# 2 -0.002137 0.009784 -0.002332 0.000000 0.000000 0.000000
# 3 -0.001237 -0.002332 0.008948 0.000000 0.000000 0.000000
# 4 0.000000 0.000000 0.000000 -0.008668 0.000000 0.000000
# 5 0.000000 0.000000 0.000000 0.000000 0.072847 0.000000
# 6 0.000000 0.000000 0.000000 0.000000 0.000000 0.039735
#
#
# Mechanical properties :
#
#
# Convention : Reuss Voigt Hill
#
# Bulk Modulus (GPa) = 20.90633 37.75867 29.33250
# Shear Modulus (GPa) = 26.24488 -0.99881 12.62303
#
# Velocity S-wave (km/s) = 3.60521 -0.70332 2.50029
# Velocity P-wave (km/s) = 5.26153 4.24736 4.78141
#
# Compressibility (1/GPa) = 0.04783241
#
# Stress axis : x y z
#
# Youngs Moduli (GPa) = 24.68408 102.20892 111.75236
#
# Poissons Ratio (x) = 0.21844 0.13825
# Poissons Ratio (y) = 0.05275 0.26057
# Poissons Ratio (z) = 0.03054 0.23832
#
# Static dielectric constant tensor:
#      x y z
#    x 1.712040 0.000000 0.000000 
#    y 0.000000 1.760580 0.000000 
#    z 0.000000 0.000000 1.744870 
# 
# From -- ./inp_files/58758.got.cif
#   From: 2010.05.17/outbox.cif.g08.bks.cpg/sg66_30_cif.got.tgz:58758.got - 2010.06.03 17:51:23.
