data_PCOD9499043
_publ_section_title
;
Structure prediction by ZEFSAII (Michael W. Deem and Ramdas Pophale) SiO2 
 PCOD9499043
Probable space group: C C C M
;
_chemical_formula_sum "Si O2"
_cell_formula_units_Z 48
_cell_length_a 25.570651
_cell_length_b 5.172652
_cell_length_c 15.084840
_cell_angle_alpha 90.000000
_cell_angle_beta 90.000000
_cell_angle_gamma 90.000000
_cell_volume 1995.242809
_symmetry_space_group_name_H-M "C C C M"
_symmetry_group_IT_number 66
_symmetry_cell_setting 'orthorhombic'
loop_
_space_group_symop_operation_xyz
x,y,z
-x,-y,z
x,-y,1/2-z
-x,y,1/2-z
-x,-y,-z
x,y,-z
-x,y,1/2+z
x,-y,1/2+z
1/2+x,1/2+y,z
1/2-x,1/2-y,z
1/2+x,1/2-y,1/2-z
1/2-x,1/2+y,1/2-z
1/2-x,1/2-y,-z
1/2+x,1/2+y,-z
1/2-x,1/2+y,1/2+z
1/2+x,1/2-y,1/2+z
loop_
_atom_site_type_symbol
_atom_site_label
_atom_site_fract_x
_atom_site_fract_y
_atom_site_fract_z
Si Si1 0.976342 0.748859 0.650245
Si Si2 0.697989 0.391778 0.348651
Si Si3 0.362767 0.889179 0.897602
O O1 0.914355 0.724089 0.649273
O O2 0.000000 0.500000 0.604929
O O3 0.000000 0.749969 0.750000
O O4 0.000000 0.000000 0.606413
O O5 0.708379 0.500000 0.250000
O O6 0.750000 0.250000 0.383852
O O7 0.678353 0.651587 0.396137
O O8 0.656542 0.155120 0.352151
O O9 0.374295 0.951350 0.000000
#
# Coordination Sequence:
#
# PCOD9499043 Si02
#       3
#    16  16  16
#     4  10  23  41  67 103 139 196 240 297 352 431
#     4  12  27  48  75 108 144 195 250 299 359 445
#     4  12  27  45  74 112 151 191 242 307 373 434
#
# _framework density 24.057221999999999
#
# number of rings (size 3 to 8) (size 9 to 14) (size 15 to 20)
#    0.000    0.667    0.000    7.000   14.000    5.333 
#    0.000    0.000    0.000    0.000    0.000    0.000 
#    0.000    0.000    0.000    0.000    0.000    0.000 
#
# Total GULP energy -134201.999847 kJ/mol
# GULP energy per Si atom -5591.749994 kJ/mol
# Density = 2.400247 g / cm^3
# Si number density = 24.057222 Si / 1000 Ang^3
#
#
#
# Elastic Constant Matrix: (Units=GPa)
#
#
# Indices 1 2 3 4 5 6 
#
# 1 101.5472 39.2029 19.1081 0.0000 0.0000 0.0000
# 2 39.2029 229.4232 9.1563 0.0000 0.0000 0.0000
# 3 19.1081 9.1563 80.3603 0.0000 0.0000 0.0000
# 4 0.0000 0.0000 0.0000 28.9820 0.0000 0.0000
# 5 0.0000 0.0000 0.0000 0.0000 62.9034 0.0000
# 6 0.0000 0.0000 0.0000 0.0000 0.0000 68.1693
#
#
#
# Elastic Compliance Matrix: (Units=1/GPa)
#
#
# Indices 1 2 3 4 5 6 
#
# 1 0.010989 -0.001782 -0.002410 0.000000 0.000000 0.000000
# 2 -0.001782 0.004668 -0.000108 0.000000 0.000000 0.000000
# 3 -0.002410 -0.000108 0.013029 0.000000 0.000000 0.000000
# 4 0.000000 0.000000 0.000000 0.034504 0.000000 0.000000
# 5 0.000000 0.000000 0.000000 0.000000 0.015897 0.000000
# 6 0.000000 0.000000 0.000000 0.000000 0.000000 0.014669
#
#
# Mechanical properties :
#
#
# Convention : Reuss Voigt Hill
#
# Bulk Modulus (GPa) = 49.78515 60.69614 55.24064
# Shear Modulus (GPa) = 45.84986 54.93514 50.39250
#
# Velocity S-wave (km/s) = 4.37036 4.78380 4.58175
# Velocity P-wave (km/s) = 6.79751 7.46979 7.14156
#
# Compressibility (1/GPa) = 0.02008631
#
# Stress axis : x y z
#
# Youngs Moduli (GPa) = 91.00090 214.24741 76.74994
#
# Poissons Ratio (x) = 0.38169 0.18496
# Poissons Ratio (y) = 0.16212 0.00830
# Poissons Ratio (z) = 0.21931 0.02318
#
# Static dielectric constant tensor:
#      x y z
#    x 1.981770 0.000000 0.000000 
#    y 0.000000 1.908450 0.000000 
#    z 0.000000 0.000000 1.893250 
# 
# From -- ./inp_files/32790.got.cif
#   From: 2010.05.17/outbox.cif.g08.bks.cpg/sg66_17_cif.got.tgz:32790.got - 2010.06.03 17:51:23.
