data_PCOD9499789
_publ_section_title
;
Structure prediction by ZEFSAII (Michael W. Deem and Ramdas Pophale) SiO2 
 PCOD9499789
Probable space group: C C C M
;
_chemical_formula_sum "Si O2"
_cell_formula_units_Z 80
_cell_length_a 20.234303
_cell_length_b 9.317618
_cell_length_c 24.823507
_cell_angle_alpha 90.000000
_cell_angle_beta 90.000000
_cell_angle_gamma 90.000000
_cell_volume 4680.112449
_symmetry_space_group_name_H-M "C C C M"
_symmetry_group_IT_number 66
_symmetry_cell_setting 'orthorhombic'
loop_
_space_group_symop_operation_xyz
x,y,z
-x,-y,z
x,-y,1/2-z
-x,y,1/2-z
-x,-y,-z
x,y,-z
-x,y,1/2+z
x,-y,1/2+z
1/2+x,1/2+y,z
1/2-x,1/2-y,z
1/2+x,1/2-y,1/2-z
1/2-x,1/2+y,1/2-z
1/2-x,1/2-y,-z
1/2+x,1/2+y,-z
1/2-x,1/2+y,1/2+z
1/2+x,1/2-y,1/2+z
loop_
_atom_site_type_symbol
_atom_site_label
_atom_site_fract_x
_atom_site_fract_y
_atom_site_fract_z
Si Si1 0.775789 0.981463 0.000000
Si Si2 0.772728 0.990859 0.117358
Si Si3 0.309186 0.651606 0.220796
Si Si4 0.140352 0.704242 0.500000
Si Si5 0.575448 0.164192 0.266051
Si Si6 0.858321 0.304569 0.379877
O O1 0.776623 0.055411 0.942587
O O2 0.836264 0.869160 0.000000
O O3 0.708629 0.886612 0.000000
O O4 0.793694 0.109101 0.159867
O O5 0.820844 0.850406 0.120953
O O6 0.699620 0.924199 0.126925
O O7 0.309732 0.500000 0.250000
O O8 0.250000 0.750000 0.242843
O O9 0.376277 0.734062 0.232302
O O10 0.110970 0.677055 0.440255
O O11 0.500000 0.193568 0.250000
O O12 0.592650 0.185556 0.329280
O O13 0.589855 0.000000 0.250000
#
# Coordination Sequence:
#
# PCOD9499789 Si02
#       6
#     8  16  16   8  16  16
#     4   7  12  24  43  75 109 136 164 215 269 306
#     4   9  16  28  51  79 109 137 175 219 263 315
#     4  12  22  34  54  80 107 141 178 220 266 322
#     4   7  12  22  50  76 101 133 177 218 260 309
#     4  11  24  39  54  74 109 147 180 223 274 324
#     4   9  15  31  51  80 106 138 178 222 263 316
#
# _framework density 17.093606999999999
#
# number of rings (size 3 to 8) (size 9 to 14) (size 15 to 20)
#    0.000    2.400    2.000    5.400    0.000    0.400 
#    0.000    0.500    0.000    4.800    0.000    4.200 
#    0.000    0.000    0.000    0.000    0.000    0.000 
#
# Total GULP energy -222787.406454 kJ/mol
# GULP energy per Si atom -5569.685161 kJ/mol
# Density = 1.705470 g / cm^3
# Si number density = 17.093607 Si / 1000 Ang^3
#
#
#
# Elastic Constant Matrix: (Units=GPa)
#
#
# Indices 1 2 3 4 5 6 
#
# 1 69.5352 53.2697 68.3375 0.0000 0.0000 0.0000
# 2 53.2697 76.1448 29.9329 0.0000 0.0000 0.0000
# 3 68.3375 29.9329 154.9829 0.0000 0.0000 0.0000
# 4 0.0000 0.0000 0.0000 16.2639 0.0000 0.0000
# 5 0.0000 0.0000 0.0000 0.0000 23.1602 0.0000
# 6 0.0000 0.0000 0.0000 0.0000 0.0000 20.9128
#
#
#
# Elastic Compliance Matrix: (Units=1/GPa)
#
#
# Indices 1 2 3 4 5 6 
#
# 1 0.060304 -0.034342 -0.019957 0.000000 0.000000 0.000000
# 2 -0.034342 0.033769 0.008621 0.000000 0.000000 0.000000
# 3 -0.019957 0.008621 0.013587 0.000000 0.000000 0.000000
# 4 0.000000 0.000000 0.000000 0.061486 0.000000 0.000000
# 5 0.000000 0.000000 0.000000 0.000000 0.043177 0.000000
# 6 0.000000 0.000000 0.000000 0.000000 0.000000 0.047818
#
#
# Mechanical properties :
#
#
# Convention : Reuss Voigt Hill
#
# Bulk Modulus (GPa) = 61.34040 67.08258 64.21149
# Shear Modulus (GPa) = 14.00819 22.00890 18.00854
#
# Velocity S-wave (km/s) = 2.86579 3.59214 3.24933
# Velocity P-wave (km/s) = 6.84933 7.51891 7.19192
#
# Compressibility (1/GPa) = 0.01630247
#
# Stress axis : x y z
#
# Youngs Moduli (GPa) = 16.58267 29.61259 73.59813
#
# Poissons Ratio (x) = 1.01697 1.46883
# Poissons Ratio (y) = 0.56949 -0.63446
# Poissons Ratio (z) = 0.33095 -0.25528
#
# Static dielectric constant tensor:
#      x y z
#    x 1.550500 0.000000 0.000000 
#    y 0.000000 1.577560 0.000000 
#    z 0.000000 0.000000 1.662540 
# 
# From -- ./inp_files/65612.got.cif
#   From: 2010.05.17/outbox.cif.g08.bks.cpg/sg66_33_cif.got.tgz:65612.got - 2010.06.03 17:51:23.
