data_PCOD9499272
_publ_section_title
;
Structure prediction by ZEFSAII (Michael W. Deem and Ramdas Pophale) SiO2 
 PCOD9499272
Probable space group: C C C M
;
_chemical_formula_sum "Si O2"
_cell_formula_units_Z 60
_cell_length_a 10.659031
_cell_length_b 10.267424
_cell_length_c 25.085086
_cell_angle_alpha 90.000000
_cell_angle_beta 90.000000
_cell_angle_gamma 90.000000
_cell_volume 2745.331647
_symmetry_space_group_name_H-M "C C C M"
_symmetry_group_IT_number 66
_symmetry_cell_setting 'orthorhombic'
loop_
_space_group_symop_operation_xyz
x,y,z
-x,-y,z
x,-y,1/2-z
-x,y,1/2-z
-x,-y,-z
x,y,-z
-x,y,1/2+z
x,-y,1/2+z
1/2+x,1/2+y,z
1/2-x,1/2-y,z
1/2+x,1/2-y,1/2-z
1/2-x,1/2+y,1/2-z
1/2-x,1/2-y,-z
1/2+x,1/2+y,-z
1/2-x,1/2+y,1/2+z
1/2+x,1/2-y,1/2+z
loop_
_atom_site_type_symbol
_atom_site_label
_atom_site_fract_x
_atom_site_fract_y
_atom_site_fract_z
Si Si1 0.500000 0.500000 0.250000
Si Si2 0.690025 0.560325 0.000000
Si Si3 0.576930 0.707967 0.500000
Si Si4 0.750000 0.250000 0.408087
Si Si5 0.886447 0.247524 0.784952
Si Si6 0.016826 0.654430 0.109334
O O1 0.579454 0.404910 0.212999
O O2 0.749995 0.624224 0.947491
O O3 0.681873 0.404941 0.000000
O O4 0.552371 0.625151 0.000000
O O5 0.569259 0.791606 0.446419
O O6 0.883353 0.270046 0.379045
O O7 0.750000 0.250000 0.759316
O O8 0.000000 0.306363 0.750000
O O9 0.890810 0.311755 0.842357
O O10 0.000000 0.500000 0.106839
#
# Coordination Sequence:
#
# PCOD9499272 Si02
#       6
#     4   8   8   8  16  16
#     4   8  24  48  72  98 136 168 234 294 346 420
#     4   8  16  35  60  88 126 189 232 261 329 399
#     4   9  19  37  59  97 140 185 220 283 323 411
#     4   9  20  38  60  92 134 174 226 279 332 392
#     4  10  25  47  71 100 131 178 227 290 353 414
#     4  11  24  39  65 100 136 180 228 276 347 411
#
# _framework density 21.855283
#
# number of rings (size 3 to 8) (size 9 to 14) (size 15 to 20)
#    0.800    1.600    0.000    1.200    1.867   11.200 
#    0.000    2.000    0.000    0.000    0.000    0.000 
#    0.000    0.000    0.000    0.000    0.000    0.000 
#
# Total GULP energy -167332.395936 kJ/mol
# GULP energy per Si atom -5577.746531 kJ/mol
# Density = 2.180554 g / cm^3
# Si number density = 21.855283 Si / 1000 Ang^3
#
#
#
# Elastic Constant Matrix: (Units=GPa)
#
#
# Indices 1 2 3 4 5 6 
#
# 1 109.0486 2.9653 10.6295 0.0000 0.0000 0.0000
# 2 2.9653 144.3080 34.4898 0.0000 0.0000 0.0000
# 3 10.6295 34.4898 89.8043 0.0000 0.0000 0.0000
# 4 0.0000 0.0000 0.0000 19.9971 0.0000 0.0000
# 5 0.0000 0.0000 0.0000 0.0000 25.1993 0.0000
# 6 0.0000 0.0000 0.0000 0.0000 0.0000 17.0069
#
#
#
# Elastic Compliance Matrix: (Units=1/GPa)
#
#
# Indices 1 2 3 4 5 6 
#
# 1 0.009278 0.000079 -0.001129 0.000000 0.000000 0.000000
# 2 0.000079 0.007631 -0.002940 0.000000 0.000000 0.000000
# 3 -0.001129 -0.002940 0.012398 0.000000 0.000000 0.000000
# 4 0.000000 0.000000 0.000000 0.050007 0.000000 0.000000
# 5 0.000000 0.000000 0.000000 0.000000 0.039684 0.000000
# 6 0.000000 0.000000 0.000000 0.000000 0.000000 0.058800
#
#
# Mechanical properties :
#
#
# Convention : Reuss Voigt Hill
#
# Bulk Modulus (GPa) = 46.88697 48.81445 47.85071
# Shear Modulus (GPa) = 25.92210 32.11240 29.01725
#
# Velocity S-wave (km/s) = 3.44769 3.83733 3.64771
# Velocity P-wave (km/s) = 6.11136 6.48207 6.29944
#
# Compressibility (1/GPa) = 0.02132789
#
# Stress axis : x y z
#
# Youngs Moduli (GPa) = 107.78094 131.05043 80.65815
#
# Poissons Ratio (x) = -0.01036 0.09103
# Poissons Ratio (y) = -0.00852 0.23713
# Poissons Ratio (z) = 0.12164 0.38528
#
# Static dielectric constant tensor:
#      x y z
#    x 1.918810 0.000000 0.000000 
#    y 0.000000 1.770480 0.000000 
#    z 0.000000 0.000000 1.757620 
# 
# From -- ./inp_files/56416.got.cif
#   From: 2010.05.17/outbox.cif.g08.bks.cpg/sg66_29_cif.got.tgz:56416.got - 2010.06.03 17:51:23.
