data_PCOD9499115
_publ_section_title
;
Structure prediction by ZEFSAII (Michael W. Deem and Ramdas Pophale) SiO2 
 PCOD9499115
Probable space group: C C C M
;
_chemical_formula_sum "Si O2"
_cell_formula_units_Z 64
_cell_length_a 21.751841
_cell_length_b 6.603765
_cell_length_c 18.135569
_cell_angle_alpha 90.000000
_cell_angle_beta 90.000000
_cell_angle_gamma 90.000000
_cell_volume 2605.066513
_symmetry_space_group_name_H-M "C C C M"
_symmetry_group_IT_number 66
_symmetry_cell_setting 'orthorhombic'
loop_
_space_group_symop_operation_xyz
x,y,z
-x,-y,z
x,-y,1/2-z
-x,y,1/2-z
-x,-y,-z
x,y,-z
-x,y,1/2+z
x,-y,1/2+z
1/2+x,1/2+y,z
1/2-x,1/2-y,z
1/2+x,1/2-y,1/2-z
1/2-x,1/2+y,1/2-z
1/2-x,1/2-y,-z
1/2+x,1/2+y,-z
1/2-x,1/2+y,1/2+z
1/2+x,1/2-y,1/2+z
loop_
_atom_site_type_symbol
_atom_site_label
_atom_site_fract_x
_atom_site_fract_y
_atom_site_fract_z
Si Si1 0.001222 0.743233 0.080489
Si Si2 0.210730 0.072434 0.324349
Si Si3 0.860064 0.266979 0.413447
Si Si4 0.102306 0.356975 0.315997
O O1 0.047633 0.769063 0.146883
O O2 0.000000 0.500000 0.076845
O O3 0.068861 0.189383 0.090997
O O4 0.025109 0.807671 0.000000
O O5 0.250000 0.250000 0.363026
O O6 0.152102 0.193680 0.292772
O O7 0.245223 0.000000 0.250000
O O8 0.186624 0.890176 0.375136
O O9 0.845769 0.290663 0.500000
O O10 0.865454 0.484914 0.373238
O O11 0.080416 0.500000 0.250000
#
# Coordination Sequence:
#
# PCOD9499115 Si02
#       4
#    16  16  16  16
#     4   8  17  36  64  97 140 180 209 265 347 417
#     4  12  27  46  69  95 131 186 240 293 354 404
#     4  10  23  44  69 105 141 177 228 285 347 420
#     4  11  21  40  68 102 139 184 232 280 344 421
#
# _framework density 24.567511
#
# number of rings (size 3 to 8) (size 9 to 14) (size 15 to 20)
#    0.000    1.750    2.500    3.000    0.000    8.000 
#    0.000    5.000    0.000    0.000    0.000    0.000 
#    0.000    0.000    0.000    0.000    0.000    0.000 
#
# Total GULP energy -178821.862591 kJ/mol
# GULP energy per Si atom -5588.183206 kJ/mol
# Density = 2.451159 g / cm^3
# Si number density = 24.567511 Si / 1000 Ang^3
#
#
#
# Elastic Constant Matrix: (Units=GPa)
#
#
# Indices 1 2 3 4 5 6 
#
# 1 74.0292 21.7253 26.9026 0.0000 0.0000 0.0000
# 2 21.7253 124.8044 47.2125 0.0000 0.0000 0.0000
# 3 26.9026 47.2125 126.6222 0.0000 0.0000 0.0000
# 4 0.0000 0.0000 0.0000 25.4413 0.0000 0.0000
# 5 0.0000 0.0000 0.0000 0.0000 26.7068 0.0000
# 6 0.0000 0.0000 0.0000 0.0000 0.0000 -5.2419
#
#
#
# Elastic Compliance Matrix: (Units=1/GPa)
#
#
# Indices 1 2 3 4 5 6 
#
# 1 0.014917 -0.001627 -0.002563 0.000000 0.000000 0.000000
# 2 -0.001627 0.009506 -0.003199 0.000000 0.000000 0.000000
# 3 -0.002563 -0.003199 0.009635 0.000000 0.000000 0.000000
# 4 0.000000 0.000000 0.000000 0.039306 0.000000 0.000000
# 5 0.000000 0.000000 0.000000 0.000000 0.037444 0.000000
# 6 0.000000 0.000000 0.000000 0.000000 0.000000 -0.190770
#
#
# Mechanical properties :
#
#
# Convention : Reuss Voigt Hill
#
# Bulk Modulus (GPa) = 51.86590 57.45962 54.66276
# Shear Modulus (GPa) = -85.09280 24.68894 -30.20193
#
# Velocity S-wave (km/s) = -5.89165 3.17352 -3.51000
# Velocity P-wave (km/s) = 5.01244 6.07187 2.42311
#
# Compressibility (1/GPa) = 0.01928049
#
# Stress axis : x y z
#
# Youngs Moduli (GPa) = 67.03771 105.19876 103.79262
#
# Poissons Ratio (x) = 0.17119 0.26597
# Poissons Ratio (y) = 0.10909 0.33199
# Poissons Ratio (z) = 0.17179 0.33649
#
# Static dielectric constant tensor:
#      x y z
#    x 2.013120 0.000000 0.000000 
#    y 0.000000 2.013650 0.000000 
#    z 0.000000 0.000000 1.937130 
# 
# From -- ./inp_files/45532.got.cif
#   From: 2010.05.17/outbox.cif.g08.bks.cpg/sg66_23_cif.got.tgz:45532.got - 2010.06.03 17:51:23.
