data_PCOD9499767
_publ_section_title
;
Structure prediction by ZEFSAII (Michael W. Deem and Ramdas Pophale) SiO2 
 PCOD9499767
Probable space group: C C C M
;
_chemical_formula_sum "Si O2"
_cell_formula_units_Z 48
_cell_length_a 13.114808
_cell_length_b 9.349053
_cell_length_c 15.841918
_cell_angle_alpha 90.000000
_cell_angle_beta 90.000000
_cell_angle_gamma 90.000000
_cell_volume 1942.393964
_symmetry_space_group_name_H-M "C C C M"
_symmetry_group_IT_number 66
_symmetry_cell_setting 'orthorhombic'
loop_
_space_group_symop_operation_xyz
x,y,z
-x,-y,z
x,-y,1/2-z
-x,y,1/2-z
-x,-y,-z
x,y,-z
-x,y,1/2+z
x,-y,1/2+z
1/2+x,1/2+y,z
1/2-x,1/2-y,z
1/2+x,1/2-y,1/2-z
1/2-x,1/2+y,1/2-z
1/2-x,1/2-y,-z
1/2+x,1/2+y,-z
1/2-x,1/2+y,1/2+z
1/2+x,1/2-y,1/2+z
loop_
_atom_site_type_symbol
_atom_site_label
_atom_site_fract_x
_atom_site_fract_y
_atom_site_fract_z
Si Si1 0.288656 0.109157 0.684124
Si Si2 0.494072 0.166703 0.649462
Si Si3 0.106774 0.933524 0.598834
O O1 0.250000 0.250000 0.732124
O O2 0.373931 0.185229 0.625284
O O3 0.339575 0.000000 0.750000
O O4 0.201081 0.010291 0.644292
O O5 0.500000 0.198215 0.750000
O O6 0.580843 0.265004 0.608883
O O7 0.500000 0.000000 0.628442
O O8 0.116718 0.964642 0.500000
O O9 0.000000 0.000000 0.631677
#
# Coordination Sequence:
#
# PCOD9499767 Si02
#       3
#    16  16  16
#     4  12  24  42  74 103 132 185 241 296 353 423
#     4  11  23  44  70 101 139 181 236 294 352 416
#     4  11  26  44  67 104 143 184 232 287 361 432
#
# _framework density 24.711772
#
# number of rings (size 3 to 8) (size 9 to 14) (size 15 to 20)
#    0.000    0.667    6.667    2.000    0.000    2.667 
#    0.000    1.667    0.000    0.000    0.000    0.000 
#    0.000    0.000    0.000    0.000    0.000    0.000 
#
# Total GULP energy -133741.291898 kJ/mol
# GULP energy per Si atom -5572.553829 kJ/mol
# Density = 2.465553 g / cm^3
# Si number density = 24.711772 Si / 1000 Ang^3
#
#
#
# Elastic Constant Matrix: (Units=GPa)
#
#
# Indices 1 2 3 4 5 6 
#
# 1 160.1004 41.8903 35.1959 0.0000 0.0000 0.0000
# 2 41.8903 156.8652 19.8122 0.0000 0.0000 0.0000
# 3 35.1959 19.8122 43.3053 0.0000 0.0000 0.0000
# 4 0.0000 0.0000 0.0000 13.4950 0.0000 0.0000
# 5 0.0000 0.0000 0.0000 0.0000 7.7204 0.0000
# 6 0.0000 0.0000 0.0000 0.0000 0.0000 41.7014
#
#
#
# Elastic Compliance Matrix: (Units=1/GPa)
#
#
# Indices 1 2 3 4 5 6 
#
# 1 0.007874 -0.001374 -0.005771 0.000000 0.000000 0.000000
# 2 -0.001374 0.007006 -0.002088 0.000000 0.000000 0.000000
# 3 -0.005771 -0.002088 0.028738 0.000000 0.000000 0.000000
# 4 0.000000 0.000000 0.000000 0.074102 0.000000 0.000000
# 5 0.000000 0.000000 0.000000 0.000000 0.129527 0.000000
# 6 0.000000 0.000000 0.000000 0.000000 0.000000 0.023980
#
#
# Mechanical properties :
#
#
# Convention : Reuss Voigt Hill
#
# Bulk Modulus (GPa) = 39.76048 61.56307 50.66178
# Shear Modulus (GPa) = 16.77418 30.14151 23.45785
#
# Velocity S-wave (km/s) = 2.60819 3.49624 3.08435
# Velocity P-wave (km/s) = 5.01945 6.42377 5.76453
#
# Compressibility (1/GPa) = 0.02515060
#
# Stress axis : x y z
#
# Youngs Moduli (GPa) = 126.99582 142.74366 34.79743
#
# Poissons Ratio (x) = 0.19611 0.20082
# Poissons Ratio (y) = 0.17448 0.07267
# Poissons Ratio (z) = 0.73291 0.29811
#
# Static dielectric constant tensor:
#      x y z
#    x 2.258490 0.000000 0.000000 
#    y 0.000000 2.105810 0.000000 
#    z 0.000000 0.000000 1.903770 
# 
# From -- ./inp_files/39442.got.cif
#   From: 2010.05.17/outbox.cif.g08.bks.cpg/sg66_20_cif.got.tgz:39442.got - 2010.06.03 17:51:23.
