data_PCOD9499071
_publ_section_title
;
Structure prediction by ZEFSAII (Michael W. Deem and Ramdas Pophale) SiO2 
 PCOD9499071
Probable space group: C C C M
;
_chemical_formula_sum "Si O2"
_cell_formula_units_Z 48
_cell_length_a 5.301513
_cell_length_b 19.443616
_cell_length_c 21.048329
_cell_angle_alpha 90.000000
_cell_angle_beta 90.000000
_cell_angle_gamma 90.000000
_cell_volume 2169.674024
_symmetry_space_group_name_H-M "C C C M"
_symmetry_group_IT_number 66
_symmetry_cell_setting 'orthorhombic'
loop_
_space_group_symop_operation_xyz
x,y,z
-x,-y,z
x,-y,1/2-z
-x,y,1/2-z
-x,-y,-z
x,y,-z
-x,y,1/2+z
x,-y,1/2+z
1/2+x,1/2+y,z
1/2-x,1/2-y,z
1/2+x,1/2-y,1/2-z
1/2-x,1/2+y,1/2-z
1/2-x,1/2-y,-z
1/2+x,1/2+y,-z
1/2-x,1/2+y,1/2+z
1/2+x,1/2-y,1/2+z
loop_
_atom_site_type_symbol
_atom_site_label
_atom_site_fract_x
_atom_site_fract_y
_atom_site_fract_z
Si Si1 0.175025 0.823852 0.197736
Si Si2 0.030046 0.143883 0.930907
Si Si3 0.540509 0.078991 0.115187
O O1 0.250000 0.750000 0.223448
O O2 0.402657 0.872466 0.175807
O O3 0.000000 0.859293 0.250000
O O4 0.024069 0.810417 0.131390
O O5 0.297460 0.107620 0.921090
O O6 0.798107 0.089787 0.924936
O O7 0.018734 0.178074 0.000000
O O8 0.500000 0.000000 0.131568
#
# Coordination Sequence:
#
# PCOD9499071 Si02
#       3
#    16  16  16
#     4  10  26  44  72  95 136 186 230 278 341 416
#     4  10  23  42  70 106 138 176 226 283 342 404
#     4  10  23  43  70 103 137 176 226 281 340 406
#
# _framework density 22.123138000000001
#
# number of rings (size 3 to 8) (size 9 to 14) (size 15 to 20)
#    2.000    0.000    0.000    2.000    4.667    4.667 
#    0.000    6.667    0.000    0.000    0.000    0.000 
#    0.000    0.000    0.000    0.000    0.000    0.000 
#
# Total GULP energy -133753.351206 kJ/mol
# GULP energy per Si atom -5573.056300 kJ/mol
# Density = 2.207279 g / cm^3
# Si number density = 22.123138 Si / 1000 Ang^3
#
#
#
# Elastic Constant Matrix: (Units=GPa)
#
#
# Indices 1 2 3 4 5 6 
#
# 1 156.2506 10.6170 35.2543 0.0000 0.0000 0.0000
# 2 10.6170 22.9575 -0.1542 0.0000 0.0000 0.0000
# 3 35.2543 -0.1542 92.5532 0.0000 0.0000 0.0000
# 4 0.0000 0.0000 0.0000 3.3298 0.0000 0.0000
# 5 0.0000 0.0000 0.0000 0.0000 -10.8246 0.0000
# 6 0.0000 0.0000 0.0000 0.0000 0.0000 18.8309
#
#
#
# Elastic Compliance Matrix: (Units=1/GPa)
#
#
# Indices 1 2 3 4 5 6 
#
# 1 0.007254 -0.003373 -0.002769 0.000000 0.000000 0.000000
# 2 -0.003373 0.045128 0.001360 0.000000 0.000000 0.000000
# 3 -0.002769 0.001360 0.011861 0.000000 0.000000 0.000000
# 4 0.000000 0.000000 0.000000 0.300317 0.000000 0.000000
# 5 0.000000 0.000000 0.000000 0.000000 -0.092382 0.000000
# 6 0.000000 0.000000 0.000000 0.000000 0.000000 0.053104
#
#
# Mechanical properties :
#
#
# Convention : Reuss Voigt Hill
#
# Bulk Modulus (GPa) = 18.28834 40.35504 29.32169
# Shear Modulus (GPa) = 14.16139 17.33683 15.74911
#
# Velocity S-wave (km/s) = 2.53280 2.80241 2.67101
# Velocity P-wave (km/s) = 4.10341 5.36210 4.77441
#
# Compressibility (1/GPa) = 0.05467965
#
# Stress axis : x y z
#
# Youngs Moduli (GPa) = 137.85743 22.15921 84.30657
#
# Poissons Ratio (x) = 0.07475 0.23342
# Poissons Ratio (y) = 0.46503 -0.11467
# Poissons Ratio (z) = 0.38168 -0.03014
#
# Static dielectric constant tensor:
#      x y z
#    x 1.873650 0.000000 0.000000 
#    y 0.000000 1.746290 0.000000 
#    z 0.000000 0.000000 1.894640 
# 
# From -- ./inp_files/45269.got.cif
#   From: 2010.05.17/outbox.cif.g08.bks.cpg/sg66_23_cif.got.tgz:45269.got - 2010.06.03 17:51:23.
