data_PCOD9499137
_publ_section_title
;
Structure prediction by ZEFSAII (Michael W. Deem and Ramdas Pophale) SiO2 
 PCOD9499137
Probable space group: C C C M
;
_chemical_formula_sum "Si O2"
_cell_formula_units_Z 36
_cell_length_a 17.403174
_cell_length_b 8.805549
_cell_length_c 9.172021
_cell_angle_alpha 90.000000
_cell_angle_beta 90.000000
_cell_angle_gamma 90.000000
_cell_volume 1405.561785
_symmetry_space_group_name_H-M "C C C M"
_symmetry_group_IT_number 66
_symmetry_cell_setting 'orthorhombic'
loop_
_space_group_symop_operation_xyz
x,y,z
-x,-y,z
x,-y,1/2-z
-x,y,1/2-z
-x,-y,-z
x,y,-z
-x,y,1/2+z
x,-y,1/2+z
1/2+x,1/2+y,z
1/2-x,1/2-y,z
1/2+x,1/2-y,1/2-z
1/2-x,1/2+y,1/2-z
1/2-x,1/2-y,-z
1/2+x,1/2+y,-z
1/2-x,1/2+y,1/2+z
1/2+x,1/2-y,1/2+z
loop_
_atom_site_type_symbol
_atom_site_label
_atom_site_fract_x
_atom_site_fract_y
_atom_site_fract_z
Si Si1 0.636640 0.280787 0.000000
Si Si2 0.500000 0.500000 0.250000
Si Si3 0.297195 0.500000 0.250000
Si Si4 0.189180 0.564975 0.500000
Si Si5 0.544213 0.714263 0.000000
O O1 0.660537 0.381222 0.859723
O O2 0.545596 0.241487 0.000000
O O3 0.674337 0.116268 0.000000
O O4 0.548110 0.392506 0.358238
O O5 0.241060 0.590667 0.358926
O O6 0.109824 0.659460 0.500000
#
# Coordination Sequence:
#
# PCOD9499137 Si02
#       5
#     8   4   8   8   8
#     4  11  24  50  78 122 162 221 268 341 399 501
#     4  10  26  50  74 126 158 212 256 340 414 498
#     4  10  23  48  81 121 173 208 266 328 429 472
#     4  11  26  48  81 124 155 219 272 346 390 495
#     4  11  25  50  83 116 164 213 275 335 407 481
#
# _framework density 25.612535000000001
#
# number of rings (size 3 to 8) (size 9 to 14) (size 15 to 20)
#    0.000    1.333    0.000    4.667    6.222    0.000 
#   16.000    8.889    0.000    0.000    0.000    0.000 
#    0.000    0.000    0.000    0.000    0.000    0.000 
#
# Total GULP energy -100861.341505 kJ/mol
# GULP energy per Si atom -5603.407861 kJ/mol
# Density = 2.555424 g / cm^3
# Si number density = 25.612535 Si / 1000 Ang^3
#
#
#
# Elastic Constant Matrix: (Units=GPa)
#
#
# Indices 1 2 3 4 5 6 
#
# 1 138.8181 63.2629 74.9165 0.0000 0.0000 0.0000
# 2 63.2629 197.3405 82.2564 0.0000 0.0000 0.0000
# 3 74.9165 82.2564 248.2496 0.0000 0.0000 0.0000
# 4 0.0000 0.0000 0.0000 12.9261 0.0000 0.0000
# 5 0.0000 0.0000 0.0000 0.0000 61.6794 0.0000
# 6 0.0000 0.0000 0.0000 0.0000 0.0000 61.9573
#
#
#
# Elastic Compliance Matrix: (Units=1/GPa)
#
#
# Indices 1 2 3 4 5 6 
#
# 1 0.009300 -0.002102 -0.002110 0.000000 0.000000 0.000000
# 2 -0.002102 0.006354 -0.001471 0.000000 0.000000 0.000000
# 3 -0.002110 -0.001471 0.005152 0.000000 0.000000 0.000000
# 4 0.000000 0.000000 0.000000 0.077363 0.000000 0.000000
# 5 0.000000 0.000000 0.000000 0.000000 0.016213 0.000000
# 6 0.000000 0.000000 0.000000 0.000000 0.000000 0.016140
#
#
# Mechanical properties :
#
#
# Convention : Reuss Voigt Hill
#
# Bulk Modulus (GPa) = 105.92443 113.91996 109.92219
# Shear Modulus (GPa) = 34.47401 51.57738 43.02570
#
# Velocity S-wave (km/s) = 3.67274 4.49236 4.10307
# Velocity P-wave (km/s) = 7.70919 8.45477 8.09057
#
# Compressibility (1/GPa) = 0.00944069
#
# Stress axis : x y z
#
# Youngs Moduli (GPa) = 107.52242 157.37020 194.08077
#
# Poissons Ratio (x) = 0.33078 0.40955
# Poissons Ratio (y) = 0.22600 0.28553
# Poissons Ratio (z) = 0.22689 0.23152
#
# Static dielectric constant tensor:
#      x y z
#    x 2.297660 0.000000 0.000000 
#    y 0.000000 1.990320 0.000000 
#    z 0.000000 0.000000 0.711580 
# 
# From -- ./inp_files/2385.got.cif
#   From: 2010.05.17/outbox.cif.g08.bks.cpg/sg66_2_cif.got.tgz:2385.got - 2010.06.03 17:51:23.
