data_PCOD9499555
_publ_section_title
;
Structure prediction by ZEFSAII (Michael W. Deem and Ramdas Pophale) SiO2 
 PCOD9499555
Probable space group: C C C M
;
_chemical_formula_sum "Si O2"
_cell_formula_units_Z 128
_cell_length_a 18.791261
_cell_length_b 21.591770
_cell_length_c 14.769168
_cell_angle_alpha 90.000000
_cell_angle_beta 90.000000
_cell_angle_gamma 90.000000
_cell_volume 5992.391795
_symmetry_space_group_name_H-M "C C C M"
_symmetry_group_IT_number 66
_symmetry_cell_setting 'orthorhombic'
loop_
_space_group_symop_operation_xyz
x,y,z
-x,-y,z
x,-y,1/2-z
-x,y,1/2-z
-x,-y,-z
x,y,-z
-x,y,1/2+z
x,-y,1/2+z
1/2+x,1/2+y,z
1/2-x,1/2-y,z
1/2+x,1/2-y,1/2-z
1/2-x,1/2+y,1/2-z
1/2-x,1/2-y,-z
1/2+x,1/2+y,-z
1/2-x,1/2+y,1/2+z
1/2+x,1/2-y,1/2+z
loop_
_atom_site_type_symbol
_atom_site_label
_atom_site_fract_x
_atom_site_fract_y
_atom_site_fract_z
Si Si1 0.433814 0.324270 0.109614
Si Si2 0.408712 0.179603 0.599813
Si Si3 0.186812 0.067249 0.390225
Si Si4 0.352104 0.052040 0.390366
Si Si5 0.945292 0.308314 0.665506
Si Si6 0.839993 0.414447 0.389582
Si Si7 0.098857 0.815407 0.889502
Si Si8 0.325488 0.430206 0.889792
O O1 0.411740 0.259190 0.153057
O O2 0.517153 0.331409 0.133512
O O3 0.383517 0.380244 0.139106
O O4 0.429267 0.319844 0.000000
O O5 0.374506 0.177343 0.500000
O O6 0.393301 0.112742 0.642388
O O7 0.493302 0.185646 0.590366
O O8 0.383899 0.245119 0.641630
O O9 0.181388 0.068520 0.500000
O O10 0.269952 0.064949 0.368408
O O11 0.149035 0.129331 0.357256
O O12 0.157171 0.000459 0.360507
O O13 0.359620 0.049018 0.500000
O O14 0.369165 0.982250 0.360603
O O15 0.886699 0.360506 0.653316
O O16 0.000000 0.312101 0.750000
O O17 0.843970 0.409672 0.500000
O O18 0.756036 0.413620 0.364774
O O19 0.102189 0.813000 0.000000
O O20 0.325750 0.430884 0.000000
#
# Coordination Sequence:
#
# PCOD9499555 Si02
#       8
#    16  16  16  16  16  16  16  16
#     4   9  17  31  50  75 102 130 162 201 245 297
#     4   9  17  31  48  69  94 125 165 206 244 291
#     4   8  13  23  40  71 106 130 156 200 248 287
#     4   8  15  27  46  69  96 127 163 205 247 287
#     4  11  22  34  48  67  94 128 162 203 253 301
#     4   9  17  32  52  75 100 129 163 204 249 298
#     4   8  14  23  40  67 102 133 157 190 236 283
#     4   8  15  27  48  77 105 128 159 201 249 298
#
# _framework density 21.360417999999999
#
# number of rings (size 3 to 8) (size 9 to 14) (size 15 to 20)
#    0.000    3.250    0.000    3.375    0.000    2.000 
#    0.000   10.000    0.000    6.000    0.000   10.500 
#    0.000    0.000    0.000    0.000    0.000    0.000 
#
# Total GULP energy -356683.272091 kJ/mol
# GULP energy per Si atom -5573.176126 kJ/mol
# Density = 2.131180 g / cm^3
# Si number density = 21.360418 Si / 1000 Ang^3
#
#
#
# Elastic Constant Matrix: (Units=GPa)
#
#
# Indices 1 2 3 4 5 6 
#
# 1 368.6429 675.6253 242.0763 0.0000 0.0000 0.0000
# 2 675.6253 1288.1425 442.9680 0.0000 0.0000 0.0000
# 3 242.0763 442.9680 249.9877 0.0000 0.0000 0.0000
# 4 0.0000 0.0000 0.0000 -285.3338 0.0000 0.0000
# 5 0.0000 0.0000 0.0000 0.0000 1.9309 0.0000
# 6 0.0000 0.0000 0.0000 0.0000 0.0000 51.6550
#
#
#
# Elastic Compliance Matrix: (Units=1/GPa)
#
#
# Indices 1 2 3 4 5 6 
#
# 1 0.075140 -0.036833 -0.007495 0.000000 0.000000 0.000000
# 2 -0.036833 0.020043 0.000153 0.000000 0.000000 0.000000
# 3 -0.007495 0.000153 0.010987 0.000000 0.000000 0.000000
# 4 0.000000 0.000000 0.000000 -0.003505 0.000000 0.000000
# 5 0.000000 0.000000 0.000000 0.000000 0.517894 0.000000
# 6 0.000000 0.000000 0.000000 0.000000 0.000000 0.019359
#
#
# Mechanical properties :
#
#
# Convention : Reuss Voigt Hill
#
# Bulk Modulus (GPa) = 56.12023 514.23471 285.17747
# Shear Modulus (GPa) = 6.81005 -9.94268 -1.56632
#
# Velocity S-wave (km/s) = 1.78748 -2.15982 -0.85725
# Velocity P-wave (km/s) = 5.53084 15.33117 11.52464
#
# Compressibility (1/GPa) = 0.01781889
#
# Stress axis : x y z
#
# Youngs Moduli (GPa) = 13.30855 49.89395 91.01406
#
# Poissons Ratio (x) = 1.83774 0.68216
# Poissons Ratio (y) = 0.49019 -0.01391
# Poissons Ratio (z) = 0.09975 -0.00763
#
# Static dielectric constant tensor:
#      x y z
#    x 1.715340 0.000000 0.000000 
#    y 0.000000 1.788790 0.000000 
#    z 0.000000 0.000000 2.401410 
# 
# From -- ./inp_files/43179.got.cif
#   From: 2010.05.17/outbox.cif.g08.bks.cpg/sg66_22_cif.got.tgz:43179.got - 2010.06.03 17:51:23.
