data_PCOD9499451
_publ_section_title
;
Structure prediction by ZEFSAII (Michael W. Deem and Ramdas Pophale) SiO2 
 PCOD9499451
Probable space group: C C C M
;
_chemical_formula_sum "Si O2"
_cell_formula_units_Z 96
_cell_length_a 22.544321
_cell_length_b 10.059034
_cell_length_c 22.958007
_cell_angle_alpha 90.000000
_cell_angle_beta 90.000000
_cell_angle_gamma 90.000000
_cell_volume 5206.281179
_symmetry_space_group_name_H-M "C C C M"
_symmetry_group_IT_number 66
_symmetry_cell_setting 'orthorhombic'
loop_
_space_group_symop_operation_xyz
x,y,z
-x,-y,z
x,-y,1/2-z
-x,y,1/2-z
-x,-y,-z
x,y,-z
-x,y,1/2+z
x,-y,1/2+z
1/2+x,1/2+y,z
1/2-x,1/2-y,z
1/2+x,1/2-y,1/2-z
1/2-x,1/2+y,1/2-z
1/2-x,1/2-y,-z
1/2+x,1/2+y,-z
1/2-x,1/2+y,1/2+z
1/2+x,1/2-y,1/2+z
loop_
_atom_site_type_symbol
_atom_site_label
_atom_site_fract_x
_atom_site_fract_y
_atom_site_fract_z
Si Si1 0.926050 0.749582 0.131729
Si Si2 0.894960 0.514714 0.431918
Si Si3 0.860999 0.018259 0.569896
Si Si4 0.235947 0.399792 0.429534
Si Si5 0.937147 0.776807 0.621146
Si Si6 0.428082 0.846978 0.245006
O O1 0.924383 0.601177 0.105567
O O2 0.907861 0.736538 0.199118
O O3 0.992975 0.804686 0.127173
O O4 0.883225 0.842948 0.095027
O O5 0.894851 0.477956 0.500000
O O6 0.827366 0.542339 0.411220
O O7 0.928265 0.653800 0.422745
O O8 0.867690 0.013304 0.500000
O O9 0.792400 0.989920 0.584264
O O10 0.900454 0.901568 0.598234
O O11 0.231877 0.390877 0.500000
O O12 0.250000 0.250000 0.408484
O O13 0.914698 0.721924 0.683637
O O14 0.500000 0.851874 0.250000
O O15 0.407289 0.000000 0.250000
#
# Coordination Sequence:
#
# PCOD9499451 Si02
#       6
#    16  16  16  16  16  16
#     4  11  23  36  55  87 120 148 182 236 294 333
#     4  11  21  34  58  86 111 147 192 235 280 337
#     4  11  23  38  57  84 120 154 185 233 290 341
#     4   9  18  36  58  78 106 153 202 227 262 339
#     4  11  21  36  60  83 113 155 190 227 282 346
#     4   9  18  36  58  80 110 152 198 231 265 331
#
# _framework density 18.439264999999999
#
# number of rings (size 3 to 8) (size 9 to 14) (size 15 to 20)
#    0.000    1.667    3.333    2.000    0.000    5.333 
#    0.000    5.000    0.000    6.000    0.000    0.000 
#    0.000    0.000    0.000    0.000    0.000    0.000 
#
# Total GULP energy -267966.514943 kJ/mol
# GULP energy per Si atom -5582.635728 kJ/mol
# Density = 1.839730 g / cm^3
# Si number density = 18.439265 Si / 1000 Ang^3
#
#
#
# Elastic Constant Matrix: (Units=GPa)
#
#
# Indices 1 2 3 4 5 6 
#
# 1 57.1369 -7.5170 9.6841 0.0000 0.0000 0.0000
# 2 -7.5170 32.5924 -2.9183 0.0000 0.0000 0.0000
# 3 9.6841 -2.9183 74.8588 0.0000 0.0000 0.0000
# 4 0.0000 0.0000 0.0000 29.1729 0.0000 0.0000
# 5 0.0000 0.0000 0.0000 0.0000 -21.5499 0.0000
# 6 0.0000 0.0000 0.0000 0.0000 0.0000 22.4355
#
#
#
# Elastic Compliance Matrix: (Units=1/GPa)
#
#
# Indices 1 2 3 4 5 6 
#
# 1 0.018411 0.004047 -0.002224 0.000000 0.000000 0.000000
# 2 0.004047 0.031679 0.000711 0.000000 0.000000 0.000000
# 3 -0.002224 0.000711 0.013674 0.000000 0.000000 0.000000
# 4 0.000000 0.000000 0.000000 0.034278 0.000000 0.000000
# 5 0.000000 0.000000 0.000000 0.000000 -0.046404 0.000000
# 6 0.000000 0.000000 0.000000 0.000000 0.000000 0.044572
#
#
# Mechanical properties :
#
#
# Convention : Reuss Voigt Hill
#
# Bulk Modulus (GPa) = 14.52781 18.12064 16.32423
# Shear Modulus (GPa) = 43.82646 17.03432 30.43039
#
# Velocity S-wave (km/s) = 4.88053 3.04272 4.06680
# Velocity P-wave (km/s) = 6.29725 4.71091 5.56094
#
# Compressibility (1/GPa) = 0.06883348
#
# Stress axis : x y z
#
# Youngs Moduli (GPa) = 54.31472 31.56652 73.13194
#
# Poissons Ratio (x) = -0.12776 0.16264
# Poissons Ratio (y) = -0.21982 -0.05203
# Poissons Ratio (z) = 0.12080 -0.02246
#
# Static dielectric constant tensor:
#      x y z
#    x 1.625370 0.000000 0.000000 
#    y 0.000000 1.613440 0.000000 
#    z 0.000000 0.000000 1.632940 
# 
# From -- ./inp_files/55620.got.cif
#   From: 2010.05.17/outbox.cif.g08.bks.cpg/sg66_28_cif.got.tgz:55620.got - 2010.06.03 17:51:23.
