data_PCOD9499971
_publ_section_title
;
Structure prediction by ZEFSAII (Michael W. Deem and Ramdas Pophale) SiO2 
 PCOD9499971
Probable space group: C C C M
;
_chemical_formula_sum "Si O2"
_cell_formula_units_Z 64
_cell_length_a 11.946669
_cell_length_b 14.201569
_cell_length_c 15.569327
_cell_angle_alpha 90.000000
_cell_angle_beta 90.000000
_cell_angle_gamma 90.000000
_cell_volume 2641.514503
_symmetry_space_group_name_H-M "C C C M"
_symmetry_group_IT_number 66
_symmetry_cell_setting 'orthorhombic'
loop_
_space_group_symop_operation_xyz
x,y,z
-x,-y,z
x,-y,1/2-z
-x,y,1/2-z
-x,-y,-z
x,y,-z
-x,y,1/2+z
x,-y,1/2+z
1/2+x,1/2+y,z
1/2-x,1/2-y,z
1/2+x,1/2-y,1/2-z
1/2-x,1/2+y,1/2-z
1/2-x,1/2-y,-z
1/2+x,1/2+y,-z
1/2-x,1/2+y,1/2+z
1/2+x,1/2-y,1/2+z
loop_
_atom_site_type_symbol
_atom_site_label
_atom_site_fract_x
_atom_site_fract_y
_atom_site_fract_z
Si Si1 0.262045 0.387340 0.158270
Si Si2 0.356642 0.183119 0.000000
Si Si3 0.753975 0.110065 0.850517
Si Si4 0.927031 0.399166 0.000000
Si Si5 0.996295 0.892430 0.354593
O O1 0.279160 0.499100 0.161159
O O2 0.229846 0.354825 0.253808
O O3 0.382795 0.346845 0.126273
O O4 0.168030 0.371727 0.088611
O O5 0.250000 0.250000 0.000000
O O6 0.488789 0.189381 0.000000
O O7 0.875732 0.150205 0.878756
O O8 0.654214 0.111782 0.917831
O O9 0.000000 0.500000 0.000000
O O10 0.000000 0.896445 0.250000
O O11 0.000000 0.000000 0.389226
#
# Coordination Sequence:
#
# PCOD9499971 Si02
#       5
#    16   8  16   8  16
#     4   9  17  34  59  90 120 160 203 260 330 386
#     4  12  26  41  55  79 129 178 218 249 329 431
#     4   9  17  32  61  94 122 144 203 283 331 365
#     4  12  22  37  57  95 129 160 220 284 330 390
#     4   7  12  25  51  87 117 141 182 247 321 384
#
# _framework density 24.228525000000001
#
# number of rings (size 3 to 8) (size 9 to 14) (size 15 to 20)
#    0.000    2.750    2.500    3.000    0.000    2.000 
#    0.000    3.750   16.500    1.500    0.000    0.000 
#    0.000    0.000    0.000    0.000    0.000    0.000 
#
# Total GULP energy -178235.948223 kJ/mol
# GULP energy per Si atom -5569.873382 kJ/mol
# Density = 2.417338 g / cm^3
# Si number density = 24.228525 Si / 1000 Ang^3
#
#
#
# Elastic Constant Matrix: (Units=GPa)
#
#
# Indices 1 2 3 4 5 6 
#
# 1 202.6465 8.9024 108.0464 0.0000 0.0000 0.0000
# 2 8.9024 58.9822 17.5134 0.0000 0.0000 0.0000
# 3 108.0464 17.5134 128.7818 0.0000 0.0000 0.0000
# 4 0.0000 0.0000 0.0000 19.5832 0.0000 0.0000
# 5 0.0000 0.0000 0.0000 0.0000 63.5160 0.0000
# 6 0.0000 0.0000 0.0000 0.0000 0.0000 26.3138
#
#
#
# Elastic Compliance Matrix: (Units=1/GPa)
#
#
# Indices 1 2 3 4 5 6 
#
# 1 0.008976 0.000918 -0.007656 0.000000 0.000000 0.000000
# 2 0.000918 0.017762 -0.003186 0.000000 0.000000 0.000000
# 3 -0.007656 -0.003186 0.014622 0.000000 0.000000 0.000000
# 4 0.000000 0.000000 0.000000 0.051064 0.000000 0.000000
# 5 0.000000 0.000000 0.000000 0.000000 0.015744 0.000000
# 6 0.000000 0.000000 0.000000 0.000000 0.000000 0.038003
#
#
# Mechanical properties :
#
#
# Convention : Reuss Voigt Hill
#
# Bulk Modulus (GPa) = 46.48449 73.25944 59.87196
# Shear Modulus (GPa) = 28.87025 38.94581 33.90803
#
# Velocity S-wave (km/s) = 3.45567 4.01363 3.74506
# Velocity P-wave (km/s) = 5.92872 7.19594 6.59285
#
# Compressibility (1/GPa) = 0.02151255
#
# Stress axis : x y z
#
# Youngs Moduli (GPa) = 111.40438 56.30102 68.39217
#
# Poissons Ratio (x) = -0.05171 0.52360
# Poissons Ratio (y) = -0.10232 0.21790
# Poissons Ratio (z) = 0.85290 0.17937
#
# Static dielectric constant tensor:
#      x y z
#    x 1.978620 0.000000 0.000000 
#    y 0.000000 2.037570 0.000000 
#    z 0.000000 0.000000 1.929470 
# 
# From -- ./inp_files/25858.got.cif
#   From: 2010.05.17/outbox.cif.g08.bks.cpg/sg66_13_cif.got.tgz:25858.got - 2010.06.03 17:51:23.
