data_PCOD9499358
_publ_section_title
;
Structure prediction by ZEFSAII (Michael W. Deem and Ramdas Pophale) SiO2 
 PCOD9499358
Probable space group: C C C M
;
_chemical_formula_sum "Si O2"
_cell_formula_units_Z 72
_cell_length_a 22.383775
_cell_length_b 12.992300
_cell_length_c 9.699579
_cell_angle_alpha 90.000000
_cell_angle_beta 90.000000
_cell_angle_gamma 90.000000
_cell_volume 2820.799750
_symmetry_space_group_name_H-M "C C C M"
_symmetry_group_IT_number 66
_symmetry_cell_setting 'orthorhombic'
loop_
_space_group_symop_operation_xyz
x,y,z
-x,-y,z
x,-y,1/2-z
-x,y,1/2-z
-x,-y,-z
x,y,-z
-x,y,1/2+z
x,-y,1/2+z
1/2+x,1/2+y,z
1/2-x,1/2-y,z
1/2+x,1/2-y,1/2-z
1/2-x,1/2+y,1/2-z
1/2-x,1/2-y,-z
1/2+x,1/2+y,-z
1/2-x,1/2+y,1/2+z
1/2+x,1/2-y,1/2+z
loop_
_atom_site_type_symbol
_atom_site_label
_atom_site_fract_x
_atom_site_fract_y
_atom_site_fract_z
Si Si1 0.908155 0.500000 0.750000
Si Si2 0.847135 0.380911 0.500000
Si Si3 0.000000 0.657944 0.750000
Si Si4 0.634838 0.364304 0.500000
Si Si5 0.279558 0.940131 0.000000
Si Si6 0.014032 0.791572 0.500000
Si Si7 0.204900 0.160131 0.741282
Si Si8 0.627335 0.759739 0.500000
O O1 0.874211 0.433200 0.637727
O O2 0.952093 0.416759 0.820544
O O3 0.854424 0.260164 0.500000
O O4 0.783702 0.436924 0.500000
O O5 0.029778 0.728502 0.636933
O O6 0.562924 0.383228 0.500000
O O7 0.667448 0.396430 0.640243
O O8 0.245896 0.904837 0.862759
O O9 0.342849 0.875748 0.000000
O O10 0.941445 0.782057 0.500000
O O11 0.250000 0.250000 0.795030
O O12 0.157112 0.212848 0.637760
#
# Coordination Sequence:
#
# PCOD9499358 Si02
#       8
#     8   8   8   8   8   8  16   8
#     4  11  22  36  46  72 118 154 198 237 278 330
#     4  12  25  36  55  82 112 145 210 253 296 328
#     4  11  20  32  46  66 112 168 192 222 275 323
#     4  12  23  36  53  90 116 145 193 271 291 338
#     4   9  20  40  60  73 102 167 209 243 292 365
#     4  12  21  32  51  81 116 155 196 247 286 334
#     4   9  20  38  57  74 105 156 207 245 302 340
#     4   9  18  34  56  74 104 156 206 229 270 371
#
# _framework density 25.524677000000001
#
# number of rings (size 3 to 8) (size 9 to 14) (size 15 to 20)
#    0.000    1.556    2.222    5.000    6.222    1.778 
#    0.000    0.000    0.000    0.000    0.000    0.000 
#    0.000    0.000    0.000  136.000    0.000    4.444 
#
# Total GULP energy -201205.763770 kJ/mol
# GULP energy per Si atom -5589.048994 kJ/mol
# Density = 2.546658 g / cm^3
# Si number density = 25.524677 Si / 1000 Ang^3
#
#
#
# Elastic Constant Matrix: (Units=GPa)
#
#
# Indices 1 2 3 4 5 6 
#
# 1 179.2478 9.1540 36.5121 0.0000 0.0000 0.0000
# 2 9.1540 30.0631 1.4390 0.0000 0.0000 0.0000
# 3 36.5121 1.4390 118.8986 0.0000 0.0000 0.0000
# 4 0.0000 0.0000 0.0000 -61.4398 0.0000 0.0000
# 5 0.0000 0.0000 0.0000 0.0000 15.7255 0.0000
# 6 0.0000 0.0000 0.0000 0.0000 0.0000 31.2994
#
#
#
# Elastic Compliance Matrix: (Units=1/GPa)
#
#
# Indices 1 2 3 4 5 6 
#
# 1 0.006042 -0.001752 -0.001834 0.000000 0.000000 0.000000
# 2 -0.001752 0.033791 0.000129 0.000000 0.000000 0.000000
# 3 -0.001834 0.000129 0.008972 0.000000 0.000000 0.000000
# 4 0.000000 0.000000 0.000000 -0.016276 0.000000 0.000000
# 5 0.000000 0.000000 0.000000 0.000000 0.063591 0.000000
# 6 0.000000 0.000000 0.000000 0.000000 0.000000 0.031950
#
#
# Mechanical properties :
#
#
# Convention : Reuss Voigt Hill
#
# Bulk Modulus (GPa) = 23.87169 46.93551 35.40360
# Shear Modulus (GPa) = 33.56900 15.85730 24.71315
#
# Velocity S-wave (km/s) = 3.63045 2.49520 3.11498
# Velocity P-wave (km/s) = 5.19097 5.17007 5.18053
#
# Compressibility (1/GPa) = 0.04189062
#
# Stress axis : x y z
#
# Youngs Moduli (GPa) = 165.50925 29.59401 111.45516
#
# Poissons Ratio (x) = 0.05185 0.20443
# Poissons Ratio (y) = 0.28996 -0.01438
# Poissons Ratio (z) = 0.30358 -0.00382
#
# Static dielectric constant tensor:
#      x y z
#    x 2.165950 0.000000 0.000000 
#    y 0.000000 2.023040 0.000000 
#    z 0.000000 0.000000 1.928870 
# 
# From -- ./inp_files/8864.got.cif
#   From: 2010.05.17/outbox.cif.g08.bks.cpg/sg66_5_cif.got.tgz:8864.got - 2010.06.03 17:51:23.
