data_PCOD9499333
_publ_section_title
;
Structure prediction by ZEFSAII (Michael W. Deem and Ramdas Pophale) SiO2 
 PCOD9499333
Probable space group: C C C M
;
_chemical_formula_sum "Si O2"
_cell_formula_units_Z 60
_cell_length_a 22.187310
_cell_length_b 7.048470
_cell_length_c 14.764043
_cell_angle_alpha 90.000000
_cell_angle_beta 90.000000
_cell_angle_gamma 90.000000
_cell_volume 2308.898323
_symmetry_space_group_name_H-M "C C C M"
_symmetry_group_IT_number 66
_symmetry_cell_setting 'orthorhombic'
loop_
_space_group_symop_operation_xyz
x,y,z
-x,-y,z
x,-y,1/2-z
-x,y,1/2-z
-x,-y,-z
x,y,-z
-x,y,1/2+z
x,-y,1/2+z
1/2+x,1/2+y,z
1/2-x,1/2-y,z
1/2+x,1/2-y,1/2-z
1/2-x,1/2+y,1/2-z
1/2-x,1/2-y,-z
1/2+x,1/2+y,-z
1/2-x,1/2+y,1/2+z
1/2+x,1/2-y,1/2+z
loop_
_atom_site_type_symbol
_atom_site_label
_atom_site_fract_x
_atom_site_fract_y
_atom_site_fract_z
Si Si1 0.913625 0.358574 0.500000
Si Si2 0.150401 0.220736 0.355534
Si Si3 0.511622 0.726523 0.644545
Si Si4 0.178737 0.228229 0.148303
Si Si5 0.750000 0.750000 0.500000
O O1 0.861379 0.342256 0.421050
O O2 0.965617 0.326822 0.578747
O O3 0.081314 0.263085 0.380333
O O4 0.163588 0.274842 0.252251
O O5 0.200218 0.299185 0.421653
O O6 0.159507 0.992264 0.364275
O O7 0.500000 0.500000 0.635114
O O8 0.500000 0.772499 0.750000
O O9 0.250000 0.250000 0.132443
#
# Coordination Sequence:
#
# PCOD9499333 Si02
#       5
#     8  16  16  16   4
#     4  12  20  31  56  82 118 151 182 238 307 351
#     4  11  22  39  59  87 127 152 198 239 289 364
#     4  11  19  34  56  85 120 145 183 250 312 347
#     4  11  22  38  56  87 126 158 193 239 290 353
#     4  12  24  38  60  82 122 170 190 236 292 358
#
# _framework density 25.986419000000001
#
# number of rings (size 3 to 8) (size 9 to 14) (size 15 to 20)
#    0.000    0.800    6.667    4.000    0.000    0.000 
#    0.000    0.000    0.000    0.000    0.000   14.933 
#    0.000    0.000    0.000    0.000    0.000    0.000 
#
# Total GULP energy -167024.298446 kJ/mol
# GULP energy per Si atom -5567.476615 kJ/mol
# Density = 2.592727 g / cm^3
# Si number density = 25.986419 Si / 1000 Ang^3
#
#
#
# Elastic Constant Matrix: (Units=GPa)
#
#
# Indices 1 2 3 4 5 6 
#
# 1 367.3799 41.4228 124.1377 0.0000 0.0000 0.0000
# 2 41.4228 117.6355 20.8148 0.0000 0.0000 0.0000
# 3 124.1377 20.8148 218.0389 0.0000 0.0000 0.0000
# 4 0.0000 0.0000 0.0000 -24.9479 0.0000 0.0000
# 5 0.0000 0.0000 0.0000 0.0000 79.6298 0.0000
# 6 0.0000 0.0000 0.0000 0.0000 0.0000 16.9373
#
#
#
# Elastic Compliance Matrix: (Units=1/GPa)
#
#
# Indices 1 2 3 4 5 6 
#
# 1 0.003459 -0.000884 -0.001885 0.000000 0.000000 0.000000
# 2 -0.000884 0.008873 -0.000344 0.000000 0.000000 0.000000
# 3 -0.001885 -0.000344 0.005692 0.000000 0.000000 0.000000
# 4 0.000000 0.000000 0.000000 -0.040084 0.000000 0.000000
# 5 0.000000 0.000000 0.000000 0.000000 0.012558 0.000000
# 6 0.000000 0.000000 0.000000 0.000000 0.000000 0.059041
#
#
# Mechanical properties :
#
#
# Convention : Reuss Voigt Hill
#
# Bulk Modulus (GPa) = 84.75602 119.53388 102.14495
# Shear Modulus (GPa) = 83.75590 48.76913 66.26252
#
# Velocity S-wave (km/s) = 5.68336 4.33681 5.05512
# Velocity P-wave (km/s) = 8.70367 8.43657 8.57116
#
# Compressibility (1/GPa) = 0.01179857
#
# Stress axis : x y z
#
# Youngs Moduli (GPa) = 289.14183 112.70103 175.68125
#
# Poissons Ratio (x) = 0.09967 0.33110
# Poissons Ratio (y) = 0.25571 0.06035
# Poissons Ratio (z) = 0.54493 0.03872
#
# Static dielectric constant tensor:
#      x y z
#    x 1.950520 0.000000 0.000000 
#    y 0.000000 2.377130 0.000000 
#    z 0.000000 0.000000 1.922340 
# 
# From -- ./inp_files/26026.got.cif
#   From: 2010.05.17/outbox.cif.g08.bks.cpg/sg66_14_cif.got.tgz:26026.got - 2010.06.03 17:51:23.
