data_PCOD9499993
_publ_section_title
;
Structure prediction by ZEFSAII (Michael W. Deem and Ramdas Pophale) SiO2 
 PCOD9499993
Probable space group: C C C M
;
_chemical_formula_sum "Si O2"
_cell_formula_units_Z 36
_cell_length_a 7.094782
_cell_length_b 8.645265
_cell_length_c 26.723759
_cell_angle_alpha 90.000000
_cell_angle_beta 90.000000
_cell_angle_gamma 90.000000
_cell_volume 1639.135711
_symmetry_space_group_name_H-M "C C C M"
_symmetry_group_IT_number 66
_symmetry_cell_setting 'orthorhombic'
loop_
_space_group_symop_operation_xyz
x,y,z
-x,-y,z
x,-y,1/2-z
-x,y,1/2-z
-x,-y,-z
x,y,-z
-x,y,1/2+z
x,-y,1/2+z
1/2+x,1/2+y,z
1/2-x,1/2-y,z
1/2+x,1/2-y,1/2-z
1/2-x,1/2+y,1/2-z
1/2-x,1/2-y,-z
1/2+x,1/2+y,-z
1/2-x,1/2+y,1/2+z
1/2+x,1/2-y,1/2+z
loop_
_atom_site_type_symbol
_atom_site_label
_atom_site_fract_x
_atom_site_fract_y
_atom_site_fract_z
Si Si1 0.250000 0.750000 0.189267
Si Si2 0.541455 0.319259 0.000000
Si Si3 0.554990 0.825383 0.105775
Si Si4 0.000000 0.000000 0.250000
O O1 0.410615 0.805732 0.151230
O O2 0.355712 0.614607 0.220255
O O3 0.500000 0.500000 0.000000
O O4 0.750000 0.250000 0.000000
O O5 0.465439 0.264030 0.946586
O O6 0.750000 0.750000 0.125560
O O7 0.500000 0.000000 0.090217
#
# Coordination Sequence:
#
# PCOD9499993 Si02
#       4
#     8   8  16   4
#     4  12  30  53  76 112 148 197 260 328 390 458
#     4  12  24  44  72 111 159 194 244 305 380 463
#     4  12  26  47  78 109 151 201 249 308 385 467
#     4  12  32  52  84 110 158 202 268 342 392 460
#
# _framework density 21.962793999999999
#
# number of rings (size 3 to 8) (size 9 to 14) (size 15 to 20)
#    0.000    0.000    2.222    6.667   12.444    0.000 
#    0.000    0.000    0.000    0.000    0.000    0.000 
#    0.000    0.000    0.000    0.000    0.000    0.000 
#
# Total GULP energy -100236.926575 kJ/mol
# GULP energy per Si atom -5568.718143 kJ/mol
# Density = 2.191281 g / cm^3
# Si number density = 21.962794 Si / 1000 Ang^3
#
#
#
# Elastic Constant Matrix: (Units=GPa)
#
#
# Indices 1 2 3 4 5 6 
#
# 1 180.7871 71.4604 58.1728 0.0000 0.0000 0.0000
# 2 71.4604 239.1414 101.7083 0.0000 0.0000 0.0000
# 3 58.1728 101.7083 158.6746 0.0000 0.0000 0.0000
# 4 0.0000 0.0000 0.0000 182.6195 0.0000 0.0000
# 5 0.0000 0.0000 0.0000 0.0000 196.8433 0.0000
# 6 0.0000 0.0000 0.0000 0.0000 0.0000 43.2688
#
#
#
# Elastic Compliance Matrix: (Units=1/GPa)
#
#
# Indices 1 2 3 4 5 6 
#
# 1 0.006547 -0.001286 -0.001576 0.000000 0.000000 0.000000
# 2 -0.001286 0.006002 -0.003375 0.000000 0.000000 0.000000
# 3 -0.001576 -0.003375 0.009043 0.000000 0.000000 0.000000
# 4 0.000000 0.000000 0.000000 0.005476 0.000000 0.000000
# 5 0.000000 0.000000 0.000000 0.000000 0.005080 0.000000
# 6 0.000000 0.000000 0.000000 0.000000 0.000000 0.023111
#
#
# Mechanical properties :
#
#
# Convention : Reuss Voigt Hill
#
# Bulk Modulus (GPa) = 109.68241 115.69845 112.69043
# Shear Modulus (GPa) = 70.64858 107.69708 89.17283
#
# Velocity S-wave (km/s) = 5.67778 7.01018 6.37886
# Velocity P-wave (km/s) = 9.64528 10.87737 10.27980
#
# Compressibility (1/GPa) = 0.00911723
#
# Stress axis : x y z
#
# Youngs Moduli (GPa) = 152.74675 166.62446 110.57687
#
# Poissons Ratio (x) = 0.21430 0.17424
# Poissons Ratio (y) = 0.19645 0.37324
# Poissons Ratio (z) = 0.24069 0.56242
#
# Static dielectric constant tensor:
#      x y z
#    x 1.821870 0.000000 0.000000 
#    y 0.000000 1.712010 0.000000 
#    z 0.000000 0.000000 1.794120 
# 
# From -- ./inp_files/46034.got.cif
#   From: 2010.05.17/outbox.cif.g08.bks.cpg/sg66_24_cif.got.tgz:46034.got - 2010.06.03 17:51:23.
