data_PCOD9499581
_publ_section_title
;
Structure prediction by ZEFSAII (Michael W. Deem and Ramdas Pophale) SiO2 
 PCOD9499581
Probable space group: C C C M
;
_chemical_formula_sum "Si O2"
_cell_formula_units_Z 80
_cell_length_a 14.968224
_cell_length_b 11.122597
_cell_length_c 22.143443
_cell_angle_alpha 90.000000
_cell_angle_beta 90.000000
_cell_angle_gamma 90.000000
_cell_volume 3686.562697
_symmetry_space_group_name_H-M "C C C M"
_symmetry_group_IT_number 66
_symmetry_cell_setting 'orthorhombic'
loop_
_space_group_symop_operation_xyz
x,y,z
-x,-y,z
x,-y,1/2-z
-x,y,1/2-z
-x,-y,-z
x,y,-z
-x,y,1/2+z
x,-y,1/2+z
1/2+x,1/2+y,z
1/2-x,1/2-y,z
1/2+x,1/2-y,1/2-z
1/2-x,1/2+y,1/2-z
1/2-x,1/2-y,-z
1/2+x,1/2+y,-z
1/2-x,1/2+y,1/2+z
1/2+x,1/2-y,1/2+z
loop_
_atom_site_type_symbol
_atom_site_label
_atom_site_fract_x
_atom_site_fract_y
_atom_site_fract_z
Si Si1 0.682998 0.643103 0.813255
Si Si2 0.990280 0.130071 0.602131
Si Si3 0.145473 0.503336 0.819436
Si Si4 0.566345 0.887132 0.064237
Si Si5 0.851712 0.227701 0.824057
O O1 0.750000 0.750000 0.833411
O O2 0.596034 0.627270 0.853690
O O3 0.747963 0.526350 0.815271
O O4 0.653556 0.685590 0.745887
O O5 0.976959 0.254729 0.566651
O O6 0.081073 0.144791 0.640270
O O7 0.000000 0.000000 0.570931
O O8 0.114413 0.500000 0.750000
O O9 0.111942 0.414052 0.871206
O O10 0.113599 0.636872 0.834625
O O11 0.500000 0.000000 0.060284
O O12 0.619909 0.891141 0.000000
O O13 0.750000 0.250000 0.844739
#
# Coordination Sequence:
#
# PCOD9499581 Si02
#       5
#    16  16  16  16  16
#     4  11  22  37  62 104 148 181 222 299 365 420
#     4  12  25  41  66 101 141 188 238 291 367 422
#     4  12  21  40  70 101 142 184 237 287 363 424
#     4  11  25  47  72 101 140 188 245 303 356 430
#     4  11  22  38  62  99 144 189 229 295 353 433
#
# _framework density 21.700430999999998
#
# number of rings (size 3 to 8) (size 9 to 14) (size 15 to 20)
#    0.000    0.600    8.000    1.800    0.000    1.600 
#    0.000    2.000    0.000    4.800    0.000    0.000 
#    0.000    0.000    0.000    0.000    0.000    0.000 
#
# Total GULP energy -222755.895556 kJ/mol
# GULP energy per Si atom -5568.897389 kJ/mol
# Density = 2.165104 g / cm^3
# Si number density = 21.700431 Si / 1000 Ang^3
#
#
#
# Elastic Constant Matrix: (Units=GPa)
#
#
# Indices 1 2 3 4 5 6 
#
# 1 85.8881 18.6290 56.7855 0.0000 0.0000 0.0000
# 2 18.6290 164.6471 49.2831 0.0000 0.0000 0.0000
# 3 56.7855 49.2831 127.6320 0.0000 0.0000 0.0000
# 4 0.0000 0.0000 0.0000 -69.6711 0.0000 0.0000
# 5 0.0000 0.0000 0.0000 0.0000 20.4425 0.0000
# 6 0.0000 0.0000 0.0000 0.0000 0.0000 41.1797
#
#
#
# Elastic Compliance Matrix: (Units=1/GPa)
#
#
# Indices 1 2 3 4 5 6 
#
# 1 0.016516 0.000374 -0.007493 0.000000 0.000000 0.000000
# 2 0.000374 0.006876 -0.002821 0.000000 0.000000 0.000000
# 3 -0.007493 -0.002821 0.012258 0.000000 0.000000 0.000000
# 4 0.000000 0.000000 0.000000 -0.014353 0.000000 0.000000
# 5 0.000000 0.000000 0.000000 0.000000 0.048918 0.000000
# 6 0.000000 0.000000 0.000000 0.000000 0.000000 0.024284
#
#
# Mechanical properties :
#
#
# Convention : Reuss Voigt Hill
#
# Bulk Modulus (GPa) = 63.41267 69.72914 66.57091
# Shear Modulus (GPa) = 41.79407 15.28817 28.54112
#
# Velocity S-wave (km/s) = 4.39333 2.65714 3.63055
# Velocity P-wave (km/s) = 7.41758 6.45106 6.95114
#
# Compressibility (1/GPa) = 0.01576972
#
# Stress axis : x y z
#
# Youngs Moduli (GPa) = 60.54857 145.43779 81.57935
#
# Poissons Ratio (x) = -0.05440 0.61123
# Poissons Ratio (y) = -0.02265 0.23017
# Poissons Ratio (z) = 0.45366 0.41034
#
# Static dielectric constant tensor:
#      x y z
#    x 1.809430 0.000000 0.000000 
#    y 0.000000 1.869980 0.000000 
#    z 0.000000 0.000000 1.944610 
# 
# From -- ./inp_files/57900.got.cif
#   From: 2010.05.17/outbox.cif.g08.bks.cpg/sg66_29_cif.got.tgz:57900.got - 2010.06.03 17:51:23.
