data_PCOD9499274
_publ_section_title
;
Structure prediction by ZEFSAII (Michael W. Deem and Ramdas Pophale) SiO2 
 PCOD9499274
Probable space group: C C C M
;
_chemical_formula_sum "Si O2"
_cell_formula_units_Z 48
_cell_length_a 12.892057
_cell_length_b 15.175627
_cell_length_c 10.390223
_cell_angle_alpha 90.000000
_cell_angle_beta 90.000000
_cell_angle_gamma 90.000000
_cell_volume 2032.795681
_symmetry_space_group_name_H-M "C C C M"
_symmetry_group_IT_number 66
_symmetry_cell_setting 'orthorhombic'
loop_
_space_group_symop_operation_xyz
x,y,z
-x,-y,z
x,-y,1/2-z
-x,y,1/2-z
-x,-y,-z
x,y,-z
-x,y,1/2+z
x,-y,1/2+z
1/2+x,1/2+y,z
1/2-x,1/2-y,z
1/2+x,1/2-y,1/2-z
1/2-x,1/2+y,1/2-z
1/2-x,1/2-y,-z
1/2+x,1/2+y,-z
1/2-x,1/2+y,1/2+z
1/2+x,1/2-y,1/2+z
loop_
_atom_site_type_symbol
_atom_site_label
_atom_site_fract_x
_atom_site_fract_y
_atom_site_fract_z
Si Si1 0.512629 0.896532 0.500000
Si Si2 0.226820 0.855729 0.500000
Si Si3 0.384488 0.627566 0.228844
Si Si4 0.000000 0.705075 0.750000
Si Si5 0.756289 0.554658 0.500000
O O1 0.466818 0.852574 0.628645
O O2 0.638384 0.888742 0.500000
O O3 0.500000 0.000000 0.500000
O O4 0.250000 0.750000 0.500000
O O5 0.165238 0.868151 0.368097
O O6 0.287241 0.950766 0.500000
O O7 0.500000 0.590407 0.250000
O O8 0.411117 0.729705 0.196168
O O9 0.314002 0.579745 0.124056
#
# Coordination Sequence:
#
# PCOD9499274 Si02
#       5
#     8   8  16   8   8
#     4  12  28  46  74 107 154 202 253 304 380 452
#     4  12  28  44  70 105 149 187 243 307 372 448
#     4  10  25  47  75 105 144 192 248 312 380 438
#     4  10  25  48  73 104 148 192 246 325 369 446
#     4  12  28  46  76 112 145 200 254 308 371 470
#
# _framework density 23.612798999999999
#
# number of rings (size 3 to 8) (size 9 to 14) (size 15 to 20)
#    1.000    0.000    0.000    4.500    9.333    8.000 
#    0.000    0.000    0.000    0.000    0.000    0.000 
#    0.000    0.000    0.000    0.000    0.000    0.000 
#
# Total GULP energy -133918.255304 kJ/mol
# GULP energy per Si atom -5579.927304 kJ/mol
# Density = 2.355906 g / cm^3
# Si number density = 23.612799 Si / 1000 Ang^3
#
#
#
# Elastic Constant Matrix: (Units=GPa)
#
#
# Indices 1 2 3 4 5 6 
#
# 1 96.2886 34.6136 33.6604 0.0000 0.0000 0.0000
# 2 34.6136 203.8621 72.1385 0.0000 0.0000 0.0000
# 3 33.6604 72.1385 160.5412 0.0000 0.0000 0.0000
# 4 0.0000 0.0000 0.0000 902.8645 0.0000 0.0000
# 5 0.0000 0.0000 0.0000 0.0000 30.0567 0.0000
# 6 0.0000 0.0000 0.0000 0.0000 0.0000 37.7088
#
#
#
# Elastic Compliance Matrix: (Units=1/GPa)
#
#
# Indices 1 2 3 4 5 6 
#
# 1 0.011492 -0.001306 -0.001823 0.000000 0.000000 0.000000
# 2 -0.001306 0.005981 -0.002414 0.000000 0.000000 0.000000
# 3 -0.001823 -0.002414 0.007696 0.000000 0.000000 0.000000
# 4 0.000000 0.000000 0.000000 0.001108 0.000000 0.000000
# 5 0.000000 0.000000 0.000000 0.000000 0.033270 0.000000
# 6 0.000000 0.000000 0.000000 0.000000 0.000000 0.026519
#
#
# Mechanical properties :
#
#
# Convention : Reuss Voigt Hill
#
# Bulk Modulus (GPa) = 71.00352 82.39079 76.69715
# Shear Modulus (GPa) = 49.09376 215.47795 132.28585
#
# Velocity S-wave (km/s) = 4.56468 9.56310 7.49297
# Velocity P-wave (km/s) = 7.61032 12.52618 10.36393
#
# Compressibility (1/GPa) = 0.01408381
#
# Stress axis : x y z
#
# Youngs Moduli (GPa) = 87.01583 167.19067 129.94334
#
# Poissons Ratio (x) = 0.21840 0.23683
# Poissons Ratio (y) = 0.11367 0.31365
# Poissons Ratio (z) = 0.15859 0.40355
#
# Static dielectric constant tensor:
#      x y z
#    x 2.002370 0.000000 0.000000 
#    y 0.000000 1.974780 0.000000 
#    z 0.000000 0.000000 1.734850 
# 
# From -- ./inp_files/4617.got.cif
#   From: 2010.05.17/outbox.cif.g08.bks.cpg/sg66_3_cif.got.tgz:4617.got - 2010.06.03 17:51:23.
