data_PCOD9499824
_publ_section_title
;
Structure prediction by ZEFSAII (Michael W. Deem and Ramdas Pophale) SiO2 
 PCOD9499824
Probable space group: C C C M
;
_chemical_formula_sum "Si O2"
_cell_formula_units_Z 64
_cell_length_a 13.702715
_cell_length_b 8.665014
_cell_length_c 21.650456
_cell_angle_alpha 90.000000
_cell_angle_beta 90.000000
_cell_angle_gamma 90.000000
_cell_volume 2570.649948
_symmetry_space_group_name_H-M "C C C M"
_symmetry_group_IT_number 66
_symmetry_cell_setting 'orthorhombic'
loop_
_space_group_symop_operation_xyz
x,y,z
-x,-y,z
x,-y,1/2-z
-x,y,1/2-z
-x,-y,-z
x,y,-z
-x,y,1/2+z
x,-y,1/2+z
1/2+x,1/2+y,z
1/2-x,1/2-y,z
1/2+x,1/2-y,1/2-z
1/2-x,1/2+y,1/2-z
1/2-x,1/2-y,-z
1/2+x,1/2+y,-z
1/2-x,1/2+y,1/2+z
1/2+x,1/2-y,1/2+z
loop_
_atom_site_type_symbol
_atom_site_label
_atom_site_fract_x
_atom_site_fract_y
_atom_site_fract_z
Si Si1 0.726877 0.405617 0.891150
Si Si2 0.400241 0.094309 0.830195
Si Si3 0.075908 0.138623 0.930821
Si Si4 0.385150 0.332014 0.730719
O O1 0.750000 0.250000 0.928308
O O2 0.820488 0.482845 0.859572
O O3 0.677090 0.546103 0.926560
O O4 0.651428 0.336975 0.839370
O O5 0.425079 0.229223 0.879616
O O6 0.355169 0.183574 0.770851
O O7 0.500000 0.000000 0.817781
O O8 0.058610 0.198879 0.000000
O O9 0.000000 0.000000 0.918444
O O10 0.348051 0.500000 0.750000
O O11 0.500000 0.334202 0.750000
#
# Coordination Sequence:
#
# PCOD9499824 Si02
#       4
#    16  16  16  16
#     4  12  27  43  72 105 146 188 237 296 359 433
#     4  12  27  47  72 109 145 189 243 293 355 429
#     4  11  25  48  75 103 141 190 242 303 364 419
#     4  11  24  42  67  98 142 187 231 289 354 427
#
# _framework density 24.896428
#
# number of rings (size 3 to 8) (size 9 to 14) (size 15 to 20)
#    0.000    0.500    2.500    5.250    3.500    5.500 
#    0.000    0.000    0.000    0.000    0.000    0.000 
#    0.000    0.000    0.000    0.000    0.000    0.000 
#
# Total GULP energy -179039.173117 kJ/mol
# GULP energy per Si atom -5594.974160 kJ/mol
# Density = 2.483976 g / cm^3
# Si number density = 24.896428 Si / 1000 Ang^3
#
#
#
# Elastic Constant Matrix: (Units=GPa)
#
#
# Indices 1 2 3 4 5 6 
#
# 1 123.5403 22.2828 23.3069 0.0000 0.0000 0.0000
# 2 22.2828 145.5723 54.9047 0.0000 0.0000 0.0000
# 3 23.3069 54.9047 134.6666 0.0000 0.0000 0.0000
# 4 0.0000 0.0000 0.0000 -19.4025 0.0000 0.0000
# 5 0.0000 0.0000 0.0000 0.0000 7.6656 0.0000
# 6 0.0000 0.0000 0.0000 0.0000 0.0000 44.5607
#
#
#
# Elastic Compliance Matrix: (Units=1/GPa)
#
#
# Indices 1 2 3 4 5 6 
#
# 1 0.008462 -0.000878 -0.001107 0.000000 0.000000 0.000000
# 2 -0.000878 0.008209 -0.003195 0.000000 0.000000 0.000000
# 3 -0.001107 -0.003195 0.008920 0.000000 0.000000 0.000000
# 4 0.000000 0.000000 0.000000 -0.051540 0.000000 0.000000
# 5 0.000000 0.000000 0.000000 0.000000 0.130453 0.000000
# 6 0.000000 0.000000 0.000000 0.000000 0.000000 0.022441
#
#
# Mechanical properties :
#
#
# Convention : Reuss Voigt Hill
#
# Bulk Modulus (GPa) = 65.65259 67.19644 66.42451
# Shear Modulus (GPa) = 35.11719 26.78375 30.95047
#
# Velocity S-wave (km/s) = 3.75978 3.28351 3.52969
# Velocity P-wave (km/s) = 6.72870 6.43616 6.58406
#
# Compressibility (1/GPa) = 0.01523169
#
# Stress axis : x y z
#
# Youngs Moduli (GPa) = 118.18066 121.82036 112.10973
#
# Poissons Ratio (x) = 0.10694 0.12405
# Poissons Ratio (y) = 0.10375 0.35818
# Poissons Ratio (z) = 0.13077 0.38920
#
# Static dielectric constant tensor:
#      x y z
#    x 2.092510 0.000000 0.000000 
#    y 0.000000 1.966830 0.000000 
#    z 0.000000 0.000000 1.968630 
# 
# From -- ./inp_files/54957.got.cif
#   From: 2010.05.17/outbox.cif.g08.bks.cpg/sg66_28_cif.got.tgz:54957.got - 2010.06.03 17:51:23.
