data_PCOD9499940
_publ_section_title
;
Structure prediction by ZEFSAII (Michael W. Deem and Ramdas Pophale) SiO2 
 PCOD9499940
Probable space group: C C C M
;
_chemical_formula_sum "Si O2"
_cell_formula_units_Z 36
_cell_length_a 7.534946
_cell_length_b 6.961392
_cell_length_c 31.517049
_cell_angle_alpha 90.000000
_cell_angle_beta 90.000000
_cell_angle_gamma 90.000000
_cell_volume 1653.186237
_symmetry_space_group_name_H-M "C C C M"
_symmetry_group_IT_number 66
_symmetry_cell_setting 'orthorhombic'
loop_
_space_group_symop_operation_xyz
x,y,z
-x,-y,z
x,-y,1/2-z
-x,y,1/2-z
-x,-y,-z
x,y,-z
-x,y,1/2+z
x,-y,1/2+z
1/2+x,1/2+y,z
1/2-x,1/2-y,z
1/2+x,1/2-y,1/2-z
1/2-x,1/2+y,1/2-z
1/2-x,1/2-y,-z
1/2+x,1/2+y,-z
1/2-x,1/2+y,1/2+z
1/2+x,1/2-y,1/2+z
loop_
_atom_site_type_symbol
_atom_site_label
_atom_site_fract_x
_atom_site_fract_y
_atom_site_fract_z
Si Si1 0.000000 0.000000 0.369271
Si Si2 0.000000 0.500000 0.250000
Si Si3 0.750000 0.750000 0.189736
Si Si4 0.785664 0.027264 0.500000
Si Si5 0.750000 0.250000 0.073682
O O1 0.145528 0.898906 0.339898
O O2 0.906997 0.835431 0.397654
O O3 0.117817 0.366530 0.219854
O O4 0.750000 0.250000 0.500000
O O5 0.706735 0.922956 0.458657
O O6 0.000000 0.000000 0.500000
#
# Coordination Sequence:
#
# PCOD9499940 Si02
#       5
#     8   4   8   8   8
#     4  12  26  44  70 106 142 180 232 294 352 410
#     4  12  24  48  72 100 140 178 232 276 342 450
#     4  12  26  45  74 104 138 184 226 284 358 413
#     4  11  26  46  71 101 137 202 238 290 349 413
#     4  11  26  47  70 103 148 186 242 293 348 415
#
# _framework density 21.776130999999999
#
# number of rings (size 3 to 8) (size 9 to 14) (size 15 to 20)
#    0.000    0.444    2.222    5.333    3.111    7.111 
#    0.000    0.000    0.000    0.000    0.000    0.000 
#    0.000    0.000    0.000    0.000    0.000    0.000 
#
# Total GULP energy -100875.472295 kJ/mol
# GULP energy per Si atom -5604.192905 kJ/mol
# Density = 2.172657 g / cm^3
# Si number density = 21.776131 Si / 1000 Ang^3
#
#
#
# Elastic Constant Matrix: (Units=GPa)
#
#
# Indices 1 2 3 4 5 6 
#
# 1 141.6094 87.0909 89.6039 0.0000 0.0000 0.0000
# 2 87.0909 192.0468 92.5121 0.0000 0.0000 0.0000
# 3 89.6039 92.5121 175.0312 0.0000 0.0000 0.0000
# 4 0.0000 0.0000 0.0000 -33.5291 0.0000 0.0000
# 5 0.0000 0.0000 0.0000 0.0000 -53.2080 0.0000
# 6 0.0000 0.0000 0.0000 0.0000 0.0000 68.7845
#
#
#
# Elastic Compliance Matrix: (Units=1/GPa)
#
#
# Indices 1 2 3 4 5 6 
#
# 1 0.011805 -0.003276 -0.004312 0.000000 0.000000 0.000000
# 2 -0.003276 0.007895 -0.002496 0.000000 0.000000 0.000000
# 3 -0.004312 -0.002496 0.009240 0.000000 0.000000 0.000000
# 4 0.000000 0.000000 0.000000 -0.029825 0.000000 0.000000
# 5 0.000000 0.000000 0.000000 0.000000 -0.018794 0.000000
# 6 0.000000 0.000000 0.000000 0.000000 0.000000 0.014538
#
#
# Mechanical properties :
#
#
# Convention : Reuss Voigt Hill
#
# Bulk Modulus (GPa) = 113.99502 116.34459 115.16981
# Shear Modulus (GPa) = 278.55581 12.37485 145.46533
#
# Velocity S-wave (km/s) = 11.32235 2.38644 8.18202
# Velocity P-wave (km/s) = 14.94623 7.81902 11.92742
#
# Compressibility (1/GPa) = 0.00877231
#
# Stress axis : x y z
#
# Youngs Moduli (GPa) = 84.71109 126.66161 108.23079
#
# Poissons Ratio (x) = 0.41500 0.46664
# Poissons Ratio (y) = 0.27755 0.27010
# Poissons Ratio (z) = 0.36523 0.31610
#
# Static dielectric constant tensor:
#      x y z
#    x 1.800510 0.000000 0.000000 
#    y 0.000000 1.746000 0.000000 
#    z 0.000000 0.000000 1.770950 
# 
# From -- ./inp_files/54628.got.cif
#   From: 2010.05.17/outbox.cif.g08.bks.cpg/sg66_28_cif.got.tgz:54628.got - 2010.06.03 17:51:23.
