data_PCOD9499697
_publ_section_title
;
Structure prediction by ZEFSAII (Michael W. Deem and Ramdas Pophale) SiO2 
 PCOD9499697
Probable space group: C C C M
;
_chemical_formula_sum "Si O2"
_cell_formula_units_Z 88
_cell_length_a 24.674698
_cell_length_b 5.080229
_cell_length_c 33.410122
_cell_angle_alpha 90.000000
_cell_angle_beta 90.000000
_cell_angle_gamma 90.000000
_cell_volume 4188.062910
_symmetry_space_group_name_H-M "C C C M"
_symmetry_group_IT_number 66
_symmetry_cell_setting 'orthorhombic'
loop_
_space_group_symop_operation_xyz
x,y,z
-x,-y,z
x,-y,1/2-z
-x,y,1/2-z
-x,-y,-z
x,y,-z
-x,y,1/2+z
x,-y,1/2+z
1/2+x,1/2+y,z
1/2-x,1/2-y,z
1/2+x,1/2-y,1/2-z
1/2-x,1/2+y,1/2-z
1/2-x,1/2-y,-z
1/2+x,1/2+y,-z
1/2-x,1/2+y,1/2+z
1/2+x,1/2-y,1/2+z
loop_
_atom_site_type_symbol
_atom_site_label
_atom_site_fract_x
_atom_site_fract_y
_atom_site_fract_z
Si Si1 0.299517 0.573737 0.204907
Si Si2 0.312552 0.647098 0.045860
Si Si3 0.945119 0.604159 0.846559
Si Si4 0.157300 0.383108 0.906605
Si Si5 0.424862 0.384761 0.706031
Si Si6 0.250000 0.750000 0.357230
O O1 0.285209 0.500000 0.250000
O O2 0.250000 0.750000 0.190890
O O3 0.360261 0.667999 0.206206
O O4 0.296715 0.343986 0.172960
O O5 0.250000 0.750000 0.047114
O O6 0.329745 0.405837 0.074976
O O7 0.347432 0.899442 0.059099
O O8 0.322134 0.564758 0.000000
O O9 0.893615 0.594379 0.876558
O O10 0.944507 0.395428 0.809683
O O11 0.000000 0.500000 0.868186
O O12 0.941875 0.891978 0.826041
O O13 0.214432 0.444764 0.884066
O O14 0.438562 0.500000 0.750000
#
# Coordination Sequence:
#
# PCOD9499697 Si02
#       6
#    16  16  16  16  16   8
#     4  11  23  36  56  85 129 175 213 261 319 385
#     4  11  23  42  67 100 136 166 197 245 321 402
#     4  12  26  45  65  91 127 170 222 280 326 370
#     4  12  24  40  66  98 128 168 207 263 317 386
#     4  11  25  42  64  90 125 172 229 276 325 377
#     4  12  22  36  59  88 128 164 204 256 313 380
#
# _framework density 21.012101000000001
#
# number of rings (size 3 to 8) (size 9 to 14) (size 15 to 20)
#    0.000    0.545    4.545    3.818    2.545    3.636 
#    0.000    0.000    0.000    3.273    0.000    0.000 
#    0.000    0.000    0.000    0.000    0.000    0.000 
#
# Total GULP energy -245290.027358 kJ/mol
# GULP energy per Si atom -5574.773349 kJ/mol
# Density = 2.096428 g / cm^3
# Si number density = 21.012101 Si / 1000 Ang^3
#
#
#
# Elastic Constant Matrix: (Units=GPa)
#
#
# Indices 1 2 3 4 5 6 
#
# 1 132.7835 27.4312 41.9306 0.0000 0.0000 0.0000
# 2 27.4312 98.0943 21.0421 0.0000 0.0000 0.0000
# 3 41.9306 21.0421 97.9101 0.0000 0.0000 0.0000
# 4 0.0000 0.0000 0.0000 53.0082 0.0000 0.0000
# 5 0.0000 0.0000 0.0000 0.0000 -13.7895 0.0000
# 6 0.0000 0.0000 0.0000 0.0000 0.0000 30.6493
#
#
#
# Elastic Compliance Matrix: (Units=1/GPa)
#
#
# Indices 1 2 3 4 5 6 
#
# 1 0.008993 -0.001770 -0.003471 0.000000 0.000000 0.000000
# 2 -0.001770 0.011035 -0.001614 0.000000 0.000000 0.000000
# 3 -0.003471 -0.001614 0.012047 0.000000 0.000000 0.000000
# 4 0.000000 0.000000 0.000000 0.018865 0.000000 0.000000
# 5 0.000000 0.000000 0.000000 0.000000 -0.072519 0.000000
# 6 0.000000 0.000000 0.000000 0.000000 0.000000 0.032627
#
#
# Mechanical properties :
#
#
# Convention : Reuss Voigt Hill
#
# Bulk Modulus (GPa) = 54.44927 56.62174 55.53551
# Shear Modulus (GPa) = 161.92227 29.86587 95.89407
#
# Velocity S-wave (km/s) = 8.78799 3.77419 6.76289
# Velocity P-wave (km/s) = 11.35523 6.78221 9.35253
#
# Compressibility (1/GPa) = 0.01836572
#
# Stress axis : x y z
#
# Youngs Moduli (GPa) = 111.20044 90.61726 83.01102
#
# Poissons Ratio (x) = 0.16041 0.28811
# Poissons Ratio (y) = 0.19685 0.13394
# Poissons Ratio (z) = 0.38595 0.14621
#
# Static dielectric constant tensor:
#      x y z
#    x 1.853630 0.000000 0.000000 
#    y 0.000000 2.699710 0.000000 
#    z 0.000000 0.000000 1.754900 
# 
# From -- ./inp_files/70367.got.cif
#   From: 2010.05.17/outbox.cif.g08.bks.cpg/sg66_36_cif.got.tgz:70367.got - 2010.06.03 17:51:23.
