data_PCOD9499313
_publ_section_title
;
Structure prediction by ZEFSAII (Michael W. Deem and Ramdas Pophale) SiO2 
 PCOD9499313
Probable space group: C C C M
;
_chemical_formula_sum "Si O2"
_cell_formula_units_Z 128
_cell_length_a 12.460714
_cell_length_b 25.868743
_cell_length_c 24.743822
_cell_angle_alpha 90.000000
_cell_angle_beta 90.000000
_cell_angle_gamma 90.000000
_cell_volume 7975.998014
_symmetry_space_group_name_H-M "C C C M"
_symmetry_group_IT_number 66
_symmetry_cell_setting 'orthorhombic'
loop_
_space_group_symop_operation_xyz
x,y,z
-x,-y,z
x,-y,1/2-z
-x,y,1/2-z
-x,-y,-z
x,y,-z
-x,y,1/2+z
x,-y,1/2+z
1/2+x,1/2+y,z
1/2-x,1/2-y,z
1/2+x,1/2-y,1/2-z
1/2-x,1/2+y,1/2-z
1/2-x,1/2-y,-z
1/2+x,1/2+y,-z
1/2-x,1/2+y,1/2+z
1/2+x,1/2-y,1/2+z
loop_
_atom_site_type_symbol
_atom_site_label
_atom_site_fract_x
_atom_site_fract_y
_atom_site_fract_z
Si Si1 0.237921 0.171760 0.938459
Si Si2 0.639186 0.400051 0.641893
Si Si3 0.370426 0.507713 0.812304
Si Si4 0.392739 0.381241 0.641289
Si Si5 0.894950 0.711401 0.777604
Si Si6 0.080815 0.262692 0.097946
Si Si7 0.164762 0.828716 0.746633
Si Si8 0.352987 0.286441 0.564783
O O1 0.220359 0.122275 0.901905
O O2 0.158372 0.213122 0.909812
O O3 0.358022 0.194495 0.937697
O O4 0.202735 0.165277 0.000000
O O5 0.667992 0.458776 0.654087
O O6 0.515452 0.392821 0.623814
O O7 0.641073 0.367464 0.697597
O O8 0.500000 0.500000 0.810404
O O9 0.333763 0.500000 0.750000
O O10 0.346287 0.562285 0.841435
O O11 0.382145 0.350580 0.697940
O O12 0.346477 0.341128 0.596867
O O13 0.908262 0.714821 0.841903
O O14 0.880890 0.771434 0.761620
O O15 0.792290 0.680502 0.756594
O O16 0.000000 0.689701 0.750000
O O17 0.961685 0.243734 0.083410
O O18 0.358705 0.294591 0.500000
O O19 0.250000 0.250000 0.576497
#
# Coordination Sequence:
#
# PCOD9499313 Si02
#       8
#    16  16  16  16  16  16  16  16
#     4  11  20  32  53  76 102 139 175 215 265 308
#     4  11  18  33  51  77 107 134 173 215 258 311
#     4   9  18  31  50  75 103 136 175 210 261 319
#     4  11  21  32  54  74 105 142 173 215 258 313
#     4  11  21  30  45  76 109 136 165 212 261 317
#     4  11  19  35  51  74 106 140 175 210 259 318
#     4  11  19  31  48  72 104 139 168 206 262 312
#     4  11  24  38  53  76 107 146 186 218 256 316
#
# _framework density 16.048148999999999
#
# number of rings (size 3 to 8) (size 9 to 14) (size 15 to 20)
#    0.000    1.250    5.000    4.125    3.500    0.000 
#    0.000    0.625    0.000    2.250    0.000    4.375 
#    0.000    3.000    0.000    0.000    0.000    0.000 
#
# Total GULP energy -356623.885373 kJ/mol
# GULP energy per Si atom -5572.248209 kJ/mol
# Density = 1.601162 g / cm^3
# Si number density = 16.048149 Si / 1000 Ang^3
#
#
#
# Elastic Constant Matrix: (Units=GPa)
#
#
# Indices 1 2 3 4 5 6 
#
# 1 79.6243 21.1551 15.0661 0.0000 0.0000 0.0000
# 2 21.1551 90.3463 25.7633 0.0000 0.0000 0.0000
# 3 15.0661 25.7633 72.5549 0.0000 0.0000 0.0000
# 4 0.0000 0.0000 0.0000 10.2749 0.0000 0.0000
# 5 0.0000 0.0000 0.0000 0.0000 15.1236 0.0000
# 6 0.0000 0.0000 0.0000 0.0000 0.0000 16.1246
#
#
#
# Elastic Compliance Matrix: (Units=1/GPa)
#
#
# Indices 1 2 3 4 5 6 
#
# 1 0.013620 -0.002651 -0.001887 0.000000 0.000000 0.000000
# 2 -0.002651 0.012832 -0.004006 0.000000 0.000000 0.000000
# 3 -0.001887 -0.004006 0.015597 0.000000 0.000000 0.000000
# 4 0.000000 0.000000 0.000000 0.097324 0.000000 0.000000
# 5 0.000000 0.000000 0.000000 0.000000 0.066122 0.000000
# 6 0.000000 0.000000 0.000000 0.000000 0.000000 0.062017
#
#
# Mechanical properties :
#
#
# Convention : Reuss Voigt Hill
#
# Bulk Modulus (GPa) = 40.06237 40.72162 40.39199
# Shear Modulus (GPa) = 17.06949 20.34069 18.70509
#
# Velocity S-wave (km/s) = 3.26489 3.56403 3.41773
# Velocity P-wave (km/s) = 6.26344 6.50893 6.38737
#
# Compressibility (1/GPa) = 0.02496108
#
# Stress axis : x y z
#
# Youngs Moduli (GPa) = 73.41927 77.93241 64.11533
#
# Poissons Ratio (x) = 0.20662 0.12098
# Poissons Ratio (y) = 0.19465 0.25683
# Poissons Ratio (z) = 0.13853 0.31218
#
# Static dielectric constant tensor:
#      x y z
#    x 1.566320 0.000000 0.000000 
#    y 0.000000 1.553360 0.000000 
#    z 0.000000 0.000000 1.548570 
# 
# From -- ./inp_files/57370.got.cif
#   From: 2010.05.17/outbox.cif.g08.bks.cpg/sg66_29_cif.got.tgz:57370.got - 2010.06.03 17:51:23.
