data_PCOD9499429
_publ_section_title
;
Structure prediction by ZEFSAII (Michael W. Deem and Ramdas Pophale) SiO2 
 PCOD9499429
Probable space group: C C C M
;
_chemical_formula_sum "Si O2"
_cell_formula_units_Z 88
_cell_length_a 11.144193
_cell_length_b 21.152793
_cell_length_c 17.041816
_cell_angle_alpha 90.000000
_cell_angle_beta 90.000000
_cell_angle_gamma 90.000000
_cell_volume 4017.281050
_symmetry_space_group_name_H-M "C C C M"
_symmetry_group_IT_number 66
_symmetry_cell_setting 'orthorhombic'
loop_
_space_group_symop_operation_xyz
x,y,z
-x,-y,z
x,-y,1/2-z
-x,y,1/2-z
-x,-y,-z
x,y,-z
-x,y,1/2+z
x,-y,1/2+z
1/2+x,1/2+y,z
1/2-x,1/2-y,z
1/2+x,1/2-y,1/2-z
1/2-x,1/2+y,1/2-z
1/2-x,1/2-y,-z
1/2+x,1/2+y,-z
1/2-x,1/2+y,1/2+z
1/2+x,1/2-y,1/2+z
loop_
_atom_site_type_symbol
_atom_site_label
_atom_site_fract_x
_atom_site_fract_y
_atom_site_fract_z
Si Si1 0.000000 0.090642 0.750000
Si Si2 0.525430 0.387018 0.500000
Si Si3 0.778979 0.031870 0.667111
Si Si4 0.677171 0.494597 0.000000
Si Si5 0.531740 0.073170 0.340874
Si Si6 0.121001 0.316301 0.410656
Si Si7 0.104700 0.181160 0.367618
O O1 0.084473 0.053043 0.812172
O O2 0.093064 0.136123 0.706611
O O3 0.642823 0.430322 0.500000
O O4 0.426520 0.442706 0.500000
O O5 0.498521 0.343720 0.425598
O O6 0.772734 0.988579 0.588981
O O7 0.674971 0.082535 0.651253
O O8 0.741574 0.000000 0.750000
O O9 0.500000 0.082412 0.250000
O O10 0.455255 0.122508 0.390200
O O11 0.500000 0.000000 0.361362
O O12 0.097470 0.295972 0.500000
O O13 0.091519 0.256078 0.355983
O O14 0.263227 0.328217 0.403529
#
# Coordination Sequence:
#
# PCOD9499429 Si02
#       7
#     8   8  16   8  16  16  16
#     4  12  25  40  72 100 135 184 236 288 360 424
#     4  11  20  41  62  99 139 168 216 294 344 396
#     4  12  25  45  67 102 140 185 233 290 359 426
#     4  11  26  38  67 104 141 175 227 295 353 420
#     4  11  25  46  66  94 140 179 220 287 348 416
#     4  11  24  43  72 100 133 183 238 286 347 430
#     4  11  22  43  68 101 136 179 232 292 347 416
#
# _framework density 21.905363999999999
#
# number of rings (size 3 to 8) (size 9 to 14) (size 15 to 20)
#    0.000    0.727    5.455    3.000    7.636    0.364 
#    0.000    0.000    0.000    2.182    0.000    0.000 
#    0.000    0.000    0.000    0.000    0.000    0.000 
#
# Total GULP energy -245504.328540 kJ/mol
# GULP energy per Si atom -5579.643830 kJ/mol
# Density = 2.185551 g / cm^3
# Si number density = 21.905364 Si / 1000 Ang^3
#
#
#
# Elastic Constant Matrix: (Units=GPa)
#
#
# Indices 1 2 3 4 5 6 
#
# 1 85.6937 32.8419 8.6419 0.0000 0.0000 0.0000
# 2 32.8419 82.6109 13.1991 0.0000 0.0000 0.0000
# 3 8.6419 13.1991 87.9451 0.0000 0.0000 0.0000
# 4 0.0000 0.0000 0.0000 -81.5472 0.0000 0.0000
# 5 0.0000 0.0000 0.0000 0.0000 19.5608 0.0000
# 6 0.0000 0.0000 0.0000 0.0000 0.0000 37.2903
#
#
#
# Elastic Compliance Matrix: (Units=1/GPa)
#
#
# Indices 1 2 3 4 5 6 
#
# 1 0.013792 -0.005396 -0.000545 0.000000 0.000000 0.000000
# 2 -0.005396 0.014513 -0.001648 0.000000 0.000000 0.000000
# 3 -0.000545 -0.001648 0.011672 0.000000 0.000000 0.000000
# 4 0.000000 0.000000 0.000000 -0.012263 0.000000 0.000000
# 5 0.000000 0.000000 0.000000 0.000000 0.051123 0.000000
# 6 0.000000 0.000000 0.000000 0.000000 0.000000 0.026817
#
#
# Mechanical properties :
#
#
# Convention : Reuss Voigt Hill
#
# Bulk Modulus (GPa) = 40.32480 40.62392 40.47436
# Shear Modulus (GPa) = 38.72993 8.49857 23.61425
#
# Velocity S-wave (km/s) = 4.20939 1.97183 3.28687
# Velocity P-wave (km/s) = 6.48644 4.87541 5.73775
#
# Compressibility (1/GPa) = 0.02479863
#
# Stress axis : x y z
#
# Youngs Moduli (GPa) = 72.50322 68.90164 85.67757
#
# Poissons Ratio (x) = 0.37180 0.04673
# Poissons Ratio (y) = 0.39123 0.14120
# Poissons Ratio (z) = 0.03955 0.11355
#
# Static dielectric constant tensor:
#      x y z
#    x 1.831810 0.000000 0.000000 
#    y 0.000000 1.817140 0.000000 
#    z 0.000000 0.000000 1.861290 
# 
# From -- ./inp_files/38687.got.cif
#   From: 2010.05.17/outbox.cif.g08.bks.cpg/sg66_20_cif.got.tgz:38687.got - 2010.06.03 17:51:23.
