data_PCOD9499558
_publ_section_title
;
Structure prediction by ZEFSAII (Michael W. Deem and Ramdas Pophale) SiO2 
 PCOD9499558
Probable space group: C C C M
;
_chemical_formula_sum "Si O2"
_cell_formula_units_Z 112
_cell_length_a 21.655249
_cell_length_b 16.255845
_cell_length_c 15.182168
_cell_angle_alpha 90.000000
_cell_angle_beta 90.000000
_cell_angle_gamma 90.000000
_cell_volume 5344.493143
_symmetry_space_group_name_H-M "C C C M"
_symmetry_group_IT_number 66
_symmetry_cell_setting 'orthorhombic'
loop_
_space_group_symop_operation_xyz
x,y,z
-x,-y,z
x,-y,1/2-z
-x,y,1/2-z
-x,-y,-z
x,y,-z
-x,y,1/2+z
x,-y,1/2+z
1/2+x,1/2+y,z
1/2-x,1/2-y,z
1/2+x,1/2-y,1/2-z
1/2-x,1/2+y,1/2-z
1/2-x,1/2-y,-z
1/2+x,1/2+y,-z
1/2-x,1/2+y,1/2+z
1/2+x,1/2-y,1/2+z
loop_
_atom_site_type_symbol
_atom_site_label
_atom_site_fract_x
_atom_site_fract_y
_atom_site_fract_z
Si Si1 0.532312 0.810313 0.107720
Si Si2 0.005341 0.869461 0.107605
Si Si3 0.412539 0.094449 0.608039
Si Si4 0.709033 0.823820 0.397027
Si Si5 0.638230 0.919381 0.104152
Si Si6 0.740554 0.502276 0.852304
Si Si7 0.900835 0.999997 0.606113
O O1 0.509638 0.721574 0.139021
O O2 0.480428 0.876881 0.132660
O O3 0.599245 0.842085 0.138353
O O4 0.532620 0.805066 0.000000
O O5 0.069062 0.913289 0.135848
O O6 0.949358 0.929911 0.132953
O O7 0.007015 0.867876 0.000000
O O8 0.410591 0.093538 0.500000
O O9 0.359586 0.158343 0.638498
O O10 0.391854 0.004332 0.638636
O O11 0.700254 0.802974 0.500000
O O12 0.750000 0.750000 0.357678
O O13 0.742769 0.912499 0.391694
O O14 0.711588 0.929347 0.113464
O O15 0.626602 0.920002 0.000000
O O16 0.753881 0.500000 0.750000
O O17 0.668431 0.517131 0.865267
O O18 0.900114 0.998792 0.500000
#
# Coordination Sequence:
#
# PCOD9499558 Si02
#       7
#    16  16  16  16  16  16  16
#     4   9  15  25  47  78 106 128 161 212 266 315
#     4   8  16  29  49  79 104 126 164 217 269 320
#     4   8  14  24  43  74 105 129 160 209 271 319
#     4   9  18  32  53  81 107 135 180 234 276 322
#     4   9  17  31  49  73 103 136 174 216 261 323
#     4  11  22  35  51  74 103 148 181 214 273 333
#     4   9  17  33  54  75 103 134 170 218 271 322
#
# _framework density 20.956150000000001
#
# number of rings (size 3 to 8) (size 9 to 14) (size 15 to 20)
#    0.000    3.000    0.000    3.429    2.000    1.714 
#    0.000    3.571    0.000   10.286    7.429    0.000 
#    0.000    0.000    0.000    0.000    0.000    0.000 
#
# Total GULP energy -312152.142928 kJ/mol
# GULP energy per Si atom -5574.145409 kJ/mol
# Density = 2.090845 g / cm^3
# Si number density = 20.956150 Si / 1000 Ang^3
#
#
#
# Elastic Constant Matrix: (Units=GPa)
#
#
# Indices 1 2 3 4 5 6 
#
# 1 127.0160 34.9009 -2.5954 0.0000 0.0000 0.0000
# 2 34.9009 47.2884 6.0446 0.0000 0.0000 0.0000
# 3 -2.5954 6.0446 29.7996 0.0000 0.0000 0.0000
# 4 0.0000 0.0000 0.0000 -10.3753 0.0000 0.0000
# 5 0.0000 0.0000 0.0000 0.0000 -26.3485 0.0000
# 6 0.0000 0.0000 0.0000 0.0000 0.0000 -15.3188
#
#
#
# Elastic Compliance Matrix: (Units=1/GPa)
#
#
# Indices 1 2 3 4 5 6 
#
# 1 0.010046 -0.007727 0.002442 0.000000 0.000000 0.000000
# 2 -0.007727 0.027652 -0.006282 0.000000 0.000000 0.000000
# 3 0.002442 -0.006282 0.035044 0.000000 0.000000 0.000000
# 4 0.000000 0.000000 0.000000 -0.096383 0.000000 0.000000
# 5 0.000000 0.000000 0.000000 0.000000 -0.037953 0.000000
# 6 0.000000 0.000000 0.000000 0.000000 0.000000 -0.065279
#
#
# Mechanical properties :
#
#
# Convention : Reuss Voigt Hill
#
# Bulk Modulus (GPa) = 20.15712 31.20044 25.67878
# Shear Modulus (GPa) = -57.33780 0.64174 -28.34803
#
# Velocity S-wave (km/s) = -5.23643 0.55398 -3.68194
# Velocity P-wave (km/s) = 5.18852 3.91535 2.40736
#
# Compressibility (1/GPa) = 0.04961025
#
# Stress axis : x y z
#
# Youngs Moduli (GPa) = 99.54217 36.16327 28.53516
#
# Poissons Ratio (x) = 0.27942 -0.06969
# Poissons Ratio (y) = 0.76912 0.17926
# Poissons Ratio (z) = -0.24310 0.22718
#
# Static dielectric constant tensor:
#      x y z
#    x 1.769870 0.000000 0.000000 
#    y 0.000000 1.617620 0.000000 
#    z 0.000000 0.000000 1.677370 
# 
# From -- ./inp_files/43063.got.cif
#   From: 2010.05.17/outbox.cif.g08.bks.cpg/sg66_22_cif.got.tgz:43063.got - 2010.06.03 17:51:23.
