data_PCOD9499290
_publ_section_title
;
Structure prediction by ZEFSAII (Michael W. Deem and Ramdas Pophale) SiO2 
 PCOD9499290
Probable space group: C C C M
;
_chemical_formula_sum "Si O2"
_cell_formula_units_Z 88
_cell_length_a 30.907285
_cell_length_b 5.023414
_cell_length_c 25.282914
_cell_angle_alpha 90.000000
_cell_angle_beta 90.000000
_cell_angle_gamma 90.000000
_cell_volume 3925.427457
_symmetry_space_group_name_H-M "C C C M"
_symmetry_group_IT_number 66
_symmetry_cell_setting 'orthorhombic'
loop_
_space_group_symop_operation_xyz
x,y,z
-x,-y,z
x,-y,1/2-z
-x,y,1/2-z
-x,-y,-z
x,y,-z
-x,y,1/2+z
x,-y,1/2+z
1/2+x,1/2+y,z
1/2-x,1/2-y,z
1/2+x,1/2-y,1/2-z
1/2-x,1/2+y,1/2-z
1/2-x,1/2-y,-z
1/2+x,1/2+y,-z
1/2-x,1/2+y,1/2+z
1/2+x,1/2-y,1/2+z
loop_
_atom_site_type_symbol
_atom_site_label
_atom_site_fract_x
_atom_site_fract_y
_atom_site_fract_z
Si Si1 0.096064 0.500000 0.750000
Si Si2 0.000000 0.500000 0.590923
Si Si3 0.452080 0.712835 0.000000
Si Si4 0.369311 0.532435 0.610063
Si Si5 0.664346 0.949724 0.659665
Si Si6 0.250000 0.750000 0.215120
Si Si7 0.546024 0.646457 0.829344
Si Si8 0.103584 0.274743 0.000000
O O1 0.128579 0.395048 0.705114
O O2 0.065676 0.277409 0.776600
O O3 0.021804 0.287998 0.552323
O O4 0.035649 0.617587 0.629586
O O5 0.439661 0.406693 0.000000
O O6 0.411034 0.917763 0.000000
O O7 0.347228 0.245799 0.611414
O O8 0.415853 0.498262 0.638988
O O9 0.373938 0.671121 0.553256
O O10 0.341945 0.742859 0.644814
O O11 0.710890 0.871969 0.681546
O O12 0.266391 0.500000 0.250000
O O13 0.500000 0.500000 0.821640
#
# Coordination Sequence:
#
# PCOD9499290 Si02
#       8
#     8   8   8  16  16   8  16   8
#     4  10  26  47  60  94 136 180 230 282 341 402
#     4  11  24  41  56  90 126 169 242 297 344 374
#     4  11  24  38  66  90 124 172 235 311 337 379
#     4  11  25  44  69  96 141 173 230 281 340 395
#     4  11  25  47  69 105 136 174 212 288 342 412
#     4  12  24  44  80 111 134 175 226 270 350 422
#     4  11  25  43  60  86 130 189 232 281 331 400
#     4  12  22  43  68  97 126 183 227 280 346 408
#
# _framework density 22.417940000000002
#
# number of rings (size 3 to 8) (size 9 to 14) (size 15 to 20)
#    0.000    0.909    2.727    3.273   10.182    1.091 
#    3.273    0.000    0.000    3.273    0.000    0.000 
#    0.000    0.000    0.000    0.000    0.000    0.000 
#
# Total GULP energy -246356.348849 kJ/mol
# GULP energy per Si atom -5599.007928 kJ/mol
# Density = 2.236692 g / cm^3
# Si number density = 22.417940 Si / 1000 Ang^3
#
#
#
# Elastic Constant Matrix: (Units=GPa)
#
#
# Indices 1 2 3 4 5 6 
#
# 1 109.2599 31.2099 27.6309 0.0000 0.0000 0.0000
# 2 31.2099 73.9229 10.1490 0.0000 0.0000 0.0000
# 3 27.6309 10.1490 87.2222 0.0000 0.0000 0.0000
# 4 0.0000 0.0000 0.0000 78.7515 0.0000 0.0000
# 5 0.0000 0.0000 0.0000 0.0000 69.3310 0.0000
# 6 0.0000 0.0000 0.0000 0.0000 0.0000 40.2471
#
#
#
# Elastic Compliance Matrix: (Units=1/GPa)
#
#
# Indices 1 2 3 4 5 6 
#
# 1 0.011144 -0.004289 -0.003031 0.000000 0.000000 0.000000
# 2 -0.004289 0.015398 -0.000433 0.000000 0.000000 0.000000
# 3 -0.003031 -0.000433 0.012476 0.000000 0.000000 0.000000
# 4 0.000000 0.000000 0.000000 0.012698 0.000000 0.000000
# 5 0.000000 0.000000 0.000000 0.000000 0.014424 0.000000
# 6 0.000000 0.000000 0.000000 0.000000 0.000000 0.024847
#
#
# Mechanical properties :
#
#
# Convention : Reuss Voigt Hill
#
# Bulk Modulus (GPa) = 42.53273 45.37607 43.95440
# Shear Modulus (GPa) = 43.73335 51.09360 47.41348
#
# Velocity S-wave (km/s) = 4.42160 4.77921 4.60388
# Velocity P-wave (km/s) = 6.71425 7.12316 6.92173
#
# Compressibility (1/GPa) = 0.02351131
#
# Stress axis : x y z
#
# Youngs Moduli (GPa) = 89.73295 64.94441 80.15631
#
# Poissons Ratio (x) = 0.27854 0.24298
# Poissons Ratio (y) = 0.38485 0.03471
# Poissons Ratio (z) = 0.27201 0.02812
#
# Static dielectric constant tensor:
#      x y z
#    x 1.819910 0.000000 0.000000 
#    y 0.000000 1.894030 0.000000 
#    z 0.000000 0.000000 1.848700 
# 
# From -- ./inp_files/60453.got.cif
#   From: 2010.05.17/outbox.cif.g08.bks.cpg/sg66_31_cif.got.tgz:60453.got - 2010.06.03 17:51:23.
