data_PCOD9499321
_publ_section_title
;
Structure prediction by ZEFSAII (Michael W. Deem and Ramdas Pophale) SiO2 
 PCOD9499321
Probable space group: C C C M
;
_chemical_formula_sum "Si O2"
_cell_formula_units_Z 96
_cell_length_a 29.293899
_cell_length_b 27.208934
_cell_length_c 8.722672
_cell_angle_alpha 90.000000
_cell_angle_beta 90.000000
_cell_angle_gamma 90.000000
_cell_volume 6952.455999
_symmetry_space_group_name_H-M "C C C M"
_symmetry_group_IT_number 66
_symmetry_cell_setting 'orthorhombic'
loop_
_space_group_symop_operation_xyz
x,y,z
-x,-y,z
x,-y,1/2-z
-x,y,1/2-z
-x,-y,-z
x,y,-z
-x,y,1/2+z
x,-y,1/2+z
1/2+x,1/2+y,z
1/2-x,1/2-y,z
1/2+x,1/2-y,1/2-z
1/2-x,1/2+y,1/2-z
1/2-x,1/2-y,-z
1/2+x,1/2+y,-z
1/2-x,1/2+y,1/2+z
1/2+x,1/2-y,1/2+z
loop_
_atom_site_type_symbol
_atom_site_label
_atom_site_fract_x
_atom_site_fract_y
_atom_site_fract_z
Si Si1 0.639038 0.759088 0.319337
Si Si2 0.217483 0.798434 0.677341
Si Si3 0.695009 0.850760 0.815064
Si Si4 0.548730 0.901343 0.683626
Si Si5 0.548099 0.791234 0.817326
Si Si6 0.139433 0.552151 0.316461
O O1 0.631559 0.760816 0.500000
O O2 0.673209 0.715019 0.274489
O O3 0.664537 0.809011 0.264919
O O4 0.590946 0.758644 0.232516
O O5 0.204243 0.805690 0.500000
O O6 0.250000 0.750000 0.682407
O O7 0.252103 0.841385 0.727206
O O8 0.674561 0.903860 0.779638
O O9 0.691724 0.842938 0.000000
O O10 0.500000 0.918446 0.750000
O O11 0.547424 0.900764 0.500000
O O12 0.555328 0.845705 0.745915
O O13 0.590739 0.933253 0.744053
O O14 0.500000 0.773201 0.750000
O O15 0.545566 0.795917 0.000000
O O16 0.154236 0.500000 0.250000
O O17 0.134805 0.549692 0.500000
#
# Coordination Sequence:
#
# PCOD9499321 Si02
#       6
#    16  16  16  16  16  16
#     4  11  19  27  43  66  87 108 135 168 206 247
#     4   8  15  28  44  62  82 107 134 163 204 249
#     4   9  18  32  47  60  81 109 136 169 211 254
#     4  11  21  34  49  64  79 102 135 175 219 263
#     4  11  20  31  45  62  84 111 140 172 209 251
#     4  11  22  35  49  64  82 107 138 176 218 261
#
# _framework density 13.808070000000001
#
# number of rings (size 3 to 8) (size 9 to 14) (size 15 to 20)
#    0.000    1.833    1.667    7.000    0.000    4.000 
#    0.000    1.667    0.000    0.000    0.000    0.000 
#    0.000    0.000    0.000    0.000    0.000    0.833 
#
# Total GULP energy -267807.801919 kJ/mol
# GULP energy per Si atom -5579.329207 kJ/mol
# Density = 1.377664 g / cm^3
# Si number density = 13.808070 Si / 1000 Ang^3
#
#
#
# Elastic Constant Matrix: (Units=GPa)
#
#
# Indices 1 2 3 4 5 6 
#
# 1 83.1109 45.3439 43.1031 0.0000 0.0000 0.0000
# 2 45.3439 52.9049 29.3423 0.0000 0.0000 0.0000
# 3 43.1031 29.3423 90.6210 0.0000 0.0000 0.0000
# 4 0.0000 0.0000 0.0000 -109.0017 0.0000 0.0000
# 5 0.0000 0.0000 0.0000 0.0000 14.1014 0.0000
# 6 0.0000 0.0000 0.0000 0.0000 0.0000 16.8482
#
#
#
# Elastic Compliance Matrix: (Units=1/GPa)
#
#
# Indices 1 2 3 4 5 6 
#
# 1 0.025055 -0.018119 -0.006051 0.000000 0.000000 0.000000
# 2 -0.018119 0.036142 -0.003084 0.000000 0.000000 0.000000
# 3 -0.006051 -0.003084 0.014912 0.000000 0.000000 0.000000
# 4 0.000000 0.000000 0.000000 -0.009174 0.000000 0.000000
# 5 0.000000 0.000000 0.000000 0.000000 0.070915 0.000000
# 6 0.000000 0.000000 0.000000 0.000000 0.000000 0.059353
#
#
# Mechanical properties :
#
#
# Convention : Reuss Voigt Hill
#
# Bulk Modulus (GPa) = 46.29374 51.35728 48.82551
# Shear Modulus (GPa) = 19.31165 -8.35392 5.47886
#
# Velocity S-wave (km/s) = 3.74381 -2.46235 1.99411
# Velocity P-wave (km/s) = 7.23101 5.40280 6.38270
#
# Compressibility (1/GPa) = 0.02160119
#
# Stress axis : x y z
#
# Youngs Moduli (GPa) = 39.91157 27.66881 67.06179
#
# Poissons Ratio (x) = 0.50132 0.40577
# Poissons Ratio (y) = 0.72315 0.20685
# Poissons Ratio (z) = 0.24149 0.08534
#
# Static dielectric constant tensor:
#      x y z
#    x 1.473820 0.000000 0.000000 
#    y 0.000000 1.441420 0.000000 
#    z 0.000000 0.000000 1.460070 
# 
# From -- ./inp_files/10480.got.cif
#   From: 2010.05.17/outbox.cif.g08.bks.cpg/sg66_6_cif.got.tgz:10480.got - 2010.06.03 17:51:23.
