data_PCOD9499870
_publ_section_title
;
Structure prediction by ZEFSAII (Michael W. Deem and Ramdas Pophale) SiO2 
 PCOD9499870
Probable space group: C C C M
;
_chemical_formula_sum "Si O2"
_cell_formula_units_Z 96
_cell_length_a 21.923268
_cell_length_b 21.230613
_cell_length_c 10.555849
_cell_angle_alpha 90.000000
_cell_angle_beta 90.000000
_cell_angle_gamma 90.000000
_cell_volume 4913.161001
_symmetry_space_group_name_H-M "C C C M"
_symmetry_group_IT_number 66
_symmetry_cell_setting 'orthorhombic'
loop_
_space_group_symop_operation_xyz
x,y,z
-x,-y,z
x,-y,1/2-z
-x,y,1/2-z
-x,-y,-z
x,y,-z
-x,y,1/2+z
x,-y,1/2+z
1/2+x,1/2+y,z
1/2-x,1/2-y,z
1/2+x,1/2-y,1/2-z
1/2-x,1/2+y,1/2-z
1/2-x,1/2-y,-z
1/2+x,1/2+y,-z
1/2-x,1/2+y,1/2+z
1/2+x,1/2-y,1/2+z
loop_
_atom_site_type_symbol
_atom_site_label
_atom_site_fract_x
_atom_site_fract_y
_atom_site_fract_z
Si Si1 0.568534 0.577524 0.500000
Si Si2 0.098263 0.450040 0.354994
Si Si3 0.830651 0.252710 0.144234
Si Si4 0.924278 0.074417 0.500000
Si Si5 0.461847 0.816969 0.865487
Si Si6 0.771654 0.614489 0.650972
Si Si7 0.356106 0.379538 0.747013
O O1 0.496169 0.593008 0.500000
O O2 0.575932 0.501780 0.500000
O O3 0.601591 0.603783 0.625860
O O4 0.081103 0.500000 0.250000
O O5 0.099120 0.474409 0.500000
O O6 0.052893 0.390813 0.352839
O O7 0.166189 0.423537 0.323894
O O8 0.896318 0.285305 0.134365
O O9 0.786192 0.311134 0.177054
O O10 0.841199 0.194819 0.237709
O O11 0.816745 0.230194 0.000000
O O12 0.889598 0.099074 0.625508
O O13 0.500000 0.792555 0.750000
O O14 0.492932 0.805263 0.000000
O O15 0.760671 0.609106 0.500000
O O16 0.711662 0.591750 0.724456
#
# Coordination Sequence:
#
# PCOD9499870 Si02
#       7
#     8  16  16   8  16  16  16
#     4  11  24  46  63  80 114 164 201 238 298 347
#     4   9  19  35  54  80 114 149 190 238 281 328
#     4   9  18  36  61  89 116 149 196 239 279 344
#     4  11  28  42  57  88 126 146 191 262 294 341
#     4   9  19  35  54  80 114 149 190 238 281 328
#     4   9  18  36  61  89 116 149 196 239 279 344
#     4  12  21  40  66  89 109 157 195 228 294 357
#
# _framework density 19.539356000000002
#
# number of rings (size 3 to 8) (size 9 to 14) (size 15 to 20)
#    0.000    2.167    1.667    3.500    0.000    6.333 
#    3.000    3.333    0.000    0.000    0.000    0.000 
#    0.000    0.000    0.000    0.000    0.000    0.000 
#
# Total GULP energy -267802.187848 kJ/mol
# GULP energy per Si atom -5579.212247 kJ/mol
# Density = 1.949488 g / cm^3
# Si number density = 19.539356 Si / 1000 Ang^3
#
#
#
# Elastic Constant Matrix: (Units=GPa)
#
#
# Indices 1 2 3 4 5 6 
#
# 1 100.4293 -1.4059 57.9785 0.0000 0.0000 0.0000
# 2 -1.4059 39.8674 22.8081 0.0000 0.0000 0.0000
# 3 57.9785 22.8081 119.0671 0.0000 0.0000 0.0000
# 4 0.0000 0.0000 0.0000 6.5780 0.0000 0.0000
# 5 0.0000 0.0000 0.0000 0.0000 23.7092 0.0000
# 6 0.0000 0.0000 0.0000 0.0000 0.0000 10.9686
#
#
#
# Elastic Compliance Matrix: (Units=1/GPa)
#
#
# Indices 1 2 3 4 5 6 
#
# 1 0.014752 0.005200 -0.008179 0.000000 0.000000 0.000000
# 2 0.005200 0.030003 -0.008279 0.000000 0.000000 0.000000
# 3 -0.008179 -0.008279 0.013967 0.000000 0.000000 0.000000
# 4 0.000000 0.000000 0.000000 0.152021 0.000000 0.000000
# 5 0.000000 0.000000 0.000000 0.000000 0.042178 0.000000
# 6 0.000000 0.000000 0.000000 0.000000 0.000000 0.091169
#
#
# Mechanical properties :
#
#
# Convention : Reuss Voigt Hill
#
# Bulk Modulus (GPa) = 27.62075 46.45835 37.03955
# Shear Modulus (GPa) = 13.20388 20.25005 16.72697
#
# Velocity S-wave (km/s) = 2.60236 3.22277 2.92903
# Velocity P-wave (km/s) = 4.81626 6.13814 5.51693
#
# Compressibility (1/GPa) = 0.03620466
#
# Stress axis : x y z
#
# Youngs Moduli (GPa) = 67.78710 33.32993 71.59507
#
# Poissons Ratio (x) = -0.17330 0.58560
# Poissons Ratio (y) = -0.35247 0.59275
# Poissons Ratio (z) = 0.55446 0.27595
#
# Static dielectric constant tensor:
#      x y z
#    x 1.714050 0.000000 0.000000 
#    y 0.000000 1.714970 0.000000 
#    z 0.000000 0.000000 1.686720 
# 
# From -- ./inp_files/9155.got.cif
#   From: 2010.05.17/outbox.cif.g08.bks.cpg/sg66_5_cif.got.tgz:9155.got - 2010.06.03 17:51:23.
