data_PCOD9499410
_publ_section_title
;
Structure prediction by ZEFSAII (Michael W. Deem and Ramdas Pophale) SiO2 
 PCOD9499410
Probable space group: C C C M
;
_chemical_formula_sum "Si O2"
_cell_formula_units_Z 88
_cell_length_a 13.107294
_cell_length_b 17.925425
_cell_length_c 15.910477
_cell_angle_alpha 90.000000
_cell_angle_beta 90.000000
_cell_angle_gamma 90.000000
_cell_volume 3738.227278
_symmetry_space_group_name_H-M "C C C M"
_symmetry_group_IT_number 66
_symmetry_cell_setting 'orthorhombic'
loop_
_space_group_symop_operation_xyz
x,y,z
-x,-y,z
x,-y,1/2-z
-x,y,1/2-z
-x,-y,-z
x,y,-z
-x,y,1/2+z
x,-y,1/2+z
1/2+x,1/2+y,z
1/2-x,1/2-y,z
1/2+x,1/2-y,1/2-z
1/2-x,1/2+y,1/2-z
1/2-x,1/2-y,-z
1/2+x,1/2+y,-z
1/2-x,1/2+y,1/2+z
1/2+x,1/2-y,1/2+z
loop_
_atom_site_type_symbol
_atom_site_label
_atom_site_fract_x
_atom_site_fract_y
_atom_site_fract_z
Si Si1 0.617844 0.915370 0.224495
Si Si2 0.300212 0.169047 0.625812
Si Si3 0.219984 0.101156 0.099482
Si Si4 0.381205 0.558814 0.094396
Si Si5 0.030291 0.177729 0.841088
Si Si6 0.461142 0.219410 0.500000
O O1 0.500000 0.909128 0.250000
O O2 0.675720 0.855413 0.280803
O O3 0.663563 0.902772 0.131924
O O4 0.647604 0.000000 0.250000
O O5 0.250000 0.250000 0.616411
O O6 0.216594 0.112006 0.593114
O O7 0.402418 0.168707 0.572191
O O8 0.149454 0.159436 0.149161
O O9 0.163163 0.022061 0.115874
O O10 0.217698 0.115640 0.000000
O O11 0.463429 0.601101 0.151551
O O12 0.424008 0.556708 0.000000
O O13 0.000000 0.210905 0.750000
O O14 0.001906 0.225461 0.923591
#
# Coordination Sequence:
#
# PCOD9499410 Si02
#       6
#    16  16  16  16  16   8
#     4  11  26  50  75 105 140 190 261 314 369 462
#     4  12  22  42  74 103 145 190 245 316 364 438
#     4  11  24  44  73 106 155 198 250 326 394 447
#     4  11  20  39  68 109 145 199 254 303 374 451
#     4  12  24  39  68 109 160 205 247 308 379 459
#     4  12  25  44  67 112 151 198 259 300 372 460
#
# _framework density 23.540569000000001
#
# number of rings (size 3 to 8) (size 9 to 14) (size 15 to 20)
#    0.000    0.545    6.364    1.909    0.000    2.909 
#    1.636    0.909    0.000    1.636    0.000    0.000 
#    0.000    0.000    0.000    0.000    0.000    0.000 
#
# Total GULP energy -245004.530555 kJ/mol
# GULP energy per Si atom -5568.284785 kJ/mol
# Density = 2.348699 g / cm^3
# Si number density = 23.540569 Si / 1000 Ang^3
#
#
#
# Elastic Constant Matrix: (Units=GPa)
#
#
# Indices 1 2 3 4 5 6 
#
# 1 102.4905 16.9786 48.0810 0.0000 0.0000 0.0000
# 2 16.9786 41.8193 21.0267 0.0000 0.0000 0.0000
# 3 48.0810 21.0267 134.9417 0.0000 0.0000 0.0000
# 4 0.0000 0.0000 0.0000 22.9698 0.0000 0.0000
# 5 0.0000 0.0000 0.0000 0.0000 31.8230 0.0000
# 6 0.0000 0.0000 0.0000 0.0000 0.0000 8.4279
#
#
#
# Elastic Compliance Matrix: (Units=1/GPa)
#
#
# Indices 1 2 3 4 5 6 
#
# 1 0.012045 -0.002965 -0.003830 0.000000 0.000000 0.000000
# 2 -0.002965 0.026675 -0.003100 0.000000 0.000000 0.000000
# 3 -0.003830 -0.003100 0.009258 0.000000 0.000000 0.000000
# 4 0.000000 0.000000 0.000000 0.043535 0.000000 0.000000
# 5 0.000000 0.000000 0.000000 0.000000 0.031424 0.000000
# 6 0.000000 0.000000 0.000000 0.000000 0.000000 0.118654
#
#
# Mechanical properties :
#
#
# Convention : Reuss Voigt Hill
#
# Bulk Modulus (GPa) = 35.47506 50.15824 42.81665
# Shear Modulus (GPa) = 18.46546 25.52183 21.99365
#
# Velocity S-wave (km/s) = 2.80377 3.29624 3.05993
# Velocity P-wave (km/s) = 5.05806 5.98668 5.54185
#
# Compressibility (1/GPa) = 0.02818882
#
# Stress axis : x y z
#
# Youngs Moduli (GPa) = 83.02394 37.48863 108.01189
#
# Poissons Ratio (x) = 0.11114 0.41365
# Poissons Ratio (y) = 0.24613 0.33486
# Poissons Ratio (z) = 0.31796 0.11622
#
# Static dielectric constant tensor:
#      x y z
#    x 1.919870 0.000000 0.000000 
#    y 0.000000 1.883680 0.000000 
#    z 0.000000 0.000000 6.517570 
# 
# From -- ./inp_files/28231.got.cif
#   From: 2010.05.17/outbox.cif.g08.bks.cpg/sg66_15_cif.got.tgz:28231.got - 2010.06.03 17:51:23.
