data_PCOD9499374
_publ_section_title
;
Structure prediction by ZEFSAII (Michael W. Deem and Ramdas Pophale) SiO2 
 PCOD9499374
Probable space group: C C C M
;
_chemical_formula_sum "Si O2"
_cell_formula_units_Z 96
_cell_length_a 15.980908
_cell_length_b 15.526954
_cell_length_c 20.306355
_cell_angle_alpha 90.000000
_cell_angle_beta 90.000000
_cell_angle_gamma 90.000000
_cell_volume 5038.713812
_symmetry_space_group_name_H-M "C C C M"
_symmetry_group_IT_number 66
_symmetry_cell_setting 'orthorhombic'
loop_
_space_group_symop_operation_xyz
x,y,z
-x,-y,z
x,-y,1/2-z
-x,y,1/2-z
-x,-y,-z
x,y,-z
-x,y,1/2+z
x,-y,1/2+z
1/2+x,1/2+y,z
1/2-x,1/2-y,z
1/2+x,1/2-y,1/2-z
1/2-x,1/2+y,1/2-z
1/2-x,1/2-y,-z
1/2+x,1/2+y,-z
1/2-x,1/2+y,1/2+z
1/2+x,1/2-y,1/2+z
loop_
_atom_site_type_symbol
_atom_site_label
_atom_site_fract_x
_atom_site_fract_y
_atom_site_fract_z
Si Si1 0.473143 0.738624 0.122359
Si Si2 0.859001 0.500000 0.250000
Si Si3 0.749703 0.986972 0.880933
Si Si4 0.137313 0.540584 0.500000
Si Si5 0.188392 0.830545 0.924987
Si Si6 0.928405 0.072507 0.578783
Si Si7 0.000000 0.353005 0.250000
Si Si8 0.960773 0.635165 0.500000
O O1 0.385412 0.687539 0.126516
O O2 0.538414 0.666322 0.099183
O O3 0.500207 0.791592 0.186196
O O4 0.454684 0.806546 0.064366
O O5 0.799881 0.511938 0.186992
O O6 0.920063 0.416878 0.244956
O O7 0.692045 0.941911 0.935712
O O8 0.842790 0.948130 0.883025
O O9 0.762673 0.084609 0.905172
O O10 0.106818 0.440968 0.500000
O O11 0.052378 0.593640 0.500000
O O12 0.250000 0.750000 0.926239
O O13 0.154142 0.843184 0.000000
O O14 0.911982 0.069762 0.500000
O O15 0.000000 0.000000 0.591819
#
# Coordination Sequence:
#
# PCOD9499374 Si02
#       8
#    16   8  16   8  16  16   8   8
#     4  12  23  41  66  98 130 177 224 270 332 399
#     4  11  26  48  69  94 136 182 223 276 338 399
#     4  12  23  41  66  98 130 177 224 270 332 399
#     4  11  22  38  63  94 128 170 224 283 336 387
#     4  11  20  34  63 101 132 162 222 287 326 381
#     4  11  22  43  68  98 137 176 214 275 337 392
#     4  11  26  48  69  94 136 182 223 276 338 399
#     4  11  22  38  63  94 128 170 224 283 336 387
#
# _framework density 19.052482000000001
#
# number of rings (size 3 to 8) (size 9 to 14) (size 15 to 20)
#    0.000    0.667    5.000    4.000    0.000    4.000 
#    0.000    5.833    0.000    0.000    0.000    0.000 
#    0.000    0.000    0.000    0.000    0.000    0.000 
#
# Total GULP energy -268319.531558 kJ/mol
# GULP energy per Si atom -5589.990241 kJ/mol
# Density = 1.900912 g / cm^3
# Si number density = 19.052482 Si / 1000 Ang^3
#
#
#
# Elastic Constant Matrix: (Units=GPa)
#
#
# Indices 1 2 3 4 5 6 
#
# 1 125.3716 12.5289 37.3633 0.0000 0.0000 0.0000
# 2 12.5289 51.2761 2.5395 0.0000 0.0000 0.0000
# 3 37.3633 2.5395 108.3443 0.0000 0.0000 0.0000
# 4 0.0000 0.0000 0.0000 24.0421 0.0000 0.0000
# 5 0.0000 0.0000 0.0000 0.0000 33.5598 0.0000
# 6 0.0000 0.0000 0.0000 0.0000 0.0000 29.3443
#
#
#
# Elastic Compliance Matrix: (Units=1/GPa)
#
#
# Indices 1 2 3 4 5 6 
#
# 1 0.009105 -0.002072 -0.003091 0.000000 0.000000 0.000000
# 2 -0.002072 0.019996 0.000246 0.000000 0.000000 0.000000
# 3 -0.003091 0.000246 0.010290 0.000000 0.000000 0.000000
# 4 0.000000 0.000000 0.000000 0.041594 0.000000 0.000000
# 5 0.000000 0.000000 0.000000 0.000000 0.029798 0.000000
# 6 0.000000 0.000000 0.000000 0.000000 0.000000 0.034078
#
#
# Mechanical properties :
#
#
# Convention : Reuss Voigt Hill
#
# Bulk Modulus (GPa) = 33.83314 43.31724 38.57519
# Shear Modulus (GPa) = 30.38651 32.89326 31.63989
#
# Velocity S-wave (km/s) = 3.99793 4.15957 4.07955
# Velocity P-wave (km/s) = 6.25362 6.77159 6.51775
#
# Compressibility (1/GPa) = 0.02955682
#
# Stress axis : x y z
#
# Youngs Moduli (GPa) = 109.83518 50.00934 97.18074
#
# Poissons Ratio (x) = 0.10360 0.30041
# Poissons Ratio (y) = 0.22753 -0.02388
# Poissons Ratio (z) = 0.33952 -0.01229
#
# Static dielectric constant tensor:
#      x y z
#    x 1.665140 0.000000 0.000000 
#    y 0.000000 1.658110 0.000000 
#    z 0.000000 0.000000 1.643070 
# 
# From -- ./inp_files/49939.got.cif
#   From: 2010.05.17/outbox.cif.g08.bks.cpg/sg66_25_cif.got.tgz:49939.got - 2010.06.03 17:51:23.
