data_PCOD9499869
_publ_section_title
;
Structure prediction by ZEFSAII (Michael W. Deem and Ramdas Pophale) SiO2 
 PCOD9499869
Probable space group: C C C M
;
_chemical_formula_sum "Si O2"
_cell_formula_units_Z 40
_cell_length_a 18.253074
_cell_length_b 7.376226
_cell_length_c 11.947391
_cell_angle_alpha 90.000000
_cell_angle_beta 90.000000
_cell_angle_gamma 90.000000
_cell_volume 1608.582376
_symmetry_space_group_name_H-M "C C C M"
_symmetry_group_IT_number 66
_symmetry_cell_setting 'orthorhombic'
loop_
_space_group_symop_operation_xyz
x,y,z
-x,-y,z
x,-y,1/2-z
-x,y,1/2-z
-x,-y,-z
x,y,-z
-x,y,1/2+z
x,-y,1/2+z
1/2+x,1/2+y,z
1/2-x,1/2-y,z
1/2+x,1/2-y,1/2-z
1/2-x,1/2+y,1/2-z
1/2-x,1/2-y,-z
1/2+x,1/2+y,-z
1/2-x,1/2+y,1/2+z
1/2+x,1/2-y,1/2+z
loop_
_atom_site_type_symbol
_atom_site_label
_atom_site_fract_x
_atom_site_fract_y
_atom_site_fract_z
Si Si1 0.704839 0.500000 0.750000
Si Si2 0.423282 0.109903 0.000000
Si Si3 0.584152 0.782232 0.232482
Si Si4 0.229935 0.457813 0.500000
O O1 0.650425 0.667403 0.719689
O O2 0.745435 0.468242 0.627258
O O3 0.410774 0.240477 0.101714
O O4 0.500000 0.000000 0.000000
O O5 0.357768 0.968953 0.000000
O O6 0.500000 0.727428 0.250000
O O7 0.589033 0.000000 0.250000
O O8 0.250000 0.250000 0.500000
#
# Coordination Sequence:
#
# PCOD9499869 Si02
#       4
#     8   8  16   8
#     4  12  29  50  77 120 160 202 266 328 397 472
#     4  12  25  47  76 105 149 210 262 314 394 471
#     4  11  24  45  78 111 153 205 257 320 390 467
#     4  12  31  49  82 116 161 207 268 332 399 475
#
# _framework density 24.866616
#
# number of rings (size 3 to 8) (size 9 to 14) (size 15 to 20)
#    0.000    0.400    4.000    4.200    8.400    1.600 
#    0.000    4.000    0.000    0.000    0.000    0.000 
#    0.000    0.000    0.000    0.000    0.000    0.000 
#
# Total GULP energy -111432.556442 kJ/mol
# GULP energy per Si atom -5571.627822 kJ/mol
# Density = 2.481002 g / cm^3
# Si number density = 24.866616 Si / 1000 Ang^3
#
#
#
# Elastic Constant Matrix: (Units=GPa)
#
#
# Indices 1 2 3 4 5 6 
#
# 1 213.3086 49.9983 54.9955 0.0000 0.0000 0.0000
# 2 49.9983 88.0350 7.8983 0.0000 0.0000 0.0000
# 3 54.9955 7.8983 163.7614 0.0000 0.0000 0.0000
# 4 0.0000 0.0000 0.0000 40.1281 0.0000 0.0000
# 5 0.0000 0.0000 0.0000 0.0000 39.7835 0.0000
# 6 0.0000 0.0000 0.0000 0.0000 0.0000 9.0747
#
#
#
# Elastic Compliance Matrix: (Units=1/GPa)
#
#
# Indices 1 2 3 4 5 6 
#
# 1 0.005908 -0.003191 -0.001830 0.000000 0.000000 0.000000
# 2 -0.003191 0.013132 0.000438 0.000000 0.000000 0.000000
# 3 -0.001830 0.000438 0.006700 0.000000 0.000000 0.000000
# 4 0.000000 0.000000 0.000000 0.024920 0.000000 0.000000
# 5 0.000000 0.000000 0.000000 0.000000 0.025136 0.000000
# 6 0.000000 0.000000 0.000000 0.000000 0.000000 0.110196
#
#
# Mechanical properties :
#
#
# Convention : Reuss Voigt Hill
#
# Bulk Modulus (GPa) = 60.33527 76.76550 68.55038
# Shear Modulus (GPa) = 24.91497 41.27814 33.09655
#
# Velocity S-wave (km/s) = 3.16878 4.07871 3.65219
# Velocity P-wave (km/s) = 6.14040 7.28828 6.73883
#
# Compressibility (1/GPa) = 0.01657405
#
# Stress axis : x y z
#
# Youngs Moduli (GPa) = 169.26606 76.14907 149.25585
#
# Poissons Ratio (x) = 0.24300 0.27315
# Poissons Ratio (y) = 0.54014 -0.06542
# Poissons Ratio (z) = 0.30978 -0.03337
#
# Static dielectric constant tensor:
#      x y z
#    x -0.412050 0.000000 0.000000 
#    y 0.000000 1.159690 0.000000 
#    z 0.000000 0.000000 2.049720 
# 
# From -- ./inp_files/16946.got.cif
#   From: 2010.05.17/outbox.cif.g08.bks.cpg/sg66_9_cif.got.tgz:16946.got - 2010.06.03 17:51:23.
