data_PCOD9499742
_publ_section_title
;
Structure prediction by ZEFSAII (Michael W. Deem and Ramdas Pophale) SiO2 
 PCOD9499742
Probable space group: C C C M
;
_chemical_formula_sum "Si O2"
_cell_formula_units_Z 64
_cell_length_a 13.784426
_cell_length_b 16.584279
_cell_length_c 11.611799
_cell_angle_alpha 90.000000
_cell_angle_beta 90.000000
_cell_angle_gamma 90.000000
_cell_volume 2654.512601
_symmetry_space_group_name_H-M "C C C M"
_symmetry_group_IT_number 66
_symmetry_cell_setting 'orthorhombic'
loop_
_space_group_symop_operation_xyz
x,y,z
-x,-y,z
x,-y,1/2-z
-x,y,1/2-z
-x,-y,-z
x,y,-z
-x,y,1/2+z
x,-y,1/2+z
1/2+x,1/2+y,z
1/2-x,1/2-y,z
1/2+x,1/2-y,1/2-z
1/2-x,1/2+y,1/2-z
1/2-x,1/2-y,-z
1/2+x,1/2+y,-z
1/2-x,1/2+y,1/2+z
1/2+x,1/2-y,1/2+z
loop_
_atom_site_type_symbol
_atom_site_label
_atom_site_fract_x
_atom_site_fract_y
_atom_site_fract_z
Si Si1 0.749320 0.085123 0.259148
Si Si2 0.909034 0.295820 0.174028
Si Si3 0.933204 0.883634 0.631847
Si Si4 0.516546 0.093838 0.500000
Si Si5 0.758201 0.651751 0.000000
O O1 0.683069 0.162065 0.229092
O O2 0.835176 0.070754 0.168088
O O3 0.786348 0.111907 0.385380
O O4 0.692358 0.000000 0.250000
O O5 0.892327 0.208402 0.121346
O O6 0.000000 0.272444 0.250000
O O7 0.958114 0.366395 0.102662
O O8 0.969285 0.903344 0.500000
O O9 0.000000 0.894026 0.750000
O O10 0.627985 0.124147 0.500000
O O11 0.500000 0.000000 0.500000
O O12 0.750000 0.750000 0.000000
#
# Coordination Sequence:
#
# PCOD9499742 Si02
#       5
#    16  16  16   8   8
#     4  12  28  45  72 107 149 192 250 320 387 459
#     4  11  23  42  69 104 146 186 239 295 373 458
#     4  11  27  49  77 105 141 195 254 311 382 459
#     4  12  24  40  70 108 151 193 244 312 390 460
#     4  12  26  46  75 107 156 212 258 311 396 494
#
# _framework density 24.109887000000001
#
# number of rings (size 3 to 8) (size 9 to 14) (size 15 to 20)
#    0.000    0.500    3.750    3.750    8.750    1.500 
#    0.000    1.250    0.000    0.000    0.000    0.000 
#    0.000    0.000    0.000    0.000    0.000    0.000 
#
# Total GULP energy -178211.867845 kJ/mol
# GULP energy per Si atom -5569.120870 kJ/mol
# Density = 2.405501 g / cm^3
# Si number density = 24.109887 Si / 1000 Ang^3
#
#
#
# Elastic Constant Matrix: (Units=GPa)
#
#
# Indices 1 2 3 4 5 6 
#
# 1 82.5981 5.6341 33.9942 0.0000 0.0000 0.0000
# 2 5.6341 152.2994 17.0218 0.0000 0.0000 0.0000
# 3 33.9942 17.0218 141.6761 0.0000 0.0000 0.0000
# 4 0.0000 0.0000 0.0000 58.4195 0.0000 0.0000
# 5 0.0000 0.0000 0.0000 0.0000 27.3772 0.0000
# 6 0.0000 0.0000 0.0000 0.0000 0.0000 36.0042
#
#
#
# Elastic Compliance Matrix: (Units=1/GPa)
#
#
# Indices 1 2 3 4 5 6 
#
# 1 0.013436 -0.000139 -0.003207 0.000000 0.000000 0.000000
# 2 -0.000139 0.006657 -0.000767 0.000000 0.000000 0.000000
# 3 -0.003207 -0.000767 0.007920 0.000000 0.000000 0.000000
# 4 0.000000 0.000000 0.000000 0.017118 0.000000 0.000000
# 5 0.000000 0.000000 0.000000 0.000000 0.036527 0.000000
# 6 0.000000 0.000000 0.000000 0.000000 0.000000 0.027775
#
#
# Mechanical properties :
#
#
# Convention : Reuss Voigt Hill
#
# Bulk Modulus (GPa) = 50.53500 54.43042 52.48271
# Shear Modulus (GPa) = 40.24054 45.68842 42.96448
#
# Velocity S-wave (km/s) = 4.08983 4.35789 4.22599
# Velocity P-wave (km/s) = 6.58089 6.92435 6.75480
#
# Compressibility (1/GPa) = 0.01978826
#
# Stress axis : x y z
#
# Youngs Moduli (GPa) = 74.42542 150.22201 126.26236
#
# Poissons Ratio (x) = 0.02082 0.40496
# Poissons Ratio (y) = 0.01031 0.09678
# Poissons Ratio (z) = 0.23870 0.11515
#
# Static dielectric constant tensor:
#      x y z
#    x 1.816370 0.000000 0.000000 
#    y 0.000000 1.940080 0.000000 
#    z 0.000000 0.000000 2.056150 
# 
# From -- ./inp_files/15941.got.cif
#   From: 2010.05.17/outbox.cif.g08.bks.cpg/sg66_8_cif.got.tgz:15941.got - 2010.06.03 17:51:23.
