data_PCOD9499453
_publ_section_title
;
Structure prediction by ZEFSAII (Michael W. Deem and Ramdas Pophale) SiO2 
 PCOD9499453
Probable space group: C C C M
;
_chemical_formula_sum "Si O2"
_cell_formula_units_Z 80
_cell_length_a 13.031228
_cell_length_b 13.485934
_cell_length_c 21.819532
_cell_angle_alpha 90.000000
_cell_angle_beta 90.000000
_cell_angle_gamma 90.000000
_cell_volume 3834.527040
_symmetry_space_group_name_H-M "C C C M"
_symmetry_group_IT_number 66
_symmetry_cell_setting 'orthorhombic'
loop_
_space_group_symop_operation_xyz
x,y,z
-x,-y,z
x,-y,1/2-z
-x,y,1/2-z
-x,-y,-z
x,y,-z
-x,y,1/2+z
x,-y,1/2+z
1/2+x,1/2+y,z
1/2-x,1/2-y,z
1/2+x,1/2-y,1/2-z
1/2-x,1/2+y,1/2-z
1/2-x,1/2-y,-z
1/2+x,1/2+y,-z
1/2-x,1/2+y,1/2+z
1/2+x,1/2-y,1/2+z
loop_
_atom_site_type_symbol
_atom_site_label
_atom_site_fract_x
_atom_site_fract_y
_atom_site_fract_z
Si Si1 0.019116 0.617117 0.677485
Si Si2 0.751373 0.144679 0.632190
Si Si3 0.861948 0.223564 0.124120
Si Si4 0.891107 0.981025 0.428934
Si Si5 0.122713 0.885235 0.749665
O O1 0.942723 0.688419 0.638193
O O2 0.000000 0.500000 0.669515
O O3 0.000000 0.640439 0.750000
O O4 0.136850 0.628435 0.656814
O O5 0.750000 0.250000 0.596324
O O6 0.827527 0.161383 0.689768
O O7 0.800495 0.047723 0.599798
O O8 0.750000 0.250000 0.101530
O O9 0.891687 0.136921 0.077802
O O10 0.843286 0.169059 0.189215
O O11 0.894742 0.009749 0.500000
O O12 0.000000 0.000000 0.395563
O O13 0.000000 0.881155 0.750000
O O14 0.155617 0.000000 0.750000
#
# Coordination Sequence:
#
# PCOD9499453 Si02
#       5
#    16  16  16  16  16
#     4  11  24  39  60  95 136 171 206 256 332 407
#     4  12  23  39  64  95 132 168 213 270 329 395
#     4  12  23  41  65  93 128 170 214 264 328 398
#     4  11  25  45  68  92 123 170 227 282 329 382
#     4  11  21  34  61  96 129 166 211 262 321 399
#
# _framework density 20.863068999999999
#
# number of rings (size 3 to 8) (size 9 to 14) (size 15 to 20)
#    0.000    0.600    2.000    8.400    2.800    0.800 
#    0.000    1.000    0.000    2.400    0.000    0.000 
#    0.000    0.000    0.000    0.000    0.000    0.000 
#
# Total GULP energy -223243.752057 kJ/mol
# GULP energy per Si atom -5581.093801 kJ/mol
# Density = 2.081558 g / cm^3
# Si number density = 20.863069 Si / 1000 Ang^3
#
#
#
# Elastic Constant Matrix: (Units=GPa)
#
#
# Indices 1 2 3 4 5 6 
#
# 1 158.2159 61.2470 20.2786 0.0000 0.0000 0.0000
# 2 61.2470 143.2006 6.7677 0.0000 0.0000 0.0000
# 3 20.2786 6.7677 38.3894 0.0000 0.0000 0.0000
# 4 0.0000 0.0000 0.0000 -4.6860 0.0000 0.0000
# 5 0.0000 0.0000 0.0000 0.0000 13.0879 0.0000
# 6 0.0000 0.0000 0.0000 0.0000 0.0000 36.5890
#
#
#
# Elastic Compliance Matrix: (Units=1/GPa)
#
#
# Indices 1 2 3 4 5 6 
#
# 1 0.008059 -0.003273 -0.003680 0.000000 0.000000 0.000000
# 2 -0.003273 0.008371 0.000253 0.000000 0.000000 0.000000
# 3 -0.003680 0.000253 0.027948 0.000000 0.000000 0.000000
# 4 0.000000 0.000000 0.000000 -0.213400 0.000000 0.000000
# 5 0.000000 0.000000 0.000000 0.000000 0.076406 0.000000
# 6 0.000000 0.000000 0.000000 0.000000 0.000000 0.027331
#
#
# Mechanical properties :
#
#
# Convention : Reuss Voigt Hill
#
# Bulk Modulus (GPa) = 32.28045 57.37697 44.82871
# Shear Modulus (GPa) = -120.31184 25.76567 -47.27308
#
# Velocity S-wave (km/s) = -7.60214 3.51805 -4.76528
# Velocity P-wave (km/s) = 7.84542 6.63805 2.95694
#
# Compressibility (1/GPa) = 0.03097850
#
# Stress axis : x y z
#
# Youngs Moduli (GPa) = 124.08225 119.45850 35.78052
#
# Poissons Ratio (x) = 0.39099 0.13168
# Poissons Ratio (y) = 0.40612 -0.00906
# Poissons Ratio (z) = 0.45664 -0.03024
#
# Static dielectric constant tensor:
#      x y z
#    x 1.609030 0.000000 0.000000 
#    y 0.000000 1.922060 0.000000 
#    z 0.000000 0.000000 1.746940 
# 
# From -- ./inp_files/56627.got.cif
#   From: 2010.05.17/outbox.cif.g08.bks.cpg/sg66_29_cif.got.tgz:56627.got - 2010.06.03 17:51:23.
