data_PCOD9499859
_publ_section_title
;
Structure prediction by ZEFSAII (Michael W. Deem and Ramdas Pophale) SiO2 
 PCOD9499859
Probable space group: C C C M
;
_chemical_formula_sum "Si O2"
_cell_formula_units_Z 72
_cell_length_a 8.960651
_cell_length_b 15.791038
_cell_length_c 25.201645
_cell_angle_alpha 90.000000
_cell_angle_beta 90.000000
_cell_angle_gamma 90.000000
_cell_volume 3565.981871
_symmetry_space_group_name_H-M "C C C M"
_symmetry_group_IT_number 66
_symmetry_cell_setting 'orthorhombic'
loop_
_space_group_symop_operation_xyz
x,y,z
-x,-y,z
x,-y,1/2-z
-x,y,1/2-z
-x,-y,-z
x,y,-z
-x,y,1/2+z
x,-y,1/2+z
1/2+x,1/2+y,z
1/2-x,1/2-y,z
1/2+x,1/2-y,1/2-z
1/2-x,1/2+y,1/2-z
1/2-x,1/2-y,-z
1/2+x,1/2+y,-z
1/2-x,1/2+y,1/2+z
1/2+x,1/2-y,1/2+z
loop_
_atom_site_type_symbol
_atom_site_label
_atom_site_fract_x
_atom_site_fract_y
_atom_site_fract_z
Si Si1 0.750000 0.250000 0.186668
Si Si2 0.000000 0.000000 0.331058
Si Si3 0.000000 0.147845 0.250000
Si Si4 0.929560 0.255716 0.000000
Si Si5 0.549518 0.138696 0.104924
Si Si6 0.104069 0.082402 0.000000
Si Si7 0.281109 0.970805 0.400070
O O1 0.865668 0.201837 0.225258
O O2 0.650262 0.188536 0.148245
O O3 0.961841 0.082466 0.296796
O O4 0.852513 0.991071 0.365471
O O5 0.750000 0.250000 0.000000
O O6 0.977962 0.302073 0.945772
O O7 0.000243 0.163474 0.000000
O O8 0.396973 0.095297 0.126858
O O9 0.634123 0.055821 0.082614
O O10 0.207356 0.077990 0.051386
O O11 0.000000 0.000000 0.000000
#
# Coordination Sequence:
#
# PCOD9499859 Si02
#       7
#     8   8   8   8  16   8  16
#     4  12  26  49  70 108 132 187 232 304 362 420
#     4  11  24  49  68  98 132 187 230 293 354 422
#     4  11  28  46  70  95 140 172 240 299 360 412
#     4  12  25  42  67 108 148 186 227 289 346 425
#     4  11  25  45  72 103 145 183 233 287 357 422
#     4  12  25  40  69 106 148 190 233 273 350 425
#     4  11  24  45  71 103 140 189 230 282 349 430
#
# _framework density 20.190792999999999
#
# number of rings (size 3 to 8) (size 9 to 14) (size 15 to 20)
#    0.000    0.667    4.444    2.667    6.222    3.556 
#    0.000    0.000    0.000    0.000    0.000    0.000 
#    0.000    0.000    0.000    0.000    0.000    0.000 
#
# Total GULP energy -200920.369637 kJ/mol
# GULP energy per Si atom -5581.121379 kJ/mol
# Density = 2.014484 g / cm^3
# Si number density = 20.190793 Si / 1000 Ang^3
#
#
#
# Elastic Constant Matrix: (Units=GPa)
#
#
# Indices 1 2 3 4 5 6 
#
# 1 109.5322 71.1290 42.6216 0.0000 0.0000 0.0000
# 2 71.1290 152.8828 52.3718 0.0000 0.0000 0.0000
# 3 42.6216 52.3718 83.7706 0.0000 0.0000 0.0000
# 4 0.0000 0.0000 0.0000 88.8016 0.0000 0.0000
# 5 0.0000 0.0000 0.0000 0.0000 33.3453 0.0000
# 6 0.0000 0.0000 0.0000 0.0000 0.0000 52.5030
#
#
#
# Elastic Compliance Matrix: (Units=1/GPa)
#
#
# Indices 1 2 3 4 5 6 
#
# 1 0.014010 -0.005187 -0.003885 0.000000 0.000000 0.000000
# 2 -0.005187 0.010244 -0.003765 0.000000 0.000000 0.000000
# 3 -0.003885 -0.003765 0.016268 0.000000 0.000000 0.000000
# 4 0.000000 0.000000 0.000000 0.011261 0.000000 0.000000
# 5 0.000000 0.000000 0.000000 0.000000 0.029989 0.000000
# 6 0.000000 0.000000 0.000000 0.000000 0.000000 0.019047
#
#
# Mechanical properties :
#
#
# Convention : Reuss Voigt Hill
#
# Bulk Modulus (GPa) = 67.35408 75.38117 71.36762
# Shear Modulus (GPa) = 38.03911 46.93420 42.48665
#
# Velocity S-wave (km/s) = 4.34520 4.82657 4.59220
# Velocity P-wave (km/s) = 7.65542 8.27506 7.97126
#
# Compressibility (1/GPa) = 0.01484691
#
# Stress axis : x y z
#
# Youngs Moduli (GPa) = 71.37683 97.61626 61.47014
#
# Poissons Ratio (x) = 0.50637 0.23882
# Poissons Ratio (y) = 0.37026 0.23145
# Poissons Ratio (z) = 0.27731 0.36755
#
# Static dielectric constant tensor:
#      x y z
#    x 1.794340 0.000000 0.000000 
#    y 0.000000 1.725460 0.000000 
#    z 0.000000 0.000000 1.703100 
# 
# From -- ./inp_files/62289.got.cif
#   From: 2010.05.17/outbox.cif.g08.bks.cpg/sg66_32_cif.got.tgz:62289.got - 2010.06.03 17:51:23.
