data_PCOD9499098
_publ_section_title
;
Structure prediction by ZEFSAII (Michael W. Deem and Ramdas Pophale) SiO2 
 PCOD9499098
Probable space group: C C C M
;
_chemical_formula_sum "Si O2"
_cell_formula_units_Z 112
_cell_length_a 24.371021
_cell_length_b 14.183412
_cell_length_c 15.019832
_cell_angle_alpha 90.000000
_cell_angle_beta 90.000000
_cell_angle_gamma 90.000000
_cell_volume 5191.818689
_symmetry_space_group_name_H-M "C C C M"
_symmetry_group_IT_number 66
_symmetry_cell_setting 'orthorhombic'
loop_
_space_group_symop_operation_xyz
x,y,z
-x,-y,z
x,-y,1/2-z
-x,y,1/2-z
-x,-y,-z
x,y,-z
-x,y,1/2+z
x,-y,1/2+z
1/2+x,1/2+y,z
1/2-x,1/2-y,z
1/2+x,1/2-y,1/2-z
1/2-x,1/2+y,1/2-z
1/2-x,1/2-y,-z
1/2+x,1/2+y,-z
1/2-x,1/2+y,1/2+z
1/2+x,1/2-y,1/2+z
loop_
_atom_site_type_symbol
_atom_site_label
_atom_site_fract_x
_atom_site_fract_y
_atom_site_fract_z
Si Si1 0.634431 0.610248 0.240147
Si Si2 0.469888 0.600362 0.607245
Si Si3 0.188334 0.783413 0.593693
Si Si4 0.687064 0.271704 0.100765
Si Si5 0.112681 0.385585 0.152595
Si Si6 0.382308 0.902019 0.140709
Si Si7 0.497527 0.194222 0.395544
O O1 0.639708 0.500000 0.250000
O O2 0.578660 0.619861 0.179396
O O3 0.680585 0.648104 0.174679
O O4 0.648777 0.666320 0.331784
O O5 0.500000 0.500000 0.625053
O O6 0.454441 0.598883 0.500000
O O7 0.507645 0.693232 0.619611
O O8 0.174055 0.830498 0.500000
O O9 0.250000 0.750000 0.591675
O O10 0.148718 0.694078 0.606433
O O11 0.750000 0.250000 0.130460
O O12 0.658771 0.169731 0.095512
O O13 0.688604 0.312683 0.000000
O O14 0.118417 0.489401 0.111940
O O15 0.130816 0.394722 0.254602
O O16 0.050075 0.349604 0.152811
O O17 0.443060 0.861293 0.127535
O O18 0.509076 0.182273 0.500000
#
# Coordination Sequence:
#
# PCOD9499098 Si02
#       7
#    16  16  16  16  16  16  16
#     4  12  26  44  70 102 139 187 236 295 353 422
#     4  10  23  43  69 101 142 191 239 291 356 429
#     4  11  24  45  73 104 137 178 232 290 354 422
#     4  11  26  49  72  99 141 189 239 295 357 430
#     4  11  23  41  68  99 137 176 221 289 350 422
#     4  11  24  41  67 101 133 178 229 279 350 429
#     4  11  22  39  65  96 136 176 222 282 345 417
#
# _framework density 21.572403000000001
#
# number of rings (size 3 to 8) (size 9 to 14) (size 15 to 20)
#    0.000    1.000    2.857    2.571    2.000    6.571 
#    0.000    2.857    0.000    0.429    0.000    0.000 
#    0.000    0.000    0.000    0.000    0.000    0.000 
#
# Total GULP energy -312702.558992 kJ/mol
# GULP energy per Si atom -5583.974268 kJ/mol
# Density = 2.152330 g / cm^3
# Si number density = 21.572403 Si / 1000 Ang^3
#
#
#
# Elastic Constant Matrix: (Units=GPa)
#
#
# Indices 1 2 3 4 5 6 
#
# 1 94.8815 4.2948 3.4194 0.0000 0.0000 0.0000
# 2 4.2948 92.6138 11.2308 0.0000 0.0000 0.0000
# 3 3.4194 11.2308 108.8159 0.0000 0.0000 0.0000
# 4 0.0000 0.0000 0.0000 51.9344 0.0000 0.0000
# 5 0.0000 0.0000 0.0000 0.0000 -22.1805 0.0000
# 6 0.0000 0.0000 0.0000 0.0000 0.0000 18.0166
#
#
#
# Elastic Compliance Matrix: (Units=1/GPa)
#
#
# Indices 1 2 3 4 5 6 
#
# 1 0.010570 -0.000456 -0.000285 0.000000 0.000000 0.000000
# 2 -0.000456 0.010954 -0.001116 0.000000 0.000000 0.000000
# 3 -0.000285 -0.001116 0.009314 0.000000 0.000000 0.000000
# 4 0.000000 0.000000 0.000000 0.019255 0.000000 0.000000
# 5 0.000000 0.000000 0.000000 0.000000 -0.045085 0.000000
# 6 0.000000 0.000000 0.000000 0.000000 0.000000 0.055504
#
#
# Mechanical properties :
#
#
# Convention : Reuss Voigt Hill
#
# Bulk Modulus (GPa) = 36.86715 37.13346 37.00031
# Shear Modulus (GPa) = 68.24224 28.04520 48.14372
#
# Velocity S-wave (km/s) = 5.63052 3.60953 4.72924
# Velocity P-wave (km/s) = 7.70697 5.88408 6.85638
#
# Compressibility (1/GPa) = 0.02712442
#
# Stress axis : x y z
#
# Youngs Moduli (GPa) = 94.60414 91.29067 107.36526
#
# Poissons Ratio (x) = 0.04159 0.03061
# Poissons Ratio (y) = 0.04310 0.11985
# Poissons Ratio (z) = 0.02697 0.10190
#
# Static dielectric constant tensor:
#      x y z
#    x 1.770140 0.000000 0.000000 
#    y 0.000000 1.755150 0.000000 
#    z 0.000000 0.000000 1.866860 
# 
# From -- ./inp_files/32433.got.cif
#   From: 2010.05.17/outbox.cif.g08.bks.cpg/sg66_17_cif.got.tgz:32433.got - 2010.06.03 17:51:23.
