data_PCOD9499985
_publ_section_title
;
Structure prediction by ZEFSAII (Michael W. Deem and Ramdas Pophale) SiO2 
 PCOD9499985
Probable space group: C C C M
;
_chemical_formula_sum "Si O2"
_cell_formula_units_Z 88
_cell_length_a 11.830304
_cell_length_b 27.314153
_cell_length_c 14.154564
_cell_angle_alpha 90.000000
_cell_angle_beta 90.000000
_cell_angle_gamma 90.000000
_cell_volume 4573.831266
_symmetry_space_group_name_H-M "C C C M"
_symmetry_group_IT_number 66
_symmetry_cell_setting 'orthorhombic'
loop_
_space_group_symop_operation_xyz
x,y,z
-x,-y,z
x,-y,1/2-z
-x,y,1/2-z
-x,-y,-z
x,y,-z
-x,y,1/2+z
x,-y,1/2+z
1/2+x,1/2+y,z
1/2-x,1/2-y,z
1/2+x,1/2-y,1/2-z
1/2-x,1/2+y,1/2-z
1/2-x,1/2-y,-z
1/2+x,1/2+y,-z
1/2-x,1/2+y,1/2+z
1/2+x,1/2-y,1/2+z
loop_
_atom_site_type_symbol
_atom_site_label
_atom_site_fract_x
_atom_site_fract_y
_atom_site_fract_z
Si Si1 0.000000 0.637437 0.250000
Si Si2 0.083743 0.711577 0.110626
Si Si3 0.879163 0.529253 0.000000
Si Si4 0.871537 0.976806 0.500000
Si Si5 0.846672 0.182054 0.113140
Si Si6 0.157980 0.446521 0.791142
Si Si7 0.615348 0.578157 0.699381
O O1 0.000326 0.674876 0.163195
O O2 0.101541 0.599188 0.238543
O O3 0.086186 0.768500 0.139970
O O4 0.212970 0.693121 0.124720
O O5 0.060860 0.710457 0.000000
O O6 0.877870 0.556881 0.900059
O O7 0.000000 0.500000 0.000000
O O8 0.752971 0.503794 0.000000
O O9 0.868110 0.947127 0.597973
O O10 0.000000 0.000000 0.500000
O O11 0.878917 0.135732 0.175432
O O12 0.864512 0.173184 0.000000
O O13 0.126155 0.500000 0.750000
O O14 0.289109 0.439545 0.771564
O O15 0.500000 0.565319 0.750000
#
# Coordination Sequence:
#
# PCOD9499985 Si02
#       7
#     8  16   8   8  16  16  16
#     4  12  23  38  64  92 134 168 203 260 336 394
#     4   9  20  37  64  91 126 162 214 263 324 390
#     4  12  26  44  70  95 135 177 219 280 326 393
#     4  12  26  46  68  92 134 182 222 278 335 387
#     4   9  18  40  63  92 121 163 217 275 316 381
#     4  12  26  44  62  96 130 169 219 265 328 393
#     4  12  25  41  68  95 128 175 228 270 326 398
#
# _framework density 19.239888000000001
#
# number of rings (size 3 to 8) (size 9 to 14) (size 15 to 20)
#    0.000    1.091    4.545    3.545    2.545    0.000 
#    1.636    0.000    0.000    0.000    0.000    5.091 
#    0.000    0.000    0.000    0.000    0.000    0.000 
#
# Total GULP energy -245331.569508 kJ/mol
# GULP energy per Si atom -5575.717489 kJ/mol
# Density = 1.919610 g / cm^3
# Si number density = 19.239888 Si / 1000 Ang^3
#
#
#
# Elastic Constant Matrix: (Units=GPa)
#
#
# Indices 1 2 3 4 5 6 
#
# 1 84.1466 9.3242 -6.8498 0.0000 0.0000 0.0000
# 2 9.3242 95.8415 16.3923 0.0000 0.0000 0.0000
# 3 -6.8498 16.3923 62.3697 0.0000 0.0000 0.0000
# 4 0.0000 0.0000 0.0000 23.6460 0.0000 0.0000
# 5 0.0000 0.0000 0.0000 0.0000 23.0395 0.0000
# 6 0.0000 0.0000 0.0000 0.0000 0.0000 16.2320
#
#
#
# Elastic Compliance Matrix: (Units=1/GPa)
#
#
# Indices 1 2 3 4 5 6 
#
# 1 0.012189 -0.001481 0.001728 0.000000 0.000000 0.000000
# 2 -0.001481 0.011105 -0.003081 0.000000 0.000000 0.000000
# 3 0.001728 -0.003081 0.017033 0.000000 0.000000 0.000000
# 4 0.000000 0.000000 0.000000 0.042290 0.000000 0.000000
# 5 0.000000 0.000000 0.000000 0.000000 0.043404 0.000000
# 6 0.000000 0.000000 0.000000 0.000000 0.000000 0.061607
#
#
# Mechanical properties :
#
#
# Convention : Reuss Voigt Hill
#
# Bulk Modulus (GPa) = 28.85386 31.12126 29.98756
# Shear Modulus (GPa) = 24.40813 27.48291 25.94552
#
# Velocity S-wave (km/s) = 3.56563 3.78356 3.67621
# Velocity P-wave (km/s) = 5.65519 5.94118 5.79995
#
# Compressibility (1/GPa) = 0.03465741
#
# Stress axis : x y z
#
# Youngs Moduli (GPa) = 82.04234 90.04916 58.70930
#
# Poissons Ratio (x) = 0.13340 -0.10145
# Poissons Ratio (y) = 0.12154 0.18091
# Poissons Ratio (z) = -0.14177 0.27748
#
# Static dielectric constant tensor:
#      x y z
#    x 1.649950 0.000000 0.000000 
#    y 0.000000 1.659850 0.000000 
#    z 0.000000 0.000000 1.764250 
# 
# From -- ./inp_files/21345.got.cif
#   From: 2010.05.17/outbox.cif.g08.bks.cpg/sg66_11_cif.got.tgz:21345.got - 2010.06.03 17:51:23.
