data_PCOD9499391
_publ_section_title
;
Structure prediction by ZEFSAII (Michael W. Deem and Ramdas Pophale) SiO2 
 PCOD9499391
Probable space group: C C C M
;
_chemical_formula_sum "Si O2"
_cell_formula_units_Z 64
_cell_length_a 15.600279
_cell_length_b 12.107184
_cell_length_c 14.460761
_cell_angle_alpha 90.000000
_cell_angle_beta 90.000000
_cell_angle_gamma 90.000000
_cell_volume 2731.282717
_symmetry_space_group_name_H-M "C C C M"
_symmetry_group_IT_number 66
_symmetry_cell_setting 'orthorhombic'
loop_
_space_group_symop_operation_xyz
x,y,z
-x,-y,z
x,-y,1/2-z
-x,y,1/2-z
-x,-y,-z
x,y,-z
-x,y,1/2+z
x,-y,1/2+z
1/2+x,1/2+y,z
1/2-x,1/2-y,z
1/2+x,1/2-y,1/2-z
1/2-x,1/2+y,1/2-z
1/2-x,1/2-y,-z
1/2+x,1/2+y,-z
1/2-x,1/2+y,1/2+z
1/2+x,1/2-y,1/2+z
loop_
_atom_site_type_symbol
_atom_site_label
_atom_site_fract_x
_atom_site_fract_y
_atom_site_fract_z
Si Si1 0.467967 0.823443 0.896063
Si Si2 0.319025 0.557184 0.604161
Si Si3 0.130473 0.458697 0.853478
Si Si4 0.836588 0.825301 0.709473
O O1 0.409201 0.933781 0.901162
O O2 0.584476 0.740223 0.666498
O O3 0.556985 0.867173 0.855019
O O4 0.481153 0.781303 0.000000
O O5 0.353728 0.567373 0.500000
O O6 0.217561 0.583131 0.602960
O O7 0.323340 0.431989 0.643493
O O8 0.355302 0.632556 0.686613
O O9 0.149466 0.500000 0.750000
O O10 0.750000 0.750000 0.708967
#
# Coordination Sequence:
#
# PCOD9499391 Si02
#       4
#    16  16  16  16
#     4  11  21  33  58  93 137 184 225 282 353 420
#     4  11  22  39  64  96 139 187 241 292 347 422
#     4  11  20  37  61  98 141 175 221 288 351 418
#     4  11  22  38  59  96 139 188 232 290 357 414
#
# _framework density 23.432214999999999
#
# number of rings (size 3 to 8) (size 9 to 14) (size 15 to 20)
#    0.000    1.000    5.000    5.250    0.000    1.500 
#    0.000    0.000    0.000    4.500    0.000   56.000 
#    0.000  112.000    0.000    0.000    0.000    0.000 
#
# Total GULP energy -179238.223725 kJ/mol
# GULP energy per Si atom -5601.194491 kJ/mol
# Density = 2.337888 g / cm^3
# Si number density = 23.432215 Si / 1000 Ang^3
#
#
#
# Elastic Constant Matrix: (Units=GPa)
#
#
# Indices 1 2 3 4 5 6 
#
# 1 65.8812 56.4384 36.3953 0.0000 0.0000 0.0000
# 2 56.4384 112.5915 48.6690 0.0000 0.0000 0.0000
# 3 36.3953 48.6690 207.9964 0.0000 0.0000 0.0000
# 4 0.0000 0.0000 0.0000 -41.4857 0.0000 0.0000
# 5 0.0000 0.0000 0.0000 0.0000 69.6156 0.0000
# 6 0.0000 0.0000 0.0000 0.0000 0.0000 45.8544
#
#
#
# Elastic Compliance Matrix: (Units=1/GPa)
#
#
# Indices 1 2 3 4 5 6 
#
# 1 0.027159 -0.012860 -0.001743 0.000000 0.000000 0.000000
# 2 -0.012860 0.015971 -0.001487 0.000000 0.000000 0.000000
# 3 -0.001743 -0.001487 0.005461 0.000000 0.000000 0.000000
# 4 0.000000 0.000000 0.000000 -0.024105 0.000000 0.000000
# 5 0.000000 0.000000 0.000000 0.000000 0.014365 0.000000
# 6 0.000000 0.000000 0.000000 0.000000 0.000000 0.021808
#
#
# Mechanical properties :
#
#
# Convention : Reuss Voigt Hill
#
# Bulk Modulus (GPa) = 60.93833 74.38606 67.66220
# Shear Modulus (GPa) = 50.86016 31.12795 40.99406
#
# Velocity S-wave (km/s) = 4.66394 3.64871 4.18721
# Velocity P-wave (km/s) = 7.42063 7.04024 7.23294
#
# Compressibility (1/GPa) = 0.01641003
#
# Stress axis : x y z
#
# Youngs Moduli (GPa) = 36.82031 62.61426 183.12840
#
# Poissons Ratio (x) = 0.80525 0.31921
# Poissons Ratio (y) = 0.47352 0.27225
# Poissons Ratio (z) = 0.06418 0.09309
#
# Static dielectric constant tensor:
#      x y z
#    x 1.845630 0.000000 0.000000 
#    y 0.000000 1.903480 0.000000 
#    z 0.000000 0.000000 1.917560 
# 
# From -- ./inp_files/29566.got.cif
#   From: 2010.05.17/outbox.cif.g08.bks.cpg/sg66_15_cif.got.tgz:29566.got - 2010.06.03 17:51:23.
