data_PCOD9499584
_publ_section_title
;
Structure prediction by ZEFSAII (Michael W. Deem and Ramdas Pophale) SiO2 
 PCOD9499584
Probable space group: C C C M
;
_chemical_formula_sum "Si O2"
_cell_formula_units_Z 96
_cell_length_a 21.359962
_cell_length_b 11.583605
_cell_length_c 17.270817
_cell_angle_alpha 90.000000
_cell_angle_beta 90.000000
_cell_angle_gamma 90.000000
_cell_volume 4273.238159
_symmetry_space_group_name_H-M "C C C M"
_symmetry_group_IT_number 66
_symmetry_cell_setting 'orthorhombic'
loop_
_space_group_symop_operation_xyz
x,y,z
-x,-y,z
x,-y,1/2-z
-x,y,1/2-z
-x,-y,-z
x,y,-z
-x,y,1/2+z
x,-y,1/2+z
1/2+x,1/2+y,z
1/2-x,1/2-y,z
1/2+x,1/2-y,1/2-z
1/2-x,1/2+y,1/2-z
1/2-x,1/2-y,-z
1/2+x,1/2+y,-z
1/2-x,1/2+y,1/2+z
1/2+x,1/2-y,1/2+z
loop_
_atom_site_type_symbol
_atom_site_label
_atom_site_fract_x
_atom_site_fract_y
_atom_site_fract_z
Si Si1 0.014022 0.626681 0.159085
Si Si2 0.816417 0.312948 0.414084
Si Si3 0.581727 0.328520 0.674047
Si Si4 0.120794 0.926865 0.157021
Si Si5 0.357290 0.195503 0.588595
Si Si6 0.268721 0.963471 0.834774
O O1 0.974581 0.745342 0.145104
O O2 0.000000 0.500000 0.123545
O O3 0.000000 0.615788 0.250000
O O4 0.085126 0.642202 0.135310
O O5 0.845259 0.306438 0.500000
O O6 0.750000 0.250000 0.415619
O O7 0.858835 0.247078 0.352136
O O8 0.799522 0.442730 0.391454
O O9 0.591549 0.364690 0.765397
O O10 0.583203 0.456751 0.637737
O O11 0.127766 0.830728 0.092305
O O12 0.193453 0.964953 0.168403
O O13 0.353259 0.157812 0.500000
O O14 0.296331 0.156808 0.635830
O O15 0.291278 0.000000 0.750000
#
# Coordination Sequence:
#
# PCOD9499584 Si02
#       6
#    16  16  16  16  16  16
#     4  11  25  46  73  98 132 182 238 299 354 425
#     4  11  22  37  62  98 134 172 224 287 354 421
#     4  11  22  45  69 101 134 179 248 298 348 419
#     4  11  23  43  69 103 138 187 236 301 357 431
#     4  12  28  45  66 105 149 190 233 290 375 446
#     4  12  23  41  71 101 141 186 241 293 358 434
#
# _framework density 22.465399999999999
#
# number of rings (size 3 to 8) (size 9 to 14) (size 15 to 20)
#    0.000    0.667    5.000    3.000    2.333    4.333 
#    0.000    0.833    0.000    0.000    0.000    0.000 
#    0.000    0.000    0.000    0.000    0.000    0.000 
#
# Total GULP energy -267765.416278 kJ/mol
# GULP energy per Si atom -5578.446172 kJ/mol
# Density = 2.241427 g / cm^3
# Si number density = 22.465400 Si / 1000 Ang^3
#
#
#
# Elastic Constant Matrix: (Units=GPa)
#
#
# Indices 1 2 3 4 5 6 
#
# 1 75.0716 44.4917 12.9750 0.0000 0.0000 0.0000
# 2 44.4917 151.6070 14.1779 0.0000 0.0000 0.0000
# 3 12.9750 14.1779 62.6091 0.0000 0.0000 0.0000
# 4 0.0000 0.0000 0.0000 15.6528 0.0000 0.0000
# 5 0.0000 0.0000 0.0000 0.0000 -20.6420 0.0000
# 6 0.0000 0.0000 0.0000 0.0000 0.0000 51.2304
#
#
#
# Elastic Compliance Matrix: (Units=1/GPa)
#
#
# Indices 1 2 3 4 5 6 
#
# 1 0.016462 -0.004610 -0.002368 0.000000 0.000000 0.000000
# 2 -0.004610 0.008029 -0.000863 0.000000 0.000000 0.000000
# 3 -0.002368 -0.000863 0.016658 0.000000 0.000000 0.000000
# 4 0.000000 0.000000 0.000000 0.063886 0.000000 0.000000
# 5 0.000000 0.000000 0.000000 0.000000 -0.048445 0.000000
# 6 0.000000 0.000000 0.000000 0.000000 0.000000 0.019520
#
#
# Mechanical properties :
#
#
# Convention : Reuss Voigt Hill
#
# Bulk Modulus (GPa) = 39.26346 48.06407 43.66377
# Shear Modulus (GPa) = 49.86017 23.75779 36.80898
#
# Velocity S-wave (km/s) = 4.71618 3.25549 4.05220
# Velocity P-wave (km/s) = 6.86817 5.96424 6.43210
#
# Compressibility (1/GPa) = 0.02546898
#
# Stress axis : x y z
#
# Youngs Moduli (GPa) = 60.74699 124.54140 60.03046
#
# Poissons Ratio (x) = 0.57408 0.14213
# Poissons Ratio (y) = 0.28002 0.05181
# Poissons Ratio (z) = 0.14383 0.10748
#
# Static dielectric constant tensor:
#      x y z
#    x 1.923630 0.000000 0.000000 
#    y 0.000000 2.156050 0.000000 
#    z 0.000000 0.000000 1.788620 
# 
# From -- ./inp_files/43565.got.cif
#   From: 2010.05.17/outbox.cif.g08.bks.cpg/sg66_22_cif.got.tgz:43565.got - 2010.06.03 17:51:23.
