data_PCOD9499800
_publ_section_title
;
Structure prediction by ZEFSAII (Michael W. Deem and Ramdas Pophale) SiO2 
 PCOD9499800
Probable space group: C C C M
;
_chemical_formula_sum "Si O2"
_cell_formula_units_Z 56
_cell_length_a 4.887984
_cell_length_b 21.516042
_cell_length_c 22.421735
_cell_angle_alpha 90.000000
_cell_angle_beta 90.000000
_cell_angle_gamma 90.000000
_cell_volume 2358.095418
_symmetry_space_group_name_H-M "C C C M"
_symmetry_group_IT_number 66
_symmetry_cell_setting 'orthorhombic'
loop_
_space_group_symop_operation_xyz
x,y,z
-x,-y,z
x,-y,1/2-z
-x,y,1/2-z
-x,-y,-z
x,y,-z
-x,y,1/2+z
x,-y,1/2+z
1/2+x,1/2+y,z
1/2-x,1/2-y,z
1/2+x,1/2-y,1/2-z
1/2-x,1/2+y,1/2-z
1/2-x,1/2-y,-z
1/2+x,1/2+y,-z
1/2-x,1/2+y,1/2+z
1/2+x,1/2-y,1/2+z
loop_
_atom_site_type_symbol
_atom_site_label
_atom_site_fract_x
_atom_site_fract_y
_atom_site_fract_z
Si Si1 0.500000 0.109055 0.750000
Si Si2 0.760729 0.824147 0.859392
Si Si3 0.000000 0.500000 0.671717
Si Si4 0.753043 0.629500 0.567302
Si Si5 0.500000 0.500000 0.403259
O O1 0.317451 0.149729 0.794026
O O2 0.639612 0.057020 0.792688
O O3 0.750000 0.750000 0.858166
O O4 0.552077 0.853112 0.908500
O O5 0.058495 0.841170 0.883028
O O6 0.252220 0.527889 0.635458
O O7 0.717547 0.653693 0.500000
O O8 0.660464 0.556733 0.565514
#
# Coordination Sequence:
#
# PCOD9499800 Si02
#       5
#     8  16   8  16   8
#     4  11  24  48  70 108 138 185 238 302 366 439
#     4  12  28  47  71 103 144 193 242 294 357 432
#     4  11  24  40  77 100 145 180 232 303 372 439
#     4  12  26  47  73 105 143 187 243 298 361 433
#     4  12  21  47  68 110 140 181 235 302 372 434
#
# _framework density 23.747979999999998
#
# number of rings (size 3 to 8) (size 9 to 14) (size 15 to 20)
#    0.000    0.286    5.714    2.143    0.000   11.429 
#    0.000    4.286    0.000    0.000    0.000    0.000 
#    0.000    0.000    0.000    0.000    0.000    0.000 
#
# Total GULP energy -156366.038867 kJ/mol
# GULP energy per Si atom -5584.501388 kJ/mol
# Density = 2.369393 g / cm^3
# Si number density = 23.747980 Si / 1000 Ang^3
#
#
#
# Elastic Constant Matrix: (Units=GPa)
#
#
# Indices 1 2 3 4 5 6 
#
# 1 65.9021 -3.1917 9.6903 0.0000 0.0000 0.0000
# 2 -3.1917 149.4321 32.2250 0.0000 0.0000 0.0000
# 3 9.6903 32.2250 119.3919 0.0000 0.0000 0.0000
# 4 0.0000 0.0000 0.0000 0.7110 0.0000 0.0000
# 5 0.0000 0.0000 0.0000 0.0000 16.1455 0.0000
# 6 0.0000 0.0000 0.0000 0.0000 0.0000 27.8191
#
#
#
# Elastic Compliance Matrix: (Units=1/GPa)
#
#
# Indices 1 2 3 4 5 6 
#
# 1 0.015414 0.000636 -0.001423 0.000000 0.000000 0.000000
# 2 0.000636 0.007132 -0.001977 0.000000 0.000000 0.000000
# 3 -0.001423 -0.001977 0.009025 0.000000 0.000000 0.000000
# 4 0.000000 0.000000 0.000000 1.406534 0.000000 0.000000
# 5 0.000000 0.000000 0.000000 0.000000 0.061937 0.000000
# 6 0.000000 0.000000 0.000000 0.000000 0.000000 0.035947
#
#
# Mechanical properties :
#
#
# Convention : Reuss Voigt Hill
#
# Bulk Modulus (GPa) = 38.39647 45.79706 42.09676
# Shear Modulus (GPa) = 3.22540 28.66861 15.94701
#
# Velocity S-wave (km/s) = 1.16667 3.47825 2.59416
# Velocity P-wave (km/s) = 4.24479 5.95462 5.17087
#
# Compressibility (1/GPa) = 0.02604406
#
# Stress axis : x y z
#
# Youngs Moduli (GPa) = 64.87598 140.21638 110.80645
#
# Poissons Ratio (x) = -0.08918 0.15765
# Poissons Ratio (y) = -0.04126 0.21902
# Poissons Ratio (z) = 0.09230 0.27715
#
# Static dielectric constant tensor:
#      x y z
#    x 1.832430 0.000000 0.000000 
#    y 0.000000 1.949930 0.000000 
#    z 0.000000 0.000000 2.038650 
# 
# From -- ./inp_files/45505.got.cif
#   From: 2010.05.17/outbox.cif.g08.bks.cpg/sg66_23_cif.got.tgz:45505.got - 2010.06.03 17:51:23.
