data_PCOD9499334
_publ_section_title
;
Structure prediction by ZEFSAII (Michael W. Deem and Ramdas Pophale) SiO2 
 PCOD9499334
Probable space group: C C C M
;
_chemical_formula_sum "Si O2"
_cell_formula_units_Z 96
_cell_length_a 14.962947
_cell_length_b 30.623703
_cell_length_c 10.560357
_cell_angle_alpha 90.000000
_cell_angle_beta 90.000000
_cell_angle_gamma 90.000000
_cell_volume 4838.975707
_symmetry_space_group_name_H-M "C C C M"
_symmetry_group_IT_number 66
_symmetry_cell_setting 'orthorhombic'
loop_
_space_group_symop_operation_xyz
x,y,z
-x,-y,z
x,-y,1/2-z
-x,y,1/2-z
-x,-y,-z
x,y,-z
-x,y,1/2+z
x,-y,1/2+z
1/2+x,1/2+y,z
1/2-x,1/2-y,z
1/2+x,1/2-y,1/2-z
1/2-x,1/2+y,1/2-z
1/2-x,1/2-y,-z
1/2+x,1/2+y,-z
1/2-x,1/2+y,1/2+z
1/2+x,1/2-y,1/2+z
loop_
_atom_site_type_symbol
_atom_site_label
_atom_site_fract_x
_atom_site_fract_y
_atom_site_fract_z
Si Si1 0.392003 0.952246 0.000000
Si Si2 0.865660 0.211342 0.148287
Si Si3 0.404160 0.523466 0.864578
Si Si4 0.849436 0.694818 0.650196
Si Si5 0.363100 0.381226 0.349043
Si Si6 0.893338 0.554222 0.000000
Si Si7 0.168692 0.601727 0.755064
O O1 0.499069 0.947051 0.000000
O O2 0.357239 0.928296 0.125704
O O3 0.366580 0.003232 0.000000
O O4 0.887536 0.259125 0.202249
O O5 0.758346 0.202678 0.156518
O O6 0.903792 0.164979 0.192887
O O7 0.887601 0.215748 0.000000
O O8 0.500000 0.500000 0.873169
O O9 0.354228 0.500000 0.750000
O O10 0.418971 0.574578 0.842289
O O11 0.357635 0.518698 0.000000
O O12 0.870034 0.688974 0.500000
O O13 0.871754 0.650396 0.723123
O O14 0.339002 0.376233 0.500000
O O15 0.274913 0.391214 0.268381
O O16 0.859782 0.579211 0.125218
#
# Coordination Sequence:
#
# PCOD9499334 Si02
#       7
#     8  16  16  16  16   8  16
#     4  11  22  42  54  67  97 139 183 208 258 324
#     4   7  11  20  42  75 102 125 162 213 249 297
#     4   9  18  32  49  73 100 135 174 209 253 307
#     4   8  12  23  46  74 100 126 163 205 260 301
#     4   9  16  30  51  78 107 134 177 220 262 297
#     4  11  26  36  52  75  99 139 171 210 270 326
#     4  11  19  35  54  77 102 133 169 226 262 310
#
# _framework density 19.838909999999998
#
# number of rings (size 3 to 8) (size 9 to 14) (size 15 to 20)
#    0.000    2.833    1.667    3.000    0.000    2.667 
#    1.500    0.000    0.000    8.000    8.667    0.000 
#    0.000    0.000    0.000    0.000    0.000    0.000 
#
# Total GULP energy -267227.182052 kJ/mol
# GULP energy per Si atom -5567.232959 kJ/mol
# Density = 1.979376 g / cm^3
# Si number density = 19.838910 Si / 1000 Ang^3
#
#
#
# Elastic Constant Matrix: (Units=GPa)
#
#
# Indices 1 2 3 4 5 6 
#
# 1 41.2452 30.8256 16.6759 0.0000 0.0000 0.0000
# 2 30.8256 255.8371 79.0452 0.0000 0.0000 0.0000
# 3 16.6759 79.0452 127.0363 0.0000 0.0000 0.0000
# 4 0.0000 0.0000 0.0000 -11.3817 0.0000 0.0000
# 5 0.0000 0.0000 0.0000 0.0000 7.8924 0.0000
# 6 0.0000 0.0000 0.0000 0.0000 0.0000 155.2816
#
#
#
# Elastic Compliance Matrix: (Units=1/GPa)
#
#
# Indices 1 2 3 4 5 6 
#
# 1 0.027003 -0.002672 -0.001882 0.000000 0.000000 0.000000
# 2 -0.002672 0.005103 -0.002825 0.000000 0.000000 0.000000
# 3 -0.001882 -0.002825 0.009876 0.000000 0.000000 0.000000
# 4 0.000000 0.000000 0.000000 -0.087860 0.000000 0.000000
# 5 0.000000 0.000000 0.000000 0.000000 0.126705 0.000000
# 6 0.000000 0.000000 0.000000 0.000000 0.000000 0.006440
#
#
# Mechanical properties :
#
#
# Convention : Reuss Voigt Hill
#
# Bulk Modulus (GPa) = 36.73043 75.24576 55.98810
# Shear Modulus (GPa) = 45.00437 50.19658 47.60048
#
# Velocity S-wave (km/s) = 4.76803 5.03558 4.90363
# Velocity P-wave (km/s) = 6.99047 8.47467 7.76810
#
# Compressibility (1/GPa) = 0.02722538
#
# Stress axis : x y z
#
# Youngs Moduli (GPa) = 37.03263 195.94601 101.25115
#
# Poissons Ratio (x) = 0.52359 0.19056
# Poissons Ratio (y) = 0.09896 0.28601
# Poissons Ratio (z) = 0.06970 0.55349
#
# Static dielectric constant tensor:
#      x y z
#    x 1.616850 0.000000 0.000000 
#    y 0.000000 1.781310 0.000000 
#    z 0.000000 0.000000 1.790270 
# 
# From -- ./inp_files/17993.got.cif
#   From: 2010.05.17/outbox.cif.g08.bks.cpg/sg66_9_cif.got.tgz:17993.got - 2010.06.03 17:51:23.
