data_PCOD9499972
_publ_section_title
;
Structure prediction by ZEFSAII (Michael W. Deem and Ramdas Pophale) SiO2 
 PCOD9499972
Probable space group: C C C M
;
_chemical_formula_sum "Si O2"
_cell_formula_units_Z 88
_cell_length_a 11.708211
_cell_length_b 22.328700
_cell_length_c 15.302246
_cell_angle_alpha 90.000000
_cell_angle_beta 90.000000
_cell_angle_gamma 90.000000
_cell_volume 4000.452873
_symmetry_space_group_name_H-M "C C C M"
_symmetry_group_IT_number 66
_symmetry_cell_setting 'orthorhombic'
loop_
_space_group_symop_operation_xyz
x,y,z
-x,-y,z
x,-y,1/2-z
-x,y,1/2-z
-x,-y,-z
x,y,-z
-x,y,1/2+z
x,-y,1/2+z
1/2+x,1/2+y,z
1/2-x,1/2-y,z
1/2+x,1/2-y,1/2-z
1/2-x,1/2+y,1/2-z
1/2-x,1/2-y,-z
1/2+x,1/2+y,-z
1/2-x,1/2+y,1/2+z
1/2+x,1/2-y,1/2+z
loop_
_atom_site_type_symbol
_atom_site_label
_atom_site_fract_x
_atom_site_fract_y
_atom_site_fract_z
Si Si1 0.323330 0.691592 0.671744
Si Si2 0.939477 0.563828 0.000000
Si Si3 0.939123 0.757038 0.601554
Si Si4 0.032031 0.069131 0.500000
Si Si5 0.281822 0.624154 0.500000
Si Si6 0.317852 0.372087 0.351085
Si Si7 0.061420 0.375764 0.339950
O O1 0.250000 0.750000 0.699270
O O2 0.448140 0.712316 0.641325
O O3 0.262415 0.663079 0.587142
O O4 0.337829 0.642817 0.748615
O O5 0.802617 0.567590 0.000000
O O6 0.000000 0.500000 0.000000
O O7 0.983575 0.599712 0.083532
O O8 0.957768 0.742907 0.500000
O O9 0.838250 0.805615 0.608523
O O10 0.924209 0.695768 0.653183
O O11 0.101414 0.087554 0.412324
O O12 0.913736 0.105541 0.500000
O O13 0.000000 0.000000 0.500000
O O14 0.190367 0.397970 0.354124
O O15 0.000000 0.391572 0.250000
#
# Coordination Sequence:
#
# PCOD9499972 Si02
#       7
#    16   8  16   8   8  16  16
#     4  12  23  41  71 111 154 192 233 300 379 468
#     4  12  29  48  74  96 135 193 247 311 365 426
#     4  12  22  39  68 112 150 190 233 290 380 454
#     4  12  29  50  77 106 143 201 261 324 381 442
#     4  12  25  48  73 105 145 194 257 299 373 457
#     4  12  24  45  72 107 149 185 242 310 374 443
#     4  12  26  46  71 107 145 193 243 297 372 451
#
# _framework density 21.997509999999998
#
# number of rings (size 3 to 8) (size 9 to 14) (size 15 to 20)
#    0.000    0.000    4.545    7.364    2.545    1.091 
#    0.000    1.818    0.000    0.000    0.000    0.000 
#    0.000    0.000    0.000    0.000    0.000    0.000 
#
# Total GULP energy -246234.772786 kJ/mol
# GULP energy per Si atom -5596.244836 kJ/mol
# Density = 2.194744 g / cm^3
# Si number density = 21.997510 Si / 1000 Ang^3
#
#
#
# Elastic Constant Matrix: (Units=GPa)
#
#
# Indices 1 2 3 4 5 6 
#
# 1 149.6593 22.1653 47.1737 0.0000 0.0000 0.0000
# 2 22.1653 83.5911 35.9896 0.0000 0.0000 0.0000
# 3 47.1737 35.9896 175.3045 0.0000 0.0000 0.0000
# 4 0.0000 0.0000 0.0000 -1.4737 0.0000 0.0000
# 5 0.0000 0.0000 0.0000 0.0000 -22.7143 0.0000
# 6 0.0000 0.0000 0.0000 0.0000 0.0000 31.3710
#
#
#
# Elastic Compliance Matrix: (Units=1/GPa)
#
#
# Indices 1 2 3 4 5 6 
#
# 1 0.007412 -0.001214 -0.001745 0.000000 0.000000 0.000000
# 2 -0.001214 0.013322 -0.002408 0.000000 0.000000 0.000000
# 3 -0.001745 -0.002408 0.006668 0.000000 0.000000 0.000000
# 4 0.000000 0.000000 0.000000 -0.678583 0.000000 0.000000
# 5 0.000000 0.000000 0.000000 0.000000 -0.044025 0.000000
# 6 0.000000 0.000000 0.000000 0.000000 0.000000 0.031877
#
#
# Mechanical properties :
#
#
# Convention : Reuss Voigt Hill
#
# Bulk Modulus (GPa) = 59.99868 68.80134 64.40001
# Shear Modulus (GPa) = -7.72751 21.65169 6.96209
#
# Velocity S-wave (km/s) = -1.87631 3.14073 1.78096
# Velocity P-wave (km/s) = 4.75819 6.67061 5.79385
#
# Compressibility (1/GPa) = 0.01666703
#
# Stress axis : x y z
#
# Youngs Moduli (GPa) = 134.92090 75.06525 149.96080
#
# Poissons Ratio (x) = 0.09112 0.26172
# Poissons Ratio (y) = 0.16378 0.36114
# Poissons Ratio (z) = 0.23547 0.18078
#
# Static dielectric constant tensor:
#      x y z
#    x 1.841400 0.000000 0.000000 
#    y 0.000000 1.782990 0.000000 
#    z 0.000000 0.000000 1.809970 
# 
# From -- ./inp_files/26587.got.cif
#   From: 2010.05.17/outbox.cif.g08.bks.cpg/sg66_14_cif.got.tgz:26587.got - 2010.06.03 17:51:23.
