data_PCOD9499737
_publ_section_title
;
Structure prediction by ZEFSAII (Michael W. Deem and Ramdas Pophale) SiO2 
 PCOD9499737
Probable space group: C C C M
;
_chemical_formula_sum "Si O2"
_cell_formula_units_Z 64
_cell_length_a 8.396221
_cell_length_b 15.309485
_cell_length_c 20.696276
_cell_angle_alpha 90.000000
_cell_angle_beta 90.000000
_cell_angle_gamma 90.000000
_cell_volume 2660.336973
_symmetry_space_group_name_H-M "C C C M"
_symmetry_group_IT_number 66
_symmetry_cell_setting 'orthorhombic'
loop_
_space_group_symop_operation_xyz
x,y,z
-x,-y,z
x,-y,1/2-z
-x,y,1/2-z
-x,-y,-z
x,y,-z
-x,y,1/2+z
x,-y,1/2+z
1/2+x,1/2+y,z
1/2-x,1/2-y,z
1/2+x,1/2-y,1/2-z
1/2-x,1/2+y,1/2-z
1/2-x,1/2-y,-z
1/2+x,1/2+y,-z
1/2-x,1/2+y,1/2+z
1/2+x,1/2-y,1/2+z
loop_
_atom_site_type_symbol
_atom_site_label
_atom_site_fract_x
_atom_site_fract_y
_atom_site_fract_z
Si Si1 0.186539 0.153592 0.116677
Si Si2 0.690603 0.150087 0.243003
Si Si3 0.808968 0.651419 0.500000
Si Si4 0.872858 0.579432 0.000000
Si Si5 0.870135 0.080113 0.877481
O O1 0.250000 0.250000 0.105440
O O2 0.240855 0.123660 0.187441
O O3 0.997014 0.158847 0.117911
O O4 0.261918 0.091517 0.062311
O O5 0.500000 0.147573 0.250000
O O6 0.750000 0.250000 0.231498
O O7 0.764762 0.090662 0.186604
O O8 0.750000 0.750000 0.500000
O O9 0.742507 0.597824 0.561524
O O10 0.999150 0.657294 0.500000
O O11 0.000000 0.500000 0.000000
O O12 0.000000 0.000000 0.877874
#
# Coordination Sequence:
#
# PCOD9499737 Si02
#       5
#    16  16   8   8  16
#     4  11  23  42  66  93 131 180 229 281 343 421
#     4  11  23  43  70 100 134 181 239 297 355 430
#     4  12  24  42  70 102 140 190 242 289 347 428
#     4  12  24  42  66 100 136 174 224 287 348 412
#     4  12  25  44  68 102 143 186 233 294 360 423
#
# _framework density 24.057103000000001
#
# number of rings (size 3 to 8) (size 9 to 14) (size 15 to 20)
#    0.000    0.500    0.000   10.500    0.000    2.000 
#    0.000    1.250    0.000    0.000    0.000    0.000 
#    0.000    0.000    0.000    0.000    0.000    0.000 
#
# Total GULP energy -179089.100962 kJ/mol
# GULP energy per Si atom -5596.534405 kJ/mol
# Density = 2.400235 g / cm^3
# Si number density = 24.057103 Si / 1000 Ang^3
#
#
#
# Elastic Constant Matrix: (Units=GPa)
#
#
# Indices 1 2 3 4 5 6 
#
# 1 190.7398 10.4818 75.2743 0.0000 0.0000 0.0000
# 2 10.4818 110.1344 40.7413 0.0000 0.0000 0.0000
# 3 75.2743 40.7413 234.3822 0.0000 0.0000 0.0000
# 4 0.0000 0.0000 0.0000 -33.8048 0.0000 0.0000
# 5 0.0000 0.0000 0.0000 0.0000 55.6809 0.0000
# 6 0.0000 0.0000 0.0000 0.0000 0.0000 39.6999
#
#
#
# Elastic Compliance Matrix: (Units=1/GPa)
#
#
# Indices 1 2 3 4 5 6 
#
# 1 0.006006 0.000152 -0.001955 0.000000 0.000000 0.000000
# 2 0.000152 0.009708 -0.001736 0.000000 0.000000 0.000000
# 3 -0.001955 -0.001736 0.005196 0.000000 0.000000 0.000000
# 4 0.000000 0.000000 0.000000 -0.029582 0.000000 0.000000
# 5 0.000000 0.000000 0.000000 0.000000 0.017959 0.000000
# 6 0.000000 0.000000 0.000000 0.000000 0.000000 0.025189
#
#
# Mechanical properties :
#
#
# Convention : Reuss Voigt Hill
#
# Bulk Modulus (GPa) = 72.30397 87.58345 79.94371
# Shear Modulus (GPa) = 108.30388 39.56581 73.93484
#
# Velocity S-wave (km/s) = 6.71694 4.05984 5.54976
# Velocity P-wave (km/s) = 9.50141 7.64604 8.62377
#
# Compressibility (1/GPa) = 0.01383050
#
# Stress axis : x y z
#
# Youngs Moduli (GPa) = 166.49892 103.01194 192.44568
#
# Poissons Ratio (x) = -0.01563 0.37628
# Poissons Ratio (y) = -0.02526 0.33411
# Poissons Ratio (z) = 0.32555 0.17884
#
# Static dielectric constant tensor:
#      x y z
#    x 1.932460 0.000000 0.000000 
#    y 0.000000 2.084910 0.000000 
#    z 0.000000 0.000000 1.963160 
# 
# From -- ./inp_files/55184.got.cif
#   From: 2010.05.17/outbox.cif.g08.bks.cpg/sg66_28_cif.got.tgz:55184.got - 2010.06.03 17:51:23.
