data_PCOD9499255
_publ_section_title
;
Structure prediction by ZEFSAII (Michael W. Deem and Ramdas Pophale) SiO2 
 PCOD9499255
Probable space group: C C C M
;
_chemical_formula_sum "Si O2"
_cell_formula_units_Z 120
_cell_length_a 13.202767
_cell_length_b 22.504320
_cell_length_c 20.936052
_cell_angle_alpha 90.000000
_cell_angle_beta 90.000000
_cell_angle_gamma 90.000000
_cell_volume 6220.504978
_symmetry_space_group_name_H-M "C C C M"
_symmetry_group_IT_number 66
_symmetry_cell_setting 'orthorhombic'
loop_
_space_group_symop_operation_xyz
x,y,z
-x,-y,z
x,-y,1/2-z
-x,y,1/2-z
-x,-y,-z
x,y,-z
-x,y,1/2+z
x,-y,1/2+z
1/2+x,1/2+y,z
1/2-x,1/2-y,z
1/2+x,1/2-y,1/2-z
1/2-x,1/2+y,1/2-z
1/2-x,1/2-y,-z
1/2+x,1/2+y,-z
1/2-x,1/2+y,1/2+z
1/2+x,1/2-y,1/2+z
loop_
_atom_site_type_symbol
_atom_site_label
_atom_site_fract_x
_atom_site_fract_y
_atom_site_fract_z
Si Si1 0.548571 0.434747 0.429046
Si Si2 0.025837 0.737294 0.321074
Si Si3 0.250000 0.250000 0.783625
Si Si4 0.772597 0.433713 0.378318
Si Si5 0.268947 0.118904 0.263613
Si Si6 0.590345 0.043066 0.848835
Si Si7 0.466656 0.135519 0.925743
Si Si8 0.942389 0.864889 0.316831
O O1 0.500000 0.500000 0.425577
O O2 0.530184 0.410649 0.500000
O O3 0.667847 0.436783 0.415280
O O4 0.497565 0.395870 0.374755
O O5 0.143731 0.759453 0.321001
O O6 0.014992 0.689548 0.376758
O O7 0.000000 0.712677 0.250000
O O8 0.952528 0.794062 0.327391
O O9 0.272753 0.189931 0.745005
O O10 0.755148 0.408688 0.306734
O O11 0.822812 0.498458 0.372191
O O12 0.854791 0.390667 0.411347
O O13 0.363973 0.086729 0.295706
O O14 0.170007 0.110392 0.307113
O O15 0.543376 0.083199 0.904888
O O16 0.500000 0.000000 0.825452
O O17 0.476916 0.151069 0.000000
O O18 0.000000 0.876140 0.250000
#
# Coordination Sequence:
#
# PCOD9499255 Si02
#       8
#    16  16   8  16  16  16  16  16
#     4  11  24  41  61  90 128 173 216 272 344 414
#     4  11  22  41  65  97 129 172 221 278 343 405
#     4  12  20  36  65  92 131 170 212 278 336 398
#     4  11  22  41  65  95 131 169 222 282 338 402
#     4  12  22  40  67 102 132 169 226 275 343 397
#     4  10  25  41  64  97 135 178 221 280 340 404
#     4  11  25  42  64  95 135 179 226 277 340 411
#     4  11  22  41  66  96 128 170 219 278 334 401
#
# _framework density 19.291039000000001
#
# number of rings (size 3 to 8) (size 9 to 14) (size 15 to 20)
#    0.000    0.933    5.333    2.400    0.000    6.933 
#    0.000    1.000    0.000    0.800    0.000    0.000 
#    0.000    0.000    0.000    0.000    0.000    0.000 
#
# Total GULP energy -335267.712823 kJ/mol
# GULP energy per Si atom -5587.795214 kJ/mol
# Density = 1.924713 g / cm^3
# Si number density = 19.291039 Si / 1000 Ang^3
#
#
#
# Elastic Constant Matrix: (Units=GPa)
#
#
# Indices 1 2 3 4 5 6 
#
# 1 92.2468 47.5168 44.5812 0.0000 0.0000 0.0000
# 2 47.5168 94.9606 81.8138 0.0000 0.0000 0.0000
# 3 44.5812 81.8138 155.1436 0.0000 0.0000 0.0000
# 4 0.0000 0.0000 0.0000 25.3893 0.0000 0.0000
# 5 0.0000 0.0000 0.0000 0.0000 13.5925 0.0000
# 6 0.0000 0.0000 0.0000 0.0000 0.0000 32.2193
#
#
#
# Elastic Compliance Matrix: (Units=1/GPa)
#
#
# Indices 1 2 3 4 5 6 
#
# 1 0.014638 -0.006782 -0.000630 0.000000 0.000000 0.000000
# 2 -0.006782 0.022441 -0.009885 0.000000 0.000000 0.000000
# 3 -0.000630 -0.009885 0.011840 0.000000 0.000000 0.000000
# 4 0.000000 0.000000 0.000000 0.039387 0.000000 0.000000
# 5 0.000000 0.000000 0.000000 0.000000 0.073570 0.000000
# 6 0.000000 0.000000 0.000000 0.000000 0.000000 0.031037
#
#
# Mechanical properties :
#
#
# Convention : Reuss Voigt Hill
#
# Bulk Modulus (GPa) = 69.81069 76.68605 73.24837
# Shear Modulus (GPa) = 21.52555 25.46952 23.49753
#
# Velocity S-wave (km/s) = 3.34403 3.63750 3.49385
# Velocity P-wave (km/s) = 7.15379 7.58158 7.37079
#
# Compressibility (1/GPa) = 0.01432445
#
# Stress axis : x y z
#
# Youngs Moduli (GPa) = 68.31337 44.56122 84.46271
#
# Poissons Ratio (x) = 0.30222 0.05320
# Poissons Ratio (y) = 0.46331 0.83493
# Poissons Ratio (z) = 0.04303 0.44050
#
# Static dielectric constant tensor:
#      x y z
#    x 1.717270 0.000000 0.000000 
#    y 0.000000 1.688910 0.000000 
#    z 0.000000 0.000000 1.646600 
# 
# From -- ./inp_files/49069.got.cif
#   From: 2010.05.17/outbox.cif.g08.bks.cpg/sg66_25_cif.got.tgz:49069.got - 2010.06.03 17:51:23.
