data_PCOD9499514
_publ_section_title
;
Structure prediction by ZEFSAII (Michael W. Deem and Ramdas Pophale) SiO2 
 PCOD9499514
Probable space group: C C C M
;
_chemical_formula_sum "Si O2"
_cell_formula_units_Z 68
_cell_length_a 20.423408
_cell_length_b 7.614164
_cell_length_c 20.781852
_cell_angle_alpha 90.000000
_cell_angle_beta 90.000000
_cell_angle_gamma 90.000000
_cell_volume 3231.727157
_symmetry_space_group_name_H-M "C C C M"
_symmetry_group_IT_number 66
_symmetry_cell_setting 'orthorhombic'
loop_
_space_group_symop_operation_xyz
x,y,z
-x,-y,z
x,-y,1/2-z
-x,y,1/2-z
-x,-y,-z
x,y,-z
-x,y,1/2+z
x,-y,1/2+z
1/2+x,1/2+y,z
1/2-x,1/2-y,z
1/2+x,1/2-y,1/2-z
1/2-x,1/2+y,1/2-z
1/2-x,1/2-y,-z
1/2+x,1/2+y,-z
1/2-x,1/2+y,1/2+z
1/2+x,1/2-y,1/2+z
loop_
_atom_site_type_symbol
_atom_site_label
_atom_site_fract_x
_atom_site_fract_y
_atom_site_fract_z
Si Si1 0.763567 0.043425 0.674016
Si Si2 0.623740 0.892265 0.661943
Si Si3 0.933027 0.268411 0.288205
Si Si4 0.402869 0.530522 0.117356
Si Si5 0.500000 0.500000 0.000000
O O1 0.750000 0.250000 0.669441
O O2 0.698841 0.059302 0.849432
O O3 0.825417 0.000433 0.628816
O O4 0.774530 0.000000 0.750000
O O5 0.582045 0.071681 0.663322
O O6 0.621022 0.804138 0.733259
O O7 0.591137 0.741581 0.619559
O O8 0.930307 0.082918 0.322711
O O9 0.000000 0.291853 0.250000
O O10 0.443382 0.469825 0.056233
#
# Coordination Sequence:
#
# PCOD9499514 Si02
#       5
#    16  16  16  16   4
#     4  12  21  39  72 113 145 169 209 281 373 438
#     4  11  21  39  68 115 140 167 211 278 367 438
#     4  11  22  38  67 108 145 172 217 271 361 441
#     4  12  25  45  67  89 141 186 235 288 331 394
#     4  12  32  52  64  92 126 200 266 280 320 386
#
# _framework density 21.041378999999999
#
# number of rings (size 3 to 8) (size 9 to 14) (size 15 to 20)
#    0.000    0.471    4.706    7.059    0.000    1.882 
#    0.000    5.294    0.000    0.000    0.000    0.000 
#    0.000    0.000    0.000    0.000    0.000    0.000 
#
# Total GULP energy -189452.151710 kJ/mol
# GULP energy per Si atom -5572.122109 kJ/mol
# Density = 2.099349 g / cm^3
# Si number density = 21.041379 Si / 1000 Ang^3
#
#
#
# Elastic Constant Matrix: (Units=GPa)
#
#
# Indices 1 2 3 4 5 6 
#
# 1 173.0258 51.3655 44.6598 0.0000 0.0000 0.0000
# 2 51.3655 100.7499 7.7212 0.0000 0.0000 0.0000
# 3 44.6598 7.7212 64.9943 0.0000 0.0000 0.0000
# 4 0.0000 0.0000 0.0000 -5.8409 0.0000 0.0000
# 5 0.0000 0.0000 0.0000 0.0000 26.8902 0.0000
# 6 0.0000 0.0000 0.0000 0.0000 0.0000 31.8095
#
#
#
# Elastic Compliance Matrix: (Units=1/GPa)
#
#
# Indices 1 2 3 4 5 6 
#
# 1 0.008258 -0.003810 -0.005222 0.000000 0.000000 0.000000
# 2 -0.003810 0.011775 0.001219 0.000000 0.000000 0.000000
# 3 -0.005222 0.001219 0.018829 0.000000 0.000000 0.000000
# 4 0.000000 0.000000 0.000000 -0.171206 0.000000 0.000000
# 5 0.000000 0.000000 0.000000 0.000000 0.037188 0.000000
# 6 0.000000 0.000000 0.000000 0.000000 0.000000 0.031437
#
#
# Mechanical properties :
#
#
# Convention : Reuss Voigt Hill
#
# Bulk Modulus (GPa) = 43.03549 60.69592 51.86571
# Shear Modulus (GPa) = -123.92692 26.23998 -48.84347
#
# Velocity S-wave (km/s) = -7.68275 3.53521 -4.82322
# Velocity P-wave (km/s) = 7.62904 6.75072 2.51297
#
# Compressibility (1/GPa) = 0.02323663
#
# Stress axis : x y z
#
# Youngs Moduli (GPa) = 121.08773 84.92783 53.10861
#
# Poissons Ratio (x) = 0.32359 0.27733
# Poissons Ratio (y) = 0.46137 -0.06476
# Poissons Ratio (z) = 0.63232 -0.10355
#
# Static dielectric constant tensor:
#      x y z
#    x 1.853240 0.000000 0.000000 
#    y 0.000000 1.847400 0.000000 
#    z 0.000000 0.000000 1.680420 
# 
# From -- ./inp_files/42529.got.cif
#   From: 2010.05.17/outbox.cif.g08.bks.cpg/sg66_22_cif.got.tgz:42529.got - 2010.06.03 17:51:23.
