data_PCOD9499981
_publ_section_title
;
Structure prediction by ZEFSAII (Michael W. Deem and Ramdas Pophale) SiO2 
 PCOD9499981
Probable space group: C C C M
;
_chemical_formula_sum "Si O2"
_cell_formula_units_Z 64
_cell_length_a 20.775482
_cell_length_b 6.463574
_cell_length_c 21.826606
_cell_angle_alpha 90.000000
_cell_angle_beta 90.000000
_cell_angle_gamma 90.000000
_cell_volume 2930.961020
_symmetry_space_group_name_H-M "C C C M"
_symmetry_group_IT_number 66
_symmetry_cell_setting 'orthorhombic'
loop_
_space_group_symop_operation_xyz
x,y,z
-x,-y,z
x,-y,1/2-z
-x,y,1/2-z
-x,-y,-z
x,y,-z
-x,y,1/2+z
x,-y,1/2+z
1/2+x,1/2+y,z
1/2-x,1/2-y,z
1/2+x,1/2-y,1/2-z
1/2-x,1/2+y,1/2-z
1/2-x,1/2-y,-z
1/2+x,1/2+y,-z
1/2-x,1/2+y,1/2+z
1/2+x,1/2-y,1/2+z
loop_
_atom_site_type_symbol
_atom_site_label
_atom_site_fract_x
_atom_site_fract_y
_atom_site_fract_z
Si Si1 0.903896 0.312168 0.836839
Si Si2 0.819618 0.500000 0.250000
Si Si3 0.141877 0.014162 0.070713
Si Si4 0.750000 0.750000 0.147116
Si Si5 0.535310 0.190793 0.387851
O O1 0.864253 0.311189 0.774656
O O2 0.913204 0.556230 0.850197
O O3 0.977985 0.236387 0.842598
O O4 0.866989 0.194433 0.890427
O O5 0.777288 0.575396 0.193079
O O6 0.195815 0.150605 0.103854
O O7 0.073623 0.136972 0.076223
O O8 0.156619 0.976451 0.000000
O O9 0.500000 0.000000 0.424333
#
# Coordination Sequence:
#
# PCOD9499981 Si02
#       5
#    16   8  16   8  16
#     4   9  22  41  68 102 122 172 213 274 342 386
#     4  12  22  47  72  86 141 162 228 278 322 400
#     4  12  24  43  66  98 138 175 226 270 323 400
#     4  12  25  44  64 100 123 190 222 272 328 386
#     4   8  20  42  64 100 132 161 220 261 345 391
#
# _framework density 21.835840999999999
#
# number of rings (size 3 to 8) (size 9 to 14) (size 15 to 20)
#    1.500    0.000    2.500    2.625    0.000    5.500 
#    0.000    1.250   11.000    0.000    0.000    0.000 
#    0.000    0.000    0.000    0.000    0.000    0.000 
#
# Total GULP energy -178142.261160 kJ/mol
# GULP energy per Si atom -5566.945661 kJ/mol
# Density = 2.178614 g / cm^3
# Si number density = 21.835841 Si / 1000 Ang^3
#
#
#
# Elastic Constant Matrix: (Units=GPa)
#
#
# Indices 1 2 3 4 5 6 
#
# 1 110.9749 30.6433 58.9841 0.0000 0.0000 0.0000
# 2 30.6433 42.4041 43.2894 0.0000 0.0000 0.0000
# 3 58.9841 43.2894 141.0252 0.0000 0.0000 0.0000
# 4 0.0000 0.0000 0.0000 56.8883 0.0000 0.0000
# 5 0.0000 0.0000 0.0000 0.0000 -52.3897 0.0000
# 6 0.0000 0.0000 0.0000 0.0000 0.0000 24.6518
#
#
#
# Elastic Compliance Matrix: (Units=1/GPa)
#
#
# Indices 1 2 3 4 5 6 
#
# 1 0.012360 -0.005322 -0.003536 0.000000 0.000000 0.000000
# 2 -0.005322 0.036637 -0.009020 0.000000 0.000000 0.000000
# 3 -0.003536 -0.009020 0.011339 0.000000 0.000000 0.000000
# 4 0.000000 0.000000 0.000000 0.017578 0.000000 0.000000
# 5 0.000000 0.000000 0.000000 0.000000 -0.019088 0.000000
# 6 0.000000 0.000000 0.000000 0.000000 0.000000 0.040565
#
#
# Mechanical properties :
#
#
# Convention : Reuss Voigt Hill
#
# Bulk Modulus (GPa) = 40.68466 62.24862 51.46664
# Shear Modulus (GPa) = 34.88179 16.59592 25.73886
#
# Velocity S-wave (km/s) = 4.00115 2.75986 3.43701
# Velocity P-wave (km/s) = 6.32599 6.22296 6.27468
#
# Compressibility (1/GPa) = 0.02457929
#
# Stress axis : x y z
#
# Youngs Moduli (GPa) = 80.90600 27.29460 88.19374
#
# Poissons Ratio (x) = 0.14527 0.31184
# Poissons Ratio (y) = 0.43060 0.79552
# Poissons Ratio (z) = 0.28607 0.24620
#
# Static dielectric constant tensor:
#      x y z
#    x 1.868110 0.000000 0.000000 
#    y 0.000000 1.840150 0.000000 
#    z 0.000000 0.000000 1.752900 
# 
# From -- ./inp_files/59724.got.cif
#   From: 2010.05.17/outbox.cif.g08.bks.cpg/sg66_30_cif.got.tgz:59724.got - 2010.06.03 17:51:23.
