data_PCOD9499712
_publ_section_title
;
Structure prediction by ZEFSAII (Michael W. Deem and Ramdas Pophale) SiO2 
 PCOD9499712
Probable space group: C C C M
;
_chemical_formula_sum "Si O2"
_cell_formula_units_Z 88
_cell_length_a 11.053223
_cell_length_b 11.800230
_cell_length_c 32.965299
_cell_angle_alpha 90.000000
_cell_angle_beta 90.000000
_cell_angle_gamma 90.000000
_cell_volume 4299.682859
_symmetry_space_group_name_H-M "C C C M"
_symmetry_group_IT_number 66
_symmetry_cell_setting 'orthorhombic'
loop_
_space_group_symop_operation_xyz
x,y,z
-x,-y,z
x,-y,1/2-z
-x,y,1/2-z
-x,-y,-z
x,y,-z
-x,y,1/2+z
x,-y,1/2+z
1/2+x,1/2+y,z
1/2-x,1/2-y,z
1/2+x,1/2-y,1/2-z
1/2-x,1/2+y,1/2-z
1/2-x,1/2-y,-z
1/2+x,1/2+y,-z
1/2-x,1/2+y,1/2+z
1/2+x,1/2-y,1/2+z
loop_
_atom_site_type_symbol
_atom_site_label
_atom_site_fract_x
_atom_site_fract_y
_atom_site_fract_z
Si Si1 0.250000 0.750000 0.324597
Si Si2 0.623639 0.445719 0.628964
Si Si3 0.978084 0.632560 0.794429
Si Si4 0.679742 0.630434 0.955264
Si Si5 0.829974 0.640956 0.632330
Si Si6 0.622866 0.070591 0.956238
O O1 0.338026 0.669399 0.349639
O O2 0.160105 0.665456 0.302088
O O3 0.500000 0.500000 0.645018
O O4 0.599373 0.404749 0.582709
O O5 0.738219 0.532005 0.634170
O O6 0.000000 0.500000 0.789716
O O7 0.000000 0.687683 0.750000
O O8 0.063655 0.651714 0.834122
O O9 0.750000 0.750000 0.948302
O O10 0.774789 0.526594 0.956015
O O11 0.622156 0.638846 0.000000
O O12 0.750000 0.750000 0.639035
O O13 0.874355 0.640172 0.585443
O O14 0.500000 0.000000 0.955695
O O15 0.630889 0.132389 0.000000
#
# Coordination Sequence:
#
# PCOD9499712 Si02
#       6
#     8  16  16  16  16  16
#     4  12  24  46  71  96 136 170 211 282 328 400
#     4  11  23  39  63  97 131 176 223 272 338 397
#     4  11  25  46  72  99 132 177 223 273 336 406
#     4   9  18  33  55  85 124 170 219 270 324 388
#     4  11  23  40  65  95 136 173 225 279 333 406
#     4   9  19  34  57  88 123 170 220 267 328 395
#
# _framework density 20.466625000000001
#
# number of rings (size 3 to 8) (size 9 to 14) (size 15 to 20)
#    0.000    1.636    2.727    1.636    3.818    2.182 
#    0.000    0.000    0.000    0.000    0.000    0.000 
#    0.000    0.000    0.000    0.000    0.000    0.000 
#
# Total GULP energy -244984.824191 kJ/mol
# GULP energy per Si atom -5567.836913 kJ/mol
# Density = 2.042004 g / cm^3
# Si number density = 20.466625 Si / 1000 Ang^3
#
#
#
# Elastic Constant Matrix: (Units=GPa)
#
#
# Indices 1 2 3 4 5 6 
#
# 1 81.0394 9.7609 48.1231 0.0000 0.0000 0.0000
# 2 9.7609 53.6161 16.4246 0.0000 0.0000 0.0000
# 3 48.1231 16.4246 133.2913 0.0000 0.0000 0.0000
# 4 0.0000 0.0000 0.0000 115.1679 0.0000 0.0000
# 5 0.0000 0.0000 0.0000 0.0000 97.4487 0.0000
# 6 0.0000 0.0000 0.0000 0.0000 0.0000 29.9822
#
#
#
# Elastic Compliance Matrix: (Units=1/GPa)
#
#
# Indices 1 2 3 4 5 6 
#
# 1 0.015778 -0.001172 -0.005552 0.000000 0.000000 0.000000
# 2 -0.001172 0.019470 -0.001976 0.000000 0.000000 0.000000
# 3 -0.005552 -0.001976 0.009750 0.000000 0.000000 0.000000
# 4 0.000000 0.000000 0.000000 0.008683 0.000000 0.000000
# 5 0.000000 0.000000 0.000000 0.000000 0.010262 0.000000
# 6 0.000000 0.000000 0.000000 0.000000 0.000000 0.033353
#
#
# Mechanical properties :
#
#
# Convention : Reuss Voigt Hill
#
# Bulk Modulus (GPa) = 36.23395 46.28488 41.25941
# Shear Modulus (GPa) = 40.35690 61.42897 50.89293
#
# Velocity S-wave (km/s) = 4.44536 5.48447 4.99202
# Velocity P-wave (km/s) = 6.64008 7.92274 7.30959
#
# Compressibility (1/GPa) = 0.02759843
#
# Stress axis : x y z
#
# Youngs Moduli (GPa) = 63.38072 51.36164 102.56058
#
# Poissons Ratio (x) = 0.06017 0.56941
# Poissons Ratio (y) = 0.07425 0.20268
# Poissons Ratio (z) = 0.35189 0.10150
#
# Static dielectric constant tensor:
#      x y z
#    x 1.806010 0.000000 0.000000 
#    y 0.000000 1.705750 0.000000 
#    z 0.000000 0.000000 1.847880 
# 
# From -- ./inp_files/68886.got.cif
#   From: 2010.05.17/outbox.cif.g08.bks.cpg/sg66_35_cif.got.tgz:68886.got - 2010.06.03 17:51:23.
