data_PCOD9499813
_publ_section_title
;
Structure prediction by ZEFSAII (Michael W. Deem and Ramdas Pophale) SiO2 
 PCOD9499813
Probable space group: C C C M
;
_chemical_formula_sum "Si O2"
_cell_formula_units_Z 64
_cell_length_a 8.564397
_cell_length_b 16.946222
_cell_length_c 21.314392
_cell_angle_alpha 90.000000
_cell_angle_beta 90.000000
_cell_angle_gamma 90.000000
_cell_volume 3093.446653
_symmetry_space_group_name_H-M "C C C M"
_symmetry_group_IT_number 66
_symmetry_cell_setting 'orthorhombic'
loop_
_space_group_symop_operation_xyz
x,y,z
-x,-y,z
x,-y,1/2-z
-x,y,1/2-z
-x,-y,-z
x,y,-z
-x,y,1/2+z
x,-y,1/2+z
1/2+x,1/2+y,z
1/2-x,1/2-y,z
1/2+x,1/2-y,1/2-z
1/2-x,1/2+y,1/2-z
1/2-x,1/2-y,-z
1/2+x,1/2+y,-z
1/2-x,1/2+y,1/2+z
1/2+x,1/2-y,1/2+z
loop_
_atom_site_type_symbol
_atom_site_label
_atom_site_fract_x
_atom_site_fract_y
_atom_site_fract_z
Si Si1 0.912218 0.352977 0.930819
Si Si2 0.367863 0.326871 0.803642
Si Si3 0.940352 0.835768 0.570049
Si Si4 0.076488 0.586053 0.690098
O O1 0.917034 0.258497 0.934204
O O2 0.730683 0.373304 0.917368
O O3 0.027438 0.377153 0.875860
O O4 0.953810 0.384258 0.000000
O O5 0.500000 0.319139 0.750000
O O6 0.250000 0.250000 0.804389
O O7 0.447140 0.342270 0.870978
O O8 0.257457 0.403223 0.795550
O O9 0.993423 0.861878 0.500000
O O10 0.000000 0.500000 0.687837
O O11 0.000000 0.628753 0.750000
#
# Coordination Sequence:
#
# PCOD9499813 Si02
#       4
#    16  16  16  16
#     4   9  18  36  61  88 122 161 203 250 302 364
#     4  12  24  37  64  95 124 159 209 266 304 365
#     4   9  19  35  60  92 124 157 199 256 310 356
#     4  11  24  42  59  83 124 165 203 253 312 371
#
# _framework density 20.688897999999998
#
# number of rings (size 3 to 8) (size 9 to 14) (size 15 to 20)
#    0.000    1.750    2.500    3.750    3.500    2.000 
#    0.000    8.750    0.000    3.000    0.000    0.000 
#    0.000    0.000    0.000    0.000    0.000    0.000 
#
# Total GULP energy -178242.967530 kJ/mol
# GULP energy per Si atom -5570.092735 kJ/mol
# Density = 2.064181 g / cm^3
# Si number density = 20.688898 Si / 1000 Ang^3
#
#
#
# Elastic Constant Matrix: (Units=GPa)
#
#
# Indices 1 2 3 4 5 6 
#
# 1 120.8260 18.0916 84.0425 0.0000 0.0000 0.0000
# 2 18.0916 32.0941 1.3304 0.0000 0.0000 0.0000
# 3 84.0425 1.3304 151.2590 0.0000 0.0000 0.0000
# 4 0.0000 0.0000 0.0000 -1.1233 0.0000 0.0000
# 5 0.0000 0.0000 0.0000 0.0000 21.3001 0.0000
# 6 0.0000 0.0000 0.0000 0.0000 0.0000 22.5883
#
#
#
# Elastic Compliance Matrix: (Units=1/GPa)
#
#
# Indices 1 2 3 4 5 6 
#
# 1 0.015445 -0.008354 -0.008508 0.000000 0.000000 0.000000
# 2 -0.008354 0.035688 0.004328 0.000000 0.000000 0.000000
# 3 -0.008508 0.004328 0.011300 0.000000 0.000000 0.000000
# 4 0.000000 0.000000 0.000000 -0.890196 0.000000 0.000000
# 5 0.000000 0.000000 0.000000 0.000000 0.046948 0.000000
# 6 0.000000 0.000000 0.000000 0.000000 0.000000 0.044271
#
#
# Mechanical properties :
#
#
# Convention : Reuss Voigt Hill
#
# Bulk Modulus (GPa) = 26.76302 56.78980 41.77641
# Shear Modulus (GPa) = -7.15288 21.93398 7.39055
#
# Velocity S-wave (km/s) = -1.86141 3.25957 1.89208
# Velocity P-wave (km/s) = 2.88863 6.45565 5.00098
#
# Compressibility (1/GPa) = 0.03736499
#
# Stress axis : x y z
#
# Youngs Moduli (GPa) = 64.74496 28.02056 88.49216
#
# Poissons Ratio (x) = 0.23408 0.75291
# Poissons Ratio (y) = 0.54087 -0.38296
# Poissons Ratio (z) = 0.55086 -0.12126
#
# Static dielectric constant tensor:
#      x y z
#    x 1.801720 0.000000 0.000000 
#    y 0.000000 1.807410 0.000000 
#    z 0.000000 0.000000 1.815970 
# 
# From -- ./inp_files/36304.got.cif
#   From: 2010.05.17/outbox.cif.g08.bks.cpg/sg66_19_cif.got.tgz:36304.got - 2010.06.03 17:51:23.
