data_PCOD9499483
_publ_section_title
;
Structure prediction by ZEFSAII (Michael W. Deem and Ramdas Pophale) SiO2 
 PCOD9499483
Probable space group: C C C M
;
_chemical_formula_sum "Si O2"
_cell_formula_units_Z 96
_cell_length_a 20.923868
_cell_length_b 15.846250
_cell_length_c 14.424340
_cell_angle_alpha 90.000000
_cell_angle_beta 90.000000
_cell_angle_gamma 90.000000
_cell_volume 4782.604032
_symmetry_space_group_name_H-M "C C C M"
_symmetry_group_IT_number 66
_symmetry_cell_setting 'orthorhombic'
loop_
_space_group_symop_operation_xyz
x,y,z
-x,-y,z
x,-y,1/2-z
-x,y,1/2-z
-x,-y,-z
x,y,-z
-x,y,1/2+z
x,-y,1/2+z
1/2+x,1/2+y,z
1/2-x,1/2-y,z
1/2+x,1/2-y,1/2-z
1/2-x,1/2+y,1/2-z
1/2-x,1/2-y,-z
1/2+x,1/2+y,-z
1/2-x,1/2+y,1/2+z
1/2+x,1/2-y,1/2+z
loop_
_atom_site_type_symbol
_atom_site_label
_atom_site_fract_x
_atom_site_fract_y
_atom_site_fract_z
Si Si1 0.687463 0.048133 0.657822
Si Si2 0.625714 0.500000 0.750000
Si Si3 0.479533 0.137091 0.000000
Si Si4 0.896391 0.706917 0.834508
Si Si5 0.537685 0.413312 0.897153
Si Si6 0.106029 0.532787 0.000000
Si Si7 0.317037 0.369582 0.105002
Si Si8 0.500000 0.292728 0.250000
O O1 0.635908 0.118044 0.686475
O O2 0.741804 0.106131 0.608938
O O3 0.710871 0.000000 0.750000
O O4 0.653045 0.981935 0.588252
O O5 0.589548 0.436848 0.820258
O O6 0.657877 0.563504 0.821298
O O7 0.450894 0.187237 0.088109
O O8 0.554993 0.110843 0.000000
O O9 0.439918 0.049347 0.000000
O O10 0.844268 0.777045 0.867233
O O11 0.935433 0.739911 0.746247
O O12 0.500000 0.500000 0.907321
O O13 0.493212 0.348542 0.842314
O O14 0.558059 0.385439 0.000000
O O15 0.339939 0.385576 0.000000
#
# Coordination Sequence:
#
# PCOD9499483 Si02
#       8
#    16   8   8  16  16   8  16   8
#     4  11  24  42  64  93 127 174 220 269 331 392
#     4  12  21  40  58  94 128 159 208 270 324 392
#     4   9  20  39  63  95 127 166 206 270 334 398
#     4  11  24  39  64  95 130 166 217 276 334 387
#     4  11  21  37  60  85 121 162 199 252 321 389
#     4   9  20  41  63  91 131 163 214 264 327 403
#     4  12  23  41  69  95 125 169 225 282 330 386
#     4  12  23  38  55  92 126 162 206 260 323 399
#
# _framework density 20.072745999999999
#
# number of rings (size 3 to 8) (size 9 to 14) (size 15 to 20)
#    0.000    1.000    5.833    1.000    3.500    2.000 
#    0.000    0.000    0.000    0.000    0.000    3.500 
#    0.000    0.000    0.000    0.000    0.000    0.000 
#
# Total GULP energy -267300.329705 kJ/mol
# GULP energy per Si atom -5568.756869 kJ/mol
# Density = 2.002706 g / cm^3
# Si number density = 20.072746 Si / 1000 Ang^3
#
#
#
# Elastic Constant Matrix: (Units=GPa)
#
#
# Indices 1 2 3 4 5 6 
#
# 1 66.7010 23.2000 22.2861 0.0000 0.0000 0.0000
# 2 23.2000 87.2929 29.0964 0.0000 0.0000 0.0000
# 3 22.2861 29.0964 111.6185 0.0000 0.0000 0.0000
# 4 0.0000 0.0000 0.0000 2052.1508 0.0000 0.0000
# 5 0.0000 0.0000 0.0000 0.0000 28.1670 0.0000
# 6 0.0000 0.0000 0.0000 0.0000 0.0000 38.6890
#
#
#
# Elastic Compliance Matrix: (Units=1/GPa)
#
#
# Indices 1 2 3 4 5 6 
#
# 1 0.017107 -0.003732 -0.002443 0.000000 0.000000 0.000000
# 2 -0.003732 0.013360 -0.002737 0.000000 0.000000 0.000000
# 3 -0.002443 -0.002737 0.010160 0.000000 0.000000 0.000000
# 4 0.000000 0.000000 0.000000 0.000487 0.000000 0.000000
# 5 0.000000 0.000000 0.000000 0.000000 0.035503 0.000000
# 6 0.000000 0.000000 0.000000 0.000000 0.000000 0.025847
#
#
# Mechanical properties :
#
#
# Convention : Reuss Voigt Hill
#
# Bulk Modulus (GPa) = 43.85525 46.08637 44.97081
# Shear Modulus (GPa) = 39.09622 436.53667 237.81645
#
# Velocity S-wave (km/s) = 4.41809 14.76311 10.89654
# Velocity P-wave (km/s) = 6.92255 17.70900 13.44490
#
# Compressibility (1/GPa) = 0.02280229
#
# Stress axis : x y z
#
# Youngs Moduli (GPa) = 58.45708 74.84989 98.42145
#
# Poissons Ratio (x) = 0.27936 0.24041
# Poissons Ratio (y) = 0.21818 0.26943
# Poissons Ratio (z) = 0.14279 0.20490
#
# Static dielectric constant tensor:
#      x y z
#    x 1.838470 0.000000 0.000000 
#    y 0.000000 1.710270 0.000000 
#    z 0.000000 0.000000 1.804740 
# 
# From -- ./inp_files/32415.got.cif
#   From: 2010.05.17/outbox.cif.g08.bks.cpg/sg66_17_cif.got.tgz:32415.got - 2010.06.03 17:51:23.
