data_PCOD9499871
_publ_section_title
;
Structure prediction by ZEFSAII (Michael W. Deem and Ramdas Pophale) SiO2 
 PCOD9499871
Probable space group: C C C M
;
_chemical_formula_sum "Si O2"
_cell_formula_units_Z 72
_cell_length_a 9.276031
_cell_length_b 15.326318
_cell_length_c 24.795836
_cell_angle_alpha 90.000000
_cell_angle_beta 90.000000
_cell_angle_gamma 90.000000
_cell_volume 3525.159557
_symmetry_space_group_name_H-M "C C C M"
_symmetry_group_IT_number 66
_symmetry_cell_setting 'orthorhombic'
loop_
_space_group_symop_operation_xyz
x,y,z
-x,-y,z
x,-y,1/2-z
-x,y,1/2-z
-x,-y,-z
x,y,-z
-x,y,1/2+z
x,-y,1/2+z
1/2+x,1/2+y,z
1/2-x,1/2-y,z
1/2+x,1/2-y,1/2-z
1/2-x,1/2+y,1/2-z
1/2-x,1/2-y,-z
1/2+x,1/2+y,-z
1/2-x,1/2+y,1/2+z
1/2+x,1/2-y,1/2+z
loop_
_atom_site_type_symbol
_atom_site_label
_atom_site_fract_x
_atom_site_fract_y
_atom_site_fract_z
Si Si1 0.750000 0.250000 0.190823
Si Si2 0.000000 0.000000 0.336667
Si Si3 0.000000 0.148842 0.250000
Si Si4 0.922078 0.253815 0.000000
Si Si5 0.555648 0.137444 0.107392
Si Si6 0.817738 0.848031 0.000000
Si Si7 0.284847 0.963189 0.400621
O O1 0.864102 0.203897 0.230178
O O2 0.655861 0.185954 0.151542
O O3 0.976358 0.084543 0.299972
O O4 0.854212 0.000007 0.370303
O O5 0.750000 0.250000 0.000000
O O6 0.967045 0.300711 0.055788
O O7 0.009646 0.163835 0.000000
O O8 0.403777 0.098415 0.129666
O O9 0.633736 0.051814 0.083737
O O10 0.750000 0.750000 0.000000
O O11 0.767733 0.902664 0.948827
#
# Coordination Sequence:
#
# PCOD9499871 Si02
#       7
#     8   8   8   8  16   8  16
#     4  12  26  49  74 108 132 191 248 306 378 430
#     4  11  26  49  68 100 140 189 236 307 372 426
#     4  11  28  48  70  99 140 178 248 313 368 434
#     4  12  25  41  68 107 151 182 236 292 349 441
#     4  11  24  46  72 105 145 190 234 298 369 432
#     4  12  25  42  69 110 144 196 240 283 353 424
#     4  11  25  45  71 103 146 189 237 289 361 443
#
# _framework density 20.424607999999999
#
# number of rings (size 3 to 8) (size 9 to 14) (size 15 to 20)
#    0.000    0.667    5.556    0.667    9.333    2.222 
#    0.000    0.000    0.000    0.000    0.000    0.000 
#    0.000    0.000    0.000    0.000    0.000    0.000 
#
# Total GULP energy -200830.014704 kJ/mol
# GULP energy per Si atom -5578.611520 kJ/mol
# Density = 2.037812 g / cm^3
# Si number density = 20.424608 Si / 1000 Ang^3
#
#
#
# Elastic Constant Matrix: (Units=GPa)
#
#
# Indices 1 2 3 4 5 6 
#
# 1 137.7460 50.7539 50.3370 0.0000 0.0000 0.0000
# 2 50.7539 105.1776 49.5923 0.0000 0.0000 0.0000
# 3 50.3370 49.5923 82.4577 0.0000 0.0000 0.0000
# 4 0.0000 0.0000 0.0000 61.9361 0.0000 0.0000
# 5 0.0000 0.0000 0.0000 0.0000 31.9155 0.0000
# 6 0.0000 0.0000 0.0000 0.0000 0.0000 47.7780
#
#
#
# Elastic Compliance Matrix: (Units=1/GPa)
#
#
# Indices 1 2 3 4 5 6 
#
# 1 0.009857 -0.002679 -0.004406 0.000000 0.000000 0.000000
# 2 -0.002679 0.013999 -0.006784 0.000000 0.000000 0.000000
# 3 -0.004406 -0.006784 0.018897 0.000000 0.000000 0.000000
# 4 0.000000 0.000000 0.000000 0.016146 0.000000 0.000000
# 5 0.000000 0.000000 0.000000 0.000000 0.031333 0.000000
# 6 0.000000 0.000000 0.000000 0.000000 0.000000 0.020930
#
#
# Mechanical properties :
#
#
# Convention : Reuss Voigt Hill
#
# Bulk Modulus (GPa) = 66.59924 69.63863 68.11894
# Shear Modulus (GPa) = 34.74503 39.97245 37.35874
#
# Velocity S-wave (km/s) = 4.12896 4.42868 4.28144
# Velocity P-wave (km/s) = 7.44374 7.76662 7.60689
#
# Compressibility (1/GPa) = 0.01501519
#
# Stress axis : x y z
#
# Youngs Moduli (GPa) = 101.45108 71.43219 52.91770
#
# Poissons Ratio (x) = 0.19137 0.23316
# Poissons Ratio (y) = 0.27179 0.35900
# Poissons Ratio (z) = 0.44700 0.48460
#
# Static dielectric constant tensor:
#      x y z
#    x 1.935260 0.000000 0.000000 
#    y 0.000000 1.362180 0.000000 
#    z 0.000000 0.000000 1.694240 
# 
# From -- ./inp_files/62288.got.cif
#   From: 2010.05.17/outbox.cif.g08.bks.cpg/sg66_32_cif.got.tgz:62288.got - 2010.06.03 17:51:23.
