data_PCOD9499018
_publ_section_title
;
Structure prediction by ZEFSAII (Michael W. Deem and Ramdas Pophale) SiO2 
 PCOD9499018
Probable space group: C C C M
;
_chemical_formula_sum "Si O2"
_cell_formula_units_Z 48
_cell_length_a 5.153220
_cell_length_b 15.380855
_cell_length_c 25.409890
_cell_angle_alpha 90.000000
_cell_angle_beta 90.000000
_cell_angle_gamma 90.000000
_cell_volume 2014.011503
_symmetry_space_group_name_H-M "C C C M"
_symmetry_group_IT_number 66
_symmetry_cell_setting 'orthorhombic'
loop_
_space_group_symop_operation_xyz
x,y,z
-x,-y,z
x,-y,1/2-z
-x,y,1/2-z
-x,-y,-z
x,y,-z
-x,y,1/2+z
x,-y,1/2+z
1/2+x,1/2+y,z
1/2-x,1/2-y,z
1/2+x,1/2-y,1/2-z
1/2-x,1/2+y,1/2-z
1/2-x,1/2-y,-z
1/2+x,1/2+y,-z
1/2-x,1/2+y,1/2+z
1/2+x,1/2-y,1/2+z
loop_
_atom_site_type_symbol
_atom_site_label
_atom_site_fract_x
_atom_site_fract_y
_atom_site_fract_z
Si Si1 0.167856 0.343258 0.615101
Si Si2 0.864308 0.906718 0.939379
Si Si3 0.749558 0.097260 0.773990
O O1 0.250000 0.250000 0.639102
O O2 0.383039 0.347537 0.569118
O O3 0.234241 0.406936 0.663486
O O4 0.880982 0.370340 0.594312
O O5 0.778052 0.910172 0.000000
O O6 0.000000 0.000000 0.926788
O O7 0.500000 0.142157 0.750000
O O8 0.000000 0.140958 0.750000
O O9 0.750018 0.000000 0.750000
#
# Coordination Sequence:
#
# PCOD9499018 Si02
#       3
#    16  16  16
#     4  12  26  43  71 107 144 184 237 303 369 434
#     4  11  26  46  72 103 140 190 242 293 357 446
#     4  10  23  40  65  98 132 185 230 289 350 429
#
# _framework density 23.833033
#
# number of rings (size 3 to 8) (size 9 to 14) (size 15 to 20)
#    0.000    1.000    0.000    5.000   14.000    8.000 
#    0.000    0.000    0.000    0.000    0.000    0.000 
#    0.000    0.000    0.000    0.000    0.000    0.000 
#
# Total GULP energy -133708.491352 kJ/mol
# GULP energy per Si atom -5571.187140 kJ/mol
# Density = 2.377879 g / cm^3
# Si number density = 23.833033 Si / 1000 Ang^3
#
#
#
# Elastic Constant Matrix: (Units=GPa)
#
#
# Indices 1 2 3 4 5 6 
#
# 1 243.6106 21.9310 53.9548 0.0000 0.0000 0.0000
# 2 21.9310 89.6701 27.1096 0.0000 0.0000 0.0000
# 3 53.9548 27.1096 124.7454 0.0000 0.0000 0.0000
# 4 0.0000 0.0000 0.0000 1.8605 0.0000 0.0000
# 5 0.0000 0.0000 0.0000 0.0000 37.8345 0.0000
# 6 0.0000 0.0000 0.0000 0.0000 0.0000 21.1994
#
#
#
# Elastic Compliance Matrix: (Units=1/GPa)
#
#
# Indices 1 2 3 4 5 6 
#
# 1 0.004566 -0.000556 -0.001854 0.000000 0.000000 0.000000
# 2 -0.000556 0.012004 -0.002368 0.000000 0.000000 0.000000
# 3 -0.001854 -0.002368 0.009333 0.000000 0.000000 0.000000
# 4 0.000000 0.000000 0.000000 0.537477 0.000000 0.000000
# 5 0.000000 0.000000 0.000000 0.000000 0.026431 0.000000
# 6 0.000000 0.000000 0.000000 0.000000 0.000000 0.047171
#
#
# Mechanical properties :
#
#
# Convention : Reuss Voigt Hill
#
# Bulk Modulus (GPa) = 61.17685 73.77965 67.47825
# Shear Modulus (GPa) = 7.66887 35.84761 21.75824
#
# Velocity S-wave (km/s) = 1.79575 3.88250 3.02478
# Velocity P-wave (km/s) = 5.47944 7.15000 6.36973
#
# Compressibility (1/GPa) = 0.01634605
#
# Stress axis : x y z
#
# Youngs Moduli (GPa) = 219.03096 83.30582 107.14916
#
# Poissons Ratio (x) = 0.04633 0.19864
# Poissons Ratio (y) = 0.12182 0.25374
# Poissons Ratio (z) = 0.40605 0.19728
#
# Static dielectric constant tensor:
#      x y z
#    x 1.921460 0.000000 0.000000 
#    y 0.000000 2.183950 0.000000 
#    z 0.000000 0.000000 1.942860 
# 
# From -- ./inp_files/60804.got.cif
#   From: 2010.05.17/outbox.cif.g08.bks.cpg/sg66_31_cif.got.tgz:60804.got - 2010.06.03 17:51:23.
