data_PCOD9499419
_publ_section_title
;
Structure prediction by ZEFSAII (Michael W. Deem and Ramdas Pophale) SiO2 
 PCOD9499419
Probable space group: C C C M
;
_chemical_formula_sum "Si O2"
_cell_formula_units_Z 96
_cell_length_a 18.151942
_cell_length_b 15.254413
_cell_length_c 16.289904
_cell_angle_alpha 90.000000
_cell_angle_beta 90.000000
_cell_angle_gamma 90.000000
_cell_volume 4510.629132
_symmetry_space_group_name_H-M "C C C M"
_symmetry_group_IT_number 66
_symmetry_cell_setting 'orthorhombic'
loop_
_space_group_symop_operation_xyz
x,y,z
-x,-y,z
x,-y,1/2-z
-x,y,1/2-z
-x,-y,-z
x,y,-z
-x,y,1/2+z
x,-y,1/2+z
1/2+x,1/2+y,z
1/2-x,1/2-y,z
1/2+x,1/2-y,1/2-z
1/2-x,1/2+y,1/2-z
1/2-x,1/2-y,-z
1/2+x,1/2+y,-z
1/2-x,1/2+y,1/2+z
1/2+x,1/2-y,1/2+z
loop_
_atom_site_type_symbol
_atom_site_label
_atom_site_fract_x
_atom_site_fract_y
_atom_site_fract_z
Si Si1 0.596102 0.757712 0.683484
Si Si2 0.661897 0.933627 0.674252
Si Si3 0.413616 0.515830 0.651142
Si Si4 0.968075 0.347828 0.500000
Si Si5 0.894686 0.535530 0.500000
Si Si6 0.931858 0.212834 0.358771
Si Si7 0.697350 0.368563 0.094526
O O1 0.596495 0.862532 0.682062
O O2 0.518779 0.710267 0.665409
O O3 0.613546 0.736811 0.777685
O O4 0.653808 0.718852 0.619644
O O5 0.650486 0.972281 0.583917
O O6 0.739513 0.884676 0.662169
O O7 0.661991 0.000000 0.750000
O O8 0.500000 0.500000 0.636387
O O9 0.401790 0.500000 0.750000
O O10 0.403473 0.615880 0.620727
O O11 0.360709 0.448117 0.605330
O O12 0.939343 0.445621 0.500000
O O13 0.937192 0.290446 0.424548
O O14 0.056233 0.373254 0.500000
O O15 0.722846 0.363497 0.000000
#
# Coordination Sequence:
#
# PCOD9499419 Si02
#       7
#    16  16  16   8   8  16  16
#     4  11  23  42  65 100 133 179 222 282 351 416
#     4  12  26  46  69  95 139 186 237 290 351 418
#     4  11  20  40  64  94 136 180 218 280 341 419
#     4  11  24  42  71 101 134 175 224 303 360 413
#     4  11  24  48  67 100 138 176 242 295 353 429
#     4  11  22  40  67 100 138 171 223 283 352 417
#     4  12  26  41  67  98 138 182 234 286 348 419
#
# _framework density 21.283061
#
# number of rings (size 3 to 8) (size 9 to 14) (size 15 to 20)
#    0.000    0.667    5.833    3.000    3.500    1.000 
#    0.000    0.000    0.000    1.000    0.000    0.000 
#    0.000    0.000    0.000    0.000    0.000    0.000 
#
# Total GULP energy -267668.960010 kJ/mol
# GULP energy per Si atom -5576.436667 kJ/mol
# Density = 2.123462 g / cm^3
# Si number density = 21.283061 Si / 1000 Ang^3
#
#
#
# Elastic Constant Matrix: (Units=GPa)
#
#
# Indices 1 2 3 4 5 6 
#
# 1 27.2119 6.2497 2.5963 0.0000 0.0000 0.0000
# 2 6.2497 124.2012 40.1710 0.0000 0.0000 0.0000
# 3 2.5963 40.1710 100.1668 0.0000 0.0000 0.0000
# 4 0.0000 0.0000 0.0000 43.1445 0.0000 0.0000
# 5 0.0000 0.0000 0.0000 0.0000 25.9517 0.0000
# 6 0.0000 0.0000 0.0000 0.0000 0.0000 25.9750
#
#
#
# Elastic Compliance Matrix: (Units=1/GPa)
#
#
# Indices 1 2 3 4 5 6 
#
# 1 0.037184 -0.001792 -0.000245 0.000000 0.000000 0.000000
# 2 -0.001792 0.009338 -0.003698 0.000000 0.000000 0.000000
# 3 -0.000245 -0.003698 0.011473 0.000000 0.000000 0.000000
# 4 0.000000 0.000000 0.000000 0.023178 0.000000 0.000000
# 5 0.000000 0.000000 0.000000 0.000000 0.038533 0.000000
# 6 0.000000 0.000000 0.000000 0.000000 0.000000 0.038499
#
#
# Mechanical properties :
#
#
# Convention : Reuss Voigt Hill
#
# Bulk Modulus (GPa) = 21.49451 38.84600 30.17026
# Shear Modulus (GPa) = 27.00041 32.51844 29.75943
#
# Velocity S-wave (km/s) = 3.56565 3.91308 3.74340
# Velocity P-wave (km/s) = 5.20318 6.22157 5.73503
#
# Compressibility (1/GPa) = 0.04652350
#
# Stress axis : x y z
#
# Youngs Moduli (GPa) = 26.89364 107.09156 87.16183
#
# Poissons Ratio (x) = 0.19188 0.02137
# Poissons Ratio (y) = 0.04819 0.32236
# Poissons Ratio (z) = 0.00660 0.39607
#
# Static dielectric constant tensor:
#      x y z
#    x 1.862340 0.000000 0.000000 
#    y 0.000000 1.768560 0.000000 
#    z 0.000000 0.000000 1.787690 
# 
# From -- ./inp_files/31227.got.cif
#   From: 2010.05.17/outbox.cif.g08.bks.cpg/sg66_16_cif.got.tgz:31227.got - 2010.06.03 17:51:23.
