data_PCOD9499707
_publ_section_title
;
Structure prediction by ZEFSAII (Michael W. Deem and Ramdas Pophale) SiO2 
 PCOD9499707
Probable space group: C C C M
;
_chemical_formula_sum "Si O2"
_cell_formula_units_Z 56
_cell_length_a 9.895736
_cell_length_b 17.043953
_cell_length_c 16.065489
_cell_angle_alpha 90.000000
_cell_angle_beta 90.000000
_cell_angle_gamma 90.000000
_cell_volume 2709.644884
_symmetry_space_group_name_H-M "C C C M"
_symmetry_group_IT_number 66
_symmetry_cell_setting 'orthorhombic'
loop_
_space_group_symop_operation_xyz
x,y,z
-x,-y,z
x,-y,1/2-z
-x,y,1/2-z
-x,-y,-z
x,y,-z
-x,y,1/2+z
x,-y,1/2+z
1/2+x,1/2+y,z
1/2-x,1/2-y,z
1/2+x,1/2-y,1/2-z
1/2-x,1/2+y,1/2-z
1/2-x,1/2-y,-z
1/2+x,1/2+y,-z
1/2-x,1/2+y,1/2+z
1/2+x,1/2-y,1/2+z
loop_
_atom_site_type_symbol
_atom_site_label
_atom_site_fract_x
_atom_site_fract_y
_atom_site_fract_z
Si Si1 0.357862 0.539046 0.862689
Si Si2 0.761127 0.083108 0.500000
Si Si3 0.466101 0.157025 0.500000
Si Si4 0.083988 0.581261 0.176153
Si Si5 0.543026 0.659191 0.500000
O O1 0.500000 0.500000 0.836608
O O2 0.283730 0.474333 0.921228
O O3 0.241066 0.567870 0.800553
O O4 0.399176 0.612459 0.920722
O O5 0.621988 0.129177 0.500000
O O6 0.883268 0.143896 0.500000
O O7 0.412191 0.122006 0.413454
O O8 0.434736 0.248866 0.500000
O O9 0.000000 0.500000 0.165163
O O10 0.000000 0.623196 0.250000
#
# Coordination Sequence:
#
# PCOD9499707 Si02
#       5
#    16   8   8  16   8
#     4   9  18  37  62  89 125 158 205 260 304 371
#     4   9  16  33  61  94 119 163 206 252 305 374
#     4  12  20  36  67  91 128 170 196 267 311 365
#     4  11  23  38  62  93 121 158 213 254 303 373
#     4   9  20  32  63  97 123 160 212 244 324 380
#
# _framework density 20.666914999999999
#
# number of rings (size 3 to 8) (size 9 to 14) (size 15 to 20)
#    0.000    2.000    2.857    4.286    0.000    2.286 
#    0.000    2.857   12.571    0.000    0.000    0.000 
#    0.000    0.000    0.000    0.000    0.000    0.000 
#
# Total GULP energy -156199.920894 kJ/mol
# GULP energy per Si atom -5578.568603 kJ/mol
# Density = 2.061988 g / cm^3
# Si number density = 20.666915 Si / 1000 Ang^3
#
#
#
# Elastic Constant Matrix: (Units=GPa)
#
#
# Indices 1 2 3 4 5 6 
#
# 1 196.2579 21.3266 35.2262 0.0000 0.0000 0.0000
# 2 21.3266 119.1921 37.0688 0.0000 0.0000 0.0000
# 3 35.2262 37.0688 107.6373 0.0000 0.0000 0.0000
# 4 0.0000 0.0000 0.0000 2.0105 0.0000 0.0000
# 5 0.0000 0.0000 0.0000 0.0000 4.2546 0.0000
# 6 0.0000 0.0000 0.0000 0.0000 0.0000 10.7191
#
#
#
# Elastic Compliance Matrix: (Units=1/GPa)
#
#
# Indices 1 2 3 4 5 6 
#
# 1 0.005437 -0.000470 -0.001617 0.000000 0.000000 0.000000
# 2 -0.000470 0.009437 -0.003096 0.000000 0.000000 0.000000
# 3 -0.001617 -0.003096 0.010886 0.000000 0.000000 0.000000
# 4 0.000000 0.000000 0.000000 0.497377 0.000000 0.000000
# 5 0.000000 0.000000 0.000000 0.000000 0.235040 0.000000
# 6 0.000000 0.000000 0.000000 0.000000 0.000000 0.093292
#
#
# Mechanical properties :
#
#
# Convention : Reuss Voigt Hill
#
# Bulk Modulus (GPa) = 64.96545 67.81449 66.38997
# Shear Modulus (GPa) = 5.76724 25.36122 15.56423
#
# Velocity S-wave (km/s) = 1.67231 3.50686 2.74724
# Velocity P-wave (km/s) = 5.93562 7.02009 6.50051
#
# Compressibility (1/GPa) = 0.01539280
#
# Stress axis : x y z
#
# Youngs Moduli (GPa) = 183.93501 105.96843 91.86036
#
# Poissons Ratio (x) = 0.04978 0.14858
# Poissons Ratio (y) = 0.08640 0.28441
# Poissons Ratio (z) = 0.29751 0.32810
#
# Static dielectric constant tensor:
#      x y z
#    x 1.790430 0.000000 0.000000 
#    y 0.000000 1.706900 0.000000 
#    z 0.000000 0.000000 1.831460 
# 
# From -- ./inp_files/36111.got.cif
#   From: 2010.05.17/outbox.cif.g08.bks.cpg/sg66_19_cif.got.tgz:36111.got - 2010.06.03 17:51:23.
