data_PCOD9499123
_publ_section_title
;
Structure prediction by ZEFSAII (Michael W. Deem and Ramdas Pophale) SiO2 
 PCOD9499123
Probable space group: C C C M
;
_chemical_formula_sum "Si O2"
_cell_formula_units_Z 56
_cell_length_a 16.761569
_cell_length_b 9.223886
_cell_length_c 14.849579
_cell_angle_alpha 90.000000
_cell_angle_beta 90.000000
_cell_angle_gamma 90.000000
_cell_volume 2295.845915
_symmetry_space_group_name_H-M "C C C M"
_symmetry_group_IT_number 66
_symmetry_cell_setting 'orthorhombic'
loop_
_space_group_symop_operation_xyz
x,y,z
-x,-y,z
x,-y,1/2-z
-x,y,1/2-z
-x,-y,-z
x,y,-z
-x,y,1/2+z
x,-y,1/2+z
1/2+x,1/2+y,z
1/2-x,1/2-y,z
1/2+x,1/2-y,1/2-z
1/2-x,1/2+y,1/2-z
1/2-x,1/2-y,-z
1/2+x,1/2+y,-z
1/2-x,1/2+y,1/2+z
1/2+x,1/2-y,1/2+z
loop_
_atom_site_type_symbol
_atom_site_label
_atom_site_fract_x
_atom_site_fract_y
_atom_site_fract_z
Si Si1 0.568904 0.720046 0.804694
Si Si2 0.221364 0.907798 0.629874
Si Si3 0.169144 0.154970 0.500000
Si Si4 0.638999 0.000000 0.750000
Si Si5 0.500793 0.821520 0.000000
O O1 0.500000 0.643741 0.750000
O O2 0.654535 0.644612 0.801243
O O3 0.545051 0.762644 0.908288
O O4 0.584578 0.862100 0.744703
O O5 0.250000 0.750000 0.590950
O O6 0.302077 0.977475 0.666753
O O7 0.176454 0.036999 0.579404
O O8 0.250000 0.250000 0.500000
O O9 0.088895 0.251802 0.500000
O O10 0.500000 0.000000 0.000000
#
# Coordination Sequence:
#
# PCOD9499123 Si02
#       5
#    16  16   8   8   8
#     4  11  25  47  79 109 159 199 260 323 395 469
#     4  10  25  47  77 110 152 200 264 329 398 466
#     4  12  30  46  80 108 158 202 273 319 404 485
#     4  10  23  44  75 110 146 204 258 308 399 466
#     4  12  29  48  75 117 159 209 259 328 407 470
#
# _framework density 24.391881999999999
#
# number of rings (size 3 to 8) (size 9 to 14) (size 15 to 20)
#    0.000    1.143    0.000    3.429   16.000    3.429 
#    0.000    0.000    0.000    0.000    0.000    0.000 
#    0.000    0.000    0.000    0.000    0.000    0.000 
#
# Total GULP energy -156197.194239 kJ/mol
# GULP energy per Si atom -5578.471223 kJ/mol
# Density = 2.433636 g / cm^3
# Si number density = 24.391882 Si / 1000 Ang^3
#
#
#
# Elastic Constant Matrix: (Units=GPa)
#
#
# Indices 1 2 3 4 5 6 
#
# 1 160.6657 60.2138 15.9399 0.0000 0.0000 0.0000
# 2 60.2138 190.5464 33.9549 0.0000 0.0000 0.0000
# 3 15.9399 33.9549 79.0151 0.0000 0.0000 0.0000
# 4 0.0000 0.0000 0.0000 3.7747 0.0000 0.0000
# 5 0.0000 0.0000 0.0000 0.0000 149.0676 0.0000
# 6 0.0000 0.0000 0.0000 0.0000 0.0000 -20.8191
#
#
#
# Elastic Compliance Matrix: (Units=1/GPa)
#
#
# Indices 1 2 3 4 5 6 
#
# 1 0.007079 -0.002147 -0.000505 0.000000 0.000000 0.000000
# 2 -0.002147 0.006334 -0.002289 0.000000 0.000000 0.000000
# 3 -0.000505 -0.002289 0.013741 0.000000 0.000000 0.000000
# 4 0.000000 0.000000 0.000000 0.264920 0.000000 0.000000
# 5 0.000000 0.000000 0.000000 0.000000 0.006708 0.000000
# 6 0.000000 0.000000 0.000000 0.000000 0.000000 -0.048033
#
#
# Mechanical properties :
#
#
# Convention : Reuss Voigt Hill
#
# Bulk Modulus (GPa) = 57.89708 72.27159 65.08433
# Shear Modulus (GPa) = 18.76943 47.74588 33.25766
#
# Velocity S-wave (km/s) = 2.77699 4.42911 3.69653
# Velocity P-wave (km/s) = 5.83695 7.47326 6.70521
#
# Compressibility (1/GPa) = 0.01727203
#
# Stress axis : x y z
#
# Youngs Moduli (GPa) = 141.26574 157.86866 72.77281
#
# Poissons Ratio (x) = 0.33893 0.03678
# Poissons Ratio (y) = 0.30328 0.16657
# Poissons Ratio (z) = 0.07140 0.36135
#
# Static dielectric constant tensor:
#      x y z
#    x 1.946780 0.000000 0.000000 
#    y 0.000000 1.959540 0.000000 
#    z 0.000000 0.000000 2.044550 
# 
# From -- ./inp_files/41117.got.cif
#   From: 2010.05.17/outbox.cif.g08.bks.cpg/sg66_21_cif.got.tgz:41117.got - 2010.06.03 17:51:23.
