data_PCOD9499197
_publ_section_title
;
Structure prediction by ZEFSAII (Michael W. Deem and Ramdas Pophale) SiO2 
 PCOD9499197
Probable space group: C C C M
;
_chemical_formula_sum "Si O2"
_cell_formula_units_Z 72
_cell_length_a 14.090701
_cell_length_b 15.820535
_cell_length_c 17.226101
_cell_angle_alpha 90.000000
_cell_angle_beta 90.000000
_cell_angle_gamma 90.000000
_cell_volume 3840.084266
_symmetry_space_group_name_H-M "C C C M"
_symmetry_group_IT_number 66
_symmetry_cell_setting 'orthorhombic'
loop_
_space_group_symop_operation_xyz
x,y,z
-x,-y,z
x,-y,1/2-z
-x,y,1/2-z
-x,-y,-z
x,y,-z
-x,y,1/2+z
x,-y,1/2+z
1/2+x,1/2+y,z
1/2-x,1/2-y,z
1/2+x,1/2-y,1/2-z
1/2-x,1/2+y,1/2-z
1/2-x,1/2-y,-z
1/2+x,1/2+y,-z
1/2-x,1/2+y,1/2+z
1/2+x,1/2-y,1/2+z
loop_
_atom_site_type_symbol
_atom_site_label
_atom_site_fract_x
_atom_site_fract_y
_atom_site_fract_z
Si Si1 0.439089 0.752829 0.908407
Si Si2 0.458902 0.910669 0.337958
Si Si3 0.942689 0.914911 0.093057
Si Si4 0.250000 0.750000 0.807659
Si Si5 0.739889 0.414622 0.700269
O O1 0.504656 0.832384 0.887585
O O2 0.494071 0.666780 0.886697
O O3 0.342541 0.761393 0.860531
O O4 0.419226 0.749968 0.000000
O O5 0.500000 0.899751 0.250000
O O6 0.345609 0.915110 0.334930
O O7 0.500000 0.000000 0.366540
O O8 0.843192 0.911506 0.137194
O O9 0.928046 0.914861 0.000000
O O10 0.000000 0.000000 0.113633
O O11 0.265035 0.667601 0.754796
O O12 0.728998 0.500000 0.750000
#
# Coordination Sequence:
#
# PCOD9499197 Si02
#       5
#    16  16  16   8  16
#     4  11  24  41  62  90 126 167 206 255 316 370
#     4  11  21  42  63  88 126 158 203 259 314 365
#     4  10  24  44  63  90 131 168 207 261 312 371
#     4  12  23  38  63  92 124 164 208 264 305 372
#     4  12  23  38  67  94 118 165 211 254 313 373
#
# _framework density 18.749589
#
# number of rings (size 3 to 8) (size 9 to 14) (size 15 to 20)
#    0.000    0.889    4.444    3.000    0.000    3.556 
#    0.000    8.333    0.000    0.000    0.000    0.000 
#    0.000    0.000    0.000    0.000    0.000    0.000 
#
# Total GULP energy -201365.448286 kJ/mol
# GULP energy per Si atom -5593.484675 kJ/mol
# Density = 1.870691 g / cm^3
# Si number density = 18.749589 Si / 1000 Ang^3
#
#
#
# Elastic Constant Matrix: (Units=GPa)
#
#
# Indices 1 2 3 4 5 6 
#
# 1 152.7540 41.1241 70.1832 0.0000 0.0000 0.0000
# 2 41.1241 157.3312 50.2755 0.0000 0.0000 0.0000
# 3 70.1832 50.2755 50.0808 0.0000 0.0000 0.0000
# 4 0.0000 0.0000 0.0000 -28.8731 0.0000 0.0000
# 5 0.0000 0.0000 0.0000 0.0000 30.5312 0.0000
# 6 0.0000 0.0000 0.0000 0.0000 0.0000 29.8826
#
#
#
# Elastic Compliance Matrix: (Units=1/GPa)
#
#
# Indices 1 2 3 4 5 6 
#
# 1 0.021576 0.005922 -0.036182 0.000000 0.000000 0.000000
# 2 0.005922 0.010984 -0.019326 0.000000 0.000000 0.000000
# 3 -0.036182 -0.019326 0.090074 0.000000 0.000000 0.000000
# 4 0.000000 0.000000 0.000000 -0.034634 0.000000 0.000000
# 5 0.000000 0.000000 0.000000 0.000000 0.032753 0.000000
# 6 0.000000 0.000000 0.000000 0.000000 0.000000 0.033464
#
#
# Mechanical properties :
#
#
# Convention : Reuss Voigt Hill
#
# Bulk Modulus (GPa) = 42.62086 75.92572 59.27329
# Shear Modulus (GPa) = 19.14185 19.54702 19.34444
#
# Velocity S-wave (km/s) = 3.19865 3.23233 3.21553
# Velocity P-wave (km/s) = 6.03513 7.38330 6.74299
#
# Compressibility (1/GPa) = 0.02346269
#
# Stress axis : x y z
#
# Youngs Moduli (GPa) = 46.34819 91.04465 11.10203
#
# Poissons Ratio (x) = -0.53920 0.40169
# Poissons Ratio (y) = -0.27449 0.21456
# Poissons Ratio (z) = 1.67695 1.75951
#
# Static dielectric constant tensor:
#      x y z
#    x 1.616020 0.000000 0.000000 
#    y 0.000000 1.633530 0.000000 
#    z 0.000000 0.000000 1.633740 
# 
# From -- ./inp_files/40042.got.cif
#   From: 2010.05.17/outbox.cif.g08.bks.cpg/sg66_21_cif.got.tgz:40042.got - 2010.06.03 17:51:23.
