data_PCOD9499821
_publ_section_title
;
Structure prediction by ZEFSAII (Michael W. Deem and Ramdas Pophale) SiO2 
 PCOD9499821
Probable space group: C C C M
;
_chemical_formula_sum "Si O2"
_cell_formula_units_Z 72
_cell_length_a 13.454101
_cell_length_b 14.886758
_cell_length_c 17.086259
_cell_angle_alpha 90.000000
_cell_angle_beta 90.000000
_cell_angle_gamma 90.000000
_cell_volume 3422.171715
_symmetry_space_group_name_H-M "C C C M"
_symmetry_group_IT_number 66
_symmetry_cell_setting 'orthorhombic'
loop_
_space_group_symop_operation_xyz
x,y,z
-x,-y,z
x,-y,1/2-z
-x,y,1/2-z
-x,-y,-z
x,y,-z
-x,y,1/2+z
x,-y,1/2+z
1/2+x,1/2+y,z
1/2-x,1/2-y,z
1/2+x,1/2-y,1/2-z
1/2-x,1/2+y,1/2-z
1/2-x,1/2-y,-z
1/2+x,1/2+y,-z
1/2-x,1/2+y,1/2+z
1/2+x,1/2-y,1/2+z
loop_
_atom_site_type_symbol
_atom_site_label
_atom_site_fract_x
_atom_site_fract_y
_atom_site_fract_z
Si Si1 0.275836 0.042048 0.335720
Si Si2 0.411576 0.811997 0.907926
Si Si3 0.250000 0.750000 0.702623
Si Si4 0.869765 0.376361 0.588013
Si Si5 0.593364 0.639087 0.305057
O O1 0.328509 0.136290 0.357479
O O2 0.156926 0.056482 0.339938
O O3 0.299442 0.000000 0.250000
O O4 0.322515 0.973233 0.397321
O O5 0.511967 0.870546 0.900791
O O6 0.431523 0.713904 0.870700
O O7 0.384891 0.805369 0.000000
O O8 0.181370 0.688346 0.649329
O O9 0.324396 0.687128 0.750507
O O10 0.849574 0.345921 0.500000
O O11 0.500000 0.617246 0.250000
#
# Coordination Sequence:
#
# PCOD9499821 Si02
#       5
#    16  16   8  16  16
#     4  12  24  41  65  98 133 177 217 272 338 394
#     4  11  24  42  69 102 134 172 221 284 341 392
#     4  12  21  44  67  94 122 184 224 268 335 394
#     4  11  24  42  66  97 134 172 220 278 336 397
#     4  12  24  43  69  97 135 176 228 275 328 404
#
# _framework density 21.039270999999999
#
# number of rings (size 3 to 8) (size 9 to 14) (size 15 to 20)
#    0.000    0.444    6.667    1.667    0.000    5.778 
#    0.000    0.000    0.000    1.333    0.000    0.000 
#    0.000    0.000    0.000    0.000    0.000    0.000 
#
# Total GULP energy -201232.764640 kJ/mol
# GULP energy per Si atom -5589.799018 kJ/mol
# Density = 2.099139 g / cm^3
# Si number density = 21.039271 Si / 1000 Ang^3
#
#
#
# Elastic Constant Matrix: (Units=GPa)
#
#
# Indices 1 2 3 4 5 6 
#
# 1 124.1701 21.1938 55.5727 0.0000 0.0000 0.0000
# 2 21.1938 46.1471 24.8733 0.0000 0.0000 0.0000
# 3 55.5727 24.8733 89.7656 0.0000 0.0000 0.0000
# 4 0.0000 0.0000 0.0000 36.4162 0.0000 0.0000
# 5 0.0000 0.0000 0.0000 0.0000 27.9760 0.0000
# 6 0.0000 0.0000 0.0000 0.0000 0.0000 46.3418
#
#
#
# Elastic Compliance Matrix: (Units=1/GPa)
#
#
# Indices 1 2 3 4 5 6 
#
# 1 0.011247 -0.001660 -0.006503 0.000000 0.000000 0.000000
# 2 -0.001660 0.025720 -0.006099 0.000000 0.000000 0.000000
# 3 -0.006503 -0.006099 0.016856 0.000000 0.000000 0.000000
# 4 0.000000 0.000000 0.000000 0.027460 0.000000 0.000000
# 5 0.000000 0.000000 0.000000 0.000000 0.035745 0.000000
# 6 0.000000 0.000000 0.000000 0.000000 0.000000 0.021579
#
#
# Mechanical properties :
#
#
# Convention : Reuss Voigt Hill
#
# Bulk Modulus (GPa) = 39.52785 51.48470 45.50627
# Shear Modulus (GPa) = 28.47963 32.70966 30.59464
#
# Velocity S-wave (km/s) = 3.68318 3.94724 3.81749
# Velocity P-wave (km/s) = 6.07587 6.73039 6.41149
#
# Compressibility (1/GPa) = 0.02529862
#
# Stress axis : x y z
#
# Youngs Moduli (GPa) = 88.91028 38.88078 59.32625
#
# Poissons Ratio (x) = 0.06456 0.38580
# Poissons Ratio (y) = 0.14763 0.36182
# Poissons Ratio (z) = 0.57818 0.23712
#
# Static dielectric constant tensor:
#      x y z
#    x 1.759730 0.000000 0.000000 
#    y 0.000000 1.840470 0.000000 
#    z 0.000000 0.000000 1.734540 
# 
# From -- ./inp_files/38344.got.cif
#   From: 2010.05.17/outbox.cif.g08.bks.cpg/sg66_20_cif.got.tgz:38344.got - 2010.06.03 17:51:23.
