data_PCOD9499360
_publ_section_title
;
Structure prediction by ZEFSAII (Michael W. Deem and Ramdas Pophale) SiO2 
 PCOD9499360
Probable space group: C C C M
;
_chemical_formula_sum "Si O2"
_cell_formula_units_Z 72
_cell_length_a 26.514434
_cell_length_b 17.395543
_cell_length_c 9.970624
_cell_angle_alpha 90.000000
_cell_angle_beta 90.000000
_cell_angle_gamma 90.000000
_cell_volume 4598.780588
_symmetry_space_group_name_H-M "C C C M"
_symmetry_group_IT_number 66
_symmetry_cell_setting 'orthorhombic'
loop_
_space_group_symop_operation_xyz
x,y,z
-x,-y,z
x,-y,1/2-z
-x,y,1/2-z
-x,-y,-z
x,y,-z
-x,y,1/2+z
x,-y,1/2+z
1/2+x,1/2+y,z
1/2-x,1/2-y,z
1/2+x,1/2-y,1/2-z
1/2-x,1/2+y,1/2-z
1/2-x,1/2-y,-z
1/2+x,1/2+y,-z
1/2-x,1/2+y,1/2+z
1/2+x,1/2-y,1/2+z
loop_
_atom_site_type_symbol
_atom_site_label
_atom_site_fract_x
_atom_site_fract_y
_atom_site_fract_z
Si Si1 0.695032 0.956449 0.000000
Si Si2 0.385021 0.172931 0.000000
Si Si3 0.763238 0.661420 0.500000
Si Si4 0.560013 0.906699 0.753015
Si Si5 0.225035 0.920097 0.726350
Si Si6 0.697056 0.698998 0.000000
Si Si7 0.127484 0.390986 0.500000
O O1 0.663861 0.879884 0.000000
O O2 0.729174 0.951727 0.132442
O O3 0.655213 0.025599 0.000000
O O4 0.417483 0.143017 0.125699
O O5 0.356296 0.254951 0.000000
O O6 0.750000 0.750000 0.500000
O O7 0.743015 0.618345 0.634075
O O8 0.823705 0.661427 0.500000
O O9 0.500000 0.895467 0.750000
O O10 0.591665 0.880484 0.625708
O O11 0.567779 0.000000 0.750000
O O12 0.200168 0.855314 0.631853
O O13 0.194811 0.000000 0.750000
O O14 0.750000 0.750000 0.000000
#
# Coordination Sequence:
#
# PCOD9499360 Si02
#       7
#     8   8   8  16  16   8   8
#     4  11  20  32  52  76 100 149 191 205 254 335
#     4  12  22  36  56  75 110 148 182 225 275 322
#     4  12  25  31  51  81 110 132 183 232 265 301
#     4  11  23  37  54  79 109 146 194 235 264 311
#     4  11  21  37  51  72 110 146 181 218 259 320
#     4  11  23  35  54  79 112 141 186 220 266 331
#     4  12  22  35  55  76 107 150 190 225 267 310
#
# _framework density 15.656324
#
# number of rings (size 3 to 8) (size 9 to 14) (size 15 to 20)
#    0.000    0.667    6.667    3.333    3.111    1.778 
#    0.000    0.000    0.000    0.000    0.000    0.000 
#    0.000    2.667    0.000    0.000    0.000    0.000 
#
# Total GULP energy -200490.996027 kJ/mol
# GULP energy per Si atom -5569.194334 kJ/mol
# Density = 1.562069 g / cm^3
# Si number density = 15.656324 Si / 1000 Ang^3
#
#
#
# Elastic Constant Matrix: (Units=GPa)
#
#
# Indices 1 2 3 4 5 6 
#
# 1 85.3600 54.9554 64.6055 0.0000 0.0000 0.0000
# 2 54.9554 113.9844 61.5085 0.0000 0.0000 0.0000
# 3 64.6055 61.5085 171.7795 0.0000 0.0000 0.0000
# 4 0.0000 0.0000 0.0000 22.0594 0.0000 0.0000
# 5 0.0000 0.0000 0.0000 0.0000 63.5720 0.0000
# 6 0.0000 0.0000 0.0000 0.0000 0.0000 28.1321
#
#
#
# Elastic Compliance Matrix: (Units=1/GPa)
#
#
# Indices 1 2 3 4 5 6 
#
# 1 0.019980 -0.006914 -0.005039 0.000000 0.000000 0.000000
# 2 -0.006914 0.013267 -0.002150 0.000000 0.000000 0.000000
# 3 -0.005039 -0.002150 0.008486 0.000000 0.000000 0.000000
# 4 0.000000 0.000000 0.000000 0.045332 0.000000 0.000000
# 5 0.000000 0.000000 0.000000 0.000000 0.015730 0.000000
# 6 0.000000 0.000000 0.000000 0.000000 0.000000 0.035547
#
#
# Mechanical properties :
#
#
# Convention : Reuss Voigt Hill
#
# Bulk Modulus (GPa) = 73.92314 81.47363 77.69839
# Shear Modulus (GPa) = 29.23009 35.42301 32.32655
#
# Velocity S-wave (km/s) = 4.32555 4.76177 4.54889
# Velocity P-wave (km/s) = 8.50093 9.07659 8.79347
#
# Compressibility (1/GPa) = 0.01352756
#
# Stress axis : x y z
#
# Youngs Moduli (GPa) = 50.05022 75.37620 117.83662
#
# Poissons Ratio (x) = 0.52115 0.59374
# Poissons Ratio (y) = 0.34604 0.25336
# Poissons Ratio (z) = 0.25219 0.16207
#
# Static dielectric constant tensor:
#      x y z
#    x 1.506230 0.000000 0.000000 
#    y 0.000000 1.477370 0.000000 
#    z 0.000000 0.000000 1.240120 
# 
# From -- ./inp_files/6533.got.cif
#   From: 2010.05.17/outbox.cif.g08.bks.cpg/sg66_4_cif.got.tgz:6533.got - 2010.06.03 17:51:23.
