data_PCOD9499651
_publ_section_title
;
Structure prediction by ZEFSAII (Michael W. Deem and Ramdas Pophale) SiO2 
 PCOD9499651
Probable space group: C C C M
;
_chemical_formula_sum "Si O2"
_cell_formula_units_Z 68
_cell_length_a 17.428903
_cell_length_b 11.838314
_cell_length_c 16.135602
_cell_angle_alpha 90.000000
_cell_angle_beta 90.000000
_cell_angle_gamma 90.000000
_cell_volume 3329.239824
_symmetry_space_group_name_H-M "C C C M"
_symmetry_group_IT_number 66
_symmetry_cell_setting 'orthorhombic'
loop_
_space_group_symop_operation_xyz
x,y,z
-x,-y,z
x,-y,1/2-z
-x,y,1/2-z
-x,-y,-z
x,y,-z
-x,y,1/2+z
x,-y,1/2+z
1/2+x,1/2+y,z
1/2-x,1/2-y,z
1/2+x,1/2-y,1/2-z
1/2-x,1/2+y,1/2-z
1/2-x,1/2-y,-z
1/2+x,1/2+y,-z
1/2-x,1/2+y,1/2+z
1/2+x,1/2-y,1/2+z
loop_
_atom_site_type_symbol
_atom_site_label
_atom_site_fract_x
_atom_site_fract_y
_atom_site_fract_z
Si Si1 0.630611 0.764688 0.631532
Si Si2 0.412204 0.016815 0.902639
Si Si3 0.483774 0.626218 0.650468
Si Si4 0.838596 0.737163 0.173645
Si Si5 0.750000 0.250000 0.000000
O O1 0.545984 0.714508 0.616760
O O2 0.653143 0.752280 0.727147
O O3 0.691016 0.705859 0.572434
O O4 0.629344 0.896679 0.607204
O O5 0.370777 0.115272 0.852808
O O6 0.500000 0.000000 0.873548
O O7 0.413918 0.046706 0.000000
O O8 0.500000 0.500000 0.619962
O O9 0.500000 0.625370 0.750000
O O10 0.397802 0.670731 0.636740
O O11 0.750000 0.750000 0.149404
#
# Coordination Sequence:
#
# PCOD9499651 Si02
#       5
#    16  16  16  16   4
#     4  11  22  42  66  94 132 176 221 273 337 406
#     4  11  23  41  69  94 130 175 223 277 336 404
#     4   9  20  40  65  91 130 173 217 266 330 399
#     4  11  23  40  68 102 130 172 225 279 335 400
#     4  12  24  40  64  96 134 168 222 282 324 402
#
# _framework density 20.425083000000001
#
# number of rings (size 3 to 8) (size 9 to 14) (size 15 to 20)
#    0.000    1.412    4.706    0.706    0.000    3.294 
#    8.471    0.588    0.000    0.000    0.000    0.000 
#    0.000    0.000    0.000    0.000    0.000    0.000 
#
# Total GULP energy -189427.821907 kJ/mol
# GULP energy per Si atom -5571.406527 kJ/mol
# Density = 2.037859 g / cm^3
# Si number density = 20.425083 Si / 1000 Ang^3
#
#
#
# Elastic Constant Matrix: (Units=GPa)
#
#
# Indices 1 2 3 4 5 6 
#
# 1 176.5364 49.3314 28.6028 0.0000 0.0000 0.0000
# 2 49.3314 112.0625 19.6119 0.0000 0.0000 0.0000
# 3 28.6028 19.6119 56.8165 0.0000 0.0000 0.0000
# 4 0.0000 0.0000 0.0000 -26.0837 0.0000 0.0000
# 5 0.0000 0.0000 0.0000 0.0000 46.1335 0.0000
# 6 0.0000 0.0000 0.0000 0.0000 0.0000 20.0557
#
#
#
# Elastic Compliance Matrix: (Units=1/GPa)
#
#
# Indices 1 2 3 4 5 6 
#
# 1 0.006787 -0.002543 -0.002539 0.000000 0.000000 0.000000
# 2 -0.002543 0.010450 -0.002327 0.000000 0.000000 0.000000
# 3 -0.002539 -0.002327 0.019682 0.000000 0.000000 0.000000
# 4 0.000000 0.000000 0.000000 -0.038338 0.000000 0.000000
# 5 0.000000 0.000000 0.000000 0.000000 0.021676 0.000000
# 6 0.000000 0.000000 0.000000 0.000000 0.000000 0.049861
#
#
# Mechanical properties :
#
#
# Convention : Reuss Voigt Hill
#
# Bulk Modulus (GPa) = 45.24674 60.05641 52.65157
# Shear Modulus (GPa) = 54.16967 24.54572 39.35769
#
# Velocity S-wave (km/s) = 5.15546 3.47038 4.39444
# Velocity P-wave (km/s) = 7.59203 6.74723 7.18206
#
# Compressibility (1/GPa) = 0.02210104
#
# Stress axis : x y z
#
# Youngs Moduli (GPa) = 147.35019 95.69015 50.80854
#
# Poissons Ratio (x) = 0.24336 0.12898
# Poissons Ratio (y) = 0.37475 0.11823
# Poissons Ratio (z) = 0.37407 0.22267
#
# Static dielectric constant tensor:
#      x y z
#    x 1.772760 0.000000 0.000000 
#    y 0.000000 1.723790 0.000000 
#    z 0.000000 0.000000 1.674980 
# 
# From -- ./inp_files/41304.got.cif
#   From: 2010.05.17/outbox.cif.g08.bks.cpg/sg66_21_cif.got.tgz:41304.got - 2010.06.03 17:51:23.
