data_PCOD9499481
_publ_section_title
;
Structure prediction by ZEFSAII (Michael W. Deem and Ramdas Pophale) SiO2 
 PCOD9499481
Probable space group: C C C M
;
_chemical_formula_sum "Si O2"
_cell_formula_units_Z 112
_cell_length_a 25.975028
_cell_length_b 16.109126
_cell_length_c 15.916935
_cell_angle_alpha 90.000000
_cell_angle_beta 90.000000
_cell_angle_gamma 90.000000
_cell_volume 6660.202679
_symmetry_space_group_name_H-M "C C C M"
_symmetry_group_IT_number 66
_symmetry_cell_setting 'orthorhombic'
loop_
_space_group_symop_operation_xyz
x,y,z
-x,-y,z
x,-y,1/2-z
-x,y,1/2-z
-x,-y,-z
x,y,-z
-x,y,1/2+z
x,-y,1/2+z
1/2+x,1/2+y,z
1/2-x,1/2-y,z
1/2+x,1/2-y,1/2-z
1/2-x,1/2+y,1/2-z
1/2-x,1/2-y,-z
1/2+x,1/2+y,-z
1/2-x,1/2+y,1/2+z
1/2+x,1/2-y,1/2+z
loop_
_atom_site_type_symbol
_atom_site_label
_atom_site_fract_x
_atom_site_fract_y
_atom_site_fract_z
Si Si1 0.325722 0.209872 0.500000
Si Si2 0.614044 0.177419 0.664534
Si Si3 0.717963 0.489469 0.652288
Si Si4 0.659898 0.010901 0.652523
Si Si5 0.603371 0.851217 0.638127
Si Si6 0.278045 0.609391 0.000000
Si Si7 0.991023 0.403611 0.600140
Si Si8 0.802138 0.799571 0.899355
O O1 0.362500 0.206558 0.580315
O O2 0.299794 0.298713 0.500000
O O3 0.283594 0.134112 0.500000
O O4 0.647815 0.103106 0.624726
O O5 0.614720 0.170247 0.765387
O O6 0.556726 0.148569 0.637657
O O7 0.645129 0.259260 0.636876
O O8 0.701791 0.500000 0.750000
O O9 0.779717 0.501026 0.649250
O O10 0.703198 0.557356 0.581677
O O11 0.703914 0.396041 0.625218
O O12 0.644663 0.000000 0.750000
O O13 0.624753 0.942078 0.610647
O O14 0.543101 0.854391 0.621166
O O15 0.983656 0.408475 0.500000
O O16 0.000000 0.500000 0.630855
O O17 0.750000 0.750000 0.870526
O O18 0.804118 0.792870 0.000000
#
# Coordination Sequence:
#
# PCOD9499481 Si02
#       8
#     8  16  16  16  16   8  16  16
#     4  11  24  38  57  85 117 151 191 242 295 343
#     4  11  22  35  55  83 116 155 199 235 275 343
#     4  11  22  39  59  82 115 159 197 237 291 345
#     4   9  18  32  51  80 115 154 190 231 277 333
#     4  11  21  37  56  79 117 157 191 236 288 339
#     4  11  24  40  59  85 117 153 197 242 289 353
#     4  11  22  35  55  83 117 156 193 232 286 348
#     4  11  23  37  56  84 119 156 193 237 289 343
#
# _framework density 16.816305
#
# number of rings (size 3 to 8) (size 9 to 14) (size 15 to 20)
#    0.000    1.286    5.714    0.857    2.000    0.571 
#    2.571    0.000    0.000    0.000    0.000    2.000 
#    0.000    0.000    0.000    0.000    0.000    0.000 
#
# Total GULP energy -311850.330167 kJ/mol
# GULP energy per Si atom -5568.755896 kJ/mol
# Density = 1.677803 g / cm^3
# Si number density = 16.816305 Si / 1000 Ang^3
#
#
#
# Elastic Constant Matrix: (Units=GPa)
#
#
# Indices 1 2 3 4 5 6 
#
# 1 67.3698 29.5657 41.2161 0.0000 0.0000 0.0000
# 2 29.5657 94.2730 45.4108 0.0000 0.0000 0.0000
# 3 41.2161 45.4108 99.8746 0.0000 0.0000 0.0000
# 4 0.0000 0.0000 0.0000 22.9086 0.0000 0.0000
# 5 0.0000 0.0000 0.0000 0.0000 23.9267 0.0000
# 6 0.0000 0.0000 0.0000 0.0000 0.0000 27.2570
#
#
#
# Elastic Compliance Matrix: (Units=1/GPa)
#
#
# Indices 1 2 3 4 5 6 
#
# 1 0.020505 -0.003015 -0.007091 0.000000 0.000000 0.000000
# 2 -0.003015 0.014026 -0.005133 0.000000 0.000000 0.000000
# 3 -0.007091 -0.005133 0.015273 0.000000 0.000000 0.000000
# 4 0.000000 0.000000 0.000000 0.043652 0.000000 0.000000
# 5 0.000000 0.000000 0.000000 0.000000 0.041794 0.000000
# 6 0.000000 0.000000 0.000000 0.000000 0.000000 0.036688
#
#
# Mechanical properties :
#
#
# Convention : Reuss Voigt Hill
#
# Bulk Modulus (GPa) = 51.74586 54.87807 53.31196
# Shear Modulus (GPa) = 23.93990 24.50679 24.22334
#
# Velocity S-wave (km/s) = 3.77717 3.82163 3.79947
# Velocity P-wave (km/s) = 7.06121 7.22342 7.14278
#
# Compressibility (1/GPa) = 0.01932522
#
# Stress axis : x y z
#
# Youngs Moduli (GPa) = 48.76902 71.29862 65.47625
#
# Poissons Ratio (x) = 0.21496 0.46430
# Poissons Ratio (y) = 0.14704 0.33608
# Poissons Ratio (z) = 0.34582 0.36597
#
# Static dielectric constant tensor:
#      x y z
#    x 1.585650 0.000000 0.000000 
#    y 0.000000 1.597760 0.000000 
#    z 0.000000 0.000000 1.601280 
# 
# From -- ./inp_files/33376.got.cif
#   From: 2010.05.17/outbox.cif.g08.bks.cpg/sg66_17_cif.got.tgz:33376.got - 2010.06.03 17:51:23.
