data_PCOD9499224
_publ_section_title
;
Structure prediction by ZEFSAII (Michael W. Deem and Ramdas Pophale) SiO2 
 PCOD9499224
Probable space group: C C C M
;
_chemical_formula_sum "Si O2"
_cell_formula_units_Z 52
_cell_length_a 17.537394
_cell_length_b 8.216209
_cell_length_c 15.048357
_cell_angle_alpha 90.000000
_cell_angle_beta 90.000000
_cell_angle_gamma 90.000000
_cell_volume 2168.331220
_symmetry_space_group_name_H-M "C C C M"
_symmetry_group_IT_number 66
_symmetry_cell_setting 'orthorhombic'
loop_
_space_group_symop_operation_xyz
x,y,z
-x,-y,z
x,-y,1/2-z
-x,y,1/2-z
-x,-y,-z
x,y,-z
-x,y,1/2+z
x,-y,1/2+z
1/2+x,1/2+y,z
1/2-x,1/2-y,z
1/2+x,1/2-y,1/2-z
1/2-x,1/2+y,1/2-z
1/2-x,1/2-y,-z
1/2+x,1/2+y,-z
1/2-x,1/2+y,1/2+z
1/2+x,1/2-y,1/2+z
loop_
_atom_site_type_symbol
_atom_site_label
_atom_site_fract_x
_atom_site_fract_y
_atom_site_fract_z
Si Si1 0.605223 0.957080 0.897263
Si Si2 0.427335 0.591810 0.395930
Si Si3 0.731682 0.439821 0.149322
Si Si4 0.000000 0.500000 0.250000
O O1 0.586716 0.774609 0.863035
O O2 0.561043 0.067864 0.824696
O O3 0.695928 0.974292 0.894913
O O4 0.582339 0.985334 0.000000
O O5 0.500000 0.500000 0.356098
O O6 0.443198 0.616608 0.500000
O O7 0.350417 0.487772 0.388139
O O8 0.731027 0.500000 0.250000
O O9 0.750000 0.250000 0.142945
#
# Coordination Sequence:
#
# PCOD9499224 Si02
#       4
#    16  16  16   4
#     4  11  25  46  73 104 145 188 237 297 357 430
#     4  10  24  45  71 103 140 185 236 293 360 428
#     4  12  26  44  70 103 143 190 242 299 360 429
#     4  12  26  44  70 110 138 184 232 296 352 426
#
# _framework density 23.981577000000001
#
# number of rings (size 3 to 8) (size 9 to 14) (size 15 to 20)
#    0.000    0.923    1.538    4.154    4.308    5.538 
#    0.000    0.000    0.000    0.000    0.000    0.000 
#    0.000    0.000    0.000    0.000    0.000    0.000 
#
# Total GULP energy -145248.889398 kJ/mol
# GULP energy per Si atom -5586.495746 kJ/mol
# Density = 2.392699 g / cm^3
# Si number density = 23.981577 Si / 1000 Ang^3
#
#
#
# Elastic Constant Matrix: (Units=GPa)
#
#
# Indices 1 2 3 4 5 6 
#
# 1 199.7839 56.2742 6.3073 0.0000 0.0000 0.0000
# 2 56.2742 133.3540 -5.4069 0.0000 0.0000 0.0000
# 3 6.3073 -5.4069 123.2428 0.0000 0.0000 0.0000
# 4 0.0000 0.0000 0.0000 24.0978 0.0000 0.0000
# 5 0.0000 0.0000 0.0000 0.0000 49.6977 0.0000
# 6 0.0000 0.0000 0.0000 0.0000 0.0000 40.3485
#
#
#
# Elastic Compliance Matrix: (Units=1/GPa)
#
#
# Indices 1 2 3 4 5 6 
#
# 1 0.005700 -0.002422 -0.000398 0.000000 0.000000 0.000000
# 2 -0.002422 0.008541 0.000499 0.000000 0.000000 0.000000
# 3 -0.000398 0.000499 0.008156 0.000000 0.000000 0.000000
# 4 0.000000 0.000000 0.000000 0.041498 0.000000 0.000000
# 5 0.000000 0.000000 0.000000 0.000000 0.020122 0.000000
# 6 0.000000 0.000000 0.000000 0.000000 0.000000 0.024784
#
#
# Mechanical properties :
#
#
# Convention : Reuss Voigt Hill
#
# Bulk Modulus (GPa) = 56.32022 63.41444 59.86733
# Shear Modulus (GPa) = 41.88981 49.44253 45.66617
#
# Velocity S-wave (km/s) = 4.18395 4.54551 4.36847
# Velocity P-wave (km/s) = 6.84663 7.35182 7.10372
#
# Compressibility (1/GPa) = 0.01775561
#
# Stress axis : x y z
#
# Youngs Moduli (GPa) = 175.43705 117.08355 122.60451
#
# Poissons Ratio (x) = 0.28352 0.04879
# Poissons Ratio (y) = 0.42482 -0.06113
# Poissons Ratio (z) = 0.06982 -0.05838
#
# Static dielectric constant tensor:
#      x y z
#    x 1.948280 0.000000 0.000000 
#    y 0.000000 2.034960 0.000000 
#    z 0.000000 0.000000 1.864300 
# 
# From -- ./inp_files/41000.got.cif
#   From: 2010.05.17/outbox.cif.g08.bks.cpg/sg66_21_cif.got.tgz:41000.got - 2010.06.03 17:51:23.
