data_PCOD9499526
_publ_section_title
;
Structure prediction by ZEFSAII (Michael W. Deem and Ramdas Pophale) SiO2 
 PCOD9499526
Probable space group: C C C M
;
_chemical_formula_sum "Si O2"
_cell_formula_units_Z 112
_cell_length_a 31.711963
_cell_length_b 10.998875
_cell_length_c 14.639164
_cell_angle_alpha 90.000000
_cell_angle_beta 90.000000
_cell_angle_gamma 90.000000
_cell_volume 5106.080632
_symmetry_space_group_name_H-M "C C C M"
_symmetry_group_IT_number 66
_symmetry_cell_setting 'orthorhombic'
loop_
_space_group_symop_operation_xyz
x,y,z
-x,-y,z
x,-y,1/2-z
-x,y,1/2-z
-x,-y,-z
x,y,-z
-x,y,1/2+z
x,-y,1/2+z
1/2+x,1/2+y,z
1/2-x,1/2-y,z
1/2+x,1/2-y,1/2-z
1/2-x,1/2+y,1/2-z
1/2-x,1/2-y,-z
1/2+x,1/2+y,-z
1/2-x,1/2+y,1/2+z
1/2+x,1/2-y,1/2+z
loop_
_atom_site_type_symbol
_atom_site_label
_atom_site_fract_x
_atom_site_fract_y
_atom_site_fract_z
Si Si1 0.806062 0.813217 0.205974
Si Si2 0.193684 0.548420 0.647207
Si Si3 0.602332 0.636246 0.760698
Si Si4 0.779884 0.939657 0.394754
Si Si5 0.598218 0.019053 0.640810
Si Si6 0.944577 0.266531 0.101969
Si Si7 0.541441 0.744763 0.894390
O O1 0.790880 0.687991 0.159417
O O2 0.856262 0.789229 0.213476
O O3 0.798629 0.931379 0.142371
O O4 0.790315 0.846970 0.309855
O O5 0.191291 0.500000 0.750000
O O6 0.229846 0.466795 0.602234
O O7 0.146502 0.535862 0.608555
O O8 0.617376 0.500000 0.750000
O O9 0.583147 0.686471 0.668374
O O10 0.565281 0.645697 0.834224
O O11 0.793603 0.910027 0.500000
O O12 0.569290 0.134243 0.618286
O O13 0.598656 0.000000 0.750000
O O14 0.575443 0.900135 0.602406
O O15 0.993241 0.269246 0.133358
O O16 0.943823 0.216845 0.000000
O O17 0.541679 0.710268 0.000000
#
# Coordination Sequence:
#
# PCOD9499526 Si02
#       7
#    16  16  16  16  16  16  16
#     4  11  23  48  68  94 139 176 219 288 339 392
#     4  11  22  42  70  98 140 173 218 277 332 401
#     4  12  24  45  69  93 127 183 233 275 337 397
#     4  11  25  43  71 102 130 178 230 276 338 401
#     4  11  21  40  70 100 133 178 219 265 336 407
#     4  11  25  43  66 100 138 172 216 281 339 398
#     4  11  24  42  67 100 135 173 221 275 335 405
#
# _framework density 21.934632000000001
#
# number of rings (size 3 to 8) (size 9 to 14) (size 15 to 20)
#    0.000    0.857    5.714    2.571    0.000    6.857 
#    0.000    2.857    0.000    0.000    0.000    0.000 
#    0.000    0.000    0.000    0.000    0.000    0.000 
#
# Total GULP energy -312961.450189 kJ/mol
# GULP energy per Si atom -5588.597325 kJ/mol
# Density = 2.188471 g / cm^3
# Si number density = 21.934632 Si / 1000 Ang^3
#
#
#
# Elastic Constant Matrix: (Units=GPa)
#
#
# Indices 1 2 3 4 5 6 
#
# 1 126.1313 -9.1208 3.1328 0.0000 0.0000 0.0000
# 2 -9.1208 29.9116 -20.8345 0.0000 0.0000 0.0000
# 3 3.1328 -20.8345 86.2492 0.0000 0.0000 0.0000
# 4 0.0000 0.0000 0.0000 -60.6613 0.0000 0.0000
# 5 0.0000 0.0000 0.0000 0.0000 8.2918 0.0000
# 6 0.0000 0.0000 0.0000 0.0000 0.0000 33.8713
#
#
#
# Elastic Compliance Matrix: (Units=1/GPa)
#
#
# Indices 1 2 3 4 5 6 
#
# 1 0.008117 0.002729 0.000364 0.000000 0.000000 0.000000
# 2 0.002729 0.041112 0.009832 0.000000 0.000000 0.000000
# 3 0.000364 0.009832 0.013956 0.000000 0.000000 0.000000
# 4 0.000000 0.000000 0.000000 -0.016485 0.000000 0.000000
# 5 0.000000 0.000000 0.000000 0.000000 0.120602 0.000000
# 6 0.000000 0.000000 0.000000 0.000000 0.000000 0.029523
#
#
# Mechanical properties :
#
#
# Convention : Reuss Voigt Hill
#
# Bulk Modulus (GPa) = 11.23153 20.96078 16.09615
# Shear Modulus (GPa) = 24.91859 14.24133 19.57996
#
# Velocity S-wave (km/s) = 3.37417 2.55083 2.99097
# Velocity P-wave (km/s) = 4.50684 4.27228 4.39113
#
# Compressibility (1/GPa) = 0.08903510
#
# Stress axis : x y z
#
# Youngs Moduli (GPa) = 123.20563 24.32364 71.65315
#
# Poissons Ratio (x) = -0.06637 -0.02611
# Poissons Ratio (y) = -0.33619 -0.70450
# Poissons Ratio (z) = -0.04489 -0.23915
#
# Static dielectric constant tensor:
#      x y z
#    x 1.809930 0.000000 0.000000 
#    y 0.000000 1.807950 0.000000 
#    z 0.000000 0.000000 1.830500 
# 
# From -- ./inp_files/33808.got.cif
#   From: 2010.05.17/outbox.cif.g08.bks.cpg/sg66_17_cif.got.tgz:33808.got - 2010.06.03 17:51:23.
