data_PCOD9499839
_publ_section_title
;
Structure prediction by ZEFSAII (Michael W. Deem and Ramdas Pophale) SiO2 
 PCOD9499839
Probable space group: C C C M
;
_chemical_formula_sum "Si O2"
_cell_formula_units_Z 44
_cell_length_a 7.864263
_cell_length_b 6.825257
_cell_length_c 38.356622
_cell_angle_alpha 90.000000
_cell_angle_beta 90.000000
_cell_angle_gamma 90.000000
_cell_volume 2058.815317
_symmetry_space_group_name_H-M "C C C M"
_symmetry_group_IT_number 66
_symmetry_cell_setting 'orthorhombic'
loop_
_space_group_symop_operation_xyz
x,y,z
-x,-y,z
x,-y,1/2-z
-x,y,1/2-z
-x,-y,-z
x,y,-z
-x,y,1/2+z
x,-y,1/2+z
1/2+x,1/2+y,z
1/2-x,1/2-y,z
1/2+x,1/2-y,1/2-z
1/2-x,1/2+y,1/2-z
1/2-x,1/2-y,-z
1/2+x,1/2+y,-z
1/2-x,1/2+y,1/2+z
1/2+x,1/2-y,1/2+z
loop_
_atom_site_type_symbol
_atom_site_label
_atom_site_fract_x
_atom_site_fract_y
_atom_site_fract_z
Si Si1 0.500000 0.000000 0.846519
Si Si2 0.947971 0.721387 0.500000
Si Si3 0.000000 0.000000 0.250000
Si Si4 0.250000 0.750000 0.607123
Si Si5 0.500000 0.500000 0.936497
Si Si6 0.750000 0.250000 0.201418
O O1 0.598161 0.841890 0.870163
O O2 0.359795 0.894728 0.822626
O O3 0.750000 0.750000 0.500000
O O4 0.000000 0.500000 0.500000
O O5 0.002029 0.821198 0.535964
O O6 0.880109 0.131541 0.225675
O O7 0.337349 0.565639 0.586525
#
# Coordination Sequence:
#
# PCOD9499839 Si02
#       6
#     8   8   4   8   8   8
#     4  12  26  45  68  99 144 182 226 282 336 404
#     4  11  24  43  70  95 135 174 222 315 350 411
#     4  12  24  42  76 102 136 180 224 282 334 402
#     4  12  26  44  70  98 136 189 230 280 342 423
#     4  11  26  43  66 103 130 177 244 284 358 417
#     4  12  24  45  68 104 138 176 228 276 340 396
#
# _framework density 21.371516
#
# number of rings (size 3 to 8) (size 9 to 14) (size 15 to 20)
#    0.000    0.364    0.000    8.727    7.636    2.909 
#    0.000    0.000    0.000    0.000    0.000    0.000 
#    0.000    0.000    0.000    0.000    0.000    0.000 
#
# Total GULP energy -122978.591146 kJ/mol
# GULP energy per Si atom -5589.935961 kJ/mol
# Density = 2.132287 g / cm^3
# Si number density = 21.371516 Si / 1000 Ang^3
#
#
#
# Elastic Constant Matrix: (Units=GPa)
#
#
# Indices 1 2 3 4 5 6 
#
# 1 126.4968 52.7258 63.6928 0.0000 0.0000 0.0000
# 2 52.7258 145.5912 57.9510 0.0000 0.0000 0.0000
# 3 63.6928 57.9510 116.1899 0.0000 0.0000 0.0000
# 4 0.0000 0.0000 0.0000 44.7453 0.0000 0.0000
# 5 0.0000 0.0000 0.0000 0.0000 -13.2213 0.0000
# 6 0.0000 0.0000 0.0000 0.0000 0.0000 68.4408
#
#
#
# Elastic Compliance Matrix: (Units=1/GPa)
#
#
# Indices 1 2 3 4 5 6 
#
# 1 0.011387 -0.002045 -0.005222 0.000000 0.000000 0.000000
# 2 -0.002045 0.008937 -0.003336 0.000000 0.000000 0.000000
# 3 -0.005222 -0.003336 0.013133 0.000000 0.000000 0.000000
# 4 0.000000 0.000000 0.000000 0.022349 0.000000 0.000000
# 5 0.000000 0.000000 0.000000 0.000000 -0.075635 0.000000
# 6 0.000000 0.000000 0.000000 0.000000 0.000000 0.014611
#
#
# Mechanical properties :
#
#
# Convention : Reuss Voigt Hill
#
# Bulk Modulus (GPa) = 81.63108 81.89080 81.76094
# Shear Modulus (GPa) = 249.08576 34.25349 141.66962
#
# Velocity S-wave (km/s) = 10.80756 4.00780 8.15064
# Velocity P-wave (km/s) = 13.92900 7.73418 11.26575
#
# Compressibility (1/GPa) = 0.01225024
#
# Stress axis : x y z
#
# Youngs Moduli (GPa) = 87.81736 111.89118 76.14211
#
# Poissons Ratio (x) = 0.22885 0.39763
# Poissons Ratio (y) = 0.17961 0.25404
# Poissons Ratio (z) = 0.45860 0.37331
#
# Static dielectric constant tensor:
#      x y z
#    x 1.749310 0.000000 0.000000 
#    y 0.000000 1.752030 0.000000 
#    z 0.000000 0.000000 1.089160 
# 
# From -- ./inp_files/67715.got.cif
#   From: 2010.05.17/outbox.cif.g08.bks.cpg/sg66_34_cif.got.tgz:67715.got - 2010.06.03 17:51:23.
