data_PCOD9499102
_publ_section_title
;
Structure prediction by ZEFSAII (Michael W. Deem and Ramdas Pophale) SiO2 
 PCOD9499102
Probable space group: C C C M
;
_chemical_formula_sum "Si O2"
_cell_formula_units_Z 52
_cell_length_a 13.250418
_cell_length_b 7.360722
_cell_length_c 19.343937
_cell_angle_alpha 90.000000
_cell_angle_beta 90.000000
_cell_angle_gamma 90.000000
_cell_volume 1886.665307
_symmetry_space_group_name_H-M "C C C M"
_symmetry_group_IT_number 66
_symmetry_cell_setting 'orthorhombic'
loop_
_space_group_symop_operation_xyz
x,y,z
-x,-y,z
x,-y,1/2-z
-x,y,1/2-z
-x,-y,-z
x,y,-z
-x,y,1/2+z
x,-y,1/2+z
1/2+x,1/2+y,z
1/2-x,1/2-y,z
1/2+x,1/2-y,1/2-z
1/2-x,1/2+y,1/2-z
1/2-x,1/2-y,-z
1/2+x,1/2+y,-z
1/2-x,1/2+y,1/2+z
1/2+x,1/2-y,1/2+z
loop_
_atom_site_type_symbol
_atom_site_label
_atom_site_fract_x
_atom_site_fract_y
_atom_site_fract_z
Si Si1 0.750000 0.250000 0.500000
Si Si2 0.361077 0.213936 0.243243
Si Si3 0.138929 0.817922 0.901524
Si Si4 0.921523 0.228457 0.596387
O O1 0.829427 0.330859 0.560465
O O2 0.250000 0.250000 0.214578
O O3 0.360065 0.307434 0.317686
O O4 0.428558 0.273604 0.179549
O O5 0.377308 0.000000 0.250000
O O6 0.250000 0.750000 0.923077
O O7 0.035355 0.719128 0.924100
O O8 0.113490 0.023565 0.923943
#
# Coordination Sequence:
#
# PCOD9499102 Si02
#       4
#     4  16  16  16
#     4  12  28  46  70  96 140 202 228 284 336 414
#     4  11  21  38  72 108 141 171 223 297 360 415
#     4  10  23  43  73 104 132 178 230 291 355 407
#     4  11  24  46  68  99 145 182 232 279 351 418
#
# _framework density 27.561857
#
# number of rings (size 3 to 8) (size 9 to 14) (size 15 to 20)
#    0.000    1.231    1.538    5.538    0.000    7.385 
#    0.000    4.615    0.000    0.000    0.000    0.000 
#    0.000    0.000    0.000    0.000    0.000    0.000 
#
# Total GULP energy -144816.736877 kJ/mol
# GULP energy per Si atom -5569.874495 kJ/mol
# Density = 2.749912 g / cm^3
# Si number density = 27.561857 Si / 1000 Ang^3
#
#
#
# Elastic Constant Matrix: (Units=GPa)
#
#
# Indices 1 2 3 4 5 6 
#
# 1 311.7568 18.5086 14.0434 0.0000 0.0000 0.0000
# 2 18.5086 95.0558 0.3702 0.0000 0.0000 0.0000
# 3 14.0434 0.3702 223.0421 0.0000 0.0000 0.0000
# 4 0.0000 0.0000 0.0000 -31.0507 0.0000 0.0000
# 5 0.0000 0.0000 0.0000 0.0000 7.1365 0.0000
# 6 0.0000 0.0000 0.0000 0.0000 0.0000 29.8862
#
#
#
# Elastic Compliance Matrix: (Units=1/GPa)
#
#
# Indices 1 2 3 4 5 6 
#
# 1 0.003254 -0.000633 -0.000204 0.000000 0.000000 0.000000
# 2 -0.000633 0.010643 0.000022 0.000000 0.000000 0.000000
# 3 -0.000204 0.000022 0.004496 0.000000 0.000000 0.000000
# 4 0.000000 0.000000 0.000000 -0.032205 0.000000 0.000000
# 5 0.000000 0.000000 0.000000 0.000000 0.140125 0.000000
# 6 0.000000 0.000000 0.000000 0.000000 0.000000 0.033460
#
#
# Mechanical properties :
#
#
# Convention : Reuss Voigt Hill
#
# Bulk Modulus (GPa) = 59.64871 77.29989 68.47430
# Shear Modulus (GPa) = 29.94165 40.98989 35.46577
#
# Velocity S-wave (km/s) = 3.29955 3.86060 3.59105
# Velocity P-wave (km/s) = 6.01704 6.92670 6.48783
#
# Compressibility (1/GPa) = 0.01676482
#
# Stress axis : x y z
#
# Youngs Moduli (GPa) = 307.27781 93.95602 222.40720
#
# Poissons Ratio (x) = 0.05946 0.04534
# Poissons Ratio (y) = 0.19447 -0.00493
# Poissons Ratio (z) = 0.06264 -0.00208
#
# Static dielectric constant tensor:
#      x y z
#    x 2.254120 0.000000 0.000000 
#    y 0.000000 2.258940 0.000000 
#    z 0.000000 0.000000 2.121390 
# 
# From -- ./inp_files/46279.got.cif
#   From: 2010.05.17/outbox.cif.g08.bks.cpg/sg66_24_cif.got.tgz:46279.got - 2010.06.03 17:51:23.
