data_PCOD9499258
_publ_section_title
;
Structure prediction by ZEFSAII (Michael W. Deem and Ramdas Pophale) SiO2 
 PCOD9499258
Probable space group: C C C M
;
_chemical_formula_sum "Si O2"
_cell_formula_units_Z 80
_cell_length_a 15.323805
_cell_length_b 10.615596
_cell_length_c 21.087633
_cell_angle_alpha 90.000000
_cell_angle_beta 90.000000
_cell_angle_gamma 90.000000
_cell_volume 3430.353160
_symmetry_space_group_name_H-M "C C C M"
_symmetry_group_IT_number 66
_symmetry_cell_setting 'orthorhombic'
loop_
_space_group_symop_operation_xyz
x,y,z
-x,-y,z
x,-y,1/2-z
-x,y,1/2-z
-x,-y,-z
x,y,-z
-x,y,1/2+z
x,-y,1/2+z
1/2+x,1/2+y,z
1/2-x,1/2-y,z
1/2+x,1/2-y,1/2-z
1/2-x,1/2+y,1/2-z
1/2-x,1/2-y,-z
1/2+x,1/2+y,-z
1/2-x,1/2+y,1/2+z
1/2+x,1/2-y,1/2+z
loop_
_atom_site_type_symbol
_atom_site_label
_atom_site_fract_x
_atom_site_fract_y
_atom_site_fract_z
Si Si1 0.342844 0.981556 0.374155
Si Si2 0.542644 0.365239 0.500000
Si Si3 0.253868 0.398165 0.000000
Si Si4 0.832645 0.037099 0.679251
Si Si5 0.348677 0.736222 0.836412
Si Si6 0.964121 0.746857 0.862631
O O1 0.297058 0.946069 0.439430
O O2 0.270600 0.939982 0.322462
O O3 0.426134 0.894121 0.362741
O O4 0.352703 0.131994 0.374223
O O5 0.500000 0.500000 0.500000
O O6 0.643171 0.410756 0.500000
O O7 0.518971 0.287150 0.563740
O O8 0.250000 0.250000 0.000000
O O9 0.888604 0.154773 0.657339
O O10 0.859362 0.000000 0.750000
O O11 0.844501 0.908046 0.638558
O O12 0.250000 0.750000 0.804747
O O13 0.451375 0.738029 0.817293
#
# Coordination Sequence:
#
# PCOD9499258 Si02
#       6
#    16   8   8  16  16  16
#     4  11  23  42  69 101 139 175 223 288 344 423
#     4  12  24  37  68 105 137 171 245 283 326 414
#     4  12  20  43  68 103 138 185 232 281 347 429
#     4  11  24  45  71  99 132 177 231 285 346 420
#     4  10  25  43  62  98 140 172 227 289 346 402
#     4  12  23  43  70  98 133 187 227 278 351 418
#
# _framework density 23.321213
#
# number of rings (size 3 to 8) (size 9 to 14) (size 15 to 20)
#    0.000    0.800    4.000    3.000    2.800    7.200 
#    0.000    8.000    0.000    7.200    0.000    0.000 
#    0.000    0.000    0.000    0.000    0.000    0.000 
#
# Total GULP energy -222755.556323 kJ/mol
# GULP energy per Si atom -5568.888908 kJ/mol
# Density = 2.326813 g / cm^3
# Si number density = 23.321213 Si / 1000 Ang^3
#
#
#
# Elastic Constant Matrix: (Units=GPa)
#
#
# Indices 1 2 3 4 5 6 
#
# 1 153.2703 46.1457 6.6570 0.0000 0.0000 0.0000
# 2 46.1457 176.5042 27.7951 0.0000 0.0000 0.0000
# 3 6.6570 27.7951 78.4718 0.0000 0.0000 0.0000
# 4 0.0000 0.0000 0.0000 9.8130 0.0000 0.0000
# 5 0.0000 0.0000 0.0000 0.0000 73.8701 0.0000
# 6 0.0000 0.0000 0.0000 0.0000 0.0000 58.1646
#
#
#
# Elastic Compliance Matrix: (Units=1/GPa)
#
#
# Indices 1 2 3 4 5 6 
#
# 1 0.007082 -0.001861 0.000058 0.000000 0.000000 0.000000
# 2 -0.001861 0.006489 -0.002141 0.000000 0.000000 0.000000
# 3 0.000058 -0.002141 0.013497 0.000000 0.000000 0.000000
# 4 0.000000 0.000000 0.000000 0.101905 0.000000 0.000000
# 5 0.000000 0.000000 0.000000 0.000000 0.013537 0.000000
# 6 0.000000 0.000000 0.000000 0.000000 0.000000 0.017193
#
#
# Mechanical properties :
#
#
# Convention : Reuss Voigt Hill
#
# Bulk Modulus (GPa) = 52.13276 63.27132 57.70204
# Shear Modulus (GPa) = 28.73840 50.21279 39.47559
#
# Velocity S-wave (km/s) = 3.51420 4.64518 4.11870
# Velocity P-wave (km/s) = 6.23449 7.48061 6.88580
#
# Compressibility (1/GPa) = 0.01918180
#
# Stress axis : x y z
#
# Youngs Moduli (GPa) = 141.20087 154.10306 74.09210
#
# Poissons Ratio (x) = 0.28675 -0.00432
# Poissons Ratio (y) = 0.26274 0.15860
# Poissons Ratio (z) = -0.00823 0.32988
#
# Static dielectric constant tensor:
#      x y z
#    x 1.915520 0.000000 0.000000 
#    y 0.000000 1.844240 0.000000 
#    z 0.000000 0.000000 1.912450 
# 
# From -- ./inp_files/57951.got.cif
#   From: 2010.05.17/outbox.cif.g08.bks.cpg/sg66_29_cif.got.tgz:57951.got - 2010.06.03 17:51:23.
