data_PCOD9499601
_publ_section_title
;
Structure prediction by ZEFSAII (Michael W. Deem and Ramdas Pophale) SiO2 
 PCOD9499601
Probable space group: C C C M
;
_chemical_formula_sum "Si O2"
_cell_formula_units_Z 64
_cell_length_a 11.602154
_cell_length_b 14.883736
_cell_length_c 16.190892
_cell_angle_alpha 90.000000
_cell_angle_beta 90.000000
_cell_angle_gamma 90.000000
_cell_volume 2795.898234
_symmetry_space_group_name_H-M "C C C M"
_symmetry_group_IT_number 66
_symmetry_cell_setting 'orthorhombic'
loop_
_space_group_symop_operation_xyz
x,y,z
-x,-y,z
x,-y,1/2-z
-x,y,1/2-z
-x,-y,-z
x,y,-z
-x,y,1/2+z
x,-y,1/2+z
1/2+x,1/2+y,z
1/2-x,1/2-y,z
1/2+x,1/2-y,1/2-z
1/2-x,1/2+y,1/2-z
1/2-x,1/2-y,-z
1/2+x,1/2+y,-z
1/2-x,1/2+y,1/2+z
1/2+x,1/2-y,1/2+z
loop_
_atom_site_type_symbol
_atom_site_label
_atom_site_fract_x
_atom_site_fract_y
_atom_site_fract_z
Si Si1 0.871466 0.464136 0.095616
Si Si2 0.871928 0.711365 0.294106
Si Si3 0.463122 0.637711 0.906019
Si Si4 0.661665 0.464625 0.657316
O O1 0.851916 0.385026 0.162155
O O2 0.789130 0.545716 0.123904
O O3 0.000000 0.500000 0.100233
O O4 0.848606 0.437316 0.000000
O O5 0.750000 0.750000 0.254533
O O6 0.893026 0.781974 0.367560
O O7 0.000000 0.706881 0.250000
O O8 0.578271 0.618849 0.853753
O O9 0.390267 0.546137 0.897226
O O10 0.493930 0.653782 0.000000
O O11 0.656755 0.500000 0.750000
#
# Coordination Sequence:
#
# PCOD9499601 Si02
#       4
#    16  16  16  16
#     4  11  26  45  68  99 138 182 227 278 348 419
#     4  12  27  45  71 101 139 180 235 287 348 410
#     4  11  22  40  68  99 133 174 226 283 338 400
#     4  11  22  38  67 100 138 172 224 280 338 404
#
# _framework density 22.890675999999999
#
# number of rings (size 3 to 8) (size 9 to 14) (size 15 to 20)
#    0.000    0.750    2.500    6.750    3.500    1.000 
#    0.000    0.000    0.000    6.000    0.000    0.000 
#    0.000    0.000    0.000    0.000    0.000    0.000 
#
# Total GULP energy -178809.560173 kJ/mol
# GULP energy per Si atom -5587.798755 kJ/mol
# Density = 2.283858 g / cm^3
# Si number density = 22.890676 Si / 1000 Ang^3
#
#
#
# Elastic Constant Matrix: (Units=GPa)
#
#
# Indices 1 2 3 4 5 6 
#
# 1 166.8217 7.9281 44.1105 0.0000 0.0000 0.0000
# 2 7.9281 45.4167 -4.7910 0.0000 0.0000 0.0000
# 3 44.1105 -4.7910 90.2256 0.0000 0.0000 0.0000
# 4 0.0000 0.0000 0.0000 20.1696 0.0000 0.0000
# 5 0.0000 0.0000 0.0000 0.0000 -68.9196 0.0000
# 6 0.0000 0.0000 0.0000 0.0000 0.0000 33.6842
#
#
#
# Elastic Compliance Matrix: (Units=1/GPa)
#
#
# Indices 1 2 3 4 5 6 
#
# 1 0.006997 -0.001591 -0.003505 0.000000 0.000000 0.000000
# 2 -0.001591 0.022504 0.001973 0.000000 0.000000 0.000000
# 3 -0.003505 0.001973 0.012902 0.000000 0.000000 0.000000
# 4 0.000000 0.000000 0.000000 0.049580 0.000000 0.000000
# 5 0.000000 0.000000 0.000000 0.000000 -0.014510 0.000000
# 6 0.000000 0.000000 0.000000 0.000000 0.000000 0.029688
#
#
# Mechanical properties :
#
#
# Convention : Reuss Voigt Hill
#
# Bulk Modulus (GPa) = 27.65801 44.10659 35.88230
# Shear Modulus (GPa) = 39.85356 14.00126 26.92741
#
# Velocity S-wave (km/s) = 4.17710 2.47585 3.43351
# Velocity P-wave (km/s) = 5.94753 5.24246 5.60609
#
# Compressibility (1/GPa) = 0.03615589
#
# Stress axis : x y z
#
# Youngs Moduli (GPa) = 142.92089 44.43610 77.50886
#
# Poissons Ratio (x) = 0.07070 0.27168
# Poissons Ratio (y) = 0.22741 -0.15292
# Poissons Ratio (z) = 0.50097 -0.08767
#
# Static dielectric constant tensor:
#      x y z
#    x 1.963710 0.000000 0.000000 
#    y 0.000000 1.813560 0.000000 
#    z 0.000000 0.000000 1.853850 
# 
# From -- ./inp_files/25743.got.cif
#   From: 2010.05.17/outbox.cif.g08.bks.cpg/sg66_13_cif.got.tgz:25743.got - 2010.06.03 17:51:23.
