data_PCOD9499770
_publ_section_title
;
Structure prediction by ZEFSAII (Michael W. Deem and Ramdas Pophale) SiO2 
 PCOD9499770
Probable space group: C C C M
;
_chemical_formula_sum "Si O2"
_cell_formula_units_Z 88
_cell_length_a 22.930544
_cell_length_b 14.675790
_cell_length_c 14.297120
_cell_angle_alpha 90.000000
_cell_angle_beta 90.000000
_cell_angle_gamma 90.000000
_cell_volume 4811.321842
_symmetry_space_group_name_H-M "C C C M"
_symmetry_group_IT_number 66
_symmetry_cell_setting 'orthorhombic'
loop_
_space_group_symop_operation_xyz
x,y,z
-x,-y,z
x,-y,1/2-z
-x,y,1/2-z
-x,-y,-z
x,y,-z
-x,y,1/2+z
x,-y,1/2+z
1/2+x,1/2+y,z
1/2-x,1/2-y,z
1/2+x,1/2-y,1/2-z
1/2-x,1/2+y,1/2-z
1/2-x,1/2-y,-z
1/2+x,1/2+y,-z
1/2-x,1/2+y,1/2+z
1/2+x,1/2-y,1/2+z
loop_
_atom_site_type_symbol
_atom_site_label
_atom_site_fract_x
_atom_site_fract_y
_atom_site_fract_z
Si Si1 0.042935 0.588810 0.000000
Si Si2 0.248775 0.141805 0.609997
Si Si3 0.050287 0.757116 0.500000
Si Si4 0.873026 0.584620 0.318648
Si Si5 0.123306 0.921801 0.822624
Si Si6 0.433413 0.522374 0.500000
Si Si7 0.566929 0.249796 0.280497
O O1 0.085204 0.581713 0.909756
O O2 0.000000 0.500000 0.000000
O O3 0.007099 0.686618 0.000000
O O4 0.252091 0.122627 0.500000
O O5 0.250000 0.250000 0.624007
O O6 0.304974 0.093811 0.655012
O O7 0.185715 0.114298 0.646155
O O8 0.062638 0.867596 0.500000
O O9 0.072437 0.740276 0.393131
O O10 0.883187 0.500000 0.250000
O O11 0.891675 0.674954 0.264403
O O12 0.085260 0.844960 0.769200
O O13 0.134744 0.000000 0.750000
O O14 0.093455 0.971467 0.910427
O O15 0.500000 0.500000 0.500000
O O16 0.500000 0.232523 0.250000
#
# Coordination Sequence:
#
# PCOD9499770 Si02
#       7
#     8  16   8  16  16   8  16
#     4  12  26  45  72 103 143 184 234 288 347 432
#     4  11  23  44  71  98 131 182 242 291 343 414
#     4  12  24  44  64 102 141 177 225 277 348 434
#     4  12  26  44  72 102 137 185 235 292 354 417
#     4  12  25  43  68  95 139 184 225 285 350 419
#     4  12  26  39  66 102 139 177 227 275 344 428
#     4  12  25  42  69 100 139 180 226 283 358 421
#
# _framework density 18.290192000000001
#
# number of rings (size 3 to 8) (size 9 to 14) (size 15 to 20)
#    0.000    0.182    7.273    2.727    0.000    0.000 
#    0.000    0.000    0.000    1.091    0.000    0.000 
#    0.000    0.000    0.000    0.000    0.000    0.000 
#
# Total GULP energy -245201.070035 kJ/mol
# GULP energy per Si atom -5572.751592 kJ/mol
# Density = 1.824856 g / cm^3
# Si number density = 18.290192 Si / 1000 Ang^3
#
#
#
# Elastic Constant Matrix: (Units=GPa)
#
#
# Indices 1 2 3 4 5 6 
#
# 1 121.5423 34.1584 49.0606 0.0000 0.0000 0.0000
# 2 34.1584 105.6886 26.3806 0.0000 0.0000 0.0000
# 3 49.0606 26.3806 159.2784 0.0000 0.0000 0.0000
# 4 0.0000 0.0000 0.0000 33.8591 0.0000 0.0000
# 5 0.0000 0.0000 0.0000 0.0000 33.2414 0.0000
# 6 0.0000 0.0000 0.0000 0.0000 0.0000 32.9044
#
#
#
# Elastic Compliance Matrix: (Units=1/GPa)
#
#
# Indices 1 2 3 4 5 6 
#
# 1 0.010026 -0.002576 -0.002661 0.000000 0.000000 0.000000
# 2 -0.002576 0.010532 -0.000951 0.000000 0.000000 0.000000
# 3 -0.002661 -0.000951 0.007256 0.000000 0.000000 0.000000
# 4 0.000000 0.000000 0.000000 0.029534 0.000000 0.000000
# 5 0.000000 0.000000 0.000000 0.000000 0.030083 0.000000
# 6 0.000000 0.000000 0.000000 0.000000 0.000000 0.030391
#
#
# Mechanical properties :
#
#
# Convention : Reuss Voigt Hill
#
# Bulk Modulus (GPa) = 64.78199 67.30095 66.04147
# Shear Modulus (GPa) = 36.94303 38.46162 37.70232
#
# Velocity S-wave (km/s) = 4.49912 4.59066 4.54512
# Velocity P-wave (km/s) = 7.90477 8.06071 7.98312
#
# Compressibility (1/GPa) = 0.01543639
#
# Stress axis : x y z
#
# Youngs Moduli (GPa) = 99.74191 94.95176 137.82471
#
# Poissons Ratio (x) = 0.24460 0.36682
# Poissons Ratio (y) = 0.25694 0.13105
# Poissons Ratio (z) = 0.26546 0.09029
#
# Static dielectric constant tensor:
#      x y z
#    x 1.615600 0.000000 0.000000 
#    y 0.000000 1.736880 0.000000 
#    z 0.000000 0.000000 1.580400 
# 
# From -- ./inp_files/19751.got.cif
#   From: 2010.05.17/outbox.cif.g08.bks.cpg/sg66_10_cif.got.tgz:19751.got - 2010.06.03 17:51:23.
