data_PCOD9499124
_publ_section_title
;
Structure prediction by ZEFSAII (Michael W. Deem and Ramdas Pophale) SiO2 
 PCOD9499124
Probable space group: C C C M
;
_chemical_formula_sum "Si O2"
_cell_formula_units_Z 116
_cell_length_a 9.434125
_cell_length_b 23.908131
_cell_length_c 27.213061
_cell_angle_alpha 90.000000
_cell_angle_beta 90.000000
_cell_angle_gamma 90.000000
_cell_volume 6137.968400
_symmetry_space_group_name_H-M "C C C M"
_symmetry_group_IT_number 66
_symmetry_cell_setting 'orthorhombic'
loop_
_space_group_symop_operation_xyz
x,y,z
-x,-y,z
x,-y,1/2-z
-x,y,1/2-z
-x,-y,-z
x,y,-z
-x,y,1/2+z
x,-y,1/2+z
1/2+x,1/2+y,z
1/2-x,1/2-y,z
1/2+x,1/2-y,1/2-z
1/2-x,1/2+y,1/2-z
1/2-x,1/2-y,-z
1/2+x,1/2+y,-z
1/2-x,1/2+y,1/2+z
1/2+x,1/2-y,1/2+z
loop_
_atom_site_type_symbol
_atom_site_label
_atom_site_fract_x
_atom_site_fract_y
_atom_site_fract_z
Si Si1 0.161787 0.617688 0.740428
Si Si2 0.482968 0.368578 0.364747
Si Si3 0.243218 0.550534 0.830048
Si Si4 0.000000 0.500000 0.000000
Si Si5 0.127252 0.208031 0.217607
Si Si6 0.553052 0.090285 0.918456
Si Si7 0.732502 0.923665 0.867169
Si Si8 0.769213 0.184170 0.943180
O O1 0.193610 0.564085 0.774784
O O2 0.281791 0.664306 0.750913
O O3 0.183606 0.606415 0.683027
O O4 0.000000 0.634620 0.750000
O O5 0.388810 0.415927 0.338029
O O6 0.548079 0.324199 0.326323
O O7 0.619342 0.400037 0.385943
O O8 0.384504 0.340464 0.405636
O O9 0.127725 0.577100 0.866697
O O10 0.251318 0.487256 0.848699
O O11 0.926913 0.459614 0.957204
O O12 0.250000 0.250000 0.199927
O O13 0.000000 0.233421 0.250000
O O14 0.386375 0.088789 0.907415
O O15 0.625326 0.147750 0.936237
O O16 0.750000 0.250000 0.933290
O O17 0.813758 0.177868 0.000000
#
# Coordination Sequence:
#
# PCOD9499124 Si02
#       8
#    16  16  16   4  16  16  16  16
#     4  11  22  36  58  90 126 163 210 253 300 372
#     4  10  24  41  60  90 126 158 210 256 315 374
#     4  11  20  39  58  88 126 168 203 247 311 379
#     4  12  20  40  62  92 130 156 212 276 314 374
#     4  11  23  41  60  86 123 168 213 259 311 369
#     4  11  22  38  64  93 123 162 212 257 318 375
#     4  11  22  36  61  93 126 163 202 256 314 376
#     4  10  23  45  69  90 119 165 214 263 321 386
#
# _framework density 18.898762000000001
#
# number of rings (size 3 to 8) (size 9 to 14) (size 15 to 20)
#    0.000    1.241    4.828    1.241    0.000    3.310 
#    1.241    1.379    0.000    5.379    0.000    0.000 
#    0.000    0.000    0.000    0.000    0.000    0.000 
#
# Total GULP energy -322893.330495 kJ/mol
# GULP energy per Si atom -5567.126388 kJ/mol
# Density = 1.885575 g / cm^3
# Si number density = 18.898762 Si / 1000 Ang^3
#
#
#
# Elastic Constant Matrix: (Units=GPa)
#
#
# Indices 1 2 3 4 5 6 
#
# 1 141.1235 51.9405 35.1399 0.0000 0.0000 0.0000
# 2 51.9405 107.4781 15.3894 0.0000 0.0000 0.0000
# 3 35.1399 15.3894 52.9535 0.0000 0.0000 0.0000
# 4 0.0000 0.0000 0.0000 23.3590 0.0000 0.0000
# 5 0.0000 0.0000 0.0000 0.0000 13.1898 0.0000
# 6 0.0000 0.0000 0.0000 0.0000 0.0000 31.9139
#
#
#
# Elastic Compliance Matrix: (Units=1/GPa)
#
#
# Indices 1 2 3 4 5 6 
#
# 1 0.009911 -0.004015 -0.005410 0.000000 0.000000 0.000000
# 2 -0.004015 0.011335 -0.000630 0.000000 0.000000 0.000000
# 3 -0.005410 -0.000630 0.022658 0.000000 0.000000 0.000000
# 4 0.000000 0.000000 0.000000 0.042810 0.000000 0.000000
# 5 0.000000 0.000000 0.000000 0.000000 0.075816 0.000000
# 6 0.000000 0.000000 0.000000 0.000000 0.000000 0.031334
#
#
# Mechanical properties :
#
#
# Convention : Reuss Voigt Hill
#
# Bulk Modulus (GPa) = 42.02801 56.27719 49.15260
# Shear Modulus (GPa) = 22.53224 26.96488 24.74856
#
# Velocity S-wave (km/s) = 3.45666 3.78141 3.62267
# Velocity P-wave (km/s) = 6.18208 6.99345 6.60024
#
# Compressibility (1/GPa) = 0.02379366
#
# Stress axis : x y z
#
# Youngs Moduli (GPa) = 100.90053 88.22496 44.13540
#
# Poissons Ratio (x) = 0.35421 0.23877
# Poissons Ratio (y) = 0.40511 0.02780
# Poissons Ratio (z) = 0.54587 0.05557
#
# Static dielectric constant tensor:
#      x y z
#    x 1.670650 0.000000 0.000000 
#    y 0.000000 1.698240 0.000000 
#    z 0.000000 0.000000 1.638050 
# 
# From -- ./inp_files/62906.got.cif
#   From: 2010.05.17/outbox.cif.g08.bks.cpg/sg66_32_cif.got.tgz:62906.got - 2010.06.03 17:51:23.
