data_PCOD9499298
_publ_section_title
;
Structure prediction by ZEFSAII (Michael W. Deem and Ramdas Pophale) SiO2 
 PCOD9499298
Probable space group: C C C M
;
_chemical_formula_sum "Si O2"
_cell_formula_units_Z 60
_cell_length_a 19.076032
_cell_length_b 5.309293
_cell_length_c 25.820547
_cell_angle_alpha 90.000000
_cell_angle_beta 90.000000
_cell_angle_gamma 90.000000
_cell_volume 2615.111279
_symmetry_space_group_name_H-M "C C C M"
_symmetry_group_IT_number 66
_symmetry_cell_setting 'orthorhombic'
loop_
_space_group_symop_operation_xyz
x,y,z
-x,-y,z
x,-y,1/2-z
-x,y,1/2-z
-x,-y,-z
x,y,-z
-x,y,1/2+z
x,-y,1/2+z
1/2+x,1/2+y,z
1/2-x,1/2-y,z
1/2+x,1/2-y,1/2-z
1/2-x,1/2+y,1/2-z
1/2-x,1/2-y,-z
1/2+x,1/2+y,-z
1/2-x,1/2+y,1/2+z
1/2+x,1/2-y,1/2+z
loop_
_atom_site_type_symbol
_atom_site_label
_atom_site_fract_x
_atom_site_fract_y
_atom_site_fract_z
Si Si1 0.168452 0.994603 0.058256
Si Si2 0.419422 0.987191 0.415444
Si Si3 0.250000 0.250000 0.359500
Si Si4 0.000000 0.000000 0.750000
Si Si5 0.891946 0.639120 0.303636
O O1 0.120599 0.240267 0.065110
O O2 0.120865 0.743701 0.068111
O O3 0.230461 0.972922 0.100377
O O4 0.196350 0.989010 0.000000
O O5 0.417964 0.978069 0.352595
O O6 0.500000 0.000000 0.432749
O O7 0.182454 0.263981 0.323609
O O8 0.950004 0.158376 0.787841
O O9 0.880191 0.500000 0.250000
#
# Coordination Sequence:
#
# PCOD9499298 Si02
#       5
#    16  16   8   4  16
#     4  11  25  46  71 105 148 197 250 309 373 439
#     4  11  25  43  73 107 148 194 249 308 372 442
#     4  10  27  46  74 108 150 196 251 308 378 450
#     4  12  26  48  76 106 150 198 246 304 386 444
#     4  11  27  44  74 107 147 194 245 306 374 452
#
# _framework density 22.943576
#
# number of rings (size 3 to 8) (size 9 to 14) (size 15 to 20)
#    0.000    1.067    0.000    4.000   16.800    7.467 
#    0.000    6.667    0.000    0.000    0.000    0.000 
#    0.000    0.000    0.000    0.000    0.000    0.000 
#
# Total GULP energy -167855.063534 kJ/mol
# GULP energy per Si atom -5595.168784 kJ/mol
# Density = 2.289136 g / cm^3
# Si number density = 22.943576 Si / 1000 Ang^3
#
#
#
# Elastic Constant Matrix: (Units=GPa)
#
#
# Indices 1 2 3 4 5 6 
#
# 1 168.7907 61.8025 53.5043 0.0000 0.0000 0.0000
# 2 61.8025 148.5351 52.0238 0.0000 0.0000 0.0000
# 3 53.5043 52.0238 176.6181 0.0000 0.0000 0.0000
# 4 0.0000 0.0000 0.0000 24.2714 0.0000 0.0000
# 5 0.0000 0.0000 0.0000 0.0000 14.4734 0.0000
# 6 0.0000 0.0000 0.0000 0.0000 0.0000 29.5505
#
#
#
# Elastic Compliance Matrix: (Units=1/GPa)
#
#
# Indices 1 2 3 4 5 6 
#
# 1 0.007317 -0.002529 -0.001472 0.000000 0.000000 0.000000
# 2 -0.002529 0.008381 -0.001703 0.000000 0.000000 0.000000
# 3 -0.001472 -0.001703 0.006609 0.000000 0.000000 0.000000
# 4 0.000000 0.000000 0.000000 0.041201 0.000000 0.000000
# 5 0.000000 0.000000 0.000000 0.000000 0.069092 0.000000
# 6 0.000000 0.000000 0.000000 0.000000 0.000000 0.033840
#
#
# Mechanical properties :
#
#
# Convention : Reuss Voigt Hill
#
# Bulk Modulus (GPa) = 91.73622 92.06723 91.90173
# Shear Modulus (GPa) = 27.55112 35.43327 31.49220
#
# Velocity S-wave (km/s) = 3.46905 3.93411 3.70887
# Velocity P-wave (km/s) = 7.49105 7.80071 7.64745
#
# Compressibility (1/GPa) = 0.01090082
#
# Stress axis : x y z
#
# Youngs Moduli (GPa) = 136.66830 119.31755 151.30320
#
# Poissons Ratio (x) = 0.30176 0.22267
# Poissons Ratio (y) = 0.34564 0.25760
# Poissons Ratio (z) = 0.20113 0.20314
#
# Static dielectric constant tensor:
#      x y z
#    x 1.748230 0.000000 0.000000 
#    y 0.000000 1.913470 0.000000 
#    z 0.000000 0.000000 1.826740 
# 
# From -- ./inp_files/59183.got.cif
#   From: 2010.05.17/outbox.cif.g08.bks.cpg/sg66_30_cif.got.tgz:59183.got - 2010.06.03 17:51:23.
