data_PCOD9499016
_publ_section_title
;
Structure prediction by ZEFSAII (Michael W. Deem and Ramdas Pophale) SiO2 
 PCOD9499016
Probable space group: C C C M
;
_chemical_formula_sum "Si O2"
_cell_formula_units_Z 64
_cell_length_a 17.281360
_cell_length_b 5.121761
_cell_length_c 31.631651
_cell_angle_alpha 90.000000
_cell_angle_beta 90.000000
_cell_angle_gamma 90.000000
_cell_volume 2799.748925
_symmetry_space_group_name_H-M "C C C M"
_symmetry_group_IT_number 66
_symmetry_cell_setting 'orthorhombic'
loop_
_space_group_symop_operation_xyz
x,y,z
-x,-y,z
x,-y,1/2-z
-x,y,1/2-z
-x,-y,-z
x,y,-z
-x,y,1/2+z
x,-y,1/2+z
1/2+x,1/2+y,z
1/2-x,1/2-y,z
1/2+x,1/2-y,1/2-z
1/2-x,1/2+y,1/2-z
1/2-x,1/2-y,-z
1/2+x,1/2+y,-z
1/2-x,1/2+y,1/2+z
1/2+x,1/2-y,1/2+z
loop_
_atom_site_type_symbol
_atom_site_label
_atom_site_fract_x
_atom_site_fract_y
_atom_site_fract_z
Si Si1 0.636915 0.415997 0.100686
Si Si2 0.250000 0.250000 0.153321
Si Si3 0.500000 0.500000 0.163860
Si Si4 0.591106 0.069404 0.450189
Si Si5 0.882314 0.255274 0.279297
O O1 0.712586 0.524016 0.124525
O O2 0.568330 0.384376 0.135144
O O3 0.639709 0.152467 0.073909
O O4 0.609199 0.651740 0.070265
O O5 0.181373 0.322013 0.185198
O O6 0.459673 0.297443 0.194742
O O7 0.607861 0.070949 0.500000
O O8 0.500000 0.000000 0.444896
O O9 0.889338 0.500000 0.250000
O O10 0.863633 0.000000 0.250000
#
# Coordination Sequence:
#
# PCOD9499016 Si02
#       5
#    16   8   8  16  16
#     4  11  23  42  66  99 134 173 225 270 336 397
#     4  10  26  44  69  96 134 184 218 278 335 420
#     4  10  23  40  65  96 128 168 220 288 327 386
#     4  11  22  40  68  99 133 173 220 277 335 394
#     4  11  25  43  67  95 132 174 227 277 346 402
#
# _framework density 22.859193000000001
#
# number of rings (size 3 to 8) (size 9 to 14) (size 15 to 20)
#    0.000    1.250    2.500    1.875    0.000   17.000 
#    0.000    3.750    0.000    1.500    0.000    0.000 
#    0.000    0.000    0.000    0.000    0.000    0.000 
#
# Total GULP energy -179292.418553 kJ/mol
# GULP energy per Si atom -5602.888080 kJ/mol
# Density = 2.280716 g / cm^3
# Si number density = 22.859193 Si / 1000 Ang^3
#
#
#
# Elastic Constant Matrix: (Units=GPa)
#
#
# Indices 1 2 3 4 5 6 
#
# 1 132.0391 45.5517 74.8224 0.0000 0.0000 0.0000
# 2 45.5517 82.7770 57.7932 0.0000 0.0000 0.0000
# 3 74.8224 57.7932 156.7685 0.0000 0.0000 0.0000
# 4 0.0000 0.0000 0.0000 37.5496 0.0000 0.0000
# 5 0.0000 0.0000 0.0000 0.0000 58.0128 0.0000
# 6 0.0000 0.0000 0.0000 0.0000 0.0000 20.8066
#
#
#
# Elastic Compliance Matrix: (Units=1/GPa)
#
#
# Indices 1 2 3 4 5 6 
#
# 1 0.010980 -0.003209 -0.004057 0.000000 0.000000 0.000000
# 2 -0.003209 0.017206 -0.004811 0.000000 0.000000 0.000000
# 3 -0.004057 -0.004811 0.010089 0.000000 0.000000 0.000000
# 4 0.000000 0.000000 0.000000 0.026631 0.000000 0.000000
# 5 0.000000 0.000000 0.000000 0.000000 0.017238 0.000000
# 6 0.000000 0.000000 0.000000 0.000000 0.000000 0.048062
#
#
# Mechanical properties :
#
#
# Convention : Reuss Voigt Hill
#
# Bulk Modulus (GPa) = 70.82739 80.87991 75.85365
# Shear Modulus (GPa) = 31.43319 36.16828 33.80074
#
# Velocity S-wave (km/s) = 3.71223 3.98203 3.84949
# Velocity P-wave (km/s) = 7.03034 7.52334 7.28101
#
# Compressibility (1/GPa) = 0.01411883
#
# Stress axis : x y z
#
# Youngs Moduli (GPa) = 91.07584 58.11972 99.11817
#
# Poissons Ratio (x) = 0.18653 0.40215
# Poissons Ratio (y) = 0.29230 0.47688
# Poissons Ratio (z) = 0.36952 0.27963
#
# Static dielectric constant tensor:
#      x y z
#    x 2.024110 0.000000 0.000000 
#    y 0.000000 2.008860 0.000000 
#    z 0.000000 0.000000 1.879940 
# 
# From -- ./inp_files/69803.got.cif
#   From: 2010.05.17/outbox.cif.g08.bks.cpg/sg66_35_cif.got.tgz:69803.got - 2010.06.03 17:51:23.
