data_PCOD9499517
_publ_section_title
;
Structure prediction by ZEFSAII (Michael W. Deem and Ramdas Pophale) SiO2 
 PCOD9499517
Probable space group: C C C M
;
_chemical_formula_sum "Si O2"
_cell_formula_units_Z 72
_cell_length_a 13.218271
_cell_length_b 15.264759
_cell_length_c 18.275969
_cell_angle_alpha 90.000000
_cell_angle_beta 90.000000
_cell_angle_gamma 90.000000
_cell_volume 3687.610274
_symmetry_space_group_name_H-M "C C C M"
_symmetry_group_IT_number 66
_symmetry_cell_setting 'orthorhombic'
loop_
_space_group_symop_operation_xyz
x,y,z
-x,-y,z
x,-y,1/2-z
-x,y,1/2-z
-x,-y,-z
x,y,-z
-x,y,1/2+z
x,-y,1/2+z
1/2+x,1/2+y,z
1/2-x,1/2-y,z
1/2+x,1/2-y,1/2-z
1/2-x,1/2+y,1/2-z
1/2-x,1/2-y,-z
1/2+x,1/2+y,-z
1/2-x,1/2+y,1/2+z
1/2+x,1/2-y,1/2+z
loop_
_atom_site_type_symbol
_atom_site_label
_atom_site_fract_x
_atom_site_fract_y
_atom_site_fract_z
Si Si1 0.880892 0.505583 0.000000
Si Si2 0.429488 0.417507 0.879878
Si Si3 0.595725 0.281264 0.913126
Si Si4 0.704605 0.886996 0.627612
Si Si5 0.694950 0.500000 0.750000
Si Si6 0.228598 0.852898 0.500000
O O1 0.836775 0.457439 0.929084
O O2 0.000000 0.500000 0.000000
O O3 0.837830 0.602641 0.000000
O O4 0.500000 0.500000 0.905514
O O5 0.503539 0.334429 0.878583
O O6 0.378029 0.447245 0.804805
O O7 0.338179 0.389359 0.932735
O O8 0.623984 0.191987 0.871503
O O9 0.693920 0.343379 0.905516
O O10 0.578364 0.264578 0.000000
O O11 0.736829 0.933839 0.702372
O O12 0.250000 0.750000 0.500000
#
# Coordination Sequence:
#
# PCOD9499517 Si02
#       6
#     8  16  16  16   8   8
#     4  12  24  44  73  92 133 192 236 283 343 432
#     4  12  24  43  75 105 140 182 236 290 361 423
#     4  11  21  39  77 106 126 173 239 300 337 410
#     4  11  23  43  68 100 139 180 236 283 349 423
#     4  12  25  44  67 104 146 194 219 288 369 436
#     4  12  27  45  67 111 142 174 234 321 348 392
#
# _framework density 19.524840999999999
#
# number of rings (size 3 to 8) (size 9 to 14) (size 15 to 20)
#    0.000    0.444    7.778    1.333    3.111    0.000 
#    4.000    0.556    9.778    0.000    0.000    0.000 
#    0.000    0.000    0.000    0.000    0.000    0.000 
#
# Total GULP energy -201205.756672 kJ/mol
# GULP energy per Si atom -5589.048796 kJ/mol
# Density = 1.948040 g / cm^3
# Si number density = 19.524841 Si / 1000 Ang^3
#
#
#
# Elastic Constant Matrix: (Units=GPa)
#
#
# Indices 1 2 3 4 5 6 
#
# 1 113.3796 83.8347 60.0719 0.0000 0.0000 0.0000
# 2 83.8347 157.0787 75.0903 0.0000 0.0000 0.0000
# 3 60.0719 75.0903 135.4264 0.0000 0.0000 0.0000
# 4 0.0000 0.0000 0.0000 25.4096 0.0000 0.0000
# 5 0.0000 0.0000 0.0000 0.0000 -3.6993 0.0000
# 6 0.0000 0.0000 0.0000 0.0000 0.0000 55.8439
#
#
#
# Elastic Compliance Matrix: (Units=1/GPa)
#
#
# Indices 1 2 3 4 5 6 
#
# 1 0.015475 -0.006773 -0.003109 0.000000 0.000000 0.000000
# 2 -0.006773 0.011627 -0.003442 0.000000 0.000000 0.000000
# 3 -0.003109 -0.003442 0.010672 0.000000 0.000000 0.000000
# 4 0.000000 0.000000 0.000000 0.039355 0.000000 0.000000
# 5 0.000000 0.000000 0.000000 0.000000 -0.270320 0.000000
# 6 0.000000 0.000000 0.000000 0.000000 0.000000 0.017907
#
#
# Mechanical properties :
#
#
# Convention : Reuss Voigt Hill
#
# Bulk Modulus (GPa) = 89.88728 93.76427 91.82577
# Shear Modulus (GPa) = -34.50018 27.97002 -3.26508
#
# Velocity S-wave (km/s) = -4.20812 3.78899 -1.29457
# Velocity P-wave (km/s) = 4.74619 8.20178 6.70058
#
# Compressibility (1/GPa) = 0.01112505
#
# Stress axis : x y z
#
# Youngs Moduli (GPa) = 64.61906 86.00903 93.70492
#
# Poissons Ratio (x) = 0.58255 0.29132
# Poissons Ratio (y) = 0.43767 0.32256
# Poissons Ratio (z) = 0.20090 0.29607
#
# Static dielectric constant tensor:
#      x y z
#    x 1.687510 0.000000 0.000000 
#    y 0.000000 1.697990 0.000000 
#    z 0.000000 0.000000 1.671380 
# 
# From -- ./inp_files/40083.got.cif
#   From: 2010.05.17/outbox.cif.g08.bks.cpg/sg66_21_cif.got.tgz:40083.got - 2010.06.03 17:51:23.
