data_PCOD9499060
_publ_section_title
;
Structure prediction by ZEFSAII (Michael W. Deem and Ramdas Pophale) SiO2 
 PCOD9499060
Probable space group: C C C M
;
_chemical_formula_sum "Si O2"
_cell_formula_units_Z 64
_cell_length_a 35.332374
_cell_length_b 7.108449
_cell_length_c 11.287457
_cell_angle_alpha 90.000000
_cell_angle_beta 90.000000
_cell_angle_gamma 90.000000
_cell_volume 2834.939399
_symmetry_space_group_name_H-M "C C C M"
_symmetry_group_IT_number 66
_symmetry_cell_setting 'orthorhombic'
loop_
_space_group_symop_operation_xyz
x,y,z
-x,-y,z
x,-y,1/2-z
-x,y,1/2-z
-x,-y,-z
x,y,-z
-x,y,1/2+z
x,-y,1/2+z
1/2+x,1/2+y,z
1/2-x,1/2-y,z
1/2+x,1/2-y,1/2-z
1/2-x,1/2+y,1/2-z
1/2-x,1/2-y,-z
1/2+x,1/2+y,-z
1/2-x,1/2+y,1/2+z
1/2+x,1/2-y,1/2+z
loop_
_atom_site_type_symbol
_atom_site_label
_atom_site_fract_x
_atom_site_fract_y
_atom_site_fract_z
Si Si1 0.512637 0.781366 0.874926
Si Si2 0.602505 0.730030 0.874067
Si Si3 0.369914 0.296960 0.627525
Si Si4 0.288765 0.865869 0.865596
O O1 0.500000 0.700068 0.750000
O O2 0.557626 0.757310 0.877389
O O3 0.500000 0.000000 0.873572
O O4 0.496710 0.705709 0.000000
O O5 0.615233 0.799625 0.745938
O O6 0.615362 0.511226 0.872815
O O7 0.618165 0.804919 0.000000
O O8 0.382645 0.218364 0.500000
O O9 0.324708 0.274577 0.634536
O O10 0.250000 0.750000 0.855109
O O11 0.292047 0.000000 0.750000
O O12 0.288897 0.954821 0.000000
#
# Coordination Sequence:
#
# PCOD9499060 Si02
#       4
#    16  16  16  16
#     4   9  18  34  55  83 119 157 199 250 310 377
#     4   9  18  34  60  89 117 157 205 254 310 374
#     4   9  19  37  59  87 122 159 205 258 308 369
#     4  10  23  42  65  96 132 171 216 267 322 383
#
# _framework density 22.575437999999998
#
# number of rings (size 3 to 8) (size 9 to 14) (size 15 to 20)
#    0.000    2.750    0.000    0.000    3.500    2.500 
#    4.500    2.500    0.000   13.500    0.000    0.000 
#    0.000    0.000    0.000    0.000    0.000    0.000 
#
# Total GULP energy -178246.734061 kJ/mol
# GULP energy per Si atom -5570.210439 kJ/mol
# Density = 2.252406 g / cm^3
# Si number density = 22.575438 Si / 1000 Ang^3
#
#
#
# Elastic Constant Matrix: (Units=GPa)
#
#
# Indices 1 2 3 4 5 6 
#
# 1 106.9594 37.1588 58.1996 0.0000 0.0000 0.0000
# 2 37.1588 143.3100 35.8129 0.0000 0.0000 0.0000
# 3 58.1996 35.8129 297.4375 0.0000 0.0000 0.0000
# 4 0.0000 0.0000 0.0000 -40.7791 0.0000 0.0000
# 5 0.0000 0.0000 0.0000 0.0000 39.6648 0.0000
# 6 0.0000 0.0000 0.0000 0.0000 0.0000 34.5384
#
#
#
# Elastic Compliance Matrix: (Units=1/GPa)
#
#
# Indices 1 2 3 4 5 6 
#
# 1 0.011232 -0.002436 -0.001904 0.000000 0.000000 0.000000
# 2 -0.002436 0.007723 -0.000453 0.000000 0.000000 0.000000
# 3 -0.001904 -0.000453 0.003789 0.000000 0.000000 0.000000
# 4 0.000000 0.000000 0.000000 -0.024522 0.000000 0.000000
# 5 0.000000 0.000000 0.000000 0.000000 0.025211 0.000000
# 6 0.000000 0.000000 0.000000 0.000000 0.000000 0.028953
#
#
# Mechanical properties :
#
#
# Convention : Reuss Voigt Hill
#
# Bulk Modulus (GPa) = 76.00997 90.00551 83.00774
# Shear Modulus (GPa) = 75.34685 34.45383 54.90034
#
# Velocity S-wave (km/s) = 5.78343 3.91085 4.93674
# Velocity P-wave (km/s) = 8.85098 7.76842 8.32731
#
# Compressibility (1/GPa) = 0.01315617
#
# Stress axis : x y z
#
# Youngs Moduli (GPa) = 89.03104 129.48564 263.90467
#
# Poissons Ratio (x) = 0.31548 0.50258
# Poissons Ratio (y) = 0.21692 0.11958
# Poissons Ratio (z) = 0.16955 0.05867
#
# Static dielectric constant tensor:
#      x y z
#    x 1.788670 0.000000 0.000000 
#    y 0.000000 1.759470 0.000000 
#    z 0.000000 0.000000 1.967150 
# 
# From -- ./inp_files/21114.got.cif
#   From: 2010.05.17/outbox.cif.g08.bks.cpg/sg66_11_cif.got.tgz:21114.got - 2010.06.03 17:51:23.
