data_PCOD9499449
_publ_section_title
;
Structure prediction by ZEFSAII (Michael W. Deem and Ramdas Pophale) SiO2 
 PCOD9499449
Probable space group: C C C M
;
_chemical_formula_sum "Si O2"
_cell_formula_units_Z 80
_cell_length_a 32.659138
_cell_length_b 18.633747
_cell_length_c 8.816130
_cell_angle_alpha 90.000000
_cell_angle_beta 90.000000
_cell_angle_gamma 90.000000
_cell_volume 5365.162717
_symmetry_space_group_name_H-M "C C C M"
_symmetry_group_IT_number 66
_symmetry_cell_setting 'orthorhombic'
loop_
_space_group_symop_operation_xyz
x,y,z
-x,-y,z
x,-y,1/2-z
-x,y,1/2-z
-x,-y,-z
x,y,-z
-x,y,1/2+z
x,-y,1/2+z
1/2+x,1/2+y,z
1/2-x,1/2-y,z
1/2+x,1/2-y,1/2-z
1/2-x,1/2+y,1/2-z
1/2-x,1/2-y,-z
1/2+x,1/2+y,-z
1/2-x,1/2+y,1/2+z
1/2+x,1/2-y,1/2+z
loop_
_atom_site_type_symbol
_atom_site_label
_atom_site_fract_x
_atom_site_fract_y
_atom_site_fract_z
Si Si1 0.617389 0.835001 0.321058
Si Si2 0.207701 0.356238 0.679433
Si Si3 0.713165 0.424496 0.318556
Si Si4 0.956511 0.420895 0.681048
Si Si5 0.328683 0.277216 0.181461
O O1 0.608806 0.831991 0.500000
O O2 0.660071 0.879764 0.300542
O O3 0.580211 0.869670 0.232162
O O4 0.630934 0.756820 0.258273
O O5 0.215340 0.349736 0.500000
O O6 0.241889 0.404866 0.754885
O O7 0.205850 0.277948 0.757565
O O8 0.699742 0.500000 0.250000
O O9 0.715047 0.428853 0.500000
O O10 0.683795 0.357707 0.277184
O O11 0.948896 0.500000 0.750000
O O12 0.959310 0.425611 0.500000
O O13 0.000000 0.396522 0.750000
O O14 0.331450 0.271596 0.000000
#
# Coordination Sequence:
#
# PCOD9499449 Si02
#       5
#    16  16  16  16  16
#     4   9  19  33  50  70  91 122 158 193 231 278
#     4   9  19  32  49  67  90 122 157 196 235 278
#     4  11  22  32  46  66  93 123 158 198 238 281
#     4  11  21  34  52  72  99 128 155 191 230 275
#     4   9  18  33  49  67  89 120 157 195 236 277
#
# _framework density 14.911009999999999
#
# number of rings (size 3 to 8) (size 9 to 14) (size 15 to 20)
#    1.200    1.000    0.000    4.800    0.000    6.400 
#    0.000    0.000    0.000    0.000    0.000    0.000 
#    0.000    0.800    0.000    8.400    0.000    4.600 
#
# Total GULP energy -222683.017427 kJ/mol
# GULP energy per Si atom -5567.075436 kJ/mol
# Density = 1.487707 g / cm^3
# Si number density = 14.911010 Si / 1000 Ang^3
#
#
#
# Elastic Constant Matrix: (Units=GPa)
#
#
# Indices 1 2 3 4 5 6 
#
# 1 84.2180 51.3617 53.8317 0.0000 0.0000 0.0000
# 2 51.3617 62.7526 33.8039 0.0000 0.0000 0.0000
# 3 53.8317 33.8039 99.1723 0.0000 0.0000 0.0000
# 4 0.0000 0.0000 0.0000 24.5728 0.0000 0.0000
# 5 0.0000 0.0000 0.0000 0.0000 31.0945 0.0000
# 6 0.0000 0.0000 0.0000 0.0000 0.0000 95.5173
#
#
#
# Elastic Compliance Matrix: (Units=1/GPa)
#
#
# Indices 1 2 3 4 5 6 
#
# 1 0.029652 -0.019108 -0.009582 0.000000 0.000000 0.000000
# 2 -0.019108 0.031833 -0.000479 0.000000 0.000000 0.000000
# 3 -0.009582 -0.000479 0.015448 0.000000 0.000000 0.000000
# 4 0.000000 0.000000 0.000000 0.040695 0.000000 0.000000
# 5 0.000000 0.000000 0.000000 0.000000 0.032160 0.000000
# 6 0.000000 0.000000 0.000000 0.000000 0.000000 0.010469
#
#
# Mechanical properties :
#
#
# Convention : Reuss Voigt Hill
#
# Bulk Modulus (GPa) = 53.77700 58.23752 56.00726
# Shear Modulus (GPa) = 22.24259 37.37994 29.81127
#
# Velocity S-wave (km/s) = 3.86643 5.01230 4.47618
# Velocity P-wave (km/s) = 7.48839 8.52285 8.02231
#
# Compressibility (1/GPa) = 0.01859531
#
# Stress axis : x y z
#
# Youngs Moduli (GPa) = 33.72428 31.41413 64.73315
#
# Poissons Ratio (x) = 0.60026 0.62030
# Poissons Ratio (y) = 0.64440 0.03098
# Poissons Ratio (z) = 0.32316 0.01504
#
# Static dielectric constant tensor:
#      x y z
#    x 1.493650 0.000000 0.000000 
#    y 0.000000 1.495830 0.000000 
#    z 0.000000 0.000000 1.493080 
# 
# From -- ./inp_files/11360.got.cif
#   From: 2010.05.17/outbox.cif.g08.bks.cpg/sg66_6_cif.got.tgz:11360.got - 2010.06.03 17:51:23.
