data_PCOD9499590
_publ_section_title
;
Structure prediction by ZEFSAII (Michael W. Deem and Ramdas Pophale) SiO2 
 PCOD9499590
Probable space group: C C C M
;
_chemical_formula_sum "Si O2"
_cell_formula_units_Z 56
_cell_length_a 11.365856
_cell_length_b 9.515510
_cell_length_c 23.948808
_cell_angle_alpha 90.000000
_cell_angle_beta 90.000000
_cell_angle_gamma 90.000000
_cell_volume 2590.109481
_symmetry_space_group_name_H-M "C C C M"
_symmetry_group_IT_number 66
_symmetry_cell_setting 'orthorhombic'
loop_
_space_group_symop_operation_xyz
x,y,z
-x,-y,z
x,-y,1/2-z
-x,y,1/2-z
-x,-y,-z
x,y,-z
-x,y,1/2+z
x,-y,1/2+z
1/2+x,1/2+y,z
1/2-x,1/2-y,z
1/2+x,1/2-y,1/2-z
1/2-x,1/2+y,1/2-z
1/2-x,1/2-y,-z
1/2+x,1/2+y,-z
1/2-x,1/2+y,1/2+z
1/2+x,1/2-y,1/2+z
loop_
_atom_site_type_symbol
_atom_site_label
_atom_site_fract_x
_atom_site_fract_y
_atom_site_fract_z
Si Si1 0.134651 0.663902 0.732336
Si Si2 0.147878 0.639134 0.500000
Si Si3 0.931369 0.847872 0.500000
Si Si4 0.250000 0.250000 0.594815
Si Si5 0.136847 0.524443 0.378583
O O1 0.140382 0.500000 0.750000
O O2 0.250000 0.750000 0.751865
O O3 0.153095 0.649186 0.665210
O O4 0.000000 0.711868 0.750000
O O5 0.250000 0.750000 0.500000
O O6 0.161320 0.554709 0.443249
O O7 0.026818 0.723766 0.500000
O O8 0.850314 0.817113 0.554258
O O9 0.000000 0.000000 0.500000
O O10 0.201749 0.377703 0.631792
O O11 0.000000 0.500000 0.374230
#
# Coordination Sequence:
#
# PCOD9499590 Si02
#       5
#    16   8   8   8  16
#     4  11  26  49  76 105 141 184 239 299 359 427
#     4  12  23  40  66  97 143 183 225 284 347 419
#     4  11  22  38  59  98 139 184 235 274 338 414
#     4  11  24  40  64  96 138 176 226 289 336 404
#     4  12  23  44  69  99 138 185 227 285 355 419
#
# _framework density 21.620706999999999
#
# number of rings (size 3 to 8) (size 9 to 14) (size 15 to 20)
#    0.000    0.571    5.714    4.714    2.000    0.571 
#    0.000    0.000    0.000    0.000    0.000    0.000 
#    0.000    0.000    0.000    0.000    0.000    0.000 
#
# Total GULP energy -156226.755798 kJ/mol
# GULP energy per Si atom -5579.526993 kJ/mol
# Density = 2.157150 g / cm^3
# Si number density = 21.620707 Si / 1000 Ang^3
#
#
#
# Elastic Constant Matrix: (Units=GPa)
#
#
# Indices 1 2 3 4 5 6 
#
# 1 172.8894 74.3315 39.7482 0.0000 0.0000 0.0000
# 2 74.3315 85.5213 34.4458 0.0000 0.0000 0.0000
# 3 39.7482 34.4458 119.9346 0.0000 0.0000 0.0000
# 4 0.0000 0.0000 0.0000 28.2134 0.0000 0.0000
# 5 0.0000 0.0000 0.0000 0.0000 -219.9385 0.0000
# 6 0.0000 0.0000 0.0000 0.0000 0.0000 65.7480
#
#
#
# Elastic Compliance Matrix: (Units=1/GPa)
#
#
# Indices 1 2 3 4 5 6 
#
# 1 0.009313 -0.007748 -0.000861 0.000000 0.000000 0.000000
# 2 -0.007748 0.019668 -0.003081 0.000000 0.000000 0.000000
# 3 -0.000861 -0.003081 0.009508 0.000000 0.000000 0.000000
# 4 0.000000 0.000000 0.000000 0.035444 0.000000 0.000000
# 5 0.000000 0.000000 0.000000 0.000000 -0.004547 0.000000
# 6 0.000000 0.000000 0.000000 0.000000 0.000000 0.015210
#
#
# Mechanical properties :
#
#
# Convention : Reuss Voigt Hill
#
# Bulk Modulus (GPa) = 66.18486 75.04402 70.61444
# Shear Modulus (GPa) = 44.24293 -9.87410 17.18441
#
# Velocity S-wave (km/s) = 4.52854 -2.13936 2.82230
# Velocity P-wave (km/s) = 7.61720 5.35557 6.58422
#
# Compressibility (1/GPa) = 0.01510919
#
# Stress axis : x y z
#
# Youngs Moduli (GPa) = 107.37628 50.84444 105.17204
#
# Poissons Ratio (x) = 0.39392 0.09059
# Poissons Ratio (y) = 0.83191 0.32404
# Poissons Ratio (z) = 0.09249 0.15665
#
# Static dielectric constant tensor:
#      x y z
#    x 1.799600 0.000000 0.000000 
#    y 0.000000 1.774430 0.000000 
#    z 0.000000 0.000000 1.793970 
# 
# From -- ./inp_files/63239.got.cif
#   From: 2010.05.17/outbox.cif.g08.bks.cpg/sg66_32_cif.got.tgz:63239.got - 2010.06.03 17:51:23.
