data_PCOD9499324
_publ_section_title
;
Structure prediction by ZEFSAII (Michael W. Deem and Ramdas Pophale) SiO2 
 PCOD9499324
Probable space group: C C C M
;
_chemical_formula_sum "Si O2"
_cell_formula_units_Z 88
_cell_length_a 7.219184
_cell_length_b 31.593643
_cell_length_c 14.648563
_cell_angle_alpha 90.000000
_cell_angle_beta 90.000000
_cell_angle_gamma 90.000000
_cell_volume 3341.048967
_symmetry_space_group_name_H-M "C C C M"
_symmetry_group_IT_number 66
_symmetry_cell_setting 'orthorhombic'
loop_
_space_group_symop_operation_xyz
x,y,z
-x,-y,z
x,-y,1/2-z
-x,y,1/2-z
-x,-y,-z
x,y,-z
-x,y,1/2+z
x,-y,1/2+z
1/2+x,1/2+y,z
1/2-x,1/2-y,z
1/2+x,1/2-y,1/2-z
1/2-x,1/2+y,1/2-z
1/2-x,1/2-y,-z
1/2+x,1/2+y,-z
1/2-x,1/2+y,1/2+z
1/2+x,1/2-y,1/2+z
loop_
_atom_site_type_symbol
_atom_site_label
_atom_site_fract_x
_atom_site_fract_y
_atom_site_fract_z
Si Si1 0.003009 0.257403 0.500000
Si Si2 0.278635 0.008353 0.356731
Si Si3 0.697146 0.896118 0.363230
Si Si4 0.869923 0.059829 0.500000
Si Si5 0.165183 0.709413 0.312666
Si Si6 0.169601 0.826387 0.000000
Si Si7 0.758665 0.619239 0.153877
O O1 0.999459 0.206077 0.500000
O O2 0.180276 0.288473 0.500000
O O3 0.911859 0.271869 0.405899
O O4 0.250976 0.056282 0.393380
O O5 0.500000 0.000000 0.364023
O O6 0.231912 0.000000 0.250000
O O7 0.174673 0.975723 0.420491
O O8 0.790207 0.857029 0.414766
O O9 0.746939 0.897530 0.256719
O O10 0.474595 0.889042 0.375986
O O11 0.865409 0.096573 0.419891
O O12 0.250000 0.750000 0.261495
O O13 0.284993 0.668753 0.335555
O O14 0.000000 0.692133 0.250000
#
# Coordination Sequence:
#
# PCOD9499324 Si02
#       7
#     8  16  16   8  16   8  16
#     4  11  24  42  60  90 125 161 224 271 322 383
#     4  11  19  29  44  75 117 163 207 254 315 393
#     4  11  19  34  49  81 118 164 207 261 313 396
#     4  12  20  29  50  76 115 175 199 248 322 383
#     4  12  26  43  68  95 129 172 219 273 328 385
#     4  11  22  35  64  82 117 172 218 261 319 384
#     4  11  20  33  53  80 120 159 209 250 321 385
#
# _framework density 26.339030999999999
#
# number of rings (size 3 to 8) (size 9 to 14) (size 15 to 20)
#    0.000    0.727    7.273    3.273    5.091    0.000 
#    0.000    0.000    0.000    0.000    0.000    0.000 
#    0.000   11.636    2.909    0.364    0.000    0.000 
#
# Total GULP energy -245589.822300 kJ/mol
# GULP energy per Si atom -5581.586870 kJ/mol
# Density = 2.627908 g / cm^3
# Si number density = 26.339031 Si / 1000 Ang^3
#
#
#
# Elastic Constant Matrix: (Units=GPa)
#
#
# Indices 1 2 3 4 5 6 
#
# 1 63.1022 21.0265 18.8424 0.0000 0.0000 0.0000
# 2 21.0265 249.5783 34.0509 0.0000 0.0000 0.0000
# 3 18.8424 34.0509 148.7410 0.0000 0.0000 0.0000
# 4 0.0000 0.0000 0.0000 28.4510 0.0000 0.0000
# 5 0.0000 0.0000 0.0000 0.0000 -2.2829 0.0000
# 6 0.0000 0.0000 0.0000 0.0000 0.0000 38.6378
#
#
#
# Elastic Compliance Matrix: (Units=1/GPa)
#
#
# Indices 1 2 3 4 5 6 
#
# 1 0.016790 -0.001161 -0.001861 0.000000 0.000000 0.000000
# 2 -0.001161 0.004216 -0.000818 0.000000 0.000000 0.000000
# 3 -0.001861 -0.000818 0.007146 0.000000 0.000000 0.000000
# 4 0.000000 0.000000 0.000000 0.035148 0.000000 0.000000
# 5 0.000000 0.000000 0.000000 0.000000 -0.438040 0.000000
# 6 0.000000 0.000000 0.000000 0.000000 0.000000 0.025881
#
#
# Mechanical properties :
#
#
# Convention : Reuss Voigt Hill
#
# Bulk Modulus (GPa) = 48.84680 67.69570 58.27125
# Shear Modulus (GPa) = -14.95420 38.79461 11.92020
#
# Velocity S-wave (km/s) = -2.38535 3.84199 2.12967
# Velocity P-wave (km/s) = 3.31649 6.74082 5.31215
#
# Compressibility (1/GPa) = 0.02047217
#
# Stress axis : x y z
#
# Youngs Moduli (GPa) = 59.55997 237.18261 139.93488
#
# Poissons Ratio (x) = 0.27527 0.26045
# Poissons Ratio (y) = 0.06912 0.11449
# Poissons Ratio (z) = 0.11086 0.19406
#
# Static dielectric constant tensor:
#      x y z
#    x 2.732970 0.000000 0.000000 
#    y 0.000000 2.084130 0.000000 
#    z 0.000000 0.000000 1.976710 
# 
# From -- ./inp_files/26804.got.cif
#   From: 2010.05.17/outbox.cif.g08.bks.cpg/sg66_14_cif.got.tgz:26804.got - 2010.06.03 17:51:23.
