data_PCOD9499177
_publ_section_title
;
Structure prediction by ZEFSAII (Michael W. Deem and Ramdas Pophale) SiO2 
 PCOD9499177
Probable space group: C C C M
;
_chemical_formula_sum "Si O2"
_cell_formula_units_Z 56
_cell_length_a 5.039648
_cell_length_b 27.188928
_cell_length_c 16.781013
_cell_angle_alpha 90.000000
_cell_angle_beta 90.000000
_cell_angle_gamma 90.000000
_cell_volume 2299.378479
_symmetry_space_group_name_H-M "C C C M"
_symmetry_group_IT_number 66
_symmetry_cell_setting 'orthorhombic'
loop_
_space_group_symop_operation_xyz
x,y,z
-x,-y,z
x,-y,1/2-z
-x,y,1/2-z
-x,-y,-z
x,y,-z
-x,y,1/2+z
x,-y,1/2+z
1/2+x,1/2+y,z
1/2-x,1/2-y,z
1/2+x,1/2-y,1/2-z
1/2-x,1/2+y,1/2-z
1/2-x,1/2-y,-z
1/2+x,1/2+y,-z
1/2-x,1/2+y,1/2+z
1/2+x,1/2-y,1/2+z
loop_
_atom_site_type_symbol
_atom_site_label
_atom_site_fract_x
_atom_site_fract_y
_atom_site_fract_z
Si Si1 0.501842 0.714580 0.500000
Si Si2 0.543921 0.444316 0.407192
Si Si3 0.667909 0.307328 0.329984
Si Si4 0.956121 0.602637 0.338799
O O1 0.250000 0.750000 0.500000
O O2 0.483298 0.687405 0.415118
O O3 0.750000 0.750000 0.500000
O O4 0.500000 0.500000 0.378725
O O5 0.474797 0.442369 0.500000
O O6 0.844917 0.427413 0.395257
O O7 0.343740 0.408453 0.361556
O O8 0.500000 0.319578 0.250000
O O9 0.750000 0.250000 0.322094
O O10 0.926730 0.341960 0.337989
O O11 0.000000 0.583432 0.250000
#
# Coordination Sequence:
#
# PCOD9499177 Si02
#       4
#     8  16  16  16
#     4  10  24  42  66 102 137 196 266 306 369 440
#     4  11  26  48  75 105 144 191 241 308 389 456
#     4  11  24  45  72 106 154 208 255 314 376 449
#     4  12  26  45  72 110 144 190 251 303 377 449
#
# _framework density 24.354407999999999
#
# number of rings (size 3 to 8) (size 9 to 14) (size 15 to 20)
#    0.000    0.857    0.000    6.000    4.000   12.571 
#    0.000    0.000    0.000    0.000    0.000    0.000 
#    0.000    0.000    0.000    0.000    0.000    0.000 
#
# Total GULP energy -156871.346918 kJ/mol
# GULP energy per Si atom -5602.548104 kJ/mol
# Density = 2.429898 g / cm^3
# Si number density = 24.354408 Si / 1000 Ang^3
#
#
#
# Elastic Constant Matrix: (Units=GPa)
#
#
# Indices 1 2 3 4 5 6 
#
# 1 79.6594 5.9482 34.8762 0.0000 0.0000 0.0000
# 2 5.9482 127.8793 33.2254 0.0000 0.0000 0.0000
# 3 34.8762 33.2254 171.8267 0.0000 0.0000 0.0000
# 4 0.0000 0.0000 0.0000 28.3772 0.0000 0.0000
# 5 0.0000 0.0000 0.0000 0.0000 52.8241 0.0000
# 6 0.0000 0.0000 0.0000 0.0000 0.0000 23.4712
#
#
#
# Elastic Compliance Matrix: (Units=1/GPa)
#
#
# Indices 1 2 3 4 5 6 
#
# 1 0.013779 0.000090 -0.002814 0.000000 0.000000 0.000000
# 2 0.000090 0.008234 -0.001611 0.000000 0.000000 0.000000
# 3 -0.002814 -0.001611 0.006702 0.000000 0.000000 0.000000
# 4 0.000000 0.000000 0.000000 0.035240 0.000000 0.000000
# 5 0.000000 0.000000 0.000000 0.000000 0.018931 0.000000
# 6 0.000000 0.000000 0.000000 0.000000 0.000000 0.042605
#
#
# Mechanical properties :
#
#
# Convention : Reuss Voigt Hill
#
# Bulk Modulus (GPa) = 49.88403 58.60722 54.24563
# Shear Modulus (GPa) = 35.50074 41.28887 38.39480
#
# Velocity S-wave (km/s) = 3.82209 4.12191 3.97483
# Velocity P-wave (km/s) = 6.32494 6.83887 6.58692
#
# Compressibility (1/GPa) = 0.02004649
#
# Stress axis : x y z
#
# Youngs Moduli (GPa) = 72.57528 121.44589 149.19941
#
# Poissons Ratio (x) = -0.01096 0.41987
# Poissons Ratio (y) = -0.00655 0.24029
# Poissons Ratio (z) = 0.20424 0.19559
#
# Static dielectric constant tensor:
#      x y z
#    x 1.915370 0.000000 0.000000 
#    y 0.000000 1.954560 0.000000 
#    z 0.000000 0.000000 1.943210 
# 
# From -- ./inp_files/22484.got.cif
#   From: 2010.05.17/outbox.cif.g08.bks.cpg/sg66_12_cif.got.tgz:22484.got - 2010.06.03 17:51:23.
