data_PCOD9499478
_publ_section_title
;
Structure prediction by ZEFSAII (Michael W. Deem and Ramdas Pophale) SiO2 
 PCOD9499478
Probable space group: C C C M
;
_chemical_formula_sum "Si O2"
_cell_formula_units_Z 104
_cell_length_a 8.524048
_cell_length_b 28.901394
_cell_length_c 23.089182
_cell_angle_alpha 90.000000
_cell_angle_beta 90.000000
_cell_angle_gamma 90.000000
_cell_volume 5688.178602
_symmetry_space_group_name_H-M "C C C M"
_symmetry_group_IT_number 66
_symmetry_cell_setting 'orthorhombic'
loop_
_space_group_symop_operation_xyz
x,y,z
-x,-y,z
x,-y,1/2-z
-x,y,1/2-z
-x,-y,-z
x,y,-z
-x,y,1/2+z
x,-y,1/2+z
1/2+x,1/2+y,z
1/2-x,1/2-y,z
1/2+x,1/2-y,1/2-z
1/2-x,1/2+y,1/2-z
1/2-x,1/2-y,-z
1/2+x,1/2+y,-z
1/2-x,1/2+y,1/2+z
1/2+x,1/2-y,1/2+z
loop_
_atom_site_type_symbol
_atom_site_label
_atom_site_fract_x
_atom_site_fract_y
_atom_site_fract_z
Si Si1 0.800736 0.401034 0.859863
Si Si2 0.690065 0.947211 0.758027
Si Si3 0.721576 0.800052 0.400511
Si Si4 0.743633 0.621608 0.000000
Si Si5 0.827919 0.021665 0.068643
Si Si6 0.655070 0.065019 0.613405
Si Si7 0.024285 0.188080 0.500000
Si Si8 0.535266 0.210652 0.500000
O O1 0.754663 0.417157 0.795772
O O2 0.798525 0.345901 0.863376
O O3 0.687344 0.427612 0.904310
O O4 0.973977 0.420007 0.878023
O O5 0.500000 0.948278 0.750000
O O6 0.726527 0.928567 0.822112
O O7 0.745453 0.000000 0.750000
O O8 0.750000 0.750000 0.371494
O O9 0.866380 0.808515 0.443911
O O10 0.573131 0.795639 0.443270
O O11 0.779400 0.593029 0.058281
O O12 0.568622 0.640663 0.000000
O O13 0.846473 0.668238 0.000000
O O14 0.697788 0.988103 0.097865
O O15 0.800491 0.022865 0.000000
O O16 0.000000 0.000000 0.078970
O O17 0.920082 0.235089 0.500000
#
# Coordination Sequence:
#
# PCOD9499478 Si02
#       8
#    16  16  16   8  16  16   8   8
#     4  11  21  36  63  76 108 153 187 233 275 318
#     4   9  18  36  55  79 107 144 191 230 269 319
#     4   9  19  35  56  85 109 141 192 228 272 337
#     4  12  21  32  56  86 115 144 177 229 295 332
#     4  11  25  36  51  82 121 149 177 223 285 337
#     4  11  22  36  55  85 111 140 191 232 265 341
#     4   9  21  33  56  76 123 146 168 236 290 329
#     4   9  17  37  52  84 105 145 194 223 269 347
#
# _framework density 18.283532999999998
#
# number of rings (size 3 to 8) (size 9 to 14) (size 15 to 20)
#    0.000    1.846    3.846    1.615    5.385    0.615 
#    0.000    1.538    0.000    1.846    0.000    0.000 
#    0.000    0.000    0.000    0.000    0.000    0.000 
#
# Total GULP energy -289920.906994 kJ/mol
# GULP energy per Si atom -5575.402058 kJ/mol
# Density = 1.824192 g / cm^3
# Si number density = 18.283533 Si / 1000 Ang^3
#
#
#
# Elastic Constant Matrix: (Units=GPa)
#
#
# Indices 1 2 3 4 5 6 
#
# 1 29.9186 22.0473 20.3829 0.0000 0.0000 0.0000
# 2 22.0473 138.5441 62.0173 0.0000 0.0000 0.0000
# 3 20.3829 62.0173 121.1742 0.0000 0.0000 0.0000
# 4 0.0000 0.0000 0.0000 24.7388 0.0000 0.0000
# 5 0.0000 0.0000 0.0000 0.0000 4.2383 0.0000
# 6 0.0000 0.0000 0.0000 0.0000 0.0000 28.1116
#
#
#
# Elastic Compliance Matrix: (Units=1/GPa)
#
#
# Indices 1 2 3 4 5 6 
#
# 1 0.039640 -0.004311 -0.004462 0.000000 0.000000 0.000000
# 2 -0.004311 0.009832 -0.004307 0.000000 0.000000 0.000000
# 3 -0.004462 -0.004307 0.011207 0.000000 0.000000 0.000000
# 4 0.000000 0.000000 0.000000 0.040422 0.000000 0.000000
# 5 0.000000 0.000000 0.000000 0.000000 0.235946 0.000000
# 6 0.000000 0.000000 0.000000 0.000000 0.000000 0.035573
#
#
# Mechanical properties :
#
#
# Convention : Reuss Voigt Hill
#
# Bulk Modulus (GPa) = 28.96810 55.39243 42.18026
# Shear Modulus (GPa) = 12.18663 23.76370 17.97517
#
# Velocity S-wave (km/s) = 2.58454 3.60909 3.13890
# Velocity P-wave (km/s) = 4.97842 6.90865 6.02139
#
# Compressibility (1/GPa) = 0.03452073
#
# Stress axis : x y z
#
# Youngs Moduli (GPa) = 25.22679 101.71047 89.22759
#
# Poissons Ratio (x) = 0.43848 0.39809
# Poissons Ratio (y) = 0.10875 0.38428
# Poissons Ratio (z) = 0.11255 0.43805
#
# Static dielectric constant tensor:
#      x y z
#    x 1.661260 0.000000 0.000000 
#    y 0.000000 1.642210 0.000000 
#    z 0.000000 0.000000 1.604250 
# 
# From -- ./inp_files/55879.got.cif
#   From: 2010.05.17/outbox.cif.g08.bks.cpg/sg66_28_cif.got.tgz:55879.got - 2010.06.03 17:51:23.
