data_PCOD9499396
_publ_section_title
;
Structure prediction by ZEFSAII (Michael W. Deem and Ramdas Pophale) SiO2 
 PCOD9499396
Probable space group: C C C M
;
_chemical_formula_sum "Si O2"
_cell_formula_units_Z 88
_cell_length_a 15.371200
_cell_length_b 17.893667
_cell_length_c 16.929252
_cell_angle_alpha 90.000000
_cell_angle_beta 90.000000
_cell_angle_gamma 90.000000
_cell_volume 4656.342247
_symmetry_space_group_name_H-M "C C C M"
_symmetry_group_IT_number 66
_symmetry_cell_setting 'orthorhombic'
loop_
_space_group_symop_operation_xyz
x,y,z
-x,-y,z
x,-y,1/2-z
-x,y,1/2-z
-x,-y,-z
x,y,-z
-x,y,1/2+z
x,-y,1/2+z
1/2+x,1/2+y,z
1/2-x,1/2-y,z
1/2+x,1/2-y,1/2-z
1/2-x,1/2+y,1/2-z
1/2-x,1/2-y,-z
1/2+x,1/2+y,-z
1/2-x,1/2+y,1/2+z
1/2+x,1/2-y,1/2+z
loop_
_atom_site_type_symbol
_atom_site_label
_atom_site_fract_x
_atom_site_fract_y
_atom_site_fract_z
Si Si1 0.680817 0.532278 0.339800
Si Si2 0.711948 0.164923 0.091406
Si Si3 0.078972 0.722976 0.805952
Si Si4 0.511303 0.384829 0.843149
Si Si5 0.316666 0.381272 0.909317
Si Si6 0.750000 0.750000 0.800491
O O1 0.678236 0.500000 0.250000
O O2 0.736276 0.607251 0.352896
O O3 0.584549 0.556668 0.368854
O O4 0.716417 0.464674 0.391962
O O5 0.750000 0.250000 0.094903
O O6 0.614385 0.169996 0.125290
O O7 0.717768 0.141621 0.000000
O O8 0.049424 0.801043 0.845049
O O9 0.163233 0.737604 0.750990
O O10 0.000000 0.697383 0.750000
O O11 0.500000 0.400375 0.750000
O O12 0.418781 0.384555 0.885190
O O13 0.269225 0.321842 0.854064
O O14 0.307606 0.360626 0.000000
#
# Coordination Sequence:
#
# PCOD9499396 Si02
#       6
#    16  16  16  16  16   8
#     4  12  22  39  65  91 130 170 214 258 319 395
#     4  11  23  39  61  93 131 167 210 264 318 372
#     4  11  20  39  66  93 119 168 219 254 305 385
#     4  11  20  38  59  92 130 164 204 255 317 391
#     4  12  26  38  59  94 129 167 209 264 327 377
#     4  12  21  44  63  86 126 172 220 256 309 386
#
# _framework density 18.898955000000001
#
# number of rings (size 3 to 8) (size 9 to 14) (size 15 to 20)
#    0.000    0.545    8.182    2.455    0.000    2.909 
#    0.000    0.000    0.000    4.909    0.000    6.364 
#    0.000    0.000    0.000    0.000    0.000    0.000 
#
# Total GULP energy -245705.719451 kJ/mol
# GULP energy per Si atom -5584.220897 kJ/mol
# Density = 1.885594 g / cm^3
# Si number density = 18.898955 Si / 1000 Ang^3
#
#
#
# Elastic Constant Matrix: (Units=GPa)
#
#
# Indices 1 2 3 4 5 6 
#
# 1 72.9128 24.8482 8.9263 0.0000 0.0000 0.0000
# 2 24.8482 96.4053 6.7695 0.0000 0.0000 0.0000
# 3 8.9263 6.7695 62.2851 0.0000 0.0000 0.0000
# 4 0.0000 0.0000 0.0000 20.9597 0.0000 0.0000
# 5 0.0000 0.0000 0.0000 0.0000 22.7038 0.0000
# 6 0.0000 0.0000 0.0000 0.0000 0.0000 29.0882
#
#
#
# Elastic Compliance Matrix: (Units=1/GPa)
#
#
# Indices 1 2 3 4 5 6 
#
# 1 0.015227 -0.003800 -0.001769 0.000000 0.000000 0.000000
# 2 -0.003800 0.011401 -0.000695 0.000000 0.000000 0.000000
# 3 -0.001769 -0.000695 0.016384 0.000000 0.000000 0.000000
# 4 0.000000 0.000000 0.000000 0.047711 0.000000 0.000000
# 5 0.000000 0.000000 0.000000 0.000000 0.044046 0.000000
# 6 0.000000 0.000000 0.000000 0.000000 0.000000 0.034378
#
#
# Mechanical properties :
#
#
# Convention : Reuss Voigt Hill
#
# Bulk Modulus (GPa) = 32.80406 34.74347 33.77376
# Shear Modulus (GPa) = 26.06394 27.28762 26.67578
#
# Velocity S-wave (km/s) = 3.71768 3.80395 3.76106
# Velocity P-wave (km/s) = 5.98527 6.14142 6.06385
#
# Compressibility (1/GPa) = 0.03048403
#
# Stress axis : x y z
#
# Youngs Moduli (GPa) = 65.67389 87.71016 61.03434
#
# Poissons Ratio (x) = 0.33334 0.10798
# Poissons Ratio (y) = 0.24959 0.04239
# Poissons Ratio (z) = 0.11619 0.06092
#
# Static dielectric constant tensor:
#      x y z
#    x 1.672110 0.000000 0.000000 
#    y 0.000000 1.681350 0.000000 
#    z 0.000000 0.000000 1.682570 
# 
# From -- ./inp_files/40311.got.cif
#   From: 2010.05.17/outbox.cif.g08.bks.cpg/sg66_21_cif.got.tgz:40311.got - 2010.06.03 17:51:23.
