data_PCOD9499851
_publ_section_title
;
Structure prediction by ZEFSAII (Michael W. Deem and Ramdas Pophale) SiO2 
 PCOD9499851
Probable space group: C C C M
;
_chemical_formula_sum "Si O2"
_cell_formula_units_Z 52
_cell_length_a 15.725580
_cell_length_b 7.746053
_cell_length_c 18.438715
_cell_angle_alpha 90.000000
_cell_angle_beta 90.000000
_cell_angle_gamma 90.000000
_cell_volume 2246.041561
_symmetry_space_group_name_H-M "C C C M"
_symmetry_group_IT_number 66
_symmetry_cell_setting 'orthorhombic'
loop_
_space_group_symop_operation_xyz
x,y,z
-x,-y,z
x,-y,1/2-z
-x,y,1/2-z
-x,-y,-z
x,y,-z
-x,y,1/2+z
x,-y,1/2+z
1/2+x,1/2+y,z
1/2-x,1/2-y,z
1/2+x,1/2-y,1/2-z
1/2-x,1/2+y,1/2-z
1/2-x,1/2-y,-z
1/2+x,1/2+y,-z
1/2-x,1/2+y,1/2+z
1/2+x,1/2-y,1/2+z
loop_
_atom_site_type_symbol
_atom_site_label
_atom_site_fract_x
_atom_site_fract_y
_atom_site_fract_z
Si Si1 0.098084 0.966427 0.667637
Si Si2 0.160827 0.346742 0.080355
Si Si3 0.500000 0.000000 0.250000
Si Si4 0.342060 0.805787 0.832610
O O1 0.112491 0.779362 0.635334
O O2 0.129419 0.000000 0.750000
O O3 0.136169 0.129619 0.625083
O O4 0.000000 0.000000 0.668930
O O5 0.250000 0.250000 0.074226
O O6 0.173350 0.532102 0.115784
O O7 0.121753 0.357789 0.000000
O O8 0.571100 0.127279 0.210124
O O9 0.250000 0.750000 0.795881
#
# Coordination Sequence:
#
# PCOD9499851 Si02
#       4
#    16  16   4  16
#     4  11  24  44  71 107 148 190 249 318 379 449
#     4  11  25  46  70 106 150 194 255 308 365 464
#     4  12  28  48  72 118 160 178 272 326 366 474
#     4  12  25  45  75 107 146 203 241 310 397 436
#
# _framework density 23.151843
#
# number of rings (size 3 to 8) (size 9 to 14) (size 15 to 20)
#    0.000    0.615    3.077    5.538    2.154    4.923 
#    0.000    5.385    0.000    0.000    0.000    0.000 
#    0.000    0.000    0.000    0.000    0.000    0.000 
#
# Total GULP energy -144747.927650 kJ/mol
# GULP energy per Si atom -5567.227987 kJ/mol
# Density = 2.309915 g / cm^3
# Si number density = 23.151843 Si / 1000 Ang^3
#
#
#
# Elastic Constant Matrix: (Units=GPa)
#
#
# Indices 1 2 3 4 5 6 
#
# 1 120.7998 41.9831 52.3686 0.0000 0.0000 0.0000
# 2 41.9831 199.4506 61.2002 0.0000 0.0000 0.0000
# 3 52.3686 61.2002 102.6735 0.0000 0.0000 0.0000
# 4 0.0000 0.0000 0.0000 51.9029 0.0000 0.0000
# 5 0.0000 0.0000 0.0000 0.0000 -25.5960 0.0000
# 6 0.0000 0.0000 0.0000 0.0000 0.0000 50.5010
#
#
#
# Elastic Compliance Matrix: (Units=1/GPa)
#
#
# Indices 1 2 3 4 5 6 
#
# 1 0.010709 -0.000708 -0.005040 0.000000 0.000000 0.000000
# 2 -0.000708 0.006183 -0.003324 0.000000 0.000000 0.000000
# 3 -0.005040 -0.003324 0.014292 0.000000 0.000000 0.000000
# 4 0.000000 0.000000 0.000000 0.019267 0.000000 0.000000
# 5 0.000000 0.000000 0.000000 0.000000 -0.039069 0.000000
# 6 0.000000 0.000000 0.000000 0.000000 0.000000 0.019802
#
#
# Mechanical properties :
#
#
# Convention : Reuss Voigt Hill
#
# Bulk Modulus (GPa) = 76.69244 81.55862 79.12553
# Shear Modulus (GPa) = 93.15301 33.18639 63.16970
#
# Velocity S-wave (km/s) = 6.35004 3.79016 5.22917
# Velocity P-wave (km/s) = 9.32533 7.37956 8.40892
#
# Compressibility (1/GPa) = 0.01303910
#
# Stress axis : x y z
#
# Youngs Moduli (GPa) = 93.37770 161.73897 69.96877
#
# Poissons Ratio (x) = 0.11444 0.35267
# Poissons Ratio (y) = 0.06607 0.23261
# Poissons Ratio (z) = 0.47067 0.53769
#
# Static dielectric constant tensor:
#      x y z
#    x 1.933060 0.000000 0.000000 
#    y 0.000000 1.988140 0.000000 
#    z 0.000000 0.000000 2.065620 
# 
# From -- ./inp_files/49373.got.cif
#   From: 2010.05.17/outbox.cif.g08.bks.cpg/sg66_25_cif.got.tgz:49373.got - 2010.06.03 17:51:23.
