data_PCOD9499656
_publ_section_title
;
Structure prediction by ZEFSAII (Michael W. Deem and Ramdas Pophale) SiO2 
 PCOD9499656
Probable space group: C C C M
;
_chemical_formula_sum "Si O2"
_cell_formula_units_Z 80
_cell_length_a 11.395301
_cell_length_b 12.023853
_cell_length_c 28.139350
_cell_angle_alpha 90.000000
_cell_angle_beta 90.000000
_cell_angle_gamma 90.000000
_cell_volume 3855.524975
_symmetry_space_group_name_H-M "C C C M"
_symmetry_group_IT_number 66
_symmetry_cell_setting 'orthorhombic'
loop_
_space_group_symop_operation_xyz
x,y,z
-x,-y,z
x,-y,1/2-z
-x,y,1/2-z
-x,-y,-z
x,y,-z
-x,y,1/2+z
x,-y,1/2+z
1/2+x,1/2+y,z
1/2-x,1/2-y,z
1/2+x,1/2-y,1/2-z
1/2-x,1/2+y,1/2-z
1/2-x,1/2-y,-z
1/2+x,1/2+y,-z
1/2-x,1/2+y,1/2+z
1/2+x,1/2-y,1/2+z
loop_
_atom_site_type_symbol
_atom_site_label
_atom_site_fract_x
_atom_site_fract_y
_atom_site_fract_z
Si Si1 0.903312 0.702732 0.717334
Si Si2 0.852875 0.173620 0.878030
Si Si3 0.250000 0.250000 0.201016
Si Si4 0.000000 0.500000 0.344398
Si Si5 0.556196 0.375075 0.446480
Si Si6 0.251553 0.573554 0.377938
O O1 0.868920 0.784042 0.675386
O O2 0.814843 0.673639 0.759581
O O3 0.948565 0.595176 0.689725
O O4 0.000000 0.761549 0.750000
O O5 0.750000 0.250000 0.899747
O O6 0.970210 0.184962 0.909034
O O7 0.808984 0.047927 0.874133
O O8 0.294140 0.343012 0.163777
O O9 0.110760 0.553315 0.373182
O O10 0.500000 0.500000 0.448139
O O11 0.551893 0.330535 0.500000
O O12 0.687990 0.379923 0.425814
#
# Coordination Sequence:
#
# PCOD9499656 Si02
#       6
#    16  16   8   8  16  16
#     4  12  23  37  61  92 129 174 215 263 319 387
#     4  11  22  42  67  97 127 168 227 273 322 401
#     4  12  24  38  61  94 133 176 216 266 326 388
#     4  12  23  40  65  90 132 178 217 266 328 397
#     4   9  21  43  68  94 126 167 216 279 342 393
#     4  11  24  41  66  92 131 174 217 274 332 391
#
# _framework density 20.749442999999999
#
# number of rings (size 3 to 8) (size 9 to 14) (size 15 to 20)
#    0.000    1.000    5.000    1.500    0.000    2.800 
#    0.000    2.000    0.000    0.000    0.000    0.000 
#    0.000    0.000    0.000    0.000    0.000    0.000 
#
# Total GULP energy -222714.191917 kJ/mol
# GULP energy per Si atom -5567.854798 kJ/mol
# Density = 2.070222 g / cm^3
# Si number density = 20.749443 Si / 1000 Ang^3
#
#
#
# Elastic Constant Matrix: (Units=GPa)
#
#
# Indices 1 2 3 4 5 6 
#
# 1 107.9526 17.1104 64.6683 0.0000 0.0000 0.0000
# 2 17.1104 85.5414 23.1383 0.0000 0.0000 0.0000
# 3 64.6683 23.1383 140.7485 0.0000 0.0000 0.0000
# 4 0.0000 0.0000 0.0000 15.4850 0.0000 0.0000
# 5 0.0000 0.0000 0.0000 0.0000 47.2137 0.0000
# 6 0.0000 0.0000 0.0000 0.0000 0.0000 25.0979
#
#
#
# Elastic Compliance Matrix: (Units=1/GPa)
#
#
# Indices 1 2 3 4 5 6 
#
# 1 0.012866 -0.001020 -0.005744 0.000000 0.000000 0.000000
# 2 -0.001020 0.012315 -0.001556 0.000000 0.000000 0.000000
# 3 -0.005744 -0.001556 0.010000 0.000000 0.000000 0.000000
# 4 0.000000 0.000000 0.000000 0.064579 0.000000 0.000000
# 5 0.000000 0.000000 0.000000 0.000000 0.021180 0.000000
# 6 0.000000 0.000000 0.000000 0.000000 0.000000 0.039844
#
#
# Mechanical properties :
#
#
# Convention : Reuss Voigt Hill
#
# Bulk Modulus (GPa) = 53.93287 60.45295 57.19291
# Shear Modulus (GPa) = 27.23275 32.84769 30.04022
#
# Velocity S-wave (km/s) = 3.62671 3.98309 3.80907
# Velocity P-wave (km/s) = 6.60199 7.09587 6.85338
#
# Compressibility (1/GPa) = 0.01854157
#
# Stress axis : x y z
#
# Youngs Moduli (GPa) = 77.72649 81.20103 100.00389
#
# Poissons Ratio (x) = 0.08281 0.57438
# Poissons Ratio (y) = 0.07927 0.15560
# Poissons Ratio (z) = 0.44643 0.12635
#
# Static dielectric constant tensor:
#      x y z
#    x 2.112420 0.000000 0.000000 
#    y 0.000000 1.751650 0.000000 
#    z 0.000000 0.000000 1.648820 
# 
# From -- ./inp_files/68815.got.cif
#   From: 2010.05.17/outbox.cif.g08.bks.cpg/sg66_35_cif.got.tgz:68815.got - 2010.06.03 17:51:23.
