data_PCOD9499395
_publ_section_title
;
Structure prediction by ZEFSAII (Michael W. Deem and Ramdas Pophale) SiO2 
 PCOD9499395
Probable space group: C C C M
;
_chemical_formula_sum "Si O2"
_cell_formula_units_Z 64
_cell_length_a 17.126816
_cell_length_b 18.231982
_cell_length_c 10.098400
_cell_angle_alpha 90.000000
_cell_angle_beta 90.000000
_cell_angle_gamma 90.000000
_cell_volume 3153.283981
_symmetry_space_group_name_H-M "C C C M"
_symmetry_group_IT_number 66
_symmetry_cell_setting 'orthorhombic'
loop_
_space_group_symop_operation_xyz
x,y,z
-x,-y,z
x,-y,1/2-z
-x,y,1/2-z
-x,-y,-z
x,y,-z
-x,y,1/2+z
x,-y,1/2+z
1/2+x,1/2+y,z
1/2-x,1/2-y,z
1/2+x,1/2-y,1/2-z
1/2-x,1/2+y,1/2-z
1/2-x,1/2-y,-z
1/2+x,1/2+y,-z
1/2-x,1/2+y,1/2+z
1/2+x,1/2-y,1/2+z
loop_
_atom_site_type_symbol
_atom_site_label
_atom_site_fract_x
_atom_site_fract_y
_atom_site_fract_z
Si Si1 0.424390 0.422159 0.500000
Si Si2 0.075597 0.294965 0.658406
Si Si3 0.680668 0.069870 0.154068
Si Si4 0.663031 0.655278 0.728521
Si Si5 0.888634 0.915687 0.000000
O O1 0.399864 0.381083 0.631570
O O2 0.373871 0.497218 0.500000
O O3 0.517550 0.421175 0.500000
O O4 0.061935 0.282357 0.500000
O O5 0.105459 0.378189 0.674554
O O6 0.144827 0.240837 0.708039
O O7 0.000000 0.280966 0.750000
O O8 0.754506 0.122847 0.182550
O O9 0.682838 0.000000 0.250000
O O10 0.682753 0.047284 0.000000
O O11 0.644549 0.625815 0.873666
#
# Coordination Sequence:
#
# PCOD9499395 Si02
#       5
#     8  16  16  16   8
#     4  11  20  38  59  88 134 178 225 263 324 396
#     4  11  25  46  71  99 134 177 224 275 334 397
#     4  11  25  46  71  99 134 177 224 275 334 397
#     4  12  23  40  66  97 132 174 219 273 333 394
#     4  11  24  34  57  96 136 176 223 269 322 388
#
# _framework density 20.296301
#
# number of rings (size 3 to 8) (size 9 to 14) (size 15 to 20)
#    0.000    0.750    2.500    5.250    3.500    5.500 
#    0.000    3.750    0.000    0.000    0.000    0.000 
#    0.000    0.000    0.000    0.000    0.000    0.000 
#
# Total GULP energy -178769.235130 kJ/mol
# GULP energy per Si atom -5586.538598 kJ/mol
# Density = 2.025011 g / cm^3
# Si number density = 20.296301 Si / 1000 Ang^3
#
#
#
# Elastic Constant Matrix: (Units=GPa)
#
#
# Indices 1 2 3 4 5 6 
#
# 1 31.8362 25.8413 20.2849 0.0000 0.0000 0.0000
# 2 25.8413 128.4018 53.8496 0.0000 0.0000 0.0000
# 3 20.2849 53.8496 138.4013 0.0000 0.0000 0.0000
# 4 0.0000 0.0000 0.0000 54.8110 0.0000 0.0000
# 5 0.0000 0.0000 0.0000 0.0000 37.7683 0.0000
# 6 0.0000 0.0000 0.0000 0.0000 0.0000 30.9850
#
#
#
# Elastic Compliance Matrix: (Units=1/GPa)
#
#
# Indices 1 2 3 4 5 6 
#
# 1 0.038662 -0.006458 -0.003154 0.000000 0.000000 0.000000
# 2 -0.006458 0.010385 -0.003094 0.000000 0.000000 0.000000
# 3 -0.003154 -0.003094 0.008892 0.000000 0.000000 0.000000
# 4 0.000000 0.000000 0.000000 0.018245 0.000000 0.000000
# 5 0.000000 0.000000 0.000000 0.000000 0.026477 0.000000
# 6 0.000000 0.000000 0.000000 0.000000 0.000000 0.032274
#
#
# Mechanical properties :
#
#
# Convention : Reuss Voigt Hill
#
# Bulk Modulus (GPa) = 30.74389 55.39897 43.07143
# Shear Modulus (GPa) = 29.20734 37.95708 33.58221
#
# Velocity S-wave (km/s) = 3.79759 4.32921 4.07209
# Velocity P-wave (km/s) = 5.86595 7.23490 6.58609
#
# Compressibility (1/GPa) = 0.03252679
#
# Stress axis : x y z
#
# Youngs Moduli (GPa) = 25.86490 96.28814 112.46676
#
# Poissons Ratio (x) = 0.62186 0.35469
# Poissons Ratio (y) = 0.16704 0.34800
# Poissons Ratio (z) = 0.08157 0.29794
#
# Static dielectric constant tensor:
#      x y z
#    x 1.723630 0.000000 0.000000 
#    y 0.000000 1.777760 0.000000 
#    z 0.000000 0.000000 1.651850 
# 
# From -- ./inp_files/7407.got.cif
#   From: 2010.05.17/outbox.cif.g08.bks.cpg/sg66_4_cif.got.tgz:7407.got - 2010.06.03 17:51:23.
