data_PCOD9499519
_publ_section_title
;
Structure prediction by ZEFSAII (Michael W. Deem and Ramdas Pophale) SiO2 
 PCOD9499519
Probable space group: C C C M
;
_chemical_formula_sum "Si O2"
_cell_formula_units_Z 108
_cell_length_a 12.833566
_cell_length_b 14.459807
_cell_length_c 24.224878
_cell_angle_alpha 90.000000
_cell_angle_beta 90.000000
_cell_angle_gamma 90.000000
_cell_volume 4495.432110
_symmetry_space_group_name_H-M "C C C M"
_symmetry_group_IT_number 66
_symmetry_cell_setting 'orthorhombic'
loop_
_space_group_symop_operation_xyz
x,y,z
-x,-y,z
x,-y,1/2-z
-x,y,1/2-z
-x,-y,-z
x,y,-z
-x,y,1/2+z
x,-y,1/2+z
1/2+x,1/2+y,z
1/2-x,1/2-y,z
1/2+x,1/2-y,1/2-z
1/2-x,1/2+y,1/2-z
1/2-x,1/2-y,-z
1/2+x,1/2+y,-z
1/2-x,1/2+y,1/2+z
1/2+x,1/2-y,1/2+z
loop_
_atom_site_type_symbol
_atom_site_label
_atom_site_fract_x
_atom_site_fract_y
_atom_site_fract_z
Si Si1 0.250000 0.250000 0.000000
Si Si2 0.844678 0.638882 0.102585
Si Si3 0.275202 0.468885 0.565597
Si Si4 0.064975 0.630882 0.937071
Si Si5 0.750000 0.750000 0.311356
Si Si6 0.700505 0.900840 0.774703
Si Si7 0.926663 0.827650 0.391046
Si Si8 0.557626 0.598734 0.196953
O O1 0.173266 0.290529 0.949000
O O2 0.751228 0.566553 0.091580
O O3 0.842116 0.647875 0.169197
O O4 0.960202 0.599232 0.092364
O O5 0.273196 0.479809 0.500000
O O6 0.176482 0.405762 0.583563
O O7 0.381925 0.420158 0.581867
O O8 0.067217 0.741954 0.932021
O O9 0.058286 0.601362 0.000000
O O10 0.695124 0.826352 0.273579
O O11 0.838431 0.798850 0.347238
O O12 0.822936 0.915029 0.788699
O O13 0.661069 0.000000 0.750000
O O14 0.032600 0.843701 0.357761
O O15 0.500000 0.500000 0.189482
O O16 0.500000 0.642633 0.250000
#
# Coordination Sequence:
#
# PCOD9499519 Si02
#       8
#     4  16  16  16   8  16  16  16
#     4  12  26  48  66 110 148 194 244 290 380 448
#     4  12  26  45  72  99 144 188 235 300 356 439
#     4  11  22  45  71 101 131 183 234 292 352 418
#     4  11  24  43  70 103 138 183 241 289 359 433
#     4  12  23  42  63 101 132 183 226 292 352 422
#     4  12  26  45  72 101 141 188 244 291 363 440
#     4  12  24  40  69 101 142 176 235 293 357 425
#     4  11  21  40  64  92 126 179 228 282 339 426
#
# _framework density 24.024386
#
# number of rings (size 3 to 8) (size 9 to 14) (size 15 to 20)
#    0.000    0.444    5.926    3.111    4.148    2.370 
#    0.000    0.000    0.000    2.667    0.000    0.000 
#    0.000    0.000    0.000    0.000    0.000    0.000 
#
# Total GULP energy -301330.800384 kJ/mol
# GULP energy per Si atom -5580.200007 kJ/mol
# Density = 2.396971 g / cm^3
# Si number density = 24.024386 Si / 1000 Ang^3
#
#
#
# Elastic Constant Matrix: (Units=GPa)
#
#
# Indices 1 2 3 4 5 6 
#
# 1 54.7380 -9.5989 18.4157 0.0000 0.0000 0.0000
# 2 -9.5989 31.4304 11.7929 0.0000 0.0000 0.0000
# 3 18.4157 11.7929 118.8710 0.0000 0.0000 0.0000
# 4 0.0000 0.0000 0.0000 46.6519 0.0000 0.0000
# 5 0.0000 0.0000 0.0000 0.0000 36.1001 0.0000
# 6 0.0000 0.0000 0.0000 0.0000 0.0000 25.4529
#
#
#
# Elastic Compliance Matrix: (Units=1/GPa)
#
#
# Indices 1 2 3 4 5 6 
#
# 1 0.021021 0.007937 -0.004044 0.000000 0.000000 0.000000
# 2 0.007937 0.036043 -0.004805 0.000000 0.000000 0.000000
# 3 -0.004044 -0.004805 0.009516 0.000000 0.000000 0.000000
# 4 0.000000 0.000000 0.000000 0.021435 0.000000 0.000000
# 5 0.000000 0.000000 0.000000 0.000000 0.027701 0.000000
# 6 0.000000 0.000000 0.000000 0.000000 0.000000 0.039288
#
#
# Mechanical properties :
#
#
# Convention : Reuss Voigt Hill
#
# Bulk Modulus (GPa) = 15.44257 27.36208 21.40232
# Shear Modulus (GPa) = 28.02459 33.93629 30.98044
#
# Velocity S-wave (km/s) = 3.41912 3.76250 3.59491
# Velocity P-wave (km/s) = 4.69351 5.50357 5.11460
#
# Compressibility (1/GPa) = 0.06475608
#
# Stress axis : x y z
#
# Youngs Moduli (GPa) = 47.57073 27.74431 105.08904
#
# Poissons Ratio (x) = -0.22022 0.42499
# Poissons Ratio (y) = -0.37759 0.50500
# Poissons Ratio (z) = 0.19238 0.13332
#
# Static dielectric constant tensor:
#      x y z
#    x 1.895360 0.000000 0.000000 
#    y 0.000000 1.974260 0.000000 
#    z 0.000000 0.000000 1.942650 
# 
# From -- ./inp_files/58270.got.cif
#   From: 2010.05.17/outbox.cif.g08.bks.cpg/sg66_30_cif.got.tgz:58270.got - 2010.06.03 17:51:23.
