data_PCOD9499717
_publ_section_title
;
Structure prediction by ZEFSAII (Michael W. Deem and Ramdas Pophale) SiO2 
 PCOD9499717
Probable space group: C C C M
;
_chemical_formula_sum "Si O2"
_cell_formula_units_Z 116
_cell_length_a 12.148349
_cell_length_b 26.386559
_cell_length_c 15.811928
_cell_angle_alpha 90.000000
_cell_angle_beta 90.000000
_cell_angle_gamma 90.000000
_cell_volume 5068.562974
_symmetry_space_group_name_H-M "C C C M"
_symmetry_group_IT_number 66
_symmetry_cell_setting 'orthorhombic'
loop_
_space_group_symop_operation_xyz
x,y,z
-x,-y,z
x,-y,1/2-z
-x,y,1/2-z
-x,-y,-z
x,y,-z
-x,y,1/2+z
x,-y,1/2+z
1/2+x,1/2+y,z
1/2-x,1/2-y,z
1/2+x,1/2-y,1/2-z
1/2-x,1/2+y,1/2-z
1/2-x,1/2-y,-z
1/2+x,1/2+y,-z
1/2-x,1/2+y,1/2+z
1/2+x,1/2-y,1/2+z
loop_
_atom_site_type_symbol
_atom_site_label
_atom_site_fract_x
_atom_site_fract_y
_atom_site_fract_z
Si Si1 0.496178 0.941633 0.851870
Si Si2 0.969256 0.727061 0.595344
Si Si3 0.569206 0.659365 0.401786
Si Si4 0.769031 0.600717 0.096314
Si Si5 0.812479 0.639526 0.639496
Si Si6 0.310693 0.196602 0.183549
Si Si7 0.000000 0.000000 0.000000
Si Si8 0.446781 0.570117 0.338319
O O1 0.500000 0.941294 0.750000
O O2 0.604778 0.913953 0.886291
O O3 0.387184 0.909901 0.874623
O O4 0.500000 0.000000 0.880720
O O5 0.014763 0.731025 0.500000
O O6 0.924944 0.781760 0.622784
O O7 0.872352 0.686328 0.594240
O O8 0.064881 0.708715 0.656869
O O9 0.539190 0.657702 0.500000
O O10 0.687921 0.633815 0.389541
O O11 0.481655 0.628612 0.348426
O O12 0.758656 0.660896 0.111392
O O13 0.685635 0.569699 0.156420
O O14 0.740756 0.587739 0.000000
O O15 0.810060 0.659374 0.735986
O O16 0.250000 0.250000 0.196785
O O17 0.991137 0.957116 0.077087
O O18 0.500000 0.553038 0.250000
#
# Coordination Sequence:
#
# PCOD9499717 Si02
#       8
#    16  16  16  16  16  16   4  16
#     4  11  25  48  74 104 144 194 253 312 382 455
#     4  11  23  40  65 100 146 195 245 306 385 458
#     4  11  24  44  71 105 150 196 248 309 377 464
#     4  12  25  48  74 108 154 193 251 324 383 464
#     4  12  23  43  68 105 147 190 252 311 376 463
#     4  12  24  39  67 102 144 195 247 306 383 461
#     4  12  26  56  76 110 150 196 242 338 376 460
#     4  12  27  50  79 111 151 195 258 314 391 460
#
# _framework density 22.88617
#
# number of rings (size 3 to 8) (size 9 to 14) (size 15 to 20)
#    0.000    0.414    4.138    4.345    0.000    6.345 
#    2.483    0.000    0.000    0.000    0.000    0.000 
#    0.000    0.000    0.000    0.000    0.000    0.000 
#
# Total GULP energy -324047.564727 kJ/mol
# GULP energy per Si atom -5587.026978 kJ/mol
# Density = 2.283408 g / cm^3
# Si number density = 22.886170 Si / 1000 Ang^3
#
#
#
# Elastic Constant Matrix: (Units=GPa)
#
#
# Indices 1 2 3 4 5 6 
#
# 1 81.0884 6.9858 14.0756 0.0000 0.0000 0.0000
# 2 6.9858 121.0289 3.2906 0.0000 0.0000 0.0000
# 3 14.0756 3.2906 108.8216 0.0000 0.0000 0.0000
# 4 0.0000 0.0000 0.0000 17.5294 0.0000 0.0000
# 5 0.0000 0.0000 0.0000 0.0000 29.5288 0.0000
# 6 0.0000 0.0000 0.0000 0.0000 0.0000 -5.0935
#
#
#
# Elastic Compliance Matrix: (Units=1/GPa)
#
#
# Indices 1 2 3 4 5 6 
#
# 1 0.012672 -0.000687 -0.001618 0.000000 0.000000 0.000000
# 2 -0.000687 0.008307 -0.000162 0.000000 0.000000 0.000000
# 3 -0.001618 -0.000162 0.009404 0.000000 0.000000 0.000000
# 4 0.000000 0.000000 0.000000 0.057047 0.000000 0.000000
# 5 0.000000 0.000000 0.000000 0.000000 0.033865 0.000000
# 6 0.000000 0.000000 0.000000 0.000000 0.000000 -0.196328
#
#
# Mechanical properties :
#
#
# Convention : Reuss Voigt Hill
#
# Bulk Modulus (GPa) = 39.29823 39.96033 39.62928
# Shear Modulus (GPa) = -81.14967 27.49873 -26.82547
#
# Velocity S-wave (km/s) = -5.96112 3.47009 -3.42735
# Velocity P-wave (km/s) = 5.49285 5.79256 1.30044
#
# Compressibility (1/GPa) = 0.02544644
#
# Stress axis : x y z
#
# Youngs Moduli (GPa) = 78.91189 120.38645 106.34248
#
# Poissons Ratio (x) = 0.08276 0.17210
# Poissons Ratio (y) = 0.05425 0.01725
# Poissons Ratio (z) = 0.12771 0.01953
#
# Static dielectric constant tensor:
#      x y z
#    x 1.851640 0.000000 0.000000 
#    y 0.000000 1.862790 0.000000 
#    z 0.000000 0.000000 1.905450 
# 
# From -- ./inp_files/39127.got.cif
#   From: 2010.05.17/outbox.cif.g08.bks.cpg/sg66_20_cif.got.tgz:39127.got - 2010.06.03 17:51:23.
