data_PCOD9499554
_publ_section_title
;
Structure prediction by ZEFSAII (Michael W. Deem and Ramdas Pophale) SiO2 
 PCOD9499554
Probable space group: C C C M
;
_chemical_formula_sum "Si O2"
_cell_formula_units_Z 88
_cell_length_a 14.593246
_cell_length_b 12.179692
_cell_length_c 23.672147
_cell_angle_alpha 90.000000
_cell_angle_beta 90.000000
_cell_angle_gamma 90.000000
_cell_volume 4207.516798
_symmetry_space_group_name_H-M "C C C M"
_symmetry_group_IT_number 66
_symmetry_cell_setting 'orthorhombic'
loop_
_space_group_symop_operation_xyz
x,y,z
-x,-y,z
x,-y,1/2-z
-x,y,1/2-z
-x,-y,-z
x,y,-z
-x,y,1/2+z
x,-y,1/2+z
1/2+x,1/2+y,z
1/2-x,1/2-y,z
1/2+x,1/2-y,1/2-z
1/2-x,1/2+y,1/2-z
1/2-x,1/2-y,-z
1/2+x,1/2+y,-z
1/2-x,1/2+y,1/2+z
1/2+x,1/2-y,1/2+z
loop_
_atom_site_type_symbol
_atom_site_label
_atom_site_fract_x
_atom_site_fract_y
_atom_site_fract_z
Si Si1 0.094777 0.647339 0.812886
Si Si2 0.757503 0.547035 0.903998
Si Si3 0.662659 0.669302 0.000000
Si Si4 0.328971 0.321688 0.600237
Si Si5 0.885109 0.382744 0.683458
Si Si6 0.895407 0.463039 0.000000
Si Si7 0.548505 0.712453 0.500000
O O1 0.142574 0.738626 0.850440
O O2 0.123946 0.660713 0.747355
O O3 0.110394 0.516432 0.819243
O O4 0.987301 0.658735 0.829740
O O5 0.712936 0.436419 0.878728
O O6 0.802951 0.632802 0.860508
O O7 0.839040 0.506703 0.946058
O O8 0.680269 0.598982 0.943843
O O9 0.750000 0.750000 0.000000
O O10 0.561365 0.718645 0.000000
O O11 0.250000 0.250000 0.569553
O O12 0.410423 0.343102 0.556132
O O13 0.000000 0.500000 0.000000
O O14 0.908072 0.333331 0.000000
#
# Coordination Sequence:
#
# PCOD9499554 Si02
#       7
#    16  16   8  16  16   8   8
#     4   9  19  34  62  96 128 164 226 278 328 379
#     4  11  23  40  66  95 135 167 221 270 327 400
#     4  11  28  46  62  99 136 175 220 271 343 419
#     4  12  22  37  65 102 129 170 222 270 324 392
#     4   9  18  36  62  92 128 172 215 278 333 371
#     4  11  22  33  62 102 123 162 214 271 322 386
#     4  12  23  40  64  89 137 178 211 271 332 388
#
# _framework density 20.914949
#
# number of rings (size 3 to 8) (size 9 to 14) (size 15 to 20)
#    0.000    1.455    3.636    3.545    7.636    1.455 
#    0.000    0.909    0.000    0.000    0.000    0.000 
#    0.000    0.000    0.000    0.000    0.000    0.000 
#
# Total GULP energy -245338.174467 kJ/mol
# GULP energy per Si atom -5575.867602 kJ/mol
# Density = 2.086735 g / cm^3
# Si number density = 20.914949 Si / 1000 Ang^3
#
#
#
# Elastic Constant Matrix: (Units=GPa)
#
#
# Indices 1 2 3 4 5 6 
#
# 1 124.9049 41.6022 61.6559 0.0000 0.0000 0.0000
# 2 41.6022 75.0898 46.1859 0.0000 0.0000 0.0000
# 3 61.6559 46.1859 100.8379 0.0000 0.0000 0.0000
# 4 0.0000 0.0000 0.0000 9.9451 0.0000 0.0000
# 5 0.0000 0.0000 0.0000 0.0000 14.7885 0.0000
# 6 0.0000 0.0000 0.0000 0.0000 0.0000 38.8375
#
#
#
# Elastic Compliance Matrix: (Units=1/GPa)
#
#
# Indices 1 2 3 4 5 6 
#
# 1 0.011920 -0.002953 -0.005935 0.000000 0.000000 0.000000
# 2 -0.002953 0.019272 -0.007021 0.000000 0.000000 0.000000
# 3 -0.005935 -0.007021 0.016762 0.000000 0.000000 0.000000
# 4 0.000000 0.000000 0.000000 0.100552 0.000000 0.000000
# 5 0.000000 0.000000 0.000000 0.000000 0.067620 0.000000
# 6 0.000000 0.000000 0.000000 0.000000 0.000000 0.025748
#
#
# Mechanical properties :
#
#
# Convention : Reuss Voigt Hill
#
# Bulk Modulus (GPa) = 61.98169 66.63562 64.30865
# Shear Modulus (GPa) = 17.91652 22.80680 20.36166
#
# Velocity S-wave (km/s) = 2.93001 3.30579 3.12355
# Velocity P-wave (km/s) = 6.41452 6.81912 6.61991
#
# Compressibility (1/GPa) = 0.01613380
#
# Stress axis : x y z
#
# Youngs Moduli (GPa) = 83.89573 51.88812 59.65859
#
# Poissons Ratio (x) = 0.15323 0.35410
# Poissons Ratio (y) = 0.24775 0.41889
# Poissons Ratio (z) = 0.49796 0.36433
#
# Static dielectric constant tensor:
#      x y z
#    x 1.785970 0.000000 0.000000 
#    y 0.000000 1.779060 0.000000 
#    z 0.000000 0.000000 1.831380 
# 
# From -- ./inp_files/58058.got.cif
#   From: 2010.05.17/outbox.cif.g08.bks.cpg/sg66_30_cif.got.tgz:58058.got - 2010.06.03 17:51:23.
