data_PCOD9499104
_publ_section_title
;
Structure prediction by ZEFSAII (Michael W. Deem and Ramdas Pophale) SiO2 
 PCOD9499104
Probable space group: C C C M
;
_chemical_formula_sum "Si O2"
_cell_formula_units_Z 60
_cell_length_a 12.298837
_cell_length_b 21.336487
_cell_length_c 9.198358
_cell_angle_alpha 90.000000
_cell_angle_beta 90.000000
_cell_angle_gamma 90.000000
_cell_volume 2413.777693
_symmetry_space_group_name_H-M "C C C M"
_symmetry_group_IT_number 66
_symmetry_cell_setting 'orthorhombic'
loop_
_space_group_symop_operation_xyz
x,y,z
-x,-y,z
x,-y,1/2-z
-x,y,1/2-z
-x,-y,-z
x,y,-z
-x,y,1/2+z
x,-y,1/2+z
1/2+x,1/2+y,z
1/2-x,1/2-y,z
1/2+x,1/2-y,1/2-z
1/2-x,1/2+y,1/2-z
1/2-x,1/2-y,-z
1/2+x,1/2+y,-z
1/2-x,1/2+y,1/2+z
1/2+x,1/2-y,1/2+z
loop_
_atom_site_type_symbol
_atom_site_label
_atom_site_fract_x
_atom_site_fract_y
_atom_site_fract_z
Si Si1 0.375491 0.536385 0.500000
Si Si2 0.750000 0.250000 0.740338
Si Si3 0.129288 0.428091 0.000000
Si Si4 0.645023 0.609719 0.500000
Si Si5 0.093091 0.717526 0.500000
Si Si6 0.000000 0.108817 0.750000
Si Si7 0.843373 0.327740 0.000000
Si Si8 0.000000 0.500000 0.750000
O O1 0.248132 0.545155 0.500000
O O2 0.393405 0.462239 0.500000
O O3 0.421594 0.568565 0.645265
O O4 0.855031 0.244740 0.634817
O O5 0.791153 0.301689 0.852926
O O6 0.142812 0.352887 0.000000
O O7 0.066956 0.454157 0.857665
O O8 0.583280 0.641018 0.637555
O O9 0.777060 0.606444 0.500000
O O10 0.966600 0.697084 0.500000
#
# Coordination Sequence:
#
# PCOD9499104 Si02
#       8
#     8   8   8   8   8   8   8   4
#     4  11  23  40  68 103 149 193 236 291 347 443
#     4  10  26  52  70 108 138 190 246 304 378 436
#     4  11  28  43  78 107 156 193 245 290 373 439
#     4  11  23  41  71  99 144 193 241 292 366 433
#     4  11  26  50  81 103 148 191 243 311 382 437
#     4  10  23  44  62 101 151 194 236 290 346 421
#     4  11  26  48  78 106 137 191 240 315 375 438
#     4  10  28  50  64 126 150 198 236 298 352 474
#
# _framework density 24.857302000000001
#
# number of rings (size 3 to 8) (size 9 to 14) (size 15 to 20)
#    0.000    1.333    0.000    4.000   14.933    0.000 
#    9.600    0.000    0.000    0.000    0.000    0.000 
#    0.000    0.000    0.000    0.000    0.000    0.000 
#
# Total GULP energy -167364.015700 kJ/mol
# GULP energy per Si atom -5578.800523 kJ/mol
# Density = 2.480073 g / cm^3
# Si number density = 24.857302 Si / 1000 Ang^3
#
#
#
# Elastic Constant Matrix: (Units=GPa)
#
#
# Indices 1 2 3 4 5 6 
#
# 1 205.6889 5.2752 73.5409 0.0000 0.0000 0.0000
# 2 5.2752 31.7776 30.7330 0.0000 0.0000 0.0000
# 3 73.5409 30.7330 204.2632 0.0000 0.0000 0.0000
# 4 0.0000 0.0000 0.0000 17.2675 0.0000 0.0000
# 5 0.0000 0.0000 0.0000 0.0000 14.8595 0.0000
# 6 0.0000 0.0000 0.0000 0.0000 0.0000 44.1754
#
#
#
# Elastic Compliance Matrix: (Units=1/GPa)
#
#
# Indices 1 2 3 4 5 6 
#
# 1 0.005619 0.001198 -0.002203 0.000000 0.000000 0.000000
# 2 0.001198 0.037083 -0.006011 0.000000 0.000000 0.000000
# 3 -0.002203 -0.006011 0.006593 0.000000 0.000000 0.000000
# 4 0.000000 0.000000 0.000000 0.057912 0.000000 0.000000
# 5 0.000000 0.000000 0.000000 0.000000 0.067297 0.000000
# 6 0.000000 0.000000 0.000000 0.000000 0.000000 0.022637
#
#
# Mechanical properties :
#
#
# Convention : Reuss Voigt Hill
#
# Bulk Modulus (GPa) = 28.35822 73.42530 50.89176
# Shear Modulus (GPa) = 22.42882 37.40585 29.91733
#
# Velocity S-wave (km/s) = 3.00709 3.88341 3.47300
# Velocity P-wave (km/s) = 4.84665 7.05058 6.04982
#
# Compressibility (1/GPa) = 0.03526314
#
# Stress axis : x y z
#
# Youngs Moduli (GPa) = 177.97755 26.96652 151.67135
#
# Poissons Ratio (x) = -0.03231 0.33415
# Poissons Ratio (y) = -0.21322 0.91166
# Poissons Ratio (z) = 0.39211 0.16209
#
# Static dielectric constant tensor:
#      x y z
#    x 2.022160 0.000000 0.000000 
#    y 0.000000 2.016190 0.000000 
#    z 0.000000 0.000000 2.002690 
# 
# From -- ./inp_files/3818.got.cif
#   From: 2010.05.17/outbox.cif.g08.bks.cpg/sg66_2_cif.got.tgz:3818.got - 2010.06.03 17:51:23.
