data_PCOD9499202
_publ_section_title
;
Structure prediction by ZEFSAII (Michael W. Deem and Ramdas Pophale) SiO2 
 PCOD9499202
Probable space group: C C C M
;
_chemical_formula_sum "Si O2"
_cell_formula_units_Z 108
_cell_length_a 12.571513
_cell_length_b 14.850119
_cell_length_c 29.704759
_cell_angle_alpha 90.000000
_cell_angle_beta 90.000000
_cell_angle_gamma 90.000000
_cell_volume 5545.535833
_symmetry_space_group_name_H-M "C C C M"
_symmetry_group_IT_number 66
_symmetry_cell_setting 'orthorhombic'
loop_
_space_group_symop_operation_xyz
x,y,z
-x,-y,z
x,-y,1/2-z
-x,y,1/2-z
-x,-y,-z
x,y,-z
-x,y,1/2+z
x,-y,1/2+z
1/2+x,1/2+y,z
1/2-x,1/2-y,z
1/2+x,1/2-y,1/2-z
1/2-x,1/2+y,1/2-z
1/2-x,1/2-y,-z
1/2+x,1/2+y,-z
1/2-x,1/2+y,1/2+z
1/2+x,1/2-y,1/2+z
loop_
_atom_site_type_symbol
_atom_site_label
_atom_site_fract_x
_atom_site_fract_y
_atom_site_fract_z
Si Si1 0.871939 0.752561 0.387594
Si Si2 0.858973 0.654308 0.290673
Si Si3 0.773966 0.103870 0.446352
Si Si4 0.129247 0.933830 0.792057
Si Si5 0.500000 0.293365 0.250000
Si Si6 0.113234 0.033538 0.389129
Si Si7 0.000000 0.500000 0.250000
Si Si8 0.574495 0.773462 0.946207
O O1 0.750000 0.750000 0.404193
O O2 0.877187 0.700759 0.339473
O O3 0.889359 0.859473 0.385789
O O4 0.964970 0.716345 0.419624
O O5 0.736676 0.625072 0.289230
O O6 0.900461 0.724660 0.252452
O O7 0.927490 0.564730 0.280959
O O8 0.778759 0.089078 0.500000
O O9 0.660299 0.148659 0.435801
O O10 0.863736 0.179667 0.435352
O O11 0.798303 0.013276 0.419487
O O12 0.129332 0.992106 0.837119
O O13 0.030520 0.863896 0.789173
O O14 0.126864 0.000000 0.750000
O O15 0.000000 0.000000 0.406442
O O16 0.556434 0.773402 0.000000
#
# Coordination Sequence:
#
# PCOD9499202 Si02
#       8
#    16  16  16  16   8  16   4  16
#     4  12  23  41  64  93 135 170 205 269 332 386
#     4  11  23  43  64  87 125 167 215 263 320 385
#     4   9  20  41  68  98 131 169 217 270 324 384
#     4  12  24  41  63  91 123 168 214 263 313 375
#     4  11  21  39  63  86 120 160 201 263 319 365
#     4  12  23  39  65 101 130 164 217 269 329 386
#     4  10  24  44  66  90 112 172 226 260 316 392
#     4   9  20  41  67  95 131 173 216 265 320 389
#
# _framework density 19.475124000000001
#
# number of rings (size 3 to 8) (size 9 to 14) (size 15 to 20)
#    0.000    1.185    5.185    2.444    0.000    2.370 
#    0.000    0.000    0.000    1.778    0.000    0.000 
#    0.000    0.000    0.000    0.000    0.000    0.000 
#
# Total GULP energy -301002.247558 kJ/mol
# GULP energy per Si atom -5574.115696 kJ/mol
# Density = 1.943080 g / cm^3
# Si number density = 19.475124 Si / 1000 Ang^3
#
#
#
# Elastic Constant Matrix: (Units=GPa)
#
#
# Indices 1 2 3 4 5 6 
#
# 1 141.9087 49.1797 55.0467 0.0000 0.0000 0.0000
# 2 49.1797 109.1592 45.1883 0.0000 0.0000 0.0000
# 3 55.0467 45.1883 64.5056 0.0000 0.0000 0.0000
# 4 0.0000 0.0000 0.0000 19.3650 0.0000 0.0000
# 5 0.0000 0.0000 0.0000 0.0000 20.4520 0.0000
# 6 0.0000 0.0000 0.0000 0.0000 0.0000 34.0791
#
#
#
# Elastic Compliance Matrix: (Units=1/GPa)
#
#
# Indices 1 2 3 4 5 6 
#
# 1 0.010698 -0.001466 -0.008102 0.000000 0.000000 0.000000
# 2 -0.001466 0.013103 -0.007929 0.000000 0.000000 0.000000
# 3 -0.008102 -0.007929 0.027971 0.000000 0.000000 0.000000
# 4 0.000000 0.000000 0.000000 0.051639 0.000000 0.000000
# 5 0.000000 0.000000 0.000000 0.000000 0.048895 0.000000
# 6 0.000000 0.000000 0.000000 0.000000 0.000000 0.029343
#
#
# Mechanical properties :
#
#
# Convention : Reuss Voigt Hill
#
# Bulk Modulus (GPa) = 59.59844 68.26699 63.93271
# Shear Modulus (GPa) = 22.49860 25.85648 24.17754
#
# Velocity S-wave (km/s) = 3.40258 3.64767 3.52725
# Velocity P-wave (km/s) = 6.79010 7.27119 7.03476
#
# Compressibility (1/GPa) = 0.01677896
#
# Stress axis : x y z
#
# Youngs Moduli (GPa) = 93.47932 76.31569 35.75122
#
# Poissons Ratio (x) = 0.11184 0.28967
# Poissons Ratio (y) = 0.13700 0.28346
# Poissons Ratio (z) = 0.75739 0.60509
#
# Static dielectric constant tensor:
#      x y z
#    x 1.699610 0.000000 0.000000 
#    y 0.000000 1.715340 0.000000 
#    z 0.000000 0.000000 1.693060 
# 
# From -- ./inp_files/69112.got.cif
#   From: 2010.05.17/outbox.cif.g08.bks.cpg/sg66_35_cif.got.tgz:69112.got - 2010.06.03 17:51:23.
