data_PCOD9499432
_publ_section_title
;
Structure prediction by ZEFSAII (Michael W. Deem and Ramdas Pophale) SiO2 
 PCOD9499432
Probable space group: C C C M
;
_chemical_formula_sum "Si O2"
_cell_formula_units_Z 64
_cell_length_a 9.528772
_cell_length_b 11.068045
_cell_length_c 22.183479
_cell_angle_alpha 90.000000
_cell_angle_beta 90.000000
_cell_angle_gamma 90.000000
_cell_volume 2339.577891
_symmetry_space_group_name_H-M "C C C M"
_symmetry_group_IT_number 66
_symmetry_cell_setting 'orthorhombic'
loop_
_space_group_symop_operation_xyz
x,y,z
-x,-y,z
x,-y,1/2-z
-x,y,1/2-z
-x,-y,-z
x,y,-z
-x,y,1/2+z
x,-y,1/2+z
1/2+x,1/2+y,z
1/2-x,1/2-y,z
1/2+x,1/2-y,1/2-z
1/2-x,1/2+y,1/2-z
1/2-x,1/2-y,-z
1/2+x,1/2+y,-z
1/2-x,1/2+y,1/2+z
1/2+x,1/2-y,1/2+z
loop_
_atom_site_type_symbol
_atom_site_label
_atom_site_fract_x
_atom_site_fract_y
_atom_site_fract_z
Si Si1 0.980279 0.695906 0.000000
Si Si2 0.750000 0.250000 0.685522
Si Si3 0.423267 0.871566 0.130022
Si Si4 0.340560 0.493883 0.869427
Si Si5 0.000000 0.770279 0.750000
Si Si6 0.695964 0.441393 0.500000
O O1 0.061501 0.687910 0.935930
O O2 0.861469 0.590167 0.000000
O O3 0.891411 0.818249 0.000000
O O4 0.733761 0.363273 0.638985
O O5 0.651072 0.321436 0.735854
O O6 0.495322 0.803537 0.186485
O O7 0.500000 0.000000 0.125441
O O8 0.265594 0.902112 0.149883
O O9 0.500000 0.500000 0.845624
O O10 0.344119 0.512827 0.940853
#
# Coordination Sequence:
#
# PCOD9499432 Si02
#       6
#     8   8  16  16   8   8
#     4  11  22  42  80 106 143 201 240 302 378 443
#     4  12  28  49  72 105 146 194 248 310 380 442
#     4  12  23  45  74 105 144 194 248 296 375 449
#     4  12  27  46  73 108 149 192 245 309 371 446
#     4  12  27  48  73 106 144 194 245 308 372 447
#     4  11  20  41  70 109 149 183 245 304 366 446
#
# _framework density 27.355360999999998
#
# number of rings (size 3 to 8) (size 9 to 14) (size 15 to 20)
#    0.000    0.250    5.000    4.875    3.500    0.000 
#    0.000    1.250    0.000    0.000    0.000    0.000 
#    0.000    0.000    0.000    0.000    0.000    0.000 
#
# Total GULP energy -178634.020225 kJ/mol
# GULP energy per Si atom -5582.313132 kJ/mol
# Density = 2.729310 g / cm^3
# Si number density = 27.355361 Si / 1000 Ang^3
#
#
#
# Elastic Constant Matrix: (Units=GPa)
#
#
# Indices 1 2 3 4 5 6 
#
# 1 106.5776 9.1638 21.1709 0.0000 0.0000 0.0000
# 2 9.1638 72.0982 37.1026 0.0000 0.0000 0.0000
# 3 21.1709 37.1026 194.9824 0.0000 0.0000 0.0000
# 4 0.0000 0.0000 0.0000 69.9770 0.0000 0.0000
# 5 0.0000 0.0000 0.0000 0.0000 56.5859 0.0000
# 6 0.0000 0.0000 0.0000 0.0000 0.0000 -164.1545
#
#
#
# Elastic Compliance Matrix: (Units=1/GPa)
#
#
# Indices 1 2 3 4 5 6 
#
# 1 0.009627 -0.000760 -0.000901 0.000000 0.000000 0.000000
# 2 -0.000760 0.015436 -0.002855 0.000000 0.000000 0.000000
# 3 -0.000901 -0.002855 0.005770 0.000000 0.000000 0.000000
# 4 0.000000 0.000000 0.000000 0.014290 0.000000 0.000000
# 5 0.000000 0.000000 0.000000 0.000000 0.017672 0.000000
# 6 0.000000 0.000000 0.000000 0.000000 0.000000 -0.006092
#
#
# Mechanical properties :
#
#
# Convention : Reuss Voigt Hill
#
# Bulk Modulus (GPa) = 45.86842 56.50364 51.18603
# Shear Modulus (GPa) = 68.49193 12.89641 40.69417
#
# Velocity S-wave (km/s) = 5.00921 2.17362 3.86114
# Velocity P-wave (km/s) = 7.08945 5.19613 6.21531
#
# Compressibility (1/GPa) = 0.02180149
#
# Stress axis : x y z
#
# Youngs Moduli (GPa) = 103.87346 64.78514 173.32030
#
# Poissons Ratio (x) = 0.04925 0.15610
# Poissons Ratio (y) = 0.07896 0.49477
# Poissons Ratio (z) = 0.09355 0.18494
#
# Static dielectric constant tensor:
#      x y z
#    x 2.313560 0.000000 0.000000 
#    y 0.000000 2.045070 0.000000 
#    z 0.000000 0.000000 3.335380 
# 
# From -- ./inp_files/46696.got.cif
#   From: 2010.05.17/outbox.cif.g08.bks.cpg/sg66_24_cif.got.tgz:46696.got - 2010.06.03 17:51:23.
