data_PCOD9499371
_publ_section_title
;
Structure prediction by ZEFSAII (Michael W. Deem and Ramdas Pophale) SiO2 
 PCOD9499371
Probable space group: C C C M
;
_chemical_formula_sum "Si O2"
_cell_formula_units_Z 80
_cell_length_a 24.110223
_cell_length_b 11.713051
_cell_length_c 14.549975
_cell_angle_alpha 90.000000
_cell_angle_beta 90.000000
_cell_angle_gamma 90.000000
_cell_volume 4108.975092
_symmetry_space_group_name_H-M "C C C M"
_symmetry_group_IT_number 66
_symmetry_cell_setting 'orthorhombic'
loop_
_space_group_symop_operation_xyz
x,y,z
-x,-y,z
x,-y,1/2-z
-x,y,1/2-z
-x,-y,-z
x,y,-z
-x,y,1/2+z
x,-y,1/2+z
1/2+x,1/2+y,z
1/2-x,1/2-y,z
1/2+x,1/2-y,1/2-z
1/2-x,1/2+y,1/2-z
1/2-x,1/2-y,-z
1/2+x,1/2+y,-z
1/2-x,1/2+y,1/2+z
1/2+x,1/2-y,1/2+z
loop_
_atom_site_type_symbol
_atom_site_label
_atom_site_fract_x
_atom_site_fract_y
_atom_site_fract_z
Si Si1 0.696149 0.171633 0.000000
Si Si2 0.488590 0.679029 0.352051
Si Si3 0.594499 0.413943 0.500000
Si Si4 0.813206 0.712481 0.000000
Si Si5 0.553508 0.922845 0.108806
Si Si6 0.172189 0.514137 0.353275
Si Si7 0.086156 0.825036 0.000000
O O1 0.750000 0.250000 0.000000
O O2 0.696435 0.087729 0.913131
O O3 0.637803 0.239426 0.000000
O O4 0.500000 0.636101 0.250000
O O5 0.445621 0.605552 0.412251
O O6 0.459161 0.802686 0.344455
O O7 0.544725 0.690886 0.412723
O O8 0.643773 0.319474 0.500000
O O9 0.610555 0.546483 0.500000
O O10 0.750000 0.750000 0.000000
O O11 0.819575 0.632378 0.090588
O O12 0.605521 0.991645 0.146091
O O13 0.500000 0.000000 0.116595
O O14 0.563206 0.899033 0.000000
O O15 0.192940 0.500000 0.250000
#
# Coordination Sequence:
#
# PCOD9499371 Si02
#       7
#     8  16   8   8  16  16   8
#     4  11  26  46  67  93 128 171 217 268 326 373
#     4  11  22  38  61  92 132 166 206 261 318 382
#     4  11  23  43  62  92 127 171 224 257 310 387
#     4  11  24  45  72  92 124 175 218 267 324 376
#     4  11  20  34  60  94 130 167 201 250 319 382
#     4  11  24  43  68  98 130 158 210 273 320 380
#     4  11  25  40  63  91 129 174 217 260 308 389
#
# _framework density 19.469574999999999
#
# number of rings (size 3 to 8) (size 9 to 14) (size 15 to 20)
#    0.000    1.000    6.000    2.400    8.400    2.400 
#    0.000    0.000    0.000    0.000    0.000    0.000 
#    0.000    0.000    0.000    0.000    0.000    0.000 
#
# Total GULP energy -223471.576965 kJ/mol
# GULP energy per Si atom -5586.789424 kJ/mol
# Density = 1.942526 g / cm^3
# Si number density = 19.469575 Si / 1000 Ang^3
#
#
#
# Elastic Constant Matrix: (Units=GPa)
#
#
# Indices 1 2 3 4 5 6 
#
# 1 103.5532 22.1087 41.8188 0.0000 0.0000 0.0000
# 2 22.1087 79.8159 35.6889 0.0000 0.0000 0.0000
# 3 41.8188 35.6889 163.6855 0.0000 0.0000 0.0000
# 4 0.0000 0.0000 0.0000 -2.9362 0.0000 0.0000
# 5 0.0000 0.0000 0.0000 0.0000 2.8134 0.0000
# 6 0.0000 0.0000 0.0000 0.0000 0.0000 36.3652
#
#
#
# Elastic Compliance Matrix: (Units=1/GPa)
#
#
# Indices 1 2 3 4 5 6 
#
# 1 0.011046 -0.001992 -0.002388 0.000000 0.000000 0.000000
# 2 -0.001992 0.014242 -0.002596 0.000000 0.000000 0.000000
# 3 -0.002388 -0.002596 0.007285 0.000000 0.000000 0.000000
# 4 0.000000 0.000000 0.000000 -0.340571 0.000000 0.000000
# 5 0.000000 0.000000 0.000000 0.000000 0.355442 0.000000
# 6 0.000000 0.000000 0.000000 0.000000 0.000000 0.027499
#
#
# Mechanical properties :
#
#
# Convention : Reuss Voigt Hill
#
# Bulk Modulus (GPa) = 53.70252 60.69859 57.20056
# Shear Modulus (GPa) = 52.57481 23.74435 38.15958
#
# Velocity S-wave (km/s) = 5.20213 3.49601 4.43195
# Velocity P-wave (km/s) = 7.98283 6.89492 7.45874
#
# Compressibility (1/GPa) = 0.01862110
#
# Stress axis : x y z
#
# Youngs Moduli (GPa) = 90.52642 70.21730 137.26126
#
# Poissons Ratio (x) = 0.13988 0.32776
# Poissons Ratio (y) = 0.18034 0.35635
# Poissons Ratio (z) = 0.21616 0.18230
#
# Static dielectric constant tensor:
#      x y z
#    x 1.690540 0.000000 0.000000 
#    y 0.000000 1.703170 0.000000 
#    z 0.000000 0.000000 1.740690 
# 
# From -- ./inp_files/26476.got.cif
#   From: 2010.05.17/outbox.cif.g08.bks.cpg/sg66_14_cif.got.tgz:26476.got - 2010.06.03 17:51:23.
