data_PCOD9499215
_publ_section_title
;
Structure prediction by ZEFSAII (Michael W. Deem and Ramdas Pophale) SiO2 
 PCOD9499215
Probable space group: C C C M
;
_chemical_formula_sum "Si O2"
_cell_formula_units_Z 56
_cell_length_a 29.727359
_cell_length_b 5.186963
_cell_length_c 14.514524
_cell_angle_alpha 90.000000
_cell_angle_beta 90.000000
_cell_angle_gamma 90.000000
_cell_volume 2238.062837
_symmetry_space_group_name_H-M "C C C M"
_symmetry_group_IT_number 66
_symmetry_cell_setting 'orthorhombic'
loop_
_space_group_symop_operation_xyz
x,y,z
-x,-y,z
x,-y,1/2-z
-x,y,1/2-z
-x,-y,-z
x,y,-z
-x,y,1/2+z
x,-y,1/2+z
1/2+x,1/2+y,z
1/2-x,1/2-y,z
1/2+x,1/2-y,1/2-z
1/2-x,1/2+y,1/2-z
1/2-x,1/2-y,-z
1/2+x,1/2+y,-z
1/2-x,1/2+y,1/2+z
1/2+x,1/2-y,1/2+z
loop_
_atom_site_type_symbol
_atom_site_label
_atom_site_fract_x
_atom_site_fract_y
_atom_site_fract_z
Si Si1 0.874228 0.909882 0.149737
Si Si2 0.336089 0.732034 0.000000
Si Si3 0.790967 0.559133 0.140946
Si Si4 0.028728 0.254297 0.889247
O O1 0.836203 0.716021 0.113211
O O2 0.922264 0.774743 0.154203
O O3 0.860112 0.000000 0.250000
O O4 0.872864 0.146458 0.079959
O O5 0.299052 0.805598 0.918800
O O6 0.789504 0.500000 0.250000
O O7 0.750000 0.750000 0.118330
O O8 0.000000 0.500000 0.860184
O O9 0.035675 0.270646 0.000000
O O10 0.000000 0.000000 0.869435
#
# Coordination Sequence:
#
# PCOD9499215 Si02
#       4
#    16   8  16  16
#     4  12  26  48  77 115 156 209 268 333 405 492
#     4  12  27  49  81 110 157 210 257 337 405 487
#     4  12  28  49  77 113 158 205 268 333 406 493
#     4  10  24  44  76 112 155 206 263 326 402 485
#
# _framework density 25.021636000000001
#
# number of rings (size 3 to 8) (size 9 to 14) (size 15 to 20)
#    0.000    0.571    4.286    2.143    4.000    1.714 
#    0.000    1.429    0.000    0.000    0.000    0.000 
#    0.000    0.000    0.000    0.000    0.000    0.000 
#
# Total GULP energy -155983.927782 kJ/mol
# GULP energy per Si atom -5570.854564 kJ/mol
# Density = 2.496469 g / cm^3
# Si number density = 25.021636 Si / 1000 Ang^3
#
#
#
# Elastic Constant Matrix: (Units=GPa)
#
#
# Indices 1 2 3 4 5 6 
#
# 1 139.5833 26.0047 -28.7821 0.0000 0.0000 0.0000
# 2 26.0047 84.3954 -5.9664 0.0000 0.0000 0.0000
# 3 -28.7821 -5.9664 159.5676 0.0000 0.0000 0.0000
# 4 0.0000 0.0000 0.0000 -459.3989 0.0000 0.0000
# 5 0.0000 0.0000 0.0000 0.0000 -21.0905 0.0000
# 6 0.0000 0.0000 0.0000 0.0000 0.0000 50.0550
#
#
#
# Elastic Compliance Matrix: (Units=1/GPa)
#
#
# Indices 1 2 3 4 5 6 
#
# 1 0.007873 -0.002332 0.001333 0.000000 0.000000 0.000000
# 2 -0.002332 0.012571 0.000049 0.000000 0.000000 0.000000
# 3 0.001333 0.000049 0.006509 0.000000 0.000000 0.000000
# 4 0.000000 0.000000 0.000000 -0.002177 0.000000 0.000000
# 5 0.000000 0.000000 0.000000 0.000000 -0.047415 0.000000
# 6 0.000000 0.000000 0.000000 0.000000 0.000000 0.019978
#
#
# Mechanical properties :
#
#
# Convention : Reuss Voigt Hill
#
# Bulk Modulus (GPa) = 39.91231 40.67317 40.29274
# Shear Modulus (GPa) = 658.70160 -59.93420 299.38370
#
# Velocity S-wave (km/s) = 16.24267 -4.89948 10.95033
# Velocity P-wave (km/s) = 19.17685 3.96435 13.26717
#
# Compressibility (1/GPa) = 0.02505492
#
# Stress axis : x y z
#
# Youngs Moduli (GPa) = 127.00884 79.54834 153.62812
#
# Poissons Ratio (x) = 0.18549 -0.20479
# Poissons Ratio (y) = 0.29616 -0.00760
# Poissons Ratio (z) = -0.16930 -0.00393
#
# Static dielectric constant tensor:
#      x y z
#    x 1.952690 0.000000 0.000000 
#    y 0.000000 2.188340 0.000000 
#    z 0.000000 0.000000 1.932100 
# 
# From -- ./inp_files/33513.got.cif
#   From: 2010.05.17/outbox.cif.g08.bks.cpg/sg66_17_cif.got.tgz:33513.got - 2010.06.03 17:51:23.
