data_PCOD9499352
_publ_section_title
;
Structure prediction by ZEFSAII (Michael W. Deem and Ramdas Pophale) SiO2 
 PCOD9499352
Probable space group: C C C M
;
_chemical_formula_sum "Si O2"
_cell_formula_units_Z 80
_cell_length_a 9.192617
_cell_length_b 22.799336
_cell_length_c 22.744985
_cell_angle_alpha 90.000000
_cell_angle_beta 90.000000
_cell_angle_gamma 90.000000
_cell_volume 4767.020503
_symmetry_space_group_name_H-M "C C C M"
_symmetry_group_IT_number 66
_symmetry_cell_setting 'orthorhombic'
loop_
_space_group_symop_operation_xyz
x,y,z
-x,-y,z
x,-y,1/2-z
-x,y,1/2-z
-x,-y,-z
x,y,-z
-x,y,1/2+z
x,-y,1/2+z
1/2+x,1/2+y,z
1/2-x,1/2-y,z
1/2+x,1/2-y,1/2-z
1/2-x,1/2+y,1/2-z
1/2-x,1/2-y,-z
1/2+x,1/2+y,-z
1/2-x,1/2+y,1/2+z
1/2+x,1/2-y,1/2+z
loop_
_atom_site_type_symbol
_atom_site_label
_atom_site_fract_x
_atom_site_fract_y
_atom_site_fract_z
Si Si1 0.668683 0.503891 0.626951
Si Si2 0.277564 0.026229 0.000000
Si Si3 0.884808 0.424052 0.698095
Si Si4 0.850858 0.379472 0.123769
Si Si5 0.169888 0.690300 0.761771
Si Si6 0.060024 0.399136 0.500000
O O1 0.500000 0.500000 0.643060
O O2 0.691116 0.475446 0.561780
O O3 0.773183 0.471350 0.673743
O O4 0.728249 0.570267 0.624772
O O5 0.391684 0.080226 0.000000
O O6 0.361683 0.963367 0.000000
O O7 0.797937 0.367190 0.722169
O O8 0.000000 0.439052 0.750000
O O9 0.996681 0.407412 0.646448
O O10 0.811291 0.329592 0.170567
O O11 0.886933 0.364479 0.057080
O O12 0.250000 0.750000 0.747636
O O13 0.000000 0.700146 0.750000
#
# Coordination Sequence:
#
# PCOD9499352 Si02
#       6
#    16   8  16  16  16   8
#     4  11  20  30  48  81 113 135 162 209 264 298
#     4   9  17  28  48  76 110 139 167 198 244 311
#     4   9  19  34  50  70  97 137 174 208 242 306
#     4   9  18  32  51  74 101 136 173 200 240 313
#     4   9  20  36  53  70  92 126 172 218 257 297
#     4   9  14  28  53  74  96 141 177 195 235 305
#
# _framework density 16.781972
#
# number of rings (size 3 to 8) (size 9 to 14) (size 15 to 20)
#    0.000    3.000    2.000    0.900    0.000    8.000 
#    0.000    7.500    0.000    0.000    0.000   17.500 
#    0.000    0.000    0.000    0.000    0.000    0.000 
#
# Total GULP energy -222688.806093 kJ/mol
# GULP energy per Si atom -5567.220152 kJ/mol
# Density = 1.674378 g / cm^3
# Si number density = 16.781972 Si / 1000 Ang^3
#
#
#
# Elastic Constant Matrix: (Units=GPa)
#
#
# Indices 1 2 3 4 5 6 
#
# 1 54.7577 19.0807 30.7145 0.0000 0.0000 0.0000
# 2 19.0807 57.3081 20.4831 0.0000 0.0000 0.0000
# 3 30.7145 20.4831 105.9599 0.0000 0.0000 0.0000
# 4 0.0000 0.0000 0.0000 9.1256 0.0000 0.0000
# 5 0.0000 0.0000 0.0000 0.0000 14.8866 0.0000
# 6 0.0000 0.0000 0.0000 0.0000 0.0000 25.4181
#
#
#
# Elastic Compliance Matrix: (Units=1/GPa)
#
#
# Indices 1 2 3 4 5 6 
#
# 1 0.023465 -0.005781 -0.005684 0.000000 0.000000 0.000000
# 2 -0.005781 0.020169 -0.002223 0.000000 0.000000 0.000000
# 3 -0.005684 -0.002223 0.011515 0.000000 0.000000 0.000000
# 4 0.000000 0.000000 0.000000 0.109581 0.000000 0.000000
# 5 0.000000 0.000000 0.000000 0.000000 0.067174 0.000000
# 6 0.000000 0.000000 0.000000 0.000000 0.000000 0.039342
#
#
# Mechanical properties :
#
#
# Convention : Reuss Voigt Hill
#
# Bulk Modulus (GPa) = 36.00726 39.84248 37.92487
# Shear Modulus (GPa) = 16.24004 19.73590 17.98797
#
# Velocity S-wave (km/s) = 3.11417 3.43303 3.27748
# Velocity P-wave (km/s) = 5.86799 6.28546 6.08031
#
# Compressibility (1/GPa) = 0.02777217
#
# Stress axis : x y z
#
# Youngs Moduli (GPa) = 42.61650 49.58128 86.84347
#
# Poissons Ratio (x) = 0.28663 0.49364
# Poissons Ratio (y) = 0.24637 0.19306
# Poissons Ratio (z) = 0.24224 0.11022
#
# Static dielectric constant tensor:
#      x y z
#    x 1.554720 0.000000 0.000000 
#    y 0.000000 1.564800 0.000000 
#    z 0.000000 0.000000 1.624120 
# 
# From -- ./inp_files/47077.got.cif
#   From: 2010.05.17/outbox.cif.g08.bks.cpg/sg66_24_cif.got.tgz:47077.got - 2010.06.03 17:51:23.
