data_PCOD9499273
_publ_section_title
;
Structure prediction by ZEFSAII (Michael W. Deem and Ramdas Pophale) SiO2 
 PCOD9499273
Probable space group: C C C M
;
_chemical_formula_sum "Si O2"
_cell_formula_units_Z 88
_cell_length_a 21.703424
_cell_length_b 10.688953
_cell_length_c 18.695558
_cell_angle_alpha 90.000000
_cell_angle_beta 90.000000
_cell_angle_gamma 90.000000
_cell_volume 4337.124153
_symmetry_space_group_name_H-M "C C C M"
_symmetry_group_IT_number 66
_symmetry_cell_setting 'orthorhombic'
loop_
_space_group_symop_operation_xyz
x,y,z
-x,-y,z
x,-y,1/2-z
-x,y,1/2-z
-x,-y,-z
x,y,-z
-x,y,1/2+z
x,-y,1/2+z
1/2+x,1/2+y,z
1/2-x,1/2-y,z
1/2+x,1/2-y,1/2-z
1/2-x,1/2+y,1/2-z
1/2-x,1/2-y,-z
1/2+x,1/2+y,-z
1/2-x,1/2+y,1/2+z
1/2+x,1/2-y,1/2+z
loop_
_atom_site_type_symbol
_atom_site_label
_atom_site_fract_x
_atom_site_fract_y
_atom_site_fract_z
Si Si1 0.038521 0.370991 0.582861
Si Si2 0.151183 0.594567 0.813852
Si Si3 0.842258 0.948454 0.828496
Si Si4 0.250000 0.750000 0.725313
Si Si5 0.457586 0.621551 0.582964
Si Si6 0.244570 0.900498 0.081120
O O1 0.062358 0.370366 0.500000
O O2 0.091797 0.362635 0.642161
O O3 0.000000 0.500000 0.591838
O O4 0.995334 0.249748 0.590649
O O5 0.134073 0.500000 0.750000
O O6 0.195634 0.693192 0.773970
O O7 0.197512 0.544811 0.875198
O O8 0.784751 0.855050 0.819418
O O9 0.899765 0.882691 0.864807
O O10 0.857248 0.000000 0.750000
O O11 0.817421 0.059590 0.878465
O O12 0.500000 0.500000 0.597302
O O13 0.437324 0.612448 0.500000
O O14 0.250000 0.750000 0.079827
O O15 0.243704 0.945913 0.000000
#
# Coordination Sequence:
#
# PCOD9499273 Si02
#       6
#    16  16  16   8  16  16
#     4  10  25  49  72 100 136 181 236 285 339 413
#     4  12  23  43  68  99 137 177 221 283 340 408
#     4  12  24  44  67  99 142 178 223 285 342 407
#     4  12  24  44  66  96 144 172 220 276 342 408
#     4  10  25  47  71 101 137 180 232 287 342 407
#     4  11  22  39  67  99 131 179 227 271 335 404
#
# _framework density 20.289942
#
# number of rings (size 3 to 8) (size 9 to 14) (size 15 to 20)
#    0.000    0.909    4.545    1.091    7.636    0.727 
#    0.000    1.818    0.000    0.000    0.000    0.000 
#    0.000    0.000    0.000    0.000    0.000    0.000 
#
# Total GULP energy -245831.291767 kJ/mol
# GULP energy per Si atom -5587.074813 kJ/mol
# Density = 2.024376 g / cm^3
# Si number density = 20.289942 Si / 1000 Ang^3
#
#
#
# Elastic Constant Matrix: (Units=GPa)
#
#
# Indices 1 2 3 4 5 6 
#
# 1 108.1946 53.0434 77.3472 0.0000 0.0000 0.0000
# 2 53.0434 110.9931 53.1878 0.0000 0.0000 0.0000
# 3 77.3472 53.1878 143.8328 0.0000 0.0000 0.0000
# 4 0.0000 0.0000 0.0000 11.1713 0.0000 0.0000
# 5 0.0000 0.0000 0.0000 0.0000 234.4392 0.0000
# 6 0.0000 0.0000 0.0000 0.0000 0.0000 26.5413
#
#
#
# Elastic Compliance Matrix: (Units=1/GPa)
#
#
# Indices 1 2 3 4 5 6 
#
# 1 0.016650 -0.004456 -0.007306 0.000000 0.000000 0.000000
# 2 -0.004456 0.012143 -0.002094 0.000000 0.000000 0.000000
# 3 -0.007306 -0.002094 0.011656 0.000000 0.000000 0.000000
# 4 0.000000 0.000000 0.000000 0.089515 0.000000 0.000000
# 5 0.000000 0.000000 0.000000 0.000000 0.004265 0.000000
# 6 0.000000 0.000000 0.000000 0.000000 0.000000 0.037677
#
#
# Mechanical properties :
#
#
# Convention : Reuss Voigt Hill
#
# Bulk Modulus (GPa) = 78.51443 81.13081 79.82262
# Shear Modulus (GPa) = 24.52624 66.39316 45.45970
#
# Velocity S-wave (km/s) = 3.48053 5.72654 4.73853
# Velocity P-wave (km/s) = 7.41164 9.15406 8.32854
#
# Compressibility (1/GPa) = 0.01273651
#
# Stress axis : x y z
#
# Youngs Moduli (GPa) = 60.05941 82.35533 85.79531
#
# Poissons Ratio (x) = 0.36698 0.62682
# Poissons Ratio (y) = 0.26763 0.17965
# Poissons Ratio (z) = 0.43879 0.17244
#
# Static dielectric constant tensor:
#      x y z
#    x 1.699160 0.000000 0.000000 
#    y 0.000000 1.761900 0.000000 
#    z 0.000000 0.000000 1.741800 
# 
# From -- ./inp_files/42755.got.cif
#   From: 2010.05.17/outbox.cif.g08.bks.cpg/sg66_22_cif.got.tgz:42755.got - 2010.06.03 17:51:23.
