data_PCOD9499311
_publ_section_title
;
Structure prediction by ZEFSAII (Michael W. Deem and Ramdas Pophale) SiO2 
 PCOD9499311
Probable space group: C C C M
;
_chemical_formula_sum "Si O2"
_cell_formula_units_Z 80
_cell_length_a 15.831659
_cell_length_b 11.977859
_cell_length_c 21.948804
_cell_angle_alpha 90.000000
_cell_angle_beta 90.000000
_cell_angle_gamma 90.000000
_cell_volume 4162.138078
_symmetry_space_group_name_H-M "C C C M"
_symmetry_group_IT_number 66
_symmetry_cell_setting 'orthorhombic'
loop_
_space_group_symop_operation_xyz
x,y,z
-x,-y,z
x,-y,1/2-z
-x,y,1/2-z
-x,-y,-z
x,y,-z
-x,y,1/2+z
x,-y,1/2+z
1/2+x,1/2+y,z
1/2-x,1/2-y,z
1/2+x,1/2-y,1/2-z
1/2-x,1/2+y,1/2-z
1/2-x,1/2-y,-z
1/2+x,1/2+y,-z
1/2-x,1/2+y,1/2+z
1/2+x,1/2-y,1/2+z
loop_
_atom_site_type_symbol
_atom_site_label
_atom_site_fract_x
_atom_site_fract_y
_atom_site_fract_z
Si Si1 0.622374 0.590491 0.000000
Si Si2 0.210431 0.867694 0.625276
Si Si3 0.537553 0.612687 0.182291
Si Si4 0.926076 0.845976 0.500000
Si Si5 0.126739 0.476457 0.927564
Si Si6 0.476970 0.813869 0.899004
O O1 0.662343 0.641093 0.060493
O O2 0.523688 0.615793 0.000000
O O3 0.630823 0.455760 0.000000
O O4 0.250000 0.750000 0.643167
O O5 0.138282 0.899384 0.673698
O O6 0.287935 0.947784 0.608147
O O7 0.500000 0.500000 0.150929
O O8 0.500000 0.613391 0.250000
O O9 0.508325 0.729310 0.152750
O O10 0.921647 0.766105 0.557777
O O11 0.081598 0.577614 0.891848
O O12 0.061855 0.371249 0.926334
O O13 0.139731 0.502262 0.000000
#
# Coordination Sequence:
#
# PCOD9499311 Si02
#       6
#     8  16  16   8  16  16
#     4  11  21  29  57  98 131 160 212 259 308 395
#     4  12  22  38  65  96 127 167 215 263 318 389
#     4  11  25  46  66  87 121 172 230 278 315 370
#     4  11  18  32  55  91 130 177 201 244 328 389
#     4  11  21  36  62 104 140 166 201 255 326 398
#     4  11  20  38  63  94 134 175 207 256 324 393
#
# _framework density 19.220891000000002
#
# number of rings (size 3 to 8) (size 9 to 14) (size 15 to 20)
#    0.000    0.800    7.000    2.100    0.000    0.000 
#    0.000   11.000    0.000    0.000    0.000    0.000 
#    0.000    0.000    0.000    0.000    0.000    0.000 
#
# Total GULP energy -222956.550348 kJ/mol
# GULP energy per Si atom -5573.913759 kJ/mol
# Density = 1.917714 g / cm^3
# Si number density = 19.220891 Si / 1000 Ang^3
#
#
#
# Elastic Constant Matrix: (Units=GPa)
#
#
# Indices 1 2 3 4 5 6 
#
# 1 129.5941 47.1141 30.0030 0.0000 0.0000 0.0000
# 2 47.1141 125.8606 18.9221 0.0000 0.0000 0.0000
# 3 30.0030 18.9221 55.6768 0.0000 0.0000 0.0000
# 4 0.0000 0.0000 0.0000 22.6693 0.0000 0.0000
# 5 0.0000 0.0000 0.0000 0.0000 -10.3124 0.0000
# 6 0.0000 0.0000 0.0000 0.0000 0.0000 40.8809
#
#
#
# Elastic Compliance Matrix: (Units=1/GPa)
#
#
# Indices 1 2 3 4 5 6 
#
# 1 0.009803 -0.003030 -0.004253 0.000000 0.000000 0.000000
# 2 -0.003030 0.009310 -0.001531 0.000000 0.000000 0.000000
# 3 -0.004253 -0.001531 0.020773 0.000000 0.000000 0.000000
# 4 0.000000 0.000000 0.000000 0.044112 0.000000 0.000000
# 5 0.000000 0.000000 0.000000 0.000000 -0.096971 0.000000
# 6 0.000000 0.000000 0.000000 0.000000 0.000000 0.024461
#
#
# Mechanical properties :
#
#
# Convention : Reuss Voigt Hill
#
# Bulk Modulus (GPa) = 44.92869 55.91221 50.42045
# Shear Modulus (GPa) = 136.85649 24.98706 80.92178
#
# Velocity S-wave (km/s) = 8.44728 3.60946 6.49556
# Velocity P-wave (km/s) = 10.88888 6.82080 9.08546
#
# Compressibility (1/GPa) = 0.02225749
#
# Stress axis : x y z
#
# Youngs Moduli (GPa) = 102.01452 107.41406 48.13992
#
# Poissons Ratio (x) = 0.32548 0.20472
# Poissons Ratio (y) = 0.30911 0.07371
# Poissons Ratio (z) = 0.43382 0.16447
#
# Static dielectric constant tensor:
#      x y z
#    x 1.691540 0.000000 0.000000 
#    y 0.000000 1.730690 0.000000 
#    z 0.000000 0.000000 1.682100 
# 
# From -- ./inp_files/57961.got.cif
#   From: 2010.05.17/outbox.cif.g08.bks.cpg/sg66_29_cif.got.tgz:57961.got - 2010.06.03 17:51:23.
