data_PCOD9499564
_publ_section_title
;
Structure prediction by ZEFSAII (Michael W. Deem and Ramdas Pophale) SiO2 
 PCOD9499564
Probable space group: C C C M
;
_chemical_formula_sum "Si O2"
_cell_formula_units_Z 64
_cell_length_a 26.746596
_cell_length_b 6.859678
_cell_length_c 18.042229
_cell_angle_alpha 90.000000
_cell_angle_beta 90.000000
_cell_angle_gamma 90.000000
_cell_volume 3310.262534
_symmetry_space_group_name_H-M "C C C M"
_symmetry_group_IT_number 66
_symmetry_cell_setting 'orthorhombic'
loop_
_space_group_symop_operation_xyz
x,y,z
-x,-y,z
x,-y,1/2-z
-x,y,1/2-z
-x,-y,-z
x,y,-z
-x,y,1/2+z
x,-y,1/2+z
1/2+x,1/2+y,z
1/2-x,1/2-y,z
1/2+x,1/2-y,1/2-z
1/2-x,1/2+y,1/2-z
1/2-x,1/2-y,-z
1/2+x,1/2+y,-z
1/2-x,1/2+y,1/2+z
1/2+x,1/2-y,1/2+z
loop_
_atom_site_type_symbol
_atom_site_label
_atom_site_fract_x
_atom_site_fract_y
_atom_site_fract_z
Si Si1 0.133823 0.152112 0.082668
Si Si2 0.606463 0.957278 0.663285
Si Si3 0.042164 0.851943 0.915160
Si Si4 0.192549 0.801434 0.910450
O O1 0.113098 0.332419 0.126922
O O2 0.090933 0.988238 0.079959
O O3 0.180949 0.026725 0.110134
O O4 0.145146 0.223274 0.000000
O O5 0.558981 0.834105 0.632576
O O6 0.655121 0.834491 0.636302
O O7 0.603758 0.000000 0.750000
O O8 0.028147 0.794167 0.000000
O O9 0.000000 0.000000 0.885581
O O10 0.250000 0.750000 0.898157
O O11 0.182378 0.781256 0.000000
#
# Coordination Sequence:
#
# PCOD9499564 Si02
#       4
#    16  16  16  16
#     4   9  18  35  59  81 108 148 192 246 293 343
#     4  11  22  36  53  84 120 152 185 242 311 370
#     4   9  19  37  60  83 109 148 199 247 288 348
#     4   9  19  37  58  82 111 150 202 248 287 350
#
# _framework density 19.333814
#
# number of rings (size 3 to 8) (size 9 to 14) (size 15 to 20)
#    0.000    2.500    0.000    3.750    0.000    6.000 
#    4.500   11.250    0.000    0.000    0.000    0.000 
#    0.000    0.000    0.000    0.000    0.000    0.000 
#
# Total GULP energy -178318.621362 kJ/mol
# GULP energy per Si atom -5572.456918 kJ/mol
# Density = 1.928981 g / cm^3
# Si number density = 19.333814 Si / 1000 Ang^3
#
#
#
# Elastic Constant Matrix: (Units=GPa)
#
#
# Indices 1 2 3 4 5 6 
#
# 1 90.0463 31.6171 21.2185 0.0000 0.0000 0.0000
# 2 31.6171 126.6471 68.8069 0.0000 0.0000 0.0000
# 3 21.2185 68.8069 88.1666 0.0000 0.0000 0.0000
# 4 0.0000 0.0000 0.0000-1480.2240 0.0000 0.0000
# 5 0.0000 0.0000 0.0000 0.0000 17.2009 0.0000
# 6 0.0000 0.0000 0.0000 0.0000 0.0000 39.7497
#
#
#
# Elastic Compliance Matrix: (Units=1/GPa)
#
#
# Indices 1 2 3 4 5 6 
#
# 1 0.012220 -0.002522 -0.000972 0.000000 0.000000 0.000000
# 2 -0.002522 0.014229 -0.010497 0.000000 0.000000 0.000000
# 3 -0.000972 -0.010497 0.019769 0.000000 0.000000 0.000000
# 4 0.000000 0.000000 0.000000 -0.000676 0.000000 0.000000
# 5 0.000000 0.000000 0.000000 0.000000 0.058137 0.000000
# 6 0.000000 0.000000 0.000000 0.000000 0.000000 0.025157
#
#
# Mechanical properties :
#
#
# Convention : Reuss Voigt Hill
#
# Bulk Modulus (GPa) = 54.84520 60.90500 57.87510
# Shear Modulus (GPa) = 30.69397 -272.44018 -120.87311
#
# Velocity S-wave (km/s) = 3.98877 -11.88359 -7.91547
# Velocity P-wave (km/s) = 7.04576 12.51890 7.31710
#
# Compressibility (1/GPa) = 0.01823314
#
# Stress axis : x y z
#
# Youngs Moduli (GPa) = 81.83163 70.27942 50.58527
#
# Poissons Ratio (x) = 0.17728 0.04919
# Poissons Ratio (y) = 0.20642 0.53102
# Poissons Ratio (z) = 0.07957 0.73776
#
# Static dielectric constant tensor:
#      x y z
#    x 1.730180 0.000000 0.000000 
#    y 0.000000 1.691580 0.000000 
#    z 0.000000 0.000000 1.680930 
# 
# From -- ./inp_files/35014.got.cif
#   From: 2010.05.17/outbox.cif.g08.bks.cpg/sg66_18_cif.got.tgz:35014.got - 2010.06.03 17:51:23.
