data_PCOD9499305
_publ_section_title
;
Structure prediction by ZEFSAII (Michael W. Deem and Ramdas Pophale) SiO2 
 PCOD9499305
Probable space group: C C C M
;
_chemical_formula_sum "Si O2"
_cell_formula_units_Z 96
_cell_length_a 11.290280
_cell_length_b 21.059682
_cell_length_c 24.936551
_cell_angle_alpha 90.000000
_cell_angle_beta 90.000000
_cell_angle_gamma 90.000000
_cell_volume 5929.156412
_symmetry_space_group_name_H-M "C C C M"
_symmetry_group_IT_number 66
_symmetry_cell_setting 'orthorhombic'
loop_
_space_group_symop_operation_xyz
x,y,z
-x,-y,z
x,-y,1/2-z
-x,y,1/2-z
-x,-y,-z
x,y,-z
-x,y,1/2+z
x,-y,1/2+z
1/2+x,1/2+y,z
1/2-x,1/2-y,z
1/2+x,1/2-y,1/2-z
1/2-x,1/2+y,1/2-z
1/2-x,1/2-y,-z
1/2+x,1/2+y,-z
1/2-x,1/2+y,1/2+z
1/2+x,1/2-y,1/2+z
loop_
_atom_site_type_symbol
_atom_site_label
_atom_site_fract_x
_atom_site_fract_y
_atom_site_fract_z
Si Si1 0.926341 0.194910 0.095772
Si Si2 0.371804 0.970622 0.096584
Si Si3 0.002615 0.105776 0.186145
Si Si4 0.306534 0.502330 0.313838
Si Si5 0.152339 0.672055 0.065083
Si Si6 0.495121 0.391617 0.000000
Si Si7 0.196964 0.000041 0.000000
O O1 0.929390 0.270173 0.085493
O O2 0.786771 0.180697 0.086218
O O3 0.974004 0.167992 0.151868
O O4 0.994258 0.153680 0.051233
O O5 0.310363 0.989441 0.152421
O O6 0.385882 0.895680 0.087071
O O7 0.280017 0.994642 0.051580
O O8 0.500000 0.000000 0.090345
O O9 0.000000 0.117121 0.250000
O O10 0.899444 0.054371 0.173372
O O11 0.124583 0.068170 0.173275
O O12 0.286870 0.500000 0.250000
O O13 0.155475 0.673305 0.000000
O O14 0.606506 0.440342 0.000000
O O15 0.380843 0.436406 0.000000
#
# Coordination Sequence:
#
# PCOD9499305 Si02
#       7
#    16  16  16  16  16   8   8
#     4  11  17  31  54  80 112 134 171 225 270 317
#     4  12  22  35  53  74 110 146 179 214 256 327
#     4   9  17  31  57  82 107 131 167 234 282 317
#     4   9  18  34  54  81 104 132 178 225 278 312
#     4  11  20  33  52  80 112 145 179 212 262 327
#     4  11  18  30  56  81 109 130 168 239 282 306
#     4  11  21  31  49  84 108 133 178 223 275 318
#
# _framework density 16.191174
#
# number of rings (size 3 to 8) (size 9 to 14) (size 15 to 20)
#    0.000    1.500    5.833    2.750    0.000    3.000 
#    0.000    0.000    3.667    5.000    0.000    0.000 
#    0.000    0.000    0.000    0.000    0.000    0.000 
#
# Total GULP energy -267730.048028 kJ/mol
# GULP energy per Si atom -5577.709334 kJ/mol
# Density = 1.615432 g / cm^3
# Si number density = 16.191174 Si / 1000 Ang^3
#
#
#
# Elastic Constant Matrix: (Units=GPa)
#
#
# Indices 1 2 3 4 5 6 
#
# 1 76.9050 66.7330 33.8716 0.0000 0.0000 0.0000
# 2 66.7330 130.9008 50.5879 0.0000 0.0000 0.0000
# 3 33.8716 50.5879 61.0581 0.0000 0.0000 0.0000
# 4 0.0000 0.0000 0.0000 20.1803 0.0000 0.0000
# 5 0.0000 0.0000 0.0000 0.0000 45.7970 0.0000
# 6 0.0000 0.0000 0.0000 0.0000 0.0000 23.0762
#
#
#
# Elastic Compliance Matrix: (Units=1/GPa)
#
#
# Indices 1 2 3 4 5 6 
#
# 1 0.024207 -0.010519 -0.004713 0.000000 0.000000 0.000000
# 2 -0.010519 0.015809 -0.007262 0.000000 0.000000 0.000000
# 3 -0.004713 -0.007262 0.025009 0.000000 0.000000 0.000000
# 4 0.000000 0.000000 0.000000 0.049553 0.000000 0.000000
# 5 0.000000 0.000000 0.000000 0.000000 0.021836 0.000000
# 6 0.000000 0.000000 0.000000 0.000000 0.000000 0.043335
#
#
# Mechanical properties :
#
#
# Convention : Reuss Voigt Hill
#
# Bulk Modulus (GPa) = 49.91159 63.47210 56.69185
# Shear Modulus (GPa) = 21.60613 25.65546 23.63079
#
# Velocity S-wave (km/s) = 3.65696 3.98494 3.82447
# Velocity P-wave (km/s) = 6.98029 7.77559 7.38865
#
# Compressibility (1/GPa) = 0.02003542
#
# Stress axis : x y z
#
# Youngs Moduli (GPa) = 41.31099 63.25695 39.98482
#
# Poissons Ratio (x) = 0.66540 0.18846
# Poissons Ratio (y) = 0.43455 0.29038
# Poissons Ratio (z) = 0.19471 0.45939
#
# Static dielectric constant tensor:
#      x y z
#    x 1.516890 0.000000 0.000000 
#    y 0.000000 1.554570 0.000000 
#    z 0.000000 0.000000 1.560100 
# 
# From -- ./inp_files/55701.got.cif
#   From: 2010.05.17/outbox.cif.g08.bks.cpg/sg66_28_cif.got.tgz:55701.got - 2010.06.03 17:51:23.
