data_PCOD9499744
_publ_section_title
;
Structure prediction by ZEFSAII (Michael W. Deem and Ramdas Pophale) SiO2 
 PCOD9499744
Probable space group: C C C M
;
_chemical_formula_sum "Si O2"
_cell_formula_units_Z 48
_cell_length_a 7.630111
_cell_length_b 18.259808
_cell_length_c 13.286483
_cell_angle_alpha 90.000000
_cell_angle_beta 90.000000
_cell_angle_gamma 90.000000
_cell_volume 1851.130766
_symmetry_space_group_name_H-M "C C C M"
_symmetry_group_IT_number 66
_symmetry_cell_setting 'orthorhombic'
loop_
_space_group_symop_operation_xyz
x,y,z
-x,-y,z
x,-y,1/2-z
-x,y,1/2-z
-x,-y,-z
x,y,-z
-x,y,1/2+z
x,-y,1/2+z
1/2+x,1/2+y,z
1/2-x,1/2-y,z
1/2+x,1/2-y,1/2-z
1/2-x,1/2+y,1/2-z
1/2-x,1/2-y,-z
1/2+x,1/2+y,-z
1/2-x,1/2+y,1/2+z
1/2+x,1/2-y,1/2+z
loop_
_atom_site_type_symbol
_atom_site_label
_atom_site_fract_x
_atom_site_fract_y
_atom_site_fract_z
Si Si1 0.500000 0.748449 0.750000
Si Si2 0.909202 0.122204 0.115220
Si Si3 0.719041 0.000000 0.250000
Si Si4 0.332815 0.127845 0.113570
O O1 0.378195 0.693131 0.815547
O O2 0.592815 0.801204 0.830677
O O3 0.167189 0.947209 0.175240
O O4 0.121029 0.123333 0.109869
O O5 0.844643 0.125193 0.000000
O O6 0.621517 0.943608 0.176601
O O7 0.398882 0.126483 0.000000
#
# Coordination Sequence:
#
# PCOD9499744 Si02
#       4
#     8  16   8  16
#     4  12  24  42  64 100 134 176 216 268 334 392
#     4  11  23  42  70 102 131 172 224 274 327 389
#     4  12  23  45  72 103 130 172 227 276 317 394
#     4  11  24  44  70  98 134 178 217 272 336 390
#
# _framework density 25.930095000000001
#
# number of rings (size 3 to 8) (size 9 to 14) (size 15 to 20)
#    0.000    0.667    3.333    5.000    0.000    6.000 
#    0.000   10.000    0.000    0.000    0.000    0.000 
#    0.000    0.000    0.000    0.000    0.000    0.000 
#
# Total GULP energy -134511.178252 kJ/mol
# GULP energy per Si atom -5604.632427 kJ/mol
# Density = 2.587108 g / cm^3
# Si number density = 25.930095 Si / 1000 Ang^3
#
#
#
# Elastic Constant Matrix: (Units=GPa)
#
#
# Indices 1 2 3 4 5 6 
#
# 1 61.6626 41.4200 43.5985 0.0000 0.0000 0.0000
# 2 41.4200 263.7031 144.6850 0.0000 0.0000 0.0000
# 3 43.5985 144.6850 325.0540 0.0000 0.0000 0.0000
# 4 0.0000 0.0000 0.0000 13.8873 0.0000 0.0000
# 5 0.0000 0.0000 0.0000 0.0000 29.2143 0.0000
# 6 0.0000 0.0000 0.0000 0.0000 0.0000 62.9108
#
#
#
# Elastic Compliance Matrix: (Units=1/GPa)
#
#
# Indices 1 2 3 4 5 6 
#
# 1 0.018732 -0.002069 -0.001592 0.000000 0.000000 0.000000
# 2 -0.002069 0.005246 -0.002058 0.000000 0.000000 0.000000
# 3 -0.001592 -0.002058 0.004206 0.000000 0.000000 0.000000
# 4 0.000000 0.000000 0.000000 0.072008 0.000000 0.000000
# 5 0.000000 0.000000 0.000000 0.000000 0.034230 0.000000
# 6 0.000000 0.000000 0.000000 0.000000 0.000000 0.015896
#
#
# Mechanical properties :
#
#
# Convention : Reuss Voigt Hill
#
# Bulk Modulus (GPa) = 59.70923 123.31405 91.51164
# Shear Modulus (GPa) = 29.87988 49.25025 39.56506
#
# Velocity S-wave (km/s) = 3.39827 4.36288 3.91043
# Velocity P-wave (km/s) = 6.20280 8.54630 7.46706
#
# Compressibility (1/GPa) = 0.01674783
#
# Stress axis : x y z
#
# Youngs Moduli (GPa) = 53.38334 190.61983 237.77145
#
# Poissons Ratio (x) = 0.39441 0.37843
# Poissons Ratio (y) = 0.11045 0.48923
# Poissons Ratio (z) = 0.08496 0.39221
#
# Static dielectric constant tensor:
#      x y z
#    x 2.312650 0.000000 0.000000 
#    y 0.000000 1.978910 0.000000 
#    z 0.000000 0.000000 1.994840 
# 
# From -- ./inp_files/27595.got.cif
#   From: 2010.05.17/outbox.cif.g08.bks.cpg/sg66_14_cif.got.tgz:27595.got - 2010.06.03 17:51:23.
