data_PCOD9499052
_publ_section_title
;
Structure prediction by ZEFSAII (Michael W. Deem and Ramdas Pophale) SiO2 
 PCOD9499052
Probable space group: C C C M
;
_chemical_formula_sum "Si O2"
_cell_formula_units_Z 104
_cell_length_a 8.568722
_cell_length_b 26.858836
_cell_length_c 20.753276
_cell_angle_alpha 90.000000
_cell_angle_beta 90.000000
_cell_angle_gamma 90.000000
_cell_volume 4776.281361
_symmetry_space_group_name_H-M "C C C M"
_symmetry_group_IT_number 66
_symmetry_cell_setting 'orthorhombic'
loop_
_space_group_symop_operation_xyz
x,y,z
-x,-y,z
x,-y,1/2-z
-x,y,1/2-z
-x,-y,-z
x,y,-z
-x,y,1/2+z
x,-y,1/2+z
1/2+x,1/2+y,z
1/2-x,1/2-y,z
1/2+x,1/2-y,1/2-z
1/2-x,1/2+y,1/2-z
1/2-x,1/2-y,-z
1/2+x,1/2+y,-z
1/2-x,1/2+y,1/2+z
1/2+x,1/2-y,1/2+z
loop_
_atom_site_type_symbol
_atom_site_label
_atom_site_fract_x
_atom_site_fract_y
_atom_site_fract_z
Si Si1 0.614896 0.539096 0.395508
Si Si2 0.060247 0.152199 0.000000
Si Si3 0.426133 0.630683 0.182518
Si Si4 0.849298 0.532562 0.144658
Si Si5 0.356763 0.920626 0.500000
Si Si6 0.662037 0.870074 0.230611
Si Si7 0.784294 0.597751 0.500000
Si Si8 0.146870 0.799502 0.365353
O O1 0.500000 0.500000 0.429267
O O2 0.529575 0.588258 0.368385
O O3 0.699977 0.503228 0.344874
O O4 0.748664 0.562633 0.439425
O O5 0.191176 0.108678 0.000000
O O6 0.107128 0.184205 0.062408
O O7 0.873369 0.135073 0.000000
O O8 0.500000 0.615417 0.250000
O O9 0.246734 0.626393 0.200280
O O10 0.478175 0.687002 0.166889
O O11 0.852813 0.550555 0.069044
O O12 0.853306 0.577717 0.194513
O O13 0.000000 0.500000 0.155781
O O14 0.527973 0.890872 0.500000
O O15 0.500000 0.846293 0.250000
O O16 0.751806 0.837233 0.177998
O O17 0.250000 0.750000 0.364386
#
# Coordination Sequence:
#
# PCOD9499052 Si02
#       8
#    16   8  16  16   8  16   8  16
#     4  12  22  36  60  91 133 182 233 282 340 400
#     4  12  23  45  78 101 137 179 229 293 376 423
#     4  10  23  42  61  94 132 175 229 283 337 425
#     4  12  23  39  62  97 141 193 233 289 341 406
#     4  12  24  44  67  99 145 186 240 292 350 428
#     4  11  25  42  67  98 139 184 236 283 344 410
#     4  12  24  40  67  98 136 189 229 292 353 414
#     4  11  24  47  74  99 131 173 226 300 368 426
#
# _framework density 21.774262
#
# number of rings (size 3 to 8) (size 9 to 14) (size 15 to 20)
#    0.000    0.615    4.615    4.846    0.000    5.538 
#    0.000    0.000    0.000    0.923    0.000    0.000 
#    0.000    0.000    0.000    0.000    0.000    0.000 
#
# Total GULP energy -289510.475798 kJ/mol
# GULP energy per Si atom -5567.509150 kJ/mol
# Density = 2.172470 g / cm^3
# Si number density = 21.774262 Si / 1000 Ang^3
#
#
#
# Elastic Constant Matrix: (Units=GPa)
#
#
# Indices 1 2 3 4 5 6 
#
# 1 94.6401 31.5077 13.5546 0.0000 0.0000 0.0000
# 2 31.5077 101.0689 33.5760 0.0000 0.0000 0.0000
# 3 13.5546 33.5760 84.9457 0.0000 0.0000 0.0000
# 4 0.0000 0.0000 0.0000 9.6423 0.0000 0.0000
# 5 0.0000 0.0000 0.0000 0.0000 23.8730 0.0000
# 6 0.0000 0.0000 0.0000 0.0000 0.0000 33.7222
#
#
#
# Elastic Compliance Matrix: (Units=1/GPa)
#
#
# Indices 1 2 3 4 5 6 
#
# 1 0.011808 -0.003517 -0.000494 0.000000 0.000000 0.000000
# 2 -0.003517 0.012437 -0.004355 0.000000 0.000000 0.000000
# 3 -0.000494 -0.004355 0.013572 0.000000 0.000000 0.000000
# 4 0.000000 0.000000 0.000000 0.103710 0.000000 0.000000
# 5 0.000000 0.000000 0.000000 0.000000 0.041888 0.000000
# 6 0.000000 0.000000 0.000000 0.000000 0.000000 0.029654
#
#
# Mechanical properties :
#
#
# Convention : Reuss Voigt Hill
#
# Bulk Modulus (GPa) = 47.42481 48.65902 48.04192
# Shear Modulus (GPa) = 21.11219 26.91527 24.01373
#
# Velocity S-wave (km/s) = 3.11721 3.51964 3.32452
# Velocity P-wave (km/s) = 5.89775 6.23801 6.07026
#
# Compressibility (1/GPa) = 0.02108601
#
# Stress axis : x y z
#
# Youngs Moduli (GPa) = 84.68863 80.40299 73.67912
#
# Poissons Ratio (x) = 0.28277 0.03640
# Poissons Ratio (y) = 0.29784 0.32086
# Poissons Ratio (z) = 0.04184 0.35014
#
# Static dielectric constant tensor:
#      x y z
#    x 0.189260 0.000000 0.000000 
#    y 0.000000 1.785950 0.000000 
#    z 0.000000 0.000000 1.854550 
# 
# From -- ./inp_files/47450.got.cif
#   From: 2010.05.17/outbox.cif.g08.bks.cpg/sg66_24_cif.got.tgz:47450.got - 2010.06.03 17:51:23.
