data_PCOD9499900
_publ_section_title
;
Structure prediction by ZEFSAII (Michael W. Deem and Ramdas Pophale) SiO2 
 PCOD9499900
Probable space group: C C C M
;
_chemical_formula_sum "Si O2"
_cell_formula_units_Z 48
_cell_length_a 12.435726
_cell_length_b 10.495979
_cell_length_c 16.454720
_cell_angle_alpha 90.000000
_cell_angle_beta 90.000000
_cell_angle_gamma 90.000000
_cell_volume 2147.754285
_symmetry_space_group_name_H-M "C C C M"
_symmetry_group_IT_number 66
_symmetry_cell_setting 'orthorhombic'
loop_
_space_group_symop_operation_xyz
x,y,z
-x,-y,z
x,-y,1/2-z
-x,y,1/2-z
-x,-y,-z
x,y,-z
-x,y,1/2+z
x,-y,1/2+z
1/2+x,1/2+y,z
1/2-x,1/2-y,z
1/2+x,1/2-y,1/2-z
1/2-x,1/2+y,1/2-z
1/2-x,1/2-y,-z
1/2+x,1/2+y,-z
1/2-x,1/2+y,1/2+z
1/2+x,1/2-y,1/2+z
loop_
_atom_site_type_symbol
_atom_site_label
_atom_site_fract_x
_atom_site_fract_y
_atom_site_fract_z
Si Si1 0.204597 0.446075 0.163554
Si Si2 0.617741 0.073650 0.000000
Si Si3 0.576654 0.317718 0.328617
Si Si4 0.033349 0.151714 0.500000
O O1 0.168802 0.500000 0.250000
O O2 0.333035 0.427315 0.167955
O O3 0.144681 0.311542 0.163833
O O4 0.174521 0.523389 0.082561
O O5 0.619113 0.227908 0.000000
O O6 0.500000 0.000000 0.000000
O O7 0.500000 0.322864 0.250000
O O8 0.511790 0.318762 0.411133
O O9 0.000000 0.000000 0.500000
#
# Coordination Sequence:
#
# PCOD9499900 Si02
#       4
#    16   8  16   8
#     4  11  25  44  75 111 143 197 261 307 374 459
#     4  12  23  47  77 108 147 197 253 311 371 452
#     4  11  25  47  71 107 154 197 247 317 382 445
#     4  12  27  43  75 105 148 200 243 311 391 438
#
# _framework density 22.348924
#
# number of rings (size 3 to 8) (size 9 to 14) (size 15 to 20)
#    0.000    0.667    3.333    3.000    4.667    2.667 
#    0.000    1.667    0.000    0.000    0.000    0.000 
#    0.000    0.000    0.000    0.000    0.000    0.000 
#
# Total GULP energy -133647.289232 kJ/mol
# GULP energy per Si atom -5568.637051 kJ/mol
# Density = 2.229806 g / cm^3
# Si number density = 22.348924 Si / 1000 Ang^3
#
#
#
# Elastic Constant Matrix: (Units=GPa)
#
#
# Indices 1 2 3 4 5 6 
#
# 1 106.7911 50.9022 87.4013 0.0000 0.0000 0.0000
# 2 50.9022 109.2710 58.0904 0.0000 0.0000 0.0000
# 3 87.4013 58.0904 256.8866 0.0000 0.0000 0.0000
# 4 0.0000 0.0000 0.0000 60.5744 0.0000 0.0000
# 5 0.0000 0.0000 0.0000 0.0000 19.8940 0.0000
# 6 0.0000 0.0000 0.0000 0.0000 0.0000 -4.4775
#
#
#
# Elastic Compliance Matrix: (Units=1/GPa)
#
#
# Indices 1 2 3 4 5 6 
#
# 1 0.014932 -0.004837 -0.003987 0.000000 0.000000 0.000000
# 2 -0.004837 0.011969 -0.001061 0.000000 0.000000 0.000000
# 3 -0.003987 -0.001061 0.005489 0.000000 0.000000 0.000000
# 4 0.000000 0.000000 0.000000 0.016509 0.000000 0.000000
# 5 0.000000 0.000000 0.000000 0.000000 0.050267 0.000000
# 6 0.000000 0.000000 0.000000 0.000000 0.000000 -0.223340
#
#
# Mechanical properties :
#
#
# Convention : Reuss Voigt Hill
#
# Bulk Modulus (GPa) = 79.22970 96.19293 87.71131
# Shear Modulus (GPa) = -49.90068 33.63517 -8.13276
#
# Velocity S-wave (km/s) = -4.73038 3.88364 -1.90968
# Velocity P-wave (km/s) = 2.38598 7.95268 5.87103
#
# Compressibility (1/GPa) = 0.01262153
#
# Stress axis : x y z
#
# Youngs Moduli (GPa) = 66.96879 83.55193 182.17891
#
# Poissons Ratio (x) = 0.40410 0.72631
# Poissons Ratio (y) = 0.32390 0.19328
# Poissons Ratio (z) = 0.26699 0.08864
#
# Static dielectric constant tensor:
#      x y z
#    x 1.918340 0.000000 0.000000 
#    y 0.000000 1.813630 0.000000 
#    z 0.000000 0.000000 1.686070 
# 
# From -- ./inp_files/37653.got.cif
#   From: 2010.05.17/outbox.cif.g08.bks.cpg/sg66_19_cif.got.tgz:37653.got - 2010.06.03 17:51:23.
