data_PCOD9499307
_publ_section_title
;
Structure prediction by ZEFSAII (Michael W. Deem and Ramdas Pophale) SiO2 
 PCOD9499307
Probable space group: C C C M
;
_chemical_formula_sum "Si O2"
_cell_formula_units_Z 64
_cell_length_a 10.135567
_cell_length_b 15.636994
_cell_length_c 20.821354
_cell_angle_alpha 90.000000
_cell_angle_beta 90.000000
_cell_angle_gamma 90.000000
_cell_volume 3299.972239
_symmetry_space_group_name_H-M "C C C M"
_symmetry_group_IT_number 66
_symmetry_cell_setting 'orthorhombic'
loop_
_space_group_symop_operation_xyz
x,y,z
-x,-y,z
x,-y,1/2-z
-x,y,1/2-z
-x,-y,-z
x,y,-z
-x,y,1/2+z
x,-y,1/2+z
1/2+x,1/2+y,z
1/2-x,1/2-y,z
1/2+x,1/2-y,1/2-z
1/2-x,1/2+y,1/2-z
1/2-x,1/2-y,-z
1/2+x,1/2+y,-z
1/2-x,1/2+y,1/2+z
1/2+x,1/2-y,1/2+z
loop_
_atom_site_type_symbol
_atom_site_label
_atom_site_fract_x
_atom_site_fract_y
_atom_site_fract_z
Si Si1 0.534895 0.273586 0.000000
Si Si2 0.846379 0.481078 0.616271
Si Si3 0.721165 0.894304 0.500000
Si Si4 0.611680 0.213214 0.377859
Si Si5 0.000000 0.346649 0.250000
Si Si6 0.704961 0.000000 0.750000
O O1 0.623056 0.186847 0.000000
O O2 0.633302 0.353805 0.000000
O O3 0.448313 0.267926 0.064363
O O4 0.808288 0.546431 0.561135
O O5 0.856354 0.382327 0.596326
O O6 0.746756 0.492174 0.676687
O O7 0.000000 0.500000 0.636507
O O8 0.750000 0.250000 0.354600
O O9 0.516397 0.204875 0.316079
O O10 0.123333 0.411083 0.253472
#
# Coordination Sequence:
#
# PCOD9499307 Si02
#       6
#     8  16   8  16   8   8
#     4  11  22  39  54  91 124 149 194 240 305 337
#     4  11  17  35  59  84 111 149 206 236 284 336
#     4  11  22  34  60  90 118 152 187 256 287 335
#     4  11  22  38  59  87 117 155 196 244 288 356
#     4   9  16  34  54  86 109 138 194 240 295 324
#     4   9  14  30  58  82 103 135 196 252 264 333
#
# _framework density 19.394103000000001
#
# number of rings (size 3 to 8) (size 9 to 14) (size 15 to 20)
#    0.000    1.500    7.500    1.500    0.000    0.000 
#   13.500    2.500    0.000    0.000    0.000    0.000 
#    0.000    0.000    0.000    0.000    0.000    0.000 
#
# Total GULP energy -178176.521588 kJ/mol
# GULP energy per Si atom -5568.016300 kJ/mol
# Density = 1.934996 g / cm^3
# Si number density = 19.394103 Si / 1000 Ang^3
#
#
#
# Elastic Constant Matrix: (Units=GPa)
#
#
# Indices 1 2 3 4 5 6 
#
# 1 27.2226 15.0535 25.3788 0.0000 0.0000 0.0000
# 2 15.0535 54.7943 21.7707 0.0000 0.0000 0.0000
# 3 25.3788 21.7707 161.1616 0.0000 0.0000 0.0000
# 4 0.0000 0.0000 0.0000 0.3514 0.0000 0.0000
# 5 0.0000 0.0000 0.0000 0.0000 -1.8262 0.0000
# 6 0.0000 0.0000 0.0000 0.0000 0.0000 9.3732
#
#
#
# Elastic Compliance Matrix: (Units=1/GPa)
#
#
# Indices 1 2 3 4 5 6 
#
# 1 0.048497 -0.010873 -0.006168 0.000000 0.000000 0.000000
# 2 -0.010873 0.021723 -0.001222 0.000000 0.000000 0.000000
# 3 -0.006168 -0.001222 0.007341 0.000000 0.000000 0.000000
# 4 0.000000 0.000000 0.000000 2.846136 0.000000 0.000000
# 5 0.000000 0.000000 0.000000 0.000000 -0.547581 0.000000
# 6 0.000000 0.000000 0.000000 0.000000 0.000000 0.106687
#
#
# Mechanical properties :
#
#
# Convention : Reuss Voigt Hill
#
# Bulk Modulus (GPa) = 24.36962 40.84270 32.60616
# Shear Modulus (GPa) = 1.97394 13.64470 7.80932
#
# Velocity S-wave (km/s) = 1.00996 2.65533 2.00883
# Velocity P-wave (km/s) = 3.73534 5.52323 4.71481
#
# Compressibility (1/GPa) = 0.04103470
#
# Stress axis : x y z
#
# Youngs Moduli (GPa) = 20.61983 46.03481 136.21360
#
# Poissons Ratio (x) = 0.50052 0.84020
# Poissons Ratio (y) = 0.22419 0.16649
# Poissons Ratio (z) = 0.12719 0.05627
#
# Static dielectric constant tensor:
#      x y z
#    x 1.712270 0.000000 0.000000 
#    y 0.000000 1.676310 0.000000 
#    z 0.000000 0.000000 1.755370 
# 
# From -- ./inp_files/50575.got.cif
#   From: 2010.05.17/outbox.cif.g08.bks.cpg/sg66_26_cif.got.tgz:50575.got - 2010.06.03 17:51:23.
