data_PCOD9499964
_publ_section_title
;
Structure prediction by ZEFSAII (Michael W. Deem and Ramdas Pophale) SiO2 
 PCOD9499964
Probable space group: C C C M
;
_chemical_formula_sum "Si O2"
_cell_formula_units_Z 40
_cell_length_a 8.581171
_cell_length_b 13.060993
_cell_length_c 13.606002
_cell_angle_alpha 90.000000
_cell_angle_beta 90.000000
_cell_angle_gamma 90.000000
_cell_volume 1524.941851
_symmetry_space_group_name_H-M "C C C M"
_symmetry_group_IT_number 66
_symmetry_cell_setting 'orthorhombic'
loop_
_space_group_symop_operation_xyz
x,y,z
-x,-y,z
x,-y,1/2-z
-x,y,1/2-z
-x,-y,-z
x,y,-z
-x,y,1/2+z
x,-y,1/2+z
1/2+x,1/2+y,z
1/2-x,1/2-y,z
1/2+x,1/2-y,1/2-z
1/2-x,1/2+y,1/2-z
1/2-x,1/2-y,-z
1/2+x,1/2+y,-z
1/2-x,1/2+y,1/2+z
1/2+x,1/2-y,1/2+z
loop_
_atom_site_type_symbol
_atom_site_label
_atom_site_fract_x
_atom_site_fract_y
_atom_site_fract_z
Si Si1 0.750960 0.550103 0.115753
Si Si2 0.416528 0.161005 0.615347
Si Si3 0.000000 0.159150 0.750000
O O1 0.807314 0.435442 0.141419
O O2 0.612316 0.594005 0.180183
O O3 0.905852 0.619210 0.127323
O O4 0.709212 0.551355 0.000000
O O5 0.395075 0.181653 0.500000
O O6 0.409536 0.263082 0.677934
#
# Coordination Sequence:
#
# PCOD9499964 Si02
#       3
#    16  16   8
#     4   9  20  40  68 108 155 198 246 308 374 443
#     4   9  20  41  70 106 152 199 242 303 378 445
#     4  12  20  33  76 121 142 186 256 310 366 442
#
# _framework density 26.230509000000001
#
# number of rings (size 3 to 8) (size 9 to 14) (size 15 to 20)
#    0.000    2.400    0.000    4.800    0.000    6.400 
#    0.000    0.000    0.000   50.400    0.000  114.800 
#    0.000   16.000    0.000    0.000    0.000    0.000 
#
# Total GULP energy -112426.151546 kJ/mol
# GULP energy per Si atom -5621.307577 kJ/mol
# Density = 2.617081 g / cm^3
# Si number density = 26.230509 Si / 1000 Ang^3
#
#
#
# Elastic Constant Matrix: (Units=GPa)
#
#
# Indices 1 2 3 4 5 6 
#
# 1 203.9100 148.1853 119.5838 0.0000 0.0000 0.0000
# 2 148.1853 191.3780 123.7256 0.0000 0.0000 0.0000
# 3 119.5838 123.7256 181.2887 0.0000 0.0000 0.0000
# 4 0.0000 0.0000 0.0000 121.1754 0.0000 0.0000
# 5 0.0000 0.0000 0.0000 0.0000 56.7374 0.0000
# 6 0.0000 0.0000 0.0000 0.0000 0.0000 58.8235
#
#
#
# Elastic Compliance Matrix: (Units=1/GPa)
#
#
# Indices 1 2 3 4 5 6 
#
# 1 0.011964 -0.007448 -0.002809 0.000000 0.000000 0.000000
# 2 -0.007448 0.013988 -0.004633 0.000000 0.000000 0.000000
# 3 -0.002809 -0.004633 0.010531 0.000000 0.000000 0.000000
# 4 0.000000 0.000000 0.000000 0.008253 0.000000 0.000000
# 5 0.000000 0.000000 0.000000 0.000000 0.017625 0.000000
# 6 0.000000 0.000000 0.000000 0.000000 0.000000 0.017000
#
#
# Mechanical properties :
#
#
# Convention : Reuss Voigt Hill
#
# Bulk Modulus (GPa) = 149.19845 151.06288 150.13067
# Shear Modulus (GPa) = 44.89370 59.68605 52.28988
#
# Velocity S-wave (km/s) = 4.14152 4.77534 4.46968
# Velocity P-wave (km/s) = 8.93716 9.38726 9.16497
#
# Compressibility (1/GPa) = 0.00670248
#
# Stress axis : x y z
#
# Youngs Moduli (GPa) = 83.58578 71.49150 94.95736
#
# Poissons Ratio (x) = 0.53245 0.26671
# Poissons Ratio (y) = 0.62253 0.43998
# Poissons Ratio (z) = 0.23477 0.33125
#
# Static dielectric constant tensor:
#      x y z
#    x 2.139060 0.000000 0.000000 
#    y 0.000000 1.999430 0.000000 
#    z 0.000000 0.000000 2.040760 
# 
# From -- ./inp_files/23149.got.cif
#   From: 2010.05.17/outbox.cif.g08.bks.cpg/sg66_12_cif.got.tgz:23149.got - 2010.06.03 17:51:23.
