data_PCOD9499921
_publ_section_title
;
Structure prediction by ZEFSAII (Michael W. Deem and Ramdas Pophale) SiO2 
 PCOD9499921
Probable space group: C C C M
;
_chemical_formula_sum "Si O2"
_cell_formula_units_Z 48
_cell_length_a 5.507573
_cell_length_b 17.227381
_cell_length_c 22.168071
_cell_angle_alpha 90.000000
_cell_angle_beta 90.000000
_cell_angle_gamma 90.000000
_cell_volume 2103.330040
_symmetry_space_group_name_H-M "C C C M"
_symmetry_group_IT_number 66
_symmetry_cell_setting 'orthorhombic'
loop_
_space_group_symop_operation_xyz
x,y,z
-x,-y,z
x,-y,1/2-z
-x,y,1/2-z
-x,-y,-z
x,y,-z
-x,y,1/2+z
x,-y,1/2+z
1/2+x,1/2+y,z
1/2-x,1/2-y,z
1/2+x,1/2-y,1/2-z
1/2-x,1/2+y,1/2-z
1/2-x,1/2-y,-z
1/2+x,1/2+y,-z
1/2-x,1/2+y,1/2+z
1/2+x,1/2-y,1/2+z
loop_
_atom_site_type_symbol
_atom_site_label
_atom_site_fract_x
_atom_site_fract_y
_atom_site_fract_z
Si Si1 0.000000 0.842013 0.250000
Si Si2 0.611859 0.832997 0.430459
Si Si3 0.750000 0.750000 0.852482
Si Si4 0.250639 0.048226 0.331719
O O1 0.062045 0.789061 0.306829
O O2 0.217881 0.896378 0.226750
O O3 0.577269 0.854816 0.500000
O O4 0.750000 0.750000 0.429121
O O5 0.363602 0.815041 0.395160
O O6 0.741948 0.898396 0.391386
O O7 0.500000 0.000000 0.329769
O O8 0.000000 0.000000 0.333131
#
# Coordination Sequence:
#
# PCOD9499921 Si02
#       4
#     8  16   8  16
#     4  12  25  44  76 108 149 196 242 306 373 446
#     4  11  25  48  75 104 141 194 252 306 363 435
#     4  12  23  46  74 112 143 188 250 318 358 438
#     4  12  28  49  72 110 153 195 243 303 376 447
#
# _framework density 22.820955999999999
#
# number of rings (size 3 to 8) (size 9 to 14) (size 15 to 20)
#    0.000    0.333    3.333    5.000    0.000    9.333 
#    0.000    0.000    0.000    0.000    0.000    0.000 
#    0.000    0.000    0.000    0.000    0.000    0.000 
#
# Total GULP energy -134413.296954 kJ/mol
# GULP energy per Si atom -5600.554040 kJ/mol
# Density = 2.276901 g / cm^3
# Si number density = 22.820956 Si / 1000 Ang^3
#
#
#
# Elastic Constant Matrix: (Units=GPa)
#
#
# Indices 1 2 3 4 5 6 
#
# 1 109.3859 41.8393 37.9594 0.0000 0.0000 0.0000
# 2 41.8393 78.6764 42.1690 0.0000 0.0000 0.0000
# 3 37.9594 42.1690 185.5467 0.0000 0.0000 0.0000
# 4 0.0000 0.0000 0.0000 27.4685 0.0000 0.0000
# 5 0.0000 0.0000 0.0000 0.0000 25.6622 0.0000
# 6 0.0000 0.0000 0.0000 0.0000 0.0000 42.9279
#
#
#
# Elastic Compliance Matrix: (Units=1/GPa)
#
#
# Indices 1 2 3 4 5 6 
#
# 1 0.011675 -0.005612 -0.001113 0.000000 0.000000 0.000000
# 2 -0.005612 0.017171 -0.002754 0.000000 0.000000 0.000000
# 3 -0.001113 -0.002754 0.006243 0.000000 0.000000 0.000000
# 4 0.000000 0.000000 0.000000 0.036405 0.000000 0.000000
# 5 0.000000 0.000000 0.000000 0.000000 0.038968 0.000000
# 6 0.000000 0.000000 0.000000 0.000000 0.000000 0.023295
#
#
# Mechanical properties :
#
#
# Convention : Reuss Voigt Hill
#
# Bulk Modulus (GPa) = 61.99533 68.61604 65.30569
# Shear Modulus (GPa) = 31.62715 35.98781 33.80748
#
# Velocity S-wave (km/s) = 3.72678 3.97541 3.85310
# Velocity P-wave (km/s) = 6.76339 7.15571 6.96232
#
# Compressibility (1/GPa) = 0.01613025
#
# Stress axis : x y z
#
# Youngs Moduli (GPa) = 85.65529 58.23803 160.17546
#
# Poissons Ratio (x) = 0.32683 0.17828
# Poissons Ratio (y) = 0.48069 0.44118
# Poissons Ratio (z) = 0.09533 0.16041
#
# Static dielectric constant tensor:
#      x y z
#    x 1.898590 0.000000 0.000000 
#    y 0.000000 1.902800 0.000000 
#    z 0.000000 0.000000 1.781310 
# 
# From -- ./inp_files/53801.got.cif
#   From: 2010.05.17/outbox.cif.g08.bks.cpg/sg66_27_cif.got.tgz:53801.got - 2010.06.03 17:51:23.
