data_PCOD9499231
_publ_section_title
;
Structure prediction by ZEFSAII (Michael W. Deem and Ramdas Pophale) SiO2 
 PCOD9499231
Probable space group: C C C M
;
_chemical_formula_sum "Si O2"
_cell_formula_units_Z 64
_cell_length_a 7.890875
_cell_length_b 16.130164
_cell_length_c 25.269501
_cell_angle_alpha 90.000000
_cell_angle_beta 90.000000
_cell_angle_gamma 90.000000
_cell_volume 3216.330082
_symmetry_space_group_name_H-M "C C C M"
_symmetry_group_IT_number 66
_symmetry_cell_setting 'orthorhombic'
loop_
_space_group_symop_operation_xyz
x,y,z
-x,-y,z
x,-y,1/2-z
-x,y,1/2-z
-x,-y,-z
x,y,-z
-x,y,1/2+z
x,-y,1/2+z
1/2+x,1/2+y,z
1/2-x,1/2-y,z
1/2+x,1/2-y,1/2-z
1/2-x,1/2+y,1/2-z
1/2-x,1/2-y,-z
1/2+x,1/2+y,-z
1/2-x,1/2+y,1/2+z
1/2+x,1/2-y,1/2+z
loop_
_atom_site_type_symbol
_atom_site_label
_atom_site_fract_x
_atom_site_fract_y
_atom_site_fract_z
Si Si1 0.048102 0.749552 0.000000
Si Si2 0.750000 0.250000 0.326136
Si Si3 0.000000 0.846635 0.750000
Si Si4 0.500000 0.000000 0.658264
Si Si5 0.138172 0.926422 0.500000
Si Si6 0.394123 0.869357 0.587413
Si Si7 0.738958 0.500000 0.250000
O O1 0.250000 0.750000 0.000000
O O2 0.965662 0.840186 0.000000
O O3 0.978658 0.698619 0.949969
O O4 0.904020 0.214217 0.290744
O O5 0.701462 0.176705 0.365689
O O6 0.139777 0.916037 0.766708
O O7 0.530687 0.925043 0.617960
O O8 0.349616 0.979357 0.698552
O O9 0.263973 0.922321 0.550973
O O10 0.000000 0.000000 0.500000
#
# Coordination Sequence:
#
# PCOD9499231 Si02
#       7
#     8   8   8   8   8  16   8
#     4  11  25  44  67 103 133 172 228 282 329 409
#     4  12  24  45  66  98 132 185 220 282 336 398
#     4  11  26  40  66  95 134 172 228 271 332 398
#     4  11  24  41  70  94 130 179 222 273 346 392
#     4  11  25  44  69  99 139 176 226 275 340 414
#     4  11  24  45  68  94 139 175 222 280 340 398
#     4  10  24  46  60  96 136 172 222 282 324 412
#
# _framework density 19.898454000000001
#
# number of rings (size 3 to 8) (size 9 to 14) (size 15 to 20)
#    0.000    1.000    5.000    0.750    7.000    5.000 
#    0.000    0.000    0.000    0.000    0.000    0.000 
#    0.000    0.000    0.000    0.000    0.000    0.000 
#
# Total GULP energy -178335.479042 kJ/mol
# GULP energy per Si atom -5572.983720 kJ/mol
# Density = 1.985316 g / cm^3
# Si number density = 19.898454 Si / 1000 Ang^3
#
#
#
# Elastic Constant Matrix: (Units=GPa)
#
#
# Indices 1 2 3 4 5 6 
#
# 1 93.6640 31.1555 61.6265 0.0000 0.0000 0.0000
# 2 31.1555 92.2725 68.5457 0.0000 0.0000 0.0000
# 3 61.6265 68.5457 148.1032 0.0000 0.0000 0.0000
# 4 0.0000 0.0000 0.0000 2.3022 0.0000 0.0000
# 5 0.0000 0.0000 0.0000 0.0000 7.3294 0.0000
# 6 0.0000 0.0000 0.0000 0.0000 0.0000 45.5007
#
#
#
# Elastic Compliance Matrix: (Units=1/GPa)
#
#
# Indices 1 2 3 4 5 6 
#
# 1 0.014726 -0.000640 -0.005831 0.000000 0.000000 0.000000
# 2 -0.000640 0.016544 -0.007390 0.000000 0.000000 0.000000
# 3 -0.005831 -0.007390 0.012599 0.000000 0.000000 0.000000
# 4 0.000000 0.000000 0.000000 0.434372 0.000000 0.000000
# 5 0.000000 0.000000 0.000000 0.000000 0.136437 0.000000
# 6 0.000000 0.000000 0.000000 0.000000 0.000000 0.021978
#
#
# Mechanical properties :
#
#
# Convention : Reuss Voigt Hill
#
# Bulk Modulus (GPa) = 61.93964 72.96612 67.45288
# Shear Modulus (GPa) = 7.46534 22.54057 15.00296
#
# Velocity S-wave (km/s) = 1.93904 3.36933 2.74884
# Velocity P-wave (km/s) = 6.01736 7.20315 6.63679
#
# Compressibility (1/GPa) = 0.01614475
#
# Stress axis : x y z
#
# Youngs Moduli (GPa) = 67.90634 60.44594 79.37212
#
# Poissons Ratio (x) = 0.03871 0.46284
# Poissons Ratio (y) = 0.04349 0.58659
# Poissons Ratio (z) = 0.39598 0.44672
#
# Static dielectric constant tensor:
#      x y z
#    x 1.739780 0.000000 0.000000 
#    y 0.000000 1.810950 0.000000 
#    z 0.000000 0.000000 1.608670 
# 
# From -- ./inp_files/55096.got.cif
#   From: 2010.05.17/outbox.cif.g08.bks.cpg/sg66_28_cif.got.tgz:55096.got - 2010.06.03 17:51:23.
