data_PCOD9499721
_publ_section_title
;
Structure prediction by ZEFSAII (Michael W. Deem and Ramdas Pophale) SiO2 
 PCOD9499721
Probable space group: C C C M
;
_chemical_formula_sum "Si O2"
_cell_formula_units_Z 64
_cell_length_a 15.207937
_cell_length_b 11.382400
_cell_length_c 19.541897
_cell_angle_alpha 90.000000
_cell_angle_beta 90.000000
_cell_angle_gamma 90.000000
_cell_volume 3382.757520
_symmetry_space_group_name_H-M "C C C M"
_symmetry_group_IT_number 66
_symmetry_cell_setting 'orthorhombic'
loop_
_space_group_symop_operation_xyz
x,y,z
-x,-y,z
x,-y,1/2-z
-x,y,1/2-z
-x,-y,-z
x,y,-z
-x,y,1/2+z
x,-y,1/2+z
1/2+x,1/2+y,z
1/2-x,1/2-y,z
1/2+x,1/2-y,1/2-z
1/2-x,1/2+y,1/2-z
1/2-x,1/2-y,-z
1/2+x,1/2+y,-z
1/2-x,1/2+y,1/2+z
1/2+x,1/2-y,1/2+z
loop_
_atom_site_type_symbol
_atom_site_label
_atom_site_fract_x
_atom_site_fract_y
_atom_site_fract_z
Si Si1 0.726958 0.119282 0.701716
Si Si2 0.457835 0.680604 0.923405
Si Si3 0.853493 0.950698 0.922326
Si Si4 0.474734 0.874765 0.329238
O O1 0.750000 0.250000 0.732718
O O2 0.793107 0.094454 0.638766
O O3 0.629991 0.136033 0.670065
O O4 0.727282 0.000000 0.750000
O O5 0.381437 0.586164 0.911025
O O6 0.552504 0.615296 0.922029
O O7 0.468115 0.778327 0.867039
O O8 0.446242 0.728623 0.000000
O O9 0.817128 0.937552 0.000000
O O10 0.500000 0.872233 0.250000
O O11 0.500000 0.000000 0.359337
#
# Coordination Sequence:
#
# PCOD9499721 Si02
#       4
#    16  16  16  16
#     4  12  25  41  63  94 124 165 210 257 306 364
#     4   9  19  38  62  91 123 156 200 253 309 367
#     4   9  20  38  64  94 120 153 206 261 302 359
#     4  11  23  41  58  84 128 166 202 250 309 371
#
# _framework density 18.919474999999998
#
# number of rings (size 3 to 8) (size 9 to 14) (size 15 to 20)
#    0.000    1.750    5.000    1.500    3.500    2.000 
#    0.000    2.500    0.000    3.750    0.000    0.000 
#    0.000    0.000    0.000    0.000    0.000    0.000 
#
# Total GULP energy -178273.677380 kJ/mol
# GULP energy per Si atom -5571.052418 kJ/mol
# Density = 1.887641 g / cm^3
# Si number density = 18.919475 Si / 1000 Ang^3
#
#
#
# Elastic Constant Matrix: (Units=GPa)
#
#
# Indices 1 2 3 4 5 6 
#
# 1 50.7038 -7.7264 5.2138 0.0000 0.0000 0.0000
# 2 -7.7264 111.7072 44.2371 0.0000 0.0000 0.0000
# 3 5.2138 44.2371 71.3923 0.0000 0.0000 0.0000
# 4 0.0000 0.0000 0.0000 41.9950 0.0000 0.0000
# 5 0.0000 0.0000 0.0000 0.0000 3.6669 0.0000
# 6 0.0000 0.0000 0.0000 0.0000 0.0000 15.2031
#
#
#
# Elastic Compliance Matrix: (Units=1/GPa)
#
#
# Indices 1 2 3 4 5 6 
#
# 1 0.020450 0.002658 -0.003141 0.000000 0.000000 0.000000
# 2 0.002658 0.012208 -0.007759 0.000000 0.000000 0.000000
# 3 -0.003141 -0.007759 0.019044 0.000000 0.000000 0.000000
# 4 0.000000 0.000000 0.000000 0.023812 0.000000 0.000000
# 5 0.000000 0.000000 0.000000 0.000000 0.272708 0.000000
# 6 0.000000 0.000000 0.000000 0.000000 0.000000 0.065776
#
#
# Mechanical properties :
#
#
# Convention : Reuss Voigt Hill
#
# Bulk Modulus (GPa) = 28.39268 35.25026 31.82147
# Shear Modulus (GPa) = 11.30653 24.97826 18.14239
#
# Velocity S-wave (km/s) = 2.44726 3.63745 3.10001
# Velocity P-wave (km/s) = 4.79845 6.02608 5.44696
#
# Compressibility (1/GPa) = 0.03522035
#
# Stress axis : x y z
#
# Youngs Moduli (GPa) = 48.89882 81.91063 52.50956
#
# Poissons Ratio (x) = -0.21774 0.16491
# Poissons Ratio (y) = -0.12998 0.40742
# Poissons Ratio (z) = 0.15357 0.63554
#
# Static dielectric constant tensor:
#      x y z
#    x 1.659290 0.000000 0.000000 
#    y 0.000000 1.715190 0.000000 
#    z 0.000000 0.000000 1.650320 
# 
# From -- ./inp_files/37955.got.cif
#   From: 2010.05.17/outbox.cif.g08.bks.cpg/sg66_19_cif.got.tgz:37955.got - 2010.06.03 17:51:23.
