data_PCOD9499977
_publ_section_title
;
Structure prediction by ZEFSAII (Michael W. Deem and Ramdas Pophale) SiO2 
 PCOD9499977
Probable space group: C C C M
;
_chemical_formula_sum "Si O2"
_cell_formula_units_Z 88
_cell_length_a 13.587103
_cell_length_b 14.611029
_cell_length_c 22.806978
_cell_angle_alpha 90.000000
_cell_angle_beta 90.000000
_cell_angle_gamma 90.000000
_cell_volume 4527.676759
_symmetry_space_group_name_H-M "C C C M"
_symmetry_group_IT_number 66
_symmetry_cell_setting 'orthorhombic'
loop_
_space_group_symop_operation_xyz
x,y,z
-x,-y,z
x,-y,1/2-z
-x,y,1/2-z
-x,-y,-z
x,y,-z
-x,y,1/2+z
x,-y,1/2+z
1/2+x,1/2+y,z
1/2-x,1/2-y,z
1/2+x,1/2-y,1/2-z
1/2-x,1/2+y,1/2-z
1/2-x,1/2-y,-z
1/2+x,1/2+y,-z
1/2-x,1/2+y,1/2+z
1/2+x,1/2-y,1/2+z
loop_
_atom_site_type_symbol
_atom_site_label
_atom_site_fract_x
_atom_site_fract_y
_atom_site_fract_z
Si Si1 0.283266 0.450820 0.689367
Si Si2 0.161720 0.825231 0.000000
Si Si3 0.750000 0.250000 0.299193
Si Si4 0.376140 0.388826 0.123888
Si Si5 0.886091 0.965190 0.000000
Si Si6 0.585711 0.692764 0.367252
Si Si7 0.401854 0.139766 0.715025
O O1 0.312788 0.500000 0.750000
O O2 0.332988 0.514153 0.642000
O O3 0.328237 0.352928 0.671979
O O4 0.165707 0.441642 0.689985
O O5 0.250000 0.750000 0.000000
O O6 0.109767 0.806712 0.936675
O O7 0.174748 0.937636 0.000000
O O8 0.688690 0.316301 0.341261
O O9 0.673227 0.191434 0.260064
O O10 0.488234 0.368022 0.141221
O O11 0.370487 0.398302 0.054635
O O12 0.000000 0.000000 0.000000
O O13 0.571053 0.791784 0.338061
O O14 0.500000 0.115029 0.750000
#
# Coordination Sequence:
#
# PCOD9499977 Si02
#       7
#    16   8   8  16   8  16  16
#     4  12  23  38  63  97 129 167 221 271 337 387
#     4  12  24  40  64 102 136 168 207 273 343 395
#     4  12  24  43  60  95 130 176 226 266 332 400
#     4  12  24  42  65  95 131 173 219 277 324 391
#     4  12  22  43  66  97 129 162 222 271 322 391
#     4  12  23  40  68  96 134 170 220 274 334 396
#     4  12  24  42  63  94 136 178 219 271 336 406
#
# _framework density 19.436018000000001
#
# number of rings (size 3 to 8) (size 9 to 14) (size 15 to 20)
#    0.000    0.000    9.091    1.636    0.000    1.455 
#    0.000    0.000    0.000    0.000    0.000    2.545 
#    0.000    0.000    0.000    0.000    0.000    0.000 
#
# Total GULP energy -245441.266252 kJ/mol
# GULP energy per Si atom -5578.210597 kJ/mol
# Density = 1.939178 g / cm^3
# Si number density = 19.436018 Si / 1000 Ang^3
#
#
#
# Elastic Constant Matrix: (Units=GPa)
#
#
# Indices 1 2 3 4 5 6 
#
# 1 127.4980 29.8464 34.5272 0.0000 0.0000 0.0000
# 2 29.8464 47.1106 12.0433 0.0000 0.0000 0.0000
# 3 34.5272 12.0433 115.0793 0.0000 0.0000 0.0000
# 4 0.0000 0.0000 0.0000 25.7419 0.0000 0.0000
# 5 0.0000 0.0000 0.0000 0.0000 -14.8373 0.0000
# 6 0.0000 0.0000 0.0000 0.0000 0.0000 37.8243
#
#
#
# Elastic Compliance Matrix: (Units=1/GPa)
#
#
# Indices 1 2 3 4 5 6 
#
# 1 0.009791 -0.005602 -0.002351 0.000000 0.000000 0.000000
# 2 -0.005602 0.025015 -0.000937 0.000000 0.000000 0.000000
# 3 -0.002351 -0.000937 0.009493 0.000000 0.000000 0.000000
# 4 0.000000 0.000000 0.000000 0.038847 0.000000 0.000000
# 5 0.000000 0.000000 0.000000 0.000000 -0.067398 0.000000
# 6 0.000000 0.000000 0.000000 0.000000 0.000000 0.026438
#
#
# Mechanical properties :
#
#
# Convention : Reuss Voigt Hill
#
# Bulk Modulus (GPa) = 37.70927 49.16908 43.43917
# Shear Modulus (GPa) = 72.66535 23.96384 48.31460
#
# Velocity S-wave (km/s) = 6.12112 3.51516 4.99122
# Velocity P-wave (km/s) = 8.33075 6.46746 7.45752
#
# Compressibility (1/GPa) = 0.02651868
#
# Stress axis : x y z
#
# Youngs Moduli (GPa) = 102.12963 39.97535 105.33818
#
# Poissons Ratio (x) = 0.22395 0.24770
# Poissons Ratio (y) = 0.57215 0.09871
# Poissons Ratio (z) = 0.24015 0.03746
#
# Static dielectric constant tensor:
#      x y z
#    x 1.686020 0.000000 0.000000 
#    y 0.000000 1.891820 0.000000 
#    z 0.000000 0.000000 1.912780 
# 
# From -- ./inp_files/56770.got.cif
#   From: 2010.05.17/outbox.cif.g08.bks.cpg/sg66_29_cif.got.tgz:56770.got - 2010.06.03 17:51:23.
