data_PCOD9499361
_publ_section_title
;
Structure prediction by ZEFSAII (Michael W. Deem and Ramdas Pophale) SiO2 
 PCOD9499361
Probable space group: C C C M
;
_chemical_formula_sum "Si O2"
_cell_formula_units_Z 112
_cell_length_a 24.907174
_cell_length_b 15.568475
_cell_length_c 15.712948
_cell_angle_alpha 90.000000
_cell_angle_beta 90.000000
_cell_angle_gamma 90.000000
_cell_volume 6092.958241
_symmetry_space_group_name_H-M "C C C M"
_symmetry_group_IT_number 66
_symmetry_cell_setting 'orthorhombic'
loop_
_space_group_symop_operation_xyz
x,y,z
-x,-y,z
x,-y,1/2-z
-x,y,1/2-z
-x,-y,-z
x,y,-z
-x,y,1/2+z
x,-y,1/2+z
1/2+x,1/2+y,z
1/2-x,1/2-y,z
1/2+x,1/2-y,1/2-z
1/2-x,1/2+y,1/2-z
1/2-x,1/2-y,-z
1/2+x,1/2+y,-z
1/2-x,1/2+y,1/2+z
1/2+x,1/2-y,1/2+z
loop_
_atom_site_type_symbol
_atom_site_label
_atom_site_fract_x
_atom_site_fract_y
_atom_site_fract_z
Si Si1 0.594076 0.504131 0.152060
Si Si2 0.942984 0.832656 0.405856
Si Si3 0.288566 0.482384 0.404592
Si Si4 0.127273 0.250532 0.257300
Si Si5 0.192077 0.586707 0.209710
Si Si6 0.931470 0.801659 0.902674
Si Si7 0.274748 0.334505 0.843136
O O1 0.577254 0.500000 0.250000
O O2 0.559244 0.435800 0.100636
O O3 0.655756 0.470238 0.145887
O O4 0.587896 0.600736 0.117886
O O5 0.923058 0.807108 0.500000
O O6 0.907350 0.798016 0.328308
O O7 0.004193 0.802632 0.397091
O O8 0.295198 0.449594 0.500000
O O9 0.234930 0.441744 0.363020
O O10 0.285753 0.586104 0.403943
O O11 0.148931 0.337845 0.301158
O O12 0.092366 0.259520 0.170735
O O13 0.176920 0.195000 0.218953
O O14 0.167916 0.500000 0.250000
O O15 0.230156 0.627427 0.280981
O O16 0.915444 0.780351 0.000000
O O17 0.250000 0.250000 0.885598
#
# Coordination Sequence:
#
# PCOD9499361 Si02
#       7
#    16  16  16  16  16  16  16
#     4  12  21  34  56  81 118 159 187 224 277 344
#     4  11  23  36  53  82 116 151 192 234 281 342
#     4  11  20  32  52  80 114 149 188 230 279 342
#     4  11  20  36  60  80 111 154 189 237 288 338
#     4   9  20  37  55  79 109 145 187 233 288 343
#     4  11  23  37  56  84 115 147 192 242 284 337
#     4   9  18  33  53  77 106 143 186 230 280 334
#
# _framework density 18.381875999999998
#
# number of rings (size 3 to 8) (size 9 to 14) (size 15 to 20)
#    0.000    1.429    2.857    4.286    0.000    2.571 
#    0.000    5.714    0.000    6.000    0.000    2.000 
#    0.000    0.000    0.000    0.000    0.000    0.000 
#
# Total GULP energy -312121.702323 kJ/mol
# GULP energy per Si atom -5573.601827 kJ/mol
# Density = 1.834004 g / cm^3
# Si number density = 18.381876 Si / 1000 Ang^3
#
#
#
# Elastic Constant Matrix: (Units=GPa)
#
#
# Indices 1 2 3 4 5 6 
#
# 1 50.5281 25.7812 16.6680 0.0000 0.0000 0.0000
# 2 25.7812 67.0323 14.8280 0.0000 0.0000 0.0000
# 3 16.6680 14.8280 88.4798 0.0000 0.0000 0.0000
# 4 0.0000 0.0000 0.0000 11.6439 0.0000 0.0000
# 5 0.0000 0.0000 0.0000 0.0000 35.1785 0.0000
# 6 0.0000 0.0000 0.0000 0.0000 0.0000 21.7886
#
#
#
# Elastic Compliance Matrix: (Units=1/GPa)
#
#
# Indices 1 2 3 4 5 6 
#
# 1 0.025509 -0.009085 -0.003283 0.000000 0.000000 0.000000
# 2 -0.009085 0.018728 -0.001427 0.000000 0.000000 0.000000
# 3 -0.003283 -0.001427 0.012160 0.000000 0.000000 0.000000
# 4 0.000000 0.000000 0.000000 0.085882 0.000000 0.000000
# 5 0.000000 0.000000 0.000000 0.000000 0.028426 0.000000
# 6 0.000000 0.000000 0.000000 0.000000 0.000000 0.045896
#
#
# Mechanical properties :
#
#
# Convention : Reuss Voigt Hill
#
# Bulk Modulus (GPa) = 34.71384 35.62164 35.16774
# Shear Modulus (GPa) = 19.70109 23.63973 21.67041
#
# Velocity S-wave (km/s) = 3.27734 3.59002 3.43724
# Velocity P-wave (km/s) = 5.76603 6.05021 5.90983
#
# Compressibility (1/GPa) = 0.02880695
#
# Stress axis : x y z
#
# Youngs Moduli (GPa) = 39.20123 53.39597 82.23927
#
# Poissons Ratio (x) = 0.48510 0.26999
# Poissons Ratio (y) = 0.35614 0.11737
# Poissons Ratio (z) = 0.12870 0.07620
#
# Static dielectric constant tensor:
#      x y z
#    x 1.685870 0.000000 0.000000 
#    y 0.000000 1.676980 0.000000 
#    z 0.000000 0.000000 1.645900 
# 
# From -- ./inp_files/28909.got.cif
#   From: 2010.05.17/outbox.cif.g08.bks.cpg/sg66_15_cif.got.tgz:28909.got - 2010.06.03 17:51:23.
