data_PCOD9499509
_publ_section_title
;
Structure prediction by ZEFSAII (Michael W. Deem and Ramdas Pophale) SiO2 
 PCOD9499509
Probable space group: C C C M
;
_chemical_formula_sum "Si O2"
_cell_formula_units_Z 84
_cell_length_a 12.948292
_cell_length_b 12.328845
_cell_length_c 23.883993
_cell_angle_alpha 90.000000
_cell_angle_beta 90.000000
_cell_angle_gamma 90.000000
_cell_volume 3812.780576
_symmetry_space_group_name_H-M "C C C M"
_symmetry_group_IT_number 66
_symmetry_cell_setting 'orthorhombic'
loop_
_space_group_symop_operation_xyz
x,y,z
-x,-y,z
x,-y,1/2-z
-x,y,1/2-z
-x,-y,-z
x,y,-z
-x,y,1/2+z
x,-y,1/2+z
1/2+x,1/2+y,z
1/2-x,1/2-y,z
1/2+x,1/2-y,1/2-z
1/2-x,1/2+y,1/2-z
1/2-x,1/2-y,-z
1/2+x,1/2+y,-z
1/2-x,1/2+y,1/2+z
1/2+x,1/2-y,1/2+z
loop_
_atom_site_type_symbol
_atom_site_label
_atom_site_fract_x
_atom_site_fract_y
_atom_site_fract_z
Si Si1 0.751218 0.087275 0.099718
Si Si2 0.250000 0.750000 0.000000
Si Si3 0.168706 0.895144 0.781186
Si Si4 0.458798 0.124150 0.562027
Si Si5 0.671165 0.153487 0.605025
Si Si6 0.113406 0.662040 0.735366
O O1 0.827868 0.097414 0.151914
O O2 0.631863 0.131434 0.107151
O O3 0.725094 0.960372 0.087699
O O4 0.787918 0.161692 0.049294
O O5 0.120536 0.787864 0.754390
O O6 0.291083 0.889983 0.767625
O O7 0.125811 0.000000 0.750000
O O8 0.412263 0.151882 0.500000
O O9 0.565297 0.183138 0.573174
O O10 0.500000 0.000000 0.560691
O O11 0.750000 0.250000 0.598276
O O12 0.638287 0.145698 0.670081
O O13 0.000000 0.621839 0.750000
#
# Coordination Sequence:
#
# PCOD9499509 Si02
#       6
#    16   4  16  16  16  16
#     4  11  22  41  65  92 127 171 220 275 327 403
#     4  12  24  40  68  90 126 176 226 266 346 398
#     4  11  21  40  63  93 133 172 213 269 332 399
#     4   9  19  36  60  91 120 155 208 270 329 378
#     4  11  21  39  63  94 130 166 215 276 333 396
#     4  11  22  37  59  94 129 168 215 267 330 395
#
# _framework density 22.031165000000001
#
# number of rings (size 3 to 8) (size 9 to 14) (size 15 to 20)
#    0.000    1.333    4.762    2.286    1.333    1.143 
#    0.000    0.000    0.000    4.571    0.000    0.000 
#    0.000    0.000    0.000    0.000    0.000    0.000 
#
# Total GULP energy -234037.222709 kJ/mol
# GULP energy per Si atom -5572.314826 kJ/mol
# Density = 2.198102 g / cm^3
# Si number density = 22.031165 Si / 1000 Ang^3
#
#
#
# Elastic Constant Matrix: (Units=GPa)
#
#
# Indices 1 2 3 4 5 6 
#
# 1 67.4449 7.1434 -2.0410 0.0000 0.0000 0.0000
# 2 7.1434 140.4352 28.9782 0.0000 0.0000 0.0000
# 3 -2.0410 28.9782 117.3300 0.0000 0.0000 0.0000
# 4 0.0000 0.0000 0.0000 31.5508 0.0000 0.0000
# 5 0.0000 0.0000 0.0000 0.0000 37.0174 0.0000
# 6 0.0000 0.0000 0.0000 0.0000 0.0000 -369.2407
#
#
#
# Elastic Compliance Matrix: (Units=1/GPa)
#
#
# Indices 1 2 3 4 5 6 
#
# 1 0.014932 -0.000857 0.000471 0.000000 0.000000 0.000000
# 2 -0.000857 0.007552 -0.001880 0.000000 0.000000 0.000000
# 3 0.000471 -0.001880 0.008996 0.000000 0.000000 0.000000
# 4 0.000000 0.000000 0.000000 0.031695 0.000000 0.000000
# 5 0.000000 0.000000 0.000000 0.000000 0.027014 0.000000
# 6 0.000000 0.000000 0.000000 0.000000 0.000000 -0.002708
#
#
# Mechanical properties :
#
#
# Convention : Reuss Voigt Hill
#
# Bulk Modulus (GPa) = 37.10779 43.70793 40.40786
# Shear Modulus (GPa) = 49.50756 -40.72584 4.39086
#
# Velocity S-wave (km/s) = 4.74556 -4.30415 1.41328
# Velocity P-wave (km/s) = 6.84887 2.19516 4.58739
#
# Compressibility (1/GPa) = 0.02694852
#
# Stress axis : x y z
#
# Youngs Moduli (GPa) = 66.97063 132.41058 111.16631
#
# Poissons Ratio (x) = 0.11345 -0.05240
# Poissons Ratio (y) = 0.05738 0.20901
# Poissons Ratio (z) = -0.03157 0.24895
#
# Static dielectric constant tensor:
#      x y z
#    x 1.762610 0.000000 0.000000 
#    y 0.000000 1.504010 0.000000 
#    z 0.000000 0.000000 1.939150 
# 
# From -- ./inp_files/58001.got.cif
#   From: 2010.05.17/outbox.cif.g08.bks.cpg/sg66_30_cif.got.tgz:58001.got - 2010.06.03 17:51:23.
