data_PCOD9499917
_publ_section_title
;
Structure prediction by ZEFSAII (Michael W. Deem and Ramdas Pophale) SiO2 
 PCOD9499917
Probable space group: C C C M
;
_chemical_formula_sum "Si O2"
_cell_formula_units_Z 32
_cell_length_a 7.283472
_cell_length_b 7.673052
_cell_length_c 23.492457
_cell_angle_alpha 90.000000
_cell_angle_beta 90.000000
_cell_angle_gamma 90.000000
_cell_volume 1312.910244
_symmetry_space_group_name_H-M "C C C M"
_symmetry_group_IT_number 66
_symmetry_cell_setting 'orthorhombic'
loop_
_space_group_symop_operation_xyz
x,y,z
-x,-y,z
x,-y,1/2-z
-x,y,1/2-z
-x,-y,-z
x,y,-z
-x,y,1/2+z
x,-y,1/2+z
1/2+x,1/2+y,z
1/2-x,1/2-y,z
1/2+x,1/2-y,1/2-z
1/2-x,1/2+y,1/2-z
1/2-x,1/2-y,-z
1/2+x,1/2+y,-z
1/2-x,1/2+y,1/2+z
1/2+x,1/2-y,1/2+z
loop_
_atom_site_type_symbol
_atom_site_label
_atom_site_fract_x
_atom_site_fract_y
_atom_site_fract_z
Si Si1 0.964406 0.704236 0.000000
Si Si2 0.750000 0.750000 0.597573
Si Si3 0.214912 0.453215 0.812580
O O1 0.750000 0.750000 0.000000
O O2 0.000000 0.500000 0.000000
O O3 0.074110 0.760926 0.943845
O O4 0.724102 0.583312 0.638121
O O5 0.291895 0.500000 0.750000
O O6 0.250000 0.250000 0.824069
O O7 0.000000 0.500000 0.809840
#
# Coordination Sequence:
#
# PCOD9499917 Si02
#       3
#     8   8  16
#     4  11  28  51  79 118 157 215 288 343 415 490
#     4  11  26  50  84 114 166 219 270 352 420 501
#     4  11  25  47  76 117 163 214 272 338 419 516
#
# _framework density 24.373332999999999
#
# number of rings (size 3 to 8) (size 9 to 14) (size 15 to 20)
#    0.000    1.000    2.500    1.500    0.000   18.000 
#    0.000    3.750    0.000    0.000    0.000    0.000 
#    0.000    0.000    0.000    0.000    0.000    0.000 
#
# Total GULP energy -89661.388043 kJ/mol
# GULP energy per Si atom -5603.836753 kJ/mol
# Density = 2.431786 g / cm^3
# Si number density = 24.373333 Si / 1000 Ang^3
#
#
#
# Elastic Constant Matrix: (Units=GPa)
#
#
# Indices 1 2 3 4 5 6 
#
# 1 204.1810 89.8898 102.8595 0.0000 0.0000 0.0000
# 2 89.8898 266.8988 147.0554 0.0000 0.0000 0.0000
# 3 102.8595 147.0554 273.1027 0.0000 0.0000 0.0000
# 4 0.0000 0.0000 0.0000 135.2465 0.0000 0.0000
# 5 0.0000 0.0000 0.0000 0.0000 6.5526 0.0000
# 6 0.0000 0.0000 0.0000 0.0000 0.0000 39.9815
#
#
#
# Elastic Compliance Matrix: (Units=1/GPa)
#
#
# Indices 1 2 3 4 5 6 
#
# 1 0.006285 -0.001155 -0.001745 0.000000 0.000000 0.000000
# 2 -0.001155 0.005540 -0.002548 0.000000 0.000000 0.000000
# 3 -0.001745 -0.002548 0.005691 0.000000 0.000000 0.000000
# 4 0.000000 0.000000 0.000000 0.007394 0.000000 0.000000
# 5 0.000000 0.000000 0.000000 0.000000 0.152612 0.000000
# 6 0.000000 0.000000 0.000000 0.000000 0.000000 0.025012
#
#
# Mechanical properties :
#
#
# Convention : Reuss Voigt Hill
#
# Bulk Modulus (GPa) = 151.07360 158.19911 154.63635
# Shear Modulus (GPa) = 23.18724 63.31465 43.25095
#
# Velocity S-wave (km/s) = 3.08772 5.10229 4.21707
# Velocity P-wave (km/s) = 8.65042 9.98793 9.34314
#
# Compressibility (1/GPa) = 0.00661929
#
# Stress axis : x y z
#
# Youngs Moduli (GPa) = 159.09854 180.51910 175.72297
#
# Poissons Ratio (x) = 0.20856 0.30667
# Poissons Ratio (y) = 0.18381 0.44769
# Poissons Ratio (z) = 0.27766 0.45991
#
# Static dielectric constant tensor:
#      x y z
#    x 1.892810 0.000000 0.000000 
#    y 0.000000 1.849180 0.000000 
#    z 0.000000 0.000000 2.181920 
# 
# From -- ./inp_files/45971.got.cif
#   From: 2010.05.17/outbox.cif.g08.bks.cpg/sg66_23_cif.got.tgz:45971.got - 2010.06.03 17:51:23.
