data_PCOD9499171
_publ_section_title
;
Structure prediction by ZEFSAII (Michael W. Deem and Ramdas Pophale) SiO2 
 PCOD9499171
Probable space group: C C C M
;
_chemical_formula_sum "Si O2"
_cell_formula_units_Z 60
_cell_length_a 10.522542
_cell_length_b 26.611617
_cell_length_c 10.001968
_cell_angle_alpha 90.000000
_cell_angle_beta 90.000000
_cell_angle_gamma 90.000000
_cell_volume 2800.769659
_symmetry_space_group_name_H-M "C C C M"
_symmetry_group_IT_number 66
_symmetry_cell_setting 'orthorhombic'
loop_
_space_group_symop_operation_xyz
x,y,z
-x,-y,z
x,-y,1/2-z
-x,y,1/2-z
-x,-y,-z
x,y,-z
-x,y,1/2+z
x,-y,1/2+z
1/2+x,1/2+y,z
1/2-x,1/2-y,z
1/2+x,1/2-y,1/2-z
1/2-x,1/2+y,1/2-z
1/2-x,1/2-y,-z
1/2+x,1/2+y,-z
1/2-x,1/2+y,1/2+z
1/2+x,1/2-y,1/2+z
loop_
_atom_site_type_symbol
_atom_site_label
_atom_site_fract_x
_atom_site_fract_y
_atom_site_fract_z
Si Si1 0.500000 0.500000 0.500000
Si Si2 0.163412 0.539972 0.500000
Si Si3 0.000000 0.920077 0.750000
Si Si4 0.378950 0.220557 0.844745
Si Si5 0.273115 0.886154 0.269601
Si Si6 0.370012 0.070248 0.500000
O O1 0.498736 0.455718 0.619059
O O2 0.210865 0.566511 0.367361
O O3 0.207987 0.482296 0.500000
O O4 0.013531 0.550719 0.500000
O O5 0.123238 0.884205 0.752174
O O6 0.500000 0.230163 0.750000
O O7 0.250000 0.250000 0.805696
O O8 0.338600 0.162137 0.833220
O O9 0.408290 0.232370 0.000000
O O10 0.340925 0.898618 0.130904
#
# Coordination Sequence:
#
# PCOD9499171 Si02
#       6
#     4   8   8  16  16   8
#     4  10  24  42  60  94 142 194 240 286 346 398
#     4  11  23  42  66  94 141 184 234 286 343 415
#     4  11  26  40  66  98 140 186 240 288 343 418
#     4  11  27  52  81 109 145 185 237 303 370 440
#     4  12  25  42  70  99 142 184 236 289 354 419
#     4  11  25  40  64 102 135 188 234 282 343 423
#
# _framework density 21.422681999999998
#
# number of rings (size 3 to 8) (size 9 to 14) (size 15 to 20)
#    0.000    0.800    1.333    4.800   14.933    2.667 
#    0.000    0.000    0.000    0.000    0.000    0.000 
#    0.000    0.000    0.000    0.000    0.000    0.000 
#
# Total GULP energy -167355.633713 kJ/mol
# GULP energy per Si atom -5578.521124 kJ/mol
# Density = 2.137392 g / cm^3
# Si number density = 21.422682 Si / 1000 Ang^3
#
#
#
# Elastic Constant Matrix: (Units=GPa)
#
#
# Indices 1 2 3 4 5 6 
#
# 1 150.4432 13.8642 46.5204 0.0000 0.0000 0.0000
# 2 13.8642 40.0337 5.3846 0.0000 0.0000 0.0000
# 3 46.5204 5.3846 144.2233 0.0000 0.0000 0.0000
# 4 0.0000 0.0000 0.0000 22.6893 0.0000 0.0000
# 5 0.0000 0.0000 0.0000 0.0000 23.9630 0.0000
# 6 0.0000 0.0000 0.0000 0.0000 0.0000 27.4598
#
#
#
# Elastic Compliance Matrix: (Units=1/GPa)
#
#
# Indices 1 2 3 4 5 6 
#
# 1 0.007590 -0.002311 -0.002362 0.000000 0.000000 0.000000
# 2 -0.002311 0.025809 -0.000218 0.000000 0.000000 0.000000
# 3 -0.002362 -0.000218 0.007704 0.000000 0.000000 0.000000
# 4 0.000000 0.000000 0.000000 0.044074 0.000000 0.000000
# 5 0.000000 0.000000 0.000000 0.000000 0.041731 0.000000
# 6 0.000000 0.000000 0.000000 0.000000 0.000000 0.036417
#
#
# Mechanical properties :
#
#
# Convention : Reuss Voigt Hill
#
# Bulk Modulus (GPa) = 31.92810 51.80431 41.86620
# Shear Modulus (GPa) = 27.24102 32.75115 29.99608
#
# Velocity S-wave (km/s) = 3.56981 3.91424 3.74599
# Velocity P-wave (km/s) = 5.65046 6.68303 6.18832
#
# Compressibility (1/GPa) = 0.03132037
#
# Stress axis : x y z
#
# Youngs Moduli (GPa) = 131.74540 38.74679 129.80712
#
# Poissons Ratio (x) = 0.08954 0.30661
# Poissons Ratio (y) = 0.30446 0.02832
# Poissons Ratio (z) = 0.31119 0.00845
#
# Static dielectric constant tensor:
#      x y z
#    x 1.962320 0.000000 0.000000 
#    y 0.000000 1.789210 0.000000 
#    z 0.000000 0.000000 1.726640 
# 
# From -- ./inp_files/3793.got.cif
#   From: 2010.05.17/outbox.cif.g08.bks.cpg/sg66_2_cif.got.tgz:3793.got - 2010.06.03 17:51:23.
