data_PCOD9499185
_publ_section_title
;
Structure prediction by ZEFSAII (Michael W. Deem and Ramdas Pophale) SiO2 
 PCOD9499185
Probable space group: C C C M
;
_chemical_formula_sum "Si O2"
_cell_formula_units_Z 64
_cell_length_a 8.329417
_cell_length_b 14.736404
_cell_length_c 21.689136
_cell_angle_alpha 90.000000
_cell_angle_beta 90.000000
_cell_angle_gamma 90.000000
_cell_volume 2662.247183
_symmetry_space_group_name_H-M "C C C M"
_symmetry_group_IT_number 66
_symmetry_cell_setting 'orthorhombic'
loop_
_space_group_symop_operation_xyz
x,y,z
-x,-y,z
x,-y,1/2-z
-x,y,1/2-z
-x,-y,-z
x,y,-z
-x,y,1/2+z
x,-y,1/2+z
1/2+x,1/2+y,z
1/2-x,1/2-y,z
1/2+x,1/2-y,1/2-z
1/2-x,1/2+y,1/2-z
1/2-x,1/2-y,-z
1/2+x,1/2+y,-z
1/2-x,1/2+y,1/2+z
1/2+x,1/2-y,1/2+z
loop_
_atom_site_type_symbol
_atom_site_label
_atom_site_fract_x
_atom_site_fract_y
_atom_site_fract_z
Si Si1 0.602712 0.593944 0.166493
Si Si2 0.323536 0.153469 0.279351
Si Si3 0.892335 0.176747 0.933394
Si Si4 0.828660 0.477149 0.898206
O O1 0.500000 0.500000 0.172435
O O2 0.689362 0.618959 0.230177
O O3 0.501276 0.667869 0.127870
O O4 0.747962 0.570354 0.121083
O O5 0.500000 0.163944 0.250000
O O6 0.250000 0.250000 0.297556
O O7 0.346033 0.082473 0.335053
O O8 0.750000 0.250000 0.929171
O O9 0.798400 0.081165 0.935444
O O10 0.975493 0.191087 0.000000
O O11 0.000000 0.500000 0.925670
#
# Coordination Sequence:
#
# PCOD9499185 Si02
#       4
#    16  16  16  16
#     4  10  24  42  70  97 137 180 224 272 339 401
#     4  12  27  42  66 102 141 181 220 277 339 411
#     4  10  24  46  71  98 135 177 227 283 338 398
#     4  11  23  42  67 102 137 179 224 277 333 401
#
# _framework density 24.039840000000002
#
# number of rings (size 3 to 8) (size 9 to 14) (size 15 to 20)
#    0.000    1.250    2.500    1.500   10.500    8.000 
#    0.000    0.000    0.000    3.750    0.000    0.000 
#    0.000    0.000    0.000    0.000    0.000    0.000 
#
# Total GULP energy -178842.744451 kJ/mol
# GULP energy per Si atom -5588.835764 kJ/mol
# Density = 2.398512 g / cm^3
# Si number density = 24.039840 Si / 1000 Ang^3
#
#
#
# Elastic Constant Matrix: (Units=GPa)
#
#
# Indices 1 2 3 4 5 6 
#
# 1 117.1532 13.4647 35.4721 0.0000 0.0000 0.0000
# 2 13.4647 57.2312 26.5934 0.0000 0.0000 0.0000
# 3 35.4721 26.5934 147.5676 0.0000 0.0000 0.0000
# 4 0.0000 0.0000 0.0000 18.0111 0.0000 0.0000
# 5 0.0000 0.0000 0.0000 0.0000 10.3207 0.0000
# 6 0.0000 0.0000 0.0000 0.0000 0.0000 36.9392
#
#
#
# Elastic Compliance Matrix: (Units=1/GPa)
#
#
# Indices 1 2 3 4 5 6 
#
# 1 0.009287 -0.001253 -0.002007 0.000000 0.000000 0.000000
# 2 -0.001253 0.019239 -0.003166 0.000000 0.000000 0.000000
# 3 -0.002007 -0.003166 0.007829 0.000000 0.000000 0.000000
# 4 0.000000 0.000000 0.000000 0.055521 0.000000 0.000000
# 5 0.000000 0.000000 0.000000 0.000000 0.096893 0.000000
# 6 0.000000 0.000000 0.000000 0.000000 0.000000 0.027071
#
#
# Mechanical properties :
#
#
# Convention : Reuss Voigt Hill
#
# Bulk Modulus (GPa) = 42.54397 52.55693 47.55045
# Shear Modulus (GPa) = 21.13925 29.48233 25.31079
#
# Velocity S-wave (km/s) = 2.96859 3.50579 3.24831
# Velocity P-wave (km/s) = 5.43007 6.18848 5.82164
#
# Compressibility (1/GPa) = 0.02350509
#
# Stress axis : x y z
#
# Youngs Moduli (GPa) = 107.67267 51.97838 127.72237
#
# Poissons Ratio (x) = 0.06511 0.25631
# Poissons Ratio (y) = 0.13487 0.40436
# Poissons Ratio (z) = 0.21607 0.16456
#
# Static dielectric constant tensor:
#      x y z
#    x 1.897940 0.000000 0.000000 
#    y 0.000000 1.951890 0.000000 
#    z 0.000000 0.000000 2.015810 
# 
# From -- ./inp_files/54941.got.cif
#   From: 2010.05.17/outbox.cif.g08.bks.cpg/sg66_28_cif.got.tgz:54941.got - 2010.06.03 17:51:23.
