data_PCOD9499223
_publ_section_title
;
Structure prediction by ZEFSAII (Michael W. Deem and Ramdas Pophale) SiO2 
 PCOD9499223
Probable space group: C C C M
;
_chemical_formula_sum "Si O2"
_cell_formula_units_Z 72
_cell_length_a 28.058673
_cell_length_b 8.586057
_cell_length_c 15.074927
_cell_angle_alpha 90.000000
_cell_angle_beta 90.000000
_cell_angle_gamma 90.000000
_cell_volume 3631.751402
_symmetry_space_group_name_H-M "C C C M"
_symmetry_group_IT_number 66
_symmetry_cell_setting 'orthorhombic'
loop_
_space_group_symop_operation_xyz
x,y,z
-x,-y,z
x,-y,1/2-z
-x,y,1/2-z
-x,-y,-z
x,y,-z
-x,y,1/2+z
x,-y,1/2+z
1/2+x,1/2+y,z
1/2-x,1/2-y,z
1/2+x,1/2-y,1/2-z
1/2-x,1/2+y,1/2-z
1/2-x,1/2-y,-z
1/2+x,1/2+y,-z
1/2-x,1/2+y,1/2+z
1/2+x,1/2-y,1/2+z
loop_
_atom_site_type_symbol
_atom_site_label
_atom_site_fract_x
_atom_site_fract_y
_atom_site_fract_z
Si Si1 0.698279 0.835484 0.299920
Si Si2 0.115980 0.845648 0.308497
Si Si3 0.194641 0.716879 0.000000
Si Si4 0.018970 0.677154 0.337161
Si Si5 0.471428 0.657783 0.000000
Si Si6 0.129225 0.003338 0.000000
O O1 0.750000 0.750000 0.298402
O O2 0.658874 0.732384 0.247567
O O3 0.683005 0.858234 0.403797
O O4 0.702127 0.000000 0.250000
O O5 0.074812 0.716862 0.329646
O O6 0.129417 0.902643 0.407770
O O7 0.101094 0.000000 0.250000
O O8 0.250000 0.750000 0.000000
O O9 0.172644 0.887377 0.000000
O O10 0.990693 0.749788 0.417176
O O11 0.000000 0.500000 0.336773
O O12 0.000000 0.759760 0.250000
O O13 0.500000 0.500000 0.000000
O O14 0.583199 0.389651 0.000000
#
# Coordination Sequence:
#
# PCOD9499223 Si02
#       6
#    16  16   8  16   8   8
#     4  11  26  46  75 106 143 185 236 299 362 427
#     4  12  24  43  71 102 138 186 243 294 355 428
#     4  10  24  45  71 101 145 184 231 289 367 423
#     4  11  26  42  66  98 143 184 236 291 353 417
#     4  12  23  42  66 100 135 185 233 288 353 420
#     4  12  24  41  72 104 135 182 243 291 355 427
#
# _framework density 19.825146
#
# number of rings (size 3 to 8) (size 9 to 14) (size 15 to 20)
#    0.000    0.667    4.444    2.333    6.222    0.889 
#    0.000    1.111    0.000    0.000    0.000    0.000 
#    0.000    0.000    0.000    0.000    0.000    0.000 
#
# Total GULP energy -200645.659289 kJ/mol
# GULP energy per Si atom -5573.490536 kJ/mol
# Density = 1.978002 g / cm^3
# Si number density = 19.825146 Si / 1000 Ang^3
#
#
#
# Elastic Constant Matrix: (Units=GPa)
#
#
# Indices 1 2 3 4 5 6 
#
# 1 142.5099 52.2854 45.9704 0.0000 0.0000 0.0000
# 2 52.2854 116.7511 65.2732 0.0000 0.0000 0.0000
# 3 45.9704 65.2732 224.0323 0.0000 0.0000 0.0000
# 4 0.0000 0.0000 0.0000 34.9605 0.0000 0.0000
# 5 0.0000 0.0000 0.0000 0.0000 30.2877 0.0000
# 6 0.0000 0.0000 0.0000 0.0000 0.0000 44.3193
#
#
#
# Elastic Compliance Matrix: (Units=1/GPa)
#
#
# Indices 1 2 3 4 5 6 
#
# 1 0.008503 -0.003384 -0.000759 0.000000 0.000000 0.000000
# 2 -0.003384 0.011578 -0.002679 0.000000 0.000000 0.000000
# 3 -0.000759 -0.002679 0.005400 0.000000 0.000000 0.000000
# 4 0.000000 0.000000 0.000000 0.028604 0.000000 0.000000
# 5 0.000000 0.000000 0.000000 0.000000 0.033017 0.000000
# 6 0.000000 0.000000 0.000000 0.000000 0.000000 0.022564
#
#
# Mechanical properties :
#
#
# Convention : Reuss Voigt Hill
#
# Bulk Modulus (GPa) = 84.47353 90.03903 87.25628
# Shear Modulus (GPa) = 39.29104 43.23112 41.26108
#
# Velocity S-wave (km/s) = 4.45666 4.67478 4.56702
# Velocity P-wave (km/s) = 8.31770 8.64021 8.48049
#
# Compressibility (1/GPa) = 0.01183803
#
# Stress axis : x y z
#
# Youngs Moduli (GPa) = 117.60065 86.36732 185.18677
#
# Poissons Ratio (x) = 0.29225 0.14055
# Poissons Ratio (y) = 0.39794 0.49614
# Poissons Ratio (z) = 0.08925 0.23139
#
# Static dielectric constant tensor:
#      x y z
#    x 1.698360 0.000000 0.000000 
#    y 0.000000 1.638020 0.000000 
#    z 0.000000 0.000000 1.683490 
# 
# From -- ./inp_files/33062.got.cif
#   From: 2010.05.17/outbox.cif.g08.bks.cpg/sg66_17_cif.got.tgz:33062.got - 2010.06.03 17:51:23.
