data_PCOD9499788
_publ_section_title
;
Structure prediction by ZEFSAII (Michael W. Deem and Ramdas Pophale) SiO2 
 PCOD9499788
Probable space group: C C C M
;
_chemical_formula_sum "Si O2"
_cell_formula_units_Z 64
_cell_length_a 14.762781
_cell_length_b 14.000646
_cell_length_c 14.433392
_cell_angle_alpha 90.000000
_cell_angle_beta 90.000000
_cell_angle_gamma 90.000000
_cell_volume 2983.215720
_symmetry_space_group_name_H-M "C C C M"
_symmetry_group_IT_number 66
_symmetry_cell_setting 'orthorhombic'
loop_
_space_group_symop_operation_xyz
x,y,z
-x,-y,z
x,-y,1/2-z
-x,y,1/2-z
-x,-y,-z
x,y,-z
-x,y,1/2+z
x,-y,1/2+z
1/2+x,1/2+y,z
1/2-x,1/2-y,z
1/2+x,1/2-y,1/2-z
1/2-x,1/2+y,1/2-z
1/2-x,1/2-y,-z
1/2+x,1/2+y,-z
1/2-x,1/2+y,1/2+z
1/2+x,1/2-y,1/2+z
loop_
_atom_site_type_symbol
_atom_site_label
_atom_site_fract_x
_atom_site_fract_y
_atom_site_fract_z
Si Si1 0.586915 0.446816 0.847956
Si Si2 0.794559 0.438710 0.891663
Si Si3 0.573012 0.770844 0.614083
Si Si4 0.573878 0.914379 0.105151
O O1 0.500000 0.500000 0.893284
O O2 0.595250 0.500000 0.750000
O O3 0.687517 0.449201 0.889545
O O4 0.570586 0.333812 0.843958
O O5 0.841836 0.339790 0.858863
O O6 0.840521 0.534186 0.849755
O O7 0.822112 0.439958 0.000000
O O8 0.575037 0.761203 0.500000
O O9 0.481792 0.826203 0.643464
O O10 0.500000 0.000000 0.102532
O O11 0.597321 0.885618 0.000000
#
# Coordination Sequence:
#
# PCOD9499788 Si02
#       4
#    16  16  16  16
#     4  11  24  38  47  69 112 157 190 216 255 310
#     4   9  17  34  63  91 107 127 172 230 280 325
#     4   9  17  34  62  87 106 135 176 222 273 329
#     4   7  12  26  53  88 112 122 151 214 277 320
#
# _framework density 21.45336
#
# number of rings (size 3 to 8) (size 9 to 14) (size 15 to 20)
#    0.000    3.000    0.000    4.500    0.000    4.000 
#    0.000   11.250    0.000    9.750    0.000    0.000 
#    0.000    0.000    0.000    0.000    0.000    3.000 
#
# Total GULP energy -178145.470239 kJ/mol
# GULP energy per Si atom -5567.045945 kJ/mol
# Density = 2.140453 g / cm^3
# Si number density = 21.453360 Si / 1000 Ang^3
#
#
#
# Elastic Constant Matrix: (Units=GPa)
#
#
# Indices 1 2 3 4 5 6 
#
# 1 162.3873 96.3344 -0.0189 0.0000 0.0000 0.0000
# 2 96.3344 167.6398 39.4187 0.0000 0.0000 0.0000
# 3 -0.0189 39.4187 64.3317 0.0000 0.0000 0.0000
# 4 0.0000 0.0000 0.0000 31.7938 0.0000 0.0000
# 5 0.0000 0.0000 0.0000 0.0000 48.9577 0.0000
# 6 0.0000 0.0000 0.0000 0.0000 0.0000 33.0831
#
#
#
# Elastic Compliance Matrix: (Units=1/GPa)
#
#
# Indices 1 2 3 4 5 6 
#
# 1 0.010236 -0.006873 0.004214 0.000000 0.000000 0.000000
# 2 -0.006873 0.011584 -0.007100 0.000000 0.000000 0.000000
# 3 0.004214 -0.007100 0.019896 0.000000 0.000000 0.000000
# 4 0.000000 0.000000 0.000000 0.031453 0.000000 0.000000
# 5 0.000000 0.000000 0.000000 0.000000 0.020426 0.000000
# 6 0.000000 0.000000 0.000000 0.000000 0.000000 0.030227
#
#
# Mechanical properties :
#
#
# Convention : Reuss Voigt Hill
#
# Bulk Modulus (GPa) = 45.04738 73.98081 59.51410
# Shear Modulus (GPa) = 33.16982 40.00857 36.58920
#
# Velocity S-wave (km/s) = 3.93636 4.32314 4.13428
# Velocity P-wave (km/s) = 6.45781 7.71225 7.11274
#
# Compressibility (1/GPa) = 0.02219885
#
# Stress axis : x y z
#
# Youngs Moduli (GPa) = 97.69434 86.32328 50.26064
#
# Poissons Ratio (x) = 0.59331 -0.21182
# Poissons Ratio (y) = 0.67146 0.35686
# Poissons Ratio (z) = -0.41173 0.61292
#
# Static dielectric constant tensor:
#      x y z
#    x 1.832870 0.000000 0.000000 
#    y 0.000000 1.771600 0.000000 
#    z 0.000000 0.000000 1.889790 
# 
# From -- ./inp_files/39777.got.cif
#   From: 2010.05.17/outbox.cif.g08.bks.cpg/sg66_20_cif.got.tgz:39777.got - 2010.06.03 17:51:23.
