data_PCOD9499704
_publ_section_title
;
Structure prediction by ZEFSAII (Michael W. Deem and Ramdas Pophale) SiO2 
 PCOD9499704
Probable space group: C C C M
;
_chemical_formula_sum "Si O2"
_cell_formula_units_Z 104
_cell_length_a 17.798151
_cell_length_b 16.938712
_cell_length_c 15.367040
_cell_angle_alpha 90.000000
_cell_angle_beta 90.000000
_cell_angle_gamma 90.000000
_cell_volume 4632.820704
_symmetry_space_group_name_H-M "C C C M"
_symmetry_group_IT_number 66
_symmetry_cell_setting 'orthorhombic'
loop_
_space_group_symop_operation_xyz
x,y,z
-x,-y,z
x,-y,1/2-z
-x,y,1/2-z
-x,-y,-z
x,y,-z
-x,y,1/2+z
x,-y,1/2+z
1/2+x,1/2+y,z
1/2-x,1/2-y,z
1/2+x,1/2-y,1/2-z
1/2-x,1/2+y,1/2-z
1/2-x,1/2-y,-z
1/2+x,1/2+y,-z
1/2-x,1/2+y,1/2+z
1/2+x,1/2-y,1/2+z
loop_
_atom_site_type_symbol
_atom_site_label
_atom_site_fract_x
_atom_site_fract_y
_atom_site_fract_z
Si Si1 0.179413 0.506839 0.146711
Si Si2 0.821751 0.801960 0.333069
Si Si3 0.670749 0.719574 0.135354
Si Si4 0.391990 0.409858 0.000000
Si Si5 0.407391 0.160702 0.603326
Si Si6 0.425457 0.134689 0.101318
Si Si7 0.847706 0.982469 0.646419
O O1 0.177814 0.500000 0.250000
O O2 0.155132 0.595164 0.123564
O O3 0.119481 0.446326 0.108988
O O4 0.264029 0.486028 0.119576
O O5 0.750000 0.750000 0.365441
O O6 0.810403 0.815027 0.230170
O O7 0.890271 0.743310 0.351652
O O8 0.839013 0.888462 0.368783
O O9 0.750000 0.750000 0.097903
O O10 0.619231 0.796581 0.149517
O O11 0.629091 0.657172 0.075458
O O12 0.402330 0.476372 0.921638
O O13 0.407563 0.173128 0.500000
O O14 0.488707 0.127940 0.630595
O O15 0.425818 0.158034 0.000000
O O16 0.860811 0.000000 0.750000
#
# Coordination Sequence:
#
# PCOD9499704 Si02
#       7
#    16  16  16   8  16  16  16
#     4  11  23  38  60  93 135 174 215 259 319 391
#     4  11  23  43  63  93 135 168 216 273 316 391
#     4  11  23  39  66  98 124 162 221 270 331 388
#     4  12  23  38  65  93 124 170 208 274 338 375
#     4  11  25  42  61  92 134 180 216 257 323 400
#     4  11  24  40  63  94 130 169 216 271 319 393
#     4  11  24  40  62 101 135 166 219 277 326 391
#
# _framework density 22.448526999999999
#
# number of rings (size 3 to 8) (size 9 to 14) (size 15 to 20)
#    0.000    0.923    3.846    3.000    9.692    4.615 
#    0.000    0.000    0.000    1.846    0.000    0.000 
#    0.000    0.000    0.000    0.000    0.000    0.000 
#
# Total GULP energy -289760.697533 kJ/mol
# GULP energy per Si atom -5572.321106 kJ/mol
# Density = 2.239743 g / cm^3
# Si number density = 22.448527 Si / 1000 Ang^3
#
#
#
# Elastic Constant Matrix: (Units=GPa)
#
#
# Indices 1 2 3 4 5 6 
#
# 1 28.5294 -10.1414 -0.2684 0.0000 0.0000 0.0000
# 2 -10.1414 136.8184 14.4065 0.0000 0.0000 0.0000
# 3 -0.2684 14.4065 65.4016 0.0000 0.0000 0.0000
# 4 0.0000 0.0000 0.0000 38.3456 0.0000 0.0000
# 5 0.0000 0.0000 0.0000 0.0000 11.5440 0.0000
# 6 0.0000 0.0000 0.0000 0.0000 0.0000 28.4971
#
#
#
# Elastic Compliance Matrix: (Units=1/GPa)
#
#
# Indices 1 2 3 4 5 6 
#
# 1 0.036013 0.002717 -0.000451 0.000000 0.000000 0.000000
# 2 0.002717 0.007687 -0.001682 0.000000 0.000000 0.000000
# 3 -0.000451 -0.001682 0.015659 0.000000 0.000000 0.000000
# 4 0.000000 0.000000 0.000000 0.026079 0.000000 0.000000
# 5 0.000000 0.000000 0.000000 0.000000 0.086625 0.000000
# 6 0.000000 0.000000 0.000000 0.000000 0.000000 0.035091
#
#
# Mechanical properties :
#
#
# Convention : Reuss Voigt Hill
#
# Bulk Modulus (GPa) = 16.52149 26.52699 21.52424
# Shear Modulus (GPa) = 22.10806 30.79421 26.45113
#
# Velocity S-wave (km/s) = 3.14161 3.70776 3.43636
# Velocity P-wave (km/s) = 4.53159 5.49294 5.03526
#
# Compressibility (1/GPa) = 0.06052723
#
# Stress axis : x y z
#
# Youngs Moduli (GPa) = 27.76772 130.08177 63.86164
#
# Poissons Ratio (x) = -0.35341 0.02878
# Poissons Ratio (y) = -0.07544 0.10743
# Poissons Ratio (z) = 0.01251 0.21883
#
# Static dielectric constant tensor:
#      x y z
#    x 1.882440 0.000000 0.000000 
#    y 0.000000 1.818190 0.000000 
#    z 0.000000 0.000000 1.854290 
# 
# From -- ./inp_files/42960.got.cif
#   From: 2010.05.17/outbox.cif.g08.bks.cpg/sg66_22_cif.got.tgz:42960.got - 2010.06.03 17:51:23.
