data_PCOD9499896
_publ_section_title
;
Structure prediction by ZEFSAII (Michael W. Deem and Ramdas Pophale) SiO2 
 PCOD9499896
Probable space group: C C C M
;
_chemical_formula_sum "Si O2"
_cell_formula_units_Z 64
_cell_length_a 8.399148
_cell_length_b 15.006857
_cell_length_c 22.060689
_cell_angle_alpha 90.000000
_cell_angle_beta 90.000000
_cell_angle_gamma 90.000000
_cell_volume 2780.635419
_symmetry_space_group_name_H-M "C C C M"
_symmetry_group_IT_number 66
_symmetry_cell_setting 'orthorhombic'
loop_
_space_group_symop_operation_xyz
x,y,z
-x,-y,z
x,-y,1/2-z
-x,y,1/2-z
-x,-y,-z
x,y,-z
-x,y,1/2+z
x,-y,1/2+z
1/2+x,1/2+y,z
1/2-x,1/2-y,z
1/2+x,1/2-y,1/2-z
1/2-x,1/2+y,1/2-z
1/2-x,1/2-y,-z
1/2+x,1/2+y,-z
1/2-x,1/2+y,1/2+z
1/2+x,1/2-y,1/2+z
loop_
_atom_site_type_symbol
_atom_site_label
_atom_site_fract_x
_atom_site_fract_y
_atom_site_fract_z
Si Si1 0.323947 0.520196 0.107755
Si Si2 0.619258 0.827756 0.434713
Si Si3 0.320476 0.654125 0.778045
Si Si4 0.664535 0.154881 0.345354
O O1 0.500000 0.500000 0.085176
O O2 0.215151 0.580377 0.065959
O O3 0.334632 0.580049 0.169753
O O4 0.244935 0.425575 0.119254
O O5 0.534027 0.816765 0.500000
O O6 0.750000 0.750000 0.430870
O O7 0.504749 0.831059 0.376748
O O8 0.500000 0.664785 0.750000
O O9 0.250000 0.750000 0.797630
O O10 0.196300 0.628208 0.724643
O O11 0.750000 0.250000 0.351326
#
# Coordination Sequence:
#
# PCOD9499896 Si02
#       4
#    16  16  16  16
#     4  12  24  43  75 106 148 190 238 290 359 432
#     4  11  27  50  73 102 142 189 248 306 357 419
#     4  11  25  43  72 108 149 189 230 293 357 436
#     4  11  25  44  73 105 144 192 236 299 359 427
#
# _framework density 23.016324000000001
#
# number of rings (size 3 to 8) (size 9 to 14) (size 15 to 20)
#    0.000    0.750    2.500    3.750   10.500    3.000 
#    0.000    2.500    0.000    0.000    0.000    0.000 
#    0.000    0.000    0.000    0.000    0.000    0.000 
#
# Total GULP energy -178925.426344 kJ/mol
# GULP energy per Si atom -5591.419573 kJ/mol
# Density = 2.296394 g / cm^3
# Si number density = 23.016324 Si / 1000 Ang^3
#
#
#
# Elastic Constant Matrix: (Units=GPa)
#
#
# Indices 1 2 3 4 5 6 
#
# 1 99.5756 -7.8659 37.0361 0.0000 0.0000 0.0000
# 2 -7.8659 91.3276 -18.2937 0.0000 0.0000 0.0000
# 3 37.0361 -18.2937 98.8014 0.0000 0.0000 0.0000
# 4 0.0000 0.0000 0.0000 -876.8589 0.0000 0.0000
# 5 0.0000 0.0000 0.0000 0.0000 -11.1715 0.0000
# 6 0.0000 0.0000 0.0000 0.0000 0.0000 42.2440
#
#
#
# Elastic Compliance Matrix: (Units=1/GPa)
#
#
# Indices 1 2 3 4 5 6 
#
# 1 0.011671 0.000134 -0.004350 0.000000 0.000000 0.000000
# 2 0.000134 0.011373 0.002056 0.000000 0.000000 0.000000
# 3 -0.004350 0.002056 0.012133 0.000000 0.000000 0.000000
# 4 0.000000 0.000000 0.000000 -0.001140 0.000000 0.000000
# 5 0.000000 0.000000 0.000000 0.000000 -0.089513 0.000000
# 6 0.000000 0.000000 0.000000 0.000000 0.000000 0.023672
#
#
# Mechanical properties :
#
#
# Convention : Reuss Voigt Hill
#
# Bulk Modulus (GPa) = 32.40952 34.60638 33.50795
# Shear Modulus (GPa) = -290.72705 -150.56875 -220.64790
#
# Velocity S-wave (km/s) = -11.25112 -8.09693 -9.80173
# Velocity P-wave (km/s) = 12.43671 8.50561 10.65404
#
# Compressibility (1/GPa) = 0.03085513
#
# Stress axis : x y z
#
# Youngs Moduli (GPa) = 85.68089 87.92855 82.42246
#
# Poissons Ratio (x) = -0.01177 0.35856
# Poissons Ratio (y) = -0.01147 -0.16943
# Poissons Ratio (z) = 0.37273 -0.18075
#
# Static dielectric constant tensor:
#      x y z
#    x 1.879230 0.000000 0.000000 
#    y 0.000000 1.803260 0.000000 
#    z 0.000000 0.000000 1.958830 
# 
# From -- ./inp_files/54954.got.cif
#   From: 2010.05.17/outbox.cif.g08.bks.cpg/sg66_28_cif.got.tgz:54954.got - 2010.06.03 17:51:23.
