data_PCOD9499387
_publ_section_title
;
Structure prediction by ZEFSAII (Michael W. Deem and Ramdas Pophale) SiO2 
 PCOD9499387
Probable space group: C C C M
;
_chemical_formula_sum "Si O2"
_cell_formula_units_Z 100
_cell_length_a 14.459176
_cell_length_b 11.511056
_cell_length_c 29.777668
_cell_angle_alpha 90.000000
_cell_angle_beta 90.000000
_cell_angle_gamma 90.000000
_cell_volume 4956.206516
_symmetry_space_group_name_H-M "C C C M"
_symmetry_group_IT_number 66
_symmetry_cell_setting 'orthorhombic'
loop_
_space_group_symop_operation_xyz
x,y,z
-x,-y,z
x,-y,1/2-z
-x,y,1/2-z
-x,-y,-z
x,y,-z
-x,y,1/2+z
x,-y,1/2+z
1/2+x,1/2+y,z
1/2-x,1/2-y,z
1/2+x,1/2-y,1/2-z
1/2-x,1/2+y,1/2-z
1/2-x,1/2-y,-z
1/2+x,1/2+y,-z
1/2-x,1/2+y,1/2+z
1/2+x,1/2-y,1/2+z
loop_
_atom_site_type_symbol
_atom_site_label
_atom_site_fract_x
_atom_site_fract_y
_atom_site_fract_z
Si Si1 0.085095 0.912758 0.094483
Si Si2 0.000000 0.000000 0.250000
Si Si3 0.159799 0.326769 0.819486
Si Si4 0.966577 0.202686 0.812893
Si Si5 0.288183 0.030230 0.375725
Si Si6 0.685275 0.137490 0.779409
Si Si7 0.353224 0.803098 0.951052
O O1 0.067941 0.837826 0.139239
O O2 0.185418 0.974914 0.101861
O O3 0.087508 0.812888 0.056958
O O4 0.000000 0.000000 0.089119
O O5 0.052979 0.090601 0.281486
O O6 0.250000 0.250000 0.825204
O O7 0.159105 0.412195 0.862146
O O8 0.171199 0.400885 0.772923
O O9 0.073471 0.240028 0.814741
O O10 0.914272 0.314280 0.794376
O O11 0.274795 0.085075 0.325902
O O12 0.349820 0.107990 0.409386
O O13 0.750000 0.250000 0.772276
O O14 0.250000 0.750000 0.951190
O O15 0.372296 0.855997 0.000000
#
# Coordination Sequence:
#
# PCOD9499387 Si02
#       7
#    16   4  16  16  16  16  16
#     4  11  21  36  63  90 121 160 201 256 311 361
#     4  12  24  36  60  82 122 170 204 244 302 360
#     4  11  25  36  53  88 126 161 203 255 302 358
#     4  12  22  37  57  85 119 159 210 249 291 358
#     4  11  21  39  61  85 123 163 200 251 313 369
#     4  11  20  37  57  84 117 160 210 249 292 353
#     4   9  19  38  65  93 118 154 205 255 312 384
#
# _framework density 20.176721000000001
#
# number of rings (size 3 to 8) (size 9 to 14) (size 15 to 20)
#    0.000    1.120    5.600    1.920    0.000    0.960 
#    0.000    1.600    0.000    2.400    0.000    0.000 
#    0.000    0.000    0.000    0.000    0.000    0.000 
#
# Total GULP energy -278507.156266 kJ/mol
# GULP energy per Si atom -5570.143125 kJ/mol
# Density = 2.013080 g / cm^3
# Si number density = 20.176721 Si / 1000 Ang^3
#
#
#
# Elastic Constant Matrix: (Units=GPa)
#
#
# Indices 1 2 3 4 5 6 
#
# 1 79.8608 15.8015 5.5390 0.0000 0.0000 0.0000
# 2 15.8015 54.8970 45.5041 0.0000 0.0000 0.0000
# 3 5.5390 45.5041 101.5935 0.0000 0.0000 0.0000
# 4 0.0000 0.0000 0.0000 20.9713 0.0000 0.0000
# 5 0.0000 0.0000 0.0000 0.0000 7.9543 0.0000
# 6 0.0000 0.0000 0.0000 0.0000 0.0000 18.5348
#
#
#
# Elastic Compliance Matrix: (Units=1/GPa)
#
#
# Indices 1 2 3 4 5 6 
#
# 1 0.013438 -0.005186 0.001590 0.000000 0.000000 0.000000
# 2 -0.005186 0.030974 -0.013591 0.000000 0.000000 0.000000
# 3 0.001590 -0.013591 0.015844 0.000000 0.000000 0.000000
# 4 0.000000 0.000000 0.000000 0.047684 0.000000 0.000000
# 5 0.000000 0.000000 0.000000 0.000000 0.125718 0.000000
# 6 0.000000 0.000000 0.000000 0.000000 0.000000 0.053953
#
#
# Mechanical properties :
#
#
# Convention : Reuss Voigt Hill
#
# Bulk Modulus (GPa) = 38.63619 41.11562 39.87591
# Shear Modulus (GPa) = 15.12355 20.79252 17.95804
#
# Velocity S-wave (km/s) = 2.74077 3.21365 2.98659
# Velocity P-wave (km/s) = 5.40428 5.84740 5.63020
#
# Compressibility (1/GPa) = 0.02588247
#
# Stress axis : x y z
#
# Youngs Moduli (GPa) = 74.41802 32.28530 63.11651
#
# Poissons Ratio (x) = 0.16743 -0.10037
# Poissons Ratio (y) = 0.38593 0.85779
# Poissons Ratio (z) = -0.11834 0.43878
#
# Static dielectric constant tensor:
#      x y z
#    x 1.781630 0.000000 0.000000 
#    y 0.000000 1.821990 0.000000 
#    z 0.000000 0.000000 1.736900 
# 
# From -- ./inp_files/69496.got.cif
#   From: 2010.05.17/outbox.cif.g08.bks.cpg/sg66_35_cif.got.tgz:69496.got - 2010.06.03 17:51:23.
