data_PCOD9499388
_publ_section_title
;
Structure prediction by ZEFSAII (Michael W. Deem and Ramdas Pophale) SiO2 
 PCOD9499388
Probable space group: C C C M
;
_chemical_formula_sum "Si O2"
_cell_formula_units_Z 80
_cell_length_a 12.068050
_cell_length_b 11.638706
_cell_length_c 24.932155
_cell_angle_alpha 90.000000
_cell_angle_beta 90.000000
_cell_angle_gamma 90.000000
_cell_volume 3501.882878
_symmetry_space_group_name_H-M "C C C M"
_symmetry_group_IT_number 66
_symmetry_cell_setting 'orthorhombic'
loop_
_space_group_symop_operation_xyz
x,y,z
-x,-y,z
x,-y,1/2-z
-x,y,1/2-z
-x,-y,-z
x,y,-z
-x,y,1/2+z
x,-y,1/2+z
1/2+x,1/2+y,z
1/2-x,1/2-y,z
1/2+x,1/2-y,1/2-z
1/2-x,1/2+y,1/2-z
1/2-x,1/2-y,-z
1/2+x,1/2+y,-z
1/2-x,1/2+y,1/2+z
1/2+x,1/2-y,1/2+z
loop_
_atom_site_type_symbol
_atom_site_label
_atom_site_fract_x
_atom_site_fract_y
_atom_site_fract_z
Si Si1 0.409330 0.801796 0.099655
Si Si2 0.154099 0.122047 0.233152
Si Si3 0.393320 0.848059 0.780490
Si Si4 0.140596 0.823345 0.607713
Si Si5 0.706338 0.574734 0.561602
O O1 0.398023 0.867051 0.156721
O O2 0.535253 0.756158 0.090450
O O3 0.346875 0.678183 0.096218
O O4 0.337778 0.890978 0.063382
O O5 0.285600 0.121057 0.246176
O O6 0.106303 0.210844 0.275370
O O7 0.132906 0.156817 0.172082
O O8 0.113068 0.000000 0.250000
O O9 0.500000 0.888828 0.750000
O O10 0.250000 0.750000 0.596432
O O11 0.163461 0.950550 0.582492
O O12 0.669387 0.587058 0.500000
#
# Coordination Sequence:
#
# PCOD9499388 Si02
#       5
#    16  16  16  16  16
#     4  11  22  44  70  99 139 178 234 297 352 428
#     4  11  21  36  57  87 129 168 210 260 324 412
#     4  11  20  37  59  92 128 164 210 252 332 415
#     4  12  24  43  66 100 142 177 228 294 359 428
#     4  11  26  46  71  98 129 184 245 299 360 416
#
# _framework density 22.844854000000002
#
# number of rings (size 3 to 8) (size 9 to 14) (size 15 to 20)
#    0.000    0.800    4.000    6.600    0.000    4.400 
#    0.000    5.000    0.000    0.000    0.000    0.000 
#    0.000    0.000    0.000    0.000    0.000    0.000 
#
# Total GULP energy -223077.050069 kJ/mol
# GULP energy per Si atom -5576.926252 kJ/mol
# Density = 2.279286 g / cm^3
# Si number density = 22.844854 Si / 1000 Ang^3
#
#
#
# Elastic Constant Matrix: (Units=GPa)
#
#
# Indices 1 2 3 4 5 6 
#
# 1 167.7344 -0.7442 14.0103 0.0000 0.0000 0.0000
# 2 -0.7442 64.6538 0.1327 0.0000 0.0000 0.0000
# 3 14.0103 0.1327 95.4389 0.0000 0.0000 0.0000
# 4 0.0000 0.0000 0.0000 -10.6278 0.0000 0.0000
# 5 0.0000 0.0000 0.0000 0.0000 22.8451 0.0000
# 6 0.0000 0.0000 0.0000 0.0000 0.0000 -79.9926
#
#
#
# Elastic Compliance Matrix: (Units=1/GPa)
#
#
# Indices 1 2 3 4 5 6 
#
# 1 0.006036 0.000071 -0.000886 0.000000 0.000000 0.000000
# 2 0.000071 0.015468 -0.000032 0.000000 0.000000 0.000000
# 3 -0.000886 -0.000032 0.010608 0.000000 0.000000 0.000000
# 4 0.000000 0.000000 0.000000 -0.094092 0.000000 0.000000
# 5 0.000000 0.000000 0.000000 0.000000 0.043773 0.000000
# 6 0.000000 0.000000 0.000000 0.000000 0.000000 -0.012501
#
#
# Mechanical properties :
#
#
# Convention : Reuss Voigt Hill
#
# Bulk Modulus (GPa) = 32.87493 39.40275 36.13884
# Shear Modulus (GPa) = -264.89626 7.40683 -128.74471
#
# Velocity S-wave (km/s) = -10.77990 1.80257 -7.51522
# Velocity P-wave (km/s) = 11.85411 4.64949 7.71045
#
# Compressibility (1/GPa) = 0.03041832
#
# Stress axis : x y z
#
# Youngs Moduli (GPa) = 165.66873 64.65014 94.26807
#
# Poissons Ratio (x) = -0.00461 0.08354
# Poissons Ratio (y) = -0.01181 0.00301
# Poissons Ratio (z) = 0.14681 0.00207
#
# Static dielectric constant tensor:
#      x y z
#    x 3.787930 0.000000 0.000000 
#    y 0.000000 1.927460 0.000000 
#    z 0.000000 0.000000 1.845440 
# 
# From -- ./inp_files/63509.got.cif
#   From: 2010.05.17/outbox.cif.g08.bks.cpg/sg66_32_cif.got.tgz:63509.got - 2010.06.03 17:51:23.
