data_PCOD9499632
_publ_section_title
;
Structure prediction by ZEFSAII (Michael W. Deem and Ramdas Pophale) SiO2 
 PCOD9499632
Probable space group: C C C M
;
_chemical_formula_sum "Si O2"
_cell_formula_units_Z 96
_cell_length_a 8.799363
_cell_length_b 21.781846
_cell_length_c 23.063494
_cell_angle_alpha 90.000000
_cell_angle_beta 90.000000
_cell_angle_gamma 90.000000
_cell_volume 4420.496169
_symmetry_space_group_name_H-M "C C C M"
_symmetry_group_IT_number 66
_symmetry_cell_setting 'orthorhombic'
loop_
_space_group_symop_operation_xyz
x,y,z
-x,-y,z
x,-y,1/2-z
-x,y,1/2-z
-x,-y,-z
x,y,-z
-x,y,1/2+z
x,-y,1/2+z
1/2+x,1/2+y,z
1/2-x,1/2-y,z
1/2+x,1/2-y,1/2-z
1/2-x,1/2+y,1/2-z
1/2-x,1/2-y,-z
1/2+x,1/2+y,-z
1/2-x,1/2+y,1/2+z
1/2+x,1/2-y,1/2+z
loop_
_atom_site_type_symbol
_atom_site_label
_atom_site_fract_x
_atom_site_fract_y
_atom_site_fract_z
Si Si1 0.718089 0.883197 0.500000
Si Si2 0.048497 0.865252 0.500000
Si Si3 0.881427 0.839327 0.205911
Si Si4 0.418130 0.563957 0.618571
Si Si5 0.250000 0.250000 0.107020
Si Si6 0.826762 0.433777 0.770659
Si Si7 0.895408 0.309540 0.500000
Si Si8 0.162748 0.476774 0.601621
O O1 0.871419 0.840244 0.500000
O O2 0.552206 0.848756 0.500000
O O3 0.725929 0.930756 0.553649
O O4 0.050907 0.903614 0.558550
O O5 0.222321 0.837997 0.500000
O O6 0.964929 0.894297 0.171961
O O7 0.812416 0.800589 0.152446
O O8 0.756142 0.875011 0.243728
O O9 0.000000 0.807536 0.250000
O O10 0.500000 0.500000 0.622281
O O11 0.244931 0.541351 0.616428
O O12 0.118389 0.272454 0.061597
O O13 0.758953 0.500000 0.750000
O O14 0.834901 0.438100 0.839544
O O15 0.000000 0.432652 0.750000
O O16 0.000000 0.500000 0.581725
#
# Coordination Sequence:
#
# PCOD9499632 Si02
#       8
#     8   8  16  16   8  16   8  16
#     4  12  27  42  72 118 141 195 255 306 381 442
#     4  12  23  44  72 109 149 188 243 302 376 447
#     4  12  27  45  74 106 139 199 253 303 379 452
#     4  12  22  39  67 104 157 184 222 304 377 452
#     4  11  28  56  74 102 140 201 266 316 388 441
#     4  11  22  40  67 105 149 190 229 293 373 460
#     4  11  26  53  86  95 147 204 251 335 376 443
#     4  12  22  38  62 107 152 193 235 285 371 468
#
# _framework density 21.717017999999999
#
# number of rings (size 3 to 8) (size 9 to 14) (size 15 to 20)
#    0.000    0.333    6.667    3.000    2.333    0.667 
#    0.000    1.667    3.667    0.000    0.000    0.000 
#    0.000    0.000    0.000    0.000    0.000    0.000 
#
# Total GULP energy -267541.948755 kJ/mol
# GULP energy per Si atom -5573.790599 kJ/mol
# Density = 2.166759 g / cm^3
# Si number density = 21.717018 Si / 1000 Ang^3
#
#
#
# Elastic Constant Matrix: (Units=GPa)
#
#
# Indices 1 2 3 4 5 6 
#
# 1 103.7741 23.9792 18.7408 0.0000 0.0000 0.0000
# 2 23.9792 51.5941 28.7991 0.0000 0.0000 0.0000
# 3 18.7408 28.7991 165.8200 0.0000 0.0000 0.0000
# 4 0.0000 0.0000 0.0000 47.7766 0.0000 0.0000
# 5 0.0000 0.0000 0.0000 0.0000 28.6229 0.0000
# 6 0.0000 0.0000 0.0000 0.0000 0.0000 8.5211
#
#
#
# Elastic Compliance Matrix: (Units=1/GPa)
#
#
# Indices 1 2 3 4 5 6 
#
# 1 0.010818 -0.004812 -0.000387 0.000000 0.000000 0.000000
# 2 -0.004812 0.023603 -0.003555 0.000000 0.000000 0.000000
# 3 -0.000387 -0.003555 0.006692 0.000000 0.000000 0.000000
# 4 0.000000 0.000000 0.000000 0.020931 0.000000 0.000000
# 5 0.000000 0.000000 0.000000 0.000000 0.034937 0.000000
# 6 0.000000 0.000000 0.000000 0.000000 0.000000 0.117356
#
#
# Mechanical properties :
#
#
# Convention : Reuss Voigt Hill
#
# Bulk Modulus (GPa) = 42.36497 51.58073 46.97285
# Shear Modulus (GPa) = 20.85820 33.62873 27.24346
#
# Velocity S-wave (km/s) = 3.10248 3.93936 3.54570
# Velocity P-wave (km/s) = 5.69069 6.67040 6.19993
#
# Compressibility (1/GPa) = 0.02360441
#
# Stress axis : x y z
#
# Youngs Moduli (GPa) = 92.43781 42.36738 149.43510
#
# Poissons Ratio (x) = 0.20387 0.05782
# Poissons Ratio (y) = 0.44480 0.53131
# Poissons Ratio (z) = 0.03577 0.15064
#
# Static dielectric constant tensor:
#      x y z
#    x 3.151950 0.000000 0.000000 
#    y 0.000000 1.962430 0.000000 
#    z 0.000000 0.000000 1.760510 
# 
# From -- ./inp_files/55734.got.cif
#   From: 2010.05.17/outbox.cif.g08.bks.cpg/sg66_28_cif.got.tgz:55734.got - 2010.06.03 17:51:23.
