data_PCOD9499085
_publ_section_title
;
Structure prediction by ZEFSAII (Michael W. Deem and Ramdas Pophale) SiO2 
 PCOD9499085
Probable space group: C C C M
;
_chemical_formula_sum "Si O2"
_cell_formula_units_Z 64
_cell_length_a 22.136433
_cell_length_b 7.228185
_cell_length_c 15.692320
_cell_angle_alpha 90.000000
_cell_angle_beta 90.000000
_cell_angle_gamma 90.000000
_cell_volume 2510.869010
_symmetry_space_group_name_H-M "C C C M"
_symmetry_group_IT_number 66
_symmetry_cell_setting 'orthorhombic'
loop_
_space_group_symop_operation_xyz
x,y,z
-x,-y,z
x,-y,1/2-z
-x,y,1/2-z
-x,-y,-z
x,y,-z
-x,y,1/2+z
x,-y,1/2+z
1/2+x,1/2+y,z
1/2-x,1/2-y,z
1/2+x,1/2-y,1/2-z
1/2-x,1/2+y,1/2-z
1/2-x,1/2-y,-z
1/2+x,1/2+y,-z
1/2-x,1/2+y,1/2+z
1/2+x,1/2-y,1/2+z
loop_
_atom_site_type_symbol
_atom_site_label
_atom_site_fract_x
_atom_site_fract_y
_atom_site_fract_z
Si Si1 0.730610 0.538231 0.849257
Si Si2 0.640047 0.080888 0.154681
Si Si3 0.901865 0.034629 0.098677
Si Si4 0.458603 0.836876 0.402608
O O1 0.715557 0.500000 0.750000
O O2 0.750000 0.750000 0.856056
O O3 0.789444 0.413700 0.870396
O O4 0.668685 0.519220 0.899099
O O5 0.606642 0.932499 0.097017
O O6 0.500000 0.000000 0.137978
O O7 0.638936 0.000000 0.250000
O O8 0.897651 0.229496 0.147486
O O9 0.944484 0.868438 0.132678
O O10 0.918107 0.064699 0.000000
O O11 0.479645 0.813591 0.500000
#
# Coordination Sequence:
#
# PCOD9499085 Si02
#       4
#    16  16  16  16
#     4  11  21  38  62  96 137 181 230 289 361 431
#     4  11  23  40  65  96 133 178 229 292 350 424
#     4  11  24  40  65  98 135 183 234 288 354 425
#     4  10  23  43  65  93 131 178 233 290 347 412
#
# _framework density 25.489182
#
# number of rings (size 3 to 8) (size 9 to 14) (size 15 to 20)
#    0.000    1.250    2.500    4.500    0.000    5.000 
#    0.000    3.750    0.000    3.000    0.000    0.000 
#    0.000    0.000    0.000    0.000    0.000    0.000 
#
# Total GULP energy -178845.080703 kJ/mol
# GULP energy per Si atom -5588.908772 kJ/mol
# Density = 2.543117 g / cm^3
# Si number density = 25.489182 Si / 1000 Ang^3
#
#
#
# Elastic Constant Matrix: (Units=GPa)
#
#
# Indices 1 2 3 4 5 6 
#
# 1 130.4143 86.0958 31.2872 0.0000 0.0000 0.0000
# 2 86.0958 231.8193 22.3922 0.0000 0.0000 0.0000
# 3 31.2872 22.3922 41.4263 0.0000 0.0000 0.0000
# 4 0.0000 0.0000 0.0000 28.1129 0.0000 0.0000
# 5 0.0000 0.0000 0.0000 0.0000 -455.5540 0.0000
# 6 0.0000 0.0000 0.0000 0.0000 0.0000 -180.0675
#
#
#
# Elastic Compliance Matrix: (Units=1/GPa)
#
#
# Indices 1 2 3 4 5 6 
#
# 1 0.011765 -0.003704 -0.006883 0.000000 0.000000 0.000000
# 2 -0.003704 0.005718 -0.000293 0.000000 0.000000 0.000000
# 3 -0.006883 -0.000293 0.029496 0.000000 0.000000 0.000000
# 4 0.000000 0.000000 0.000000 0.035571 0.000000 0.000000
# 5 0.000000 0.000000 0.000000 0.000000 -0.002195 0.000000
# 6 0.000000 0.000000 0.000000 0.000000 0.000000 -0.005553
#
#
# Mechanical properties :
#
#
# Convention : Reuss Voigt Hill
#
# Bulk Modulus (GPa) = 39.65437 75.91224 57.78331
# Shear Modulus (GPa) = 47.63404 -103.90939 -28.13768
#
# Velocity S-wave (km/s) = 4.32765 -6.39176 -3.32611
# Velocity P-wave (km/s) = 6.36887 4.96246 2.82281
#
# Compressibility (1/GPa) = 0.02521790
#
# Stress axis : x y z
#
# Youngs Moduli (GPa) = 85.00004 174.89235 33.90310
#
# Poissons Ratio (x) = 0.64788 0.23335
# Poissons Ratio (y) = 0.31488 0.00993
# Poissons Ratio (z) = 0.58505 0.05122
#
# Static dielectric constant tensor:
#      x y z
#    x 2.046310 0.000000 0.000000 
#    y 0.000000 2.067320 0.000000 
#    z 0.000000 0.000000 1.980140 
# 
# From -- ./inp_files/25819.got.cif
#   From: 2010.05.17/outbox.cif.g08.bks.cpg/sg66_13_cif.got.tgz:25819.got - 2010.06.03 17:51:23.
