data_PCOD9499152
_publ_section_title
;
Structure prediction by ZEFSAII (Michael W. Deem and Ramdas Pophale) SiO2 
 PCOD9499152
Probable space group: C C C M
;
_chemical_formula_sum "Si O2"
_cell_formula_units_Z 64
_cell_length_a 15.514927
_cell_length_b 21.910976
_cell_length_c 9.565744
_cell_angle_alpha 90.000000
_cell_angle_beta 90.000000
_cell_angle_gamma 90.000000
_cell_volume 3251.847823
_symmetry_space_group_name_H-M "C C C M"
_symmetry_group_IT_number 66
_symmetry_cell_setting 'orthorhombic'
loop_
_space_group_symop_operation_xyz
x,y,z
-x,-y,z
x,-y,1/2-z
-x,y,1/2-z
-x,-y,-z
x,y,-z
-x,y,1/2+z
x,-y,1/2+z
1/2+x,1/2+y,z
1/2-x,1/2-y,z
1/2+x,1/2-y,1/2-z
1/2-x,1/2+y,1/2-z
1/2-x,1/2-y,-z
1/2+x,1/2+y,-z
1/2-x,1/2+y,1/2+z
1/2+x,1/2-y,1/2+z
loop_
_atom_site_type_symbol
_atom_site_label
_atom_site_fract_x
_atom_site_fract_y
_atom_site_fract_z
Si Si1 0.204221 0.896458 0.000000
Si Si2 0.398612 0.069275 0.500000
Si Si3 0.928244 0.801137 0.000000
Si Si4 0.000000 0.500000 0.250000
Si Si5 0.065792 0.713467 0.000000
Si Si6 0.329696 0.292152 0.722245
Si Si7 0.500000 0.500000 0.750000
Si Si8 0.989419 0.077464 0.000000
O O1 0.293692 0.933602 0.000000
O O2 0.200271 0.849910 0.868862
O O3 0.114152 0.934088 0.000000
O O4 0.440751 0.039188 0.359571
O O5 0.419313 0.141712 0.500000
O O6 0.876428 0.812987 0.860727
O O7 0.966426 0.733307 0.000000
O O8 0.004687 0.850216 0.000000
O O9 0.109383 0.747468 0.131522
O O10 0.250000 0.250000 0.761437
O O11 0.534589 0.451677 0.635554
#
# Coordination Sequence:
#
# PCOD9499152 Si02
#       8
#     8   8   8   4   8  16   4   8
#     4  11  21  39  70  86 133 167 201 265 326 376
#     4  11  24  48  68  95 125 172 217 280 324 388
#     4  12  24  35  64 101 132 163 211 271 323 385
#     4  10  28  48  70  94 128 164 240 280 312 380
#     4  11  22  37  68  92 126 174 211 253 348 398
#     4  11  21  38  57 103 133 165 204 260 330 398
#     4  10  24  40  58  82 120 176 212 248 300 368
#     4  11  22  40  60  88 124 163 217 256 303 383
#
# _framework density 19.681117
#
# number of rings (size 3 to 8) (size 9 to 14) (size 15 to 20)
#    0.000    1.000    5.000    3.375    3.500    1.000 
#    0.000    2.500    0.000    0.000    0.000    0.000 
#    0.000    0.000    0.000    0.000    0.000    0.000 
#
# Total GULP energy -178323.847659 kJ/mol
# GULP energy per Si atom -5572.620239 kJ/mol
# Density = 1.963632 g / cm^3
# Si number density = 19.681117 Si / 1000 Ang^3
#
#
#
# Elastic Constant Matrix: (Units=GPa)
#
#
# Indices 1 2 3 4 5 6 
#
# 1 109.3302 36.1168 47.7913 0.0000 0.0000 0.0000
# 2 36.1168 96.9238 48.3562 0.0000 0.0000 0.0000
# 3 47.7913 48.3562 139.9022 0.0000 0.0000 0.0000
# 4 0.0000 0.0000 0.0000 23.9860 0.0000 0.0000
# 5 0.0000 0.0000 0.0000 0.0000 4.5242 0.0000
# 6 0.0000 0.0000 0.0000 0.0000 0.0000 31.0916
#
#
#
# Elastic Compliance Matrix: (Units=1/GPa)
#
#
# Indices 1 2 3 4 5 6 
#
# 1 0.011336 -0.002770 -0.002915 0.000000 0.000000 0.000000
# 2 -0.002770 0.013144 -0.003597 0.000000 0.000000 0.000000
# 3 -0.002915 -0.003597 0.009387 0.000000 0.000000 0.000000
# 4 0.000000 0.000000 0.000000 0.041691 0.000000 0.000000
# 5 0.000000 0.000000 0.000000 0.000000 0.221036 0.000000
# 6 0.000000 0.000000 0.000000 0.000000 0.000000 0.032163
#
#
# Mechanical properties :
#
#
# Convention : Reuss Voigt Hill
#
# Bulk Modulus (GPa) = 65.34556 67.85387 66.59972
# Shear Modulus (GPa) = 14.18758 26.17982 20.18370
#
# Velocity S-wave (km/s) = 2.68782 3.65115 3.20587
# Velocity P-wave (km/s) = 6.55032 7.23367 6.90046
#
# Compressibility (1/GPa) = 0.01530326
#
# Stress axis : x y z
#
# Youngs Moduli (GPa) = 88.21600 76.08005 106.53123
#
# Poissons Ratio (x) = 0.21072 0.31054
# Poissons Ratio (y) = 0.24433 0.38319
# Poissons Ratio (z) = 0.25715 0.27366
#
# Static dielectric constant tensor:
#      x y z
#    x 1.746890 0.000000 0.000000 
#    y 0.000000 1.695820 0.000000 
#    z 0.000000 0.000000 1.673970 
# 
# From -- ./inp_files/6445.got.cif
#   From: 2010.05.17/outbox.cif.g08.bks.cpg/sg66_4_cif.got.tgz:6445.got - 2010.06.03 17:51:23.
