data_PCOD9499804
_publ_section_title
;
Structure prediction by ZEFSAII (Michael W. Deem and Ramdas Pophale) SiO2 
 PCOD9499804
Probable space group: C C C M
;
_chemical_formula_sum "Si O2"
_cell_formula_units_Z 88
_cell_length_a 14.484508
_cell_length_b 12.047125
_cell_length_c 25.113166
_cell_angle_alpha 90.000000
_cell_angle_beta 90.000000
_cell_angle_gamma 90.000000
_cell_volume 4382.164052
_symmetry_space_group_name_H-M "C C C M"
_symmetry_group_IT_number 66
_symmetry_cell_setting 'orthorhombic'
loop_
_space_group_symop_operation_xyz
x,y,z
-x,-y,z
x,-y,1/2-z
-x,y,1/2-z
-x,-y,-z
x,y,-z
-x,y,1/2+z
x,-y,1/2+z
1/2+x,1/2+y,z
1/2-x,1/2-y,z
1/2+x,1/2-y,1/2-z
1/2-x,1/2+y,1/2-z
1/2-x,1/2-y,-z
1/2+x,1/2+y,-z
1/2-x,1/2+y,1/2+z
1/2+x,1/2-y,1/2+z
loop_
_atom_site_type_symbol
_atom_site_label
_atom_site_fract_x
_atom_site_fract_y
_atom_site_fract_z
Si Si1 0.484556 0.188941 0.310236
Si Si2 0.526322 0.289847 0.000000
Si Si3 0.848996 0.487338 0.310237
Si Si4 0.394139 0.051413 0.500000
Si Si5 0.260112 0.495758 0.911195
Si Si6 0.331034 0.335927 0.000000
Si Si7 0.941817 0.108890 0.887390
O O1 0.500000 0.232390 0.250000
O O2 0.396755 0.107584 0.319191
O O3 0.474133 0.288879 0.351124
O O4 0.570284 0.104064 0.314525
O O5 0.419672 0.257937 0.000000
O O6 0.537469 0.362674 0.051785
O O7 0.590234 0.183282 0.000000
O O8 0.812218 0.500000 0.250000
O O9 0.778589 0.452011 0.355624
O O10 0.328963 0.023631 0.551272
O O11 0.500000 0.000000 0.500000
O O12 0.331434 0.589514 0.890808
O O13 0.320316 0.413232 0.948005
O O14 0.250000 0.250000 0.000000
O O15 0.000000 0.000000 0.871419
#
# Coordination Sequence:
#
# PCOD9499804 Si02
#       7
#    16   8  16   8  16   8  16
#     4   9  21  42  68  95 127 172 217 274 336 386
#     4  12  23  42  64  87 131 176 207 258 329 385
#     4   9  20  42  70  96 125 165 224 283 332 384
#     4  11  26  40  66 103 128 164 217 282 331 391
#     4  11  24  42  65  97 133 171 221 275 332 395
#     4  11  24  41  64  94 133 176 228 270 323 397
#     4  12  25  42  65  92 135 181 215 263 327 407
#
# _framework density 20.081403999999999
#
# number of rings (size 3 to 8) (size 9 to 14) (size 15 to 20)
#    0.000    1.455    1.818    4.636    7.636    4.000 
#    3.273    0.000    0.000    0.000    0.000    0.000 
#    0.000    0.000    0.000    0.000    0.000    0.000 
#
# Total GULP energy -245221.511246 kJ/mol
# GULP energy per Si atom -5573.216165 kJ/mol
# Density = 2.003570 g / cm^3
# Si number density = 20.081404 Si / 1000 Ang^3
#
#
#
# Elastic Constant Matrix: (Units=GPa)
#
#
# Indices 1 2 3 4 5 6 
#
# 1 71.8538 -0.4901 19.9249 0.0000 0.0000 0.0000
# 2 -0.4901 91.1161 50.1726 0.0000 0.0000 0.0000
# 3 19.9249 50.1726 136.3568 0.0000 0.0000 0.0000
# 4 0.0000 0.0000 0.0000 26.0945 0.0000 0.0000
# 5 0.0000 0.0000 0.0000 0.0000 -192.3855 0.0000
# 6 0.0000 0.0000 0.0000 0.0000 0.0000 22.9755
#
#
#
# Elastic Compliance Matrix: (Units=1/GPa)
#
#
# Indices 1 2 3 4 5 6 
#
# 1 0.014684 0.001581 -0.002727 0.000000 0.000000 0.000000
# 2 0.001581 0.013934 -0.005358 0.000000 0.000000 0.000000
# 3 -0.002727 -0.005358 0.009704 0.000000 0.000000 0.000000
# 4 0.000000 0.000000 0.000000 0.038322 0.000000 0.000000
# 5 0.000000 0.000000 0.000000 0.000000 -0.005198 0.000000
# 6 0.000000 0.000000 0.000000 0.000000 0.000000 0.043525
#
#
# Mechanical properties :
#
#
# Convention : Reuss Voigt Hill
#
# Bulk Modulus (GPa) = 39.50583 48.72682 44.11633
# Shear Modulus (GPa) = 36.65222 -13.34847 11.65187
#
# Velocity S-wave (km/s) = 4.27685 -2.58101 2.41141
# Velocity P-wave (km/s) = 6.64110 3.92876 5.45616
#
# Compressibility (1/GPa) = 0.02531272
#
# Stress axis : x y z
#
# Youngs Moduli (GPa) = 68.10030 71.76764 103.05342
#
# Poissons Ratio (x) = -0.11345 0.28106
# Poissons Ratio (y) = -0.10765 0.55216
# Poissons Ratio (z) = 0.18573 0.38453
#
# Static dielectric constant tensor:
#      x y z
#    x 1.878780 0.000000 0.000000 
#    y 0.000000 1.706610 0.000000 
#    z 0.000000 0.000000 1.699680 
# 
# From -- ./inp_files/58046.got.cif
#   From: 2010.05.17/outbox.cif.g08.bks.cpg/sg66_30_cif.got.tgz:58046.got - 2010.06.03 17:51:23.
