data_PCOD9499654
_publ_section_title
;
Structure prediction by ZEFSAII (Michael W. Deem and Ramdas Pophale) SiO2 
 PCOD9499654
Probable space group: C C C M
;
_chemical_formula_sum "Si O2"
_cell_formula_units_Z 64
_cell_length_a 12.506943
_cell_length_b 12.547150
_cell_length_c 18.761265
_cell_angle_alpha 90.000000
_cell_angle_beta 90.000000
_cell_angle_gamma 90.000000
_cell_volume 2944.139462
_symmetry_space_group_name_H-M "C C C M"
_symmetry_group_IT_number 66
_symmetry_cell_setting 'orthorhombic'
loop_
_space_group_symop_operation_xyz
x,y,z
-x,-y,z
x,-y,1/2-z
-x,y,1/2-z
-x,-y,-z
x,y,-z
-x,y,1/2+z
x,-y,1/2+z
1/2+x,1/2+y,z
1/2-x,1/2-y,z
1/2+x,1/2-y,1/2-z
1/2-x,1/2+y,1/2-z
1/2-x,1/2-y,-z
1/2+x,1/2+y,-z
1/2-x,1/2+y,1/2+z
1/2+x,1/2-y,1/2+z
loop_
_atom_site_type_symbol
_atom_site_label
_atom_site_fract_x
_atom_site_fract_y
_atom_site_fract_z
Si Si1 0.016331 0.317569 0.917303
Si Si2 0.680656 0.141833 0.821095
Si Si3 0.040178 0.878752 0.671168
Si Si4 0.713718 0.905379 0.162567
O O1 0.003096 0.194491 0.893685
O O2 0.133370 0.363554 0.897446
O O3 0.926683 0.367648 0.866767
O O4 0.994898 0.334095 0.000000
O O5 0.750000 0.250000 0.832670
O O6 0.658680 0.126713 0.737257
O O7 0.738713 0.031669 0.841260
O O8 0.167230 0.860927 0.668419
O O9 0.000000 0.843350 0.750000
O O10 0.000000 0.000000 0.664095
#
# Coordination Sequence:
#
# PCOD9499654 Si02
#       4
#    16  16  16  16
#     4  12  26  41  60  92 135 176 214 260 320 395
#     4  11  22  42  67  94 124 162 218 273 323 380
#     4  11  22  42  70  97 124 160 215 276 331 389
#     4  11  23  40  68  95 123 165 212 270 330 387
#
# _framework density 21.738101
#
# number of rings (size 3 to 8) (size 9 to 14) (size 15 to 20)
#    0.000    0.750    0.000   11.250    0.000    7.000 
#    0.000    2.500    0.000    0.000    0.000    0.000 
#    0.000    0.000    0.000    0.000    0.000    0.000 
#
# Total GULP energy -178704.897263 kJ/mol
# GULP energy per Si atom -5584.528039 kJ/mol
# Density = 2.168862 g / cm^3
# Si number density = 21.738101 Si / 1000 Ang^3
#
#
#
# Elastic Constant Matrix: (Units=GPa)
#
#
# Indices 1 2 3 4 5 6 
#
# 1 98.4980 0.2466 30.4693 0.0000 0.0000 0.0000
# 2 0.2466 105.2070 -0.4141 0.0000 0.0000 0.0000
# 3 30.4693 -0.4141 72.7469 0.0000 0.0000 0.0000
# 4 0.0000 0.0000 0.0000 7.4334 0.0000 0.0000
# 5 0.0000 0.0000 0.0000 0.0000 4.2878 0.0000
# 6 0.0000 0.0000 0.0000 0.0000 0.0000 14.1740
#
#
#
# Elastic Compliance Matrix: (Units=1/GPa)
#
#
# Indices 1 2 3 4 5 6 
#
# 1 0.011664 -0.000047 -0.004886 0.000000 0.000000 0.000000
# 2 -0.000047 0.009505 0.000074 0.000000 0.000000 0.000000
# 3 -0.004886 0.000074 0.015793 0.000000 0.000000 0.000000
# 4 0.000000 0.000000 0.000000 0.134527 0.000000 0.000000
# 5 0.000000 0.000000 0.000000 0.000000 0.233220 0.000000
# 6 0.000000 0.000000 0.000000 0.000000 0.000000 0.070552
#
#
# Mechanical properties :
#
#
# Convention : Reuss Voigt Hill
#
# Bulk Modulus (GPa) = 36.70360 37.45063 37.07712
# Shear Modulus (GPa) = 10.12022 21.58906 15.85464
#
# Velocity S-wave (km/s) = 2.16001 3.15484 2.70357
# Velocity P-wave (km/s) = 4.81061 5.52595 5.18064
#
# Compressibility (1/GPa) = 0.02724528
#
# Stress axis : x y z
#
# Youngs Moduli (GPa) = 85.73452 105.20261 63.31928
#
# Poissons Ratio (x) = 0.00490 0.30935
# Poissons Ratio (y) = 0.00399 -0.00466
# Poissons Ratio (z) = 0.41886 -0.00774
#
# Static dielectric constant tensor:
#      x y z
#    x 1.891380 0.000000 0.000000 
#    y 0.000000 1.948740 0.000000 
#    z 0.000000 0.000000 1.724970 
# 
# From -- ./inp_files/38013.got.cif
#   From: 2010.05.17/outbox.cif.g08.bks.cpg/sg66_20_cif.got.tgz:38013.got - 2010.06.03 17:51:23.
