data_PCOD9499797
_publ_section_title
;
Structure prediction by ZEFSAII (Michael W. Deem and Ramdas Pophale) SiO2 
 PCOD9499797
Probable space group: C C C M
;
_chemical_formula_sum "Si O2"
_cell_formula_units_Z 116
_cell_length_a 8.960100
_cell_length_b 25.368967
_cell_length_c 23.521066
_cell_angle_alpha 90.000000
_cell_angle_beta 90.000000
_cell_angle_gamma 90.000000
_cell_volume 5346.537789
_symmetry_space_group_name_H-M "C C C M"
_symmetry_group_IT_number 66
_symmetry_cell_setting 'orthorhombic'
loop_
_space_group_symop_operation_xyz
x,y,z
-x,-y,z
x,-y,1/2-z
-x,y,1/2-z
-x,-y,-z
x,y,-z
-x,y,1/2+z
x,-y,1/2+z
1/2+x,1/2+y,z
1/2-x,1/2-y,z
1/2+x,1/2-y,1/2-z
1/2-x,1/2+y,1/2-z
1/2-x,1/2-y,-z
1/2+x,1/2+y,-z
1/2-x,1/2+y,1/2+z
1/2+x,1/2-y,1/2+z
loop_
_atom_site_type_symbol
_atom_site_label
_atom_site_fract_x
_atom_site_fract_y
_atom_site_fract_z
Si Si1 0.855336 0.796038 0.787817
Si Si2 0.156977 0.609974 0.740053
Si Si3 0.249692 0.973512 0.659787
Si Si4 0.350216 0.296892 0.918390
Si Si5 0.500000 0.500000 0.250000
Si Si6 0.173947 0.407164 0.629078
Si Si7 0.150962 0.399932 0.067144
Si Si8 0.806750 0.807262 0.436387
O O1 0.750000 0.750000 0.763815
O O2 0.769429 0.851390 0.790279
O O3 0.886888 0.782776 0.852780
O O4 0.000000 0.801332 0.750000
O O5 0.133909 0.556867 0.702689
O O6 0.205473 0.602570 0.804274
O O7 0.000000 0.638195 0.750000
O O8 0.243375 0.938805 0.603318
O O9 0.110715 0.972660 0.704150
O O10 0.286598 0.030417 0.632566
O O11 0.250000 0.250000 0.941010
O O12 0.239708 0.345717 0.926738
O O13 0.514893 0.305453 0.941560
O O14 0.264128 0.360300 0.597666
O O15 0.008865 0.401185 0.600368
O O16 0.131155 0.412453 0.000000
O O17 0.739328 0.811619 0.500000
O O18 0.750000 0.750000 0.413135
#
# Coordination Sequence:
#
# PCOD9499797 Si02
#       8
#    16  16  16  16   4  16  16  16
#     4  11  24  40  67 105 149 190 240 305 382 448
#     4  12  23  42  70 103 145 188 244 304 362 444
#     4  12  27  45  74 107 149 196 249 300 376 438
#     4  11  24  45  71 102 144 195 246 302 373 448
#     4  12  28  48  76 112 152 188 242 314 364 442
#     4  12  25  44  75 106 147 190 247 309 373 440
#     4  12  27  47  73 108 151 197 252 309 366 439
#     4  11  26  47  73 107 145 194 253 310 376 455
#
# _framework density 21.696285
#
# number of rings (size 3 to 8) (size 9 to 14) (size 15 to 20)
#    0.000    0.414    4.138    3.310    2.897    8.828 
#    0.000    0.345    0.000    0.000    0.000    0.000 
#    0.000    0.000    0.000    0.000    0.000    0.000 
#
# Total GULP energy -323115.255853 kJ/mol
# GULP energy per Si atom -5570.952687 kJ/mol
# Density = 2.164690 g / cm^3
# Si number density = 21.696285 Si / 1000 Ang^3
#
#
#
# Elastic Constant Matrix: (Units=GPa)
#
#
# Indices 1 2 3 4 5 6 
#
# 1 106.1338 56.5428 39.7672 0.0000 0.0000 0.0000
# 2 56.5428 173.0808 53.3251 0.0000 0.0000 0.0000
# 3 39.7672 53.3251 137.0385 0.0000 0.0000 0.0000
# 4 0.0000 0.0000 0.0000 -32.3026 0.0000 0.0000
# 5 0.0000 0.0000 0.0000 0.0000 15.5694 0.0000
# 6 0.0000 0.0000 0.0000 0.0000 0.0000 -11.0107
#
#
#
# Elastic Compliance Matrix: (Units=1/GPa)
#
#
# Indices 1 2 3 4 5 6 
#
# 1 0.011973 -0.003228 -0.002218 0.000000 0.000000 0.000000
# 2 -0.003228 0.007435 -0.001956 0.000000 0.000000 0.000000
# 3 -0.002218 -0.001956 0.008702 0.000000 0.000000 0.000000
# 4 0.000000 0.000000 0.000000 -0.030957 0.000000 0.000000
# 5 0.000000 0.000000 0.000000 0.000000 0.064229 0.000000
# 6 0.000000 0.000000 0.000000 0.000000 0.000000 -0.090820
#
#
# Mechanical properties :
#
#
# Convention : Reuss Voigt Hill
#
# Bulk Modulus (GPa) = 75.16119 79.50262 77.33190
# Shear Modulus (GPa) = -490.26042 12.22574 -239.01734
#
# Velocity S-wave (km/s) = -15.04845 2.37638 -10.50734
# Velocity P-wave (km/s) = 16.34697 6.65226 10.55866
#
# Compressibility (1/GPa) = 0.01330474
#
# Stress axis : x y z
#
# Youngs Moduli (GPa) = 83.52172 134.50054 114.91276
#
# Poissons Ratio (x) = 0.43416 0.25492
# Poissons Ratio (y) = 0.26960 0.22482
# Poissons Ratio (z) = 0.18528 0.26314
#
# Static dielectric constant tensor:
#      x y z
#    x 2.047070 0.000000 0.000000 
#    y 0.000000 1.877280 0.000000 
#    z 0.000000 0.000000 1.972610 
# 
# From -- ./inp_files/55924.got.cif
#   From: 2010.05.17/outbox.cif.g08.bks.cpg/sg66_28_cif.got.tgz:55924.got - 2010.06.03 17:51:23.
