data_PCOD9499616
_publ_section_title
;
Structure prediction by ZEFSAII (Michael W. Deem and Ramdas Pophale) SiO2 
 PCOD9499616
Probable space group: C C C M
;
_chemical_formula_sum "Si O2"
_cell_formula_units_Z 64
_cell_length_a 15.586065
_cell_length_b 8.758800
_cell_length_c 22.416343
_cell_angle_alpha 90.000000
_cell_angle_beta 90.000000
_cell_angle_gamma 90.000000
_cell_volume 3060.172133
_symmetry_space_group_name_H-M "C C C M"
_symmetry_group_IT_number 66
_symmetry_cell_setting 'orthorhombic'
loop_
_space_group_symop_operation_xyz
x,y,z
-x,-y,z
x,-y,1/2-z
-x,y,1/2-z
-x,-y,-z
x,y,-z
-x,y,1/2+z
x,-y,1/2+z
1/2+x,1/2+y,z
1/2-x,1/2-y,z
1/2+x,1/2-y,1/2-z
1/2-x,1/2+y,1/2-z
1/2-x,1/2-y,-z
1/2+x,1/2+y,-z
1/2-x,1/2+y,1/2+z
1/2+x,1/2-y,1/2+z
loop_
_atom_site_type_symbol
_atom_site_label
_atom_site_fract_x
_atom_site_fract_y
_atom_site_fract_z
Si Si1 0.642281 0.918619 0.500000
Si Si2 0.038685 0.737841 0.500000
Si Si3 0.420655 0.606633 0.372911
Si Si4 0.085378 0.572608 0.315741
Si Si5 0.244175 0.579331 0.122305
O O1 0.563156 0.799434 0.500000
O O2 0.703475 0.904498 0.443274
O O3 0.594350 0.082365 0.500000
O O4 0.062373 0.825747 0.439273
O O5 0.500000 0.500000 0.357078
O O6 0.417879 0.746715 0.326206
O O7 0.333948 0.508207 0.375394
O O8 0.085310 0.500000 0.250000
O O9 0.173004 0.517603 0.344109
O O10 0.000000 0.500000 0.346471
O O11 0.250000 0.750000 0.148122
#
# Coordination Sequence:
#
# PCOD9499616 Si02
#       5
#     8   8  16  16  16
#     4  11  22  39  66 102 145 187 223 277 342 412
#     4  11  22  39  70 104 147 187 225 273 350 420
#     4  12  25  44  71 105 142 183 230 283 347 419
#     4  11  25  47  70  97 132 176 229 293 348 409
#     4  12  25  42  68 101 139 182 229 282 340 414
#
# _framework density 20.913855999999999
#
# number of rings (size 3 to 8) (size 9 to 14) (size 15 to 20)
#    0.000    0.500    2.500    6.750    0.000    3.000 
#    0.000    7.500    0.000    0.000    0.000    0.000 
#    0.000    0.000    0.000    0.000    0.000    0.000 
#
# Total GULP energy -179031.252686 kJ/mol
# GULP energy per Si atom -5594.726646 kJ/mol
# Density = 2.086625 g / cm^3
# Si number density = 20.913856 Si / 1000 Ang^3
#
#
#
# Elastic Constant Matrix: (Units=GPa)
#
#
# Indices 1 2 3 4 5 6 
#
# 1 229.8746 102.2330 40.3959 0.0000 0.0000 0.0000
# 2 102.2330 181.2763 47.2230 0.0000 0.0000 0.0000
# 3 40.3959 47.2230 80.5545 0.0000 0.0000 0.0000
# 4 0.0000 0.0000 0.0000 -69.7334 0.0000 0.0000
# 5 0.0000 0.0000 0.0000 0.0000 -45.6004 0.0000
# 6 0.0000 0.0000 0.0000 0.0000 0.0000 57.0725
#
#
#
# Elastic Compliance Matrix: (Units=1/GPa)
#
#
# Indices 1 2 3 4 5 6 
#
# 1 0.005902 -0.003018 -0.001190 0.000000 0.000000 0.000000
# 2 -0.003018 0.008054 -0.003208 0.000000 0.000000 0.000000
# 3 -0.001190 -0.003208 0.014891 0.000000 0.000000 0.000000
# 4 0.000000 0.000000 0.000000 -0.014340 0.000000 0.000000
# 5 0.000000 0.000000 0.000000 0.000000 -0.021930 0.000000
# 6 0.000000 0.000000 0.000000 0.000000 0.000000 0.017522
#
#
# Mechanical properties :
#
#
# Convention : Reuss Voigt Hill
#
# Bulk Modulus (GPa) = 71.35481 96.82324 84.08902
# Shear Modulus (GPa) = 168.89886 8.47132 88.68509
#
# Velocity S-wave (km/s) = 8.99637 2.01479 6.51897
# Velocity P-wave (km/s) = 11.92079 7.19786 9.84669
#
# Compressibility (1/GPa) = 0.01401447
#
# Stress axis : x y z
#
# Youngs Moduli (GPa) = 169.44339 124.15649 67.15271
#
# Poissons Ratio (x) = 0.37474 0.07992
# Poissons Ratio (y) = 0.51143 0.21543
# Poissons Ratio (z) = 0.20166 0.39830
#
# Static dielectric constant tensor:
#      x y z
#    x 1.718000 0.000000 0.000000 
#    y 0.000000 1.888060 0.000000 
#    z 0.000000 0.000000 1.512110 
# 
# From -- ./inp_files/55025.got.cif
#   From: 2010.05.17/outbox.cif.g08.bks.cpg/sg66_28_cif.got.tgz:55025.got - 2010.06.03 17:51:23.
