data_PCOD9499164
_publ_section_title
;
Structure prediction by ZEFSAII (Michael W. Deem and Ramdas Pophale) SiO2 
 PCOD9499164
Probable space group: C C C M
;
_chemical_formula_sum "Si O2"
_cell_formula_units_Z 56
_cell_length_a 22.492609
_cell_length_b 6.986957
_cell_length_c 17.694462
_cell_angle_alpha 90.000000
_cell_angle_beta 90.000000
_cell_angle_gamma 90.000000
_cell_volume 2780.771263
_symmetry_space_group_name_H-M "C C C M"
_symmetry_group_IT_number 66
_symmetry_cell_setting 'orthorhombic'
loop_
_space_group_symop_operation_xyz
x,y,z
-x,-y,z
x,-y,1/2-z
-x,y,1/2-z
-x,-y,-z
x,y,-z
-x,y,1/2+z
x,-y,1/2+z
1/2+x,1/2+y,z
1/2-x,1/2-y,z
1/2+x,1/2-y,1/2-z
1/2-x,1/2+y,1/2-z
1/2-x,1/2-y,-z
1/2+x,1/2+y,-z
1/2-x,1/2+y,1/2+z
1/2+x,1/2-y,1/2+z
loop_
_atom_site_type_symbol
_atom_site_label
_atom_site_fract_x
_atom_site_fract_y
_atom_site_fract_z
Si Si1 0.319940 0.783053 0.228170
Si Si2 0.096929 0.200857 0.585255
Si Si3 0.923301 0.860365 0.818015
Si Si4 0.500000 0.000000 0.361712
O O1 0.250000 0.750000 0.223505
O O2 0.353906 0.741225 0.149721
O O3 0.329445 0.000000 0.250000
O O4 0.354424 0.323036 0.203663
O O5 0.119572 0.202291 0.500000
O O6 0.046507 0.364121 0.594390
O O7 0.071906 0.990295 0.607540
O O8 0.959271 0.661331 0.819832
O O9 0.942187 0.000000 0.750000
#
# Coordination Sequence:
#
# PCOD9499164 Si02
#       4
#    16  16  16   8
#     4  11  22  44  69  94 127 172 222 273 326 386
#     4  11  25  42  65  99 137 174 217 269 327 391
#     4  10  24  41  65  99 132 172 220 273 322 387
#     4  12  23  43  64  98 140 176 218 266 328 392
#
# _framework density 20.138297000000001
#
# number of rings (size 3 to 8) (size 9 to 14) (size 15 to 20)
#    0.000    1.143    2.857    3.857    0.000   16.571 
#    0.000    0.000    0.000    3.429    0.000    0.000 
#    0.000    0.000    0.000    0.000    0.000    0.000 
#
# Total GULP energy -156199.689252 kJ/mol
# GULP energy per Si atom -5578.560330 kJ/mol
# Density = 2.009246 g / cm^3
# Si number density = 20.138297 Si / 1000 Ang^3
#
#
#
# Elastic Constant Matrix: (Units=GPa)
#
#
# Indices 1 2 3 4 5 6 
#
# 1 139.1939 43.2967 37.3202 0.0000 0.0000 0.0000
# 2 43.2967 158.5135 51.4496 0.0000 0.0000 0.0000
# 3 37.3202 51.4496 112.9528 0.0000 0.0000 0.0000
# 4 0.0000 0.0000 0.0000 19.2135 0.0000 0.0000
# 5 0.0000 0.0000 0.0000 0.0000 11.7404 0.0000
# 6 0.0000 0.0000 0.0000 0.0000 0.0000 37.2507
#
#
#
# Elastic Compliance Matrix: (Units=1/GPa)
#
#
# Indices 1 2 3 4 5 6 
#
# 1 0.008214 -0.001599 -0.001986 0.000000 0.000000 0.000000
# 2 -0.001599 0.007714 -0.002986 0.000000 0.000000 0.000000
# 3 -0.001986 -0.002986 0.010869 0.000000 0.000000 0.000000
# 4 0.000000 0.000000 0.000000 0.052047 0.000000 0.000000
# 5 0.000000 0.000000 0.000000 0.000000 0.085176 0.000000
# 6 0.000000 0.000000 0.000000 0.000000 0.000000 0.026845
#
#
# Mechanical properties :
#
#
# Convention : Reuss Voigt Hill
#
# Bulk Modulus (GPa) = 73.22148 74.97702 74.09925
# Shear Modulus (GPa) = 23.97410 32.21383 28.09397
#
# Velocity S-wave (km/s) = 3.45407 4.00388 3.73909
# Velocity P-wave (km/s) = 7.23503 7.66072 7.45092
#
# Compressibility (1/GPa) = 0.01365719
#
# Stress axis : x y z
#
# Youngs Moduli (GPa) = 121.74339 129.62723 92.00315
#
# Poissons Ratio (x) = 0.20729 0.18268
# Poissons Ratio (y) = 0.19468 0.27468
# Poissons Ratio (z) = 0.24173 0.38701
#
# Static dielectric constant tensor:
#      x y z
#    x 1.828830 0.000000 0.000000 
#    y 0.000000 1.860840 0.000000 
#    z 0.000000 0.000000 1.714020 
# 
# From -- ./inp_files/52162.got.cif
#   From: 2010.05.17/outbox.cif.g08.bks.cpg/sg66_27_cif.got.tgz:52162.got - 2010.06.03 17:51:23.
