data_PCOD9499421
_publ_section_title
;
Structure prediction by ZEFSAII (Michael W. Deem and Ramdas Pophale) SiO2 
 PCOD9499421
Probable space group: C C C M
;
_chemical_formula_sum "Si O2"
_cell_formula_units_Z 72
_cell_length_a 27.846451
_cell_length_b 9.418927
_cell_length_c 14.839878
_cell_angle_alpha 90.000000
_cell_angle_beta 90.000000
_cell_angle_gamma 90.000000
_cell_volume 3892.257949
_symmetry_space_group_name_H-M "C C C M"
_symmetry_group_IT_number 66
_symmetry_cell_setting 'orthorhombic'
loop_
_space_group_symop_operation_xyz
x,y,z
-x,-y,z
x,-y,1/2-z
-x,y,1/2-z
-x,-y,-z
x,y,-z
-x,y,1/2+z
x,-y,1/2+z
1/2+x,1/2+y,z
1/2-x,1/2-y,z
1/2+x,1/2-y,1/2-z
1/2-x,1/2+y,1/2-z
1/2-x,1/2-y,-z
1/2+x,1/2+y,-z
1/2-x,1/2+y,1/2+z
1/2+x,1/2-y,1/2+z
loop_
_atom_site_type_symbol
_atom_site_label
_atom_site_fract_x
_atom_site_fract_y
_atom_site_fract_z
Si Si1 0.280737 0.896159 0.000000
Si Si2 0.621358 0.723644 0.500000
Si Si3 0.734770 0.414276 0.344744
Si Si4 0.516915 0.157637 0.000000
Si Si5 0.372760 0.472315 0.143797
Si Si6 0.522883 0.646191 0.149580
O O1 0.250000 0.750000 0.000000
O O2 0.334260 0.832425 0.000000
O O3 0.266718 0.994122 0.085497
O O4 0.573241 0.813897 0.500000
O O5 0.621560 0.616062 0.414408
O O6 0.736284 0.500000 0.250000
O O7 0.750000 0.250000 0.334344
O O8 0.679646 0.412563 0.380303
O O9 0.495429 0.229658 0.088300
O O10 0.500000 0.000000 0.000000
O O11 0.370902 0.500000 0.250000
O O12 0.420006 0.374326 0.136910
O O13 0.500000 0.500000 0.114236
O O14 0.500000 0.660743 0.250000
#
# Coordination Sequence:
#
# PCOD9499421 Si02
#       6
#     8   8  16   8  16  16
#     4  12  23  42  66  93 128 172 216 269 322 375
#     4  12  23  40  66  95 127 173 209 264 326 385
#     4  11  25  42  65  96 129 167 217 268 323 391
#     4  12  26  39  60  95 135 165 204 266 324 374
#     4  11  21  37  68  94 121 163 219 259 318 382
#     4  11  20  40  67  93 118 164 217 263 304 379
#
# _framework density 18.498260999999999
#
# number of rings (size 3 to 8) (size 9 to 14) (size 15 to 20)
#    0.000    0.667    6.667    2.000    3.111    2.222 
#    0.000    0.000    0.000    0.000    0.000    0.000 
#    0.000    0.000    0.000    0.000    0.000    0.000 
#
# Total GULP energy -200871.062470 kJ/mol
# GULP energy per Si atom -5579.751735 kJ/mol
# Density = 1.845616 g / cm^3
# Si number density = 18.498261 Si / 1000 Ang^3
#
#
#
# Elastic Constant Matrix: (Units=GPa)
#
#
# Indices 1 2 3 4 5 6 
#
# 1 207.8618 90.4391 53.4772 0.0000 0.0000 0.0000
# 2 90.4391 178.5324 74.7735 0.0000 0.0000 0.0000
# 3 53.4772 74.7735 121.5695 0.0000 0.0000 0.0000
# 4 0.0000 0.0000 0.0000 41.7292 0.0000 0.0000
# 5 0.0000 0.0000 0.0000 0.0000 14.0786 0.0000
# 6 0.0000 0.0000 0.0000 0.0000 0.0000 24.9929
#
#
#
# Elastic Compliance Matrix: (Units=1/GPa)
#
#
# Indices 1 2 3 4 5 6 
#
# 1 0.006275 -0.002725 -0.001085 0.000000 0.000000 0.000000
# 2 -0.002725 0.008728 -0.004170 0.000000 0.000000 0.000000
# 3 -0.001085 -0.004170 0.011267 0.000000 0.000000 0.000000
# 4 0.000000 0.000000 0.000000 0.023964 0.000000 0.000000
# 5 0.000000 0.000000 0.000000 0.000000 0.071030 0.000000
# 6 0.000000 0.000000 0.000000 0.000000 0.000000 0.040011
#
#
# Mechanical properties :
#
#
# Convention : Reuss Voigt Hill
#
# Bulk Modulus (GPa) = 96.96673 105.03814 101.00244
# Shear Modulus (GPa) = 27.67459 35.44509 31.55984
#
# Velocity S-wave (km/s) = 3.87210 4.38211 4.13497
# Velocity P-wave (km/s) = 8.51610 9.08349 8.80437
#
# Compressibility (1/GPa) = 0.01031282
#
# Stress axis : x y z
#
# Youngs Moduli (GPa) = 159.35201 114.57646 88.75101
#
# Poissons Ratio (x) = 0.31218 0.09626
# Poissons Ratio (y) = 0.43418 0.37006
# Poissons Ratio (z) = 0.17284 0.47774
#
# Static dielectric constant tensor:
#      x y z
#    x 1.699990 0.000000 0.000000 
#    y 0.000000 1.576220 0.000000 
#    z 0.000000 0.000000 1.643600 
# 
# From -- ./inp_files/24536.got.cif
#   From: 2010.05.17/outbox.cif.g08.bks.cpg/sg66_13_cif.got.tgz:24536.got - 2010.06.03 17:51:23.
