data_PCOD9499696
_publ_section_title
;
Structure prediction by ZEFSAII (Michael W. Deem and Ramdas Pophale) SiO2 
 PCOD9499696
Probable space group: C C C M
;
_chemical_formula_sum "Si O2"
_cell_formula_units_Z 96
_cell_length_a 31.245244
_cell_length_b 9.542898
_cell_length_c 19.449504
_cell_angle_alpha 90.000000
_cell_angle_beta 90.000000
_cell_angle_gamma 90.000000
_cell_volume 5799.262040
_symmetry_space_group_name_H-M "C C C M"
_symmetry_group_IT_number 66
_symmetry_cell_setting 'orthorhombic'
loop_
_space_group_symop_operation_xyz
x,y,z
-x,-y,z
x,-y,1/2-z
-x,y,1/2-z
-x,-y,-z
x,y,-z
-x,y,1/2+z
x,-y,1/2+z
1/2+x,1/2+y,z
1/2-x,1/2-y,z
1/2+x,1/2-y,1/2-z
1/2-x,1/2+y,1/2-z
1/2-x,1/2-y,-z
1/2+x,1/2+y,-z
1/2-x,1/2+y,1/2+z
1/2+x,1/2-y,1/2+z
loop_
_atom_site_type_symbol
_atom_site_label
_atom_site_fract_x
_atom_site_fract_y
_atom_site_fract_z
Si Si1 0.548087 0.979875 0.083096
Si Si2 0.861297 0.016726 0.168712
Si Si3 0.312065 0.993483 0.920273
Si Si4 0.119872 0.737766 0.582951
Si Si5 0.761567 0.085774 0.180677
Si Si6 0.886945 0.728657 0.419035
O O1 0.576271 0.844669 0.103737
O O2 0.500000 0.000000 0.109613
O O3 0.575832 0.118063 0.097565
O O4 0.545953 0.969664 0.000000
O O5 0.811132 0.058892 0.162533
O O6 0.886895 0.140843 0.131456
O O7 0.870325 0.000000 0.250000
O O8 0.871508 0.875141 0.127237
O O9 0.341451 0.128041 0.904528
O O10 0.270114 0.976851 0.875823
O O11 0.342973 0.859127 0.911011
O O12 0.300412 0.001147 0.000000
O O13 0.118467 0.764643 0.500000
O O14 0.750000 0.250000 0.188816
O O15 0.753234 0.000000 0.250000
O O16 0.890322 0.768498 0.500000
#
# Coordination Sequence:
#
# PCOD9499696 Si02
#       6
#    16  16  16  16  16  16
#     4   8  15  32  60  87 105 128 169 216 262 316
#     4  11  23  35  50  75 106 144 180 214 261 306
#     4   9  19  34  54  76 101 136 175 217 266 311
#     4   9  19  35  55  80 108 135 169 218 265 312
#     4  11  24  37  52  73 105 142 185 227 258 304
#     4   9  17  33  55  79 105 134 170 214 263 314
#
# _framework density 16.553830000000001
#
# number of rings (size 3 to 8) (size 9 to 14) (size 15 to 20)
#    0.000    2.500    1.667    2.500    4.667    1.667 
#    0.000    5.000    0.000    7.000    0.000    0.000 
#    0.000    0.000    0.000    0.000    0.000    0.000 
#
# Total GULP energy -267517.647557 kJ/mol
# GULP energy per Si atom -5573.284324 kJ/mol
# Density = 1.651615 g / cm^3
# Si number density = 16.553830 Si / 1000 Ang^3
#
#
#
# Elastic Constant Matrix: (Units=GPa)
#
#
# Indices 1 2 3 4 5 6 
#
# 1 86.8249 54.1159 46.3553 0.0000 0.0000 0.0000
# 2 54.1159 136.2933 68.2774 0.0000 0.0000 0.0000
# 3 46.3553 68.2774 61.3640 0.0000 0.0000 0.0000
# 4 0.0000 0.0000 0.0000 25.7764 0.0000 0.0000
# 5 0.0000 0.0000 0.0000 0.0000 50.6626 0.0000
# 6 0.0000 0.0000 0.0000 0.0000 0.0000 7.0550
#
#
#
# Elastic Compliance Matrix: (Units=1/GPa)
#
#
# Indices 1 2 3 4 5 6 
#
# 1 0.019342 -0.000814 -0.013706 0.000000 0.000000 0.000000
# 2 -0.000814 0.016612 -0.017868 0.000000 0.000000 0.000000
# 3 -0.013706 -0.017868 0.046531 0.000000 0.000000 0.000000
# 4 0.000000 0.000000 0.000000 0.038795 0.000000 0.000000
# 5 0.000000 0.000000 0.000000 0.000000 0.019738 0.000000
# 6 0.000000 0.000000 0.000000 0.000000 0.000000 0.141743
#
#
# Mechanical properties :
#
#
# Convention : Reuss Voigt Hill
#
# Bulk Modulus (GPa) = 56.46850 69.10880 62.78865
# Shear Modulus (GPa) = 14.14668 24.41440 19.28054
#
# Velocity S-wave (km/s) = 2.92650 3.84454 3.41650
# Velocity P-wave (km/s) = 6.75317 7.84512 7.31954
#
# Compressibility (1/GPa) = 0.01770899
#
# Stress axis : x y z
#
# Youngs Moduli (GPa) = 51.70060 60.19925 21.49098
#
# Poissons Ratio (x) = 0.04899 0.29455
# Poissons Ratio (y) = 0.04207 0.38401
# Poissons Ratio (z) = 0.70860 1.07565
#
# Static dielectric constant tensor:
#      x y z
#    x 1.558990 0.000000 0.000000 
#    y 0.000000 1.554440 0.000000 
#    z 0.000000 0.000000 1.551970 
# 
# From -- ./inp_files/47278.got.cif
#   From: 2010.05.17/outbox.cif.g08.bks.cpg/sg66_24_cif.got.tgz:47278.got - 2010.06.03 17:51:23.
