data_PCOD9499967
_publ_section_title
;
Structure prediction by ZEFSAII (Michael W. Deem and Ramdas Pophale) SiO2 
 PCOD9499967
Probable space group: C C C M
;
_chemical_formula_sum "Si O2"
_cell_formula_units_Z 64
_cell_length_a 13.893396
_cell_length_b 21.803252
_cell_length_c 9.825205
_cell_angle_alpha 90.000000
_cell_angle_beta 90.000000
_cell_angle_gamma 90.000000
_cell_volume 2976.263028
_symmetry_space_group_name_H-M "C C C M"
_symmetry_group_IT_number 66
_symmetry_cell_setting 'orthorhombic'
loop_
_space_group_symop_operation_xyz
x,y,z
-x,-y,z
x,-y,1/2-z
-x,y,1/2-z
-x,-y,-z
x,y,-z
-x,y,1/2+z
x,-y,1/2+z
1/2+x,1/2+y,z
1/2-x,1/2-y,z
1/2+x,1/2-y,1/2-z
1/2-x,1/2+y,1/2-z
1/2-x,1/2-y,-z
1/2+x,1/2+y,-z
1/2-x,1/2+y,1/2+z
1/2+x,1/2-y,1/2+z
loop_
_atom_site_type_symbol
_atom_site_label
_atom_site_fract_x
_atom_site_fract_y
_atom_site_fract_z
Si Si1 0.828596 0.500000 0.750000
Si Si2 0.184057 0.014298 0.500000
Si Si3 0.583478 0.876414 0.660019
Si Si4 0.125991 0.118067 0.000000
Si Si5 0.593695 0.651104 0.500000
Si Si6 0.279746 0.316633 0.253493
O O1 0.756009 0.506214 0.625142
O O2 0.894478 0.559618 0.736887
O O3 0.114536 0.955502 0.500000
O O4 0.133613 0.080532 0.500000
O O5 0.500000 0.845397 0.750000
O O6 0.558968 0.884189 0.500000
O O7 0.684619 0.841708 0.672335
O O8 0.185124 0.139687 0.132200
O O9 0.021109 0.148558 0.000000
O O10 0.636766 0.683712 0.366802
O O11 0.250000 0.250000 0.200143
#
# Coordination Sequence:
#
# PCOD9499967 Si02
#       6
#     8   8  16   8   8  16
#     4  12  21  42  69  94 142 182 221 282 359 408
#     4  12  21  42  73 102 140 180 225 292 363 420
#     4  12  27  44  70 102 135 183 234 287 355 414
#     4  12  26  43  77 106 139 178 238 292 346 432
#     4  12  24  47  73 106 137 186 232 286 366 412
#     4  12  26  49  69  98 145 186 229 290 347 414
#
# _framework density 21.503477
#
# number of rings (size 3 to 8) (size 9 to 14) (size 15 to 20)
#    0.000    0.000    7.500    2.250    3.500    3.000 
#    0.000    3.750    0.000    0.000    0.000    0.000 
#    0.000    0.000    0.000    0.000    0.000    0.000 
#
# Total GULP energy -178965.164939 kJ/mol
# GULP energy per Si atom -5592.661404 kJ/mol
# Density = 2.145453 g / cm^3
# Si number density = 21.503477 Si / 1000 Ang^3
#
#
#
# Elastic Constant Matrix: (Units=GPa)
#
#
# Indices 1 2 3 4 5 6 
#
# 1 105.9376 -2.8486 16.3077 0.0000 0.0000 0.0000
# 2 -2.8486 68.2797 -16.6460 0.0000 0.0000 0.0000
# 3 16.3077 -16.6460 111.0822 0.0000 0.0000 0.0000
# 4 0.0000 0.0000 0.0000 11.6470 0.0000 0.0000
# 5 0.0000 0.0000 0.0000 0.0000 30.1963 0.0000
# 6 0.0000 0.0000 0.0000 0.0000 0.0000 11.9739
#
#
#
# Elastic Compliance Matrix: (Units=1/GPa)
#
#
# Indices 1 2 3 4 5 6 
#
# 1 0.009658 0.000059 -0.001409 0.000000 0.000000 0.000000
# 2 0.000059 0.015201 0.002269 0.000000 0.000000 0.000000
# 3 -0.001409 0.002269 0.009549 0.000000 0.000000 0.000000
# 4 0.000000 0.000000 0.000000 0.085859 0.000000 0.000000
# 5 0.000000 0.000000 0.000000 0.000000 0.033117 0.000000
# 6 0.000000 0.000000 0.000000 0.000000 0.000000 0.083515
#
#
# Mechanical properties :
#
#
# Convention : Reuss Voigt Hill
#
# Bulk Modulus (GPa) = 27.58772 30.99175 29.28974
# Shear Modulus (GPa) = 20.23122 29.99585 25.11354
#
# Velocity S-wave (km/s) = 3.07063 3.73893 3.42114
# Velocity P-wave (km/s) = 5.04271 5.75180 5.40889
#
# Compressibility (1/GPa) = 0.03624801
#
# Stress axis : x y z
#
# Youngs Moduli (GPa) = 103.54099 65.78366 104.72035
#
# Poissons Ratio (x) = -0.00391 0.14755
# Poissons Ratio (y) = -0.00615 -0.23764
# Poissons Ratio (z) = 0.14589 -0.14928
#
# Static dielectric constant tensor:
#      x y z
#    x 1.781300 0.000000 0.000000 
#    y 0.000000 1.833020 0.000000 
#    z 0.000000 0.000000 1.737540 
# 
# From -- ./inp_files/5143.got.cif
#   From: 2010.05.17/outbox.cif.g08.bks.cpg/sg66_3_cif.got.tgz:5143.got - 2010.06.03 17:51:23.
