data_PCOD9499524
_publ_section_title
;
Structure prediction by ZEFSAII (Michael W. Deem and Ramdas Pophale) SiO2 
 PCOD9499524
Probable space group: C C C M
;
_chemical_formula_sum "Si O2"
_cell_formula_units_Z 64
_cell_length_a 19.960431
_cell_length_b 9.544784
_cell_length_c 16.360949
_cell_angle_alpha 90.000000
_cell_angle_beta 90.000000
_cell_angle_gamma 90.000000
_cell_volume 3117.055322
_symmetry_space_group_name_H-M "C C C M"
_symmetry_group_IT_number 66
_symmetry_cell_setting 'orthorhombic'
loop_
_space_group_symop_operation_xyz
x,y,z
-x,-y,z
x,-y,1/2-z
-x,y,1/2-z
-x,-y,-z
x,y,-z
-x,y,1/2+z
x,-y,1/2+z
1/2+x,1/2+y,z
1/2-x,1/2-y,z
1/2+x,1/2-y,1/2-z
1/2-x,1/2+y,1/2-z
1/2-x,1/2-y,-z
1/2+x,1/2+y,-z
1/2-x,1/2+y,1/2+z
1/2+x,1/2-y,1/2+z
loop_
_atom_site_type_symbol
_atom_site_label
_atom_site_fract_x
_atom_site_fract_y
_atom_site_fract_z
Si Si1 0.749065 0.100528 0.363525
Si Si2 0.368383 0.000000 0.250000
Si Si3 0.446026 0.733037 0.821331
Si Si4 0.956917 0.854542 0.500000
Si Si5 0.643428 0.500000 0.250000
Si Si6 0.705446 0.611038 0.500000
O O1 0.750000 0.250000 0.406049
O O2 0.680022 0.067468 0.318213
O O3 0.807213 0.106083 0.295633
O O4 0.770702 0.976624 0.422088
O O5 0.409775 0.878215 0.203740
O O6 0.500000 0.714369 0.750000
O O7 0.399799 0.595183 0.810417
O O8 0.472061 0.726588 0.914661
O O9 0.875231 0.871700 0.500000
O O10 0.000000 0.000000 0.500000
O O11 0.750000 0.750000 0.500000
#
# Coordination Sequence:
#
# PCOD9499524 Si02
#       6
#    16   8  16   8   8   8
#     4  11  23  40  67  99 140 181 228 299 367 424
#     4  11  25  44  68 104 141 187 238 298 380 433
#     4  12  25  46  71 102 143 191 246 303 370 447
#     4  12  26  45  75 111 143 196 253 316 367 452
#     4  11  21  40  68  94 129 181 234 288 346 429
#     4  12  25  43  70 107 144 185 247 310 367 450
#
# _framework density 20.532198999999999
#
# number of rings (size 3 to 8) (size 9 to 14) (size 15 to 20)
#    0.000    0.500    5.000    4.125    0.000    0.000 
#    0.000    3.750    0.000    0.000    0.000    0.000 
#    0.000    0.000    0.000    0.000    0.000    0.000 
#
# Total GULP energy -178650.866781 kJ/mol
# GULP energy per Si atom -5582.839587 kJ/mol
# Density = 2.048547 g / cm^3
# Si number density = 20.532199 Si / 1000 Ang^3
#
#
#
# Elastic Constant Matrix: (Units=GPa)
#
#
# Indices 1 2 3 4 5 6 
#
# 1 91.2969 45.5040 44.4293 0.0000 0.0000 0.0000
# 2 45.5040 117.0098 31.8709 0.0000 0.0000 0.0000
# 3 44.4293 31.8709 150.2503 0.0000 0.0000 0.0000
# 4 0.0000 0.0000 0.0000 30.0894 0.0000 0.0000
# 5 0.0000 0.0000 0.0000 0.0000 32.2138 0.0000
# 6 0.0000 0.0000 0.0000 0.0000 0.0000 -69.8647
#
#
#
# Elastic Compliance Matrix: (Units=1/GPa)
#
#
# Indices 1 2 3 4 5 6 
#
# 1 0.015071 -0.004932 -0.003410 0.000000 0.000000 0.000000
# 2 -0.004932 0.010684 -0.000808 0.000000 0.000000 0.000000
# 3 -0.003410 -0.000808 0.007835 0.000000 0.000000 0.000000
# 4 0.000000 0.000000 0.000000 0.033234 0.000000 0.000000
# 5 0.000000 0.000000 0.000000 0.000000 0.031043 0.000000
# 6 0.000000 0.000000 0.000000 0.000000 0.000000 -0.014313
#
#
# Mechanical properties :
#
#
# Convention : Reuss Voigt Hill
#
# Bulk Modulus (GPa) = 65.40170 66.90727 66.15448
# Shear Modulus (GPa) = 46.74989 14.27120 30.51055
#
# Velocity S-wave (km/s) = 4.77687 2.63927 3.85903
# Velocity P-wave (km/s) = 7.89601 6.47649 7.22122
#
# Compressibility (1/GPa) = 0.01529012
#
# Stress axis : x y z
#
# Youngs Moduli (GPa) = 66.35174 93.59425 127.62602
#
# Poissons Ratio (x) = 0.46162 0.43525
# Poissons Ratio (y) = 0.32726 0.10311
# Poissons Ratio (z) = 0.22628 0.07562
#
# Static dielectric constant tensor:
#      x y z
#    x 1.774920 0.000000 0.000000 
#    y 0.000000 1.784150 0.000000 
#    z 0.000000 0.000000 1.763890 
# 
# From -- ./inp_files/42453.got.cif
#   From: 2010.05.17/outbox.cif.g08.bks.cpg/sg66_22_cif.got.tgz:42453.got - 2010.06.03 17:51:23.
