data_PCOD9499932
_publ_section_title
;
Structure prediction by ZEFSAII (Michael W. Deem and Ramdas Pophale) SiO2 
 PCOD9499932
Probable space group: C C C M
;
_chemical_formula_sum "Si O2"
_cell_formula_units_Z 64
_cell_length_a 16.030319
_cell_length_b 10.607968
_cell_length_c 17.695454
_cell_angle_alpha 90.000000
_cell_angle_beta 90.000000
_cell_angle_gamma 90.000000
_cell_volume 3009.096221
_symmetry_space_group_name_H-M "C C C M"
_symmetry_group_IT_number 66
_symmetry_cell_setting 'orthorhombic'
loop_
_space_group_symop_operation_xyz
x,y,z
-x,-y,z
x,-y,1/2-z
-x,y,1/2-z
-x,-y,-z
x,y,-z
-x,y,1/2+z
x,-y,1/2+z
1/2+x,1/2+y,z
1/2-x,1/2-y,z
1/2+x,1/2-y,1/2-z
1/2-x,1/2+y,1/2-z
1/2-x,1/2-y,-z
1/2+x,1/2+y,-z
1/2-x,1/2+y,1/2+z
1/2+x,1/2-y,1/2+z
loop_
_atom_site_type_symbol
_atom_site_label
_atom_site_fract_x
_atom_site_fract_y
_atom_site_fract_z
Si Si1 0.308702 0.368933 0.226189
Si Si2 0.101359 0.489063 0.585334
Si Si3 0.557784 0.231630 0.181588
Si Si4 0.602114 0.723482 0.911124
O O1 0.269790 0.500000 0.250000
O O2 0.250000 0.250000 0.235412
O O3 0.387721 0.340215 0.280434
O O4 0.342867 0.366319 0.140717
O O5 0.129256 0.457620 0.500000
O O6 0.114147 0.377377 0.644455
O O7 0.130518 0.630599 0.604022
O O8 0.000000 0.500000 0.582936
O O9 0.500000 0.178323 0.250000
O O10 0.493038 0.281232 0.118769
O O11 0.607513 0.701353 0.000000
#
# Coordination Sequence:
#
# PCOD9499932 Si02
#       4
#    16  16  16  16
#     4  11  26  42  60  86 123 163 205 244 298 366
#     4   8  14  27  52  89 122 147 183 234 292 353
#     4   9  18  32  58  90 120 151 202 251 301 341
#     4   9  19  37  65  92 119 157 199 249 303 355
#
# _framework density 21.268844000000001
#
# number of rings (size 3 to 8) (size 9 to 14) (size 15 to 20)
#    0.000    2.750    0.000    2.250    3.500   15.500 
#    0.000    3.750    0.000    3.750    0.000    0.000 
#    0.000    0.000    0.000    0.000    0.000    0.000 
#
# Total GULP energy -178612.274252 kJ/mol
# GULP energy per Si atom -5581.633570 kJ/mol
# Density = 2.122044 g / cm^3
# Si number density = 21.268844 Si / 1000 Ang^3
#
#
#
# Elastic Constant Matrix: (Units=GPa)
#
#
# Indices 1 2 3 4 5 6 
#
# 1 40.9828 23.1053 20.9727 0.0000 0.0000 0.0000
# 2 23.1053 71.3154 62.2683 0.0000 0.0000 0.0000
# 3 20.9727 62.2683 113.2641 0.0000 0.0000 0.0000
# 4 0.0000 0.0000 0.0000 14.0358 0.0000 0.0000
# 5 0.0000 0.0000 0.0000 0.0000 9.2864 0.0000
# 6 0.0000 0.0000 0.0000 0.0000 0.0000 22.9091
#
#
#
# Elastic Compliance Matrix: (Units=1/GPa)
#
#
# Indices 1 2 3 4 5 6 
#
# 1 0.029863 -0.009322 -0.000405 0.000000 0.000000 0.000000
# 2 -0.009322 0.029877 -0.014699 0.000000 0.000000 0.000000
# 3 -0.000405 -0.014699 0.016985 0.000000 0.000000 0.000000
# 4 0.000000 0.000000 0.000000 0.071247 0.000000 0.000000
# 5 0.000000 0.000000 0.000000 0.000000 0.107684 0.000000
# 6 0.000000 0.000000 0.000000 0.000000 0.000000 0.043651
#
#
# Mechanical properties :
#
#
# Convention : Reuss Voigt Hill
#
# Bulk Modulus (GPa) = 35.87657 48.69499 42.28578
# Shear Modulus (GPa) = 13.98803 17.19398 15.59100
#
# Velocity S-wave (km/s) = 2.56730 2.84634 2.71042
# Velocity P-wave (km/s) = 5.06881 5.80921 5.45159
#
# Compressibility (1/GPa) = 0.02787335
#
# Stress axis : x y z
#
# Youngs Moduli (GPa) = 33.48612 33.47108 58.87618
#
# Poissons Ratio (x) = 0.31201 0.02384
# Poissons Ratio (y) = 0.31215 0.86542
# Poissons Ratio (z) = 0.01356 0.49199
#
# Static dielectric constant tensor:
#      x y z
#    x 1.799450 0.000000 0.000000 
#    y 0.000000 1.781820 0.000000 
#    z 0.000000 0.000000 1.774490 
# 
# From -- ./inp_files/29586.got.cif
#   From: 2010.05.17/outbox.cif.g08.bks.cpg/sg66_15_cif.got.tgz:29586.got - 2010.06.03 17:51:23.
