data_PCOD9499999
_publ_section_title
;
Structure prediction by ZEFSAII (Michael W. Deem and Ramdas Pophale) SiO2 
 PCOD9499999
Probable space group: C C C M
;
_chemical_formula_sum "Si O2"
_cell_formula_units_Z 68
_cell_length_a 16.678414
_cell_length_b 9.448654
_cell_length_c 18.747608
_cell_angle_alpha 90.000000
_cell_angle_beta 90.000000
_cell_angle_gamma 90.000000
_cell_volume 2954.408607
_symmetry_space_group_name_H-M "C C C M"
_symmetry_group_IT_number 66
_symmetry_cell_setting 'orthorhombic'
loop_
_space_group_symop_operation_xyz
x,y,z
-x,-y,z
x,-y,1/2-z
-x,y,1/2-z
-x,-y,-z
x,y,-z
-x,y,1/2+z
x,-y,1/2+z
1/2+x,1/2+y,z
1/2-x,1/2-y,z
1/2+x,1/2-y,1/2-z
1/2-x,1/2+y,1/2-z
1/2-x,1/2-y,-z
1/2+x,1/2+y,-z
1/2-x,1/2+y,1/2+z
1/2+x,1/2-y,1/2+z
loop_
_atom_site_type_symbol
_atom_site_label
_atom_site_fract_x
_atom_site_fract_y
_atom_site_fract_z
Si Si1 0.610782 0.222305 0.915233
Si Si2 0.627274 0.515942 0.169075
Si Si3 0.250000 0.250000 0.000000
Si Si4 0.195441 0.447946 0.869290
Si Si5 0.959819 0.294653 0.328402
O O1 0.620948 0.373345 0.876306
O O2 0.527410 0.160804 0.884485
O O3 0.677767 0.108775 0.892873
O O4 0.609909 0.239911 0.000000
O O5 0.600331 0.500000 0.250000
O O6 0.720151 0.560189 0.170679
O O7 0.572496 0.643794 0.142258
O O8 0.208096 0.349589 0.061958
O O9 0.119094 0.391246 0.825929
O O10 0.000000 0.287424 0.250000
#
# Coordination Sequence:
#
# PCOD9499999 Si02
#       5
#    16  16   4  16  16
#     4  12  29  46  77 118 156 197 258 325 393 469
#     4  12  27  50  76 107 153 202 256 317 389 471
#     4  12  24  52  76 110 154 196 262 322 392 456
#     4  12  28  48  80 108 151 204 262 319 391 460
#     4  12  27  50  74 112 154 208 254 324 394 475
#
# _framework density 23.016449999999999
#
# number of rings (size 3 to 8) (size 9 to 14) (size 15 to 20)
#    0.000    0.000    5.882    2.118    6.588    6.588 
#    0.000    0.000    0.000    0.000    0.000    0.000 
#    0.000    0.000    0.000    0.000    0.000    0.000 
#
# Total GULP energy -189851.193539 kJ/mol
# GULP energy per Si atom -5583.858634 kJ/mol
# Density = 2.296406 g / cm^3
# Si number density = 23.016450 Si / 1000 Ang^3
#
#
#
# Elastic Constant Matrix: (Units=GPa)
#
#
# Indices 1 2 3 4 5 6 
#
# 1 113.7405 30.4683 16.3800 0.0000 0.0000 0.0000
# 2 30.4683 133.8857 38.6459 0.0000 0.0000 0.0000
# 3 16.3800 38.6459 94.4952 0.0000 0.0000 0.0000
# 4 0.0000 0.0000 0.0000 -10.4057 0.0000 0.0000
# 5 0.0000 0.0000 0.0000 0.0000 -4.4812 0.0000
# 6 0.0000 0.0000 0.0000 0.0000 0.0000 54.2075
#
#
#
# Elastic Compliance Matrix: (Units=1/GPa)
#
#
# Indices 1 2 3 4 5 6 
#
# 1 0.009424 -0.001897 -0.000858 0.000000 0.000000 0.000000
# 2 -0.001897 0.008851 -0.003291 0.000000 0.000000 0.000000
# 3 -0.000858 -0.003291 0.012077 0.000000 0.000000 0.000000
# 4 0.000000 0.000000 0.000000 -0.096101 0.000000 0.000000
# 5 0.000000 0.000000 0.000000 0.000000 -0.223155 0.000000
# 6 0.000000 0.000000 0.000000 0.000000 0.000000 0.018448
#
#
# Mechanical properties :
#
#
# Convention : Reuss Voigt Hill
#
# Bulk Modulus (GPa) = 54.76353 57.01221 55.88787
# Shear Modulus (GPa) = -19.81933 24.97260 2.57663
#
# Velocity S-wave (km/s) = -2.93762 3.29749 1.05920
# Velocity P-wave (km/s) = 3.51265 6.27072 5.08235
#
# Compressibility (1/GPa) = 0.01826033
#
# Stress axis : x y z
#
# Youngs Moduli (GPa) = 106.11648 112.98610 82.80144
#
# Poissons Ratio (x) = 0.21433 0.07102
# Poissons Ratio (y) = 0.20130 0.27249
# Poissons Ratio (z) = 0.09102 0.37182
#
# Static dielectric constant tensor:
#      x y z
#    x 1.860610 0.000000 0.000000 
#    y 0.000000 1.961250 0.000000 
#    z 0.000000 0.000000 1.797530 
# 
# From -- ./inp_files/46743.got.cif
#   From: 2010.05.17/outbox.cif.g08.bks.cpg/sg66_24_cif.got.tgz:46743.got - 2010.06.03 17:51:23.
