data_PCOD9499465
_publ_section_title
;
Structure prediction by ZEFSAII (Michael W. Deem and Ramdas Pophale) SiO2 
 PCOD9499465
Probable space group: C C C M
;
_chemical_formula_sum "Si O2"
_cell_formula_units_Z 88
_cell_length_a 19.810595
_cell_length_b 10.407454
_cell_length_c 16.916397
_cell_angle_alpha 90.000000
_cell_angle_beta 90.000000
_cell_angle_gamma 90.000000
_cell_volume 3487.786468
_symmetry_space_group_name_H-M "C C C M"
_symmetry_group_IT_number 66
_symmetry_cell_setting 'orthorhombic'
loop_
_space_group_symop_operation_xyz
x,y,z
-x,-y,z
x,-y,1/2-z
-x,y,1/2-z
-x,-y,-z
x,y,-z
-x,y,1/2+z
x,-y,1/2+z
1/2+x,1/2+y,z
1/2-x,1/2-y,z
1/2+x,1/2-y,1/2-z
1/2-x,1/2+y,1/2-z
1/2-x,1/2-y,-z
1/2+x,1/2+y,-z
1/2-x,1/2+y,1/2+z
1/2+x,1/2-y,1/2+z
loop_
_atom_site_type_symbol
_atom_site_label
_atom_site_fract_x
_atom_site_fract_y
_atom_site_fract_z
Si Si1 0.421060 0.979259 0.418029
Si Si2 0.715754 0.608266 0.587854
Si Si3 0.083067 0.757726 0.880754
Si Si4 0.124002 0.715450 0.292621
Si Si5 0.770795 0.500000 0.750000
Si Si6 0.550603 0.613486 0.091039
O O1 0.396464 0.917524 0.500000
O O2 0.389906 0.120480 0.410074
O O3 0.500000 0.000000 0.422099
O O4 0.407480 0.901824 0.340347
O O5 0.732523 0.555382 0.500000
O O6 0.750000 0.750000 0.593545
O O7 0.635275 0.634804 0.591559
O O8 0.734558 0.527927 0.666039
O O9 0.085368 0.753890 0.786385
O O10 0.007373 0.776197 0.910168
O O11 0.191334 0.638652 0.264850
O O12 0.110911 0.834849 0.353096
O O13 0.500000 0.500000 0.121166
O O14 0.570279 0.589802 0.000000
#
# Coordination Sequence:
#
# PCOD9499465 Si02
#       6
#    16  16  16  16   8  16
#     4  11  21  35  64 104 142 180 228 299 378 443
#     4  11  24  46  75 101 138 192 245 305 369 440
#     4  12  23  42  69 100 139 183 243 295 368 443
#     4  12  23  40  66 101 143 180 227 307 371 429
#     4  12  26  46  71 114 147 186 258 316 366 442
#     4  11  26  45  66  99 143 191 242 293 366 453
#
# _framework density 25.230903000000001
#
# number of rings (size 3 to 8) (size 9 to 14) (size 15 to 20)
#    0.000    0.545    5.455    2.727    0.000    6.545 
#    0.000    0.000    0.000    1.636    0.000    0.000 
#    0.000    0.000    0.000    0.000    0.000    0.000 
#
# Total GULP energy -245727.588272 kJ/mol
# GULP energy per Si atom -5584.717915 kJ/mol
# Density = 2.517348 g / cm^3
# Si number density = 25.230903 Si / 1000 Ang^3
#
#
#
# Elastic Constant Matrix: (Units=GPa)
#
#
# Indices 1 2 3 4 5 6 
#
# 1 86.6020 24.2261 45.0197 0.0000 0.0000 0.0000
# 2 24.2261 107.4897 45.7921 0.0000 0.0000 0.0000
# 3 45.0197 45.7921 245.7039 0.0000 0.0000 0.0000
# 4 0.0000 0.0000 0.0000 47.2662 0.0000 0.0000
# 5 0.0000 0.0000 0.0000 0.0000 23.4443 0.0000
# 6 0.0000 0.0000 0.0000 0.0000 0.0000 44.1388
#
#
#
# Elastic Compliance Matrix: (Units=1/GPa)
#
#
# Indices 1 2 3 4 5 6 
#
# 1 0.013189 -0.002111 -0.002023 0.000000 0.000000 0.000000
# 2 -0.002111 0.010443 -0.001560 0.000000 0.000000 0.000000
# 3 -0.002023 -0.001560 0.004731 0.000000 0.000000 0.000000
# 4 0.000000 0.000000 0.000000 0.021157 0.000000 0.000000
# 5 0.000000 0.000000 0.000000 0.000000 0.042654 0.000000
# 6 0.000000 0.000000 0.000000 0.000000 0.000000 0.022656
#
#
# Mechanical properties :
#
#
# Convention : Reuss Voigt Hill
#
# Bulk Modulus (GPa) = 58.90366 74.43016 66.66691
# Shear Modulus (GPa) = 37.91413 44.62036 41.26725
#
# Velocity S-wave (km/s) = 3.88066 4.20989 4.04862
# Velocity P-wave (km/s) = 6.59362 7.29346 6.95235
#
# Compressibility (1/GPa) = 0.01697687
#
# Stress axis : x y z
#
# Youngs Moduli (GPa) = 75.81897 95.75490 211.35729
#
# Poissons Ratio (x) = 0.20211 0.42763
# Poissons Ratio (y) = 0.16003 0.32963
# Poissons Ratio (z) = 0.15340 0.14934
#
# Static dielectric constant tensor:
#      x y z
#    x 2.031220 0.000000 0.000000 
#    y 0.000000 2.160020 0.000000 
#    z 0.000000 0.000000 2.023400 
# 
# From -- ./inp_files/32225.got.cif
#   From: 2010.05.17/outbox.cif.g08.bks.cpg/sg66_17_cif.got.tgz:32225.got - 2010.06.03 17:51:23.
