data_PCOD9499446
_publ_section_title
;
Structure prediction by ZEFSAII (Michael W. Deem and Ramdas Pophale) SiO2 
 PCOD9499446
Probable space group: C C C M
;
_chemical_formula_sum "Si O2"
_cell_formula_units_Z 80
_cell_length_a 19.149501
_cell_length_b 27.762863
_cell_length_c 8.660674
_cell_angle_alpha 90.000000
_cell_angle_beta 90.000000
_cell_angle_gamma 90.000000
_cell_volume 4604.403793
_symmetry_space_group_name_H-M "C C C M"
_symmetry_group_IT_number 66
_symmetry_cell_setting 'orthorhombic'
loop_
_space_group_symop_operation_xyz
x,y,z
-x,-y,z
x,-y,1/2-z
-x,y,1/2-z
-x,-y,-z
x,y,-z
-x,y,1/2+z
x,-y,1/2+z
1/2+x,1/2+y,z
1/2-x,1/2-y,z
1/2+x,1/2-y,1/2-z
1/2-x,1/2+y,1/2-z
1/2-x,1/2-y,-z
1/2+x,1/2+y,-z
1/2-x,1/2+y,1/2+z
1/2+x,1/2-y,1/2+z
loop_
_atom_site_type_symbol
_atom_site_label
_atom_site_fract_x
_atom_site_fract_y
_atom_site_fract_z
Si Si1 0.424487 0.348199 0.313500
Si Si2 0.073356 0.446096 0.183518
Si Si3 0.717673 0.699930 0.687906
Si Si4 0.288815 0.900066 0.186252
Si Si5 0.355780 0.448236 0.685673
O O1 0.500000 0.335362 0.250000
O O2 0.426049 0.347794 0.500000
O O3 0.361309 0.313086 0.263393
O O4 0.402724 0.402631 0.264979
O O5 0.082128 0.500000 0.250000
O O6 0.139695 0.415686 0.236569
O O7 0.000000 0.427123 0.250000
O O8 0.069172 0.448678 0.000000
O O9 0.716300 0.701659 0.500000
O O10 0.750000 0.750000 0.743922
O O11 0.764938 0.653860 0.728411
O O12 0.224010 0.934788 0.230246
O O13 0.295822 0.902448 0.000000
O O14 0.376494 0.500000 0.750000
O O15 0.357955 0.449859 0.500000
#
# Coordination Sequence:
#
# PCOD9499446 Si02
#       5
#    16  16  16  16  16
#     4   9  18  32  49  71  97 125 158 194 235 281
#     4  11  21  33  49  70  98 131 165 200 244 294
#     4   8  15  31  55  76  95 126 165 201 241 290
#     4   9  17  31  50  72  97 125 162 204 242 288
#     4   9  18  30  45  67  95 127 161 194 230 278
#
# _framework density 17.374670999999999
#
# number of rings (size 3 to 8) (size 9 to 14) (size 15 to 20)
#    0.000    2.800    0.000    5.400    0.000    3.600 
#    0.000    6.000    0.000    4.800    0.000    0.000 
#    0.000    0.000    0.000    0.000    0.000    0.000 
#
# Total GULP energy -223017.426271 kJ/mol
# GULP energy per Si atom -5575.435657 kJ/mol
# Density = 1.733513 g / cm^3
# Si number density = 17.374671 Si / 1000 Ang^3
#
#
#
# Elastic Constant Matrix: (Units=GPa)
#
#
# Indices 1 2 3 4 5 6 
#
# 1 153.3206 62.2357 35.0349 0.0000 0.0000 0.0000
# 2 62.2357 101.6757 16.8036 0.0000 0.0000 0.0000
# 3 35.0349 16.8036 38.7774 0.0000 0.0000 0.0000
# 4 0.0000 0.0000 0.0000 13.0439 0.0000 0.0000
# 5 0.0000 0.0000 0.0000 0.0000 23.8060 0.0000
# 6 0.0000 0.0000 0.0000 0.0000 0.0000 11.8277
#
#
#
# Elastic Compliance Matrix: (Units=1/GPa)
#
#
# Indices 1 2 3 4 5 6 
#
# 1 0.010182 -0.005076 -0.007000 0.000000 0.000000 0.000000
# 2 -0.005076 0.013124 -0.001101 0.000000 0.000000 0.000000
# 3 -0.007000 -0.001101 0.032590 0.000000 0.000000 0.000000
# 4 0.000000 0.000000 0.000000 0.076664 0.000000 0.000000
# 5 0.000000 0.000000 0.000000 0.000000 0.042006 0.000000
# 6 0.000000 0.000000 0.000000 0.000000 0.000000 0.084547
#
#
# Mechanical properties :
#
#
# Convention : Reuss Voigt Hill
#
# Bulk Modulus (GPa) = 33.84997 57.99133 45.92065
# Shear Modulus (GPa) = 16.93110 21.71550 19.32330
#
# Velocity S-wave (km/s) = 3.12504 3.53914 3.33851
# Velocity P-wave (km/s) = 5.70489 7.08167 6.43024
#
# Compressibility (1/GPa) = 0.02954212
#
# Stress axis : x y z
#
# Youngs Moduli (GPa) = 98.21155 76.19637 30.68439
#
# Poissons Ratio (x) = 0.38674 0.21479
# Poissons Ratio (y) = 0.49848 0.03379
# Poissons Ratio (z) = 0.68748 0.08392
#
# Static dielectric constant tensor:
#      x y z
#    x 1.586450 0.000000 0.000000 
#    y 0.000000 1.584310 0.000000 
#    z 0.000000 0.000000 1.589500 
# 
# From -- ./inp_files/6697.got.cif
#   From: 2010.05.17/outbox.cif.g08.bks.cpg/sg66_4_cif.got.tgz:6697.got - 2010.06.03 17:51:23.
