data_PCOD9499963
_publ_section_title
;
Structure prediction by ZEFSAII (Michael W. Deem and Ramdas Pophale) SiO2 
 PCOD9499963
Probable space group: C C C M
;
_chemical_formula_sum "Si O2"
_cell_formula_units_Z 72
_cell_length_a 10.538120
_cell_length_b 14.713062
_cell_length_c 18.345833
_cell_angle_alpha 90.000000
_cell_angle_beta 90.000000
_cell_angle_gamma 90.000000
_cell_volume 2844.484952
_symmetry_space_group_name_H-M "C C C M"
_symmetry_group_IT_number 66
_symmetry_cell_setting 'orthorhombic'
loop_
_space_group_symop_operation_xyz
x,y,z
-x,-y,z
x,-y,1/2-z
-x,y,1/2-z
-x,-y,-z
x,y,-z
-x,y,1/2+z
x,-y,1/2+z
1/2+x,1/2+y,z
1/2-x,1/2-y,z
1/2+x,1/2-y,1/2-z
1/2-x,1/2+y,1/2-z
1/2-x,1/2-y,-z
1/2+x,1/2+y,-z
1/2-x,1/2+y,1/2+z
1/2+x,1/2-y,1/2+z
loop_
_atom_site_type_symbol
_atom_site_label
_atom_site_fract_x
_atom_site_fract_y
_atom_site_fract_z
Si Si1 0.776285 0.109620 0.249963
Si Si2 0.435640 0.172335 0.000000
Si Si3 0.088221 0.590124 0.869919
Si Si4 0.548021 0.632124 0.000000
Si Si5 0.763015 0.505493 0.500000
Si Si6 0.510380 0.391007 0.654080
O O1 0.649349 0.131984 0.203984
O O2 0.840433 0.133372 0.328859
O O3 0.896924 0.143749 0.204006
O O4 0.767186 0.000000 0.250000
O O5 0.512764 0.157815 0.923676
O O6 0.379842 0.272322 0.000000
O O7 0.350200 0.083883 0.000000
O O8 0.000000 0.500000 0.854091
O O9 0.198969 0.556151 0.925449
O O10 0.472480 0.633953 0.926424
O O11 0.627341 0.540066 0.000000
O O12 0.500000 0.500000 0.663197
#
# Coordination Sequence:
#
# PCOD9499963 Si02
#       6
#    16   8  16   8   8  16
#     4   9  17  33  54  79 110 141 184 242 291 337
#     4   9  21  35  52  84 120 151 189 234 286 352
#     4   9  18  35  58  83 111 146 192 247 296 345
#     4  12  20  33  58  84 114 156 193 230 288 356
#     4   9  17  32  56  82 108 145 195 242 285 346
#     4   9  19  32  53  83 111 143 190 240 284 337
#
# _framework density 25.312138999999998
#
# number of rings (size 3 to 8) (size 9 to 14) (size 15 to 20)
#    0.000    2.667    0.000    6.000    0.000    2.222 
#    0.000    2.222    0.000   32.000    0.000    0.000 
#    0.000    0.000    0.000    0.000    0.000    0.000 
#
# Total GULP energy -200452.779306 kJ/mol
# GULP energy per Si atom -5568.132759 kJ/mol
# Density = 2.525453 g / cm^3
# Si number density = 25.312139 Si / 1000 Ang^3
#
#
#
# Elastic Constant Matrix: (Units=GPa)
#
#
# Indices 1 2 3 4 5 6 
#
# 1 100.9484 8.6721 26.4296 0.0000 0.0000 0.0000
# 2 8.6721 57.7123 0.9615 0.0000 0.0000 0.0000
# 3 26.4296 0.9615 95.4307 0.0000 0.0000 0.0000
# 4 0.0000 0.0000 0.0000 -12.5221 0.0000 0.0000
# 5 0.0000 0.0000 0.0000 0.0000 8.9962 0.0000
# 6 0.0000 0.0000 0.0000 0.0000 0.0000 -1.4182
#
#
#
# Elastic Compliance Matrix: (Units=1/GPa)
#
#
# Indices 1 2 3 4 5 6 
#
# 1 0.010822 -0.001576 -0.002981 0.000000 0.000000 0.000000
# 2 -0.001576 0.017560 0.000260 0.000000 0.000000 0.000000
# 3 -0.002981 0.000260 0.011302 0.000000 0.000000 0.000000
# 4 0.000000 0.000000 0.000000 -0.079859 0.000000 0.000000
# 5 0.000000 0.000000 0.000000 0.000000 0.111158 0.000000
# 6 0.000000 0.000000 0.000000 0.000000 0.000000 -0.705137
#
#
# Mechanical properties :
#
#
# Convention : Reuss Voigt Hill
#
# Bulk Modulus (GPa) = 32.16716 36.24641 34.20679
# Shear Modulus (GPa) = -8.12750 13.54640 2.70945
#
# Velocity S-wave (km/s) = -1.79384 2.31589 1.03573
# Velocity P-wave (km/s) = 2.90608 4.63703 3.86958
#
# Compressibility (1/GPa) = 0.03108761
#
# Stress axis : x y z
#
# Youngs Moduli (GPa) = 92.40416 56.94795 88.48104
#
# Poissons Ratio (x) = 0.08978 0.26379
# Poissons Ratio (y) = 0.14567 -0.02298
# Poissons Ratio (z) = 0.27548 -0.01479
#
# Static dielectric constant tensor:
#      x y z
#    x 2.134450 0.000000 0.000000 
#    y 0.000000 1.986750 0.000000 
#    z 0.000000 0.000000 2.147830 
# 
# From -- ./inp_files/48397.got.cif
#   From: 2010.05.17/outbox.cif.g08.bks.cpg/sg66_25_cif.got.tgz:48397.got - 2010.06.03 17:51:23.
