data_PCOD9499782
_publ_section_title
;
Structure prediction by ZEFSAII (Michael W. Deem and Ramdas Pophale) SiO2 
 PCOD9499782
Probable space group: C C C M
;
_chemical_formula_sum "Si O2"
_cell_formula_units_Z 96
_cell_length_a 21.743802
_cell_length_b 10.030256
_cell_length_c 22.999480
_cell_angle_alpha 90.000000
_cell_angle_beta 90.000000
_cell_angle_gamma 90.000000
_cell_volume 5016.092301
_symmetry_space_group_name_H-M "C C C M"
_symmetry_group_IT_number 66
_symmetry_cell_setting 'orthorhombic'
loop_
_space_group_symop_operation_xyz
x,y,z
-x,-y,z
x,-y,1/2-z
-x,y,1/2-z
-x,-y,-z
x,y,-z
-x,y,1/2+z
x,-y,1/2+z
1/2+x,1/2+y,z
1/2-x,1/2-y,z
1/2+x,1/2-y,1/2-z
1/2-x,1/2+y,1/2-z
1/2-x,1/2-y,-z
1/2+x,1/2+y,-z
1/2-x,1/2+y,1/2+z
1/2+x,1/2-y,1/2+z
loop_
_atom_site_type_symbol
_atom_site_label
_atom_site_fract_x
_atom_site_fract_y
_atom_site_fract_z
Si Si1 0.645673 0.728128 0.500000
Si Si2 0.743188 0.969262 0.500000
Si Si3 0.035654 0.806480 0.687051
Si Si4 0.257343 0.906343 0.623813
Si Si5 0.917401 0.263691 0.875581
Si Si6 0.114193 0.463364 0.817420
Si Si7 0.359282 0.525120 0.815361
O O1 0.694193 0.849453 0.500000
O O2 0.688618 0.596407 0.500000
O O3 0.606156 0.740471 0.559059
O O4 0.732519 0.055006 0.557218
O O5 0.078668 0.676881 0.679536
O O6 0.078836 0.935668 0.680971
O O7 0.000000 0.805544 0.750000
O O8 0.984577 0.794426 0.637280
O O9 0.250000 0.750000 0.631383
O O10 0.183985 0.548179 0.660774
O O11 0.194455 0.975444 0.643315
O O12 0.915637 0.417296 0.855254
O O13 0.874271 0.176908 0.832070
O O14 0.112083 0.500000 0.750000
O O15 0.337138 0.500000 0.750000
#
# Coordination Sequence:
#
# PCOD9499782 Si02
#       7
#     8   8  16  16  16  16  16
#     4  11  24  46  68  98 132 183 232 280 330 405
#     4  11  23  46  70  88 131 185 232 270 346 406
#     4  12  24  44  69  96 143 183 220 270 340 415
#     4  12  25  44  67  99 136 169 232 290 340 400
#     4  12  25  42  72 100 134 179 234 273 324 412
#     4  12  24  43  68 103 137 177 220 283 343 402
#     4  12  24  43  68 103 137 177 220 283 343 402
#
# _framework density 19.138403
#
# number of rings (size 3 to 8) (size 9 to 14) (size 15 to 20)
#    0.000    0.167    8.333    1.750    0.000    0.667 
#    0.000    5.000    0.000    0.000    0.000    0.000 
#    0.000    0.000    0.000    0.000    0.000    0.000 
#
# Total GULP energy -268370.490713 kJ/mol
# GULP energy per Si atom -5591.051890 kJ/mol
# Density = 1.909484 g / cm^3
# Si number density = 19.138403 Si / 1000 Ang^3
#
#
#
# Elastic Constant Matrix: (Units=GPa)
#
#
# Indices 1 2 3 4 5 6 
#
# 1 78.3962 -4.9646 9.9655 0.0000 0.0000 0.0000
# 2 -4.9646 59.8275 -16.0584 0.0000 0.0000 0.0000
# 3 9.9655 -16.0584 89.0222 0.0000 0.0000 0.0000
# 4 0.0000 0.0000 0.0000 29.3595 0.0000 0.0000
# 5 0.0000 0.0000 0.0000 0.0000 219.1190 0.0000
# 6 0.0000 0.0000 0.0000 0.0000 0.0000 -4.1835
#
#
#
# Elastic Compliance Matrix: (Units=1/GPa)
#
#
# Indices 1 2 3 4 5 6 
#
# 1 0.012969 0.000721 -0.001322 0.000000 0.000000 0.000000
# 2 0.000721 0.017605 0.003095 0.000000 0.000000 0.000000
# 3 -0.001322 0.003095 0.011939 0.000000 0.000000 0.000000
# 4 0.000000 0.000000 0.000000 0.034060 0.000000 0.000000
# 5 0.000000 0.000000 0.000000 0.000000 0.004564 0.000000
# 6 0.000000 0.000000 0.000000 0.000000 0.000000 -0.239036
#
#
# Mechanical properties :
#
#
# Convention : Reuss Voigt Hill
#
# Bulk Modulus (GPa) = 21.05101 22.79233 21.92167
# Shear Modulus (GPa) = -34.00156 64.74590 15.37217
#
# Velocity S-wave (km/s) = -4.21956 5.82270 2.83717
# Velocity P-wave (km/s) = 3.56600 7.55911 4.71295
#
# Compressibility (1/GPa) = 0.04750365
#
# Stress axis : x y z
#
# Youngs Moduli (GPa) = 77.10443 56.80101 83.75624
#
# Poissons Ratio (x) = -0.04098 0.11070
# Poissons Ratio (y) = -0.05563 -0.25923
# Poissons Ratio (z) = 0.10191 -0.17580
#
# Static dielectric constant tensor:
#      x y z
#    x 1.693880 0.000000 0.000000 
#    y 0.000000 1.661310 0.000000 
#    z 0.000000 0.000000 1.602240 
# 
# From -- ./inp_files/59836.got.cif
#   From: 2010.05.17/outbox.cif.g08.bks.cpg/sg66_30_cif.got.tgz:59836.got - 2010.06.03 17:51:23.
