data_PCOD9499139
_publ_section_title
;
Structure prediction by ZEFSAII (Michael W. Deem and Ramdas Pophale) SiO2 
 PCOD9499139
Probable space group: C C C M
;
_chemical_formula_sum "Si O2"
_cell_formula_units_Z 104
_cell_length_a 19.861520
_cell_length_b 9.588005
_cell_length_c 27.421437
_cell_angle_alpha 90.000000
_cell_angle_beta 90.000000
_cell_angle_gamma 90.000000
_cell_volume 5221.928772
_symmetry_space_group_name_H-M "C C C M"
_symmetry_group_IT_number 66
_symmetry_cell_setting 'orthorhombic'
loop_
_space_group_symop_operation_xyz
x,y,z
-x,-y,z
x,-y,1/2-z
-x,y,1/2-z
-x,-y,-z
x,y,-z
-x,y,1/2+z
x,-y,1/2+z
1/2+x,1/2+y,z
1/2-x,1/2-y,z
1/2+x,1/2-y,1/2-z
1/2-x,1/2+y,1/2-z
1/2-x,1/2-y,-z
1/2+x,1/2+y,-z
1/2-x,1/2+y,1/2+z
1/2+x,1/2-y,1/2+z
loop_
_atom_site_type_symbol
_atom_site_label
_atom_site_fract_x
_atom_site_fract_y
_atom_site_fract_z
Si Si1 0.849376 0.554001 0.655946
Si Si2 0.185067 0.433641 0.945462
Si Si3 0.865789 0.284485 0.277233
Si Si4 0.449192 0.710650 0.189040
Si Si5 0.750000 0.250000 0.199415
Si Si6 0.841755 0.898186 0.945789
Si Si7 0.411844 0.587848 0.347262
O O1 0.850494 0.496610 0.601518
O O2 0.861673 0.436148 0.697657
O O3 0.906813 0.671549 0.660954
O O4 0.775941 0.622891 0.666295
O O5 0.168244 0.269130 0.944949
O O6 0.265608 0.453608 0.939238
O O7 0.167130 0.485929 0.000000
O O8 0.933330 0.254484 0.245410
O O9 0.811444 0.244127 0.236861
O O10 0.854866 0.179127 0.321718
O O11 0.418740 0.556040 0.181628
O O12 0.521695 0.682652 0.163276
O O13 0.892459 0.938446 0.902824
O O14 0.865152 0.938546 0.000000
#
# Coordination Sequence:
#
# PCOD9499139 Si02
#       7
#    16  16  16  16   8  16  16
#     4  11  23  41  61  92 126 161 201 262 313 361
#     4   9  19  38  64  94 123 156 204 258 313 372
#     4  11  23  39  61  86 119 168 209 246 300 369
#     4  10  24  40  56  89 127 160 204 250 306 371
#     4  10  24  34  53  90 127 148 190 252 308 366
#     4   9  19  37  63  92 119 157 208 255 307 373
#     4  11  22  40  63  84 119 170 203 252 309 363
#
# _framework density 19.916013
#
# number of rings (size 3 to 8) (size 9 to 14) (size 15 to 20)
#    0.000    1.846    1.538    3.692    6.462    4.308 
#    0.000    6.538    0.000    1.846    0.000    0.000 
#    0.000    0.000    0.000    0.000    0.000    0.000 
#
# Total GULP energy -289507.678320 kJ/mol
# GULP energy per Si atom -5567.455352 kJ/mol
# Density = 1.987068 g / cm^3
# Si number density = 19.916013 Si / 1000 Ang^3
#
#
#
# Elastic Constant Matrix: (Units=GPa)
#
#
# Indices 1 2 3 4 5 6 
#
# 1 46.3301 12.6386 27.6511 0.0000 0.0000 0.0000
# 2 12.6386 61.5755 42.9969 0.0000 0.0000 0.0000
# 3 27.6511 42.9969 145.2881 0.0000 0.0000 0.0000
# 4 0.0000 0.0000 0.0000 -196.8265 0.0000 0.0000
# 5 0.0000 0.0000 0.0000 0.0000 13.7751 0.0000
# 6 0.0000 0.0000 0.0000 0.0000 0.0000 12.9249
#
#
#
# Elastic Compliance Matrix: (Units=1/GPa)
#
#
# Indices 1 2 3 4 5 6 
#
# 1 0.024593 -0.002243 -0.004017 0.000000 0.000000 0.000000
# 2 -0.002243 0.020675 -0.005692 0.000000 0.000000 0.000000
# 3 -0.004017 -0.005692 0.009332 0.000000 0.000000 0.000000
# 4 0.000000 0.000000 0.000000 -0.005081 0.000000 0.000000
# 5 0.000000 0.000000 0.000000 0.000000 0.072595 0.000000
# 6 0.000000 0.000000 0.000000 0.000000 0.000000 0.077370
#
#
# Mechanical properties :
#
#
# Convention : Reuss Voigt Hill
#
# Bulk Modulus (GPa) = 32.57633 46.64076 39.60854
# Shear Modulus (GPa) = 21.40231 -22.69815 -0.64792
#
# Velocity S-wave (km/s) = 3.28171 -3.37960 -0.57099
# Velocity P-wave (km/s) = 5.54543 2.87066 4.41546
#
# Compressibility (1/GPa) = 0.03069714
#
# Stress axis : x y z
#
# Youngs Moduli (GPa) = 40.66116 48.36756 107.16088
#
# Poissons Ratio (x) = 0.10849 0.43044
# Poissons Ratio (y) = 0.09121 0.60993
# Poissons Ratio (z) = 0.16333 0.27529
#
# Static dielectric constant tensor:
#      x y z
#    x 1.843870 0.000000 0.000000 
#    y 0.000000 1.722370 0.000000 
#    z 0.000000 0.000000 1.754770 
# 
# From -- ./inp_files/65725.got.cif
#   From: 2010.05.17/outbox.cif.g08.bks.cpg/sg66_33_cif.got.tgz:65725.got - 2010.06.03 17:51:23.
