data_PCOD9499911
_publ_section_title
;
Structure prediction by ZEFSAII (Michael W. Deem and Ramdas Pophale) SiO2 
 PCOD9499911
Probable space group: C C C M
;
_chemical_formula_sum "Si O2"
_cell_formula_units_Z 64
_cell_length_a 14.358566
_cell_length_b 12.110112
_cell_length_c 15.740876
_cell_angle_alpha 90.000000
_cell_angle_beta 90.000000
_cell_angle_gamma 90.000000
_cell_volume 2737.084002
_symmetry_space_group_name_H-M "C C C M"
_symmetry_group_IT_number 66
_symmetry_cell_setting 'orthorhombic'
loop_
_space_group_symop_operation_xyz
x,y,z
-x,-y,z
x,-y,1/2-z
-x,y,1/2-z
-x,-y,-z
x,y,-z
-x,y,1/2+z
x,-y,1/2+z
1/2+x,1/2+y,z
1/2-x,1/2-y,z
1/2+x,1/2-y,1/2-z
1/2-x,1/2+y,1/2-z
1/2-x,1/2-y,-z
1/2+x,1/2+y,-z
1/2-x,1/2+y,1/2+z
1/2+x,1/2-y,1/2+z
loop_
_atom_site_type_symbol
_atom_site_label
_atom_site_fract_x
_atom_site_fract_y
_atom_site_fract_z
Si Si1 0.734348 0.143607 0.151524
Si Si2 0.399172 0.736300 0.290673
Si Si3 0.101496 0.447488 0.093276
Si Si4 0.111176 0.019053 0.102273
O O1 0.750000 0.250000 0.091434
O O2 0.671881 0.209377 0.222655
O O3 0.668479 0.041112 0.129468
O O4 0.833432 0.079264 0.150084
O O5 0.500000 0.712512 0.250000
O O6 0.409047 0.836864 0.355147
O O7 0.365488 0.630671 0.345248
O O8 0.000000 0.500000 0.089332
O O9 0.136499 0.419574 0.000000
O O10 0.133829 0.022937 0.000000
O O11 0.000000 0.000000 0.107668
#
# Coordination Sequence:
#
# PCOD9499911 Si02
#       4
#    16  16  16  16
#     4  12  28  47  79 115 154 202 262 325 388 469
#     4  12  26  48  78 114 159 203 265 331 397 470
#     4  11  25  46  74 109 153 201 257 324 397 470
#     4  11  28  54  82 116 164 216 268 324 398 480
#
# _framework density 23.382549999999998
#
# number of rings (size 3 to 8) (size 9 to 14) (size 15 to 20)
#    0.000    0.500    2.500    3.750    7.000    4.500 
#    0.000    2.500    0.000    0.000    0.000    0.000 
#    0.000    1.000    0.000    0.000    0.000    0.000 
#
# Total GULP energy -178547.816096 kJ/mol
# GULP energy per Si atom -5579.619253 kJ/mol
# Density = 2.332933 g / cm^3
# Si number density = 23.382550 Si / 1000 Ang^3
#
#
#
# Elastic Constant Matrix: (Units=GPa)
#
#
# Indices 1 2 3 4 5 6 
#
# 1 131.7668 26.9858 32.0222 0.0000 0.0000 0.0000
# 2 26.9858 184.2941 83.9306 0.0000 0.0000 0.0000
# 3 32.0222 83.9306 135.5754 0.0000 0.0000 0.0000
# 4 0.0000 0.0000 0.0000 37.0510 0.0000 0.0000
# 5 0.0000 0.0000 0.0000 0.0000 75.4636 0.0000
# 6 0.0000 0.0000 0.0000 0.0000 0.0000 -145.8288
#
#
#
# Elastic Compliance Matrix: (Units=1/GPa)
#
#
# Indices 1 2 3 4 5 6 
#
# 1 0.008077 -0.000437 -0.001637 0.000000 0.000000 0.000000
# 2 -0.000437 0.007580 -0.004589 0.000000 0.000000 0.000000
# 3 -0.001637 -0.004589 0.010604 0.000000 0.000000 0.000000
# 4 0.000000 0.000000 0.000000 0.026990 0.000000 0.000000
# 5 0.000000 0.000000 0.000000 0.000000 0.013251 0.000000
# 6 0.000000 0.000000 0.000000 0.000000 0.000000 -0.006857
#
#
# Mechanical properties :
#
#
# Convention : Reuss Voigt Hill
#
# Bulk Modulus (GPa) = 77.31920 81.94595 79.63258
# Shear Modulus (GPa) = 64.69749 13.91700 39.30725
#
# Velocity S-wave (km/s) = 5.26585 2.44229 4.10451
# Velocity P-wave (km/s) = 8.37324 6.56315 7.52283
#
# Compressibility (1/GPa) = 0.01293340
#
# Stress axis : x y z
#
# Youngs Moduli (GPa) = 123.81575 131.92227 94.30564
#
# Poissons Ratio (x) = 0.05766 0.15438
# Poissons Ratio (y) = 0.05412 0.43281
# Poissons Ratio (z) = 0.20269 0.60545
#
# Static dielectric constant tensor:
#      x y z
#    x 2.025130 0.000000 0.000000 
#    y 0.000000 2.077480 0.000000 
#    z 0.000000 0.000000 2.045500 
# 
# From -- ./inp_files/39774.got.cif
#   From: 2010.05.17/outbox.cif.g08.bks.cpg/sg66_20_cif.got.tgz:39774.got - 2010.06.03 17:51:23.
