data_PCOD9499508
_publ_section_title
;
Structure prediction by ZEFSAII (Michael W. Deem and Ramdas Pophale) SiO2 
 PCOD9499508
Probable space group: C C C M
;
_chemical_formula_sum "Si O2"
_cell_formula_units_Z 80
_cell_length_a 8.779153
_cell_length_b 17.015959
_cell_length_c 28.500798
_cell_angle_alpha 90.000000
_cell_angle_beta 90.000000
_cell_angle_gamma 90.000000
_cell_volume 4257.611874
_symmetry_space_group_name_H-M "C C C M"
_symmetry_group_IT_number 66
_symmetry_cell_setting 'orthorhombic'
loop_
_space_group_symop_operation_xyz
x,y,z
-x,-y,z
x,-y,1/2-z
-x,y,1/2-z
-x,-y,-z
x,y,-z
-x,y,1/2+z
x,-y,1/2+z
1/2+x,1/2+y,z
1/2-x,1/2-y,z
1/2+x,1/2-y,1/2-z
1/2-x,1/2+y,1/2-z
1/2-x,1/2-y,-z
1/2+x,1/2+y,-z
1/2-x,1/2+y,1/2+z
1/2+x,1/2-y,1/2+z
loop_
_atom_site_type_symbol
_atom_site_label
_atom_site_fract_x
_atom_site_fract_y
_atom_site_fract_z
Si Si1 0.646685 0.080227 0.777690
Si Si2 0.834358 0.164977 0.054153
Si Si3 0.080522 0.581686 0.111871
Si Si4 0.399472 0.698114 0.205970
Si Si5 0.929966 0.753570 0.112247
O O1 0.500000 0.117399 0.750000
O O2 0.604509 0.073027 0.832302
O O3 0.812827 0.119221 0.778962
O O4 0.664381 0.000000 0.750000
O O5 0.750000 0.250000 0.057981
O O6 0.739412 0.103130 0.085622
O O7 0.000781 0.188381 0.072918
O O8 0.833887 0.140777 0.000000
O O9 0.000000 0.500000 0.095684
O O10 0.985837 0.663071 0.105848
O O11 0.500000 0.720873 0.250000
O O12 0.250000 0.750000 0.196546
O O13 0.500904 0.709487 0.160017
O O14 0.750000 0.750000 0.113646
#
# Coordination Sequence:
#
# PCOD9499508 Si02
#       5
#    16  16  16  16  16
#     4  11  22  37  57  85 121 166 203 252 316 373
#     4   9  19  40  67  92 124 167 216 270 321 382
#     4  11  21  39  63  91 127 164 211 259 319 391
#     4  12  23  36  57  82 118 159 212 251 304 376
#     4  11  23  39  63  93 123 168 213 268 317 380
#
# _framework density 18.789877000000001
#
# number of rings (size 3 to 8) (size 9 to 14) (size 15 to 20)
#    0.000    1.200    6.000    1.800    2.800    1.200 
#    0.000    1.000    0.000    1.200    0.000    0.000 
#    0.000    0.000    0.000    0.000    0.000    0.000 
#
# Total GULP energy -222711.081457 kJ/mol
# GULP energy per Si atom -5567.777036 kJ/mol
# Density = 1.874711 g / cm^3
# Si number density = 18.789877 Si / 1000 Ang^3
#
#
#
# Elastic Constant Matrix: (Units=GPa)
#
#
# Indices 1 2 3 4 5 6 
#
# 1 159.3067 52.0105 58.5579 0.0000 0.0000 0.0000
# 2 52.0105 116.7316 31.1330 0.0000 0.0000 0.0000
# 3 58.5579 31.1330 110.9619 0.0000 0.0000 0.0000
# 4 0.0000 0.0000 0.0000 151.3891 0.0000 0.0000
# 5 0.0000 0.0000 0.0000 0.0000 78.4088 0.0000
# 6 0.0000 0.0000 0.0000 0.0000 0.0000 -179.4683
#
#
#
# Elastic Compliance Matrix: (Units=1/GPa)
#
#
# Indices 1 2 3 4 5 6 
#
# 1 0.008570 -0.002824 -0.003731 0.000000 0.000000 0.000000
# 2 -0.002824 0.010190 -0.001369 0.000000 0.000000 0.000000
# 3 -0.003731 -0.001369 0.011365 0.000000 0.000000 0.000000
# 4 0.000000 0.000000 0.000000 0.006605 0.000000 0.000000
# 5 0.000000 0.000000 0.000000 0.000000 0.012754 0.000000
# 6 0.000000 0.000000 0.000000 0.000000 0.000000 -0.005572
#
#
# Mechanical properties :
#
#
# Convention : Reuss Voigt Hill
#
# Bulk Modulus (GPa) = 70.03336 74.48919 72.26128
# Shear Modulus (GPa) = 77.49767 26.41918 51.95842
#
# Velocity S-wave (km/s) = 6.42915 3.75378 5.26425
# Velocity P-wave (km/s) = 9.61585 7.64965 8.68855
#
# Compressibility (1/GPa) = 0.01427891
#
# Stress axis : x y z
#
# Youngs Moduli (GPa) = 116.68151 98.13709 87.98998
#
# Poissons Ratio (x) = 0.27710 0.32825
# Poissons Ratio (y) = 0.32946 0.12045
# Poissons Ratio (z) = 0.43529 0.13434
#
# Static dielectric constant tensor:
#      x y z
#    x 1.535870 0.000000 0.000000 
#    y 0.000000 1.766810 0.000000 
#    z 0.000000 0.000000 1.641350 
# 
# From -- ./inp_files/62404.got.cif
#   From: 2010.05.17/outbox.cif.g08.bks.cpg/sg66_32_cif.got.tgz:62404.got - 2010.06.03 17:51:23.
