data_PCOD9499980
_publ_section_title
;
Structure prediction by ZEFSAII (Michael W. Deem and Ramdas Pophale) SiO2 
 PCOD9499980
Probable space group: C C C M
;
_chemical_formula_sum "Si O2"
_cell_formula_units_Z 64
_cell_length_a 16.967617
_cell_length_b 5.163210
_cell_length_c 32.506297
_cell_angle_alpha 90.000000
_cell_angle_beta 90.000000
_cell_angle_gamma 90.000000
_cell_volume 2847.791181
_symmetry_space_group_name_H-M "C C C M"
_symmetry_group_IT_number 66
_symmetry_cell_setting 'orthorhombic'
loop_
_space_group_symop_operation_xyz
x,y,z
-x,-y,z
x,-y,1/2-z
-x,y,1/2-z
-x,-y,-z
x,y,-z
-x,y,1/2+z
x,-y,1/2+z
1/2+x,1/2+y,z
1/2-x,1/2-y,z
1/2+x,1/2-y,1/2-z
1/2-x,1/2+y,1/2-z
1/2-x,1/2-y,-z
1/2+x,1/2+y,-z
1/2-x,1/2+y,1/2+z
1/2+x,1/2-y,1/2+z
loop_
_atom_site_type_symbol
_atom_site_label
_atom_site_fract_x
_atom_site_fract_y
_atom_site_fract_z
Si Si1 0.942216 0.238605 0.500000
Si Si2 0.750000 0.750000 0.639900
Si Si3 0.170912 0.616695 0.709304
Si Si4 0.336909 0.648972 0.581088
Si Si5 0.948344 0.751127 0.150545
O O1 0.886309 0.182985 0.539406
O O2 0.000000 0.500000 0.500000
O O3 0.000000 0.000000 0.500000
O O4 0.797986 0.566870 0.672006
O O5 0.688059 0.602881 0.609301
O O6 0.133031 0.500000 0.750000
O O7 0.250000 0.750000 0.724843
O O8 0.109392 0.809170 0.688410
O O9 0.250000 0.750000 0.571933
O O10 0.392068 0.806671 0.612193
O O11 0.000000 0.500000 0.160155
O O12 0.000000 0.000000 0.140362
#
# Coordination Sequence:
#
# PCOD9499980 Si02
#       5
#     8   8  16  16  16
#     4  12  31  53  76 116 160 199 246 319 405 466
#     4  12  22  45  78 110 146 190 270 317 374 438
#     4  12  25  45  74 109 148 205 261 320 372 457
#     4  12  26  47  80 109 147 201 258 314 372 465
#     4  12  26  46  72 106 152 196 243 307 385 449
#
# _framework density 22.473559000000002
#
# number of rings (size 3 to 8) (size 9 to 14) (size 15 to 20)
#    0.000    0.000    6.250    3.375    3.500    1.000 
#    0.000    3.750    0.000    0.000    0.000    0.000 
#    0.000    0.000    0.000    0.000    0.000    0.000 
#
# Total GULP energy -178365.885330 kJ/mol
# GULP energy per Si atom -5573.933917 kJ/mol
# Density = 2.242241 g / cm^3
# Si number density = 22.473559 Si / 1000 Ang^3
#
#
#
# Elastic Constant Matrix: (Units=GPa)
#
#
# Indices 1 2 3 4 5 6 
#
# 1 130.1384 28.8443 47.0080 0.0000 0.0000 0.0000
# 2 28.8443 87.9651 23.5173 0.0000 0.0000 0.0000
# 3 47.0080 23.5173 167.0224 0.0000 0.0000 0.0000
# 4 0.0000 0.0000 0.0000 23.0934 0.0000 0.0000
# 5 0.0000 0.0000 0.0000 0.0000 28.4881 0.0000
# 6 0.0000 0.0000 0.0000 0.0000 0.0000 36.2466
#
#
#
# Elastic Compliance Matrix: (Units=1/GPa)
#
#
# Indices 1 2 3 4 5 6 
#
# 1 0.009003 -0.002364 -0.002201 0.000000 0.000000 0.000000
# 2 -0.002364 0.012433 -0.001085 0.000000 0.000000 0.000000
# 3 -0.002201 -0.001085 0.006760 0.000000 0.000000 0.000000
# 4 0.000000 0.000000 0.000000 0.043302 0.000000 0.000000
# 5 0.000000 0.000000 0.000000 0.000000 0.035102 0.000000
# 6 0.000000 0.000000 0.000000 0.000000 0.000000 0.027589
#
#
# Mechanical properties :
#
#
# Convention : Reuss Voigt Hill
#
# Bulk Modulus (GPa) = 59.18686 64.87389 62.03038
# Shear Modulus (GPa) = 33.08585 36.61603 34.85094
#
# Velocity S-wave (km/s) = 3.84110 4.04083 3.94223
# Velocity P-wave (km/s) = 6.78716 7.12043 6.95579
#
# Compressibility (1/GPa) = 0.01689564
#
# Stress axis : x y z
#
# Youngs Moduli (GPa) = 111.07294 80.42853 147.93912
#
# Poissons Ratio (x) = 0.19011 0.32563
# Poissons Ratio (y) = 0.26254 0.16057
# Poissons Ratio (z) = 0.24448 0.08730
#
# Static dielectric constant tensor:
#      x y z
#    x 1.926810 0.000000 0.000000 
#    y 0.000000 1.969480 0.000000 
#    z 0.000000 0.000000 1.525860 
# 
# From -- ./inp_files/69799.got.cif
#   From: 2010.05.17/outbox.cif.g08.bks.cpg/sg66_35_cif.got.tgz:69799.got - 2010.06.03 17:51:23.
