data_PCOD9499019
_publ_section_title
;
Structure prediction by ZEFSAII (Michael W. Deem and Ramdas Pophale) SiO2 
 PCOD9499019
Probable space group: C C C M
;
_chemical_formula_sum "Si O2"
_cell_formula_units_Z 116
_cell_length_a 8.423368
_cell_length_b 23.674438
_cell_length_c 29.064790
_cell_angle_alpha 90.000000
_cell_angle_beta 90.000000
_cell_angle_gamma 90.000000
_cell_volume 5796.056925
_symmetry_space_group_name_H-M "C C C M"
_symmetry_group_IT_number 66
_symmetry_cell_setting 'orthorhombic'
loop_
_space_group_symop_operation_xyz
x,y,z
-x,-y,z
x,-y,1/2-z
-x,y,1/2-z
-x,-y,-z
x,y,-z
-x,y,1/2+z
x,-y,1/2+z
1/2+x,1/2+y,z
1/2-x,1/2-y,z
1/2+x,1/2-y,1/2-z
1/2-x,1/2+y,1/2-z
1/2-x,1/2-y,-z
1/2+x,1/2+y,-z
1/2-x,1/2+y,1/2+z
1/2+x,1/2-y,1/2+z
loop_
_atom_site_type_symbol
_atom_site_label
_atom_site_fract_x
_atom_site_fract_y
_atom_site_fract_z
Si Si1 0.170406 0.530428 0.551833
Si Si2 0.645393 0.693677 0.285954
Si Si3 0.618230 0.453116 0.110986
Si Si4 0.521663 0.332741 0.381969
Si Si5 0.561170 0.764812 0.947973
Si Si6 0.140941 0.593522 0.813525
Si Si7 0.877527 0.363552 0.381391
Si Si8 0.500000 0.000000 0.250000
O O1 0.204047 0.551229 0.500000
O O2 0.300146 0.484965 0.568418
O O3 0.158797 0.580560 0.588766
O O4 0.000000 0.500000 0.551663
O O5 0.500000 0.691608 0.250000
O O6 0.750000 0.750000 0.280438
O O7 0.572244 0.688113 0.337201
O O8 0.762741 0.639907 0.284437
O O9 0.500000 0.500000 0.132080
O O10 0.525662 0.395321 0.101567
O O11 0.753161 0.432600 0.145769
O O12 0.488902 0.289130 0.422752
O O13 0.708146 0.335989 0.368954
O O14 0.750000 0.750000 0.949793
O O15 0.538419 0.819004 0.915538
O O16 0.506479 0.774125 0.000000
O O17 0.987575 0.621292 0.838171
O O18 0.099278 0.541369 0.781763
#
# Coordination Sequence:
#
# PCOD9499019 Si02
#       8
#    16  16  16  16  16  16  16   4
#     4  11  22  37  61  94 130 176 229 273 327 402
#     4  11  27  46  70  99 133 173 228 284 343 413
#     4  11  22  41  62  90 130 177 219 275 337 399
#     4  10  23  40  66  95 130 175 217 276 344 396
#     4   9  19  36  61  95 126 164 214 262 319 391
#     4  11  26  43  68  97 133 171 223 279 341 415
#     4  11  20  40  69  90 133 173 219 272 339 399
#     4  12  28  40  70 100 130 176 218 282 344 408
#
# _framework density 20.013605999999999
#
# number of rings (size 3 to 8) (size 9 to 14) (size 15 to 20)
#    0.000    1.379    2.759    2.069    2.897    4.138 
#    0.000    0.000    0.000    3.724    0.000    0.000 
#    0.000    0.000    0.000    0.000    0.000    0.000 
#
# Total GULP energy -323991.637327 kJ/mol
# GULP energy per Si atom -5586.062713 kJ/mol
# Density = 1.996805 g / cm^3
# Si number density = 20.013606 Si / 1000 Ang^3
#
#
#
# Elastic Constant Matrix: (Units=GPa)
#
#
# Indices 1 2 3 4 5 6 
#
# 1 81.3219 45.2531 34.1598 0.0000 0.0000 0.0000
# 2 45.2531 136.6419 59.5644 0.0000 0.0000 0.0000
# 3 34.1598 59.5644 70.5848 0.0000 0.0000 0.0000
# 4 0.0000 0.0000 0.0000 39.8883 0.0000 0.0000
# 5 0.0000 0.0000 0.0000 0.0000-1676.2199 0.0000
# 6 0.0000 0.0000 0.0000 0.0000 0.0000 -6.6731
#
#
#
# Elastic Compliance Matrix: (Units=1/GPa)
#
#
# Indices 1 2 3 4 5 6 
#
# 1 0.016216 -0.003084 -0.005246 0.000000 0.000000 0.000000
# 2 -0.003084 0.012164 -0.008772 0.000000 0.000000 0.000000
# 3 -0.005246 -0.008772 0.024108 0.000000 0.000000 0.000000
# 4 0.000000 0.000000 0.000000 0.025070 0.000000 0.000000
# 5 0.000000 0.000000 0.000000 0.000000 -0.000597 0.000000
# 6 0.000000 0.000000 0.000000 0.000000 0.000000 -0.149856
#
#
# Mechanical properties :
#
#
# Convention : Reuss Voigt Hill
#
# Bulk Modulus (GPa) = 54.68848 62.94480 58.81664
# Shear Modulus (GPa) = -153.39275 -318.62952 -236.01113
#
# Velocity S-wave (km/s) = -8.76417 -12.63139 -10.87112
# Velocity P-wave (km/s) = 8.66194 13.46168 11.31914
#
# Compressibility (1/GPa) = 0.01828539
#
# Stress axis : x y z
#
# Youngs Moduli (GPa) = 61.66622 82.21244 41.47929
#
# Poissons Ratio (x) = 0.25354 0.21758
# Poissons Ratio (y) = 0.19017 0.36386
# Poissons Ratio (z) = 0.32347 0.72117
#
# Static dielectric constant tensor:
#      x y z
#    x 1.726620 0.000000 0.000000 
#    y 0.000000 1.670940 0.000000 
#    z 0.000000 0.000000 6.484130 
# 
# From -- ./inp_files/62916.got.cif
#   From: 2010.05.17/outbox.cif.g08.bks.cpg/sg66_32_cif.got.tgz:62916.got - 2010.06.03 17:51:23.
