data_PCOD9499093
_publ_section_title
;
Structure prediction by ZEFSAII (Michael W. Deem and Ramdas Pophale) SiO2 
 PCOD9499093
Probable space group: C C C M
;
_chemical_formula_sum "Si O2"
_cell_formula_units_Z 68
_cell_length_a 19.578898
_cell_length_b 5.083277
_cell_length_c 26.297478
_cell_angle_alpha 90.000000
_cell_angle_beta 90.000000
_cell_angle_gamma 90.000000
_cell_volume 2617.255496
_symmetry_space_group_name_H-M "C C C M"
_symmetry_group_IT_number 66
_symmetry_cell_setting 'orthorhombic'
loop_
_space_group_symop_operation_xyz
x,y,z
-x,-y,z
x,-y,1/2-z
-x,y,1/2-z
-x,-y,-z
x,y,-z
-x,y,1/2+z
x,-y,1/2+z
1/2+x,1/2+y,z
1/2-x,1/2-y,z
1/2+x,1/2-y,1/2-z
1/2-x,1/2+y,1/2-z
1/2-x,1/2-y,-z
1/2+x,1/2+y,-z
1/2-x,1/2+y,1/2+z
1/2+x,1/2-y,1/2+z
loop_
_atom_site_type_symbol
_atom_site_label
_atom_site_fract_x
_atom_site_fract_y
_atom_site_fract_z
Si Si1 0.926169 0.059304 0.190805
Si Si2 0.044548 0.738414 0.940362
Si Si3 0.750000 0.750000 0.000000
Si Si4 0.191024 0.567928 0.084267
Si Si5 0.161297 0.440325 0.808066
O O1 0.902514 0.359149 0.188445
O O2 0.933602 0.000000 0.250000
O O3 0.866708 0.849965 0.178953
O O4 0.000000 0.000000 0.167014
O O5 0.119657 0.723884 0.916842
O O6 0.000000 0.500000 0.918815
O O7 0.056615 0.687528 0.000000
O O8 0.000000 0.000000 0.937522
O O9 0.806565 0.676378 0.045642
O O10 0.250000 0.750000 0.061105
O O11 0.206946 0.507583 0.143108
O O12 0.188442 0.500000 0.750000
#
# Coordination Sequence:
#
# PCOD9499093 Si02
#       5
#    16  16   4  16  16
#     4   9  18  37  67 103 150 199 246 302 371 454
#     4  10  24  45  74 108 148 189 245 312 374 436
#     4  12  30  52  80 108 152 200 268 310 388 462
#     4  12  29  49  79 110 152 205 256 316 383 466
#     4  10  23  43  68 107 149 194 251 312 378 447
#
# _framework density 25.981414999999998
#
# number of rings (size 3 to 8) (size 9 to 14) (size 15 to 20)
#    0.000    1.647    1.176    1.059    6.588    5.647 
#    2.118    0.000    0.000    0.000    0.000    0.000 
#    0.000    0.000    0.000    0.000    0.000    0.000 
#
# Total GULP energy -189526.371970 kJ/mol
# GULP energy per Si atom -5574.305058 kJ/mol
# Density = 2.592228 g / cm^3
# Si number density = 25.981415 Si / 1000 Ang^3
#
#
#
# Elastic Constant Matrix: (Units=GPa)
#
#
# Indices 1 2 3 4 5 6 
#
# 1 122.4655 39.6942 6.1559 0.0000 0.0000 0.0000
# 2 39.6942 89.7749 -14.8773 0.0000 0.0000 0.0000
# 3 6.1559 -14.8773 197.4280 0.0000 0.0000 0.0000
# 4 0.0000 0.0000 0.0000 -70.9194 0.0000 0.0000
# 5 0.0000 0.0000 0.0000 0.0000 257.2783 0.0000
# 6 0.0000 0.0000 0.0000 0.0000 0.0000 472.9344
#
#
#
# Elastic Compliance Matrix: (Units=1/GPa)
#
#
# Indices 1 2 3 4 5 6 
#
# 1 0.009608 -0.004352 -0.000628 0.000000 0.000000 0.000000
# 2 -0.004352 0.013251 0.001134 0.000000 0.000000 0.000000
# 3 -0.000628 0.001134 0.005170 0.000000 0.000000 0.000000
# 4 0.000000 0.000000 0.000000 -0.014101 0.000000 0.000000
# 5 0.000000 0.000000 0.000000 0.000000 0.003887 0.000000
# 6 0.000000 0.000000 0.000000 0.000000 0.000000 0.002114
#
#
# Mechanical properties :
#
#
# Convention : Reuss Voigt Hill
#
# Bulk Modulus (GPa) = 49.16800 52.40156 50.78478
# Shear Modulus (GPa) = 145.34831 157.10500 151.22666
#
# Velocity S-wave (km/s) = 7.48763 7.78457 7.63754
# Velocity P-wave (km/s) = 9.68082 10.05047 9.86738
#
# Compressibility (1/GPa) = 0.02033843
#
# Stress axis : x y z
#
# Youngs Moduli (GPa) = 104.08282 75.46468 193.41694
#
# Poissons Ratio (x) = 0.32843 0.12138
# Poissons Ratio (y) = 0.45298 -0.21938
# Poissons Ratio (z) = 0.06532 -0.08560
#
# Static dielectric constant tensor:
#      x y z
#    x 2.382010 0.000000 0.000000 
#    y 0.000000 1.557070 0.000000 
#    z 0.000000 0.000000 1.812060 
# 
# From -- ./inp_files/65526.got.cif
#   From: 2010.05.17/outbox.cif.g08.bks.cpg/sg66_33_cif.got.tgz:65526.got - 2010.06.03 17:51:23.
