data_PCOD9499631
_publ_section_title
;
Structure prediction by ZEFSAII (Michael W. Deem and Ramdas Pophale) SiO2 
 PCOD9499631
Probable space group: C C C M
;
_chemical_formula_sum "Si O2"
_cell_formula_units_Z 52
_cell_length_a 9.306429
_cell_length_b 12.255213
_cell_length_c 22.689276
_cell_angle_alpha 90.000000
_cell_angle_beta 90.000000
_cell_angle_gamma 90.000000
_cell_volume 2587.763425
_symmetry_space_group_name_H-M "C C C M"
_symmetry_group_IT_number 66
_symmetry_cell_setting 'orthorhombic'
loop_
_space_group_symop_operation_xyz
x,y,z
-x,-y,z
x,-y,1/2-z
-x,y,1/2-z
-x,-y,-z
x,y,-z
-x,y,1/2+z
x,-y,1/2+z
1/2+x,1/2+y,z
1/2-x,1/2-y,z
1/2+x,1/2-y,1/2-z
1/2-x,1/2+y,1/2-z
1/2-x,1/2-y,-z
1/2+x,1/2+y,-z
1/2-x,1/2+y,1/2+z
1/2+x,1/2-y,1/2+z
loop_
_atom_site_type_symbol
_atom_site_label
_atom_site_fract_x
_atom_site_fract_y
_atom_site_fract_z
Si Si1 0.432635 0.624648 0.566069
Si Si2 0.155579 0.846096 0.841916
Si Si3 0.500000 0.500000 0.750000
Si Si4 0.669025 0.007839 0.931484
O O1 0.500000 0.500000 0.566813
O O2 0.454713 0.668891 0.500000
O O3 0.519133 0.686147 0.616868
O O4 0.263844 0.602573 0.576432
O O5 0.250000 0.750000 0.815489
O O6 0.262299 0.906705 0.887004
O O7 0.096576 0.925888 0.792318
O O8 0.500000 0.000000 0.922132
O O9 0.692922 0.039926 0.000000
#
# Coordination Sequence:
#
# PCOD9499631 Si02
#       4
#    16  16   4  16
#     4   8  14  30  58  88 121 154 191 248 314 377
#     4  11  22  40  65  87 115 170 214 258 319 376
#     4  12  24  48  60  86 132 164 226 286 296 370
#     4   9  17  34  62  96 129 157 192 256 330 382
#
# _framework density 20.094573
#
# number of rings (size 3 to 8) (size 9 to 14) (size 15 to 20)
#    0.000    2.462    4.615    2.769    0.000    2.462 
#    5.538    1.538    0.000    5.538    0.000    0.000 
#    0.000    0.000    0.000    0.000    0.000    0.000 
#
# Total GULP energy -145012.541855 kJ/mol
# GULP energy per Si atom -5577.405456 kJ/mol
# Density = 2.004884 g / cm^3
# Si number density = 20.094573 Si / 1000 Ang^3
#
#
#
# Elastic Constant Matrix: (Units=GPa)
#
#
# Indices 1 2 3 4 5 6 
#
# 1 169.2144 44.1222 72.7348 0.0000 0.0000 0.0000
# 2 44.1222 53.4600 40.4470 0.0000 0.0000 0.0000
# 3 72.7348 40.4470 94.3320 0.0000 0.0000 0.0000
# 4 0.0000 0.0000 0.0000 -12.2954 0.0000 0.0000
# 5 0.0000 0.0000 0.0000 0.0000 80.5188 0.0000
# 6 0.0000 0.0000 0.0000 0.0000 0.0000 27.9743
#
#
#
# Elastic Compliance Matrix: (Units=1/GPa)
#
#
# Indices 1 2 3 4 5 6 
#
# 1 0.009217 -0.003301 -0.005691 0.000000 0.000000 0.000000
# 2 -0.003301 0.028870 -0.009833 0.000000 0.000000 0.000000
# 3 -0.005691 -0.009833 0.019205 0.000000 0.000000 0.000000
# 4 0.000000 0.000000 0.000000 -0.081331 0.000000 0.000000
# 5 0.000000 0.000000 0.000000 0.000000 0.012419 0.000000
# 6 0.000000 0.000000 0.000000 0.000000 0.000000 0.035747
#
#
# Mechanical properties :
#
#
# Convention : Reuss Voigt Hill
#
# Bulk Modulus (GPa) = 50.91455 70.17938 60.54696
# Shear Modulus (GPa) = 73.17970 29.88636 51.53303
#
# Velocity S-wave (km/s) = 6.04125 3.86072 5.06961
# Velocity P-wave (km/s) = 8.60551 7.40769 8.02897
#
# Compressibility (1/GPa) = 0.01964075
#
# Stress axis : x y z
#
# Youngs Moduli (GPa) = 108.49935 34.63836 52.06891
#
# Poissons Ratio (x) = 0.11434 0.29633
# Poissons Ratio (y) = 0.35815 0.51201
# Poissons Ratio (z) = 0.61749 0.34061
#
# Static dielectric constant tensor:
#      x y z
#    x 1.766100 0.000000 0.000000 
#    y 0.000000 1.805490 0.000000 
#    z 0.000000 0.000000 1.674700 
# 
# From -- ./inp_files/46289.got.cif
#   From: 2010.05.17/outbox.cif.g08.bks.cpg/sg66_24_cif.got.tgz:46289.got - 2010.06.03 17:51:23.
