data_PCOD9499647
_publ_section_title
;
Structure prediction by ZEFSAII (Michael W. Deem and Ramdas Pophale) SiO2 
 PCOD9499647
Probable space group: C C C M
;
_chemical_formula_sum "Si O2"
_cell_formula_units_Z 116
_cell_length_a 24.963307
_cell_length_b 8.381855
_cell_length_c 24.996632
_cell_angle_alpha 90.000000
_cell_angle_beta 90.000000
_cell_angle_gamma 90.000000
_cell_volume 5230.265774
_symmetry_space_group_name_H-M "C C C M"
_symmetry_group_IT_number 66
_symmetry_cell_setting 'orthorhombic'
loop_
_space_group_symop_operation_xyz
x,y,z
-x,-y,z
x,-y,1/2-z
-x,y,1/2-z
-x,-y,-z
x,y,-z
-x,y,1/2+z
x,-y,1/2+z
1/2+x,1/2+y,z
1/2-x,1/2-y,z
1/2+x,1/2-y,1/2-z
1/2-x,1/2+y,1/2-z
1/2-x,1/2-y,-z
1/2+x,1/2+y,-z
1/2-x,1/2+y,1/2+z
1/2+x,1/2-y,1/2+z
loop_
_atom_site_type_symbol
_atom_site_label
_atom_site_fract_x
_atom_site_fract_y
_atom_site_fract_z
Si Si1 0.190236 0.791718 0.062079
Si Si2 0.593845 0.133467 0.711168
Si Si3 0.059504 0.687394 0.437004
Si Si4 0.750000 0.750000 0.000000
Si Si5 0.400795 0.892105 0.125534
Si Si6 0.327562 0.341609 0.911248
Si Si7 0.496807 0.313961 0.346328
Si Si8 0.194066 0.162111 0.783637
O O1 0.250000 0.750000 0.081288
O O2 0.145028 0.703938 0.095810
O O3 0.182259 0.981526 0.065467
O O4 0.186725 0.741257 0.000000
O O5 0.543815 0.228573 0.687109
O O6 0.640732 0.242487 0.733995
O O7 0.571522 0.000000 0.750000
O O8 0.622209 0.025061 0.665609
O O9 0.055278 0.686473 0.500000
O O10 0.065951 0.507048 0.414763
O O11 0.111491 0.787312 0.418039
O O12 0.011489 0.778601 0.407971
O O13 0.705087 0.772422 0.048325
O O14 0.439584 0.771823 0.157910
O O15 0.311832 0.350775 0.848606
O O16 0.500000 0.500000 0.334127
O O17 0.250000 0.250000 0.772830
O O18 0.194483 0.000000 0.750000
#
# Coordination Sequence:
#
# PCOD9499647 Si02
#       8
#    16  16  16   4  16  16  16  16
#     4  11  26  41  65 108 152 193 240 293 364 443
#     4  11  26  49  73 104 136 188 245 307 371 435
#     4  11  22  41  71 102 141 190 236 292 364 435
#     4  12  24  40  78 104 148 200 242 306 364 434
#     4  11  25  43  70 101 146 184 242 307 357 439
#     4  12  24  42  71 105 146 190 248 297 365 441
#     4  11  25  46  72 103 144 182 242 304 373 438
#     4  12  28  48  75 110 152 197 246 301 373 443
#
# _framework density 22.178605999999998
#
# number of rings (size 3 to 8) (size 9 to 14) (size 15 to 20)
#    0.000    0.690    4.828    3.310    5.793    3.586 
#    0.000    0.690    0.000    0.000    0.000    0.000 
#    0.000    0.000    0.000    0.000    0.000    0.000 
#
# Total GULP energy -323801.033732 kJ/mol
# GULP energy per Si atom -5582.776444 kJ/mol
# Density = 2.212813 g / cm^3
# Si number density = 22.178606 Si / 1000 Ang^3
#
#
#
# Elastic Constant Matrix: (Units=GPa)
#
#
# Indices 1 2 3 4 5 6 
#
# 1 118.1800 60.0648 21.4716 0.0000 0.0000 0.0000
# 2 60.0648 118.8578 47.0745 0.0000 0.0000 0.0000
# 3 21.4716 47.0745 97.5645 0.0000 0.0000 0.0000
# 4 0.0000 0.0000 0.0000 21.6229 0.0000 0.0000
# 5 0.0000 0.0000 0.0000 0.0000 13.2124 0.0000
# 6 0.0000 0.0000 0.0000 0.0000 0.0000 37.6074
#
#
#
# Elastic Compliance Matrix: (Units=1/GPa)
#
#
# Indices 1 2 3 4 5 6 
#
# 1 0.011395 -0.005891 0.000335 0.000000 0.000000 0.000000
# 2 -0.005891 0.013447 -0.005191 0.000000 0.000000 0.000000
# 3 0.000335 -0.005191 0.012681 0.000000 0.000000 0.000000
# 4 0.000000 0.000000 0.000000 0.046247 0.000000 0.000000
# 5 0.000000 0.000000 0.000000 0.000000 0.075687 0.000000
# 6 0.000000 0.000000 0.000000 0.000000 0.000000 0.026591
#
#
# Mechanical properties :
#
#
# Convention : Reuss Voigt Hill
#
# Bulk Modulus (GPa) = 62.39575 65.75823 64.07699
# Shear Modulus (GPa) = 23.48691 28.22130 25.85410
#
# Velocity S-wave (km/s) = 3.25774 3.57102 3.41797
# Velocity P-wave (km/s) = 6.50730 6.83496 6.67314
#
# Compressibility (1/GPa) = 0.01602673
#
# Stress axis : x y z
#
# Youngs Moduli (GPa) = 87.75824 74.36876 78.85923
#
# Poissons Ratio (x) = 0.43810 -0.02639
# Poissons Ratio (y) = 0.51698 0.40939
# Poissons Ratio (z) = -0.02936 0.38608
#
# Static dielectric constant tensor:
#      x y z
#    x 1.854680 0.000000 0.000000 
#    y 0.000000 1.804080 0.000000 
#    z 0.000000 0.000000 1.867020 
# 
# From -- ./inp_files/66126.got.cif
#   From: 2010.05.17/outbox.cif.g08.bks.cpg/sg66_34_cif.got.tgz:66126.got - 2010.06.03 17:51:23.
