data_PCOD9499166
_publ_section_title
;
Structure prediction by ZEFSAII (Michael W. Deem and Ramdas Pophale) SiO2 
 PCOD9499166
Probable space group: C C C M
;
_chemical_formula_sum "Si O2"
_cell_formula_units_Z 120
_cell_length_a 15.418743
_cell_length_b 27.552757
_cell_length_c 14.389832
_cell_angle_alpha 90.000000
_cell_angle_beta 90.000000
_cell_angle_gamma 90.000000
_cell_volume 6113.216199
_symmetry_space_group_name_H-M "C C C M"
_symmetry_group_IT_number 66
_symmetry_cell_setting 'orthorhombic'
loop_
_space_group_symop_operation_xyz
x,y,z
-x,-y,z
x,-y,1/2-z
-x,y,1/2-z
-x,-y,-z
x,y,-z
-x,y,1/2+z
x,-y,1/2+z
1/2+x,1/2+y,z
1/2-x,1/2-y,z
1/2+x,1/2-y,1/2-z
1/2-x,1/2+y,1/2-z
1/2-x,1/2-y,-z
1/2+x,1/2+y,-z
1/2-x,1/2+y,1/2+z
1/2+x,1/2-y,1/2+z
loop_
_atom_site_type_symbol
_atom_site_label
_atom_site_fract_x
_atom_site_fract_y
_atom_site_fract_z
Si Si1 0.691489 0.402818 0.606140
Si Si2 0.524431 0.231093 0.606182
Si Si3 0.351730 0.387314 0.605421
Si Si4 0.470746 0.663438 0.386393
Si Si5 0.900335 0.003034 0.861430
Si Si6 0.186930 0.629643 0.768073
Si Si7 0.830167 0.285203 0.101190
Si Si8 0.000000 0.354672 0.250000
O O1 0.710089 0.389351 0.500000
O O2 0.604922 0.374230 0.637998
O O3 0.662459 0.459195 0.608599
O O4 0.770724 0.386414 0.671201
O O5 0.555344 0.223182 0.500000
O O6 0.557891 0.282488 0.644929
O O7 0.421421 0.241808 0.602672
O O8 0.529151 0.182228 0.666902
O O9 0.340036 0.370039 0.500000
O O10 0.435232 0.357334 0.644113
O O11 0.373206 0.443972 0.606954
O O12 0.261799 0.385225 0.659957
O O13 0.474271 0.665338 0.500000
O O14 0.899939 0.000000 0.750000
O O15 0.000000 0.000000 0.892842
O O16 0.176603 0.684984 0.803690
O O17 0.085791 0.614360 0.774511
O O18 0.750000 0.250000 0.098027
O O19 0.832679 0.312455 0.000000
#
# Coordination Sequence:
#
# PCOD9499166 Si02
#       8
#    16  16  16  16  16  16  16   8
#     4  11  23  38  57  84 123 162 190 221 273 346
#     4   9  18  34  54  77 109 148 191 235 285 339
#     4  11  21  35  61  90 119 152 184 228 284 344
#     4   9  19  34  54  86 123 155 184 222 273 341
#     4  11  21  37  59  91 128 160 185 215 270 348
#     4  11  23  38  56  81 109 146 202 248 289 338
#     4   9  17  32  54  81 112 143 185 245 300 341
#     4  10  24  42  58  77 104 149 198 254 308 320
#
# _framework density 19.629601999999998
#
# number of rings (size 3 to 8) (size 9 to 14) (size 15 to 20)
#    0.000    1.867    2.667    1.600    0.000    7.467 
#    0.000    0.000    0.000    4.400    0.000    1.867 
#    0.000    0.000    0.000    0.000    0.000    0.000 
#
# Total GULP energy -334152.573508 kJ/mol
# GULP energy per Si atom -5569.209558 kJ/mol
# Density = 1.958492 g / cm^3
# Si number density = 19.629602 Si / 1000 Ang^3
#
#
#
# Elastic Constant Matrix: (Units=GPa)
#
#
# Indices 1 2 3 4 5 6 
#
# 1 107.8357 12.3784 18.1113 0.0000 0.0000 0.0000
# 2 12.3784 47.9731 1.0889 0.0000 0.0000 0.0000
# 3 18.1113 1.0889 86.5688 0.0000 0.0000 0.0000
# 4 0.0000 0.0000 0.0000 20.2183 0.0000 0.0000
# 5 0.0000 0.0000 0.0000 0.0000 4.2875 0.0000
# 6 0.0000 0.0000 0.0000 0.0000 0.0000 16.5412
#
#
#
# Elastic Compliance Matrix: (Units=1/GPa)
#
#
# Indices 1 2 3 4 5 6 
#
# 1 0.009904 -0.002509 -0.002041 0.000000 0.000000 0.000000
# 2 -0.002509 0.021487 0.000255 0.000000 0.000000 0.000000
# 3 -0.002041 0.000255 0.011975 0.000000 0.000000 0.000000
# 4 0.000000 0.000000 0.000000 0.049460 0.000000 0.000000
# 5 0.000000 0.000000 0.000000 0.000000 0.233237 0.000000
# 6 0.000000 0.000000 0.000000 0.000000 0.000000 0.060455
#
#
# Mechanical properties :
#
#
# Convention : Reuss Voigt Hill
#
# Bulk Modulus (GPa) = 28.75553 33.94830 31.35192
# Shear Modulus (GPa) = 12.29405 22.26267 17.27836
#
# Velocity S-wave (km/s) = 2.50532 3.37135 2.97007
# Velocity P-wave (km/s) = 4.80101 5.69971 5.26955
#
# Compressibility (1/GPa) = 0.03477592
#
# Stress axis : x y z
#
# Youngs Moduli (GPa) = 100.96824 46.54051 83.50586
#
# Poissons Ratio (x) = 0.11678 0.17039
# Poissons Ratio (y) = 0.25335 -0.02127
# Poissons Ratio (z) = 0.20603 -0.01185
#
# Static dielectric constant tensor:
#      x y z
#    x 1.784880 0.000000 0.000000 
#    y 0.000000 1.737450 0.000000 
#    z 0.000000 0.000000 1.792780 
# 
# From -- ./inp_files/29070.got.cif
#   From: 2010.05.17/outbox.cif.g08.bks.cpg/sg66_15_cif.got.tgz:29070.got - 2010.06.03 17:51:23.
