data_PCOD9499553
_publ_section_title
;
Structure prediction by ZEFSAII (Michael W. Deem and Ramdas Pophale) SiO2 
 PCOD9499553
Probable space group: C C C M
;
_chemical_formula_sum "Si O2"
_cell_formula_units_Z 64
_cell_length_a 27.030770
_cell_length_b 8.717971
_cell_length_c 14.163000
_cell_angle_alpha 90.000000
_cell_angle_beta 90.000000
_cell_angle_gamma 90.000000
_cell_volume 3337.560081
_symmetry_space_group_name_H-M "C C C M"
_symmetry_group_IT_number 66
_symmetry_cell_setting 'orthorhombic'
loop_
_space_group_symop_operation_xyz
x,y,z
-x,-y,z
x,-y,1/2-z
-x,y,1/2-z
-x,-y,-z
x,y,-z
-x,y,1/2+z
x,-y,1/2+z
1/2+x,1/2+y,z
1/2-x,1/2-y,z
1/2+x,1/2-y,1/2-z
1/2-x,1/2+y,1/2-z
1/2-x,1/2-y,-z
1/2+x,1/2+y,-z
1/2-x,1/2+y,1/2+z
1/2+x,1/2-y,1/2+z
loop_
_atom_site_type_symbol
_atom_site_label
_atom_site_fract_x
_atom_site_fract_y
_atom_site_fract_z
Si Si1 0.954700 0.110269 0.392199
Si Si2 0.803188 0.191509 0.613559
Si Si3 0.891639 0.675644 0.772811
Si Si4 0.858148 0.106178 0.106606
O O1 0.963494 0.168093 0.500000
O O2 0.939500 0.240843 0.318174
O O3 0.906506 0.002107 0.395745
O O4 0.000000 0.000000 0.366026
O O5 0.804510 0.198696 0.500000
O O6 0.750000 0.250000 0.646970
O O7 0.847023 0.297123 0.653268
O O8 0.815489 0.013642 0.637161
O O9 0.900915 0.500000 0.750000
O O10 0.871473 0.763118 0.680227
O O11 0.848375 0.161718 0.000000
#
# Coordination Sequence:
#
# PCOD9499553 Si02
#       4
#    16  16  16  16
#     4   9  18  36  60  79 101 141 189 233 280 336
#     4   9  18  35  58  81 108 147 195 239 278 331
#     4  11  22  33  53  84 117 148 181 232 289 345
#     4   9  19  35  54  77 108 148 187 224 272 329
#
# _framework density 19.175684
#
# number of rings (size 3 to 8) (size 9 to 14) (size 15 to 20)
#    0.000    2.500    0.000    5.250    0.000    6.000 
#    0.000    2.500    0.000    9.750    0.000    0.000 
#    0.000    0.000    0.000    0.000    0.000    0.000 
#
# Total GULP energy -178474.024312 kJ/mol
# GULP energy per Si atom -5577.313260 kJ/mol
# Density = 1.913204 g / cm^3
# Si number density = 19.175684 Si / 1000 Ang^3
#
#
#
# Elastic Constant Matrix: (Units=GPa)
#
#
# Indices 1 2 3 4 5 6 
#
# 1 100.9304 55.6139 35.5718 0.0000 0.0000 0.0000
# 2 55.6139 147.9447 75.1495 0.0000 0.0000 0.0000
# 3 35.5718 75.1495 106.2662 0.0000 0.0000 0.0000
# 4 0.0000 0.0000 0.0000 37.3068 0.0000 0.0000
# 5 0.0000 0.0000 0.0000 0.0000 15.5459 0.0000
# 6 0.0000 0.0000 0.0000 0.0000 0.0000 22.3550
#
#
#
# Elastic Compliance Matrix: (Units=1/GPa)
#
#
# Indices 1 2 3 4 5 6 
#
# 1 0.012620 -0.004055 -0.001357 0.000000 0.000000 0.000000
# 2 -0.004055 0.011851 -0.007024 0.000000 0.000000 0.000000
# 3 -0.001357 -0.007024 0.014832 0.000000 0.000000 0.000000
# 4 0.000000 0.000000 0.000000 0.026805 0.000000 0.000000
# 5 0.000000 0.000000 0.000000 0.000000 0.064326 0.000000
# 6 0.000000 0.000000 0.000000 0.000000 0.000000 0.044733
#
#
# Mechanical properties :
#
#
# Convention : Reuss Voigt Hill
#
# Bulk Modulus (GPa) = 69.28994 76.42350 72.85672
# Shear Modulus (GPa) = 24.40833 27.62862 26.01847
#
# Velocity S-wave (km/s) = 3.57161 3.79993 3.68754
# Velocity P-wave (km/s) = 7.29529 7.69373 7.49716
#
# Compressibility (1/GPa) = 0.01443211
#
# Stress axis : x y z
#
# Youngs Moduli (GPa) = 79.23723 84.37950 67.42353
#
# Poissons Ratio (x) = 0.34214 0.09150
# Poissons Ratio (y) = 0.32129 0.47356
# Poissons Ratio (z) = 0.10753 0.59265
#
# Static dielectric constant tensor:
#      x y z
#    x 1.687310 0.000000 0.000000 
#    y 0.000000 1.646580 0.000000 
#    z 0.000000 0.000000 1.731570 
# 
# From -- ./inp_files/24136.got.cif
#   From: 2010.05.17/outbox.cif.g08.bks.cpg/sg66_13_cif.got.tgz:24136.got - 2010.06.03 17:51:23.
