data_PCOD9499349
_publ_section_title
;
Structure prediction by ZEFSAII (Michael W. Deem and Ramdas Pophale) SiO2 
 PCOD9499349
Probable space group: C C C M
;
_chemical_formula_sum "Si O2"
_cell_formula_units_Z 72
_cell_length_a 27.347363
_cell_length_b 9.564095
_cell_length_c 14.850286
_cell_angle_alpha 90.000000
_cell_angle_beta 90.000000
_cell_angle_gamma 90.000000
_cell_volume 3884.133553
_symmetry_space_group_name_H-M "C C C M"
_symmetry_group_IT_number 66
_symmetry_cell_setting 'orthorhombic'
loop_
_space_group_symop_operation_xyz
x,y,z
-x,-y,z
x,-y,1/2-z
-x,y,1/2-z
-x,-y,-z
x,y,-z
-x,y,1/2+z
x,-y,1/2+z
1/2+x,1/2+y,z
1/2-x,1/2-y,z
1/2+x,1/2-y,1/2-z
1/2-x,1/2+y,1/2-z
1/2-x,1/2-y,-z
1/2+x,1/2+y,-z
1/2-x,1/2+y,1/2+z
1/2+x,1/2-y,1/2+z
loop_
_atom_site_type_symbol
_atom_site_label
_atom_site_fract_x
_atom_site_fract_y
_atom_site_fract_z
Si Si1 0.802397 0.928815 0.654934
Si Si2 0.123839 0.999358 0.500000
Si Si3 0.692242 0.109890 0.892843
Si Si4 0.443732 0.772722 0.000000
Si Si5 0.588726 0.999029 0.354859
Si Si6 0.058245 0.274704 0.000000
O O1 0.746063 0.949819 0.625011
O O2 0.810597 0.761260 0.654453
O O3 0.809575 0.000000 0.750000
O O4 0.840429 0.992626 0.585138
O O5 0.091130 0.862129 0.500000
O O6 0.089263 0.135426 0.500000
O O7 0.647643 0.013838 0.861766
O O8 0.687238 0.135147 0.000000
O O9 0.431146 0.866586 0.087892
O O10 0.500989 0.740674 0.000000
O O11 0.574305 0.000000 0.250000
O O12 0.570513 0.131438 0.412147
#
# Coordination Sequence:
#
# PCOD9499349 Si02
#       6
#    16   8  16   8  16   8
#     4  11  22  37  64  93 127 167 207 245 304 376
#     4  12  23  43  64  92 127 167 205 261 315 372
#     4  11  19  42  66  89 126 173 206 242 308 378
#     4  11  23  46  65  87 121 172 206 261 324 367
#     4  11  22  41  66  94 125 164 206 257 313 373
#     4  11  27  40  64  95 122 153 224 268 307 367
#
# _framework density 18.536951999999999
#
# number of rings (size 3 to 8) (size 9 to 14) (size 15 to 20)
#    0.000    0.889    6.667    3.000    3.111    1.778 
#    0.000    1.111    0.000    4.000    0.000    0.000 
#    0.000    0.000    0.000    0.000    0.000    0.000 
#
# Total GULP energy -201229.301737 kJ/mol
# GULP energy per Si atom -5589.702826 kJ/mol
# Density = 1.849476 g / cm^3
# Si number density = 18.536952 Si / 1000 Ang^3
#
#
#
# Elastic Constant Matrix: (Units=GPa)
#
#
# Indices 1 2 3 4 5 6 
#
# 1 141.1220 34.6907 54.8747 0.0000 0.0000 0.0000
# 2 34.6907 71.4248 71.2553 0.0000 0.0000 0.0000
# 3 54.8747 71.2553 185.5060 0.0000 0.0000 0.0000
# 4 0.0000 0.0000 0.0000 94.0731 0.0000 0.0000
# 5 0.0000 0.0000 0.0000 0.0000 -13.6227 0.0000
# 6 0.0000 0.0000 0.0000 0.0000 0.0000 318.3527
#
#
#
# Elastic Compliance Matrix: (Units=1/GPa)
#
#
# Indices 1 2 3 4 5 6 
#
# 1 0.008286 -0.002560 -0.001468 0.000000 0.000000 0.000000
# 2 -0.002560 0.023490 -0.008266 0.000000 0.000000 0.000000
# 3 -0.001468 -0.008266 0.009000 0.000000 0.000000 0.000000
# 4 0.000000 0.000000 0.000000 0.010630 0.000000 0.000000
# 5 0.000000 0.000000 0.000000 0.000000 -0.073407 0.000000
# 6 0.000000 0.000000 0.000000 0.000000 0.000000 0.003141
#
#
# Mechanical properties :
#
#
# Convention : Reuss Voigt Hill
#
# Bulk Modulus (GPa) = 61.77043 79.96601 70.86822
# Shear Modulus (GPa) = 449.49579 95.57611 272.53595
#
# Velocity S-wave (km/s) = 15.58887 7.18830 12.13846
# Velocity P-wave (km/s) = 18.90535 10.58905 15.32221
#
# Compressibility (1/GPa) = 0.01618898
#
# Stress axis : x y z
#
# Youngs Moduli (GPa) = 120.68324 42.57094 111.11481
#
# Poissons Ratio (x) = 0.10900 0.16308
# Poissons Ratio (y) = 0.30899 0.91842
# Poissons Ratio (z) = 0.17712 0.35187
#
# Static dielectric constant tensor:
#      x y z
#    x 1.644580 0.000000 0.000000 
#    y 0.000000 1.613410 0.000000 
#    z 0.000000 0.000000 1.630150 
# 
# From -- ./inp_files/24525.got.cif
#   From: 2010.05.17/outbox.cif.g08.bks.cpg/sg66_13_cif.got.tgz:24525.got - 2010.06.03 17:51:23.
