data_PCOD9499057
_publ_section_title
;
Structure prediction by ZEFSAII (Michael W. Deem and Ramdas Pophale) SiO2 
 PCOD9499057
Probable space group: C C C M
;
_chemical_formula_sum "Si O2"
_cell_formula_units_Z 96
_cell_length_a 14.929427
_cell_length_b 19.220074
_cell_length_c 14.356065
_cell_angle_alpha 90.000000
_cell_angle_beta 90.000000
_cell_angle_gamma 90.000000
_cell_volume 4119.396646
_symmetry_space_group_name_H-M "C C C M"
_symmetry_group_IT_number 66
_symmetry_cell_setting 'orthorhombic'
loop_
_space_group_symop_operation_xyz
x,y,z
-x,-y,z
x,-y,1/2-z
-x,y,1/2-z
-x,-y,-z
x,y,-z
-x,y,1/2+z
x,-y,1/2+z
1/2+x,1/2+y,z
1/2-x,1/2-y,z
1/2+x,1/2-y,1/2-z
1/2-x,1/2+y,1/2-z
1/2-x,1/2-y,-z
1/2+x,1/2+y,-z
1/2-x,1/2+y,1/2+z
1/2+x,1/2-y,1/2+z
loop_
_atom_site_type_symbol
_atom_site_label
_atom_site_fract_x
_atom_site_fract_y
_atom_site_fract_z
Si Si1 0.142586 0.310091 0.605139
Si Si2 0.585631 0.960684 0.390305
Si Si3 0.473363 0.725737 0.602856
Si Si4 0.180881 0.694101 0.308460
Si Si5 0.450311 0.433552 0.848795
Si Si6 0.246610 0.449226 0.112197
O O1 0.182561 0.314290 0.500000
O O2 0.079839 0.378182 0.616152
O O3 0.200927 0.313943 0.698043
O O4 0.078122 0.243724 0.610226
O O5 0.587587 0.978139 0.500000
O O6 0.500000 0.000000 0.350532
O O7 0.681858 0.987889 0.357162
O O8 0.444501 0.750257 0.500000
O O9 0.415103 0.770072 0.675331
O O10 0.458312 0.643418 0.608778
O O11 0.250000 0.750000 0.348898
O O12 0.194707 0.620893 0.358297
O O13 0.500000 0.500000 0.894543
O O14 0.500000 0.426668 0.750000
O O15 0.344947 0.449667 0.843732
O O16 0.259581 0.450450 0.000000
#
# Coordination Sequence:
#
# PCOD9499057 Si02
#       6
#    16  16  16  16  16  16
#     4  10  23  42  64  93 133 180 221 270 341 422
#     4   9  19  40  69 102 140 177 220 278 349 424
#     4  11  23  43  69  98 133 174 230 285 347 412
#     4  12  24  39  67  96 132 168 221 291 343 400
#     4  11  25  43  66  94 135 183 235 289 343 405
#     4  11  24  43  70 105 139 179 232 288 348 411
#
# _framework density 23.304383000000001
#
# number of rings (size 3 to 8) (size 9 to 14) (size 15 to 20)
#    0.000    1.333    1.667    3.500    0.000    8.333 
#    0.000    0.833    0.000    0.000    0.000    0.000 
#    0.000    0.000    0.000    0.000    0.000    0.000 
#
# Total GULP energy -268161.800442 kJ/mol
# GULP energy per Si atom -5586.704176 kJ/mol
# Density = 2.325134 g / cm^3
# Si number density = 23.304383 Si / 1000 Ang^3
#
#
#
# Elastic Constant Matrix: (Units=GPa)
#
#
# Indices 1 2 3 4 5 6 
#
# 1 97.3013 40.8516 4.6987 0.0000 0.0000 0.0000
# 2 40.8516 99.4443 -5.9348 0.0000 0.0000 0.0000
# 3 4.6987 -5.9348 114.5950 0.0000 0.0000 0.0000
# 4 0.0000 0.0000 0.0000 25.3094 0.0000 0.0000
# 5 0.0000 0.0000 0.0000 0.0000 16.6048 0.0000
# 6 0.0000 0.0000 0.0000 0.0000 0.0000 44.7831
#
#
#
# Elastic Compliance Matrix: (Units=1/GPa)
#
#
# Indices 1 2 3 4 5 6 
#
# 1 0.012488 -0.005177 -0.000780 0.000000 0.000000 0.000000
# 2 -0.005177 0.012233 0.000846 0.000000 0.000000 0.000000
# 3 -0.000780 0.000846 0.008802 0.000000 0.000000 0.000000
# 4 0.000000 0.000000 0.000000 0.039511 0.000000 0.000000
# 5 0.000000 0.000000 0.000000 0.000000 0.060224 0.000000
# 6 0.000000 0.000000 0.000000 0.000000 0.000000 0.022330
#
#
# Mechanical properties :
#
#
# Convention : Reuss Voigt Hill
#
# Bulk Modulus (GPa) = 42.91607 43.39685 43.15646
# Shear Modulus (GPa) = 28.80556 35.45447 32.13001
#
# Velocity S-wave (km/s) = 3.51958 3.90470 3.71713
# Velocity P-wave (km/s) = 5.91371 6.24428 6.08124
#
# Compressibility (1/GPa) = 0.02330129
#
# Stress axis : x y z
#
# Youngs Moduli (GPa) = 80.07370 81.74617 113.60826
#
# Poissons Ratio (x) = 0.42319 0.08863
# Poissons Ratio (y) = 0.41453 -0.09609
# Poissons Ratio (z) = 0.06247 -0.06914
#
# Static dielectric constant tensor:
#      x y z
#    x 1.860600 0.000000 0.000000 
#    y 0.000000 1.883430 0.000000 
#    z 0.000000 0.000000 1.960800 
# 
# From -- ./inp_files/28325.got.cif
#   From: 2010.05.17/outbox.cif.g08.bks.cpg/sg66_15_cif.got.tgz:28325.got - 2010.06.03 17:51:23.
