data_PCOD9499414
_publ_section_title
;
Structure prediction by ZEFSAII (Michael W. Deem and Ramdas Pophale) SiO2 
 PCOD9499414
Probable space group: C C C M
;
_chemical_formula_sum "Si O2"
_cell_formula_units_Z 88
_cell_length_a 11.889567
_cell_length_b 15.796261
_cell_length_c 21.974637
_cell_angle_alpha 90.000000
_cell_angle_beta 90.000000
_cell_angle_gamma 90.000000
_cell_volume 4127.072034
_symmetry_space_group_name_H-M "C C C M"
_symmetry_group_IT_number 66
_symmetry_cell_setting 'orthorhombic'
loop_
_space_group_symop_operation_xyz
x,y,z
-x,-y,z
x,-y,1/2-z
-x,y,1/2-z
-x,-y,-z
x,y,-z
-x,y,1/2+z
x,-y,1/2+z
1/2+x,1/2+y,z
1/2-x,1/2-y,z
1/2+x,1/2-y,1/2-z
1/2-x,1/2+y,1/2-z
1/2-x,1/2-y,-z
1/2+x,1/2+y,-z
1/2-x,1/2+y,1/2+z
1/2+x,1/2-y,1/2+z
loop_
_atom_site_type_symbol
_atom_site_label
_atom_site_fract_x
_atom_site_fract_y
_atom_site_fract_z
Si Si1 0.618576 0.220913 0.000000
Si Si2 0.384671 0.545155 0.000000
Si Si3 0.029471 0.836768 0.100825
Si Si4 0.209900 0.153173 0.697762
Si Si5 0.627195 0.003422 0.858489
Si Si6 0.647884 0.978174 0.500000
Si Si7 0.208523 0.153433 0.841061
O O1 0.750000 0.250000 0.000000
O O2 0.550623 0.252501 0.060147
O O3 0.632313 0.122078 0.000000
O O4 0.500000 0.500000 0.000000
O O5 0.394240 0.601329 0.059606
O O6 0.276116 0.490013 0.000000
O O7 0.090920 0.845405 0.164313
O O8 0.899769 0.858019 0.114613
O O9 0.250000 0.250000 0.687630
O O10 0.297792 0.082626 0.669421
O O11 0.185724 0.142422 0.769076
O O12 0.612285 0.002523 0.931622
O O13 0.500000 0.000000 0.831951
O O14 0.696376 0.917137 0.849507
O O15 0.250000 0.250000 0.850422
#
# Coordination Sequence:
#
# PCOD9499414 Si02
#       7
#     8   8  16  16  16   8  16
#     4  11  20  39  70 111 135 184 238 289 367 432
#     4  11  21  37  66  98 134 181 222 292 359 411
#     4  11  22  41  69 100 141 177 240 299 350 428
#     4  11  24  45  75 102 138 190 246 293 355 431
#     4  12  27  48  74 106 150 186 243 300 361 441
#     4  12  22  43  69 105 140 183 240 290 368 431
#     4  11  28  46  66 105 146 195 235 294 370 420
#
# _framework density 21.322623
#
# number of rings (size 3 to 8) (size 9 to 14) (size 15 to 20)
#    0.000    0.727    3.636    4.091    5.091    2.182 
#    0.000    4.091    0.000    0.000    0.000    0.000 
#    0.000    0.000    0.000    0.000    0.000    0.000 
#
# Total GULP energy -244947.479468 kJ/mol
# GULP energy per Si atom -5566.988170 kJ/mol
# Density = 2.127409 g / cm^3
# Si number density = 21.322623 Si / 1000 Ang^3
#
#
#
# Elastic Constant Matrix: (Units=GPa)
#
#
# Indices 1 2 3 4 5 6 
#
# 1 154.2048 40.7388 39.4791 0.0000 0.0000 0.0000
# 2 40.7388 93.7679 35.7941 0.0000 0.0000 0.0000
# 3 39.4791 35.7941 92.8668 0.0000 0.0000 0.0000
# 4 0.0000 0.0000 0.0000 676.4854 0.0000 0.0000
# 5 0.0000 0.0000 0.0000 0.0000 60.1362 0.0000
# 6 0.0000 0.0000 0.0000 0.0000 0.0000 23.4410
#
#
#
# Elastic Compliance Matrix: (Units=1/GPa)
#
#
# Indices 1 2 3 4 5 6 
#
# 1 0.007735 -0.002469 -0.002337 0.000000 0.000000 0.000000
# 2 -0.002469 0.013292 -0.004074 0.000000 0.000000 0.000000
# 3 -0.002337 -0.004074 0.013332 0.000000 0.000000 0.000000
# 4 0.000000 0.000000 0.000000 0.001478 0.000000 0.000000
# 5 0.000000 0.000000 0.000000 0.000000 0.016629 0.000000
# 6 0.000000 0.000000 0.000000 0.000000 0.000000 0.042660
#
#
# Mechanical properties :
#
#
# Convention : Reuss Voigt Hill
#
# Bulk Modulus (GPa) = 60.23888 63.65151 61.94519
# Shear Modulus (GPa) = 42.22289 167.00102 104.61196
#
# Velocity S-wave (km/s) = 4.45476 8.85952 7.01199
# Velocity P-wave (km/s) = 7.40084 11.60048 9.72994
#
# Compressibility (1/GPa) = 0.01660058
#
# Stress axis : x y z
#
# Youngs Moduli (GPa) = 129.27647 75.23155 75.00877
#
# Poissons Ratio (x) = 0.18572 0.17529
# Poissons Ratio (y) = 0.31914 0.30557
# Poissons Ratio (z) = 0.30211 0.30648
#
# Static dielectric constant tensor:
#      x y z
#    x 1.256270 0.000000 0.000000 
#    y 0.000000 1.735210 0.000000 
#    z 0.000000 0.000000 0.763810 
# 
# From -- ./inp_files/48584.got.cif
#   From: 2010.05.17/outbox.cif.g08.bks.cpg/sg66_25_cif.got.tgz:48584.got - 2010.06.03 17:51:23.
