data_PCOD9499496
_publ_section_title
;
Structure prediction by ZEFSAII (Michael W. Deem and Ramdas Pophale) SiO2 
 PCOD9499496
Probable space group: C C C M
;
_chemical_formula_sum "Si O2"
_cell_formula_units_Z 112
_cell_length_a 11.590609
_cell_length_b 20.034046
_cell_length_c 27.258883
_cell_angle_alpha 90.000000
_cell_angle_beta 90.000000
_cell_angle_gamma 90.000000
_cell_volume 6329.697826
_symmetry_space_group_name_H-M "C C C M"
_symmetry_group_IT_number 66
_symmetry_cell_setting 'orthorhombic'
loop_
_space_group_symop_operation_xyz
x,y,z
-x,-y,z
x,-y,1/2-z
-x,y,1/2-z
-x,-y,-z
x,y,-z
-x,y,1/2+z
x,-y,1/2+z
1/2+x,1/2+y,z
1/2-x,1/2-y,z
1/2+x,1/2-y,1/2-z
1/2-x,1/2+y,1/2-z
1/2-x,1/2-y,-z
1/2+x,1/2+y,-z
1/2-x,1/2+y,1/2+z
1/2+x,1/2-y,1/2+z
loop_
_atom_site_type_symbol
_atom_site_label
_atom_site_fract_x
_atom_site_fract_y
_atom_site_fract_z
Si Si1 0.567829 0.287417 0.056554
Si Si2 0.804001 0.644274 0.443268
Si Si3 0.460466 0.924659 0.864588
Si Si4 0.954956 0.928332 0.694467
Si Si5 0.410578 0.305178 0.147627
Si Si6 0.345492 0.836421 0.674177
Si Si7 0.695030 0.925132 0.728993
O O1 0.670458 0.339848 0.069048
O O2 0.629130 0.215155 0.059279
O O3 0.463864 0.290057 0.094545
O O4 0.533709 0.298505 0.000000
O O5 0.809001 0.621720 0.500000
O O6 0.869274 0.596799 0.405713
O O7 0.573007 0.878964 0.861201
O O8 0.402555 0.915522 0.811372
O O9 0.500000 0.000000 0.871233
O O10 0.817570 0.921385 0.700750
O O11 0.000000 0.927697 0.750000
O O12 0.011779 0.864629 0.668989
O O13 0.000000 0.000000 0.673565
O O14 0.405535 0.236305 0.178941
O O15 0.278286 0.327934 0.148578
O O16 0.321171 0.873770 0.725886
O O17 0.687174 0.000000 0.750000
#
# Coordination Sequence:
#
# PCOD9499496 Si02
#       7
#    16  16  16  16  16  16  16
#     4   9  18  38  67  89 114 151 194 248 306 358
#     4   9  19  39  63  91 118 148 197 249 300 359
#     4  12  24  37  61  86 120 165 200 240 295 357
#     4  11  21  38  62  84 114 156 205 238 294 352
#     4  11  22  41  60  87 122 154 197 257 295 346
#     4  11  24  39  54  86 126 158 200 242 294 351
#     4  12  22  40  58  83 118 166 205 239 287 358
#
# _framework density 17.694367
#
# number of rings (size 3 to 8) (size 9 to 14) (size 15 to 20)
#    0.000    1.286    5.714    2.143    0.000    1.429 
#    0.000    2.143    0.000    0.429    0.000    0.000 
#    0.000    0.000    0.000    0.000    0.000    0.000 
#
# Total GULP energy -312429.235645 kJ/mol
# GULP energy per Si atom -5579.093494 kJ/mol
# Density = 1.765409 g / cm^3
# Si number density = 17.694367 Si / 1000 Ang^3
#
#
#
# Elastic Constant Matrix: (Units=GPa)
#
#
# Indices 1 2 3 4 5 6 
#
# 1 74.7219 47.1014 59.2338 0.0000 0.0000 0.0000
# 2 47.1014 103.5570 50.3570 0.0000 0.0000 0.0000
# 3 59.2338 50.3570 83.8119 0.0000 0.0000 0.0000
# 4 0.0000 0.0000 0.0000 -54.2597 0.0000 0.0000
# 5 0.0000 0.0000 0.0000 0.0000 19.2024 0.0000
# 6 0.0000 0.0000 0.0000 0.0000 0.0000 32.0991
#
#
#
# Elastic Compliance Matrix: (Units=1/GPa)
#
#
# Indices 1 2 3 4 5 6 
#
# 1 0.032205 -0.005058 -0.019722 0.000000 0.000000 0.000000
# 2 -0.005058 0.014437 -0.005099 0.000000 0.000000 0.000000
# 3 -0.019722 -0.005099 0.028934 0.000000 0.000000 0.000000
# 4 0.000000 0.000000 0.000000 -0.018430 0.000000 0.000000
# 5 0.000000 0.000000 0.000000 0.000000 0.052077 0.000000
# 6 0.000000 0.000000 0.000000 0.000000 0.000000 0.031154
#
#
# Mechanical properties :
#
#
# Convention : Reuss Voigt Hill
#
# Bulk Modulus (GPa) = 63.22223 63.94169 63.58196
# Shear Modulus (GPa) = 24.34183 6.43493 15.38838
#
# Velocity S-wave (km/s) = 3.71304 1.90908 2.95223
# Velocity P-wave (km/s) = 7.36138 6.40895 6.90162
#
# Compressibility (1/GPa) = 0.01581722
#
# Stress axis : x y z
#
# Youngs Moduli (GPa) = 31.05074 69.26778 34.56151
#
# Poissons Ratio (x) = 0.35034 0.68163
# Poissons Ratio (y) = 0.15705 0.17625
# Poissons Ratio (z) = 0.61239 0.35323
#
# Static dielectric constant tensor:
#      x y z
#    x 1.609860 0.000000 0.000000 
#    y 0.000000 1.636350 0.000000 
#    z 0.000000 0.000000 1.569840 
# 
# From -- ./inp_files/57165.got.cif
#   From: 2010.05.17/outbox.cif.g08.bks.cpg/sg66_29_cif.got.tgz:57165.got - 2010.06.03 17:51:23.
