data_PCOD9499898
_publ_section_title
;
Structure prediction by ZEFSAII (Michael W. Deem and Ramdas Pophale) SiO2 
 PCOD9499898
Probable space group: C C C M
;
_chemical_formula_sum "Si O2"
_cell_formula_units_Z 60
_cell_length_a 11.129212
_cell_length_b 15.792748
_cell_length_c 14.505687
_cell_angle_alpha 90.000000
_cell_angle_beta 90.000000
_cell_angle_gamma 90.000000
_cell_volume 2549.531740
_symmetry_space_group_name_H-M "C C C M"
_symmetry_group_IT_number 66
_symmetry_cell_setting 'orthorhombic'
loop_
_space_group_symop_operation_xyz
x,y,z
-x,-y,z
x,-y,1/2-z
-x,y,1/2-z
-x,-y,-z
x,y,-z
-x,y,1/2+z
x,-y,1/2+z
1/2+x,1/2+y,z
1/2-x,1/2-y,z
1/2+x,1/2-y,1/2-z
1/2-x,1/2+y,1/2-z
1/2-x,1/2-y,-z
1/2+x,1/2+y,-z
1/2-x,1/2+y,1/2+z
1/2+x,1/2-y,1/2+z
loop_
_atom_site_type_symbol
_atom_site_label
_atom_site_fract_x
_atom_site_fract_y
_atom_site_fract_z
Si Si1 0.717131 0.500000 0.750000
Si Si2 0.929702 0.912753 0.598464
Si Si3 0.519294 0.764454 0.360946
Si Si4 0.250000 0.750000 0.000000
Si Si5 0.110014 0.565673 0.400893
O O1 0.646882 0.568980 0.688944
O O2 0.797529 0.449517 0.679019
O O3 0.862092 0.894662 0.500000
O O4 0.013926 0.832298 0.613778
O O5 0.000000 0.000000 0.589465
O O6 0.500000 0.771419 0.250000
O O7 0.647626 0.772197 0.415648
O O8 0.439539 0.840139 0.398580
O O9 0.166757 0.546925 0.500000
O O10 0.000000 0.500000 0.388523
#
# Coordination Sequence:
#
# PCOD9499898 Si02
#       5
#     8  16  16   4  16
#     4  12  24  42  76 108 140 196 240 312 392 432
#     4  11  25  48  72 102 145 196 253 307 371 460
#     4  12  26  46  76 110 147 198 255 303 371 470
#     4  12  28  48  80 112 152 210 248 308 400 440
#     4  11  25  44  65 104 149 181 236 307 365 448
#
# _framework density 23.533733000000002
#
# number of rings (size 3 to 8) (size 9 to 14) (size 15 to 20)
#    0.000    0.533    2.667    4.800    7.467    0.000 
#    0.000    0.000    0.000    7.200    0.000    0.000 
#    0.000    0.000    0.000    0.000    0.000    0.000 
#
# Total GULP energy -167105.344512 kJ/mol
# GULP energy per Si atom -5570.178150 kJ/mol
# Density = 2.348017 g / cm^3
# Si number density = 23.533733 Si / 1000 Ang^3
#
#
#
# Elastic Constant Matrix: (Units=GPa)
#
#
# Indices 1 2 3 4 5 6 
#
# 1 56.6578 23.6134 65.1833 0.0000 0.0000 0.0000
# 2 23.6134 154.4444 36.8335 0.0000 0.0000 0.0000
# 3 65.1833 36.8335 246.2619 0.0000 0.0000 0.0000
# 4 0.0000 0.0000 0.0000 36.9638 0.0000 0.0000
# 5 0.0000 0.0000 0.0000 0.0000 -20.7804 0.0000
# 6 0.0000 0.0000 0.0000 0.0000 0.0000 18.6720
#
#
#
# Elastic Compliance Matrix: (Units=1/GPa)
#
#
# Indices 1 2 3 4 5 6 
#
# 1 0.026237 -0.002442 -0.006579 0.000000 0.000000 0.000000
# 2 -0.002442 0.006942 -0.000392 0.000000 0.000000 0.000000
# 3 -0.006579 -0.000392 0.005861 0.000000 0.000000 0.000000
# 4 0.000000 0.000000 0.000000 0.027053 0.000000 0.000000
# 5 0.000000 0.000000 0.000000 0.000000 -0.048122 0.000000
# 6 0.000000 0.000000 0.000000 0.000000 0.000000 0.053556
#
#
# Mechanical properties :
#
#
# Convention : Reuss Voigt Hill
#
# Bulk Modulus (GPa) = 49.47425 78.73606 64.10515
# Shear Modulus (GPa) = 51.49771 29.08668 40.29219
#
# Velocity S-wave (km/s) = 4.68295 3.51943 4.14225
# Velocity P-wave (km/s) = 7.09284 7.07421 7.08353
#
# Compressibility (1/GPa) = 0.02021254
#
# Stress axis : x y z
#
# Youngs Moduli (GPa) = 38.11383 144.05742 170.62396
#
# Poissons Ratio (x) = 0.35184 1.12261
# Poissons Ratio (y) = 0.09309 0.06685
# Poissons Ratio (z) = 0.25077 0.05644
#
# Static dielectric constant tensor:
#      x y z
#    x 1.936910 0.000000 0.000000 
#    y 0.000000 12.135700 0.000000 
#    z 0.000000 0.000000 2.048930 
# 
# From -- ./inp_files/25669.got.cif
#   From: 2010.05.17/outbox.cif.g08.bks.cpg/sg66_13_cif.got.tgz:25669.got - 2010.06.03 17:51:23.
