data_PCOD9499325
_publ_section_title
;
Structure prediction by ZEFSAII (Michael W. Deem and Ramdas Pophale) SiO2 
 PCOD9499325
Probable space group: C C C M
;
_chemical_formula_sum "Si O2"
_cell_formula_units_Z 128
_cell_length_a 20.365683
_cell_length_b 18.781783
_cell_length_c 22.657051
_cell_angle_alpha 90.000000
_cell_angle_beta 90.000000
_cell_angle_gamma 90.000000
_cell_volume 8666.408982
_symmetry_space_group_name_H-M "C C C M"
_symmetry_group_IT_number 66
_symmetry_cell_setting 'orthorhombic'
loop_
_space_group_symop_operation_xyz
x,y,z
-x,-y,z
x,-y,1/2-z
-x,y,1/2-z
-x,-y,-z
x,y,-z
-x,y,1/2+z
x,-y,1/2+z
1/2+x,1/2+y,z
1/2-x,1/2-y,z
1/2+x,1/2-y,1/2-z
1/2-x,1/2+y,1/2-z
1/2-x,1/2-y,-z
1/2+x,1/2+y,-z
1/2-x,1/2+y,1/2+z
1/2+x,1/2-y,1/2+z
loop_
_atom_site_type_symbol
_atom_site_label
_atom_site_fract_x
_atom_site_fract_y
_atom_site_fract_z
Si Si1 0.824902 0.279662 0.932077
Si Si2 0.623876 0.357800 0.119713
Si Si3 0.325018 0.778714 0.567136
Si Si4 0.420952 0.585185 0.753862
Si Si5 0.740562 0.081144 0.070836
Si Si6 0.004764 0.079840 0.931314
Si Si7 0.372222 0.647216 0.366824
Si Si8 0.744449 0.917636 0.070497
O O1 0.750000 0.250000 0.932822
O O2 0.864759 0.226237 0.890685
O O3 0.815620 0.361566 0.913236
O O4 0.849001 0.275503 0.000000
O O5 0.603763 0.382336 0.184702
O O6 0.691310 0.396270 0.100939
O O7 0.564982 0.383423 0.077891
O O8 0.351629 0.770274 0.500000
O O9 0.250000 0.750000 0.565133
O O10 0.361150 0.729415 0.614547
O O11 0.314144 0.861542 0.581797
O O12 0.407974 0.500000 0.750000
O O13 0.500000 0.594440 0.750000
O O14 0.384491 0.626365 0.700787
O O15 0.726418 0.998952 0.083528
O O16 0.749667 0.088646 0.000000
O O17 0.062552 0.120723 0.899321
O O18 0.021313 0.074498 0.000000
O O19 0.000000 0.000000 0.905827
O O20 0.309017 0.605786 0.393448
O O21 0.759584 0.911994 0.000000
#
# Coordination Sequence:
#
# PCOD9499325 Si02
#       8
#    16  16  16  16  16  16  16  16
#     4   8  15  28  45  66  91 115 142 182 226 265
#     4  11  19  30  44  61  89 122 154 181 216 260
#     4   8  15  28  45  66  91 115 142 182 226 265
#     4  11  22  34  43  56  87 129 160 184 213 251
#     4   9  16  28  48  71  93 117 144 179 225 271
#     4  11  20  27  41  65  88 111 143 182 219 262
#     4  11  19  30  44  61  89 122 154 181 216 260
#     4   9  16  28  48  71  93 117 144 179 225 271
#
# _framework density 14.76967
#
# number of rings (size 3 to 8) (size 9 to 14) (size 15 to 20)
#    0.000    2.250    1.250    6.000    0.000    2.000 
#    0.000    5.625    0.000    0.000    0.000    0.875 
#    0.000    6.000    0.000    0.000    0.000    0.000 
#
# Total GULP energy -356518.352948 kJ/mol
# GULP energy per Si atom -5570.599265 kJ/mol
# Density = 1.473605 g / cm^3
# Si number density = 14.769670 Si / 1000 Ang^3
#
#
#
# Elastic Constant Matrix: (Units=GPa)
#
#
# Indices 1 2 3 4 5 6 
#
# 1 35.4915 35.9764 15.5924 0.0000 0.0000 0.0000
# 2 35.9764 136.0462 34.3528 0.0000 0.0000 0.0000
# 3 15.5924 34.3528 51.9451 0.0000 0.0000 0.0000
# 4 0.0000 0.0000 0.0000 20.2950 0.0000 0.0000
# 5 0.0000 0.0000 0.0000 0.0000 -25.1634 0.0000
# 6 0.0000 0.0000 0.0000 0.0000 0.0000 22.4700
#
#
#
# Elastic Compliance Matrix: (Units=1/GPa)
#
#
# Indices 1 2 3 4 5 6 
#
# 1 0.040002 -0.009059 -0.006016 0.000000 0.000000 0.000000
# 2 -0.009059 0.010875 -0.004473 0.000000 0.000000 0.000000
# 3 -0.006016 -0.004473 0.024015 0.000000 0.000000 0.000000
# 4 0.000000 0.000000 0.000000 0.049273 0.000000 0.000000
# 5 0.000000 0.000000 0.000000 0.000000 -0.039740 0.000000
# 6 0.000000 0.000000 0.000000 0.000000 0.000000 0.044504
#
#
# Mechanical properties :
#
#
# Convention : Reuss Voigt Hill
#
# Bulk Modulus (GPa) = 27.93643 43.92511 35.93077
# Shear Modulus (GPa) = 27.78433 12.69108 20.23770
#
# Velocity S-wave (km/s) = 4.34196 2.93450 3.70566
# Velocity P-wave (km/s) = 6.64022 6.42545 6.53372
#
# Compressibility (1/GPa) = 0.03579556
#
# Stress axis : x y z
#
# Youngs Moduli (GPa) = 24.99896 91.94992 41.64032
#
# Poissons Ratio (x) = 0.83297 0.25053
# Poissons Ratio (y) = 0.22646 0.18626
# Poissons Ratio (z) = 0.15040 0.41130
#
# Static dielectric constant tensor:
#      x y z
#    x 1.459170 0.000000 0.000000 
#    y 0.000000 1.538810 0.000000 
#    z 0.000000 0.000000 1.493530 
# 
# From -- ./inp_files/52064.got.cif
#   From: 2010.05.17/outbox.cif.g08.bks.cpg/sg66_27_cif.got.tgz:52064.got - 2010.06.03 17:51:23.
