data_PCOD9499638
_publ_section_title
;
Structure prediction by ZEFSAII (Michael W. Deem and Ramdas Pophale) SiO2 
 PCOD9499638
Probable space group: C C C M
;
_chemical_formula_sum "Si O2"
_cell_formula_units_Z 64
_cell_length_a 18.282875
_cell_length_b 8.636709
_cell_length_c 20.814953
_cell_angle_alpha 90.000000
_cell_angle_beta 90.000000
_cell_angle_gamma 90.000000
_cell_volume 3286.761655
_symmetry_space_group_name_H-M "C C C M"
_symmetry_group_IT_number 66
_symmetry_cell_setting 'orthorhombic'
loop_
_space_group_symop_operation_xyz
x,y,z
-x,-y,z
x,-y,1/2-z
-x,y,1/2-z
-x,-y,-z
x,y,-z
-x,y,1/2+z
x,-y,1/2+z
1/2+x,1/2+y,z
1/2-x,1/2-y,z
1/2+x,1/2-y,1/2-z
1/2-x,1/2+y,1/2-z
1/2-x,1/2-y,-z
1/2+x,1/2+y,-z
1/2-x,1/2+y,1/2+z
1/2+x,1/2-y,1/2+z
loop_
_atom_site_type_symbol
_atom_site_label
_atom_site_fract_x
_atom_site_fract_y
_atom_site_fract_z
Si Si1 0.889537 0.884370 0.000000
Si Si2 0.333787 0.789604 0.373963
Si Si3 0.077960 0.410283 0.370244
Si Si4 0.557857 0.718131 0.500000
Si Si5 0.912627 0.177587 0.247182
O O1 0.855391 0.810057 0.936329
O O2 0.974582 0.839623 0.000000
O O3 0.888602 0.070198 0.000000
O O4 0.250000 0.750000 0.360263
O O5 0.381189 0.748306 0.311829
O O6 0.357619 0.966970 0.384044
O O7 0.066560 0.316173 0.435601
O O8 0.100547 0.290780 0.313575
O O9 0.000000 0.500000 0.355689
O O10 0.000000 0.169356 0.250000
O O11 0.884928 0.000000 0.250000
#
# Coordination Sequence:
#
# PCOD9499638 Si02
#       5
#     8  16  16   8  16
#     4  11  22  43  66  99 140 173 230 288 353 404
#     4  12  26  42  65  99 140 178 224 289 356 411
#     4  12  22  41  70 100 131 175 238 283 339 420
#     4  11  22  40  72 102 126 178 235 292 331 420
#     4  11  23  41  66  97 131 176 230 283 340 414
#
# _framework density 19.472054
#
# number of rings (size 3 to 8) (size 9 to 14) (size 15 to 20)
#    0.000    0.500    5.000    3.750    0.000    6.000 
#    0.000    5.000    0.000    0.000    0.000    0.000 
#    0.000    0.000    0.000    0.000    0.000    0.000 
#
# Total GULP energy -178675.185041 kJ/mol
# GULP energy per Si atom -5583.599533 kJ/mol
# Density = 1.942773 g / cm^3
# Si number density = 19.472054 Si / 1000 Ang^3
#
#
#
# Elastic Constant Matrix: (Units=GPa)
#
#
# Indices 1 2 3 4 5 6 
#
# 1 84.3252 33.5546 33.2604 0.0000 0.0000 0.0000
# 2 33.5546 134.3047 58.2158 0.0000 0.0000 0.0000
# 3 33.2604 58.2158 165.3219 0.0000 0.0000 0.0000
# 4 0.0000 0.0000 0.0000 39.1346 0.0000 0.0000
# 5 0.0000 0.0000 0.0000 0.0000 40.1846 0.0000
# 6 0.0000 0.0000 0.0000 0.0000 0.0000 19.0595
#
#
#
# Elastic Compliance Matrix: (Units=1/GPa)
#
#
# Indices 1 2 3 4 5 6 
#
# 1 0.013616 -0.002613 -0.001819 0.000000 0.000000 0.000000
# 2 -0.002613 0.009289 -0.002745 0.000000 0.000000 0.000000
# 3 -0.001819 -0.002745 0.007381 0.000000 0.000000 0.000000
# 4 0.000000 0.000000 0.000000 0.025553 0.000000 0.000000
# 5 0.000000 0.000000 0.000000 0.000000 0.024885 0.000000
# 6 0.000000 0.000000 0.000000 0.000000 0.000000 0.052467
#
#
# Mechanical properties :
#
#
# Convention : Reuss Voigt Hill
#
# Bulk Modulus (GPa) = 62.77019 70.44594 66.60807
# Shear Modulus (GPa) = 32.71029 36.93713 34.82371
#
# Velocity S-wave (km/s) = 4.10305 4.36010 4.23353
# Velocity P-wave (km/s) = 7.39951 7.84881 7.62747
#
# Compressibility (1/GPa) = 0.01593113
#
# Stress axis : x y z
#
# Youngs Moduli (GPa) = 73.44151 107.65938 135.47513
#
# Poissons Ratio (x) = 0.28135 0.24645
# Poissons Ratio (y) = 0.19193 0.37189
# Poissons Ratio (z) = 0.13360 0.29553
#
# Static dielectric constant tensor:
#      x y z
#    x 1.673140 0.000000 0.000000 
#    y 0.000000 1.808190 0.000000 
#    z 0.000000 0.000000 1.617730 
# 
# From -- ./inp_files/36419.got.cif
#   From: 2010.05.17/outbox.cif.g08.bks.cpg/sg66_19_cif.got.tgz:36419.got - 2010.06.03 17:51:23.
