data_PCOD9499364
_publ_section_title
;
Structure prediction by ZEFSAII (Michael W. Deem and Ramdas Pophale) SiO2 
 PCOD9499364
Probable space group: C C C M
;
_chemical_formula_sum "Si O2"
_cell_formula_units_Z 112
_cell_length_a 26.933716
_cell_length_b 14.728473
_cell_length_c 15.390960
_cell_angle_alpha 90.000000
_cell_angle_beta 90.000000
_cell_angle_gamma 90.000000
_cell_volume 6105.478537
_symmetry_space_group_name_H-M "C C C M"
_symmetry_group_IT_number 66
_symmetry_cell_setting 'orthorhombic'
loop_
_space_group_symop_operation_xyz
x,y,z
-x,-y,z
x,-y,1/2-z
-x,y,1/2-z
-x,-y,-z
x,y,-z
-x,y,1/2+z
x,-y,1/2+z
1/2+x,1/2+y,z
1/2-x,1/2-y,z
1/2+x,1/2-y,1/2-z
1/2-x,1/2+y,1/2-z
1/2-x,1/2-y,-z
1/2+x,1/2+y,-z
1/2-x,1/2+y,1/2+z
1/2+x,1/2-y,1/2+z
loop_
_atom_site_type_symbol
_atom_site_label
_atom_site_fract_x
_atom_site_fract_y
_atom_site_fract_z
Si Si1 0.939052 0.070606 0.603297
Si Si2 0.860716 0.780070 0.669642
Si Si3 0.767477 0.855036 0.404410
Si Si4 0.736265 0.144271 0.595976
Si Si5 0.166316 0.086234 0.815091
Si Si6 0.460069 0.362138 0.394390
Si Si7 0.315002 0.900082 0.228892
O O1 0.944159 0.069634 0.500000
O O2 0.883550 0.089354 0.629804
O O3 0.981826 0.141058 0.633088
O O4 0.948206 0.966534 0.630709
O O5 0.826738 0.840169 0.603579
O O6 0.838528 0.823753 0.757116
O O7 0.918030 0.801253 0.650539
O O8 0.848283 0.673274 0.677032
O O9 0.754947 0.890796 0.500000
O O10 0.750000 0.750000 0.398027
O O11 0.736222 0.904190 0.328547
O O12 0.718908 0.115955 0.500000
O O13 0.750000 0.250000 0.591815
O O14 0.785666 0.089934 0.624498
O O15 0.698839 0.134612 0.675482
O O16 0.166164 0.000000 0.750000
O O17 0.456039 0.351169 0.500000
O O18 0.335306 0.000000 0.250000
#
# Coordination Sequence:
#
# PCOD9499364 Si02
#       7
#    16  16  16  16  16  16  16
#     4   9  19  34  51  78 112 144 179 214 268 342
#     4  11  20  34  52  77 111 141 191 228 275 338
#     4   9  18  33  54  76 104 140 182 235 290 341
#     4  11  22  38  55  74 108 153 194 232 277 329
#     4  12  21  34  53  80 110 144 183 227 272 329
#     4   9  18  34  53  77 111 145 173 215 272 338
#     4  11  22  38  53  75 110 146 193 244 282 325
#
# _framework density 18.344180000000001
#
# number of rings (size 3 to 8) (size 9 to 14) (size 15 to 20)
#    0.000    1.714    4.286    2.571    0.000    1.714 
#    0.000    0.000    0.000    0.000    0.000    2.000 
#    0.000    2.286    0.000    0.000    0.000    0.000 
#
# Total GULP energy -312012.817516 kJ/mol
# GULP energy per Si atom -5571.657456 kJ/mol
# Density = 1.830243 g / cm^3
# Si number density = 18.344180 Si / 1000 Ang^3
#
#
#
# Elastic Constant Matrix: (Units=GPa)
#
#
# Indices 1 2 3 4 5 6 
#
# 1 86.3334 31.8525 14.6567 0.0000 0.0000 0.0000
# 2 31.8525 75.8291 19.4465 0.0000 0.0000 0.0000
# 3 14.6567 19.4465 74.2254 0.0000 0.0000 0.0000
# 4 0.0000 0.0000 0.0000 13.9770 0.0000 0.0000
# 5 0.0000 0.0000 0.0000 0.0000 26.9821 0.0000
# 6 0.0000 0.0000 0.0000 0.0000 0.0000 24.1197
#
#
#
# Elastic Compliance Matrix: (Units=1/GPa)
#
#
# Indices 1 2 3 4 5 6 
#
# 1 0.013823 -0.005474 -0.001295 0.000000 0.000000 0.000000
# 2 -0.005474 0.016305 -0.003191 0.000000 0.000000 0.000000
# 3 -0.001295 -0.003191 0.014564 0.000000 0.000000 0.000000
# 4 0.000000 0.000000 0.000000 0.071546 0.000000 0.000000
# 5 0.000000 0.000000 0.000000 0.000000 0.037062 0.000000
# 6 0.000000 0.000000 0.000000 0.000000 0.000000 0.041460
#
#
# Mechanical properties :
#
#
# Convention : Reuss Voigt Hill
#
# Bulk Modulus (GPa) = 40.36893 40.92214 40.64553
# Shear Modulus (GPa) = 22.42782 24.37791 23.40286
#
# Velocity S-wave (km/s) = 3.50038 3.64939 3.57566
# Velocity P-wave (km/s) = 6.19605 6.33354 6.26517
#
# Compressibility (1/GPa) = 0.02477153
#
# Stress axis : x y z
#
# Youngs Moduli (GPa) = 72.34555 61.32973 68.66132
#
# Poissons Ratio (x) = 0.33572 0.08893
# Poissons Ratio (y) = 0.39603 0.21909
# Poissons Ratio (z) = 0.09371 0.19570
#
# Static dielectric constant tensor:
#      x y z
#    x 1.686650 0.000000 0.000000 
#    y 0.000000 1.665700 0.000000 
#    z 0.000000 0.000000 1.706830 
# 
# From -- ./inp_files/33342.got.cif
#   From: 2010.05.17/outbox.cif.g08.bks.cpg/sg66_17_cif.got.tgz:33342.got - 2010.06.03 17:51:23.
