data_PCOD9499225
_publ_section_title
;
Structure prediction by ZEFSAII (Michael W. Deem and Ramdas Pophale) SiO2 
 PCOD9499225
Probable space group: C C C M
;
_chemical_formula_sum "Si O2"
_cell_formula_units_Z 96
_cell_length_a 15.228914
_cell_length_b 18.380864
_cell_length_c 14.650762
_cell_angle_alpha 90.000000
_cell_angle_beta 90.000000
_cell_angle_gamma 90.000000
_cell_volume 4101.050047
_symmetry_space_group_name_H-M "C C C M"
_symmetry_group_IT_number 66
_symmetry_cell_setting 'orthorhombic'
loop_
_space_group_symop_operation_xyz
x,y,z
-x,-y,z
x,-y,1/2-z
-x,y,1/2-z
-x,-y,-z
x,y,-z
-x,y,1/2+z
x,-y,1/2+z
1/2+x,1/2+y,z
1/2-x,1/2-y,z
1/2+x,1/2-y,1/2-z
1/2-x,1/2+y,1/2-z
1/2-x,1/2-y,-z
1/2+x,1/2+y,-z
1/2-x,1/2+y,1/2+z
1/2+x,1/2-y,1/2+z
loop_
_atom_site_type_symbol
_atom_site_label
_atom_site_fract_x
_atom_site_fract_y
_atom_site_fract_z
Si Si1 0.193538 0.453964 0.398245
Si Si2 0.522043 0.136560 0.143520
Si Si3 0.052232 0.924731 0.605904
Si Si4 0.176428 0.626526 0.596473
Si Si5 0.199549 0.129300 0.246918
Si Si6 0.592458 0.703726 0.602695
O O1 0.222450 0.430740 0.500000
O O2 0.095521 0.422562 0.382699
O O3 0.194601 0.540574 0.396196
O O4 0.255280 0.425557 0.318172
O O5 0.500000 0.130347 0.250000
O O6 0.427639 0.131018 0.097941
O O7 0.558022 0.215358 0.117190
O O8 0.084885 0.930307 0.500000
O O9 0.127446 0.907284 0.679738
O O10 0.984207 0.857255 0.609039
O O11 0.000000 0.000000 0.625353
O O12 0.210835 0.654933 0.500000
O O13 0.224717 0.660882 0.682132
O O14 0.155995 0.187054 0.313804
O O15 0.630019 0.698191 0.500000
#
# Coordination Sequence:
#
# PCOD9499225 Si02
#       6
#    16  16  16  16  16  16
#     4  11  25  43  70 108 150 192 240 299 363 432
#     4  12  24  47  74 103 144 197 246 293 365 441
#     4  10  24  45  72 103 139 187 241 299 362 429
#     4  11  25  44  72 108 146 188 242 304 366 428
#     4  12  24  43  70 106 144 183 240 298 359 428
#     4  11  26  47  72 102 141 190 242 296 363 435
#
# _framework density 23.408639000000001
#
# number of rings (size 3 to 8) (size 9 to 14) (size 15 to 20)
#    0.000    0.833    1.667    5.000    4.667    3.333 
#    3.000    1.667    0.000    4.500    0.000    0.000 
#    0.000    0.000    0.000    0.000    0.000    0.000 
#
# Total GULP energy -268914.062507 kJ/mol
# GULP energy per Si atom -5602.376302 kJ/mol
# Density = 2.335536 g / cm^3
# Si number density = 23.408639 Si / 1000 Ang^3
#
#
#
# Elastic Constant Matrix: (Units=GPa)
#
#
# Indices 1 2 3 4 5 6 
#
# 1 675.4538 23.5134 362.7180 0.0000 0.0000 0.0000
# 2 23.5134 30.0076 28.2921 0.0000 0.0000 0.0000
# 3 362.7180 28.2921 367.9184 0.0000 0.0000 0.0000
# 4 0.0000 0.0000 0.0000 23.7694 0.0000 0.0000
# 5 0.0000 0.0000 0.0000 0.0000 60.5487 0.0000
# 6 0.0000 0.0000 0.0000 0.0000 0.0000 -319.5954
#
#
#
# Elastic Compliance Matrix: (Units=1/GPa)
#
#
# Indices 1 2 3 4 5 6 
#
# 1 0.003153 0.000496 -0.003146 0.000000 0.000000 0.000000
# 2 0.000496 0.036008 -0.003258 0.000000 0.000000 0.000000
# 3 -0.003146 -0.003258 0.006070 0.000000 0.000000 0.000000
# 4 0.000000 0.000000 0.000000 0.042071 0.000000 0.000000
# 5 0.000000 0.000000 0.000000 0.000000 0.016516 0.000000
# 6 0.000000 0.000000 0.000000 0.000000 0.000000 -0.003129
#
#
# Mechanical properties :
#
#
# Convention : Reuss Voigt Hill
#
# Bulk Modulus (GPa) = 29.92704 211.38073 120.65389
# Shear Modulus (GPa) = 40.43879 -3.13169 18.65355
#
# Velocity S-wave (km/s) = 4.16085 -1.15790 2.82594
# Velocity P-wave (km/s) = 5.99132 9.41853 7.89318
#
# Compressibility (1/GPa) = 0.03341460
#
# Stress axis : x y z
#
# Youngs Moduli (GPa) = 317.17373 27.77164 164.73174
#
# Poissons Ratio (x) = -0.01378 0.51832
# Poissons Ratio (y) = -0.15733 0.53669
# Poissons Ratio (z) = 0.99796 0.09048
#
# Static dielectric constant tensor:
#      x y z
#    x 1.974620 0.000000 0.000000 
#    y 0.000000 1.832240 0.000000 
#    z 0.000000 0.000000 1.913050 
# 
# From -- ./inp_files/28342.got.cif
#   From: 2010.05.17/outbox.cif.g08.bks.cpg/sg66_15_cif.got.tgz:28342.got - 2010.06.03 17:51:23.
