data_PCOD9499805
_publ_section_title
;
Structure prediction by ZEFSAII (Michael W. Deem and Ramdas Pophale) SiO2 
 PCOD9499805
Probable space group: C C C M
;
_chemical_formula_sum "Si O2"
_cell_formula_units_Z 56
_cell_length_a 15.845653
_cell_length_b 9.890600
_cell_length_c 15.144946
_cell_angle_alpha 90.000000
_cell_angle_beta 90.000000
_cell_angle_gamma 90.000000
_cell_volume 2373.561608
_symmetry_space_group_name_H-M "C C C M"
_symmetry_group_IT_number 66
_symmetry_cell_setting 'orthorhombic'
loop_
_space_group_symop_operation_xyz
x,y,z
-x,-y,z
x,-y,1/2-z
-x,y,1/2-z
-x,-y,-z
x,y,-z
-x,y,1/2+z
x,-y,1/2+z
1/2+x,1/2+y,z
1/2-x,1/2-y,z
1/2+x,1/2-y,1/2-z
1/2-x,1/2+y,1/2-z
1/2-x,1/2-y,-z
1/2+x,1/2+y,-z
1/2-x,1/2+y,1/2+z
1/2+x,1/2-y,1/2+z
loop_
_atom_site_type_symbol
_atom_site_label
_atom_site_fract_x
_atom_site_fract_y
_atom_site_fract_z
Si Si1 0.248862 0.586971 0.660682
Si Si2 0.090109 0.429434 0.595667
Si Si3 0.500000 0.781888 0.250000
Si Si4 0.073297 0.110982 0.094280
O O1 0.253854 0.500000 0.750000
O O2 0.250000 0.750000 0.672608
O O3 0.165223 0.535051 0.611476
O O4 0.333586 0.552582 0.606468
O O5 0.106157 0.358386 0.500000
O O6 0.000000 0.500000 0.587317
O O7 0.071549 0.352211 0.688133
O O8 0.552480 0.699247 0.178746
O O9 0.070107 0.185438 0.000000
O O10 0.000000 0.000000 0.093081
#
# Coordination Sequence:
#
# PCOD9499805 Si02
#       4
#    16  16   8  16
#     4  12  25  44  72 104 141 187 236 289 352 422
#     4  11  24  41  65 100 137 174 224 286 347 409
#     4  12  22  44  72  98 139 184 231 292 355 410
#     4  11  25  44  68 100 140 187 235 286 351 425
#
# _framework density 23.593236999999998
#
# number of rings (size 3 to 8) (size 9 to 14) (size 15 to 20)
#    0.000    0.571    0.000    9.429    0.000    4.571 
#    0.000    0.000    0.000    8.571    0.000    0.000 
#    0.000    0.000    0.000    0.000    0.000    0.000 
#
# Total GULP energy -156443.410454 kJ/mol
# GULP energy per Si atom -5587.264659 kJ/mol
# Density = 2.353954 g / cm^3
# Si number density = 23.593237 Si / 1000 Ang^3
#
#
#
# Elastic Constant Matrix: (Units=GPa)
#
#
# Indices 1 2 3 4 5 6 
#
# 1 214.3523 64.2559 61.9484 0.0000 0.0000 0.0000
# 2 64.2559 60.7709 73.3713 0.0000 0.0000 0.0000
# 3 61.9484 73.3713 246.7765 0.0000 0.0000 0.0000
# 4 0.0000 0.0000 0.0000 30.5129 0.0000 0.0000
# 5 0.0000 0.0000 0.0000 0.0000 25.5732 0.0000
# 6 0.0000 0.0000 0.0000 0.0000 0.0000 40.7925
#
#
#
# Elastic Compliance Matrix: (Units=1/GPa)
#
#
# Indices 1 2 3 4 5 6 
#
# 1 0.006903 -0.008122 0.000682 0.000000 0.000000 0.000000
# 2 -0.008122 0.035227 -0.008435 0.000000 0.000000 0.000000
# 3 0.000682 -0.008435 0.006389 0.000000 0.000000 0.000000
# 4 0.000000 0.000000 0.000000 0.032773 0.000000 0.000000
# 5 0.000000 0.000000 0.000000 0.000000 0.039103 0.000000
# 6 0.000000 0.000000 0.000000 0.000000 0.000000 0.024514
#
#
# Mechanical properties :
#
#
# Convention : Reuss Voigt Hill
#
# Bulk Modulus (GPa) = 59.63444 102.33899 80.98672
# Shear Modulus (GPa) = 27.43507 40.86398 34.14953
#
# Velocity S-wave (km/s) = 3.41374 4.16627 3.80864
# Velocity P-wave (km/s) = 6.39289 8.16176 7.33087
#
# Compressibility (1/GPa) = 0.01676883
#
# Stress axis : x y z
#
# Youngs Moduli (GPa) = 144.86706 28.38750 156.52356
#
# Poissons Ratio (x) = 0.23057 -0.10676
# Poissons Ratio (y) = 1.17664 1.32022
# Poissons Ratio (z) = -0.09881 0.23944
#
# Static dielectric constant tensor:
#      x y z
#    x 1.891640 0.000000 0.000000 
#    y 0.000000 1.951510 0.000000 
#    z 0.000000 0.000000 2.094740 
# 
# From -- ./inp_files/27537.got.cif
#   From: 2010.05.17/outbox.cif.g08.bks.cpg/sg66_14_cif.got.tgz:27537.got - 2010.06.03 17:51:23.
