data_PCOD9499592
_publ_section_title
;
Structure prediction by ZEFSAII (Michael W. Deem and Ramdas Pophale) SiO2 
 PCOD9499592
Probable space group: C C C M
;
_chemical_formula_sum "Si O2"
_cell_formula_units_Z 80
_cell_length_a 15.634349
_cell_length_b 8.799486
_cell_length_c 29.751497
_cell_angle_alpha 90.000000
_cell_angle_beta 90.000000
_cell_angle_gamma 90.000000
_cell_volume 4093.039444
_symmetry_space_group_name_H-M "C C C M"
_symmetry_group_IT_number 66
_symmetry_cell_setting 'orthorhombic'
loop_
_space_group_symop_operation_xyz
x,y,z
-x,-y,z
x,-y,1/2-z
-x,y,1/2-z
-x,-y,-z
x,y,-z
-x,y,1/2+z
x,-y,1/2+z
1/2+x,1/2+y,z
1/2-x,1/2-y,z
1/2+x,1/2-y,1/2-z
1/2-x,1/2+y,1/2-z
1/2-x,1/2-y,-z
1/2+x,1/2+y,-z
1/2-x,1/2+y,1/2+z
1/2+x,1/2-y,1/2+z
loop_
_atom_site_type_symbol
_atom_site_label
_atom_site_fract_x
_atom_site_fract_y
_atom_site_fract_z
Si Si1 0.750223 0.431426 0.884190
Si Si2 0.662777 0.649344 0.948669
Si Si3 0.497768 0.752619 0.300265
Si Si4 0.429237 0.104662 0.108491
Si Si5 0.642879 0.484243 0.799029
O O1 0.750000 0.250000 0.883282
O O2 0.690604 0.494912 0.924218
O O3 0.844026 0.503685 0.887715
O O4 0.709414 0.497494 0.838676
O O5 0.750000 0.750000 0.948955
O O6 0.595542 0.744262 0.918997
O O7 0.634985 0.628572 0.000000
O O8 0.500000 0.822228 0.250000
O O9 0.467938 0.848931 0.342933
O O10 0.428211 0.616405 0.298676
O O11 0.589990 0.672048 0.306330
O O12 0.500000 0.000000 0.084993
O O13 0.684570 0.500000 0.750000
#
# Coordination Sequence:
#
# PCOD9499592 Si02
#       5
#    16  16  16  16  16
#     4  11  22  39  60  89 123 160 201 251 301 364
#     4   9  20  40  65  88 117 159 203 255 311 364
#     4   9  18  35  60  84 115 157 201 244 299 355
#     4  11  22  38  60  88 123 158 201 252 306 360
#     4   9  18  36  58  84 116 158 199 244 297 354
#
# _framework density 19.545377999999999
#
# number of rings (size 3 to 8) (size 9 to 14) (size 15 to 20)
#    0.000    2.200    2.000    2.400    0.000    1.200 
#   10.800    0.000    0.000    8.400    0.000    0.000 
#    0.000    0.000    0.000    0.000    0.000    0.000 
#
# Total GULP energy -223158.497359 kJ/mol
# GULP energy per Si atom -5578.962434 kJ/mol
# Density = 1.950089 g / cm^3
# Si number density = 19.545378 Si / 1000 Ang^3
#
#
#
# Elastic Constant Matrix: (Units=GPa)
#
#
# Indices 1 2 3 4 5 6 
#
# 1 82.7460 19.3969 43.3924 0.0000 0.0000 0.0000
# 2 19.3969 75.7947 44.5818 0.0000 0.0000 0.0000
# 3 43.3924 44.5818 140.9542 0.0000 0.0000 0.0000
# 4 0.0000 0.0000 0.0000 44.9852 0.0000 0.0000
# 5 0.0000 0.0000 0.0000 0.0000 27.0687 0.0000
# 6 0.0000 0.0000 0.0000 0.0000 0.0000 15.0970
#
#
#
# Elastic Compliance Matrix: (Units=1/GPa)
#
#
# Indices 1 2 3 4 5 6 
#
# 1 0.014521 -0.001335 -0.004048 0.000000 0.000000 0.000000
# 2 -0.001335 0.016332 -0.004754 0.000000 0.000000 0.000000
# 3 -0.004048 -0.004754 0.009844 0.000000 0.000000 0.000000
# 4 0.000000 0.000000 0.000000 0.022230 0.000000 0.000000
# 5 0.000000 0.000000 0.000000 0.000000 0.036943 0.000000
# 6 0.000000 0.000000 0.000000 0.000000 0.000000 0.066238
#
#
# Mechanical properties :
#
#
# Convention : Reuss Voigt Hill
#
# Bulk Modulus (GPa) = 48.96682 57.13743 53.05213
# Shear Modulus (GPa) = 25.88120 30.23843 28.05981
#
# Velocity S-wave (km/s) = 3.64285 3.93757 3.79307
# Velocity P-wave (km/s) = 6.54225 7.06890 6.81067
#
# Compressibility (1/GPa) = 0.02042199
#
# Stress axis : x y z
#
# Youngs Moduli (GPa) = 68.86618 61.23035 101.58034
#
# Poissons Ratio (x) = 0.08175 0.41119
# Poissons Ratio (y) = 0.09195 0.48296
# Poissons Ratio (z) = 0.27877 0.29112
#
# Static dielectric constant tensor:
#      x y z
#    x 1.678480 0.000000 0.000000 
#    y 0.000000 1.719640 0.000000 
#    z 0.000000 0.000000 1.690250 
# 
# From -- ./inp_files/65039.got.cif
#   From: 2010.05.17/outbox.cif.g08.bks.cpg/sg66_33_cif.got.tgz:65039.got - 2010.06.03 17:51:23.
