data_PCOD9499955
_publ_section_title
;
Structure prediction by ZEFSAII (Michael W. Deem and Ramdas Pophale) SiO2 
 PCOD9499955
Probable space group: C C C M
;
_chemical_formula_sum "Si O2"
_cell_formula_units_Z 52
_cell_length_a 21.122499
_cell_length_b 6.862635
_cell_length_c 17.891632
_cell_angle_alpha 90.000000
_cell_angle_beta 90.000000
_cell_angle_gamma 90.000000
_cell_volume 2593.499425
_symmetry_space_group_name_H-M "C C C M"
_symmetry_group_IT_number 66
_symmetry_cell_setting 'orthorhombic'
loop_
_space_group_symop_operation_xyz
x,y,z
-x,-y,z
x,-y,1/2-z
-x,y,1/2-z
-x,-y,-z
x,y,-z
-x,y,1/2+z
x,-y,1/2+z
1/2+x,1/2+y,z
1/2-x,1/2-y,z
1/2+x,1/2-y,1/2-z
1/2-x,1/2+y,1/2-z
1/2-x,1/2-y,-z
1/2+x,1/2+y,-z
1/2-x,1/2+y,1/2+z
1/2+x,1/2-y,1/2+z
loop_
_atom_site_type_symbol
_atom_site_label
_atom_site_fract_x
_atom_site_fract_y
_atom_site_fract_z
Si Si1 0.667041 0.000000 0.750000
Si Si2 0.939931 0.848097 0.000000
Si Si3 0.291064 0.456582 0.000000
Si Si4 0.554349 0.839094 0.156879
Si Si5 0.250000 0.750000 0.134183
Si Si6 0.000000 0.000000 0.750000
O O1 0.620635 0.898502 0.808956
O O2 0.704234 0.855540 0.694478
O O3 0.944658 0.709866 0.070916
O O4 0.867828 0.932052 0.000000
O O5 0.000000 0.000000 0.000000
O O6 0.250000 0.250000 0.000000
O O7 0.274501 0.583046 0.924708
O O8 0.539225 0.639065 0.197730
O O9 0.500000 0.000000 0.170730
#
# Coordination Sequence:
#
# PCOD9499955 Si02
#       6
#     8   8   8  16   8   4
#     4  12  27  47  78 112 144 202 248 314 372 458
#     4  12  28  43  81 107 146 198 248 301 382 446
#     4  11  27  57  74 108 151 207 254 318 378 464
#     4  12  26  48  72 110 152 188 244 308 381 447
#     4  11  30  48  78 105 154 198 258 309 378 454
#     4  12  22  44  72 106 146 194 238 300 374 440
#
# _framework density 20.050129999999999
#
# number of rings (size 3 to 8) (size 9 to 14) (size 15 to 20)
#    0.000    0.308    4.615    2.308   15.077    1.231 
#    0.000    0.000    0.000    0.000    0.000    0.000 
#    0.000    0.000    0.000    0.000    0.000    0.000 
#
# Total GULP energy -144956.216105 kJ/mol
# GULP energy per Si atom -5575.239081 kJ/mol
# Density = 2.000450 g / cm^3
# Si number density = 20.050130 Si / 1000 Ang^3
#
#
#
# Elastic Constant Matrix: (Units=GPa)
#
#
# Indices 1 2 3 4 5 6 
#
# 1 165.8795 101.1943 85.4992 0.0000 0.0000 0.0000
# 2 101.1943 153.8709 91.4637 0.0000 0.0000 0.0000
# 3 85.4992 91.4637 229.5684 0.0000 0.0000 0.0000
# 4 0.0000 0.0000 0.0000 53.6593 0.0000 0.0000
# 5 0.0000 0.0000 0.0000 0.0000 46.2509 0.0000
# 6 0.0000 0.0000 0.0000 0.0000 0.0000 34.4058
#
#
#
# Elastic Compliance Matrix: (Units=1/GPa)
#
#
# Indices 1 2 3 4 5 6 
#
# 1 0.010454 -0.005976 -0.001512 0.000000 0.000000 0.000000
# 2 -0.005976 0.011932 -0.002528 0.000000 0.000000 0.000000
# 3 -0.001512 -0.002528 0.005927 0.000000 0.000000 0.000000
# 4 0.000000 0.000000 0.000000 0.018636 0.000000 0.000000
# 5 0.000000 0.000000 0.000000 0.000000 0.021621 0.000000
# 6 0.000000 0.000000 0.000000 0.000000 0.000000 0.029065
#
#
# Mechanical properties :
#
#
# Convention : Reuss Voigt Hill
#
# Bulk Modulus (GPa) = 120.78739 122.84814 121.81777
# Shear Modulus (GPa) = 41.51900 44.94063 43.22982
#
# Velocity S-wave (km/s) = 4.55550 4.73949 4.64841
# Velocity P-wave (km/s) = 9.38315 9.55792 9.47094
#
# Compressibility (1/GPa) = 0.00827901
#
# Stress axis : x y z
#
# Youngs Moduli (GPa) = 95.66111 83.80926 168.73230
#
# Poissons Ratio (x) = 0.50083 0.25519
# Poissons Ratio (y) = 0.57166 0.42659
# Poissons Ratio (z) = 0.14468 0.21189
#
# Static dielectric constant tensor:
#      x y z
#    x 1.867740 0.000000 0.000000 
#    y 0.000000 1.714120 0.000000 
#    z 0.000000 0.000000 1.672520 
# 
# From -- ./inp_files/51511.got.cif
#   From: 2010.05.17/outbox.cif.g08.bks.cpg/sg66_26_cif.got.tgz:51511.got - 2010.06.03 17:51:23.
