data_PCOD9499806
_publ_section_title
;
Structure prediction by ZEFSAII (Michael W. Deem and Ramdas Pophale) SiO2 
 PCOD9499806
Probable space group: C C C M
;
_chemical_formula_sum "Si O2"
_cell_formula_units_Z 84
_cell_length_a 17.666286
_cell_length_b 9.427479
_cell_length_c 20.659378
_cell_angle_alpha 90.000000
_cell_angle_beta 90.000000
_cell_angle_gamma 90.000000
_cell_volume 3440.789249
_symmetry_space_group_name_H-M "C C C M"
_symmetry_group_IT_number 66
_symmetry_cell_setting 'orthorhombic'
loop_
_space_group_symop_operation_xyz
x,y,z
-x,-y,z
x,-y,1/2-z
-x,y,1/2-z
-x,-y,-z
x,y,-z
-x,y,1/2+z
x,-y,1/2+z
1/2+x,1/2+y,z
1/2-x,1/2-y,z
1/2+x,1/2-y,1/2-z
1/2-x,1/2+y,1/2-z
1/2-x,1/2-y,-z
1/2+x,1/2+y,-z
1/2-x,1/2+y,1/2+z
1/2+x,1/2-y,1/2+z
loop_
_atom_site_type_symbol
_atom_site_label
_atom_site_fract_x
_atom_site_fract_y
_atom_site_fract_z
Si Si1 0.799588 0.464331 0.866859
Si Si2 0.012748 0.668136 0.500000
Si Si3 0.500000 0.000000 0.250000
Si Si4 0.665473 0.242950 0.320291
Si Si5 0.998249 0.244842 0.143605
Si Si6 0.650730 0.656372 0.323951
Si Si7 0.814574 0.370013 0.500000
O O1 0.841457 0.571060 0.817498
O O2 0.710474 0.455368 0.850489
O O3 0.830321 0.305943 0.859064
O O4 0.810937 0.529829 0.937208
O O5 0.981483 0.722507 0.431651
O O6 0.102495 0.698762 0.500000
O O7 0.000000 0.500000 0.500000
O O8 0.483832 0.875903 0.193732
O O9 0.750000 0.250000 0.350667
O O10 0.587414 0.289771 0.352381
O O11 0.668674 0.314797 0.250772
O O12 0.937255 0.129009 0.166132
O O13 0.750000 0.250000 0.500000
#
# Coordination Sequence:
#
# PCOD9499806 Si02
#       7
#    16   8   4  16  16  16   8
#     4  11  24  42  67 100 140 180 227 289 348 422
#     4  12  24  41  64 106 138 172 234 305 349 409
#     4  12  20  38  68  92 134 178 230 296 352 404
#     4  12  23  41  69 100 138 184 237 287 347 424
#     4  12  24  38  67 100 139 179 236 296 349 418
#     4  11  24  41  66 105 140 181 228 289 365 413
#     4  12  26  46  72 100 134 186 239 287 349 425
#
# _framework density 24.413003
#
# number of rings (size 3 to 8) (size 9 to 14) (size 15 to 20)
#    0.000    0.381    6.667    3.429    0.000    2.286 
#    0.000    0.952    0.000    3.429    0.000    0.000 
#    0.000    0.000    0.000    0.000    0.000    0.000 
#
# Total GULP energy -234637.196404 kJ/mol
# GULP energy per Si atom -5586.599914 kJ/mol
# Density = 2.435744 g / cm^3
# Si number density = 24.413003 Si / 1000 Ang^3
#
#
#
# Elastic Constant Matrix: (Units=GPa)
#
#
# Indices 1 2 3 4 5 6 
#
# 1 187.7510 15.7080 7.7641 0.0000 0.0000 0.0000
# 2 15.7080 70.1147 13.5499 0.0000 0.0000 0.0000
# 3 7.7641 13.5499 174.5890 0.0000 0.0000 0.0000
# 4 0.0000 0.0000 0.0000 -9.0590 0.0000 0.0000
# 5 0.0000 0.0000 0.0000 0.0000 24.4065 0.0000
# 6 0.0000 0.0000 0.0000 0.0000 0.0000 46.5440
#
#
#
# Elastic Compliance Matrix: (Units=1/GPa)
#
#
# Indices 1 2 3 4 5 6 
#
# 1 0.005432 -0.001188 -0.000149 0.000000 0.000000 0.000000
# 2 -0.001188 0.014739 -0.001091 0.000000 0.000000 0.000000
# 3 -0.000149 -0.001091 0.005819 0.000000 0.000000 0.000000
# 4 0.000000 0.000000 0.000000 -0.110387 0.000000 0.000000
# 5 0.000000 0.000000 0.000000 0.000000 0.040973 0.000000
# 6 0.000000 0.000000 0.000000 0.000000 0.000000 0.021485
#
#
# Mechanical properties :
#
#
# Convention : Reuss Voigt Hill
#
# Bulk Modulus (GPa) = 47.31884 56.27765 51.79824
# Shear Modulus (GPa) = -498.10221 38.74047 -229.68087
#
# Velocity S-wave (km/s) = -14.29946 3.98789 -9.71008
# Velocity P-wave (km/s) = 15.91251 6.65633 10.22011
#
# Compressibility (1/GPa) = 0.02113323
#
# Stress axis : x y z
#
# Youngs Moduli (GPa) = 184.10183 67.84558 171.84908
#
# Poissons Ratio (x) = 0.08060 0.02567
# Poissons Ratio (y) = 0.21872 0.18750
# Poissons Ratio (z) = 0.02750 0.07403
#
# Static dielectric constant tensor:
#      x y z
#    x 2.056110 0.000000 0.000000 
#    y 0.000000 2.030670 0.000000 
#    z 0.000000 0.000000 1.907330 
# 
# From -- ./inp_files/50856.got.cif
#   From: 2010.05.17/outbox.cif.g08.bks.cpg/sg66_26_cif.got.tgz:50856.got - 2010.06.03 17:51:23.
