data_PCOD9499213
_publ_section_title
;
Structure prediction by ZEFSAII (Michael W. Deem and Ramdas Pophale) SiO2 
 PCOD9499213
Probable space group: C C C M
;
_chemical_formula_sum "Si O2"
_cell_formula_units_Z 96
_cell_length_a 19.742259
_cell_length_b 13.248947
_cell_length_c 17.978321
_cell_angle_alpha 90.000000
_cell_angle_beta 90.000000
_cell_angle_gamma 90.000000
_cell_volume 4702.484128
_symmetry_space_group_name_H-M "C C C M"
_symmetry_group_IT_number 66
_symmetry_cell_setting 'orthorhombic'
loop_
_space_group_symop_operation_xyz
x,y,z
-x,-y,z
x,-y,1/2-z
-x,y,1/2-z
-x,-y,-z
x,y,-z
-x,y,1/2+z
x,-y,1/2+z
1/2+x,1/2+y,z
1/2-x,1/2-y,z
1/2+x,1/2-y,1/2-z
1/2-x,1/2+y,1/2-z
1/2-x,1/2-y,-z
1/2+x,1/2+y,-z
1/2-x,1/2+y,1/2+z
1/2+x,1/2-y,1/2+z
loop_
_atom_site_type_symbol
_atom_site_label
_atom_site_fract_x
_atom_site_fract_y
_atom_site_fract_z
Si Si1 0.681262 0.192097 0.159839
Si Si2 0.961024 0.193564 0.675730
Si Si3 0.201758 0.479795 0.912395
Si Si4 0.840232 0.954925 0.831418
Si Si5 0.097131 0.598868 0.294304
Si Si6 0.913752 0.138921 0.087578
O O1 0.750000 0.250000 0.177859
O O2 0.647792 0.149099 0.234350
O O3 0.628731 0.267929 0.121324
O O4 0.699469 0.099337 0.105759
O O5 0.887254 0.143375 0.674903
O O6 0.954773 0.314420 0.681265
O O7 0.000000 0.157929 0.750000
O O8 0.008093 0.157647 0.608563
O O9 0.271437 0.439146 0.876797
O O10 0.139208 0.434278 0.866520
O O11 0.198470 0.461459 0.000000
O O12 0.823488 0.000000 0.750000
O O13 0.885152 0.039057 0.873217
O O14 0.072059 0.500000 0.250000
O O15 0.903684 0.132303 0.000000
#
# Coordination Sequence:
#
# PCOD9499213 Si02
#       6
#    16  16  16  16  16  16
#     4  11  21  41  72  97 131 176 230 276 328 400
#     4  12  25  44  67  94 132 181 227 269 329 403
#     4  11  25  42  65 104 140 171 218 284 348 394
#     4  12  23  40  68  97 136 180 226 269 328 406
#     4  10  24  44  71  99 128 175 231 280 334 404
#     4  12  26  42  67 103 139 176 225 282 335 391
#
# _framework density 20.414742
#
# number of rings (size 3 to 8) (size 9 to 14) (size 15 to 20)
#    0.000    0.667    5.000    3.000    2.333    3.667 
#    0.000    0.833    0.000    3.000    0.000    0.000 
#    0.000    0.000    0.000    0.000    0.000    0.000 
#
# Total GULP energy -268651.823673 kJ/mol
# GULP energy per Si atom -5596.912993 kJ/mol
# Density = 2.036828 g / cm^3
# Si number density = 20.414742 Si / 1000 Ang^3
#
#
#
# Elastic Constant Matrix: (Units=GPa)
#
#
# Indices 1 2 3 4 5 6 
#
# 1 66.5491 10.8987 18.0861 0.0000 0.0000 0.0000
# 2 10.8987 68.1448 24.5288 0.0000 0.0000 0.0000
# 3 18.0861 24.5288 127.8369 0.0000 0.0000 0.0000
# 4 0.0000 0.0000 0.0000 18.8681 0.0000 0.0000
# 5 0.0000 0.0000 0.0000 0.0000 -148.7120 0.0000
# 6 0.0000 0.0000 0.0000 0.0000 0.0000 41.7694
#
#
#
# Elastic Compliance Matrix: (Units=1/GPa)
#
#
# Indices 1 2 3 4 5 6 
#
# 1 0.015843 -0.001855 -0.001885 0.000000 0.000000 0.000000
# 2 -0.001855 0.015981 -0.002804 0.000000 0.000000 0.000000
# 3 -0.001885 -0.002804 0.008627 0.000000 0.000000 0.000000
# 4 0.000000 0.000000 0.000000 0.052999 0.000000 0.000000
# 5 0.000000 0.000000 0.000000 0.000000 -0.006724 0.000000
# 6 0.000000 0.000000 0.000000 0.000000 0.000000 0.023941
#
#
# Mechanical properties :
#
#
# Convention : Reuss Voigt Hill
#
# Bulk Modulus (GPa) = 36.54743 41.06200 38.80471
# Shear Modulus (GPa) = 37.62913 -3.68040 16.97436
#
# Velocity S-wave (km/s) = 4.29795 -1.34415 2.88666
# Velocity P-wave (km/s) = 6.52466 4.21291 5.49180
#
# Compressibility (1/GPa) = 0.02736170
#
# Stress axis : x y z
#
# Youngs Moduli (GPa) = 63.12044 62.57603 115.91241
#
# Poissons Ratio (x) = 0.11609 0.21855
# Poissons Ratio (y) = 0.11710 0.32500
# Poissons Ratio (z) = 0.11901 0.17545
#
# Static dielectric constant tensor:
#      x y z
#    x 1.730900 0.000000 0.000000 
#    y 0.000000 1.747740 0.000000 
#    z 0.000000 0.000000 1.687790 
# 
# From -- ./inp_files/43551.got.cif
#   From: 2010.05.17/outbox.cif.g08.bks.cpg/sg66_22_cif.got.tgz:43551.got - 2010.06.03 17:51:23.
