data_PCOD9499754
_publ_section_title
;
Structure prediction by ZEFSAII (Michael W. Deem and Ramdas Pophale) SiO2 
 PCOD9499754
Probable space group: C C C M
;
_chemical_formula_sum "Si O2"
_cell_formula_units_Z 64
_cell_length_a 10.120184
_cell_length_b 12.245872
_cell_length_c 25.224809
_cell_angle_alpha 90.000000
_cell_angle_beta 90.000000
_cell_angle_gamma 90.000000
_cell_volume 3126.122634
_symmetry_space_group_name_H-M "C C C M"
_symmetry_group_IT_number 66
_symmetry_cell_setting 'orthorhombic'
loop_
_space_group_symop_operation_xyz
x,y,z
-x,-y,z
x,-y,1/2-z
-x,y,1/2-z
-x,-y,-z
x,y,-z
-x,y,1/2+z
x,-y,1/2+z
1/2+x,1/2+y,z
1/2-x,1/2-y,z
1/2+x,1/2-y,1/2-z
1/2-x,1/2+y,1/2-z
1/2-x,1/2-y,-z
1/2+x,1/2+y,-z
1/2-x,1/2+y,1/2+z
1/2+x,1/2-y,1/2+z
loop_
_atom_site_type_symbol
_atom_site_label
_atom_site_fract_x
_atom_site_fract_y
_atom_site_fract_z
Si Si1 0.473547 0.627367 0.846732
Si Si2 0.907749 0.278612 0.061993
Si Si3 0.000000 0.500000 0.619680
Si Si4 0.295429 0.066775 0.299875
Si Si5 0.000000 0.736759 0.750000
O O1 0.500000 0.500000 0.852368
O O2 0.484426 0.692344 0.901184
O O3 0.320788 0.628028 0.829255
O O4 0.548816 0.686412 0.798224
O O5 0.750000 0.250000 0.066262
O O6 0.953348 0.396507 0.084963
O O7 0.940593 0.271919 0.000000
O O8 0.875933 0.487827 0.660120
O O9 0.395124 0.156111 0.276661
O O10 0.242431 0.000000 0.250000
#
# Coordination Sequence:
#
# PCOD9499754 Si02
#       5
#    16  16   8  16   8
#     4  12  25  41  61  97 139 173 214 268 333 401
#     4  11  23  43  70  95 125 171 226 280 330 392
#     4  12  20  42  66 100 124 165 221 286 320 400
#     4  12  21  38  64  97 134 173 217 266 334 403
#     4  12  20  38  60  94 128 171 211 268 318 388
#
# _framework density 20.472646000000001
#
# number of rings (size 3 to 8) (size 9 to 14) (size 15 to 20)
#    0.000    0.250    7.500    3.000    0.000    0.500 
#    0.000    1.250    0.000    1.500    0.000    0.000 
#    0.000    0.000    0.000    0.000    0.000    0.000 
#
# Total GULP energy -178737.038302 kJ/mol
# GULP energy per Si atom -5585.532447 kJ/mol
# Density = 2.042605 g / cm^3
# Si number density = 20.472646 Si / 1000 Ang^3
#
#
#
# Elastic Constant Matrix: (Units=GPa)
#
#
# Indices 1 2 3 4 5 6 
#
# 1 56.0708 30.6623 18.7934 0.0000 0.0000 0.0000
# 2 30.6623 149.9880 75.3841 0.0000 0.0000 0.0000
# 3 18.7934 75.3841 183.8183 0.0000 0.0000 0.0000
# 4 0.0000 0.0000 0.0000 17.8184 0.0000 0.0000
# 5 0.0000 0.0000 0.0000 0.0000 19.1187 0.0000
# 6 0.0000 0.0000 0.0000 0.0000 0.0000 35.5377
#
#
#
# Elastic Compliance Matrix: (Units=1/GPa)
#
#
# Indices 1 2 3 4 5 6 
#
# 1 0.020111 -0.003877 -0.000466 0.000000 0.000000 0.000000
# 2 -0.003877 0.009146 -0.003354 0.000000 0.000000 0.000000
# 3 -0.000466 -0.003354 0.006863 0.000000 0.000000 0.000000
# 4 0.000000 0.000000 0.000000 0.056122 0.000000 0.000000
# 5 0.000000 0.000000 0.000000 0.000000 0.052305 0.000000
# 6 0.000000 0.000000 0.000000 0.000000 0.000000 0.028139
#
#
# Mechanical properties :
#
#
# Convention : Reuss Voigt Hill
#
# Bulk Modulus (GPa) = 48.25056 71.06184 59.65620
# Shear Modulus (GPa) = 25.64249 32.16414 28.90331
#
# Velocity S-wave (km/s) = 3.54294 3.96798 3.76147
# Velocity P-wave (km/s) = 6.35264 7.46855 6.93308
#
# Compressibility (1/GPa) = 0.02072515
#
# Stress axis : x y z
#
# Youngs Moduli (GPa) = 49.72408 109.34169 145.70051
#
# Poissons Ratio (x) = 0.42392 0.06792
# Poissons Ratio (y) = 0.19278 0.48872
# Poissons Ratio (z) = 0.02318 0.36676
#
# Static dielectric constant tensor:
#      x y z
#    x 1.768120 0.000000 0.000000 
#    y 0.000000 1.777090 0.000000 
#    z 0.000000 0.000000 1.729440 
# 
# From -- ./inp_files/56338.got.cif
#   From: 2010.05.17/outbox.cif.g08.bks.cpg/sg66_29_cif.got.tgz:56338.got - 2010.06.03 17:51:23.
