data_PCOD9499010
_publ_section_title
;
Structure prediction by ZEFSAII (Michael W. Deem and Ramdas Pophale) SiO2 
 PCOD9499010
Probable space group: C C C M
;
_chemical_formula_sum "Si O2"
_cell_formula_units_Z 56
_cell_length_a 14.430849
_cell_length_b 5.709560
_cell_length_c 29.888006
_cell_angle_alpha 90.000000
_cell_angle_beta 90.000000
_cell_angle_gamma 90.000000
_cell_volume 2462.586335
_symmetry_space_group_name_H-M "C C C M"
_symmetry_group_IT_number 66
_symmetry_cell_setting 'orthorhombic'
loop_
_space_group_symop_operation_xyz
x,y,z
-x,-y,z
x,-y,1/2-z
-x,y,1/2-z
-x,-y,-z
x,y,-z
-x,y,1/2+z
x,-y,1/2+z
1/2+x,1/2+y,z
1/2-x,1/2-y,z
1/2+x,1/2-y,1/2-z
1/2-x,1/2+y,1/2-z
1/2-x,1/2-y,-z
1/2+x,1/2+y,-z
1/2-x,1/2+y,1/2+z
1/2+x,1/2-y,1/2+z
loop_
_atom_site_type_symbol
_atom_site_label
_atom_site_fract_x
_atom_site_fract_y
_atom_site_fract_z
Si Si1 0.143338 0.748134 0.766955
Si Si2 0.405002 0.143704 0.633384
Si Si3 0.150370 0.629516 0.452417
Si Si4 0.000000 0.000000 0.427127
O O1 0.102736 0.500000 0.750000
O O2 0.250000 0.750000 0.750683
O O3 0.140084 0.719828 0.820375
O O4 0.104663 0.000000 0.750000
O O5 0.429693 0.372547 0.605736
O O6 0.500000 0.000000 0.643195
O O7 0.351826 0.996779 0.595526
O O8 0.141377 0.490341 0.500000
O O9 0.250000 0.750000 0.454366
O O10 0.062667 0.807493 0.451790
#
# Coordination Sequence:
#
# PCOD9499010 Si02
#       4
#    16  16  16   8
#     4  10  24  43  69  99 131 177 231 285 350 415
#     4  10  24  42  63  95 133 175 224 283 343 411
#     4  10  23  41  66  98 132 178 229 280 346 415
#     4  10  23  40  63  96 132 180 222 285 341 412
#
# _framework density 22.740317999999998
#
# number of rings (size 3 to 8) (size 9 to 14) (size 15 to 20)
#    0.000    2.000    0.000    0.429   12.000    8.000 
#    0.000    2.857    0.000    0.000    0.000    0.000 
#    0.000    0.000    0.000    0.000    0.000    0.000 
#
# Total GULP energy -156056.590943 kJ/mol
# GULP energy per Si atom -5573.449677 kJ/mol
# Density = 2.268856 g / cm^3
# Si number density = 22.740318 Si / 1000 Ang^3
#
#
#
# Elastic Constant Matrix: (Units=GPa)
#
#
# Indices 1 2 3 4 5 6 
#
# 1 69.0304 11.6464 25.2898 0.0000 0.0000 0.0000
# 2 11.6464 124.7242 71.5574 0.0000 0.0000 0.0000
# 3 25.2898 71.5574 175.5106 0.0000 0.0000 0.0000
# 4 0.0000 0.0000 0.0000 49.9506 0.0000 0.0000
# 5 0.0000 0.0000 0.0000 0.0000 53.8871 0.0000
# 6 0.0000 0.0000 0.0000 0.0000 0.0000 1.1336
#
#
#
# Elastic Compliance Matrix: (Units=1/GPa)
#
#
# Indices 1 2 3 4 5 6 
#
# 1 0.015298 -0.000214 -0.002117 0.000000 0.000000 0.000000
# 2 -0.000214 0.010469 -0.004237 0.000000 0.000000 0.000000
# 3 -0.002117 -0.004237 0.007730 0.000000 0.000000 0.000000
# 4 0.000000 0.000000 0.000000 0.020020 0.000000 0.000000
# 5 0.000000 0.000000 0.000000 0.000000 0.018557 0.000000
# 6 0.000000 0.000000 0.000000 0.000000 0.000000 0.882155
#
#
# Mechanical properties :
#
#
# Convention : Reuss Voigt Hill
#
# Bulk Modulus (GPa) = 49.11488 65.13915 57.12702
# Shear Modulus (GPa) = 5.13267 38.37904 21.75586
#
# Velocity S-wave (km/s) = 1.50399 4.11263 3.09643
# Velocity P-wave (km/s) = 4.96599 7.15951 6.16115
#
# Compressibility (1/GPa) = 0.02036043
#
# Stress axis : x y z
#
# Youngs Moduli (GPa) = 65.36764 95.52231 129.36007
#
# Poissons Ratio (x) = 0.02042 0.27388
# Poissons Ratio (y) = 0.01398 0.54815
# Poissons Ratio (z) = 0.13839 0.40477
#
# Static dielectric constant tensor:
#      x y z
#    x 1.830330 0.000000 0.000000 
#    y 0.000000 1.930190 0.000000 
#    z 0.000000 0.000000 1.857060 
# 
# From -- ./inp_files/64886.got.cif
#   From: 2010.05.17/outbox.cif.g08.bks.cpg/sg66_33_cif.got.tgz:64886.got - 2010.06.03 17:51:23.
