data_PCOD9499901
_publ_section_title
;
Structure prediction by ZEFSAII (Michael W. Deem and Ramdas Pophale) SiO2 
 PCOD9499901
Probable space group: C C C M
;
_chemical_formula_sum "Si O2"
_cell_formula_units_Z 56
_cell_length_a 9.487173
_cell_length_b 20.976323
_cell_length_c 10.190074
_cell_angle_alpha 90.000000
_cell_angle_beta 90.000000
_cell_angle_gamma 90.000000
_cell_volume 2027.885919
_symmetry_space_group_name_H-M "C C C M"
_symmetry_group_IT_number 66
_symmetry_cell_setting 'orthorhombic'
loop_
_space_group_symop_operation_xyz
x,y,z
-x,-y,z
x,-y,1/2-z
-x,y,1/2-z
-x,-y,-z
x,y,-z
-x,y,1/2+z
x,-y,1/2+z
1/2+x,1/2+y,z
1/2-x,1/2-y,z
1/2+x,1/2-y,1/2-z
1/2-x,1/2+y,1/2-z
1/2-x,1/2-y,-z
1/2+x,1/2+y,-z
1/2-x,1/2+y,1/2+z
1/2+x,1/2-y,1/2+z
loop_
_atom_site_type_symbol
_atom_site_label
_atom_site_fract_x
_atom_site_fract_y
_atom_site_fract_z
Si Si1 0.619089 0.801039 0.827703
Si Si2 0.592864 0.793518 0.500000
Si Si3 0.794088 0.448827 0.352098
Si Si4 0.149295 0.142885 0.500000
Si Si5 0.500000 0.418767 0.750000
O O1 0.750000 0.750000 0.822006
O O2 0.565048 0.794286 0.665617
O O3 0.664848 0.875546 0.827826
O O4 0.589025 0.795164 0.000000
O O5 0.682337 0.860954 0.500000
O O6 0.635847 0.718510 0.500000
O O7 0.850306 0.500000 0.250000
O O8 0.830497 0.466097 0.500000
O O9 0.624324 0.451307 0.333079
O O10 0.080149 0.118866 0.633731
#
# Coordination Sequence:
#
# PCOD9499901 Si02
#       5
#    16   8  16   8   8
#     4  12  28  51  83 125 171 223 283 360 435 513
#     4  11  25  44  75 119 173 226 279 349 437 512
#     4  12  29  54  84 120 166 227 287 356 428 516
#     4  11  26  44  80 125 172 224 281 354 428 523
#     4  12  25  50  80 120 168 222 287 350 427 506
#
# _framework density 27.614965999999999
#
# number of rings (size 3 to 8) (size 9 to 14) (size 15 to 20)
#    0.000    0.286    2.857    4.286   14.000    1.714 
#    2.571    1.429    0.000    0.000    0.000    0.000 
#    0.000    0.000    0.000    0.000    0.000    0.000 
#
# Total GULP energy -156625.421531 kJ/mol
# GULP energy per Si atom -5593.765055 kJ/mol
# Density = 2.755211 g / cm^3
# Si number density = 27.614966 Si / 1000 Ang^3
#
#
#
# Elastic Constant Matrix: (Units=GPa)
#
#
# Indices 1 2 3 4 5 6 
#
# 1 156.0492 53.6909 77.2993 0.0000 0.0000 0.0000
# 2 53.6909 170.5260 82.4301 0.0000 0.0000 0.0000
# 3 77.2993 82.4301 339.6359 0.0000 0.0000 0.0000
# 4 0.0000 0.0000 0.0000 57.2900 0.0000 0.0000
# 5 0.0000 0.0000 0.0000 0.0000 73.7759 0.0000
# 6 0.0000 0.0000 0.0000 0.0000 0.0000 15.7697
#
#
#
# Elastic Compliance Matrix: (Units=1/GPa)
#
#
# Indices 1 2 3 4 5 6 
#
# 1 0.007672 -0.001780 -0.001314 0.000000 0.000000 0.000000
# 2 -0.001780 0.007057 -0.001307 0.000000 0.000000 0.000000
# 3 -0.001314 -0.001307 0.003561 0.000000 0.000000 0.000000
# 4 0.000000 0.000000 0.000000 0.017455 0.000000 0.000000
# 5 0.000000 0.000000 0.000000 0.000000 0.013555 0.000000
# 6 0.000000 0.000000 0.000000 0.000000 0.000000 0.063413
#
#
# Mechanical properties :
#
#
# Convention : Reuss Voigt Hill
#
# Bulk Modulus (GPa) = 105.42270 121.45017 113.43644
# Shear Modulus (GPa) = 40.10366 59.55316 49.82841
#
# Velocity S-wave (km/s) = 3.81497 4.64891 4.25243
# Velocity P-wave (km/s) = 7.59369 8.53767 8.07948
#
# Compressibility (1/GPa) = 0.00948562
#
# Stress axis : x y z
#
# Youngs Moduli (GPa) = 130.35023 141.70779 280.84316
#
# Poissons Ratio (x) = 0.25228 0.36901
# Poissons Ratio (y) = 0.23206 0.36720
# Poissons Ratio (z) = 0.17127 0.18528
#
# Static dielectric constant tensor:
#      x y z
#    x 0.241610 0.000000 0.000000 
#    y 0.000000 1.969010 0.000000 
#    z 0.000000 0.000000 2.235750 
# 
# From -- ./inp_files/6036.got.cif
#   From: 2010.05.17/outbox.cif.g08.bks.cpg/sg66_4_cif.got.tgz:6036.got - 2010.06.03 17:51:23.
