data_PCOD9499117
_publ_section_title
;
Structure prediction by ZEFSAII (Michael W. Deem and Ramdas Pophale) SiO2 
 PCOD9499117
Probable space group: C C C M
;
_chemical_formula_sum "Si O2"
_cell_formula_units_Z 36
_cell_length_a 11.070419
_cell_length_b 7.775995
_cell_length_c 16.843040
_cell_angle_alpha 90.000000
_cell_angle_beta 90.000000
_cell_angle_gamma 90.000000
_cell_volume 1449.908218
_symmetry_space_group_name_H-M "C C C M"
_symmetry_group_IT_number 66
_symmetry_cell_setting 'orthorhombic'
loop_
_space_group_symop_operation_xyz
x,y,z
-x,-y,z
x,-y,1/2-z
-x,y,1/2-z
-x,-y,-z
x,y,-z
-x,y,1/2+z
x,-y,1/2+z
1/2+x,1/2+y,z
1/2-x,1/2-y,z
1/2+x,1/2-y,1/2-z
1/2-x,1/2+y,1/2-z
1/2-x,1/2-y,-z
1/2+x,1/2+y,-z
1/2-x,1/2+y,1/2+z
1/2+x,1/2-y,1/2+z
loop_
_atom_site_type_symbol
_atom_site_label
_atom_site_fract_x
_atom_site_fract_y
_atom_site_fract_z
Si Si1 0.635838 0.865795 0.909708
Si Si2 0.500000 0.500000 0.750000
Si Si3 0.383465 0.773638 0.862915
O O1 0.750000 0.750000 0.890824
O O2 0.509914 0.763034 0.910251
O O3 0.624455 0.021260 0.848032
O O4 0.651717 0.933484 0.000000
O O5 0.410772 0.631361 0.796493
O O6 0.250000 0.750000 0.898768
#
# Coordination Sequence:
#
# PCOD9499117 Si02
#       3
#    16   4  16
#     4  10  23  44  69  99 133 170 222 286 346 402
#     4  12  28  42  62  98 140 186 232 274 332 408
#     4  11  24  43  66  95 132 177 227 279 333 400
#
# _framework density 24.829158
#
# number of rings (size 3 to 8) (size 9 to 14) (size 15 to 20)
#    0.000    1.333    0.000    5.333    0.000   16.000 
#    0.000    8.889    0.000    0.000    0.000    0.000 
#    0.000    0.000    0.000    0.000    0.000    0.000 
#
# Total GULP energy -100217.703084 kJ/mol
# GULP energy per Si atom -5567.650171 kJ/mol
# Density = 2.477265 g / cm^3
# Si number density = 24.829158 Si / 1000 Ang^3
#
#
#
# Elastic Constant Matrix: (Units=GPa)
#
#
# Indices 1 2 3 4 5 6 
#
# 1 281.5330 88.6239 32.3683 0.0000 0.0000 0.0000
# 2 88.6239 158.8195 84.1183 0.0000 0.0000 0.0000
# 3 32.3683 84.1183 86.3724 0.0000 0.0000 0.0000
# 4 0.0000 0.0000 0.0000 -17.1024 0.0000 0.0000
# 5 0.0000 0.0000 0.0000 0.0000 -32.2272 0.0000
# 6 0.0000 0.0000 0.0000 0.0000 0.0000 56.0965
#
#
#
# Elastic Compliance Matrix: (Units=1/GPa)
#
#
# Indices 1 2 3 4 5 6 
#
# 1 0.004405 -0.003271 0.001535 0.000000 0.000000 0.000000
# 2 -0.003271 0.015434 -0.013805 0.000000 0.000000 0.000000
# 3 0.001535 -0.013805 0.024447 0.000000 0.000000 0.000000
# 4 0.000000 0.000000 0.000000 -0.058471 0.000000 0.000000
# 5 0.000000 0.000000 0.000000 0.000000 -0.031030 0.000000
# 6 0.000000 0.000000 0.000000 0.000000 0.000000 0.017826
#
#
# Mechanical properties :
#
#
# Convention : Reuss Voigt Hill
#
# Bulk Modulus (GPa) = 75.73642 104.10510 89.92076
# Shear Modulus (GPa) = 617.67699 22.79433 320.23566
#
# Velocity S-wave (km/s) = 15.78958 3.03322 11.36906
# Velocity P-wave (km/s) = 19.05213 7.36796 14.44421
#
# Compressibility (1/GPa) = 0.01320369
#
# Stress axis : x y z
#
# Youngs Moduli (GPa) = 227.00248 64.79403 40.90454
#
# Poissons Ratio (x) = 0.21195 -0.06278
# Poissons Ratio (y) = 0.74256 0.56468
# Poissons Ratio (z) = -0.34843 0.89447
#
# Static dielectric constant tensor:
#      x y z
#    x 1.991580 0.000000 0.000000 
#    y 0.000000 2.042160 0.000000 
#    z 0.000000 0.000000 2.012720 
# 
# From -- ./inp_files/37416.got.cif
#   From: 2010.05.17/outbox.cif.g08.bks.cpg/sg66_19_cif.got.tgz:37416.got - 2010.06.03 17:51:23.
