data_PCOD9499791
_publ_section_title
;
Structure prediction by ZEFSAII (Michael W. Deem and Ramdas Pophale) SiO2 
 PCOD9499791
Probable space group: C C C M
;
_chemical_formula_sum "Si O2"
_cell_formula_units_Z 56
_cell_length_a 18.722359
_cell_length_b 9.129645
_cell_length_c 16.988714
_cell_angle_alpha 90.000000
_cell_angle_beta 90.000000
_cell_angle_gamma 90.000000
_cell_volume 2903.855252
_symmetry_space_group_name_H-M "C C C M"
_symmetry_group_IT_number 66
_symmetry_cell_setting 'orthorhombic'
loop_
_space_group_symop_operation_xyz
x,y,z
-x,-y,z
x,-y,1/2-z
-x,y,1/2-z
-x,-y,-z
x,y,-z
-x,y,1/2+z
x,-y,1/2+z
1/2+x,1/2+y,z
1/2-x,1/2-y,z
1/2+x,1/2-y,1/2-z
1/2-x,1/2+y,1/2-z
1/2-x,1/2-y,-z
1/2+x,1/2+y,-z
1/2-x,1/2+y,1/2+z
1/2+x,1/2-y,1/2+z
loop_
_atom_site_type_symbol
_atom_site_label
_atom_site_fract_x
_atom_site_fract_y
_atom_site_fract_z
Si Si1 0.806339 0.000000 0.750000
Si Si2 0.421912 0.248594 0.757494
Si Si3 0.421069 0.998787 0.376986
Si Si4 0.235647 0.575528 0.085888
O O1 0.857596 0.859148 0.746376
O O2 0.762604 0.997234 0.667760
O O3 0.500000 0.321044 0.750000
O O4 0.424199 0.121168 0.692019
O O5 0.412837 0.161499 0.838777
O O6 0.348394 0.041421 0.418927
O O7 0.500000 0.000000 0.414384
O O8 0.250000 0.750000 0.093325
O O9 0.267615 0.530205 0.000000
#
# Coordination Sequence:
#
# PCOD9499791 Si02
#       4
#     8  16  16  16
#     4  12  21  36  63  86 120 164 190 248 319 354
#     4   9  18  33  59  90 117 153 204 244 297 367
#     4   9  18  36  58  85 118 157 201 246 295 363
#     4  11  24  39  60  91 123 159 203 250 308 370
#
# _framework density 19.284707000000001
#
# number of rings (size 3 to 8) (size 9 to 14) (size 15 to 20)
#    0.000    2.000    2.857    3.857    0.000    0.571 
#    0.000    2.857    0.000    5.143    0.000    0.000 
#    0.000    0.000    0.000    0.000    0.000    0.000 
#
# Total GULP energy -155891.549219 kJ/mol
# GULP energy per Si atom -5567.555329 kJ/mol
# Density = 1.924081 g / cm^3
# Si number density = 19.284707 Si / 1000 Ang^3
#
#
#
# Elastic Constant Matrix: (Units=GPa)
#
#
# Indices 1 2 3 4 5 6 
#
# 1 147.1865 42.4446 59.6160 0.0000 0.0000 0.0000
# 2 42.4446 57.8850 24.4859 0.0000 0.0000 0.0000
# 3 59.6160 24.4859 139.1652 0.0000 0.0000 0.0000
# 4 0.0000 0.0000 0.0000 21.1834 0.0000 0.0000
# 5 0.0000 0.0000 0.0000 0.0000 -5.6029 0.0000
# 6 0.0000 0.0000 0.0000 0.0000 0.0000 33.8513
#
#
#
# Elastic Compliance Matrix: (Units=1/GPa)
#
#
# Indices 1 2 3 4 5 6 
#
# 1 0.009748 -0.005814 -0.003153 0.000000 0.000000 0.000000
# 2 -0.005814 0.022132 -0.001404 0.000000 0.000000 0.000000
# 3 -0.003153 -0.001404 0.008783 0.000000 0.000000 0.000000
# 4 0.000000 0.000000 0.000000 0.047207 0.000000 0.000000
# 5 0.000000 0.000000 0.000000 0.000000 -0.178479 0.000000
# 6 0.000000 0.000000 0.000000 0.000000 0.000000 0.029541
#
#
# Mechanical properties :
#
#
# Convention : Reuss Voigt Hill
#
# Bulk Modulus (GPa) = 50.19367 66.36995 58.28181
# Shear Modulus (GPa) = -148.42899 24.39904 -62.01498
#
# Velocity S-wave (km/s) = -8.78261 3.56083 -5.67692
# Velocity P-wave (km/s) = 8.76136 7.16914 3.56125
#
# Compressibility (1/GPa) = 0.01992283
#
# Stress axis : x y z
#
# Youngs Moduli (GPa) = 102.58866 45.18252 113.85289
#
# Poissons Ratio (x) = 0.26269 0.35895
# Poissons Ratio (y) = 0.59644 0.15980
# Poissons Ratio (z) = 0.32344 0.06342
#
# Static dielectric constant tensor:
#      x y z
#    x 1.702720 0.000000 0.000000 
#    y 0.000000 1.642370 0.000000 
#    z 0.000000 0.000000 1.734950 
# 
# From -- ./inp_files/36057.got.cif
#   From: 2010.05.17/outbox.cif.g08.bks.cpg/sg66_19_cif.got.tgz:36057.got - 2010.06.03 17:51:23.
