data_PCOD9499299
_publ_section_title
;
Structure prediction by ZEFSAII (Michael W. Deem and Ramdas Pophale) SiO2 
 PCOD9499299
Probable space group: C C C M
;
_chemical_formula_sum "Si O2"
_cell_formula_units_Z 92
_cell_length_a 20.163626
_cell_length_b 8.520149
_cell_length_c 24.694905
_cell_angle_alpha 90.000000
_cell_angle_beta 90.000000
_cell_angle_gamma 90.000000
_cell_volume 4242.513012
_symmetry_space_group_name_H-M "C C C M"
_symmetry_group_IT_number 66
_symmetry_cell_setting 'orthorhombic'
loop_
_space_group_symop_operation_xyz
x,y,z
-x,-y,z
x,-y,1/2-z
-x,y,1/2-z
-x,-y,-z
x,y,-z
-x,y,1/2+z
x,-y,1/2+z
1/2+x,1/2+y,z
1/2-x,1/2-y,z
1/2+x,1/2-y,1/2-z
1/2-x,1/2+y,1/2-z
1/2-x,1/2-y,-z
1/2+x,1/2+y,-z
1/2-x,1/2+y,1/2+z
1/2+x,1/2-y,1/2+z
loop_
_atom_site_type_symbol
_atom_site_label
_atom_site_fract_x
_atom_site_fract_y
_atom_site_fract_z
Si Si1 0.329066 0.733129 0.500000
Si Si2 0.950553 0.736892 0.605979
Si Si3 0.866786 0.452899 0.187449
Si Si4 0.416665 0.707590 0.336715
Si Si5 0.849411 0.996566 0.403119
Si Si6 0.250000 0.750000 0.136553
Si Si7 0.422644 0.039211 0.500000
Si Si8 0.000000 0.000000 0.750000
O O1 0.250000 0.750000 0.500000
O O2 0.344840 0.625320 0.448738
O O3 0.371252 0.894446 0.500000
O O4 0.923584 0.659079 0.661725
O O5 0.918105 0.903798 0.595127
O O6 0.920250 0.635081 0.556502
O O7 0.028136 0.762405 0.616022
O O8 0.870713 0.500000 0.250000
O O9 0.881355 0.623965 0.163848
O O10 0.800191 0.358568 0.171340
O O11 0.356012 0.589697 0.347477
O O12 0.456795 0.619462 0.288071
O O13 0.792166 0.868523 0.400461
O O14 0.500000 0.000000 0.500000
#
# Coordination Sequence:
#
# PCOD9499299 Si02
#       8
#     8  16  16  16  16   8   8   4
#     4  12  29  43  73 110 139 202 257 309 375 461
#     4  11  23  46  71 110 140 188 236 304 377 447
#     4  11  25  44  70 100 144 187 247 297 369 438
#     4  12  24  42  75 104 146 184 238 309 371 454
#     4  11  25  46  67  98 145 184 243 300 367 436
#     4  10  28  45  66  98 140 197 244 302 358 440
#     4  12  25  44  74 103 148 183 250 305 379 453
#     4  12  24  44  70 118 148 188 250 304 390 464
#
# _framework density 21.685258999999999
#
# number of rings (size 3 to 8) (size 9 to 14) (size 15 to 20)
#    0.000    0.696    1.739    5.217    9.739    2.435 
#    0.000    2.609    0.000    0.000    0.000    0.000 
#    0.000    0.000    0.000    0.000    0.000    0.000 
#
# Total GULP energy -256372.377389 kJ/mol
# GULP energy per Si atom -5573.312552 kJ/mol
# Density = 2.163590 g / cm^3
# Si number density = 21.685259 Si / 1000 Ang^3
#
#
#
# Elastic Constant Matrix: (Units=GPa)
#
#
# Indices 1 2 3 4 5 6 
#
# 1 86.8881 68.2560 23.2451 0.0000 0.0000 0.0000
# 2 68.2560 159.5987 38.4318 0.0000 0.0000 0.0000
# 3 23.2451 38.4318 82.9340 0.0000 0.0000 0.0000
# 4 0.0000 0.0000 0.0000 53.2774 0.0000 0.0000
# 5 0.0000 0.0000 0.0000 0.0000 40.7879 0.0000
# 6 0.0000 0.0000 0.0000 0.0000 0.0000 41.3905
#
#
#
# Elastic Compliance Matrix: (Units=1/GPa)
#
#
# Indices 1 2 3 4 5 6 
#
# 1 0.017523 -0.007104 -0.001619 0.000000 0.000000 0.000000
# 2 -0.007104 0.009933 -0.002612 0.000000 0.000000 0.000000
# 3 -0.001619 -0.002612 0.013722 0.000000 0.000000 0.000000
# 4 0.000000 0.000000 0.000000 0.018770 0.000000 0.000000
# 5 0.000000 0.000000 0.000000 0.000000 0.024517 0.000000
# 6 0.000000 0.000000 0.000000 0.000000 0.000000 0.024160
#
#
# Mechanical properties :
#
#
# Convention : Reuss Voigt Hill
#
# Bulk Modulus (GPa) = 54.03255 65.47631 59.75443
# Shear Modulus (GPa) = 36.37303 40.39035 38.38169
#
# Velocity S-wave (km/s) = 4.09995 4.32043 4.21163
# Velocity P-wave (km/s) = 6.88357 7.42615 7.16000
#
# Compressibility (1/GPa) = 0.01850736
#
# Stress axis : x y z
#
# Youngs Moduli (GPa) = 57.06762 100.67552 72.87597
#
# Poissons Ratio (x) = 0.71522 0.11801
# Poissons Ratio (y) = 0.40542 0.19033
# Poissons Ratio (z) = 0.09241 0.26294
#
# Static dielectric constant tensor:
#      x y z
#    x 1.742900 0.000000 0.000000 
#    y 0.000000 1.389780 0.000000 
#    z 0.000000 0.000000 1.923250 
# 
# From -- ./inp_files/59432.got.cif
#   From: 2010.05.17/outbox.cif.g08.bks.cpg/sg66_30_cif.got.tgz:59432.got - 2010.06.03 17:51:23.
