data_PCOD9499091
_publ_section_title
;
Structure prediction by ZEFSAII (Michael W. Deem and Ramdas Pophale) SiO2 
 PCOD9499091
Probable space group: C C C M
;
_chemical_formula_sum "Si O2"
_cell_formula_units_Z 88
_cell_length_a 11.274749
_cell_length_b 15.573822
_cell_length_c 25.411267
_cell_angle_alpha 90.000000
_cell_angle_beta 90.000000
_cell_angle_gamma 90.000000
_cell_volume 4461.988107
_symmetry_space_group_name_H-M "C C C M"
_symmetry_group_IT_number 66
_symmetry_cell_setting 'orthorhombic'
loop_
_space_group_symop_operation_xyz
x,y,z
-x,-y,z
x,-y,1/2-z
-x,y,1/2-z
-x,-y,-z
x,y,-z
-x,y,1/2+z
x,-y,1/2+z
1/2+x,1/2+y,z
1/2-x,1/2-y,z
1/2+x,1/2-y,1/2-z
1/2-x,1/2+y,1/2-z
1/2-x,1/2-y,-z
1/2+x,1/2+y,-z
1/2-x,1/2+y,1/2+z
1/2+x,1/2-y,1/2+z
loop_
_atom_site_type_symbol
_atom_site_label
_atom_site_fract_x
_atom_site_fract_y
_atom_site_fract_z
Si Si1 0.891511 0.758666 0.055755
Si Si2 0.853633 0.180528 0.337628
Si Si3 0.000000 0.276319 0.250000
Si Si4 0.813385 0.657995 0.336096
Si Si5 0.949955 0.595285 0.560052
Si Si6 0.363948 0.495761 0.687474
O O1 0.750000 0.750000 0.054102
O O2 0.924648 0.810312 0.107826
O O3 0.943482 0.663619 0.059562
O O4 0.932325 0.796870 0.000000
O O5 0.750000 0.250000 0.339461
O O6 0.930605 0.212171 0.288781
O O7 0.805978 0.084724 0.331777
O O8 0.910542 0.330942 0.211869
O O9 0.750000 0.750000 0.340947
O O10 0.871349 0.627619 0.391148
O O11 0.712808 0.587292 0.324936
O O12 0.897651 0.597093 0.500000
O O13 0.000000 0.500000 0.569179
O O14 0.500000 0.500000 0.667468
O O15 0.370223 0.500000 0.750000
#
# Coordination Sequence:
#
# PCOD9499091 Si02
#       6
#    16  16   8  16  16  16
#     4   9  19  37  64  92 123 162 208 264 331 392
#     4  11  22  38  63  91 123 164 209 268 320 388
#     4  12  22  42  64  92 134 172 222 272 330 398
#     4  12  26  42  65  97 132 177 219 272 338 403
#     4  10  23  43  67  96 129 169 221 282 341 400
#     4  11  24  42  63  88 127 174 216 264 329 397
#
# _framework density 19.722149999999999
#
# number of rings (size 3 to 8) (size 9 to 14) (size 15 to 20)
#    0.000    1.273    1.818    4.909    5.091    1.818 
#    0.000    0.909    0.000    1.091    0.000    0.000 
#    0.000    0.000    0.000    0.000    0.000    0.000 
#
# Total GULP energy -245426.435859 kJ/mol
# GULP energy per Si atom -5577.873542 kJ/mol
# Density = 1.967726 g / cm^3
# Si number density = 19.722150 Si / 1000 Ang^3
#
#
#
# Elastic Constant Matrix: (Units=GPa)
#
#
# Indices 1 2 3 4 5 6 
#
# 1 92.5184 58.6144 57.2148 0.0000 0.0000 0.0000
# 2 58.6144 166.2902 70.7539 0.0000 0.0000 0.0000
# 3 57.2148 70.7539 178.3217 0.0000 0.0000 0.0000
# 4 0.0000 0.0000 0.0000 15.0649 0.0000 0.0000
# 5 0.0000 0.0000 0.0000 0.0000 12.9634 0.0000
# 6 0.0000 0.0000 0.0000 0.0000 0.0000 31.2433
#
#
#
# Elastic Compliance Matrix: (Units=1/GPa)
#
#
# Indices 1 2 3 4 5 6 
#
# 1 0.015425 -0.004008 -0.003359 0.000000 0.000000 0.000000
# 2 -0.004008 0.008276 -0.001998 0.000000 0.000000 0.000000
# 3 -0.003359 -0.001998 0.007478 0.000000 0.000000 0.000000
# 4 0.000000 0.000000 0.000000 0.066380 0.000000 0.000000
# 5 0.000000 0.000000 0.000000 0.000000 0.077140 0.000000
# 6 0.000000 0.000000 0.000000 0.000000 0.000000 0.032007
#
#
# Mechanical properties :
#
#
# Convention : Reuss Voigt Hill
#
# Bulk Modulus (GPa) = 80.31977 90.03293 85.17635
# Shear Modulus (GPa) = 21.77833 28.55747 25.16790
#
# Velocity S-wave (km/s) = 3.32664 3.80937 3.57616
# Velocity P-wave (km/s) = 7.45449 8.06835 7.76749
#
# Compressibility (1/GPa) = 0.01245024
#
# Stress axis : x y z
#
# Youngs Moduli (GPa) = 64.82969 120.82564 133.72044
#
# Poissons Ratio (x) = 0.48426 0.44915
# Poissons Ratio (y) = 0.25983 0.26717
# Poissons Ratio (z) = 0.21776 0.24140
#
# Static dielectric constant tensor:
#      x y z
#    x 1.746180 0.000000 0.000000 
#    y 0.000000 1.710250 0.000000 
#    z 0.000000 0.000000 1.809030 
# 
# From -- ./inp_files/56728.got.cif
#   From: 2010.05.17/outbox.cif.g08.bks.cpg/sg66_29_cif.got.tgz:56728.got - 2010.06.03 17:51:23.
