data_PCOD9499073
_publ_section_title
;
Structure prediction by ZEFSAII (Michael W. Deem and Ramdas Pophale) SiO2 
 PCOD9499073
Probable space group: C C C M
;
_chemical_formula_sum "Si O2"
_cell_formula_units_Z 80
_cell_length_a 9.417320
_cell_length_b 16.973864
_cell_length_c 23.221402
_cell_angle_alpha 90.000000
_cell_angle_beta 90.000000
_cell_angle_gamma 90.000000
_cell_volume 3711.901841
_symmetry_space_group_name_H-M "C C C M"
_symmetry_group_IT_number 66
_symmetry_cell_setting 'orthorhombic'
loop_
_space_group_symop_operation_xyz
x,y,z
-x,-y,z
x,-y,1/2-z
-x,y,1/2-z
-x,-y,-z
x,y,-z
-x,y,1/2+z
x,-y,1/2+z
1/2+x,1/2+y,z
1/2-x,1/2-y,z
1/2+x,1/2-y,1/2-z
1/2-x,1/2+y,1/2-z
1/2-x,1/2-y,-z
1/2+x,1/2+y,-z
1/2-x,1/2+y,1/2+z
1/2+x,1/2-y,1/2+z
loop_
_atom_site_type_symbol
_atom_site_label
_atom_site_fract_x
_atom_site_fract_y
_atom_site_fract_z
Si Si1 0.794766 0.159799 0.000000
Si Si2 0.410690 0.579648 0.500000
Si Si3 0.963387 0.911731 0.182258
Si Si4 0.210236 0.563734 0.388332
Si Si5 0.594039 0.250547 0.194278
Si Si6 0.889534 0.393508 0.107160
O O1 0.750000 0.250000 0.000000
O O2 0.715925 0.122640 0.054706
O O3 0.964484 0.145451 0.000000
O O4 0.500000 0.500000 0.500000
O O5 0.312920 0.576779 0.443189
O O6 0.799628 0.898347 0.164186
O O7 0.000000 0.915140 0.250000
O O8 0.050232 0.833535 0.164133
O O9 0.000000 0.000000 0.158787
O O10 0.175091 0.474490 0.368031
O O11 0.055141 0.593058 0.407695
O O12 0.500000 0.236419 0.250000
O O13 0.750000 0.250000 0.219264
O O14 0.600191 0.180376 0.149015
#
# Coordination Sequence:
#
# PCOD9499073 Si02
#       6
#     8   8  16  16  16  16
#     4  12  27  45  67 105 138 181 223 294 342 417
#     4  12  23  43  75  99 138 180 238 275 354 415
#     4  10  23  42  70  97 134 176 236 280 338 411
#     4  11  24  44  71 102 132 189 226 290 338 422
#     4  11  26  44  70 100 139 185 227 291 351 416
#     4  11  25  46  69 100 145 175 233 282 358 404
#
# _framework density 21.552294
#
# number of rings (size 3 to 8) (size 9 to 14) (size 15 to 20)
#    0.000    1.000    2.000    3.000   11.200    1.600 
#    0.000    2.000    0.000    0.000    0.000    0.000 
#    0.000    0.000    0.000    0.000    0.000    0.000 
#
# Total GULP energy -223157.876884 kJ/mol
# GULP energy per Si atom -5578.946922 kJ/mol
# Density = 2.150324 g / cm^3
# Si number density = 21.552294 Si / 1000 Ang^3
#
#
#
# Elastic Constant Matrix: (Units=GPa)
#
#
# Indices 1 2 3 4 5 6 
#
# 1 196.2550 53.9802 53.6775 0.0000 0.0000 0.0000
# 2 53.9802 110.5862 37.7532 0.0000 0.0000 0.0000
# 3 53.6775 37.7532 87.6270 0.0000 0.0000 0.0000
# 4 0.0000 0.0000 0.0000 -36.7010 0.0000 0.0000
# 5 0.0000 0.0000 0.0000 0.0000 42.0806 0.0000
# 6 0.0000 0.0000 0.0000 0.0000 0.0000 37.2445
#
#
#
# Elastic Compliance Matrix: (Units=1/GPa)
#
#
# Indices 1 2 3 4 5 6 
#
# 1 0.006524 -0.002134 -0.003077 0.000000 0.000000 0.000000
# 2 -0.002134 0.011300 -0.003561 0.000000 0.000000 0.000000
# 3 -0.003077 -0.003561 0.014831 0.000000 0.000000 0.000000
# 4 0.000000 0.000000 0.000000 -0.027247 0.000000 0.000000
# 5 0.000000 0.000000 0.000000 0.000000 0.023764 0.000000
# 6 0.000000 0.000000 0.000000 0.000000 0.000000 0.026850
#
#
# Mechanical properties :
#
#
# Convention : Reuss Voigt Hill
#
# Bulk Modulus (GPa) = 66.17813 76.14333 71.16073
# Shear Modulus (GPa) = 63.61059 25.12863 44.36961
#
# Velocity S-wave (km/s) = 5.43862 3.41829 4.54221
# Velocity P-wave (km/s) = 8.37918 7.14044 7.78449
#
# Compressibility (1/GPa) = 0.01511073
#
# Stress axis : x y z
#
# Youngs Moduli (GPa) = 153.28114 88.49374 67.42550
#
# Poissons Ratio (x) = 0.18885 0.20746
# Poissons Ratio (y) = 0.32712 0.24012
# Poissons Ratio (z) = 0.47163 0.31515
#
# Static dielectric constant tensor:
#      x y z
#    x 1.556670 0.000000 0.000000 
#    y 0.000000 1.859230 0.000000 
#    z 0.000000 0.000000 1.801000 
# 
# From -- ./inp_files/62438.got.cif
#   From: 2010.05.17/outbox.cif.g08.bks.cpg/sg66_32_cif.got.tgz:62438.got - 2010.06.03 17:51:23.
