data_PCOD9499160
_publ_section_title
;
Structure prediction by ZEFSAII (Michael W. Deem and Ramdas Pophale) SiO2 
 PCOD9499160
Probable space group: C C C M
;
_chemical_formula_sum "Si O2"
_cell_formula_units_Z 112
_cell_length_a 11.416032
_cell_length_b 14.218617
_cell_length_c 30.565035
_cell_angle_alpha 90.000000
_cell_angle_beta 90.000000
_cell_angle_gamma 90.000000
_cell_volume 4961.322187
_symmetry_space_group_name_H-M "C C C M"
_symmetry_group_IT_number 66
_symmetry_cell_setting 'orthorhombic'
loop_
_space_group_symop_operation_xyz
x,y,z
-x,-y,z
x,-y,1/2-z
-x,y,1/2-z
-x,-y,-z
x,y,-z
-x,y,1/2+z
x,-y,1/2+z
1/2+x,1/2+y,z
1/2-x,1/2-y,z
1/2+x,1/2-y,1/2-z
1/2-x,1/2+y,1/2-z
1/2-x,1/2-y,-z
1/2+x,1/2+y,-z
1/2-x,1/2+y,1/2+z
1/2+x,1/2-y,1/2+z
loop_
_atom_site_type_symbol
_atom_site_label
_atom_site_fract_x
_atom_site_fract_y
_atom_site_fract_z
Si Si1 0.424396 0.822783 0.707540
Si Si2 0.668030 0.387494 0.284607
Si Si3 0.878541 0.440011 0.121699
Si Si4 0.800065 0.019864 0.048706
Si Si5 0.337113 0.424526 0.681033
Si Si6 0.979969 0.152994 0.548610
Si Si7 0.550772 0.750859 0.372334
O O1 0.500000 0.845678 0.750000
O O2 0.386692 0.713672 0.708449
O O3 0.306347 0.881151 0.707370
O O4 0.497480 0.822672 0.663488
O O5 0.618456 0.466736 0.317356
O O6 0.652210 0.403192 0.232698
O O7 0.794597 0.490999 0.086291
O O8 0.796964 0.432765 0.165116
O O9 0.874246 0.331168 0.103691
O O10 0.000000 0.500000 0.123936
O O11 0.886494 0.930525 0.049084
O O12 0.748249 0.027905 0.000000
O O13 0.890668 0.106920 0.054927
O O14 0.392234 0.338243 0.653149
O O15 0.975720 0.196844 0.500000
O O16 0.961266 0.215147 0.591386
#
# Coordination Sequence:
#
# PCOD9499160 Si02
#       7
#    16  16  16  16  16  16  16
#     4  11  22  40  63  94 135 176 221 274 333 395
#     4  10  24  41  63  92 130 178 221 274 330 401
#     4  12  26  42  64  98 135 177 220 271 341 409
#     4   9  20  41  68  97 133 173 218 274 338 406
#     4  11  23  42  64  93 129 174 228 272 331 390
#     4   9  20  41  70 102 131 171 224 283 344 397
#     4  12  24  40  69  99 133 172 225 288 332 399
#
# _framework density 22.574629000000002
#
# number of rings (size 3 to 8) (size 9 to 14) (size 15 to 20)
#    0.000    1.429    2.857    3.000    4.000    1.429 
#    0.000    2.857    0.000    1.714    0.000    0.000 
#    0.000    0.000    0.000    0.000    0.000    0.000 
#
# Total GULP energy -312253.243260 kJ/mol
# GULP energy per Si atom -5575.950772 kJ/mol
# Density = 2.252325 g / cm^3
# Si number density = 22.574629 Si / 1000 Ang^3
#
#
#
# Elastic Constant Matrix: (Units=GPa)
#
#
# Indices 1 2 3 4 5 6 
#
# 1 79.5905 15.2390 17.4893 0.0000 0.0000 0.0000
# 2 15.2390 97.5385 28.8435 0.0000 0.0000 0.0000
# 3 17.4893 28.8435 71.3345 0.0000 0.0000 0.0000
# 4 0.0000 0.0000 0.0000 -33.6726 0.0000 0.0000
# 5 0.0000 0.0000 0.0000 0.0000 40.8962 0.0000
# 6 0.0000 0.0000 0.0000 0.0000 0.0000 21.3602
#
#
#
# Elastic Compliance Matrix: (Units=1/GPa)
#
#
# Indices 1 2 3 4 5 6 
#
# 1 0.013418 -0.001276 -0.002774 0.000000 0.000000 0.000000
# 2 -0.001276 0.011766 -0.004445 0.000000 0.000000 0.000000
# 3 -0.002774 -0.004445 0.016496 0.000000 0.000000 0.000000
# 4 0.000000 0.000000 0.000000 -0.029698 0.000000 0.000000
# 5 0.000000 0.000000 0.000000 0.000000 0.024452 0.000000
# 6 0.000000 0.000000 0.000000 0.000000 0.000000 0.046816
#
#
# Mechanical properties :
#
#
# Convention : Reuss Voigt Hill
#
# Bulk Modulus (GPa) = 40.50092 41.28967 40.89529
# Shear Modulus (GPa) = 46.09585 18.17622 32.13603
#
# Velocity S-wave (km/s) = 4.52368 2.84061 3.77708
# Velocity P-wave (km/s) = 6.72791 5.39340 6.09727
#
# Compressibility (1/GPa) = 0.02469080
#
# Stress axis : x y z
#
# Youngs Moduli (GPa) = 74.52580 84.99009 60.62205
#
# Poissons Ratio (x) = 0.10846 0.16815
# Poissons Ratio (y) = 0.09511 0.26944
# Poissons Ratio (z) = 0.20672 0.37775
#
# Static dielectric constant tensor:
#      x y z
#    x 1.954200 0.000000 0.000000 
#    y 0.000000 2.516840 0.000000 
#    z 0.000000 0.000000 1.868290 
# 
# From -- ./inp_files/69109.got.cif
#   From: 2010.05.17/outbox.cif.g08.bks.cpg/sg66_35_cif.got.tgz:69109.got - 2010.06.03 17:51:23.
