data_PCOD9499373
_publ_section_title
;
Structure prediction by ZEFSAII (Michael W. Deem and Ramdas Pophale) SiO2 
 PCOD9499373
Probable space group: C C C M
;
_chemical_formula_sum "Si O2"
_cell_formula_units_Z 96
_cell_length_a 9.947051
_cell_length_b 22.460538
_cell_length_c 22.020238
_cell_angle_alpha 90.000000
_cell_angle_beta 90.000000
_cell_angle_gamma 90.000000
_cell_volume 4919.676069
_symmetry_space_group_name_H-M "C C C M"
_symmetry_group_IT_number 66
_symmetry_cell_setting 'orthorhombic'
loop_
_space_group_symop_operation_xyz
x,y,z
-x,-y,z
x,-y,1/2-z
-x,y,1/2-z
-x,-y,-z
x,y,-z
-x,y,1/2+z
x,-y,1/2+z
1/2+x,1/2+y,z
1/2-x,1/2-y,z
1/2+x,1/2-y,1/2-z
1/2-x,1/2+y,1/2-z
1/2-x,1/2-y,-z
1/2+x,1/2+y,-z
1/2-x,1/2+y,1/2+z
1/2+x,1/2-y,1/2+z
loop_
_atom_site_type_symbol
_atom_site_label
_atom_site_fract_x
_atom_site_fract_y
_atom_site_fract_z
Si Si1 0.556651 0.190140 0.429825
Si Si2 0.160484 0.570969 0.759357
Si Si3 0.295689 0.113964 0.396196
Si Si4 0.479684 0.672345 0.928864
Si Si5 0.351287 0.987835 0.568796
Si Si6 0.775073 0.121014 0.639756
O O1 0.599906 0.183176 0.500000
O O2 0.433723 0.145556 0.416134
O O3 0.508067 0.257565 0.421725
O O4 0.677784 0.172631 0.385820
O O5 0.186174 0.500000 0.750000
O O6 0.196486 0.594750 0.825936
O O7 0.245273 0.607888 0.709833
O O8 0.000000 0.579800 0.750000
O O9 0.172693 0.156311 0.412713
O O10 0.279943 0.051308 0.430559
O O11 0.577213 0.636987 0.883298
O O12 0.506602 0.657230 0.000000
O O13 0.369956 0.966339 0.500000
O O14 0.500000 0.000000 0.595812
O O15 0.274123 0.938943 0.606407
#
# Coordination Sequence:
#
# PCOD9499373 Si02
#       6
#    16  16  16  16  16  16
#     4  11  22  42  69  94 128 174 222 269 316 379
#     4  11  22  43  68  94 127 170 217 270 318 379
#     4  12  23  41  66  97 128 170 219 262 324 384
#     4  11  26  44  63  96 138 174 208 265 334 385
#     4  11  20  34  62  95 122 157 215 274 319 376
#     4  12  23  41  66  97 128 170 219 262 324 384
#
# _framework density 19.513480000000001
#
# number of rings (size 3 to 8) (size 9 to 14) (size 15 to 20)
#    0.000    0.667    5.000    4.000    0.000    4.000 
#    0.000    7.500    0.000    0.000    0.000    0.000 
#    0.000    0.000    0.000    0.000    0.000    0.000 
#
# Total GULP energy -268458.122709 kJ/mol
# GULP energy per Si atom -5592.877556 kJ/mol
# Density = 1.946907 g / cm^3
# Si number density = 19.513480 Si / 1000 Ang^3
#
#
#
# Elastic Constant Matrix: (Units=GPa)
#
#
# Indices 1 2 3 4 5 6 
#
# 1 37.7589 -13.7974 -3.3641 0.0000 0.0000 0.0000
# 2 -13.7974 59.5789 16.4904 0.0000 0.0000 0.0000
# 3 -3.3641 16.4904 110.4017 0.0000 0.0000 0.0000
# 4 0.0000 0.0000 0.0000 43.5560 0.0000 0.0000
# 5 0.0000 0.0000 0.0000 0.0000 38.6463 0.0000
# 6 0.0000 0.0000 0.0000 0.0000 0.0000 9.9790
#
#
#
# Elastic Compliance Matrix: (Units=1/GPa)
#
#
# Indices 1 2 3 4 5 6 
#
# 1 0.028934 0.006735 -0.000124 0.000000 0.000000 0.000000
# 2 0.006735 0.019076 -0.002644 0.000000 0.000000 0.000000
# 3 -0.000124 -0.002644 0.009449 0.000000 0.000000 0.000000
# 4 0.000000 0.000000 0.000000 0.022959 0.000000 0.000000
# 5 0.000000 0.000000 0.000000 0.000000 0.025876 0.000000
# 6 0.000000 0.000000 0.000000 0.000000 0.000000 0.100211
#
#
# Mechanical properties :
#
#
# Convention : Reuss Voigt Hill
#
# Bulk Modulus (GPa) = 15.29244 22.93303 19.11274
# Shear Modulus (GPa) = 22.68930 32.33029 27.50980
#
# Velocity S-wave (km/s) = 3.41361 4.07482 3.75878
# Velocity P-wave (km/s) = 4.83641 5.82381 5.35293
#
# Compressibility (1/GPa) = 0.06539179
#
# Stress axis : x y z
#
# Youngs Moduli (GPa) = 34.56168 52.42192 105.83145
#
# Poissons Ratio (x) = -0.35306 0.01316
# Poissons Ratio (y) = -0.23277 0.27983
# Poissons Ratio (z) = 0.00430 0.13861
#
# Static dielectric constant tensor:
#      x y z
#    x 1.672670 0.000000 0.000000 
#    y 0.000000 1.678270 0.000000 
#    z 0.000000 0.000000 1.682550 
# 
# From -- ./inp_files/55621.got.cif
#   From: 2010.05.17/outbox.cif.g08.bks.cpg/sg66_28_cif.got.tgz:55621.got - 2010.06.03 17:51:23.
