data_PCOD9499037
_publ_section_title
;
Structure prediction by ZEFSAII (Michael W. Deem and Ramdas Pophale) SiO2 
 PCOD9499037
Probable space group: C C C M
;
_chemical_formula_sum "Si O2"
_cell_formula_units_Z 64
_cell_length_a 9.299445
_cell_length_b 10.708710
_cell_length_c 33.097222
_cell_angle_alpha 90.000000
_cell_angle_beta 90.000000
_cell_angle_gamma 90.000000
_cell_volume 3295.988828
_symmetry_space_group_name_H-M "C C C M"
_symmetry_group_IT_number 66
_symmetry_cell_setting 'orthorhombic'
loop_
_space_group_symop_operation_xyz
x,y,z
-x,-y,z
x,-y,1/2-z
-x,y,1/2-z
-x,-y,-z
x,y,-z
-x,y,1/2+z
x,-y,1/2+z
1/2+x,1/2+y,z
1/2-x,1/2-y,z
1/2+x,1/2-y,1/2-z
1/2-x,1/2+y,1/2-z
1/2-x,1/2-y,-z
1/2+x,1/2+y,-z
1/2-x,1/2+y,1/2+z
1/2+x,1/2-y,1/2+z
loop_
_atom_site_type_symbol
_atom_site_label
_atom_site_fract_x
_atom_site_fract_y
_atom_site_fract_z
Si Si1 0.429217 0.377349 0.794109
Si Si2 0.163260 0.623190 0.414344
Si Si3 0.152953 0.369157 0.548143
Si Si4 0.113011 0.606605 0.320158
O O1 0.500000 0.500000 0.813821
O O2 0.500000 0.366639 0.750000
O O3 0.257495 0.397770 0.793453
O O4 0.452281 0.245337 0.815831
O O5 0.250000 0.750000 0.421422
O O6 0.219892 0.500660 0.437482
O O7 0.160424 0.593404 0.366696
O O8 0.000225 0.641334 0.429723
O O9 0.129913 0.373187 0.500000
O O10 0.250000 0.250000 0.557866
O O11 0.000000 0.500000 0.309464
#
# Coordination Sequence:
#
# PCOD9499037 Si02
#       4
#    16  16  16  16
#     4  10  24  43  63  93 126 158 207 264 322 388
#     4  11  21  41  64  95 131 165 215 268 312 374
#     4  10  23  41  64  97 135 175 216 261 321 380
#     4  11  23  43  66  94 125 165 214 259 323 381
#
# _framework density 19.417539999999999
#
# number of rings (size 3 to 8) (size 9 to 14) (size 15 to 20)
#    0.000    1.500    5.000    1.500    0.000   14.500 
#    0.000    2.500    0.000    0.000    0.000    0.000 
#    0.000    0.000    0.000    0.000    0.000    0.000 
#
# Total GULP energy -178665.980741 kJ/mol
# GULP energy per Si atom -5583.311898 kJ/mol
# Density = 1.937335 g / cm^3
# Si number density = 19.417540 Si / 1000 Ang^3
#
#
#
# Elastic Constant Matrix: (Units=GPa)
#
#
# Indices 1 2 3 4 5 6 
#
# 1 82.4367 77.8764 35.1318 0.0000 0.0000 0.0000
# 2 77.8764 168.6856 14.8153 0.0000 0.0000 0.0000
# 3 35.1318 14.8153 77.2699 0.0000 0.0000 0.0000
# 4 0.0000 0.0000 0.0000 26.1328 0.0000 0.0000
# 5 0.0000 0.0000 0.0000 0.0000 4.3475 0.0000
# 6 0.0000 0.0000 0.0000 0.0000 0.0000 48.3612
#
#
#
# Elastic Compliance Matrix: (Units=1/GPa)
#
#
# Indices 1 2 3 4 5 6 
#
# 1 0.027818 -0.011933 -0.010360 0.000000 0.000000 0.000000
# 2 -0.011933 0.011148 0.003288 0.000000 0.000000 0.000000
# 3 -0.010360 0.003288 0.017022 0.000000 0.000000 0.000000
# 4 0.000000 0.000000 0.000000 0.038266 0.000000 0.000000
# 5 0.000000 0.000000 0.000000 0.000000 0.230019 0.000000
# 6 0.000000 0.000000 0.000000 0.000000 0.000000 0.020678
#
#
# Mechanical properties :
#
#
# Convention : Reuss Voigt Hill
#
# Bulk Modulus (GPa) = 55.62257 64.89327 60.25792
# Shear Modulus (GPa) = 12.85497 29.13953 20.99725
#
# Velocity S-wave (km/s) = 2.57578 3.87806 3.29196
# Velocity P-wave (km/s) = 6.12813 7.31744 6.74903
#
# Compressibility (1/GPa) = 0.01797831
#
# Stress axis : x y z
#
# Youngs Moduli (GPa) = 35.94734 89.69867 58.74892
#
# Poissons Ratio (x) = 1.07037 0.60864
# Poissons Ratio (y) = 0.42896 -0.19316
# Poissons Ratio (z) = 0.37242 -0.29492
#
# Static dielectric constant tensor:
#      x y z
#    x 1.662940 0.000000 0.000000 
#    y 0.000000 1.707580 0.000000 
#    z 0.000000 0.000000 1.671100 
# 
# From -- ./inp_files/67893.got.cif
#   From: 2010.05.17/outbox.cif.g08.bks.cpg/sg66_34_cif.got.tgz:67893.got - 2010.06.03 17:51:23.
