data_PCOD9499864
_publ_section_title
;
Structure prediction by ZEFSAII (Michael W. Deem and Ramdas Pophale) SiO2 
 PCOD9499864
Probable space group: C C C M
;
_chemical_formula_sum "Si O2"
_cell_formula_units_Z 72
_cell_length_a 14.492648
_cell_length_b 8.776866
_cell_length_c 26.764662
_cell_angle_alpha 90.000000
_cell_angle_beta 90.000000
_cell_angle_gamma 90.000000
_cell_volume 3404.465795
_symmetry_space_group_name_H-M "C C C M"
_symmetry_group_IT_number 66
_symmetry_cell_setting 'orthorhombic'
loop_
_space_group_symop_operation_xyz
x,y,z
-x,-y,z
x,-y,1/2-z
-x,y,1/2-z
-x,-y,-z
x,y,-z
-x,y,1/2+z
x,-y,1/2+z
1/2+x,1/2+y,z
1/2-x,1/2-y,z
1/2+x,1/2-y,1/2-z
1/2-x,1/2+y,1/2-z
1/2-x,1/2-y,-z
1/2+x,1/2+y,-z
1/2-x,1/2+y,1/2+z
1/2+x,1/2-y,1/2+z
loop_
_atom_site_type_symbol
_atom_site_label
_atom_site_fract_x
_atom_site_fract_y
_atom_site_fract_z
Si Si1 0.394905 0.196668 0.605647
Si Si2 0.645042 0.000000 0.250000
Si Si3 0.791183 0.004180 0.109197
Si Si4 0.500000 0.000000 0.333231
Si Si5 0.477940 0.180910 0.500000
Si Si6 0.250000 0.750000 0.686640
Si Si7 0.167679 0.871158 0.500000
O O1 0.315159 0.066226 0.609960
O O2 0.353115 0.352733 0.626080
O O3 0.491748 0.142426 0.629641
O O4 0.417239 0.216951 0.547986
O O5 0.580734 0.046605 0.204155
O O6 0.698386 0.138290 0.275103
O O7 0.800803 0.864624 0.147851
O O8 0.818940 0.960257 0.052505
O O9 0.570468 0.281986 0.500000
O O10 0.500000 0.000000 0.500000
O O11 0.250000 0.750000 0.500000
#
# Coordination Sequence:
#
# PCOD9499864 Si02
#       7
#    16   8  16   8   8   8   8
#     4  11  24  45  73 105 144 189 235 284 364 429
#     4  11  28  46  74  95 138 178 238 305 364 422
#     4  11  25  45  74 107 144 190 237 292 353 440
#     4  11  24  47  70 100 134 181 230 303 358 424
#     4  12  25  40  69 106 152 196 227 287 354 429
#     4  12  26  47  76 104 134 189 240 300 364 428
#     4  12  25  42  67 108 152 190 237 287 346 433
#
# _framework density 21.148692
#
# number of rings (size 3 to 8) (size 9 to 14) (size 15 to 20)
#    0.000    0.667    4.444    2.667    6.222    3.556 
#    0.000    0.000    0.000    0.000    0.000    0.000 
#    0.000    0.000    0.000    0.000    0.000    0.000 
#
# Total GULP energy -200725.314443 kJ/mol
# GULP energy per Si atom -5575.703179 kJ/mol
# Density = 2.110056 g / cm^3
# Si number density = 21.148692 Si / 1000 Ang^3
#
#
#
# Elastic Constant Matrix: (Units=GPa)
#
#
# Indices 1 2 3 4 5 6 
#
# 1 53.2296 41.0867 36.8340 0.0000 0.0000 0.0000
# 2 41.0867 132.7580 60.3337 0.0000 0.0000 0.0000
# 3 36.8340 60.3337 150.4522 0.0000 0.0000 0.0000
# 4 0.0000 0.0000 0.0000 40.9782 0.0000 0.0000
# 5 0.0000 0.0000 0.0000 0.0000-1178.3260 0.0000
# 6 0.0000 0.0000 0.0000 0.0000 0.0000 31.9380
#
#
#
# Elastic Compliance Matrix: (Units=1/GPa)
#
#
# Indices 1 2 3 4 5 6 
#
# 1 0.026432 -0.006407 -0.003902 0.000000 0.000000 0.000000
# 2 -0.006407 0.010764 -0.002748 0.000000 0.000000 0.000000
# 3 -0.003902 -0.002748 0.008704 0.000000 0.000000 0.000000
# 4 0.000000 0.000000 0.000000 0.024403 0.000000 0.000000
# 5 0.000000 0.000000 0.000000 0.000000 -0.000849 0.000000
# 6 0.000000 0.000000 0.000000 0.000000 0.000000 0.031311
#
#
# Mechanical properties :
#
#
# Convention : Reuss Voigt Hill
#
# Bulk Modulus (GPa) = 50.54003 68.10539 59.32271
# Shear Modulus (GPa) = 37.46030 -207.86960 -85.20465
#
# Velocity S-wave (km/s) = 4.21323 -9.92487 -6.35420
# Velocity P-wave (km/s) = 6.90056 9.95310 5.07181
#
# Compressibility (1/GPa) = 0.01978630
#
# Stress axis : x y z
#
# Youngs Moduli (GPa) = 37.83299 92.89972 114.89124
#
# Poissons Ratio (x) = 0.59522 0.44828
# Poissons Ratio (y) = 0.24240 0.31573
# Poissons Ratio (z) = 0.14762 0.25529
#
# Static dielectric constant tensor:
#      x y z
#    x 1.828670 0.000000 0.000000 
#    y 0.000000 2.053140 0.000000 
#    z 0.000000 0.000000 1.753200 
# 
# From -- ./inp_files/64402.got.cif
#   From: 2010.05.17/outbox.cif.g08.bks.cpg/sg66_33_cif.got.tgz:64402.got - 2010.06.03 17:51:23.
