data_PCOD9499296
_publ_section_title
;
Structure prediction by ZEFSAII (Michael W. Deem and Ramdas Pophale) SiO2 
 PCOD9499296
Probable space group: C C C M
;
_chemical_formula_sum "Si O2"
_cell_formula_units_Z 48
_cell_length_a 8.408241
_cell_length_b 26.222190
_cell_length_c 9.071719
_cell_angle_alpha 90.000000
_cell_angle_beta 90.000000
_cell_angle_gamma 90.000000
_cell_volume 2000.155222
_symmetry_space_group_name_H-M "C C C M"
_symmetry_group_IT_number 66
_symmetry_cell_setting 'orthorhombic'
loop_
_space_group_symop_operation_xyz
x,y,z
-x,-y,z
x,-y,1/2-z
-x,y,1/2-z
-x,-y,-z
x,y,-z
-x,y,1/2+z
x,-y,1/2+z
1/2+x,1/2+y,z
1/2-x,1/2-y,z
1/2+x,1/2-y,1/2-z
1/2-x,1/2+y,1/2-z
1/2-x,1/2-y,-z
1/2+x,1/2+y,-z
1/2-x,1/2+y,1/2+z
1/2+x,1/2-y,1/2+z
loop_
_atom_site_type_symbol
_atom_site_label
_atom_site_fract_x
_atom_site_fract_y
_atom_site_fract_z
Si Si1 0.055312 0.069546 0.000000
Si Si2 0.000000 0.500000 0.250000
Si Si3 0.692329 0.682154 0.000000
Si Si4 0.074093 0.316974 0.500000
Si Si5 0.750000 0.250000 0.757294
Si Si6 0.826980 0.565415 0.500000
Si Si7 0.000000 0.000000 0.750000
O O1 0.121175 0.126056 0.000000
O O2 0.864038 0.067474 0.000000
O O3 0.100041 0.037259 0.144134
O O4 0.898317 0.536371 0.358422
O O5 0.649895 0.713905 0.145932
O O6 0.883780 0.681614 0.000000
O O7 0.148137 0.287311 0.639473
O O8 0.123570 0.375690 0.500000
#
# Coordination Sequence:
#
# PCOD9499296 Si02
#       7
#     8   4   8   8   8   8   4
#     4  11  26  46  78 109 150 197 251 307 381 438
#     4  10  26  50  76 114 154 198 254 306 374 444
#     4  11  26  48  78 111 151 196 247 315 377 449
#     4  11  26  46  80 107 150 196 254 306 378 447
#     4  10  26  50  72 110 152 196 250 312 374 452
#     4  11  26  46  80 109 149 199 250 310 370 450
#     4  10  26  50  68 110 154 194 240 312 366 452
#
# _framework density 23.998138000000001
#
# number of rings (size 3 to 8) (size 9 to 14) (size 15 to 20)
#    0.000    1.333    0.000    2.000    9.333   13.333 
#    0.000    0.000    0.000    0.000    0.000    0.000 
#    0.000    0.000    0.000    0.000    0.000    0.000 
#
# Total GULP energy -134555.025408 kJ/mol
# GULP energy per Si atom -5606.459392 kJ/mol
# Density = 2.394352 g / cm^3
# Si number density = 23.998138 Si / 1000 Ang^3
#
#
#
# Elastic Constant Matrix: (Units=GPa)
#
#
# Indices 1 2 3 4 5 6 
#
# 1 144.5047 96.7995 70.2534 0.0000 0.0000 0.0000
# 2 96.7995 299.4060 135.2488 0.0000 0.0000 0.0000
# 3 70.2534 135.2488 232.9711 0.0000 0.0000 0.0000
# 4 0.0000 0.0000 0.0000 22.3432 0.0000 0.0000
# 5 0.0000 0.0000 0.0000 0.0000 32.1260 0.0000
# 6 0.0000 0.0000 0.0000 0.0000 0.0000 59.7927
#
#
#
# Elastic Compliance Matrix: (Units=1/GPa)
#
#
# Indices 1 2 3 4 5 6 
#
# 1 0.009165 -0.002324 -0.001414 0.000000 0.000000 0.000000
# 2 -0.002324 0.005117 -0.002270 0.000000 0.000000 0.000000
# 3 -0.001414 -0.002270 0.006036 0.000000 0.000000 0.000000
# 4 0.000000 0.000000 0.000000 0.044756 0.000000 0.000000
# 5 0.000000 0.000000 0.000000 0.000000 0.031127 0.000000
# 6 0.000000 0.000000 0.000000 0.000000 0.000000 0.016724
#
#
# Mechanical properties :
#
#
# Convention : Reuss Voigt Hill
#
# Bulk Modulus (GPa) = 120.45834 142.38725 131.42279
# Shear Modulus (GPa) = 39.15148 47.82438 43.48793
#
# Velocity S-wave (km/s) = 4.04349 4.46896 4.26154
# Velocity P-wave (km/s) = 8.49138 9.27848 8.89365
#
# Compressibility (1/GPa) = 0.00830163
#
# Stress axis : x y z
#
# Youngs Moduli (GPa) = 109.11481 195.44555 165.66040
#
# Poissons Ratio (x) = 0.45422 0.23432
# Poissons Ratio (y) = 0.25359 0.37597
# Poissons Ratio (z) = 0.15434 0.44357
#
# Static dielectric constant tensor:
#      x y z
#    x 2.001870 0.000000 0.000000 
#    y 0.000000 1.861680 0.000000 
#    z 0.000000 0.000000 1.953500 
# 
# From -- ./inp_files/2840.got.cif
#   From: 2010.05.17/outbox.cif.g08.bks.cpg/sg66_2_cif.got.tgz:2840.got - 2010.06.03 17:51:23.
