data_PCOD9499339
_publ_section_title
;
Structure prediction by ZEFSAII (Michael W. Deem and Ramdas Pophale) SiO2 
 PCOD9499339
Probable space group: C C C M
;
_chemical_formula_sum "Si O2"
_cell_formula_units_Z 112
_cell_length_a 27.469375
_cell_length_b 11.740970
_cell_length_c 16.126791
_cell_angle_alpha 90.000000
_cell_angle_beta 90.000000
_cell_angle_gamma 90.000000
_cell_volume 5201.165991
_symmetry_space_group_name_H-M "C C C M"
_symmetry_group_IT_number 66
_symmetry_cell_setting 'orthorhombic'
loop_
_space_group_symop_operation_xyz
x,y,z
-x,-y,z
x,-y,1/2-z
-x,y,1/2-z
-x,-y,-z
x,y,-z
-x,y,1/2+z
x,-y,1/2+z
1/2+x,1/2+y,z
1/2-x,1/2-y,z
1/2+x,1/2-y,1/2-z
1/2-x,1/2+y,1/2-z
1/2-x,1/2-y,-z
1/2+x,1/2+y,-z
1/2-x,1/2+y,1/2+z
1/2+x,1/2-y,1/2+z
loop_
_atom_site_type_symbol
_atom_site_label
_atom_site_fract_x
_atom_site_fract_y
_atom_site_fract_z
Si Si1 0.555452 0.014020 0.847951
Si Si2 0.501416 0.370043 0.851305
Si Si3 0.251211 0.884023 0.601356
Si Si4 0.101318 0.239892 0.347371
Si Si5 0.645012 0.880999 0.906173
Si Si6 0.896784 0.173978 0.345786
Si Si7 0.157811 0.966408 0.098685
O O1 0.587141 0.128873 0.864357
O O2 0.500000 0.000000 0.882808
O O3 0.549537 0.000000 0.750000
O O4 0.593387 0.917702 0.872032
O O5 0.500000 0.500000 0.876335
O O6 0.500000 0.363950 0.750000
O O7 0.551698 0.318168 0.879353
O O8 0.451532 0.312363 0.878894
O O9 0.251544 0.882206 0.500000
O O10 0.250000 0.750000 0.627205
O O11 0.304695 0.923770 0.632378
O O12 0.208850 0.973436 0.624822
O O13 0.105330 0.218626 0.248363
O O14 0.146450 0.166844 0.383448
O O15 0.642262 0.744205 0.898772
O O16 0.645799 0.919037 0.000000
O O17 0.882451 0.041648 0.352794
O O18 0.152438 0.983157 0.000000
#
# Coordination Sequence:
#
# PCOD9499339 Si02
#       7
#    16  16  16  16  16  16  16
#     4  11  24  43  64  89 125 172 220 258 314 393
#     4   9  17  30  52  84 114 155 197 235 301 386
#     4   9  18  36  62  90 122 162 206 250 310 384
#     4  11  22  38  61  88 126 166 210 263 318 377
#     4  11  22  39  66  92 118 161 215 266 311 370
#     4  11  19  35  61  90 122 159 206 261 315 385
#     4  11  22  37  60  93 129 165 208 261 324 386
#
# _framework density 21.533633999999999
#
# number of rings (size 3 to 8) (size 9 to 14) (size 15 to 20)
#    0.000    1.571    4.286    1.714    4.000    0.857 
#    0.000    5.714    3.143    2.571    0.000    0.000 
#    0.000    0.000    0.000    0.000    0.000    0.000 
#
# Total GULP energy -311910.059944 kJ/mol
# GULP energy per Si atom -5569.822499 kJ/mol
# Density = 2.148462 g / cm^3
# Si number density = 21.533634 Si / 1000 Ang^3
#
#
#
# Elastic Constant Matrix: (Units=GPa)
#
#
# Indices 1 2 3 4 5 6 
#
# 1 155.8369 40.6595 14.1004 0.0000 0.0000 0.0000
# 2 40.6595 106.2075 0.9947 0.0000 0.0000 0.0000
# 3 14.1004 0.9947 23.6383 0.0000 0.0000 0.0000
# 4 0.0000 0.0000 0.0000 18.5167 0.0000 0.0000
# 5 0.0000 0.0000 0.0000 0.0000 -47.9841 0.0000
# 6 0.0000 0.0000 0.0000 0.0000 0.0000 56.1941
#
#
#
# Elastic Compliance Matrix: (Units=1/GPa)
#
#
# Indices 1 2 3 4 5 6 
#
# 1 0.007558 -0.002852 -0.004389 0.000000 0.000000 0.000000
# 2 -0.002852 0.010496 0.001260 0.000000 0.000000 0.000000
# 3 -0.004389 0.001260 0.044869 0.000000 0.000000 0.000000
# 4 0.000000 0.000000 0.000000 0.054005 0.000000 0.000000
# 5 0.000000 0.000000 0.000000 0.000000 -0.020840 0.000000
# 6 0.000000 0.000000 0.000000 0.000000 0.000000 0.017795
#
#
# Mechanical properties :
#
#
# Convention : Reuss Voigt Hill
#
# Bulk Modulus (GPa) = 19.62294 44.13243 31.87769
# Shear Modulus (GPa) = 35.00600 20.67389 27.83994
#
# Velocity S-wave (km/s) = 4.03630 3.10187 3.59953
# Velocity P-wave (km/s) = 5.55471 5.77650 5.66669
#
# Compressibility (1/GPa) = 0.05096076
#
# Stress axis : x y z
#
# Youngs Moduli (GPa) = 132.30523 95.27683 22.28708
#
# Poissons Ratio (x) = 0.27177 0.09781
# Poissons Ratio (y) = 0.37739 -0.02808
# Poissons Ratio (z) = 0.58063 -0.12003
#
# Static dielectric constant tensor:
#      x y z
#    x 1.844070 0.000000 0.000000 
#    y 0.000000 1.911600 0.000000 
#    z 0.000000 0.000000 1.769500 
# 
# From -- ./inp_files/53164.got.cif
#   From: 2010.05.17/outbox.cif.g08.bks.cpg/sg66_27_cif.got.tgz:53164.got - 2010.06.03 17:51:23.
