data_PCOD9499520
_publ_section_title
;
Structure prediction by ZEFSAII (Michael W. Deem and Ramdas Pophale) SiO2 
 PCOD9499520
Probable space group: C C C M
;
_chemical_formula_sum "Si O2"
_cell_formula_units_Z 96
_cell_length_a 18.125831
_cell_length_b 11.440283
_cell_length_c 24.236182
_cell_angle_alpha 90.000000
_cell_angle_beta 90.000000
_cell_angle_gamma 90.000000
_cell_volume 5025.727065
_symmetry_space_group_name_H-M "C C C M"
_symmetry_group_IT_number 66
_symmetry_cell_setting 'orthorhombic'
loop_
_space_group_symop_operation_xyz
x,y,z
-x,-y,z
x,-y,1/2-z
-x,y,1/2-z
-x,-y,-z
x,y,-z
-x,y,1/2+z
x,-y,1/2+z
1/2+x,1/2+y,z
1/2-x,1/2-y,z
1/2+x,1/2-y,1/2-z
1/2-x,1/2+y,1/2-z
1/2-x,1/2-y,-z
1/2+x,1/2+y,-z
1/2-x,1/2+y,1/2+z
1/2+x,1/2-y,1/2+z
loop_
_atom_site_type_symbol
_atom_site_label
_atom_site_fract_x
_atom_site_fract_y
_atom_site_fract_z
Si Si1 0.720839 0.439142 0.500000
Si Si2 0.331497 0.993886 0.315975
Si Si3 0.820749 0.981037 0.120026
Si Si4 0.958364 0.676121 0.696683
Si Si5 0.367093 0.806533 0.500000
Si Si6 0.098082 0.272278 0.875587
Si Si7 0.577297 0.570542 0.298375
O O1 0.697080 0.498594 0.443713
O O2 0.679464 0.313962 0.500000
O O3 0.807473 0.410567 0.500000
O O4 0.253112 0.007958 0.345777
O O5 0.358993 0.870596 0.340659
O O6 0.322132 0.000000 0.250000
O O7 0.396397 0.089438 0.326633
O O8 0.856051 0.849932 0.128122
O O9 0.882827 0.064854 0.143776
O O10 0.925420 0.796547 0.720142
O O11 0.000000 0.623252 0.750000
O O12 0.017260 0.722473 0.651761
O O13 0.406846 0.805472 0.559368
O O14 0.500000 0.500000 0.304018
O O15 0.618583 0.500000 0.250000
#
# Coordination Sequence:
#
# PCOD9499520 Si02
#       7
#     8  16  16  16   8  16  16
#     4   9  18  36  63  91 120 156 205 271 314 347
#     4  12  25  36  59  94 129 162 201 259 319 373
#     4  11  22  41  65  94 120 161 216 262 302 372
#     4  12  23  40  60  89 134 168 202 256 326 386
#     4   9  18  36  63  90 117 164 215 256 305 360
#     4  11  21  40  65  89 124 163 212 253 307 378
#     4  11  21  40  65  89 120 172 208 252 318 386
#
# _framework density 19.101713
#
# number of rings (size 3 to 8) (size 9 to 14) (size 15 to 20)
#    0.000    1.000    6.667    1.500    0.000    0.667 
#    3.000    3.750    0.000    1.000    0.000    0.000 
#    0.000    0.000    0.000    0.000    0.000    0.000 
#
# Total GULP energy -267568.004250 kJ/mol
# GULP energy per Si atom -5574.333422 kJ/mol
# Density = 1.905824 g / cm^3
# Si number density = 19.101713 Si / 1000 Ang^3
#
#
#
# Elastic Constant Matrix: (Units=GPa)
#
#
# Indices 1 2 3 4 5 6 
#
# 1 89.6879 18.3276 43.3019 0.0000 0.0000 0.0000
# 2 18.3276 77.4903 17.8210 0.0000 0.0000 0.0000
# 3 43.3019 17.8210 149.7986 0.0000 0.0000 0.0000
# 4 0.0000 0.0000 0.0000 21.9141 0.0000 0.0000
# 5 0.0000 0.0000 0.0000 0.0000 32.4925 0.0000
# 6 0.0000 0.0000 0.0000 0.0000 0.0000 19.7211
#
#
#
# Elastic Compliance Matrix: (Units=1/GPa)
#
#
# Indices 1 2 3 4 5 6 
#
# 1 0.013357 -0.002335 -0.003583 0.000000 0.000000 0.000000
# 2 -0.002335 0.013676 -0.000952 0.000000 0.000000 0.000000
# 3 -0.003583 -0.000952 0.007825 0.000000 0.000000 0.000000
# 4 0.000000 0.000000 0.000000 0.045633 0.000000 0.000000
# 5 0.000000 0.000000 0.000000 0.000000 0.030776 0.000000
# 6 0.000000 0.000000 0.000000 0.000000 0.000000 0.050707
#
#
# Mechanical properties :
#
#
# Convention : Reuss Voigt Hill
#
# Bulk Modulus (GPa) = 47.35507 52.87532 50.11519
# Shear Modulus (GPa) = 27.35925 30.66062 29.00993
#
# Velocity S-wave (km/s) = 3.78867 4.01075 3.90129
# Velocity P-wave (km/s) = 6.63201 7.01350 6.82542
#
# Compressibility (1/GPa) = 0.02111706
#
# Stress axis : x y z
#
# Youngs Moduli (GPa) = 74.86725 73.12048 127.80049
#
# Poissons Ratio (x) = 0.17074 0.45794
# Poissons Ratio (y) = 0.17482 0.12167
# Poissons Ratio (z) = 0.26827 0.06961
#
# Static dielectric constant tensor:
#      x y z
#    x 1.726060 0.000000 0.000000 
#    y 0.000000 1.680710 0.000000 
#    z 0.000000 0.000000 1.729530 
# 
# From -- ./inp_files/58808.got.cif
#   From: 2010.05.17/outbox.cif.g08.bks.cpg/sg66_30_cif.got.tgz:58808.got - 2010.06.03 17:51:23.
