data_PCOD9499505
_publ_section_title
;
Structure prediction by ZEFSAII (Michael W. Deem and Ramdas Pophale) SiO2 
 PCOD9499505
Probable space group: C C C M
;
_chemical_formula_sum "Si O2"
_cell_formula_units_Z 112
_cell_length_a 11.405324
_cell_length_b 14.692031
_cell_length_c 31.292470
_cell_angle_alpha 90.000000
_cell_angle_beta 90.000000
_cell_angle_gamma 90.000000
_cell_volume 5243.597017
_symmetry_space_group_name_H-M "C C C M"
_symmetry_group_IT_number 66
_symmetry_cell_setting 'orthorhombic'
loop_
_space_group_symop_operation_xyz
x,y,z
-x,-y,z
x,-y,1/2-z
-x,y,1/2-z
-x,-y,-z
x,y,-z
-x,y,1/2+z
x,-y,1/2+z
1/2+x,1/2+y,z
1/2-x,1/2-y,z
1/2+x,1/2-y,1/2-z
1/2-x,1/2+y,1/2-z
1/2-x,1/2-y,-z
1/2+x,1/2+y,-z
1/2-x,1/2+y,1/2+z
1/2+x,1/2-y,1/2+z
loop_
_atom_site_type_symbol
_atom_site_label
_atom_site_fract_x
_atom_site_fract_y
_atom_site_fract_z
Si Si1 0.211642 0.599789 0.691676
Si Si2 0.719912 0.649068 0.276022
Si Si3 0.081410 0.355943 0.953617
Si Si4 0.680040 0.058472 0.046768
Si Si5 0.674514 0.914844 0.360034
Si Si6 0.988984 0.895819 0.821528
Si Si7 0.048550 0.712383 0.364952
O O1 0.199447 0.593145 0.742848
O O2 0.175876 0.514198 0.662068
O O3 0.352199 0.610469 0.690331
O O4 0.141754 0.682764 0.670783
O O5 0.750000 0.750000 0.261030
O O6 0.762043 0.643354 0.324516
O O7 0.585354 0.618228 0.283819
O O8 0.152172 0.450793 0.949996
O O9 0.100768 0.293504 0.912583
O O10 0.945369 0.389418 0.954427
O O11 0.107013 0.314228 0.000000
O O12 0.732268 0.084209 0.092894
O O13 0.736624 0.075811 0.000000
O O14 0.548246 0.867933 0.363896
O O15 0.003786 0.810793 0.853722
O O16 0.000000 0.000000 0.837839
#
# Coordination Sequence:
#
# PCOD9499505 Si02
#       7
#    16  16  16  16  16  16  16
#     4  12  25  41  65  95 126 164 215 264 321 383
#     4  12  25  45  63  88 125 174 223 267 314 379
#     4   8  14  28  57  92 128 162 197 249 320 391
#     4   8  14  28  55  94 131 159 195 249 320 391
#     4  11  21  38  67  97 130 163 204 268 325 368
#     4  12  26  44  64  84 120 179 223 260 308 384
#     4  11  22  41  66  98 132 160 211 273 323 377
#
# _framework density 21.359382
#
# number of rings (size 3 to 8) (size 9 to 14) (size 15 to 20)
#    0.000    1.429    4.286    3.429    0.000    1.143 
#    0.000    1.429    0.000    4.286    0.000    0.000 
#    0.000    0.000    0.000    0.000    0.000    0.000 
#
# Total GULP energy -311865.227758 kJ/mol
# GULP energy per Si atom -5569.021924 kJ/mol
# Density = 2.131077 g / cm^3
# Si number density = 21.359382 Si / 1000 Ang^3
#
#
#
# Elastic Constant Matrix: (Units=GPa)
#
#
# Indices 1 2 3 4 5 6 
#
# 1 57.2482 10.4029 33.5492 0.0000 0.0000 0.0000
# 2 10.4029 116.7731 51.9343 0.0000 0.0000 0.0000
# 3 33.5492 51.9343 211.6462 0.0000 0.0000 0.0000
# 4 0.0000 0.0000 0.0000 -77.4675 0.0000 0.0000
# 5 0.0000 0.0000 0.0000 0.0000 -127.5031 0.0000
# 6 0.0000 0.0000 0.0000 0.0000 0.0000 55.9701
#
#
#
# Elastic Compliance Matrix: (Units=1/GPa)
#
#
# Indices 1 2 3 4 5 6 
#
# 1 0.019273 -0.000402 -0.002956 0.000000 0.000000 0.000000
# 2 -0.000402 0.009621 -0.002297 0.000000 0.000000 0.000000
# 3 -0.002956 -0.002297 0.005757 0.000000 0.000000 0.000000
# 4 0.000000 0.000000 0.000000 -0.012909 0.000000 0.000000
# 5 0.000000 0.000000 0.000000 0.000000 -0.007843 0.000000
# 6 0.000000 0.000000 0.000000 0.000000 0.000000 0.017867
#
#
# Mechanical properties :
#
#
# Convention : Reuss Voigt Hill
#
# Bulk Modulus (GPa) = 42.84433 64.16003 53.50218
# Shear Modulus (GPa) = 98.31242 -10.48136 43.91553
#
# Velocity S-wave (km/s) = 6.79174 -2.21761 4.53927
# Velocity P-wave (km/s) = 9.03360 4.85247 7.25094
#
# Compressibility (1/GPa) = 0.02334031
#
# Stress axis : x y z
#
# Youngs Moduli (GPa) = 51.88484 103.93863 173.69615
#
# Poissons Ratio (x) = 0.04180 0.51353
# Poissons Ratio (y) = 0.02086 0.39900
# Poissons Ratio (z) = 0.15340 0.23876
#
# Static dielectric constant tensor:
#      x y z
#    x 1.417310 0.000000 0.000000 
#    y 0.000000 1.939900 0.000000 
#    z 0.000000 0.000000 1.699540 
# 
# From -- ./inp_files/69091.got.cif
#   From: 2010.05.17/outbox.cif.g08.bks.cpg/sg66_35_cif.got.tgz:69091.got - 2010.06.03 17:51:23.
