data_PCOD9499596
_publ_section_title
;
Structure prediction by ZEFSAII (Michael W. Deem and Ramdas Pophale) SiO2 
 PCOD9499596
Probable space group: C C C M
;
_chemical_formula_sum "Si O2"
_cell_formula_units_Z 64
_cell_length_a 20.800300
_cell_length_b 5.129451
_cell_length_c 23.360715
_cell_angle_alpha 90.000000
_cell_angle_beta 90.000000
_cell_angle_gamma 90.000000
_cell_volume 2492.450921
_symmetry_space_group_name_H-M "C C C M"
_symmetry_group_IT_number 66
_symmetry_cell_setting 'orthorhombic'
loop_
_space_group_symop_operation_xyz
x,y,z
-x,-y,z
x,-y,1/2-z
-x,y,1/2-z
-x,-y,-z
x,y,-z
-x,y,1/2+z
x,-y,1/2+z
1/2+x,1/2+y,z
1/2-x,1/2-y,z
1/2+x,1/2-y,1/2-z
1/2-x,1/2+y,1/2-z
1/2-x,1/2-y,-z
1/2+x,1/2+y,-z
1/2-x,1/2+y,1/2+z
1/2+x,1/2-y,1/2+z
loop_
_atom_site_type_symbol
_atom_site_label
_atom_site_fract_x
_atom_site_fract_y
_atom_site_fract_z
Si Si1 0.660520 0.487695 0.189039
Si Si2 0.195930 0.028782 0.936007
Si Si3 0.924549 0.503082 0.332673
Si Si4 0.559004 0.651966 0.435438
O O1 0.696575 0.500000 0.250000
O O2 0.701019 0.439526 0.130818
O O3 0.611070 0.248606 0.195711
O O4 0.617983 0.748461 0.178654
O O5 0.250000 0.250000 0.938579
O O6 0.118652 0.045996 0.936649
O O7 0.201708 0.898495 0.000000
O O8 0.923237 0.595626 0.399244
O O9 0.000000 0.500000 0.316752
O O10 0.500000 0.500000 0.407294
O O11 0.541828 0.723537 0.500000
#
# Coordination Sequence:
#
# PCOD9499596 Si02
#       4
#    16  16  16  16
#     4  11  24  41  62  94 133 174 225 284 350 418
#     4   9  19  40  69  98 130 173 225 278 336 410
#     4  11  22  38  62  93 132 178 229 282 342 415
#     4   9  18  35  62 100 144 186 231 289 358 429
#
# _framework density 25.677537000000001
#
# number of rings (size 3 to 8) (size 9 to 14) (size 15 to 20)
#    0.000    2.000    0.000    4.500    0.000    4.500 
#    0.000    7.500    0.000   13.500    0.000    0.000 
#    0.000    0.000    0.000    0.000    0.000    0.000 
#
# Total GULP energy -178147.696611 kJ/mol
# GULP energy per Si atom -5567.115519 kJ/mol
# Density = 2.561909 g / cm^3
# Si number density = 25.677537 Si / 1000 Ang^3
#
#
#
# Elastic Constant Matrix: (Units=GPa)
#
#
# Indices 1 2 3 4 5 6 
#
# 1 141.5400 71.2491 7.1333 0.0000 0.0000 0.0000
# 2 71.2491 148.5511 17.8426 0.0000 0.0000 0.0000
# 3 7.1333 17.8426 267.8223 0.0000 0.0000 0.0000
# 4 0.0000 0.0000 0.0000 -45.7558 0.0000 0.0000
# 5 0.0000 0.0000 0.0000 0.0000 -43.0979 0.0000
# 6 0.0000 0.0000 0.0000 0.0000 0.0000 42.8452
#
#
#
# Elastic Compliance Matrix: (Units=1/GPa)
#
#
# Indices 1 2 3 4 5 6 
#
# 1 0.009315 -0.004473 0.000050 0.000000 0.000000 0.000000
# 2 -0.004473 0.008934 -0.000476 0.000000 0.000000 0.000000
# 3 0.000050 -0.000476 0.003764 0.000000 0.000000 0.000000
# 4 0.000000 0.000000 0.000000 -0.021855 0.000000 0.000000
# 5 0.000000 0.000000 0.000000 0.000000 -0.023203 0.000000
# 6 0.000000 0.000000 0.000000 0.000000 0.000000 0.023340
#
#
# Mechanical properties :
#
#
# Convention : Reuss Voigt Hill
#
# Bulk Modulus (GPa) = 81.87361 83.37373 82.62367
# Shear Modulus (GPa) = 352.97098 21.57752 187.27425
#
# Velocity S-wave (km/s) = 11.73718 2.90198 8.54935
# Velocity P-wave (km/s) = 14.68456 6.61579 11.38870
#
# Compressibility (1/GPa) = 0.01221395
#
# Stress axis : x y z
#
# Youngs Moduli (GPa) = 107.35942 111.92597 265.66033
#
# Poissons Ratio (x) = 0.50070 -0.01327
# Poissons Ratio (y) = 0.48027 0.12647
# Poissons Ratio (z) = -0.00536 0.05329
#
# Static dielectric constant tensor:
#      x y z
#    x 1.703440 0.000000 0.000000 
#    y 0.000000 1.754620 0.000000 
#    z 0.000000 0.000000 2.150610 
# 
# From -- ./inp_files/65458.got.cif
#   From: 2010.05.17/outbox.cif.g08.bks.cpg/sg66_33_cif.got.tgz:65458.got - 2010.06.03 17:51:23.
