data_PCOD9499658
_publ_section_title
;
Structure prediction by ZEFSAII (Michael W. Deem and Ramdas Pophale) SiO2 
 PCOD9499658
Probable space group: C C C M
;
_chemical_formula_sum "Si O2"
_cell_formula_units_Z 88
_cell_length_a 21.132058
_cell_length_b 12.558002
_cell_length_c 15.169323
_cell_angle_alpha 90.000000
_cell_angle_beta 90.000000
_cell_angle_gamma 90.000000
_cell_volume 4025.580732
_symmetry_space_group_name_H-M "C C C M"
_symmetry_group_IT_number 66
_symmetry_cell_setting 'orthorhombic'
loop_
_space_group_symop_operation_xyz
x,y,z
-x,-y,z
x,-y,1/2-z
-x,y,1/2-z
-x,-y,-z
x,y,-z
-x,y,1/2+z
x,-y,1/2+z
1/2+x,1/2+y,z
1/2-x,1/2-y,z
1/2+x,1/2-y,1/2-z
1/2-x,1/2+y,1/2-z
1/2-x,1/2-y,-z
1/2+x,1/2+y,-z
1/2-x,1/2+y,1/2+z
1/2+x,1/2-y,1/2+z
loop_
_atom_site_type_symbol
_atom_site_label
_atom_site_fract_x
_atom_site_fract_y
_atom_site_fract_z
Si Si1 0.132651 0.115733 0.000000
Si Si2 0.503708 0.124293 0.895750
Si Si3 0.207447 0.515332 0.143679
Si Si4 0.354572 0.465130 0.647733
Si Si5 0.868514 0.281039 0.165528
Si Si6 0.138972 0.697468 0.368892
O O1 0.157087 0.201207 0.924752
O O2 0.107569 0.035711 0.921283
O O3 0.559803 0.178315 0.842276
O O4 0.436052 0.178340 0.881485
O O5 0.500000 0.000000 0.871142
O O6 0.518956 0.130659 0.000000
O O7 0.201998 0.500000 0.250000
O O8 0.281006 0.515649 0.121625
O O9 0.174257 0.627295 0.120465
O O10 0.172251 0.413022 0.104796
O O11 0.363794 0.500000 0.750000
O O12 0.364982 0.339622 0.634151
O O13 0.847220 0.279830 0.267099
#
# Coordination Sequence:
#
# PCOD9499658 Si02
#       6
#     8  16  16  16  16  16
#     4  12  26  45  67  96 140 181 234 281 323 423
#     4  11  23  40  67 101 133 165 215 286 347 398
#     4   9  21  39  69 100 133 172 219 283 339 402
#     4  11  24  45  65  97 141 186 226 271 339 412
#     4  11  22  42  70  97 134 176 222 277 344 411
#     4  11  22  42  68 100 130 172 228 280 341 400
#
# _framework density 21.860199000000001
#
# number of rings (size 3 to 8) (size 9 to 14) (size 15 to 20)
#    0.000    1.273    4.545    1.091    1.273    2.909 
#    1.636    2.727    0.000    0.000    0.000    0.000 
#    0.000    0.000    0.000    0.000    0.000    0.000 
#
# Total GULP energy -245015.653233 kJ/mol
# GULP energy per Si atom -5568.537573 kJ/mol
# Density = 2.181044 g / cm^3
# Si number density = 21.860199 Si / 1000 Ang^3
#
#
#
# Elastic Constant Matrix: (Units=GPa)
#
#
# Indices 1 2 3 4 5 6 
#
# 1 41.1366 -0.1572 -7.9293 0.0000 0.0000 0.0000
# 2 -0.1572 155.6254 28.0425 0.0000 0.0000 0.0000
# 3 -7.9293 28.0425 82.2528 0.0000 0.0000 0.0000
# 4 0.0000 0.0000 0.0000 57.4412 0.0000 0.0000
# 5 0.0000 0.0000 0.0000 0.0000 -8.7509 0.0000
# 6 0.0000 0.0000 0.0000 0.0000 0.0000 -27.1116
#
#
#
# Elastic Compliance Matrix: (Units=1/GPa)
#
#
# Indices 1 2 3 4 5 6 
#
# 1 0.024797 -0.000432 0.002538 0.000000 0.000000 0.000000
# 2 -0.000432 0.006854 -0.002378 0.000000 0.000000 0.000000
# 3 0.002538 -0.002378 0.013213 0.000000 0.000000 0.000000
# 4 0.000000 0.000000 0.000000 0.017409 0.000000 0.000000
# 5 0.000000 0.000000 0.000000 0.000000 -0.114273 0.000000
# 6 0.000000 0.000000 0.000000 0.000000 0.000000 -0.036885
#
#
# Mechanical properties :
#
#
# Convention : Reuss Voigt Hill
#
# Bulk Modulus (GPa) = 22.56411 35.43630 29.00021
# Shear Modulus (GPa) = -67.96532 21.58632 -23.18950
#
# Velocity S-wave (km/s) = -5.58197 3.14581 -3.26054
# Velocity P-wave (km/s) = 5.58571 5.42591 0.93798
#
# Compressibility (1/GPa) = 0.04431817
#
# Stress axis : x y z
#
# Youngs Moduli (GPa) = 40.32783 145.90430 75.68225
#
# Poissons Ratio (x) = 0.06307 -0.19207
# Poissons Ratio (y) = 0.01743 0.18000
# Poissons Ratio (z) = -0.10234 0.34701
#
# Static dielectric constant tensor:
#      x y z
#    x 1.796750 0.000000 0.000000 
#    y 0.000000 1.807190 0.000000 
#    z 0.000000 0.000000 1.873670 
# 
# From -- ./inp_files/26523.got.cif
#   From: 2010.05.17/outbox.cif.g08.bks.cpg/sg66_14_cif.got.tgz:26523.got - 2010.06.03 17:51:23.
