data_PCOD9499054
_publ_section_title
;
Structure prediction by ZEFSAII (Michael W. Deem and Ramdas Pophale) SiO2 
 PCOD9499054
Probable space group: C C C M
;
_chemical_formula_sum "Si O2"
_cell_formula_units_Z 112
_cell_length_a 20.423287
_cell_length_b 14.754060
_cell_length_c 18.010483
_cell_angle_alpha 90.000000
_cell_angle_beta 90.000000
_cell_angle_gamma 90.000000
_cell_volume 5427.034037
_symmetry_space_group_name_H-M "C C C M"
_symmetry_group_IT_number 66
_symmetry_cell_setting 'orthorhombic'
loop_
_space_group_symop_operation_xyz
x,y,z
-x,-y,z
x,-y,1/2-z
-x,y,1/2-z
-x,-y,-z
x,y,-z
-x,y,1/2+z
x,-y,1/2+z
1/2+x,1/2+y,z
1/2-x,1/2-y,z
1/2+x,1/2-y,1/2-z
1/2-x,1/2+y,1/2-z
1/2-x,1/2-y,-z
1/2+x,1/2+y,-z
1/2-x,1/2+y,1/2+z
1/2+x,1/2-y,1/2+z
loop_
_atom_site_type_symbol
_atom_site_label
_atom_site_fract_x
_atom_site_fract_y
_atom_site_fract_z
Si Si1 0.781555 0.957853 0.678958
Si Si2 0.005177 0.155613 0.414017
Si Si3 0.828254 0.640287 0.412724
Si Si4 0.394455 0.501759 0.585643
Si Si5 0.325696 0.271976 0.722065
Si Si6 0.553290 0.811525 0.810913
Si Si7 0.575835 0.975225 0.082989
O O1 0.735137 0.911846 0.618642
O O2 0.832056 0.020730 0.635989
O O3 0.825525 0.879000 0.714378
O O4 0.744934 0.000000 0.750000
O O5 0.012979 0.185611 0.500000
O O6 0.986374 0.239505 0.362185
O O7 0.067152 0.091703 0.394587
O O8 0.945517 0.083879 0.410409
O O9 0.824133 0.662444 0.500000
O O10 0.835150 0.726047 0.359037
O O11 0.885771 0.567605 0.400145
O O12 0.374236 0.491612 0.500000
O O13 0.250000 0.250000 0.745770
O O14 0.383953 0.235481 0.772781
O O15 0.500000 0.843053 0.750000
O O16 0.581322 0.894702 0.858632
O O17 0.500000 0.000000 0.080426
O O18 0.597158 0.945705 0.000000
#
# Coordination Sequence:
#
# PCOD9499054 Si02
#       7
#    16  16  16  16  16  16  16
#     4  11  22  36  59  88 121 157 194 247 303 362
#     4   9  19  36  57  83 119 158 199 250 297 360
#     4  10  23  42  63  85 115 158 206 251 303 365
#     4   9  18  34  57  84 116 157 201 245 300 359
#     4  10  24  39  57  88 122 159 194 252 311 360
#     4  12  23  37  61  89 121 158 204 247 313 375
#     4  10  23  42  63  87 116 153 201 257 308 361
#
# _framework density 20.637423999999999
#
# number of rings (size 3 to 8) (size 9 to 14) (size 15 to 20)
#    0.000    1.857    0.000    4.286    4.000    4.571 
#    0.000    5.000    0.000    0.857    0.000    0.000 
#    0.000    0.000    0.000    0.000    0.000    0.000 
#
# Total GULP energy -312682.399122 kJ/mol
# GULP energy per Si atom -5583.614270 kJ/mol
# Density = 2.059045 g / cm^3
# Si number density = 20.637424 Si / 1000 Ang^3
#
#
#
# Elastic Constant Matrix: (Units=GPa)
#
#
# Indices 1 2 3 4 5 6 
#
# 1 46.1472 -8.9512 19.3664 0.0000 0.0000 0.0000
# 2 -8.9512 42.4880 27.8636 0.0000 0.0000 0.0000
# 3 19.3664 27.8636 71.1984 0.0000 0.0000 0.0000
# 4 0.0000 0.0000 0.0000 2.6359 0.0000 0.0000
# 5 0.0000 0.0000 0.0000 0.0000 23.9791 0.0000
# 6 0.0000 0.0000 0.0000 0.0000 0.0000 26.1249
#
#
#
# Elastic Compliance Matrix: (Units=1/GPa)
#
#
# Indices 1 2 3 4 5 6 
#
# 1 0.031029 0.016240 -0.014796 0.000000 0.000000 0.000000
# 2 0.016240 0.040162 -0.020135 0.000000 0.000000 0.000000
# 3 -0.014796 -0.020135 0.025950 0.000000 0.000000 0.000000
# 4 0.000000 0.000000 0.000000 0.379381 0.000000 0.000000
# 5 0.000000 0.000000 0.000000 0.000000 0.041703 0.000000
# 6 0.000000 0.000000 0.000000 0.000000 0.000000 0.038278
#
#
# Mechanical properties :
#
#
# Convention : Reuss Voigt Hill
#
# Bulk Modulus (GPa) = 16.73372 26.26571 21.49971
# Shear Modulus (GPa) = 8.14594 18.65165 13.39880
#
# Velocity S-wave (km/s) = 1.98890 3.00955 2.55080
# Velocity P-wave (km/s) = 3.66065 4.98311 4.37217
#
# Compressibility (1/GPa) = 0.05975959
#
# Stress axis : x y z
#
# Youngs Moduli (GPa) = 32.22785 24.89932 38.53636
#
# Poissons Ratio (x) = -0.40437 0.57017
# Poissons Ratio (y) = -0.52338 0.77592
# Poissons Ratio (z) = 0.47683 0.50134
#
# Static dielectric constant tensor:
#      x y z
#    x 1.745020 0.000000 0.000000 
#    y 0.000000 1.985610 0.000000 
#    z 0.000000 0.000000 1.754920 
# 
# From -- ./inp_files/32511.got.cif
#   From: 2010.05.17/outbox.cif.g08.bks.cpg/sg66_17_cif.got.tgz:32511.got - 2010.06.03 17:51:23.
