data_PCOD9499354
_publ_section_title
;
Structure prediction by ZEFSAII (Michael W. Deem and Ramdas Pophale) SiO2 
 PCOD9499354
Probable space group: C C C M
;
_chemical_formula_sum "Si O2"
_cell_formula_units_Z 96
_cell_length_a 25.674290
_cell_length_b 12.043353
_cell_length_c 17.772513
_cell_angle_alpha 90.000000
_cell_angle_beta 90.000000
_cell_angle_gamma 90.000000
_cell_volume 5495.341662
_symmetry_space_group_name_H-M "C C C M"
_symmetry_group_IT_number 66
_symmetry_cell_setting 'orthorhombic'
loop_
_space_group_symop_operation_xyz
x,y,z
-x,-y,z
x,-y,1/2-z
-x,y,1/2-z
-x,-y,-z
x,y,-z
-x,y,1/2+z
x,-y,1/2+z
1/2+x,1/2+y,z
1/2-x,1/2-y,z
1/2+x,1/2-y,1/2-z
1/2-x,1/2+y,1/2-z
1/2-x,1/2-y,-z
1/2+x,1/2+y,-z
1/2-x,1/2+y,1/2+z
1/2+x,1/2-y,1/2+z
loop_
_atom_site_type_symbol
_atom_site_label
_atom_site_fract_x
_atom_site_fract_y
_atom_site_fract_z
Si Si1 0.471513 0.837726 0.831080
Si Si2 0.947819 0.935296 0.909987
Si Si3 0.131109 0.491224 0.335346
Si Si4 0.073359 0.685932 0.589180
Si Si5 0.095380 0.159743 0.588032
Si Si6 0.302594 0.195020 0.588542
O O1 0.500000 0.834739 0.750000
O O2 0.423768 0.923474 0.832898
O O3 0.516783 0.863932 0.890601
O O4 0.445187 0.722747 0.858146
O O5 0.932128 0.813554 0.881674
O O6 0.904184 0.028656 0.898224
O O7 0.955420 0.919639 0.000000
O O8 0.000000 0.000000 0.882938
O O9 0.148765 0.500000 0.250000
O O10 0.116543 0.609955 0.370949
O O11 0.173812 0.418241 0.378433
O O12 0.082215 0.685321 0.500000
O O13 0.078906 0.176546 0.500000
O O14 0.150966 0.216151 0.597143
O O15 0.294011 0.175546 0.500000
O O16 0.250000 0.250000 0.620348
#
# Coordination Sequence:
#
# PCOD9499354 Si02
#       6
#    16  16  16  16  16  16
#     4  11  20  31  48  74 115 151 178 216 266 319
#     4   9  16  29  48  73 107 145 180 216 256 307
#     4  11  22  35  54  77 113 146 174 224 286 332
#     4  11  21  32  51  76 109 151 191 219 257 327
#     4   9  17  32  55  79 105 141 184 224 268 319
#     4   9  19  37  63  85 101 132 187 244 283 324
#
# _framework density 17.469341
#
# number of rings (size 3 to 8) (size 9 to 14) (size 15 to 20)
#    0.000    2.000    3.333    1.500    0.000    2.667 
#    0.000    1.667    3.667    0.000    0.000    5.833 
#    0.000    0.000    0.000    0.000    0.000    0.000 
#
# Total GULP energy -267428.180140 kJ/mol
# GULP energy per Si atom -5571.420420 kJ/mol
# Density = 1.742958 g / cm^3
# Si number density = 17.469341 Si / 1000 Ang^3
#
#
#
# Elastic Constant Matrix: (Units=GPa)
#
#
# Indices 1 2 3 4 5 6 
#
# 1 62.2351 49.1637 28.2743 0.0000 0.0000 0.0000
# 2 49.1637 140.4961 41.2498 0.0000 0.0000 0.0000
# 3 28.2743 41.2498 53.0870 0.0000 0.0000 0.0000
# 4 0.0000 0.0000 0.0000 4.9482 0.0000 0.0000
# 5 0.0000 0.0000 0.0000 0.0000 18.3998 0.0000
# 6 0.0000 0.0000 0.0000 0.0000 0.0000 20.7700
#
#
#
# Elastic Compliance Matrix: (Units=1/GPa)
#
#
# Indices 1 2 3 4 5 6 
#
# 1 0.024779 -0.006214 -0.008369 0.000000 0.000000 0.000000
# 2 -0.006214 0.010780 -0.005066 0.000000 0.000000 0.000000
# 3 -0.008369 -0.005066 0.027231 0.000000 0.000000 0.000000
# 4 0.000000 0.000000 0.000000 0.202092 0.000000 0.000000
# 5 0.000000 0.000000 0.000000 0.000000 0.054349 0.000000
# 6 0.000000 0.000000 0.000000 0.000000 0.000000 0.048146
#
#
# Mechanical properties :
#
#
# Convention : Reuss Voigt Hill
#
# Bulk Modulus (GPa) = 42.56954 54.79931 48.68442
# Shear Modulus (GPa) = 12.06256 17.96563 15.01410
#
# Velocity S-wave (km/s) = 2.63059 3.21036 2.93483
# Velocity P-wave (km/s) = 5.80066 6.72152 6.27800
#
# Compressibility (1/GPa) = 0.02349098
#
# Stress axis : x y z
#
# Youngs Moduli (GPa) = 40.35688 92.76863 36.72259
#
# Poissons Ratio (x) = 0.57643 0.30734
# Poissons Ratio (y) = 0.25076 0.18605
# Poissons Ratio (z) = 0.33775 0.47001
#
# Static dielectric constant tensor:
#      x y z
#    x 1.595060 0.000000 0.000000 
#    y 0.000000 1.648420 0.000000 
#    z 0.000000 0.000000 1.611910 
# 
# From -- ./inp_files/38836.got.cif
#   From: 2010.05.17/outbox.cif.g08.bks.cpg/sg66_20_cif.got.tgz:38836.got - 2010.06.03 17:51:23.
