data_PCOD9499915
_publ_section_title
;
Structure prediction by ZEFSAII (Michael W. Deem and Ramdas Pophale) SiO2 
 PCOD9499915
Probable space group: C C C M
;
_chemical_formula_sum "Si O2"
_cell_formula_units_Z 56
_cell_length_a 6.570153
_cell_length_b 13.645768
_cell_length_c 28.776873
_cell_angle_alpha 90.000000
_cell_angle_beta 90.000000
_cell_angle_gamma 90.000000
_cell_volume 2579.984320
_symmetry_space_group_name_H-M "C C C M"
_symmetry_group_IT_number 66
_symmetry_cell_setting 'orthorhombic'
loop_
_space_group_symop_operation_xyz
x,y,z
-x,-y,z
x,-y,1/2-z
-x,y,1/2-z
-x,-y,-z
x,y,-z
-x,y,1/2+z
x,-y,1/2+z
1/2+x,1/2+y,z
1/2-x,1/2-y,z
1/2+x,1/2-y,1/2-z
1/2-x,1/2+y,1/2-z
1/2-x,1/2-y,-z
1/2+x,1/2+y,-z
1/2-x,1/2+y,1/2+z
1/2+x,1/2-y,1/2+z
loop_
_atom_site_type_symbol
_atom_site_label
_atom_site_fract_x
_atom_site_fract_y
_atom_site_fract_z
Si Si1 0.579902 0.888789 0.132679
Si Si2 0.652542 0.423083 0.285071
Si Si3 0.914471 0.889646 0.947071
Si Si4 0.750000 0.750000 0.405131
O O1 0.705704 0.869942 0.179537
O O2 0.390238 0.818565 0.126240
O O3 0.732732 0.875675 0.089389
O O4 0.500000 0.000000 0.133880
O O5 0.500000 0.500000 0.311920
O O6 0.761592 0.500000 0.250000
O O7 0.500000 0.366148 0.250000
O O8 0.098722 0.816514 0.935428
O O9 0.843477 0.875331 0.000000
O O10 0.000000 0.000000 0.942671
#
# Coordination Sequence:
#
# PCOD9499915 Si02
#       4
#    16  16  16   8
#     4  12  23  42  71 109 144 188 235 294 360 424
#     4   6  17  37  68 106 123 179 240 274 359 418
#     4  11  25  47  71 103 148 195 240 291 352 422
#     4  12  27  40  72 112 140 188 246 288 353 428
#
# _framework density 21.705559000000001
#
# number of rings (size 3 to 8) (size 9 to 14) (size 15 to 20)
#    1.714    0.286    2.857    2.143    0.000    4.571 
#    0.000    0.000    0.000    0.000  104.000    0.000 
#    0.000    0.000    0.000    0.000    0.000    0.000 
#
# Total GULP energy -156277.608878 kJ/mol
# GULP energy per Si atom -5581.343174 kJ/mol
# Density = 2.165616 g / cm^3
# Si number density = 21.705559 Si / 1000 Ang^3
#
#
#
# Elastic Constant Matrix: (Units=GPa)
#
#
# Indices 1 2 3 4 5 6 
#
# 1 124.5781 50.4256 80.5522 0.0000 0.0000 0.0000
# 2 50.4256 111.5050 38.6829 0.0000 0.0000 0.0000
# 3 80.5522 38.6829 162.2696 0.0000 0.0000 0.0000
# 4 0.0000 0.0000 0.0000 -26.2036 0.0000 0.0000
# 5 0.0000 0.0000 0.0000 0.0000 3.2575 0.0000
# 6 0.0000 0.0000 0.0000 0.0000 0.0000 35.9823
#
#
#
# Elastic Compliance Matrix: (Units=1/GPa)
#
#
# Indices 1 2 3 4 5 6 
#
# 1 0.013323 -0.004067 -0.005644 0.000000 0.000000 0.000000
# 2 -0.004067 0.011018 -0.000608 0.000000 0.000000 0.000000
# 3 -0.005644 -0.000608 0.009109 0.000000 0.000000 0.000000
# 4 0.000000 0.000000 0.000000 -0.038163 0.000000 0.000000
# 5 0.000000 0.000000 0.000000 0.000000 0.306980 0.000000
# 6 0.000000 0.000000 0.000000 0.000000 0.000000 0.027791
#
#
# Mechanical properties :
#
#
# Convention : Reuss Voigt Hill
#
# Bulk Modulus (GPa) = 78.04701 81.96378 80.00540
# Shear Modulus (GPa) = 14.08584 17.85340 15.96962
#
# Velocity S-wave (km/s) = 2.55021 2.87108 2.71539
# Velocity P-wave (km/s) = 6.68630 6.98817 6.83890
#
# Compressibility (1/GPa) = 0.01281279
#
# Stress axis : x y z
#
# Youngs Moduli (GPa) = 75.06010 90.75892 109.77912
#
# Poissons Ratio (x) = 0.36910 0.61959
# Poissons Ratio (y) = 0.30526 0.06672
# Poissons Ratio (z) = 0.42364 0.05516
#
# Static dielectric constant tensor:
#      x y z
#    x 1.799280 0.000000 0.000000 
#    y 0.000000 1.823700 0.000000 
#    z 0.000000 0.000000 1.779110 
# 
# From -- ./inp_files/66778.got.cif
#   From: 2010.05.17/outbox.cif.g08.bks.cpg/sg66_34_cif.got.tgz:66778.got - 2010.06.03 17:51:23.
