data_PCOD9499635
_publ_section_title
;
Structure prediction by ZEFSAII (Michael W. Deem and Ramdas Pophale) SiO2 
 PCOD9499635
Probable space group: C C C M
;
_chemical_formula_sum "Si O2"
_cell_formula_units_Z 96
_cell_length_a 19.100861
_cell_length_b 10.988765
_cell_length_c 21.908796
_cell_angle_alpha 90.000000
_cell_angle_beta 90.000000
_cell_angle_gamma 90.000000
_cell_volume 4598.543950
_symmetry_space_group_name_H-M "C C C M"
_symmetry_group_IT_number 66
_symmetry_cell_setting 'orthorhombic'
loop_
_space_group_symop_operation_xyz
x,y,z
-x,-y,z
x,-y,1/2-z
-x,y,1/2-z
-x,-y,-z
x,y,-z
-x,y,1/2+z
x,-y,1/2+z
1/2+x,1/2+y,z
1/2-x,1/2-y,z
1/2+x,1/2-y,1/2-z
1/2-x,1/2+y,1/2-z
1/2-x,1/2-y,-z
1/2+x,1/2+y,-z
1/2-x,1/2+y,1/2+z
1/2+x,1/2-y,1/2+z
loop_
_atom_site_type_symbol
_atom_site_label
_atom_site_fract_x
_atom_site_fract_y
_atom_site_fract_z
Si Si1 0.127004 0.843576 0.065080
Si Si2 0.267369 0.579884 0.160790
Si Si3 0.500000 0.000000 0.132946
Si Si4 0.500000 0.500000 0.107673
Si Si5 0.693142 0.330389 0.704849
Si Si6 0.962414 0.237828 0.688426
Si Si7 0.364525 0.931487 0.930146
O O1 0.183305 0.842079 0.118159
O O2 0.102544 0.704445 0.066223
O O3 0.066344 0.942679 0.072591
O O4 0.163119 0.864675 0.000000
O O5 0.271740 0.633580 0.229437
O O6 0.310033 0.455063 0.168614
O O7 0.195267 0.562215 0.123011
O O8 0.506001 0.870895 0.169964
O O9 0.430305 0.008546 0.092169
O O10 0.524712 0.621938 0.144078
O O11 0.750000 0.250000 0.671297
O O12 0.620064 0.260823 0.704988
O O13 0.000000 0.199731 0.750000
O O14 0.340620 0.960232 0.000000
#
# Coordination Sequence:
#
# PCOD9499635 Si02
#       7
#    16  16   8   8  16  16  16
#     4  11  22  40  67  99 131 176 232 288 341 404
#     4  11  23  41  67  97 131 177 230 290 340 412
#     4  12  26  46  70 102 144 177 235 280 348 424
#     4  12  22  44  68  98 138 171 235 282 340 408
#     4  11  24  41  66  95 136 175 223 279 353 408
#     4  12  26  43  71 102 138 181 222 280 346 419
#     4  11  24  44  69  99 138 186 233 286 348 412
#
# _framework density 20.876173999999999
#
# number of rings (size 3 to 8) (size 9 to 14) (size 15 to 20)
#    0.000    0.667    3.333    5.000    4.667    1.333 
#    0.000    0.000    0.000    2.000    0.000    0.000 
#    0.000    0.000    0.000    0.000    0.000    0.000 
#
# Total GULP energy -267213.164252 kJ/mol
# GULP energy per Si atom -5566.940922 kJ/mol
# Density = 2.082866 g / cm^3
# Si number density = 20.876174 Si / 1000 Ang^3
#
#
#
# Elastic Constant Matrix: (Units=GPa)
#
#
# Indices 1 2 3 4 5 6 
#
# 1 87.2465 -14.5979 13.4119 0.0000 0.0000 0.0000
# 2 -14.5979 59.2778 6.1115 0.0000 0.0000 0.0000
# 3 13.4119 6.1115 86.5514 0.0000 0.0000 0.0000
# 4 0.0000 0.0000 0.0000 32.5319 0.0000 0.0000
# 5 0.0000 0.0000 0.0000 0.0000 170.8135 0.0000
# 6 0.0000 0.0000 0.0000 0.0000 0.0000 38.5370
#
#
#
# Elastic Compliance Matrix: (Units=1/GPa)
#
#
# Indices 1 2 3 4 5 6 
#
# 1 0.012336 0.003259 -0.002142 0.000000 0.000000 0.000000
# 2 0.003259 0.017854 -0.001766 0.000000 0.000000 0.000000
# 3 -0.002142 -0.001766 0.012010 0.000000 0.000000 0.000000
# 4 0.000000 0.000000 0.000000 0.030739 0.000000 0.000000
# 5 0.000000 0.000000 0.000000 0.000000 0.005854 0.000000
# 6 0.000000 0.000000 0.000000 0.000000 0.000000 0.025949
#
#
# Mechanical properties :
#
#
# Convention : Reuss Voigt Hill
#
# Bulk Modulus (GPa) = 24.44771 26.99187 25.71979
# Shear Modulus (GPa) = 41.77974 63.58650 52.68312
#
# Velocity S-wave (km/s) = 4.47846 5.52494 5.02899
# Velocity P-wave (km/s) = 6.20309 7.32513 6.78734
#
# Compressibility (1/GPa) = 0.04090363
#
# Stress axis : x y z
#
# Youngs Moduli (GPa) = 81.06181 56.00903 83.26132
#
# Poissons Ratio (x) = -0.18252 0.17832
# Poissons Ratio (y) = -0.26416 0.14701
# Poissons Ratio (z) = 0.17361 0.09889
#
# Static dielectric constant tensor:
#      x y z
#    x 1.707410 0.000000 0.000000 
#    y 0.000000 1.983020 0.000000 
#    z 0.000000 0.000000 1.789480 
# 
# From -- ./inp_files/58828.got.cif
#   From: 2010.05.17/outbox.cif.g08.bks.cpg/sg66_30_cif.got.tgz:58828.got - 2010.06.03 17:51:23.
