data_PCOD9499148
_publ_section_title
;
Structure prediction by ZEFSAII (Michael W. Deem and Ramdas Pophale) SiO2 
 PCOD9499148
Probable space group: C C C M
;
_chemical_formula_sum "Si O2"
_cell_formula_units_Z 88
_cell_length_a 17.825004
_cell_length_b 8.375188
_cell_length_c 27.850160
_cell_angle_alpha 90.000000
_cell_angle_beta 90.000000
_cell_angle_gamma 90.000000
_cell_volume 4157.687991
_symmetry_space_group_name_H-M "C C C M"
_symmetry_group_IT_number 66
_symmetry_cell_setting 'orthorhombic'
loop_
_space_group_symop_operation_xyz
x,y,z
-x,-y,z
x,-y,1/2-z
-x,y,1/2-z
-x,-y,-z
x,y,-z
-x,y,1/2+z
x,-y,1/2+z
1/2+x,1/2+y,z
1/2-x,1/2-y,z
1/2+x,1/2-y,1/2-z
1/2-x,1/2+y,1/2-z
1/2-x,1/2-y,-z
1/2+x,1/2+y,-z
1/2-x,1/2+y,1/2+z
1/2+x,1/2-y,1/2+z
loop_
_atom_site_type_symbol
_atom_site_label
_atom_site_fract_x
_atom_site_fract_y
_atom_site_fract_z
Si Si1 0.750000 0.750000 0.914699
Si Si2 0.717392 0.006422 0.500000
Si Si3 0.132363 0.851606 0.664169
Si Si4 0.428752 0.617502 0.102307
Si Si5 0.674579 0.808353 0.260408
Si Si6 0.134514 0.201098 0.500000
Si Si7 0.474319 0.178552 0.321617
O O1 0.821310 0.769491 0.879194
O O2 0.727542 0.889925 0.951813
O O3 0.786769 0.887965 0.500000
O O4 0.645275 0.892053 0.500000
O O5 0.174014 0.806118 0.713280
O O6 0.048729 0.787998 0.677339
O O7 0.123663 0.027848 0.641652
O O8 0.500000 0.500000 0.100067
O O9 0.444010 0.790216 0.124977
O O10 0.402437 0.641018 0.048731
O O11 0.750000 0.750000 0.287652
O O12 0.594161 0.783662 0.286068
O O13 0.678640 0.000000 0.250000
O O14 0.500000 0.000000 0.312285
#
# Coordination Sequence:
#
# PCOD9499148 Si02
#       7
#     8   8  16  16  16   8  16
#     4  11  22  44  68 108 152 190 248 295 372 436
#     4  10  24  38  69 103 148 196 230 307 364 435
#     4  11  23  43  73 100 143 193 238 296 364 433
#     4  10  24  44  70 100 138 187 240 299 366 432
#     4  12  27  45  71 106 145 187 244 301 368 437
#     4  11  21  44  66 104 141 184 246 296 366 431
#     4  11  25  46  71 102 144 194 240 302 361 427
#
# _framework density 21.165607999999999
#
# number of rings (size 3 to 8) (size 9 to 14) (size 15 to 20)
#    0.000    1.091    4.545    0.818    5.091    0.000 
#    3.273    3.182    0.000    0.000    0.000    0.000 
#    0.000    0.000    0.000    0.000    0.000    0.000 
#
# Total GULP energy -245107.459790 kJ/mol
# GULP energy per Si atom -5570.624086 kJ/mol
# Density = 2.111743 g / cm^3
# Si number density = 21.165608 Si / 1000 Ang^3
#
#
#
# Elastic Constant Matrix: (Units=GPa)
#
#
# Indices 1 2 3 4 5 6 
#
# 1 117.4017 34.3652 56.9400 0.0000 0.0000 0.0000
# 2 34.3652 75.5720 61.5992 0.0000 0.0000 0.0000
# 3 56.9400 61.5992 140.1556 0.0000 0.0000 0.0000
# 4 0.0000 0.0000 0.0000 18.1635 0.0000 0.0000
# 5 0.0000 0.0000 0.0000 0.0000 30.6192 0.0000
# 6 0.0000 0.0000 0.0000 0.0000 0.0000 28.8948
#
#
#
# Elastic Compliance Matrix: (Units=1/GPa)
#
#
# Indices 1 2 3 4 5 6 
#
# 1 0.010814 -0.002083 -0.003478 0.000000 0.000000 0.000000
# 2 -0.002083 0.021020 -0.008392 0.000000 0.000000 0.000000
# 3 -0.003478 -0.008392 0.012236 0.000000 0.000000 0.000000
# 4 0.000000 0.000000 0.000000 0.055056 0.000000 0.000000
# 5 0.000000 0.000000 0.000000 0.000000 0.032659 0.000000
# 6 0.000000 0.000000 0.000000 0.000000 0.000000 0.034608
#
#
# Mechanical properties :
#
#
# Convention : Reuss Voigt Hill
#
# Bulk Modulus (GPa) = 61.86333 70.99309 66.42821
# Shear Modulus (GPa) = 25.03902 27.55049 26.29476
#
# Velocity S-wave (km/s) = 3.44322 3.61177 3.52850
# Velocity P-wave (km/s) = 6.71560 7.14197 6.93206
#
# Compressibility (1/GPa) = 0.01616467
#
# Stress axis : x y z
#
# Youngs Moduli (GPa) = 92.47047 47.57347 81.72294
#
# Poissons Ratio (x) = 0.09908 0.28424
# Poissons Ratio (y) = 0.19258 0.68585
# Poissons Ratio (z) = 0.32162 0.39926
#
# Static dielectric constant tensor:
#      x y z
#    x 1.852900 0.000000 0.000000 
#    y 0.000000 1.799060 0.000000 
#    z 0.000000 0.000000 1.769400 
# 
# From -- ./inp_files/69944.got.cif
#   From: 2010.05.17/outbox.cif.g08.bks.cpg/sg66_35_cif.got.tgz:69944.got - 2010.06.03 17:51:23.
