data_PCOD9499983
_publ_section_title
;
Structure prediction by ZEFSAII (Michael W. Deem and Ramdas Pophale) SiO2 
 PCOD9499983
Probable space group: C C C M
;
_chemical_formula_sum "Si O2"
_cell_formula_units_Z 68
_cell_length_a 7.480230
_cell_length_b 24.725948
_cell_length_c 18.449597
_cell_angle_alpha 90.000000
_cell_angle_beta 90.000000
_cell_angle_gamma 90.000000
_cell_volume 3412.359567
_symmetry_space_group_name_H-M "C C C M"
_symmetry_group_IT_number 66
_symmetry_cell_setting 'orthorhombic'
loop_
_space_group_symop_operation_xyz
x,y,z
-x,-y,z
x,-y,1/2-z
-x,y,1/2-z
-x,-y,-z
x,y,-z
-x,y,1/2+z
x,-y,1/2+z
1/2+x,1/2+y,z
1/2-x,1/2-y,z
1/2+x,1/2-y,1/2-z
1/2-x,1/2+y,1/2-z
1/2-x,1/2-y,-z
1/2+x,1/2+y,-z
1/2-x,1/2+y,1/2+z
1/2+x,1/2-y,1/2+z
loop_
_atom_site_type_symbol
_atom_site_label
_atom_site_fract_x
_atom_site_fract_y
_atom_site_fract_z
Si Si1 0.669240 0.041250 0.155043
Si Si2 0.653648 0.453028 0.000000
Si Si3 0.671668 0.810596 0.122779
Si Si4 0.500000 0.866795 0.250000
Si Si5 0.898648 0.148973 0.500000
Si Si6 0.000000 0.000000 0.250000
Si Si7 0.052557 0.269397 0.500000
O O1 0.724218 0.042947 0.071269
O O2 0.599165 0.096053 0.191297
O O3 0.855233 0.028492 0.197105
O O4 0.500000 0.000000 0.164742
O O5 0.500000 0.500000 0.000000
O O6 0.552012 0.395229 0.000000
O O7 0.750000 0.750000 0.127817
O O8 0.633720 0.831494 0.202327
O O9 0.788043 0.853036 0.075233
O O10 0.498960 0.802502 0.071383
O O11 0.946829 0.212649 0.500000
O O12 0.250000 0.250000 0.500000
#
# Coordination Sequence:
#
# PCOD9499983 Si02
#       7
#    16   8  16   8   8   4   8
#     4  12  27  48  70 104 143 185 233 290 348 422
#     4  12  28  43  73 105 133 186 240 286 342 426
#     4   9  22  44  64  95 137 174 225 290 344 412
#     4  12  25  42  71 100 140 183 227 286 354 418
#     4   9  22  43  67  95 128 178 224 279 351 404
#     4  12  22  50  70  94 148 188 222 288 368 392
#     4   9  19  40  67  92 131 172 222 284 345 409
#
# _framework density 19.927558999999999
#
# number of rings (size 3 to 8) (size 9 to 14) (size 15 to 20)
#    0.000    1.412    3.529    1.765    9.882    1.882 
#    4.235    0.000    0.000    0.000    0.000    0.000 
#    0.000    0.000    0.000    0.000    0.000    0.000 
#
# Total GULP energy -189503.108502 kJ/mol
# GULP energy per Si atom -5573.620838 kJ/mol
# Density = 1.988220 g / cm^3
# Si number density = 19.927559 Si / 1000 Ang^3
#
#
#
# Elastic Constant Matrix: (Units=GPa)
#
#
# Indices 1 2 3 4 5 6 
#
# 1 94.3866 31.4935 41.2953 0.0000 0.0000 0.0000
# 2 31.4935 73.7755 44.9512 0.0000 0.0000 0.0000
# 3 41.2953 44.9512 162.7090 0.0000 0.0000 0.0000
# 4 0.0000 0.0000 0.0000 10.1133 0.0000 0.0000
# 5 0.0000 0.0000 0.0000 0.0000 29.9693 0.0000
# 6 0.0000 0.0000 0.0000 0.0000 0.0000 17.9644
#
#
#
# Elastic Compliance Matrix: (Units=1/GPa)
#
#
# Indices 1 2 3 4 5 6 
#
# 1 0.012931 -0.004233 -0.002113 0.000000 0.000000 0.000000
# 2 -0.004233 0.017684 -0.003811 0.000000 0.000000 0.000000
# 3 -0.002113 -0.003811 0.007735 0.000000 0.000000 0.000000
# 4 0.000000 0.000000 0.000000 0.098880 0.000000 0.000000
# 5 0.000000 0.000000 0.000000 0.000000 0.033367 0.000000
# 6 0.000000 0.000000 0.000000 0.000000 0.000000 0.055666
#
#
# Mechanical properties :
#
#
# Convention : Reuss Voigt Hill
#
# Bulk Modulus (GPa) = 55.44222 62.92790 59.18506
# Shear Modulus (GPa) = 19.79504 25.81814 22.80659
#
# Velocity S-wave (km/s) = 3.15516 3.60335 3.38668
# Velocity P-wave (km/s) = 6.41527 6.99707 6.71248
#
# Compressibility (1/GPa) = 0.01803680
#
# Stress axis : x y z
#
# Youngs Moduli (GPa) = 77.33122 56.54908 129.28288
#
# Poissons Ratio (x) = 0.23937 0.27311
# Poissons Ratio (y) = 0.32735 0.49271
# Poissons Ratio (z) = 0.16336 0.21551
#
# Static dielectric constant tensor:
#      x y z
#    x 1.678950 0.000000 0.000000 
#    y 0.000000 1.686630 0.000000 
#    z 0.000000 0.000000 1.714620 
# 
# From -- ./inp_files/36583.got.cif
#   From: 2010.05.17/outbox.cif.g08.bks.cpg/sg66_19_cif.got.tgz:36583.got - 2010.06.03 17:51:23.
