data_PCOD9499267
_publ_section_title
;
Structure prediction by ZEFSAII (Michael W. Deem and Ramdas Pophale) SiO2 
 PCOD9499267
Probable space group: C C C M
;
_chemical_formula_sum "Si O2"
_cell_formula_units_Z 52
_cell_length_a 9.987948
_cell_length_b 15.639671
_cell_length_c 14.265171
_cell_angle_alpha 90.000000
_cell_angle_beta 90.000000
_cell_angle_gamma 90.000000
_cell_volume 2228.336980
_symmetry_space_group_name_H-M "C C C M"
_symmetry_group_IT_number 66
_symmetry_cell_setting 'orthorhombic'
loop_
_space_group_symop_operation_xyz
x,y,z
-x,-y,z
x,-y,1/2-z
-x,y,1/2-z
-x,-y,-z
x,y,-z
-x,y,1/2+z
x,-y,1/2+z
1/2+x,1/2+y,z
1/2-x,1/2-y,z
1/2+x,1/2-y,1/2-z
1/2-x,1/2+y,1/2-z
1/2-x,1/2-y,-z
1/2+x,1/2+y,-z
1/2-x,1/2+y,1/2+z
1/2+x,1/2-y,1/2+z
loop_
_atom_site_type_symbol
_atom_site_label
_atom_site_fract_x
_atom_site_fract_y
_atom_site_fract_z
Si Si1 0.080016 0.923540 0.847885
Si Si2 0.505952 0.237592 0.136396
Si Si3 0.250000 0.250000 0.000000
Si Si4 0.626628 0.945176 0.392895
O O1 0.071951 0.828749 0.889486
O O2 0.233289 0.951328 0.840055
O O3 0.000000 0.914851 0.750000
O O4 0.000000 0.000000 0.897885
O O5 0.500000 0.232816 0.250000
O O6 0.365042 0.235685 0.082568
O O7 0.585809 0.153611 0.107197
O O8 0.651811 0.974791 0.500000
O O9 0.500000 0.000000 0.357856
#
# Coordination Sequence:
#
# PCOD9499267 Si02
#       4
#    16  16   4  16
#     4  10  25  45  71 103 148 194 246 305 377 454
#     4  11  27  46  78 108 155 200 254 312 390 453
#     4  12  28  48  78 118 160 198 262 328 380 462
#     4  11  26  47  72 109 148 195 251 317 384 453
#
# _framework density 23.335789999999999
#
# number of rings (size 3 to 8) (size 9 to 14) (size 15 to 20)
#    0.000    1.231    1.538    0.923   15.077    4.923 
#    0.000    0.000    0.000    0.000    0.000    0.000 
#    0.000    0.000    0.000    0.000    0.000    0.000 
#
# Total GULP energy -144743.110897 kJ/mol
# GULP energy per Si atom -5567.042727 kJ/mol
# Density = 2.328268 g / cm^3
# Si number density = 23.335790 Si / 1000 Ang^3
#
#
#
# Elastic Constant Matrix: (Units=GPa)
#
#
# Indices 1 2 3 4 5 6 
#
# 1 265.3418 71.1000 64.4876 0.0000 0.0000 0.0000
# 2 71.1000 158.0054 0.6128 0.0000 0.0000 0.0000
# 3 64.4876 0.6128 172.0828 0.0000 0.0000 0.0000
# 4 0.0000 0.0000 0.0000 42.7061 0.0000 0.0000
# 5 0.0000 0.0000 0.0000 0.0000 48.8655 0.0000
# 6 0.0000 0.0000 0.0000 0.0000 0.0000 0.7976
#
#
#
# Elastic Compliance Matrix: (Units=1/GPa)
#
#
# Indices 1 2 3 4 5 6 
#
# 1 0.004776 -0.002142 -0.001782 0.000000 0.000000 0.000000
# 2 -0.002142 0.007290 0.000777 0.000000 0.000000 0.000000
# 3 -0.001782 0.000777 0.006476 0.000000 0.000000 0.000000
# 4 0.000000 0.000000 0.000000 0.023416 0.000000 0.000000
# 5 0.000000 0.000000 0.000000 0.000000 0.020464 0.000000
# 6 0.000000 0.000000 0.000000 0.000000 0.000000 1.253698
#
#
# Mechanical properties :
#
#
# Convention : Reuss Voigt Hill
#
# Bulk Modulus (GPa) = 81.65271 96.42566 89.03918
# Shear Modulus (GPa) = 3.76933 49.08914 26.42923
#
# Velocity S-wave (km/s) = 1.27231 4.59148 3.36901
# Velocity P-wave (km/s) = 6.10120 8.33784 7.30562
#
# Compressibility (1/GPa) = 0.01224699
#
# Stress axis : x y z
#
# Youngs Moduli (GPa) = 209.38717 137.17769 154.41085
#
# Poissons Ratio (x) = 0.29385 0.27518
# Poissons Ratio (y) = 0.44854 -0.11995
# Poissons Ratio (z) = 0.37315 -0.10656
#
# Static dielectric constant tensor:
#      x y z
#    x 1.824480 0.000000 0.000000 
#    y 0.000000 1.919510 0.000000 
#    z 0.000000 0.000000 1.949510 
# 
# From -- ./inp_files/35975.got.cif
#   From: 2010.05.17/outbox.cif.g08.bks.cpg/sg66_18_cif.got.tgz:35975.got - 2010.06.03 17:51:23.
