data_PCOD9499447
_publ_section_title
;
Structure prediction by ZEFSAII (Michael W. Deem and Ramdas Pophale) SiO2 
 PCOD9499447
Probable space group: C C C M
;
_chemical_formula_sum "Si O2"
_cell_formula_units_Z 96
_cell_length_a 26.392528
_cell_length_b 8.883108
_cell_length_c 21.072727
_cell_angle_alpha 90.000000
_cell_angle_beta 90.000000
_cell_angle_gamma 90.000000
_cell_volume 4940.451885
_symmetry_space_group_name_H-M "C C C M"
_symmetry_group_IT_number 66
_symmetry_cell_setting 'orthorhombic'
loop_
_space_group_symop_operation_xyz
x,y,z
-x,-y,z
x,-y,1/2-z
-x,y,1/2-z
-x,-y,-z
x,y,-z
-x,y,1/2+z
x,-y,1/2+z
1/2+x,1/2+y,z
1/2-x,1/2-y,z
1/2+x,1/2-y,1/2-z
1/2-x,1/2+y,1/2-z
1/2-x,1/2-y,-z
1/2+x,1/2+y,-z
1/2-x,1/2+y,1/2+z
1/2+x,1/2-y,1/2+z
loop_
_atom_site_type_symbol
_atom_site_label
_atom_site_fract_x
_atom_site_fract_y
_atom_site_fract_z
Si Si1 0.559832 0.490590 0.423485
Si Si2 0.310561 0.026693 0.075580
Si Si3 0.793981 0.902687 0.368103
Si Si4 0.376000 0.232847 0.571358
Si Si5 0.800359 0.680839 0.246945
Si Si6 0.642871 0.301445 0.640221
O O1 0.500000 0.500000 0.413646
O O2 0.569473 0.477413 0.500000
O O3 0.584320 0.649324 0.400464
O O4 0.589331 0.354975 0.388334
O O5 0.325446 0.196848 0.091791
O O6 0.260781 0.962180 0.110365
O O7 0.359113 0.927387 0.098430
O O8 0.304378 0.008384 0.000000
O O9 0.823042 0.824834 0.426492
O O10 0.799792 0.781471 0.311062
O O11 0.826688 0.045222 0.348992
O O12 0.393382 0.203947 0.500000
O O13 0.793897 0.500000 0.250000
O O14 0.750000 0.750000 0.213223
O O15 0.850668 0.714554 0.206635
#
# Coordination Sequence:
#
# PCOD9499447 Si02
#       6
#    16  16  16  16  16  16
#     4   9  19  38  61  82 106 140 186 241 298 353
#     4  11  21  33  53  86 125 157 188 233 287 345
#     4  11  21  34  53  79 115 158 194 223 268 332
#     4   9  18  32  52  79 109 143 183 227 278 333
#     4  12  23  36  54  79 116 157 195 229 269 331
#     4  11  22  35  54  81 111 148 194 237 283 339
#
# _framework density 19.431421
#
# number of rings (size 3 to 8) (size 9 to 14) (size 15 to 20)
#    0.000    1.500    0.000    7.500    0.000    5.333 
#    0.000    0.833    0.000   12.000    0.000    4.667 
#    0.000    0.000    0.000    0.000    0.000    0.000 
#
# Total GULP energy -267286.471661 kJ/mol
# GULP energy per Si atom -5568.468160 kJ/mol
# Density = 1.938719 g / cm^3
# Si number density = 19.431421 Si / 1000 Ang^3
#
#
#
# Elastic Constant Matrix: (Units=GPa)
#
#
# Indices 1 2 3 4 5 6 
#
# 1 110.3659 46.0699 39.5674 0.0000 0.0000 0.0000
# 2 46.0699 135.0803 37.0360 0.0000 0.0000 0.0000
# 3 39.5674 37.0360 82.1599 0.0000 0.0000 0.0000
# 4 0.0000 0.0000 0.0000 29.9397 0.0000 0.0000
# 5 0.0000 0.0000 0.0000 0.0000 20.6884 0.0000
# 6 0.0000 0.0000 0.0000 0.0000 0.0000 20.8278
#
#
#
# Elastic Compliance Matrix: (Units=1/GPa)
#
#
# Indices 1 2 3 4 5 6 
#
# 1 0.011824 -0.002820 -0.004423 0.000000 0.000000 0.000000
# 2 -0.002820 0.009119 -0.002753 0.000000 0.000000 0.000000
# 3 -0.004423 -0.002753 0.015542 0.000000 0.000000 0.000000
# 4 0.000000 0.000000 0.000000 0.033400 0.000000 0.000000
# 5 0.000000 0.000000 0.000000 0.000000 0.048336 0.000000
# 6 0.000000 0.000000 0.000000 0.000000 0.000000 0.048013
#
#
# Mechanical properties :
#
#
# Convention : Reuss Voigt Hill
#
# Bulk Modulus (GPa) = 60.62787 63.66141 62.14464
# Shear Modulus (GPa) = 26.07914 27.95338 27.01626
#
# Velocity S-wave (km/s) = 3.66746 3.79696 3.73277
# Velocity P-wave (km/s) = 7.01444 7.21497 7.11541
#
# Compressibility (1/GPa) = 0.01649406
#
# Stress axis : x y z
#
# Youngs Moduli (GPa) = 84.57717 109.65524 64.34014
#
# Poissons Ratio (x) = 0.30921 0.28458
# Poissons Ratio (y) = 0.23849 0.17712
# Poissons Ratio (z) = 0.37408 0.30187
#
# Static dielectric constant tensor:
#      x y z
#    x 1.685930 0.000000 0.000000 
#    y 0.000000 1.751130 0.000000 
#    z 0.000000 0.000000 1.783080 
# 
# From -- ./inp_files/52989.got.cif
#   From: 2010.05.17/outbox.cif.g08.bks.cpg/sg66_27_cif.got.tgz:52989.got - 2010.06.03 17:51:23.
