data_PCOD9499561
_publ_section_title
;
Structure prediction by ZEFSAII (Michael W. Deem and Ramdas Pophale) SiO2 
 PCOD9499561
Probable space group: C C C M
;
_chemical_formula_sum "Si O2"
_cell_formula_units_Z 80
_cell_length_a 8.883017
_cell_length_b 20.268353
_cell_length_c 25.439652
_cell_angle_alpha 90.000000
_cell_angle_beta 90.000000
_cell_angle_gamma 90.000000
_cell_volume 4580.259866
_symmetry_space_group_name_H-M "C C C M"
_symmetry_group_IT_number 66
_symmetry_cell_setting 'orthorhombic'
loop_
_space_group_symop_operation_xyz
x,y,z
-x,-y,z
x,-y,1/2-z
-x,y,1/2-z
-x,-y,-z
x,y,-z
-x,y,1/2+z
x,-y,1/2+z
1/2+x,1/2+y,z
1/2-x,1/2-y,z
1/2+x,1/2-y,1/2-z
1/2-x,1/2+y,1/2-z
1/2-x,1/2-y,-z
1/2+x,1/2+y,-z
1/2-x,1/2+y,1/2+z
1/2+x,1/2-y,1/2+z
loop_
_atom_site_type_symbol
_atom_site_label
_atom_site_fract_x
_atom_site_fract_y
_atom_site_fract_z
Si Si1 0.650043 0.814470 0.781273
Si Si2 0.761755 0.459902 0.000000
Si Si3 0.741681 0.963215 0.385386
Si Si4 0.918322 0.395311 0.500000
Si Si5 0.409335 0.103828 0.885134
Si Si6 0.833096 0.069154 0.227147
O O1 0.500000 0.796431 0.750000
O O2 0.750000 0.750000 0.787722
O O3 0.612774 0.846890 0.837388
O O4 0.734230 0.870379 0.747051
O O5 0.685729 0.452659 0.056906
O O6 0.837182 0.532822 0.000000
O O7 0.903403 0.410282 0.000000
O O8 0.579183 0.926061 0.384493
O O9 0.834028 0.937901 0.335717
O O10 0.700354 0.040482 0.379004
O O11 0.882047 0.365522 0.556860
O O12 0.000000 0.076191 0.250000
O O13 0.769244 0.000000 0.250000
#
# Coordination Sequence:
#
# PCOD9499561 Si02
#       6
#    16   8  16   8  16  16
#     4  12  24  38  54  77 109 148 186 227 275 330
#     4   7  12  22  46  82 113 132 168 218 271 314
#     4   9  15  29  54  84 109 139 176 224 268 325
#     4   7  12  24  45  81 112 133 166 225 262 315
#     4   9  16  29  54  82 110 138 180 218 271 326
#     4  11  22  35  54  81 113 143 181 226 273 323
#
# _framework density 17.466258
#
# number of rings (size 3 to 8) (size 9 to 14) (size 15 to 20)
#    0.000    2.400    4.000    3.000    0.000    0.400 
#    0.000    0.500    0.000    3.600    0.000    5.600 
#    0.000    0.000    0.000    0.000    0.000    0.000 
#
# Total GULP energy -222886.692946 kJ/mol
# GULP energy per Si atom -5572.167324 kJ/mol
# Density = 1.742650 g / cm^3
# Si number density = 17.466258 Si / 1000 Ang^3
#
#
#
# Elastic Constant Matrix: (Units=GPa)
#
#
# Indices 1 2 3 4 5 6 
#
# 1 41.5264 20.6363 38.2173 0.0000 0.0000 0.0000
# 2 20.6363 71.3104 41.9702 0.0000 0.0000 0.0000
# 3 38.2173 41.9702 215.4083 0.0000 0.0000 0.0000
# 4 0.0000 0.0000 0.0000 -33.3948 0.0000 0.0000
# 5 0.0000 0.0000 0.0000 0.0000 18.8589 0.0000
# 6 0.0000 0.0000 0.0000 0.0000 0.0000 12.2330
#
#
#
# Elastic Compliance Matrix: (Units=1/GPa)
#
#
# Indices 1 2 3 4 5 6 
#
# 1 0.031260 -0.006531 -0.004274 0.000000 0.000000 0.000000
# 2 -0.006531 0.017204 -0.002193 0.000000 0.000000 0.000000
# 3 -0.004274 -0.002193 0.005828 0.000000 0.000000 0.000000
# 4 0.000000 0.000000 0.000000 -0.029945 0.000000 0.000000
# 5 0.000000 0.000000 0.000000 0.000000 0.053025 0.000000
# 6 0.000000 0.000000 0.000000 0.000000 0.000000 0.081746
#
#
# Mechanical properties :
#
#
# Convention : Reuss Voigt Hill
#
# Bulk Modulus (GPa) = 35.34071 58.87696 47.10883
# Shear Modulus (GPa) = 25.70087 14.70083 20.20085
#
# Velocity S-wave (km/s) = 3.84012 2.90430 3.40452
# Velocity P-wave (km/s) = 6.31978 6.71035 6.51799
#
# Compressibility (1/GPa) = 0.02829598
#
# Stress axis : x y z
#
# Youngs Moduli (GPa) = 31.99025 58.12578 171.58848
#
# Poissons Ratio (x) = 0.37961 0.73329
# Poissons Ratio (y) = 0.20892 0.37635
# Poissons Ratio (z) = 0.13671 0.12749
#
# Static dielectric constant tensor:
#      x y z
#    x 1.602980 0.000000 0.000000 
#    y 0.000000 1.559430 0.000000 
#    z 0.000000 0.000000 1.643990 
# 
# From -- ./inp_files/55383.got.cif
#   From: 2010.05.17/outbox.cif.g08.bks.cpg/sg66_28_cif.got.tgz:55383.got - 2010.06.03 17:51:23.
