data_PCOD9499466
_publ_section_title
;
Structure prediction by ZEFSAII (Michael W. Deem and Ramdas Pophale) SiO2 
 PCOD9499466
Probable space group: C C C M
;
_chemical_formula_sum "Si O2"
_cell_formula_units_Z 104
_cell_length_a 16.727955
_cell_length_b 10.817870
_cell_length_c 29.392165
_cell_angle_alpha 90.000000
_cell_angle_beta 90.000000
_cell_angle_gamma 90.000000
_cell_volume 5318.830943
_symmetry_space_group_name_H-M "C C C M"
_symmetry_group_IT_number 66
_symmetry_cell_setting 'orthorhombic'
loop_
_space_group_symop_operation_xyz
x,y,z
-x,-y,z
x,-y,1/2-z
-x,y,1/2-z
-x,-y,-z
x,y,-z
-x,y,1/2+z
x,-y,1/2+z
1/2+x,1/2+y,z
1/2-x,1/2-y,z
1/2+x,1/2-y,1/2-z
1/2-x,1/2+y,1/2-z
1/2-x,1/2-y,-z
1/2+x,1/2+y,-z
1/2-x,1/2+y,1/2+z
1/2+x,1/2-y,1/2+z
loop_
_atom_site_type_symbol
_atom_site_label
_atom_site_fract_x
_atom_site_fract_y
_atom_site_fract_z
Si Si1 0.671489 0.386636 0.401275
Si Si2 0.342233 0.876357 0.627740
Si Si3 0.209881 0.616173 0.728400
Si Si4 0.000000 0.500000 0.856538
Si Si5 0.982323 0.146711 0.548917
Si Si6 0.431144 0.399643 0.636721
Si Si7 0.563768 0.793183 0.712184
O O1 0.650283 0.272515 0.367577
O O2 0.766762 0.391905 0.405982
O O3 0.612884 0.348980 0.442491
O O4 0.640652 0.516718 0.382210
O O5 0.314473 0.919963 0.677359
O O6 0.423333 0.947983 0.616149
O O7 0.256617 0.500000 0.750000
O O8 0.250000 0.750000 0.727066
O O9 0.133281 0.638829 0.760310
O O10 0.024321 0.610517 0.822735
O O11 0.004147 0.202514 0.500000
O O12 0.031467 0.181185 0.594588
O O13 0.000000 0.000000 0.546628
O O14 0.500000 0.500000 0.648620
O O15 0.409016 0.318396 0.679859
O O16 0.500000 0.751500 0.750000
#
# Coordination Sequence:
#
# PCOD9499466 Si02
#       7
#    16  16  16   8  16  16  16
#     4   9  19  37  55  82 112 141 188 238 300 352
#     4  11  21  36  55  72 113 156 188 247 290 338
#     4  12  25  39  56  79 113 162 211 249 295 351
#     4  12  21  38  52  70 107 154 211 226 282 344
#     4   8  15  32  59  86 116 145 179 238 305 364
#     4   9  20  34  52  86 117 141 189 238 298 356
#     4  12  23  35  53  76 109 153 195 236 279 348
#
# _framework density 19.553170000000001
#
# number of rings (size 3 to 8) (size 9 to 14) (size 15 to 20)
#    0.000    2.000    4.615    2.077    2.154    0.308 
#    0.000    1.538    0.000    0.000    0.000   13.462 
#    0.000   36.308    0.000    0.000    0.000    0.154 
#
# Total GULP energy -289591.837247 kJ/mol
# GULP energy per Si atom -5569.073793 kJ/mol
# Density = 1.950867 g / cm^3
# Si number density = 19.553170 Si / 1000 Ang^3
#
#
#
# Elastic Constant Matrix: (Units=GPa)
#
#
# Indices 1 2 3 4 5 6 
#
# 1 103.3226 19.2751 14.1790 0.0000 0.0000 0.0000
# 2 19.2751 52.6026 12.2329 0.0000 0.0000 0.0000
# 3 14.1790 12.2329 59.4980 0.0000 0.0000 0.0000
# 4 0.0000 0.0000 0.0000 0.6413 0.0000 0.0000
# 5 0.0000 0.0000 0.0000 0.0000 -2.4488 0.0000
# 6 0.0000 0.0000 0.0000 0.0000 0.0000 30.0824
#
#
#
# Elastic Compliance Matrix: (Units=1/GPa)
#
#
# Indices 1 2 3 4 5 6 
#
# 1 0.010571 -0.003453 -0.001809 0.000000 0.000000 0.000000
# 2 -0.003453 0.021093 -0.003514 0.000000 0.000000 0.000000
# 3 -0.001809 -0.003514 0.017961 0.000000 0.000000 0.000000
# 4 0.000000 0.000000 0.000000 1.559443 0.000000 0.000000
# 5 0.000000 0.000000 0.000000 0.000000 -0.408359 0.000000
# 6 0.000000 0.000000 0.000000 0.000000 0.000000 0.033242
#
#
# Mechanical properties :
#
#
# Convention : Reuss Voigt Hill
#
# Bulk Modulus (GPa) = 31.17906 34.08858 32.63382
# Shear Modulus (GPa) = 3.96136 16.97072 10.46604
#
# Velocity S-wave (km/s) = 1.42490 2.94926 2.31608
# Velocity P-wave (km/s) = 4.32291 5.39158 4.88654
#
# Compressibility (1/GPa) = 0.03207281
#
# Stress axis : x y z
#
# Youngs Moduli (GPa) = 94.60008 47.40951 55.67648
#
# Poissons Ratio (x) = 0.16369 0.10073
# Poissons Ratio (y) = 0.32663 0.19564
# Poissons Ratio (z) = 0.17115 0.16659
#
# Static dielectric constant tensor:
#      x y z
#    x 1.751960 0.000000 0.000000 
#    y 0.000000 1.729110 0.000000 
#    z 0.000000 0.000000 1.711680 
# 
# From -- ./inp_files/69989.got.cif
#   From: 2010.05.17/outbox.cif.g08.bks.cpg/sg66_35_cif.got.tgz:69989.got - 2010.06.03 17:51:23.
