data_PCOD9499256
_publ_section_title
;
Structure prediction by ZEFSAII (Michael W. Deem and Ramdas Pophale) SiO2 
 PCOD9499256
Probable space group: C C C M
;
_chemical_formula_sum "Si O2"
_cell_formula_units_Z 56
_cell_length_a 23.557113
_cell_length_b 5.142568
_cell_length_c 20.021842
_cell_angle_alpha 90.000000
_cell_angle_beta 90.000000
_cell_angle_gamma 90.000000
_cell_volume 2425.527138
_symmetry_space_group_name_H-M "C C C M"
_symmetry_group_IT_number 66
_symmetry_cell_setting 'orthorhombic'
loop_
_space_group_symop_operation_xyz
x,y,z
-x,-y,z
x,-y,1/2-z
-x,y,1/2-z
-x,-y,-z
x,y,-z
-x,y,1/2+z
x,-y,1/2+z
1/2+x,1/2+y,z
1/2-x,1/2-y,z
1/2+x,1/2-y,1/2-z
1/2-x,1/2+y,1/2-z
1/2-x,1/2-y,-z
1/2+x,1/2+y,-z
1/2-x,1/2+y,1/2+z
1/2+x,1/2-y,1/2+z
loop_
_atom_site_type_symbol
_atom_site_label
_atom_site_fract_x
_atom_site_fract_y
_atom_site_fract_z
Si Si1 0.163427 0.304097 0.423777
Si Si2 0.406348 0.500000 0.250000
Si Si3 0.537064 0.740358 0.378297
Si Si4 0.189333 0.196778 0.160754
O O1 0.181183 0.272092 0.500000
O O2 0.095177 0.280117 0.418243
O O3 0.180139 0.581855 0.394212
O O4 0.188294 0.079850 0.376421
O O5 0.442921 0.346648 0.304191
O O6 0.363654 0.307706 0.210840
O O7 0.500000 0.500000 0.405137
O O8 0.500000 0.000000 0.376747
O O9 0.250000 0.250000 0.194137
#
# Coordination Sequence:
#
# PCOD9499256 Si02
#       4
#    16   8  16  16
#     4  11  25  44  65  95 130 166 216 264 309 377
#     4  10  25  42  64  96 130 162 213 264 314 384
#     4  11  24  41  64  92 126 168 210 260 320 376
#     4  11  25  43  67  96 128 169 210 261 322 375
#
# _framework density 23.087762999999999
#
# number of rings (size 3 to 8) (size 9 to 14) (size 15 to 20)
#    0.000    1.143    0.000    5.571    0.000   22.857 
#    0.000    0.000    0.000    0.000    0.000    0.000 
#    0.000    0.000    0.000    0.000    0.000    0.000 
#
# Total GULP energy -156959.278469 kJ/mol
# GULP energy per Si atom -5605.688517 kJ/mol
# Density = 2.303521 g / cm^3
# Si number density = 23.087763 Si / 1000 Ang^3
#
#
#
# Elastic Constant Matrix: (Units=GPa)
#
#
# Indices 1 2 3 4 5 6 
#
# 1 130.3598 32.9159 -4.9583 0.0000 0.0000 0.0000
# 2 32.9159 120.4123 1.5426 0.0000 0.0000 0.0000
# 3 -4.9583 1.5426 59.8669 0.0000 0.0000 0.0000
# 4 0.0000 0.0000 0.0000 33.6755 0.0000 0.0000
# 5 0.0000 0.0000 0.0000 0.0000 5.4196 0.0000
# 6 0.0000 0.0000 0.0000 0.0000 0.0000 43.2592
#
#
#
# Elastic Compliance Matrix: (Units=1/GPa)
#
#
# Indices 1 2 3 4 5 6 
#
# 1 0.008273 -0.002271 0.000744 0.000000 0.000000 0.000000
# 2 -0.002271 0.008931 -0.000418 0.000000 0.000000 0.000000
# 3 0.000744 -0.000418 0.016776 0.000000 0.000000 0.000000
# 4 0.000000 0.000000 0.000000 0.029695 0.000000 0.000000
# 5 0.000000 0.000000 0.000000 0.000000 0.184514 0.000000
# 6 0.000000 0.000000 0.000000 0.000000 0.000000 0.023116
#
#
# Mechanical properties :
#
#
# Convention : Reuss Voigt Hill
#
# Bulk Modulus (GPa) = 33.23494 41.07106 37.15300
# Shear Modulus (GPa) = 17.52994 35.21345 26.37170
#
# Velocity S-wave (km/s) = 2.75848 3.90962 3.38337
# Velocity P-wave (km/s) = 4.95701 6.18125 5.60267
#
# Compressibility (1/GPa) = 0.03008882
#
# Stress axis : x y z
#
# Youngs Moduli (GPa) = 120.87832 111.97020 59.60860
#
# Poissons Ratio (x) = 0.25428 -0.04433
# Poissons Ratio (y) = 0.27451 0.02493
# Poissons Ratio (z) = -0.08989 0.04683
#
# Static dielectric constant tensor:
#      x y z
#    x 1.894480 0.000000 0.000000 
#    y 0.000000 1.815080 0.000000 
#    z 0.000000 0.000000 1.820860 
# 
# From -- ./inp_files/45467.got.cif
#   From: 2010.05.17/outbox.cif.g08.bks.cpg/sg66_23_cif.got.tgz:45467.got - 2010.06.03 17:51:23.
