data_PCOD9499050
_publ_section_title
;
Structure prediction by ZEFSAII (Michael W. Deem and Ramdas Pophale) SiO2 
 PCOD9499050
Probable space group: C C C M
;
_chemical_formula_sum "Si O2"
_cell_formula_units_Z 40
_cell_length_a 13.507804
_cell_length_b 4.842731
_cell_length_c 24.715644
_cell_angle_alpha 90.000000
_cell_angle_beta 90.000000
_cell_angle_gamma 90.000000
_cell_volume 1616.765478
_symmetry_space_group_name_H-M "C C C M"
_symmetry_group_IT_number 66
_symmetry_cell_setting 'orthorhombic'
loop_
_space_group_symop_operation_xyz
x,y,z
-x,-y,z
x,-y,1/2-z
-x,y,1/2-z
-x,-y,-z
x,y,-z
-x,y,1/2+z
x,-y,1/2+z
1/2+x,1/2+y,z
1/2-x,1/2-y,z
1/2+x,1/2-y,1/2-z
1/2-x,1/2+y,1/2-z
1/2-x,1/2-y,-z
1/2+x,1/2+y,-z
1/2-x,1/2+y,1/2+z
1/2+x,1/2-y,1/2+z
loop_
_atom_site_type_symbol
_atom_site_label
_atom_site_fract_x
_atom_site_fract_y
_atom_site_fract_z
Si Si1 0.634716 0.289637 0.091612
Si Si2 0.500000 0.500000 0.750000
Si Si3 0.000000 0.500000 0.000000
Si Si4 0.635947 0.793751 0.835202
O O1 0.750000 0.250000 0.074645
O O2 0.620444 0.602774 0.111153
O O3 0.621269 0.105260 0.145524
O O4 0.562131 0.174668 0.046673
O O5 0.567518 0.689254 0.787959
O O6 0.750000 0.750000 0.819497
#
# Coordination Sequence:
#
# PCOD9499050 Si02
#       4
#    16   4   4  16
#     4  10  23  42  61  91 131 168 210 271 329 386
#     4  12  24  42  72  98 124 178 228 270 332 402
#     4  12  22  38  68  94 120 170 226 262 318 398
#     4  10  24  43  63  93 133 168 214 273 330 391
#
# _framework density 24.740753999999999
#
# number of rings (size 3 to 8) (size 9 to 14) (size 15 to 20)
#    0.000    1.600    0.000    3.000    0.000   11.200 
#    0.000    6.000    0.000    0.000    0.000    0.000 
#    0.000    0.000    0.000    0.000    0.000    0.000 
#
# Total GULP energy -111742.608451 kJ/mol
# GULP energy per Si atom -5587.130423 kJ/mol
# Density = 2.468444 g / cm^3
# Si number density = 24.740754 Si / 1000 Ang^3
#
#
#
# Elastic Constant Matrix: (Units=GPa)
#
#
# Indices 1 2 3 4 5 6 
#
# 1 173.8598 36.7646 97.7351 0.0000 0.0000 0.0000
# 2 36.7646 91.2390 7.0490 0.0000 0.0000 0.0000
# 3 97.7351 7.0490 96.1094 0.0000 0.0000 0.0000
# 4 0.0000 0.0000 0.0000 88.9970 0.0000 0.0000
# 5 0.0000 0.0000 0.0000 0.0000 -25.1533 0.0000
# 6 0.0000 0.0000 0.0000 0.0000 0.0000 45.8222
#
#
#
# Elastic Compliance Matrix: (Units=1/GPa)
#
#
# Indices 1 2 3 4 5 6 
#
# 1 0.015428 -0.005033 -0.015320 0.000000 0.000000 0.000000
# 2 -0.005033 0.012665 0.004189 0.000000 0.000000 0.000000
# 3 -0.015320 0.004189 0.025677 0.000000 0.000000 0.000000
# 4 0.000000 0.000000 0.000000 0.011236 0.000000 0.000000
# 5 0.000000 0.000000 0.000000 0.000000 -0.039756 0.000000
# 6 0.000000 0.000000 0.000000 0.000000 0.000000 0.021823
#
#
# Mechanical properties :
#
#
# Convention : Reuss Voigt Hill
#
# Bulk Modulus (GPa) = 46.63732 71.58953 59.11342
# Shear Modulus (GPa) = 57.77135 36.57716 47.17425
#
# Velocity S-wave (km/s) = 4.83750 3.84919 4.37136
# Velocity P-wave (km/s) = 7.07765 6.98239 7.03018
#
# Compressibility (1/GPa) = 0.02144206
#
# Stress axis : x y z
#
# Youngs Moduli (GPa) = 64.81627 78.95984 38.94580
#
# Poissons Ratio (x) = 0.39742 0.59665
# Poissons Ratio (y) = 0.32623 -0.16316
# Poissons Ratio (z) = 0.99299 -0.33080
#
# Static dielectric constant tensor:
#      x y z
#    x 1.998960 0.000000 0.000000 
#    y 0.000000 1.907120 0.000000 
#    z 0.000000 0.000000 1.849810 
# 
# From -- ./inp_files/50396.got.cif
#   From: 2010.05.17/outbox.cif.g08.bks.cpg/sg66_26_cif.got.tgz:50396.got - 2010.06.03 17:51:23.
