data_PCOD9499048
_publ_section_title
;
Structure prediction by ZEFSAII (Michael W. Deem and Ramdas Pophale) SiO2 
 PCOD9499048
Probable space group: C C C M
;
_chemical_formula_sum "Si O2"
_cell_formula_units_Z 96
_cell_length_a 13.928521
_cell_length_b 10.730453
_cell_length_c 33.309343
_cell_angle_alpha 90.000000
_cell_angle_beta 90.000000
_cell_angle_gamma 90.000000
_cell_volume 4978.392419
_symmetry_space_group_name_H-M "C C C M"
_symmetry_group_IT_number 66
_symmetry_cell_setting 'orthorhombic'
loop_
_space_group_symop_operation_xyz
x,y,z
-x,-y,z
x,-y,1/2-z
-x,y,1/2-z
-x,-y,-z
x,y,-z
-x,y,1/2+z
x,-y,1/2+z
1/2+x,1/2+y,z
1/2-x,1/2-y,z
1/2+x,1/2-y,1/2-z
1/2-x,1/2+y,1/2-z
1/2-x,1/2-y,-z
1/2+x,1/2+y,-z
1/2-x,1/2+y,1/2+z
1/2+x,1/2-y,1/2+z
loop_
_atom_site_type_symbol
_atom_site_label
_atom_site_fract_x
_atom_site_fract_y
_atom_site_fract_z
Si Si1 0.500000 0.500000 0.846925
Si Si2 0.137746 0.390299 0.782215
Si Si3 0.366930 0.107623 0.500000
Si Si4 0.641226 0.899409 0.412996
Si Si5 0.641226 0.600591 0.587004
Si Si6 0.500000 0.000000 0.346925
Si Si7 0.137746 0.109701 0.782215
Si Si8 0.133070 0.107623 0.500000
O O1 0.572649 0.430277 0.876488
O O2 0.564487 0.586979 0.818393
O O3 0.121480 0.500000 0.750000
O O4 0.124643 0.250000 0.765546
O O5 0.250000 0.400228 0.794883
O O6 0.064487 0.413021 0.818393
O O7 0.391414 0.050053 0.456787
O O8 0.250000 0.113582 0.500000
O O9 0.404037 0.250000 0.500000
O O10 0.645344 0.750000 0.417279
O O11 0.750000 0.943782 0.405150
O O12 0.572649 0.930277 0.376488
O O13 0.608586 0.550053 0.543213
O O14 0.121480 0.000000 0.750000
#
# Coordination Sequence:
#
# PCOD9499048 Si02
#       8
#     8  16   8  16  16   8  16   8
#     4  12  21  31  54  84 110 134 170 223 275 320
#     4  10  23  42  60  79 107 143 180 220 270 328
#     4   7  12  27  48  68  98 140 180 216 253 297
#     4   9  18  32  50  74 105 141 179 218 260 307
#     4   9  18  32  50  74 105 141 179 218 260 307
#     4  12  21  31  54  84 110 134 170 223 275 320
#     4  10  23  42  60  79 107 143 180 220 270 328
#     4   7  12  27  48  68  98 140 180 216 253 297
#
# _framework density 19.283332999999999
#
# number of rings (size 3 to 8) (size 9 to 14) (size 15 to 20)
#    0.000    2.500    0.000    4.500    0.000    4.667 
#    0.000    3.333    0.000    0.000    0.000    0.000 
#    0.000   21.333    0.000    0.000    0.000    0.000 
#
# Total GULP energy -267468.220133 kJ/mol
# GULP energy per Si atom -5572.254586 kJ/mol
# Density = 1.923944 g / cm^3
# Si number density = 19.283333 Si / 1000 Ang^3
#
#
#
# Elastic Constant Matrix: (Units=GPa)
#
#
# Indices 1 2 3 4 5 6 
#
# 1 115.4655 34.9326 71.1290 0.0000 0.0000 0.0000
# 2 34.9326 77.5625 49.7306 0.0000 0.0000 0.0000
# 3 71.1290 49.7306 131.5618 0.0000 0.0000 0.0000
# 4 0.0000 0.0000 0.0000 20.8179 0.0000 0.0000
# 5 0.0000 0.0000 0.0000 0.0000 87.2843 0.0000
# 6 0.0000 0.0000 0.0000 0.0000 0.0000 -2.0672
#
#
#
# Elastic Compliance Matrix: (Units=1/GPa)
#
#
# Indices 1 2 3 4 5 6 
#
# 1 0.013174 -0.001804 -0.006441 0.000000 0.000000 0.000000
# 2 -0.001804 0.017264 -0.005551 0.000000 0.000000 0.000000
# 3 -0.006441 -0.005551 0.013181 0.000000 0.000000 0.000000
# 4 0.000000 0.000000 0.000000 0.048036 0.000000 0.000000
# 5 0.000000 0.000000 0.000000 0.000000 0.011457 0.000000
# 6 0.000000 0.000000 0.000000 0.000000 0.000000 -0.483743
#
#
# Mechanical properties :
#
#
# Convention : Reuss Voigt Hill
#
# Bulk Modulus (GPa) = 62.38625 70.68602 66.53614
# Shear Modulus (GPa) = -14.38029 32.46016 9.03994
#
# Velocity S-wave (km/s) = -2.73378 4.10729 2.16752
# Velocity P-wave (km/s) = 4.73898 7.69605 6.39090
#
# Compressibility (1/GPa) = 0.01602917
#
# Stress axis : x y z
#
# Youngs Moduli (GPa) = 75.90793 57.92369 75.86504
#
# Poissons Ratio (x) = 0.10448 0.48862
# Poissons Ratio (y) = 0.13692 0.42110
# Poissons Ratio (z) = 0.48890 0.32152
#
# Static dielectric constant tensor:
#      x y z
#    x 1.697790 0.000000 0.000000 
#    y 0.000000 1.666760 0.000000 
#    z 0.000000 0.000000 1.697380 
# 
# From -- ./inp_files/69062.got.cif
#   From: 2010.05.17/outbox.cif.g08.bks.cpg/sg66_35_cif.got.tgz:69062.got - 2010.06.03 17:51:23.
