data_PCOD9499723
_publ_section_title
;
Structure prediction by ZEFSAII (Michael W. Deem and Ramdas Pophale) SiO2 
 PCOD9499723
Probable space group: C C C M
;
_chemical_formula_sum "Si O2"
_cell_formula_units_Z 64
_cell_length_a 4.958406
_cell_length_b 24.126579
_cell_length_c 23.571991
_cell_angle_alpha 90.000000
_cell_angle_beta 90.000000
_cell_angle_gamma 90.000000
_cell_volume 2819.902529
_symmetry_space_group_name_H-M "C C C M"
_symmetry_group_IT_number 66
_symmetry_cell_setting 'orthorhombic'
loop_
_space_group_symop_operation_xyz
x,y,z
-x,-y,z
x,-y,1/2-z
-x,y,1/2-z
-x,-y,-z
x,y,-z
-x,y,1/2+z
x,-y,1/2+z
1/2+x,1/2+y,z
1/2-x,1/2-y,z
1/2+x,1/2-y,1/2-z
1/2-x,1/2+y,1/2-z
1/2-x,1/2-y,-z
1/2+x,1/2+y,-z
1/2-x,1/2+y,1/2+z
1/2+x,1/2-y,1/2+z
loop_
_atom_site_type_symbol
_atom_site_label
_atom_site_fract_x
_atom_site_fract_y
_atom_site_fract_z
Si Si1 0.981593 0.786467 0.400637
Si Si2 0.902040 0.090022 0.564459
Si Si3 0.738121 0.838894 0.287251
Si Si4 0.899895 0.440317 0.137335
O O1 0.750000 0.750000 0.429818
O O2 0.851276 0.804885 0.340566
O O3 0.250000 0.750000 0.393529
O O4 0.045784 0.844068 0.431336
O O5 0.933473 0.071275 0.500000
O O6 0.110292 0.060753 0.607119
O O7 0.606689 0.078772 0.588614
O O8 0.500000 0.811286 0.250000
O O9 0.608150 0.894330 0.313822
O O10 0.000000 0.851928 0.250000
O O11 0.000000 0.500000 0.157591
#
# Coordination Sequence:
#
# PCOD9499723 Si02
#       4
#    16  16  16  16
#     4  11  23  41  63  90 124 162 206 256 308 366
#     4  11  24  42  65  94 127 163 207 257 308 369
#     4  11  23  42  64  90 125 163 207 257 308 367
#     4  11  24  43  65  93 128 163 206 258 309 368
#
# _framework density 22.695820999999999
#
# number of rings (size 3 to 8) (size 9 to 14) (size 15 to 20)
#    0.000    1.000    0.000    9.000    0.000    6.500 
#    0.000    6.250    0.000    0.000    0.000    0.000 
#    0.000    0.000    0.000    0.000    0.000    0.000 
#
# Total GULP energy -179192.971724 kJ/mol
# GULP energy per Si atom -5599.780366 kJ/mol
# Density = 2.264416 g / cm^3
# Si number density = 22.695821 Si / 1000 Ang^3
#
#
#
# Elastic Constant Matrix: (Units=GPa)
#
#
# Indices 1 2 3 4 5 6 
#
# 1 96.8311 18.5988 3.1919 0.0000 0.0000 0.0000
# 2 18.5988 115.4933 -10.3115 0.0000 0.0000 0.0000
# 3 3.1919 -10.3115 74.7237 0.0000 0.0000 0.0000
# 4 0.0000 0.0000 0.0000 -6.0565 0.0000 0.0000
# 5 0.0000 0.0000 0.0000 0.0000 30.6451 0.0000
# 6 0.0000 0.0000 0.0000 0.0000 0.0000 43.2005
#
#
#
# Elastic Compliance Matrix: (Units=1/GPa)
#
#
# Indices 1 2 3 4 5 6 
#
# 1 0.010693 -0.001785 -0.000703 0.000000 0.000000 0.000000
# 2 -0.001785 0.009064 0.001327 0.000000 0.000000 0.000000
# 3 -0.000703 0.001327 0.013596 0.000000 0.000000 0.000000
# 4 0.000000 0.000000 0.000000 -0.165113 0.000000 0.000000
# 5 0.000000 0.000000 0.000000 0.000000 0.032632 0.000000
# 6 0.000000 0.000000 0.000000 0.000000 0.000000 0.023148
#
#
# Mechanical properties :
#
#
# Convention : Reuss Voigt Hill
#
# Bulk Modulus (GPa) = 32.22490 34.44519 33.33504
# Shear Modulus (GPa) = -78.97124 31.92908 -23.52108
#
# Velocity S-wave (km/s) = -5.90517 3.75484 -3.22275
# Velocity P-wave (km/s) = 5.68025 5.83166 0.93353
#
# Compressibility (1/GPa) = 0.03103190
#
# Stress axis : x y z
#
# Youngs Moduli (GPa) = 93.51699 110.32154 73.55213
#
# Poissons Ratio (x) = 0.19690 0.05171
# Poissons Ratio (y) = 0.16691 -0.09761
# Poissons Ratio (z) = 0.06575 -0.14641
#
# Static dielectric constant tensor:
#      x y z
#    x 1.796300 0.000000 0.000000 
#    y 0.000000 1.874930 0.000000 
#    z 0.000000 0.000000 1.787010 
# 
# From -- ./inp_files/53962.got.cif
#   From: 2010.05.17/outbox.cif.g08.bks.cpg/sg66_27_cif.got.tgz:53962.got - 2010.06.03 17:51:23.
