data_PCOD9499537
_publ_section_title
;
Structure prediction by ZEFSAII (Michael W. Deem and Ramdas Pophale) SiO2 
 PCOD9499537
Probable space group: C C C M
;
_chemical_formula_sum "Si O2"
_cell_formula_units_Z 64
_cell_length_a 24.817579
_cell_length_b 8.733883
_cell_length_c 14.340991
_cell_angle_alpha 90.000000
_cell_angle_beta 90.000000
_cell_angle_gamma 90.000000
_cell_volume 3108.464744
_symmetry_space_group_name_H-M "C C C M"
_symmetry_group_IT_number 66
_symmetry_cell_setting 'orthorhombic'
loop_
_space_group_symop_operation_xyz
x,y,z
-x,-y,z
x,-y,1/2-z
-x,y,1/2-z
-x,-y,-z
x,y,-z
-x,y,1/2+z
x,-y,1/2+z
1/2+x,1/2+y,z
1/2-x,1/2-y,z
1/2+x,1/2-y,1/2-z
1/2-x,1/2+y,1/2-z
1/2-x,1/2-y,-z
1/2+x,1/2+y,-z
1/2-x,1/2+y,1/2+z
1/2+x,1/2-y,1/2+z
loop_
_atom_site_type_symbol
_atom_site_label
_atom_site_fract_x
_atom_site_fract_y
_atom_site_fract_z
Si Si1 0.405438 0.596596 0.341852
Si Si2 0.143943 0.582451 0.347112
Si Si3 0.265949 0.071836 0.000000
Si Si4 0.014842 0.177748 0.000000
Si Si5 0.088823 0.396811 0.500000
Si Si6 0.346512 0.403749 0.500000
O O1 0.421688 0.500000 0.250000
O O2 0.365476 0.738663 0.325625
O O3 0.451663 0.679434 0.403484
O O4 0.375573 0.478964 0.410662
O O5 0.147338 0.500000 0.250000
O O6 0.196720 0.555574 0.409298
O O7 0.096928 0.504864 0.410304
O O8 0.250000 0.250000 0.000000
O O9 0.215172 0.958358 0.000000
O O10 0.965847 0.297300 0.000000
O O11 0.000000 0.000000 0.000000
O O12 0.137786 0.273610 0.500000
#
# Coordination Sequence:
#
# PCOD9499537 Si02
#       6
#    16  16   8   8   8   8
#     4  11  23  42  68  98 133 174 227 275 332 405
#     4  11  25  43  65 101 137 174 224 282 343 401
#     4  11  21  45  69  93 135 179 226 281 337 405
#     4  11  23  43  70  98 124 177 226 269 337 410
#     4  11  23  46  68  98 143 174 223 287 341 400
#     4  11  21  42  67  95 128 182 220 275 338 394
#
# _framework density 20.588940999999998
#
# number of rings (size 3 to 8) (size 9 to 14) (size 15 to 20)
#    0.000    1.000    5.000    3.750    0.000    5.500 
#    4.500    1.250    0.000    0.000    0.000    0.000 
#    0.000    0.000    0.000    0.000    0.000    0.000 
#
# Total GULP energy -178620.620891 kJ/mol
# GULP energy per Si atom -5581.894403 kJ/mol
# Density = 2.054208 g / cm^3
# Si number density = 20.588941 Si / 1000 Ang^3
#
#
#
# Elastic Constant Matrix: (Units=GPa)
#
#
# Indices 1 2 3 4 5 6 
#
# 1 101.3260 29.3673 49.8460 0.0000 0.0000 0.0000
# 2 29.3673 142.2847 54.6567 0.0000 0.0000 0.0000
# 3 49.8460 54.6567 180.3756 0.0000 0.0000 0.0000
# 4 0.0000 0.0000 0.0000 45.7926 0.0000 0.0000
# 5 0.0000 0.0000 0.0000 0.0000 22.6607 0.0000
# 6 0.0000 0.0000 0.0000 0.0000 0.0000 34.0275
#
#
#
# Elastic Compliance Matrix: (Units=1/GPa)
#
#
# Indices 1 2 3 4 5 6 
#
# 1 0.011637 -0.001320 -0.002816 0.000000 0.000000 0.000000
# 2 -0.001320 0.008104 -0.002091 0.000000 0.000000 0.000000
# 3 -0.002816 -0.002091 0.006956 0.000000 0.000000 0.000000
# 4 0.000000 0.000000 0.000000 0.021838 0.000000 0.000000
# 5 0.000000 0.000000 0.000000 0.000000 0.044129 0.000000
# 6 0.000000 0.000000 0.000000 0.000000 0.000000 0.029388
#
#
# Mechanical properties :
#
#
# Convention : Reuss Voigt Hill
#
# Bulk Modulus (GPa) = 70.21029 76.85849 73.53439
# Shear Modulus (GPa) = 35.90605 39.83726 37.87166
#
# Velocity S-wave (km/s) = 4.18059 4.40351 4.29350
# Velocity P-wave (km/s) = 7.58143 7.95396 7.76993
#
# Compressibility (1/GPa) = 0.01424293
#
# Stress axis : x y z
#
# Youngs Moduli (GPa) = 85.93316 123.39924 143.76813
#
# Poissons Ratio (x) = 0.16291 0.40482
# Poissons Ratio (y) = 0.11345 0.30058
# Poissons Ratio (z) = 0.24197 0.25800
#
# Static dielectric constant tensor:
#      x y z
#    x 1.825840 0.000000 0.000000 
#    y 0.000000 1.723090 0.000000 
#    z 0.000000 0.000000 1.681240 
# 
# From -- ./inp_files/32960.got.cif
#   From: 2010.05.17/outbox.cif.g08.bks.cpg/sg66_17_cif.got.tgz:32960.got - 2010.06.03 17:51:23.
