data_PCOD9499565
_publ_section_title
;
Structure prediction by ZEFSAII (Michael W. Deem and Ramdas Pophale) SiO2 
 PCOD9499565
Probable space group: C C C M
;
_chemical_formula_sum "Si O2"
_cell_formula_units_Z 88
_cell_length_a 12.518757
_cell_length_b 11.699453
_cell_length_c 30.158668
_cell_angle_alpha 90.000000
_cell_angle_beta 90.000000
_cell_angle_gamma 90.000000
_cell_volume 4417.117203
_symmetry_space_group_name_H-M "C C C M"
_symmetry_group_IT_number 66
_symmetry_cell_setting 'orthorhombic'
loop_
_space_group_symop_operation_xyz
x,y,z
-x,-y,z
x,-y,1/2-z
-x,y,1/2-z
-x,-y,-z
x,y,-z
-x,y,1/2+z
x,-y,1/2+z
1/2+x,1/2+y,z
1/2-x,1/2-y,z
1/2+x,1/2-y,1/2-z
1/2-x,1/2+y,1/2-z
1/2-x,1/2-y,-z
1/2+x,1/2+y,-z
1/2-x,1/2+y,1/2+z
1/2+x,1/2-y,1/2+z
loop_
_atom_site_type_symbol
_atom_site_label
_atom_site_fract_x
_atom_site_fract_y
_atom_site_fract_z
Si Si1 0.598972 0.417056 0.374115
Si Si2 0.823289 0.507167 0.141989
Si Si3 0.591624 0.778272 0.811595
Si Si4 0.000000 0.500000 0.077830
Si Si5 0.849763 0.675259 0.711328
Si Si6 0.380340 0.764718 0.449461
O O1 0.500000 0.500000 0.369653
O O2 0.708307 0.486611 0.380313
O O3 0.618815 0.347223 0.328566
O O4 0.577944 0.324651 0.412785
O O5 0.865051 0.634652 0.151647
O O6 0.908309 0.448168 0.109618
O O7 0.827982 0.446962 0.189680
O O8 0.638974 0.813214 0.764142
O O9 0.464199 0.785589 0.807022
O O10 0.935064 0.607574 0.055508
O O11 0.750000 0.750000 0.696361
O O12 0.404147 0.728916 0.500000
O O13 0.250000 0.750000 0.444559
#
# Coordination Sequence:
#
# PCOD9499565 Si02
#       6
#    16  16  16   8  16  16
#     4  12  24  42  66  94 136 183 219 279 350 410
#     4  12  21  38  65  91 125 173 228 269 326 399
#     4  11  22  39  58  86 127 173 227 270 327 398
#     4  12  21  40  71 100 124 172 224 281 327 418
#     4  11  22  36  56  89 128 169 222 280 328 383
#     4  11  23  43  71 102 134 172 223 283 345 418
#
# _framework density 19.922495000000001
#
# number of rings (size 3 to 8) (size 9 to 14) (size 15 to 20)
#    0.000    0.545    5.455    3.545    0.000    1.818 
#    0.000    5.455    0.000    1.091    0.000    0.000 
#    0.000    0.000    0.000    0.000    0.000    0.000 
#
# Total GULP energy -245387.285905 kJ/mol
# GULP energy per Si atom -5576.983771 kJ/mol
# Density = 1.987715 g / cm^3
# Si number density = 19.922495 Si / 1000 Ang^3
#
#
#
# Elastic Constant Matrix: (Units=GPa)
#
#
# Indices 1 2 3 4 5 6 
#
# 1 138.8365 41.0458 15.3001 0.0000 0.0000 0.0000
# 2 41.0458 77.3074 32.5184 0.0000 0.0000 0.0000
# 3 15.3001 32.5184 90.2543 0.0000 0.0000 0.0000
# 4 0.0000 0.0000 0.0000 24.0464 0.0000 0.0000
# 5 0.0000 0.0000 0.0000 0.0000 -58.2767 0.0000
# 6 0.0000 0.0000 0.0000 0.0000 0.0000 32.0750
#
#
#
# Elastic Compliance Matrix: (Units=1/GPa)
#
#
# Indices 1 2 3 4 5 6 
#
# 1 0.008548 -0.004631 0.000219 0.000000 0.000000 0.000000
# 2 -0.004631 0.017755 -0.005612 0.000000 0.000000 0.000000
# 3 0.000219 -0.005612 0.013065 0.000000 0.000000 0.000000
# 4 0.000000 0.000000 0.000000 0.041586 0.000000 0.000000
# 5 0.000000 0.000000 0.000000 0.000000 -0.017160 0.000000
# 6 0.000000 0.000000 0.000000 0.000000 0.000000 0.031177
#
#
# Mechanical properties :
#
#
# Convention : Reuss Voigt Hill
#
# Bulk Modulus (GPa) = 51.75866 53.79188 52.77527
# Shear Modulus (GPa) = 41.16695 14.07119 27.61907
#
# Velocity S-wave (km/s) = 4.55065 2.66051 3.72738
# Velocity P-wave (km/s) = 7.32445 6.04127 6.71359
#
# Compressibility (1/GPa) = 0.01932044
#
# Stress axis : x y z
#
# Youngs Moduli (GPa) = 116.99304 56.32373 76.54284
#
# Poissons Ratio (x) = 0.26081 -0.01679
# Poissons Ratio (y) = 0.54174 0.42955
# Poissons Ratio (z) = -0.02567 0.31609
#
# Static dielectric constant tensor:
#      x y z
#    x 1.707510 0.000000 0.000000 
#    y 0.000000 1.650590 0.000000 
#    z 0.000000 0.000000 1.731250 
# 
# From -- ./inp_files/68898.got.cif
#   From: 2010.05.17/outbox.cif.g08.bks.cpg/sg66_35_cif.got.tgz:68898.got - 2010.06.03 17:51:23.
