data_PCOD9499556
_publ_section_title
;
Structure prediction by ZEFSAII (Michael W. Deem and Ramdas Pophale) SiO2 
 PCOD9499556
Probable space group: C C C M
;
_chemical_formula_sum "Si O2"
_cell_formula_units_Z 64
_cell_length_a 22.463609
_cell_length_b 7.211513
_cell_length_c 15.446139
_cell_angle_alpha 90.000000
_cell_angle_beta 90.000000
_cell_angle_gamma 90.000000
_cell_volume 2502.222130
_symmetry_space_group_name_H-M "C C C M"
_symmetry_group_IT_number 66
_symmetry_cell_setting 'orthorhombic'
loop_
_space_group_symop_operation_xyz
x,y,z
-x,-y,z
x,-y,1/2-z
-x,y,1/2-z
-x,-y,-z
x,y,-z
-x,y,1/2+z
x,-y,1/2+z
1/2+x,1/2+y,z
1/2-x,1/2-y,z
1/2+x,1/2-y,1/2-z
1/2-x,1/2+y,1/2-z
1/2-x,1/2-y,-z
1/2+x,1/2+y,-z
1/2-x,1/2+y,1/2+z
1/2+x,1/2-y,1/2+z
loop_
_atom_site_type_symbol
_atom_site_label
_atom_site_fract_x
_atom_site_fract_y
_atom_site_fract_z
Si Si1 0.058968 0.727691 0.103760
Si Si2 0.686212 0.773818 0.596420
Si Si3 0.069820 0.281548 0.103073
Si Si4 0.187885 0.356977 0.169362
O O1 0.123756 0.794267 0.135677
O O2 0.062259 0.504633 0.114129
O O3 0.994333 0.792512 0.134755
O O4 0.059100 0.761236 0.000000
O O5 0.690336 0.691412 0.500000
O O6 0.750000 0.750000 0.641443
O O7 0.684183 0.996357 0.591101
O O8 0.129339 0.232699 0.155142
O O9 0.075778 0.241160 0.000000
O O10 0.181739 0.500000 0.250000
O O11 0.250000 0.250000 0.168622
#
# Coordination Sequence:
#
# PCOD9499556 Si02
#       4
#    16  16  16  16
#     4   7  11  23  45  73 100 121 150 198 241 272
#     4   9  17  31  53  79 104 130 159 192 236 292
#     4   8  14  27  48  72  95 120 157 204 244 279
#     4  11  22  34  48  68  97 131 164 204 251 291
#
# _framework density 25.577266000000002
#
# number of rings (size 3 to 8) (size 9 to 14) (size 15 to 20)
#    0.000    3.250    0.000    4.500    0.000    2.000 
#    0.000   10.000    0.000    1.500    0.000    8.750 
#    0.000    0.000    0.000    0.000    0.000    0.000 
#
# Total GULP energy -178175.028344 kJ/mol
# GULP energy per Si atom -5567.969636 kJ/mol
# Density = 2.551905 g / cm^3
# Si number density = 25.577266 Si / 1000 Ang^3
#
#
#
# Elastic Constant Matrix: (Units=GPa)
#
#
# Indices 1 2 3 4 5 6 
#
# 1 396.7501 33.9182 44.4139 0.0000 0.0000 0.0000
# 2 33.9182 79.7833 5.4205 0.0000 0.0000 0.0000
# 3 44.4139 5.4205 81.4526 0.0000 0.0000 0.0000
# 4 0.0000 0.0000 0.0000 -14.1760 0.0000 0.0000
# 5 0.0000 0.0000 0.0000 0.0000 -12.4300 0.0000
# 6 0.0000 0.0000 0.0000 0.0000 0.0000 16.3108
#
#
#
# Elastic Compliance Matrix: (Units=1/GPa)
#
#
# Indices 1 2 3 4 5 6 
#
# 1 0.002774 -0.001082 -0.001441 0.000000 0.000000 0.000000
# 2 -0.001082 0.013012 -0.000276 0.000000 0.000000 0.000000
# 3 -0.001441 -0.000276 0.013081 0.000000 0.000000 0.000000
# 4 0.000000 0.000000 0.000000 -0.070542 0.000000 0.000000
# 5 0.000000 0.000000 0.000000 0.000000 -0.080451 0.000000
# 6 0.000000 0.000000 0.000000 0.000000 0.000000 0.061309
#
#
# Mechanical properties :
#
#
# Convention : Reuss Voigt Hill
#
# Bulk Modulus (GPa) = 42.97233 80.61014 61.79124
# Shear Modulus (GPa) = -105.34755 29.55654 -37.89551
#
# Velocity S-wave (km/s) = -6.42475 3.40307 -3.85334
# Velocity P-wave (km/s) = 6.18054 6.85754 2.10082
#
# Compressibility (1/GPa) = 0.02327079
#
# Stress axis : x y z
#
# Youngs Moduli (GPa) = 360.46187 76.84921 76.44646
#
# Poissons Ratio (x) = 0.08311 0.11014
# Poissons Ratio (y) = 0.38984 0.02112
# Poissons Ratio (z) = 0.51933 0.02123
#
# Static dielectric constant tensor:
#      x y z
#    x 2.213960 0.000000 0.000000 
#    y 0.000000 2.120340 0.000000 
#    z 0.000000 0.000000 2.034610 
# 
# From -- ./inp_files/42397.got.cif
#   From: 2010.05.17/outbox.cif.g08.bks.cpg/sg66_22_cif.got.tgz:42397.got - 2010.06.03 17:51:23.
