data_PCOD9499308
_publ_section_title
;
Structure prediction by ZEFSAII (Michael W. Deem and Ramdas Pophale) SiO2 
 PCOD9499308
Probable space group: C C C M
;
_chemical_formula_sum "Si O2"
_cell_formula_units_Z 80
_cell_length_a 14.397939
_cell_length_b 23.717131
_cell_length_c 13.685018
_cell_angle_alpha 90.000000
_cell_angle_beta 90.000000
_cell_angle_gamma 90.000000
_cell_volume 4673.129913
_symmetry_space_group_name_H-M "C C C M"
_symmetry_group_IT_number 66
_symmetry_cell_setting 'orthorhombic'
loop_
_space_group_symop_operation_xyz
x,y,z
-x,-y,z
x,-y,1/2-z
-x,y,1/2-z
-x,-y,-z
x,y,-z
-x,y,1/2+z
x,-y,1/2+z
1/2+x,1/2+y,z
1/2-x,1/2-y,z
1/2+x,1/2-y,1/2-z
1/2-x,1/2+y,1/2-z
1/2-x,1/2-y,-z
1/2+x,1/2+y,-z
1/2-x,1/2+y,1/2+z
1/2+x,1/2-y,1/2+z
loop_
_atom_site_type_symbol
_atom_site_label
_atom_site_fract_x
_atom_site_fract_y
_atom_site_fract_z
Si Si1 0.025015 0.646191 0.000000
Si Si2 0.211905 0.662691 0.717776
Si Si3 0.105708 0.222426 0.716208
Si Si4 0.111302 0.493459 0.000000
Si Si5 0.327203 0.137649 0.000000
Si Si6 0.140334 0.246736 0.500000
Si Si7 0.914418 0.571045 0.677126
O O1 0.035752 0.610749 0.097769
O O2 0.923925 0.672352 0.000000
O O3 0.106721 0.689605 0.000000
O O4 0.146988 0.716725 0.747169
O O5 0.315486 0.677695 0.752890
O O6 0.218774 0.653317 0.601792
O O7 0.162231 0.608108 0.765937
O O8 0.104739 0.220555 0.599257
O O9 0.000000 0.215136 0.750000
O O10 0.132828 0.524136 0.895155
O O11 0.000000 0.500000 0.000000
O O12 0.146200 0.429230 0.000000
O O13 0.250000 0.250000 0.500000
O O14 0.000000 0.555929 0.750000
#
# Coordination Sequence:
#
# PCOD9499308 Si02
#       7
#     8  16  16   8   8   8  16
#     4  11  18  30  53  74 107 149 176 225 277 324
#     4  11  22  37  55  80 114 150 188 230 286 341
#     4  11  23  37  59  85 112 150 191 235 284 336
#     4  11  22  34  50  83 112 151 190 230 282 350
#     4  12  23  36  51  80 115 151 186 228 287 352
#     4  12  19  36  57  80 115 148 203 228 267 344
#     4  11  19  33  53  78 113 148 185 226 280 340
#
# _framework density 17.119147999999999
#
# number of rings (size 3 to 8) (size 9 to 14) (size 15 to 20)
#    0.000    0.800    8.000    1.800    0.000    6.000 
#    0.000    0.000    0.000    0.000    0.000    4.200 
#    0.000    0.000    0.000    0.000    0.000    0.000 
#
# Total GULP energy -222948.581065 kJ/mol
# GULP energy per Si atom -5573.714527 kJ/mol
# Density = 1.708018 g / cm^3
# Si number density = 17.119148 Si / 1000 Ang^3
#
#
#
# Elastic Constant Matrix: (Units=GPa)
#
#
# Indices 1 2 3 4 5 6 
#
# 1 117.9139 40.6708 59.9522 0.0000 0.0000 0.0000
# 2 40.6708 67.1768 45.1682 0.0000 0.0000 0.0000
# 3 59.9522 45.1682 183.8843 0.0000 0.0000 0.0000
# 4 0.0000 0.0000 0.0000 27.7269 0.0000 0.0000
# 5 0.0000 0.0000 0.0000 0.0000 -4.5674 0.0000
# 6 0.0000 0.0000 0.0000 0.0000 0.0000 12.5126
#
#
#
# Elastic Compliance Matrix: (Units=1/GPa)
#
#
# Indices 1 2 3 4 5 6 
#
# 1 0.011579 -0.005357 -0.002459 0.000000 0.000000 0.000000
# 2 -0.005357 0.020309 -0.003242 0.000000 0.000000 0.000000
# 3 -0.002459 -0.003242 0.007036 0.000000 0.000000 0.000000
# 4 0.000000 0.000000 0.000000 0.036066 0.000000 0.000000
# 5 0.000000 0.000000 0.000000 0.000000 -0.218945 0.000000
# 6 0.000000 0.000000 0.000000 0.000000 0.000000 0.079919
#
#
# Mechanical properties :
#
#
# Convention : Reuss Voigt Hill
#
# Bulk Modulus (GPa) = 59.49487 73.39528 66.44508
# Shear Modulus (GPa) = -137.67884 22.01335 -57.83275
#
# Velocity S-wave (km/s) = -8.97767 3.58982 -5.81858
# Velocity P-wave (km/s) = 8.52266 7.75556 2.49871
#
# Compressibility (1/GPa) = 0.01680817
#
# Stress axis : x y z
#
# Youngs Moduli (GPa) = 86.36511 49.23905 142.11807
#
# Poissons Ratio (x) = 0.26375 0.34951
# Poissons Ratio (y) = 0.46262 0.46077
# Poissons Ratio (z) = 0.21240 0.15964
#
# Static dielectric constant tensor:
#      x y z
#    x 1.547620 0.000000 0.000000 
#    y 0.000000 1.639220 0.000000 
#    z 0.000000 0.000000 1.666910 
# 
# From -- ./inp_files/16414.got.cif
#   From: 2010.05.17/outbox.cif.g08.bks.cpg/sg66_9_cif.got.tgz:16414.got - 2010.06.03 17:51:23.
