data_PCOD9499569
_publ_section_title
;
Structure prediction by ZEFSAII (Michael W. Deem and Ramdas Pophale) SiO2 
 PCOD9499569
Probable space group: C C C M
;
_chemical_formula_sum "Si O2"
_cell_formula_units_Z 80
_cell_length_a 26.514100
_cell_length_b 9.011380
_cell_length_c 15.915636
_cell_angle_alpha 90.000000
_cell_angle_beta 90.000000
_cell_angle_gamma 90.000000
_cell_volume 3802.701112
_symmetry_space_group_name_H-M "C C C M"
_symmetry_group_IT_number 66
_symmetry_cell_setting 'orthorhombic'
loop_
_space_group_symop_operation_xyz
x,y,z
-x,-y,z
x,-y,1/2-z
-x,y,1/2-z
-x,-y,-z
x,y,-z
-x,y,1/2+z
x,-y,1/2+z
1/2+x,1/2+y,z
1/2-x,1/2-y,z
1/2+x,1/2-y,1/2-z
1/2-x,1/2+y,1/2-z
1/2-x,1/2-y,-z
1/2+x,1/2+y,-z
1/2-x,1/2+y,1/2+z
1/2+x,1/2-y,1/2+z
loop_
_atom_site_type_symbol
_atom_site_label
_atom_site_fract_x
_atom_site_fract_y
_atom_site_fract_z
Si Si1 0.206632 0.931472 0.500000
Si Si2 0.321835 0.076878 0.000000
Si Si3 0.152434 0.937116 0.331442
Si Si4 0.119653 0.391852 0.166382
Si Si5 0.992865 0.674454 0.155021
Si Si6 0.446358 0.574196 0.903409
O O1 0.264712 0.979142 0.500000
O O2 0.190850 0.755053 0.500000
O O3 0.181631 0.982418 0.414516
O O4 0.352790 0.038185 0.915133
O O5 0.149189 0.760733 0.315754
O O6 0.178611 0.000000 0.250000
O O7 0.097716 0.015431 0.344484
O O8 0.114242 0.500000 0.250000
O O9 0.066261 0.320486 0.134417
O O10 0.000000 0.500000 0.153901
O O11 0.000000 0.730475 0.250000
O O12 0.036737 0.754584 0.103346
O O13 0.500000 0.500000 0.881564
O O14 0.434139 0.535372 0.000000
#
# Coordination Sequence:
#
# PCOD9499569 Si02
#       6
#     8   8  16  16  16  16
#     4   9  20  44  63  98 120 158 223 279 332 390
#     4   9  22  40  71  87 124 168 216 277 333 396
#     4  11  22  38  66  93 128 169 211 271 325 391
#     4  11  22  41  62  93 129 170 218 258 326 394
#     4  11  22  37  56  86 131 169 204 251 304 382
#     4  11  23  36  57  90 124 165 209 254 309 378
#
# _framework density 21.037676999999999
#
# number of rings (size 3 to 8) (size 9 to 14) (size 15 to 20)
#    0.000    1.400    5.000    1.200    1.400    1.200 
#    0.000    1.000    0.000    1.200    0.000    0.000 
#    0.000    0.000    0.000    0.000    0.000    0.000 
#
# Total GULP energy -222787.964267 kJ/mol
# GULP energy per Si atom -5569.699107 kJ/mol
# Density = 2.098979 g / cm^3
# Si number density = 21.037677 Si / 1000 Ang^3
#
#
#
# Elastic Constant Matrix: (Units=GPa)
#
#
# Indices 1 2 3 4 5 6 
#
# 1 91.7501 1.4860 50.4207 0.0000 0.0000 0.0000
# 2 1.4860 46.9241 33.2111 0.0000 0.0000 0.0000
# 3 50.4207 33.2111 128.2514 0.0000 0.0000 0.0000
# 4 0.0000 0.0000 0.0000 20.6524 0.0000 0.0000
# 5 0.0000 0.0000 0.0000 0.0000 195.4764 0.0000
# 6 0.0000 0.0000 0.0000 0.0000 0.0000 6.9924
#
#
#
# Elastic Compliance Matrix: (Units=1/GPa)
#
#
# Indices 1 2 3 4 5 6 
#
# 1 0.014613 0.004412 -0.006887 0.000000 0.000000 0.000000
# 2 0.004412 0.027425 -0.008836 0.000000 0.000000 0.000000
# 3 -0.006887 -0.008836 0.012793 0.000000 0.000000 0.000000
# 4 0.000000 0.000000 0.000000 0.048421 0.000000 0.000000
# 5 0.000000 0.000000 0.000000 0.000000 0.005116 0.000000
# 6 0.000000 0.000000 0.000000 0.000000 0.000000 0.143013
#
#
# Mechanical properties :
#
#
# Convention : Reuss Voigt Hill
#
# Bulk Modulus (GPa) = 31.04882 48.57347 39.81115
# Shear Modulus (GPa) = 17.55989 56.74473 37.15231
#
# Velocity S-wave (km/s) = 2.89223 5.19918 4.20693
# Velocity P-wave (km/s) = 5.09353 7.69291 6.52399
#
# Compressibility (1/GPa) = 0.03220734
#
# Stress axis : x y z
#
# Youngs Moduli (GPa) = 68.43438 36.46266 78.16774
#
# Poissons Ratio (x) = -0.16086 0.53836
# Poissons Ratio (y) = -0.30191 0.69071
# Poissons Ratio (z) = 0.47132 0.32220
#
# Static dielectric constant tensor:
#      x y z
#    x 1.847180 0.000000 0.000000 
#    y 0.000000 2.021150 0.000000 
#    z 0.000000 0.000000 0.759230 
# 
# From -- ./inp_files/44143.got.cif
#   From: 2010.05.17/outbox.cif.g08.bks.cpg/sg66_23_cif.got.tgz:44143.got - 2010.06.03 17:51:23.
