data_PCOD9499359
_publ_section_title
;
Structure prediction by ZEFSAII (Michael W. Deem and Ramdas Pophale) SiO2 
 PCOD9499359
Probable space group: C C C M
;
_chemical_formula_sum "Si O2"
_cell_formula_units_Z 128
_cell_length_a 17.508666
_cell_length_b 20.552630
_cell_length_c 14.611055
_cell_angle_alpha 90.000000
_cell_angle_beta 90.000000
_cell_angle_gamma 90.000000
_cell_volume 5257.775490
_symmetry_space_group_name_H-M "C C C M"
_symmetry_group_IT_number 66
_symmetry_cell_setting 'orthorhombic'
loop_
_space_group_symop_operation_xyz
x,y,z
-x,-y,z
x,-y,1/2-z
-x,y,1/2-z
-x,-y,-z
x,y,-z
-x,y,1/2+z
x,-y,1/2+z
1/2+x,1/2+y,z
1/2-x,1/2-y,z
1/2+x,1/2-y,1/2-z
1/2-x,1/2+y,1/2-z
1/2-x,1/2-y,-z
1/2+x,1/2+y,-z
1/2-x,1/2+y,1/2+z
1/2+x,1/2-y,1/2+z
loop_
_atom_site_type_symbol
_atom_site_label
_atom_site_fract_x
_atom_site_fract_y
_atom_site_fract_z
Si Si1 0.717509 0.858329 0.612012
Si Si2 0.638561 0.559276 0.610606
Si Si3 0.326187 0.109081 0.898067
Si Si4 0.603804 0.753907 0.397319
Si Si5 0.898662 0.473690 0.147904
Si Si6 0.508843 0.133881 0.357832
Si Si7 0.499002 0.638568 0.388420
Si Si8 0.337064 0.588705 0.612887
O O1 0.712105 0.858471 0.500000
O O2 0.802141 0.883219 0.637020
O O3 0.678768 0.790029 0.642167
O O4 0.662122 0.915003 0.648994
O O5 0.643027 0.557536 0.500000
O O6 0.551804 0.576812 0.633558
O O7 0.659180 0.486924 0.641637
O O8 0.402078 0.145616 0.869633
O O9 0.244333 0.114526 0.851155
O O10 0.355406 0.033885 0.898954
O O11 0.311557 0.131478 0.000000
O O12 0.625842 0.730926 0.500000
O O13 0.543405 0.812699 0.403401
O O14 0.551144 0.698201 0.353629
O O15 0.912810 0.500000 0.250000
O O16 0.974539 0.436293 0.111945
O O17 0.500000 0.135755 0.250000
O O18 0.495345 0.645414 0.500000
O O19 0.412447 0.627552 0.357413
O O20 0.337309 0.588589 0.500000
#
# Coordination Sequence:
#
# PCOD9499359 Si02
#       8
#    16  16  16  16  16  16  16  16
#     4   9  17  30  49  77 113 145 178 223 275 331
#     4   9  15  26  48  79 111 141 173 224 289 337
#     4  11  21  33  53  81 111 143 176 219 273 324
#     4   9  19  34  51  76 109 144 183 226 269 319
#     4  11  20  32  50  76 112 141 176 215 273 339
#     4  11  22  35  52  76 106 142 181 219 264 331
#     4   9  17  30  51  78 108 142 183 231 279 327
#     4   9  17  30  49  80 113 139 176 227 282 331
#
# _framework density 24.344895000000001
#
# number of rings (size 3 to 8) (size 9 to 14) (size 15 to 20)
#    0.000    2.250    2.500    1.500    0.000    4.000 
#    0.000    3.125    0.000    4.500    6.500    0.875 
#    0.000    0.000    0.000    0.000    0.000    0.000 
#
# Total GULP energy -357145.454785 kJ/mol
# GULP energy per Si atom -5580.397731 kJ/mol
# Density = 2.428948 g / cm^3
# Si number density = 24.344895 Si / 1000 Ang^3
#
#
#
# Elastic Constant Matrix: (Units=GPa)
#
#
# Indices 1 2 3 4 5 6 
#
# 1 178.8280 45.0486 -3.5197 0.0000 0.0000 0.0000
# 2 45.0486 63.0465 -4.5259 0.0000 0.0000 0.0000
# 3 -3.5197 -4.5259 55.0162 0.0000 0.0000 0.0000
# 4 0.0000 0.0000 0.0000 5.1114 0.0000 0.0000
# 5 0.0000 0.0000 0.0000 0.0000 47.4658 0.0000
# 6 0.0000 0.0000 0.0000 0.0000 0.0000 35.4083
#
#
#
# Elastic Compliance Matrix: (Units=1/GPa)
#
#
# Indices 1 2 3 4 5 6 
#
# 1 0.006820 -0.004870 0.000036 0.000000 0.000000 0.000000
# 2 -0.004870 0.019434 0.001287 0.000000 0.000000 0.000000
# 3 0.000036 0.001287 0.018285 0.000000 0.000000 0.000000
# 4 0.000000 0.000000 0.000000 0.195643 0.000000 0.000000
# 5 0.000000 0.000000 0.000000 0.000000 0.021068 0.000000
# 6 0.000000 0.000000 0.000000 0.000000 0.000000 0.028242
#
#
# Mechanical properties :
#
#
# Convention : Reuss Voigt Hill
#
# Bulk Modulus (GPa) = 26.70730 41.21073 33.95901
# Shear Modulus (GPa) = 16.17778 34.92295 25.55037
#
# Velocity S-wave (km/s) = 2.58063 3.79160 3.24314
# Velocity P-wave (km/s) = 4.45800 6.01107 5.29182
#
# Compressibility (1/GPa) = 0.03744295
#
# Stress axis : x y z
#
# Youngs Moduli (GPa) = 146.63806 51.45730 54.69070
#
# Poissons Ratio (x) = 0.25061 -0.00195
# Poissons Ratio (y) = 0.71415 -0.07039
# Poissons Ratio (z) = -0.00523 -0.06623
#
# Static dielectric constant tensor:
#      x y z
#    x 2.007940 0.000000 0.000000 
#    y 0.000000 1.949310 0.000000 
#    z 0.000000 0.000000 2.030120 
# 
# From -- ./inp_files/51284.got.cif
#   From: 2010.05.17/outbox.cif.g08.bks.cpg/sg66_26_cif.got.tgz:51284.got - 2010.06.03 17:51:23.
