data_PCOD9499729
_publ_section_title
;
Structure prediction by ZEFSAII (Michael W. Deem and Ramdas Pophale) SiO2 
 PCOD9499729
Probable space group: C C C M
;
_chemical_formula_sum "Si O2"
_cell_formula_units_Z 64
_cell_length_a 10.519988
_cell_length_b 11.235084
_cell_length_c 25.528309
_cell_angle_alpha 90.000000
_cell_angle_beta 90.000000
_cell_angle_gamma 90.000000
_cell_volume 3017.266120
_symmetry_space_group_name_H-M "C C C M"
_symmetry_group_IT_number 66
_symmetry_cell_setting 'orthorhombic'
loop_
_space_group_symop_operation_xyz
x,y,z
-x,-y,z
x,-y,1/2-z
-x,y,1/2-z
-x,-y,-z
x,y,-z
-x,y,1/2+z
x,-y,1/2+z
1/2+x,1/2+y,z
1/2-x,1/2-y,z
1/2+x,1/2-y,1/2-z
1/2-x,1/2+y,1/2-z
1/2-x,1/2-y,-z
1/2+x,1/2+y,-z
1/2-x,1/2+y,1/2+z
1/2+x,1/2-y,1/2+z
loop_
_atom_site_type_symbol
_atom_site_label
_atom_site_fract_x
_atom_site_fract_y
_atom_site_fract_z
Si Si1 0.094410 0.113228 0.559176
Si Si2 0.473010 0.811268 0.628219
Si Si3 0.087311 0.096702 0.802187
Si Si4 0.800241 0.525445 0.642133
O O1 0.141445 0.132641 0.500000
O O2 0.021442 0.229913 0.580657
O O3 0.206233 0.083653 0.599993
O O4 0.000000 0.000000 0.557160
O O5 0.408994 0.719929 0.668325
O O6 0.374412 0.915332 0.615509
O O7 0.594136 0.875840 0.655177
O O8 0.222833 0.030819 0.808665
O O9 0.000000 0.115103 0.750000
O O10 0.000000 0.000000 0.831917
#
# Coordination Sequence:
#
# PCOD9499729 Si02
#       4
#    16  16  16  16
#     4  11  23  41  67  98 132 174 218 264 322 381
#     4  11  23  43  67  96 128 172 213 266 324 381
#     4  11  23  44  65  93 126 167 211 266 323 381
#     4  11  23  43  68  95 130 169 218 264 321 385
#
# _framework density 21.211254
#
# number of rings (size 3 to 8) (size 9 to 14) (size 15 to 20)
#    0.000    1.000    5.000    1.500    0.000    3.000 
#   18.000    6.250    0.000    0.000    0.000    0.000 
#    0.000    0.000    0.000    0.000    0.000    0.000 
#
# Total GULP energy -178298.907823 kJ/mol
# GULP energy per Si atom -5571.840869 kJ/mol
# Density = 2.116298 g / cm^3
# Si number density = 21.211254 Si / 1000 Ang^3
#
#
#
# Elastic Constant Matrix: (Units=GPa)
#
#
# Indices 1 2 3 4 5 6 
#
# 1 82.5045 20.9970 19.0192 0.0000 0.0000 0.0000
# 2 20.9970 102.3272 9.8104 0.0000 0.0000 0.0000
# 3 19.0192 9.8104 108.1353 0.0000 0.0000 0.0000
# 4 0.0000 0.0000 0.0000 1303.8543 0.0000 0.0000
# 5 0.0000 0.0000 0.0000 0.0000 7.4583 0.0000
# 6 0.0000 0.0000 0.0000 0.0000 0.0000 51.1663
#
#
#
# Elastic Compliance Matrix: (Units=1/GPa)
#
#
# Indices 1 2 3 4 5 6 
#
# 1 0.013245 -0.002516 -0.002101 0.000000 0.000000 0.000000
# 2 -0.002516 0.010336 -0.000495 0.000000 0.000000 0.000000
# 3 -0.002101 -0.000495 0.009662 0.000000 0.000000 0.000000
# 4 0.000000 0.000000 0.000000 0.000767 0.000000 0.000000
# 5 0.000000 0.000000 0.000000 0.000000 0.134079 0.000000
# 6 0.000000 0.000000 0.000000 0.000000 0.000000 0.019544
#
#
# Mechanical properties :
#
#
# Convention : Reuss Voigt Hill
#
# Bulk Modulus (GPa) = 43.44401 43.62445 43.53423
# Shear Modulus (GPa) = 24.32706 288.70515 156.51610
#
# Velocity S-wave (km/s) = 3.39026 11.67925 8.59938
# Velocity P-wave (km/s) = 5.98758 14.22970 10.91640
#
# Compressibility (1/GPa) = 0.02301814
#
# Stress axis : x y z
#
# Youngs Moduli (GPa) = 75.49804 96.74548 103.49622
#
# Poissons Ratio (x) = 0.24345 0.21748
# Poissons Ratio (y) = 0.18998 0.05125
# Poissons Ratio (z) = 0.15865 0.04790
#
# Static dielectric constant tensor:
#      x y z
#    x 1.826770 0.000000 0.000000 
#    y 0.000000 1.784040 0.000000 
#    z 0.000000 0.000000 1.807310 
# 
# From -- ./inp_files/67902.got.cif
#   From: 2010.05.17/outbox.cif.g08.bks.cpg/sg66_34_cif.got.tgz:67902.got - 2010.06.03 17:51:23.
