data_PCOD9499630
_publ_section_title
;
Structure prediction by ZEFSAII (Michael W. Deem and Ramdas Pophale) SiO2 
 PCOD9499630
Probable space group: C C C M
;
_chemical_formula_sum "Si O2"
_cell_formula_units_Z 96
_cell_length_a 21.465745
_cell_length_b 22.238829
_cell_length_c 9.612714
_cell_angle_alpha 90.000000
_cell_angle_beta 90.000000
_cell_angle_gamma 90.000000
_cell_volume 4588.850432
_symmetry_space_group_name_H-M "C C C M"
_symmetry_group_IT_number 66
_symmetry_cell_setting 'orthorhombic'
loop_
_space_group_symop_operation_xyz
x,y,z
-x,-y,z
x,-y,1/2-z
-x,y,1/2-z
-x,-y,-z
x,y,-z
-x,y,1/2+z
x,-y,1/2+z
1/2+x,1/2+y,z
1/2-x,1/2-y,z
1/2+x,1/2-y,1/2-z
1/2-x,1/2+y,1/2-z
1/2-x,1/2-y,-z
1/2+x,1/2+y,-z
1/2-x,1/2+y,1/2+z
1/2+x,1/2-y,1/2+z
loop_
_atom_site_type_symbol
_atom_site_label
_atom_site_fract_x
_atom_site_fract_y
_atom_site_fract_z
Si Si1 0.935702 0.820311 0.168966
Si Si2 0.833363 0.483893 0.500000
Si Si3 0.095729 0.393085 0.500000
Si Si4 0.743372 0.500000 0.250000
Si Si5 0.402480 0.180645 0.219412
Si Si6 0.670795 0.615322 0.339156
Si Si7 0.238448 0.679299 0.351549
Si Si8 0.042373 0.597524 0.500000
O O1 0.916934 0.751318 0.207093
O O2 0.884781 0.864997 0.236269
O O3 0.000000 0.832066 0.250000
O O4 0.939686 0.825023 0.000000
O O5 0.852588 0.554625 0.500000
O O6 0.790136 0.472533 0.365596
O O7 0.898557 0.447488 0.500000
O O8 0.099912 0.348867 0.369738
O O9 0.028044 0.426083 0.500000
O O10 0.697894 0.548727 0.318729
O O11 0.334724 0.169918 0.154537
O O12 0.450394 0.141803 0.130356
O O13 0.654748 0.626349 0.500000
O O14 0.728383 0.654695 0.284087
O O15 0.263505 0.654761 0.500000
O O16 0.250000 0.750000 0.353446
#
# Coordination Sequence:
#
# PCOD9499630 Si02
#       8
#    16   8   8   8  16  16  16   8
#     4  12  26  47  74 108 147 189 231 284 353 428
#     4  12  25  48  72  98 135 192 242 304 356 408
#     4  12  27  42  64 103 141 190 248 300 342 417
#     4  12  28  48  72 102 138 176 238 298 362 428
#     4  12  25  41  66 102 147 189 238 291 357 415
#     4  12  27  46  72 107 139 182 235 291 361 423
#     4  11  22  40  65 100 138 182 233 287 349 417
#     4  12  23  44  68  97 139 194 244 294 344 421
#
# _framework density 20.920273000000002
#
# number of rings (size 3 to 8) (size 9 to 14) (size 15 to 20)
#    0.000    0.167    4.167    5.750    5.833    0.333 
#    0.000    2.917    0.000    2.000    0.000    0.000 
#    0.000    0.000    0.000    0.000    0.000    0.000 
#
# Total GULP energy -268408.628777 kJ/mol
# GULP energy per Si atom -5591.846433 kJ/mol
# Density = 2.087266 g / cm^3
# Si number density = 20.920273 Si / 1000 Ang^3
#
#
#
# Elastic Constant Matrix: (Units=GPa)
#
#
# Indices 1 2 3 4 5 6 
#
# 1 112.8965 24.9983 31.8392 0.0000 0.0000 0.0000
# 2 24.9983 71.8855 34.7674 0.0000 0.0000 0.0000
# 3 31.8392 34.7674 161.2527 0.0000 0.0000 0.0000
# 4 0.0000 0.0000 0.0000 27.1213 0.0000 0.0000
# 5 0.0000 0.0000 0.0000 0.0000 32.9529 0.0000
# 6 0.0000 0.0000 0.0000 0.0000 0.0000 33.0961
#
#
#
# Elastic Compliance Matrix: (Units=1/GPa)
#
#
# Indices 1 2 3 4 5 6 
#
# 1 0.009852 -0.002775 -0.001347 0.000000 0.000000 0.000000
# 2 -0.002775 0.016312 -0.002969 0.000000 0.000000 0.000000
# 3 -0.001347 -0.002969 0.007108 0.000000 0.000000 0.000000
# 4 0.000000 0.000000 0.000000 0.036871 0.000000 0.000000
# 5 0.000000 0.000000 0.000000 0.000000 0.030346 0.000000
# 6 0.000000 0.000000 0.000000 0.000000 0.000000 0.030215
#
#
# Mechanical properties :
#
#
# Convention : Reuss Voigt Hill
#
# Bulk Modulus (GPa) = 52.38354 58.80494 55.59424
# Shear Modulus (GPa) = 33.05809 35.59606 34.32707
#
# Velocity S-wave (km/s) = 3.97948 4.12941 4.05514
# Velocity P-wave (km/s) = 6.79772 7.13485 6.96832
#
# Compressibility (1/GPa) = 0.01908997
#
# Stress axis : x y z
#
# Youngs Moduli (GPa) = 101.50307 61.30499 140.69467
#
# Poissons Ratio (x) = 0.17009 0.18952
# Poissons Ratio (y) = 0.28162 0.41774
# Poissons Ratio (z) = 0.13673 0.18202
#
# Static dielectric constant tensor:
#      x y z
#    x 1.769900 0.000000 0.000000 
#    y 0.000000 1.751900 0.000000 
#    z 0.000000 0.000000 1.713410 
# 
# From -- ./inp_files/9204.got.cif
#   From: 2010.05.17/outbox.cif.g08.bks.cpg/sg66_5_cif.got.tgz:9204.got - 2010.06.03 17:51:23.
