data_PCOD9499470
_publ_section_title
;
Structure prediction by ZEFSAII (Michael W. Deem and Ramdas Pophale) SiO2 
 PCOD9499470
Probable space group: C C C M
;
_chemical_formula_sum "Si O2"
_cell_formula_units_Z 64
_cell_length_a 13.946827
_cell_length_b 16.964456
_cell_length_c 13.405553
_cell_angle_alpha 90.000000
_cell_angle_beta 90.000000
_cell_angle_gamma 90.000000
_cell_volume 3171.758304
_symmetry_space_group_name_H-M "C C C M"
_symmetry_group_IT_number 66
_symmetry_cell_setting 'orthorhombic'
loop_
_space_group_symop_operation_xyz
x,y,z
-x,-y,z
x,-y,1/2-z
-x,y,1/2-z
-x,-y,-z
x,y,-z
-x,y,1/2+z
x,-y,1/2+z
1/2+x,1/2+y,z
1/2-x,1/2-y,z
1/2+x,1/2-y,1/2-z
1/2-x,1/2+y,1/2-z
1/2-x,1/2-y,-z
1/2+x,1/2+y,-z
1/2-x,1/2+y,1/2+z
1/2+x,1/2-y,1/2+z
loop_
_atom_site_type_symbol
_atom_site_label
_atom_site_fract_x
_atom_site_fract_y
_atom_site_fract_z
Si Si1 0.148097 0.296214 0.107219
Si Si2 0.616621 0.507043 0.500000
Si Si3 0.762890 0.068668 0.321607
Si Si4 0.596269 0.312644 0.779918
Si Si5 0.153986 0.804915 0.000000
O O1 0.250000 0.250000 0.102222
O O2 0.177602 0.386107 0.123362
O O3 0.097342 0.259888 0.202738
O O4 0.100019 0.283133 0.000000
O O5 0.500000 0.500000 0.500000
O O6 0.661571 0.463834 0.403102
O O7 0.654159 0.598103 0.500000
O O8 0.815122 0.132313 0.250250
O O9 0.728755 0.000000 0.250000
O O10 0.500000 0.358720 0.750000
O O11 0.603188 0.288251 0.894323
O O12 0.250000 0.750000 0.000000
#
# Coordination Sequence:
#
# PCOD9499470 Si02
#       5
#    16   8  16  16   8
#     4   9  19  37  57  81 112 156 203 239 290 366
#     4  12  24  36  58  91 127 157 197 258 312 368
#     4  11  21  36  57  87 119 155 195 242 308 370
#     4  11  24  37  60  87 122 158 202 257 308 367
#     4  12  24  42  59  91 133 171 206 247 326 396
#
# _framework density 20.178082
#
# number of rings (size 3 to 8) (size 9 to 14) (size 15 to 20)
#    0.000    1.250    3.750    3.750    3.500    0.000 
#    0.000    0.000    0.000    0.750    0.000    3.500 
#    0.000    0.000    0.000    0.000    0.000    0.000 
#
# Total GULP energy -178431.265243 kJ/mol
# GULP energy per Si atom -5575.977039 kJ/mol
# Density = 2.013216 g / cm^3
# Si number density = 20.178082 Si / 1000 Ang^3
#
#
#
# Elastic Constant Matrix: (Units=GPa)
#
#
# Indices 1 2 3 4 5 6 
#
# 1 27.4750 15.8979 27.4585 0.0000 0.0000 0.0000
# 2 15.8979 94.8232 47.2281 0.0000 0.0000 0.0000
# 3 27.4585 47.2281 205.6871 0.0000 0.0000 0.0000
# 4 0.0000 0.0000 0.0000 18.4156 0.0000 0.0000
# 5 0.0000 0.0000 0.0000 0.0000 26.7246 0.0000
# 6 0.0000 0.0000 0.0000 0.0000 0.0000 13.2820
#
#
#
# Elastic Compliance Matrix: (Units=1/GPa)
#
#
# Indices 1 2 3 4 5 6 
#
# 1 0.044027 -0.005029 -0.004723 0.000000 0.000000 0.000000
# 2 -0.005029 0.012482 -0.002195 0.000000 0.000000 0.000000
# 3 -0.004723 -0.002195 0.005996 0.000000 0.000000 0.000000
# 4 0.000000 0.000000 0.000000 0.054302 0.000000 0.000000
# 5 0.000000 0.000000 0.000000 0.000000 0.037419 0.000000
# 6 0.000000 0.000000 0.000000 0.000000 0.000000 0.075290
#
#
# Mechanical properties :
#
#
# Convention : Reuss Voigt Hill
#
# Bulk Modulus (GPa) = 25.89881 56.57270 41.23576
# Shear Modulus (GPa) = 18.77729 27.51116 23.14422
#
# Velocity S-wave (km/s) = 3.05385 3.69645 3.39041
# Velocity P-wave (km/s) = 5.02968 6.80558 5.98388
#
# Compressibility (1/GPa) = 0.03861182
#
# Stress axis : x y z
#
# Youngs Moduli (GPa) = 22.71355 80.11386 166.77429
#
# Poissons Ratio (x) = 0.40291 0.78761
# Poissons Ratio (y) = 0.11423 0.36601
# Poissons Ratio (z) = 0.10727 0.17582
#
# Static dielectric constant tensor:
#      x y z
#    x 1.733090 0.000000 0.000000 
#    y 0.000000 1.741690 0.000000 
#    z 0.000000 0.000000 1.752170 
# 
# From -- ./inp_files/15931.got.cif
#   From: 2010.05.17/outbox.cif.g08.bks.cpg/sg66_8_cif.got.tgz:15931.got - 2010.06.03 17:51:23.
