data_PCOD9499522
_publ_section_title
;
Structure prediction by ZEFSAII (Michael W. Deem and Ramdas Pophale) SiO2 
 PCOD9499522
Probable space group: C C C M
;
_chemical_formula_sum "Si O2"
_cell_formula_units_Z 116
_cell_length_a 21.797880
_cell_length_b 9.203598
_cell_length_c 29.083256
_cell_angle_alpha 90.000000
_cell_angle_beta 90.000000
_cell_angle_gamma 90.000000
_cell_volume 5834.651548
_symmetry_space_group_name_H-M "C C C M"
_symmetry_group_IT_number 66
_symmetry_cell_setting 'orthorhombic'
loop_
_space_group_symop_operation_xyz
x,y,z
-x,-y,z
x,-y,1/2-z
-x,y,1/2-z
-x,-y,-z
x,y,-z
-x,y,1/2+z
x,-y,1/2+z
1/2+x,1/2+y,z
1/2-x,1/2-y,z
1/2+x,1/2-y,1/2-z
1/2-x,1/2+y,1/2-z
1/2-x,1/2-y,-z
1/2+x,1/2+y,-z
1/2-x,1/2+y,1/2+z
1/2+x,1/2-y,1/2+z
loop_
_atom_site_type_symbol
_atom_site_label
_atom_site_fract_x
_atom_site_fract_y
_atom_site_fract_z
Si Si1 0.561584 0.803658 0.365170
Si Si2 0.122712 0.593054 0.663923
Si Si3 0.460063 0.682528 0.703550
Si Si4 0.861546 0.203852 0.425222
Si Si5 0.498827 0.667539 0.551927
Si Si6 0.250909 0.574754 0.298254
Si Si7 0.130263 0.025595 0.648781
Si Si8 0.250000 0.250000 0.000000
O O1 0.505957 0.745121 0.334399
O O2 0.539690 0.771240 0.416663
O O3 0.617570 0.695498 0.354135
O O4 0.577908 0.966777 0.352794
O O5 0.092256 0.692195 0.704016
O O6 0.139465 0.692236 0.619789
O O7 0.185428 0.527807 0.682348
O O8 0.500000 0.662980 0.750000
O O9 0.423880 0.546180 0.680814
O O10 0.928714 0.222565 0.447397
O O11 0.804474 0.227456 0.459329
O O12 0.866456 0.044457 0.401950
O O13 0.500000 0.500000 0.570067
O O14 0.522081 0.661960 0.500000
O O15 0.261051 0.500000 0.250000
O O16 0.250000 0.750000 0.295708
O O17 0.306163 0.520971 0.329359
#
# Coordination Sequence:
#
# PCOD9499522 Si02
#       8
#    16  16  16  16  16  16  16   4
#     4  12  24  41  66 103 136 169 215 269 335 403
#     4  11  26  44  66  93 142 175 212 275 335 384
#     4  11  24  40  67  98 134 180 220 269 326 390
#     4  11  21  43  65  97 122 173 216 270 328 384
#     4  11  21  40  68 102 133 167 214 270 336 400
#     4  12  27  46  65  91 126 177 230 268 317 388
#     4  11  24  44  70  92 135 174 220 279 321 383
#     4  12  24  40  78  96 112 172 248 266 310 424
#
# _framework density 19.881221
#
# number of rings (size 3 to 8) (size 9 to 14) (size 15 to 20)
#    0.000    0.690    7.586    1.655    5.793    1.103 
#    1.241    0.690    0.000    0.828    0.000    0.000 
#    0.000    0.000    0.000    0.000    0.000    0.000 
#
# Total GULP energy -323371.652810 kJ/mol
# GULP energy per Si atom -5575.373324 kJ/mol
# Density = 1.983597 g / cm^3
# Si number density = 19.881221 Si / 1000 Ang^3
#
#
#
# Elastic Constant Matrix: (Units=GPa)
#
#
# Indices 1 2 3 4 5 6 
#
# 1 109.2806 19.1058 27.1258 0.0000 0.0000 0.0000
# 2 19.1058 58.6950 5.7645 0.0000 0.0000 0.0000
# 3 27.1258 5.7645 79.9093 0.0000 0.0000 0.0000
# 4 0.0000 0.0000 0.0000 19.4125 0.0000 0.0000
# 5 0.0000 0.0000 0.0000 0.0000 43.7054 0.0000
# 6 0.0000 0.0000 0.0000 0.0000 0.0000 12.2038
#
#
#
# Elastic Compliance Matrix: (Units=1/GPa)
#
#
# Indices 1 2 3 4 5 6 
#
# 1 0.010523 -0.003097 -0.003349 0.000000 0.000000 0.000000
# 2 -0.003097 0.018070 -0.000252 0.000000 0.000000 0.000000
# 3 -0.003349 -0.000252 0.013669 0.000000 0.000000 0.000000
# 4 0.000000 0.000000 0.000000 0.051513 0.000000 0.000000
# 5 0.000000 0.000000 0.000000 0.000000 0.022880 0.000000
# 6 0.000000 0.000000 0.000000 0.000000 0.000000 0.081942
#
#
# Mechanical properties :
#
#
# Convention : Reuss Voigt Hill
#
# Bulk Modulus (GPa) = 34.64172 39.09747 36.86960
# Shear Modulus (GPa) = 22.56155 28.12358 25.34257
#
# Velocity S-wave (km/s) = 3.37236 3.76517 3.57417
# Velocity P-wave (km/s) = 5.71191 6.21371 5.96809
#
# Compressibility (1/GPa) = 0.02886693
#
# Stress axis : x y z
#
# Youngs Moduli (GPa) = 95.02626 55.34040 73.15715
#
# Poissons Ratio (x) = 0.17137 0.24499
# Poissons Ratio (y) = 0.29426 0.01846
# Poissons Ratio (z) = 0.31823 0.01397
#
# Static dielectric constant tensor:
#      x y z
#    x 1.702700 0.000000 0.000000 
#    y 0.000000 1.718640 0.000000 
#    z 0.000000 0.000000 1.725630 
# 
# From -- ./inp_files/66112.got.cif
#   From: 2010.05.17/outbox.cif.g08.bks.cpg/sg66_34_cif.got.tgz:66112.got - 2010.06.03 17:51:23.
