data_PCOD9499822
_publ_section_title
;
Structure prediction by ZEFSAII (Michael W. Deem and Ramdas Pophale) SiO2 
 PCOD9499822
Probable space group: C C C M
;
_chemical_formula_sum "Si O2"
_cell_formula_units_Z 52
_cell_length_a 17.311038
_cell_length_b 17.393002
_cell_length_c 8.108232
_cell_angle_alpha 90.000000
_cell_angle_beta 90.000000
_cell_angle_gamma 90.000000
_cell_volume 2441.315021
_symmetry_space_group_name_H-M "C C C M"
_symmetry_group_IT_number 66
_symmetry_cell_setting 'orthorhombic'
loop_
_space_group_symop_operation_xyz
x,y,z
-x,-y,z
x,-y,1/2-z
-x,y,1/2-z
-x,-y,-z
x,y,-z
-x,y,1/2+z
x,-y,1/2+z
1/2+x,1/2+y,z
1/2-x,1/2-y,z
1/2+x,1/2-y,1/2-z
1/2-x,1/2+y,1/2-z
1/2-x,1/2-y,-z
1/2+x,1/2+y,-z
1/2-x,1/2+y,1/2+z
1/2+x,1/2-y,1/2+z
loop_
_atom_site_type_symbol
_atom_site_label
_atom_site_fract_x
_atom_site_fract_y
_atom_site_fract_z
Si Si1 0.000000 0.500000 0.250000
Si Si2 0.384653 0.879186 0.805604
Si Si3 0.215180 0.083691 0.192513
Si Si4 0.413844 0.701701 0.803261
O O1 0.936061 0.436509 0.304587
O O2 0.294531 0.896868 0.785833
O O3 0.400366 0.791079 0.759245
O O4 0.406078 0.891305 0.000000
O O5 0.150730 0.147579 0.225251
O O6 0.187247 0.000000 0.250000
O O7 0.233542 0.080890 0.000000
O O8 0.500000 0.679535 0.750000
O O9 0.406779 0.695855 0.000000
#
# Coordination Sequence:
#
# PCOD9499822 Si02
#       4
#     4  16  16  16
#     4  12  22  40  72 106 138 172 210 264 330 392
#     4  11  24  42  67 101 139 175 215 269 330 395
#     4  12  26  44  68  97 131 175 224 275 332 393
#     4  11  24  44  68  98 135 175 222 273 328 389
#
# _framework density 21.299994999999999
#
# number of rings (size 3 to 8) (size 9 to 14) (size 15 to 20)
#    0.000    0.615    3.077    5.077    0.000    8.000 
#    0.000    3.077    0.000    0.000    0.000    0.000 
#    0.000    0.000    0.000    0.000    0.000    0.000 
#
# Total GULP energy -145260.108868 kJ/mol
# GULP energy per Si atom -5586.927264 kJ/mol
# Density = 2.125152 g / cm^3
# Si number density = 21.299995 Si / 1000 Ang^3
#
#
#
# Elastic Constant Matrix: (Units=GPa)
#
#
# Indices 1 2 3 4 5 6 
#
# 1 134.2038 83.1654 16.7081 0.0000 0.0000 0.0000
# 2 83.1654 122.6488 23.2373 0.0000 0.0000 0.0000
# 3 16.7081 23.2373 68.3246 0.0000 0.0000 0.0000
# 4 0.0000 0.0000 0.0000 15.9428 0.0000 0.0000
# 5 0.0000 0.0000 0.0000 0.0000 5.0516 0.0000
# 6 0.0000 0.0000 0.0000 0.0000 0.0000 42.1744
#
#
#
# Elastic Compliance Matrix: (Units=1/GPa)
#
#
# Indices 1 2 3 4 5 6 
#
# 1 0.012854 -0.008680 -0.000191 0.000000 0.000000 0.000000
# 2 -0.008680 0.014576 -0.002835 0.000000 0.000000 0.000000
# 3 -0.000191 -0.002835 0.015647 0.000000 0.000000 0.000000
# 4 0.000000 0.000000 0.000000 0.062724 0.000000 0.000000
# 5 0.000000 0.000000 0.000000 0.000000 0.197956 0.000000
# 6 0.000000 0.000000 0.000000 0.000000 0.000000 0.023711
#
#
# Mechanical properties :
#
#
# Convention : Reuss Voigt Hill
#
# Bulk Modulus (GPa) = 50.85123 63.48874 57.16999
# Shear Modulus (GPa) = 13.98857 26.10486 20.04671
#
# Velocity S-wave (km/s) = 2.56547 3.50463 3.07116
# Velocity P-wave (km/s) = 5.71850 6.80060 6.28289
#
# Compressibility (1/GPa) = 0.01966521
#
# Stress axis : x y z
#
# Youngs Moduli (GPa) = 77.79701 68.60601 63.91040
#
# Poissons Ratio (x) = 0.59548 0.01223
# Poissons Ratio (y) = 0.67526 0.18117
# Poissons Ratio (z) = 0.01488 0.19448
#
# Static dielectric constant tensor:
#      x y z
#    x 1.734220 0.000000 0.000000 
#    y 0.000000 1.738840 0.000000 
#    z 0.000000 0.000000 1.810910 
# 
# From -- ./inp_files/4721.got.cif
#   From: 2010.05.17/outbox.cif.g08.bks.cpg/sg66_3_cif.got.tgz:4721.got - 2010.06.03 17:51:23.
