data_PCOD9499045
_publ_section_title
;
Structure prediction by ZEFSAII (Michael W. Deem and Ramdas Pophale) SiO2 
 PCOD9499045
Probable space group: C C C M
;
_chemical_formula_sum "Si O2"
_cell_formula_units_Z 96
_cell_length_a 24.674101
_cell_length_b 11.489983
_cell_length_c 17.739755
_cell_angle_alpha 90.000000
_cell_angle_beta 90.000000
_cell_angle_gamma 90.000000
_cell_volume 5029.309260
_symmetry_space_group_name_H-M "C C C M"
_symmetry_group_IT_number 66
_symmetry_cell_setting 'orthorhombic'
loop_
_space_group_symop_operation_xyz
x,y,z
-x,-y,z
x,-y,1/2-z
-x,y,1/2-z
-x,-y,-z
x,y,-z
-x,y,1/2+z
x,-y,1/2+z
1/2+x,1/2+y,z
1/2-x,1/2-y,z
1/2+x,1/2-y,1/2-z
1/2-x,1/2+y,1/2-z
1/2-x,1/2-y,-z
1/2+x,1/2+y,-z
1/2-x,1/2+y,1/2+z
1/2+x,1/2-y,1/2+z
loop_
_atom_site_type_symbol
_atom_site_label
_atom_site_fract_x
_atom_site_fract_y
_atom_site_fract_z
Si Si1 0.057045 0.552036 0.834167
Si Si2 0.441442 0.687560 0.781664
Si Si3 0.242235 0.113270 0.195363
Si Si4 0.436694 0.529842 0.080701
Si Si5 0.155979 0.433484 0.913951
Si Si6 0.371235 0.681459 0.631252
O O1 0.065145 0.500000 0.750000
O O2 0.050564 0.688737 0.821684
O O3 0.109350 0.518891 0.882856
O O4 0.000000 0.500000 0.863402
O O5 0.500000 0.649423 0.750000
O O6 0.420855 0.600759 0.845361
O O7 0.400464 0.697632 0.712237
O O8 0.250000 0.250000 0.226021
O O9 0.293098 0.078372 0.142626
O O10 0.188223 0.130216 0.146284
O O11 0.235493 0.000000 0.250000
O O12 0.500000 0.500000 0.085595
O O13 0.405242 0.409910 0.084690
O O14 0.426610 0.589514 0.000000
O O15 0.130932 0.304551 0.909338
O O16 0.171356 0.461266 0.000000
#
# Coordination Sequence:
#
# PCOD9499045 Si02
#       6
#    16  16  16  16  16  16
#     4  11  21  39  62  92 121 158 205 256 311 365
#     4  12  21  37  64  88 122 162 211 254 303 373
#     4  10  23  41  67  95 121 161 216 263 313 373
#     4  11  24  37  55  87 129 163 197 250 312 369
#     4  11  24  41  65  93 126 161 200 261 321 377
#     4  11  22  40  64  92 118 165 211 258 302 368
#
# _framework density 19.088108999999999
#
# number of rings (size 3 to 8) (size 9 to 14) (size 15 to 20)
#    0.000    1.000    5.000    2.500    2.333    4.667 
#    0.000    0.000    0.000    0.500    0.000    0.000 
#    0.000    0.000    0.000    0.000    0.000    0.000 
#
# Total GULP energy -267889.147450 kJ/mol
# GULP energy per Si atom -5581.023905 kJ/mol
# Density = 1.904466 g / cm^3
# Si number density = 19.088109 Si / 1000 Ang^3
#
#
#
# Elastic Constant Matrix: (Units=GPa)
#
#
# Indices 1 2 3 4 5 6 
#
# 1 76.6529 4.1686 4.7375 0.0000 0.0000 0.0000
# 2 4.1686 62.8202 16.0287 0.0000 0.0000 0.0000
# 3 4.7375 16.0287 68.9804 0.0000 0.0000 0.0000
# 4 0.0000 0.0000 0.0000 7.3928 0.0000 0.0000
# 5 0.0000 0.0000 0.0000 0.0000 36.1895 0.0000
# 6 0.0000 0.0000 0.0000 0.0000 0.0000 32.1247
#
#
#
# Elastic Compliance Matrix: (Units=1/GPa)
#
#
# Indices 1 2 3 4 5 6 
#
# 1 0.013129 -0.000682 -0.000743 0.000000 0.000000 0.000000
# 2 -0.000682 0.016957 -0.003893 0.000000 0.000000 0.000000
# 3 -0.000743 -0.003893 0.015453 0.000000 0.000000 0.000000
# 4 0.000000 0.000000 0.000000 0.135266 0.000000 0.000000
# 5 0.000000 0.000000 0.000000 0.000000 0.027632 0.000000
# 6 0.000000 0.000000 0.000000 0.000000 0.000000 0.031129
#
#
# Mechanical properties :
#
#
# Convention : Reuss Voigt Hill
#
# Bulk Modulus (GPa) = 28.65168 28.70256 28.67712
# Shear Modulus (GPa) = 19.09588 27.37597 23.23593
#
# Velocity S-wave (km/s) = 3.16635 3.79118 3.49277
# Velocity P-wave (km/s) = 5.33015 5.85095 5.59661
#
# Compressibility (1/GPa) = 0.03490196
#
# Stress axis : x y z
#
# Youngs Moduli (GPa) = 76.16833 58.97232 64.71389
#
# Poissons Ratio (x) = 0.04019 0.04810
# Poissons Ratio (y) = 0.05191 0.25196
# Poissons Ratio (z) = 0.05662 0.22961
#
# Static dielectric constant tensor:
#      x y z
#    x 1.653280 0.000000 0.000000 
#    y 0.000000 1.687560 0.000000 
#    z 0.000000 0.000000 1.676640 
# 
# From -- ./inp_files/38863.got.cif
#   From: 2010.05.17/outbox.cif.g08.bks.cpg/sg66_20_cif.got.tgz:38863.got - 2010.06.03 17:51:23.
