data_PCOD9499536
_publ_section_title
;
Structure prediction by ZEFSAII (Michael W. Deem and Ramdas Pophale) SiO2 
 PCOD9499536
Probable space group: C C C M
;
_chemical_formula_sum "Si O2"
_cell_formula_units_Z 88
_cell_length_a 7.052990
_cell_length_b 28.572107
_cell_length_c 23.086105
_cell_angle_alpha 90.000000
_cell_angle_beta 90.000000
_cell_angle_gamma 90.000000
_cell_volume 4652.283829
_symmetry_space_group_name_H-M "C C C M"
_symmetry_group_IT_number 66
_symmetry_cell_setting 'orthorhombic'
loop_
_space_group_symop_operation_xyz
x,y,z
-x,-y,z
x,-y,1/2-z
-x,y,1/2-z
-x,-y,-z
x,y,-z
-x,y,1/2+z
x,-y,1/2+z
1/2+x,1/2+y,z
1/2-x,1/2-y,z
1/2+x,1/2-y,1/2-z
1/2-x,1/2+y,1/2-z
1/2-x,1/2-y,-z
1/2+x,1/2+y,-z
1/2-x,1/2+y,1/2+z
1/2+x,1/2-y,1/2+z
loop_
_atom_site_type_symbol
_atom_site_label
_atom_site_fract_x
_atom_site_fract_y
_atom_site_fract_z
Si Si1 0.296241 0.602194 0.000000
Si Si2 0.902947 0.208457 0.000000
Si Si3 0.430584 0.553545 0.407069
Si Si4 0.086093 0.212682 0.877012
Si Si5 0.852214 0.120307 0.695270
Si Si6 0.901871 0.550805 0.000000
Si Si7 0.000000 0.334113 0.750000
Si Si8 0.750000 0.750000 0.300088
O O1 0.410437 0.582014 0.944150
O O2 0.078885 0.585889 0.000000
O O3 0.303778 0.658040 0.000000
O O4 0.750000 0.250000 0.000000
O O5 0.032309 0.211143 0.056352
O O6 0.500000 0.500000 0.405193
O O7 0.394772 0.574571 0.343393
O O8 0.237221 0.556235 0.444849
O O9 0.250000 0.250000 0.867316
O O10 0.121153 0.162052 0.850910
O O11 0.913165 0.231577 0.840469
O O12 0.634856 0.130048 0.714506
O O13 0.000000 0.123072 0.750000
O O14 0.000000 0.500000 0.000000
O O15 0.838590 0.295623 0.768804
#
# Coordination Sequence:
#
# PCOD9499536 Si02
#       8
#     8   8  16  16  16   8   8   8
#     4  11  22  44  73 100 138 173 227 269 344 423
#     4  12  26  42  64 105 143 179 214 276 347 411
#     4  11  24  44  73 102 133 177 226 289 350 412
#     4  12  24  42  66  93 138 183 222 275 336 405
#     4  12  26  43  68  98 134 182 232 286 344 402
#     4  11  21  41  76 107 127 173 227 285 341 417
#     4  12  24  42  66 103 132 182 243 278 328 406
#     4  12  22  39  68  94 130 181 238 276 314 398
#
# _framework density 18.915441999999999
#
# number of rings (size 3 to 8) (size 9 to 14) (size 15 to 20)
#    0.000    0.364    8.182    1.909    0.000    4.727 
#    0.000    0.000    0.000    0.000    0.000    0.000 
#    0.000    0.000    0.000    0.000    0.000    0.000 
#
# Total GULP energy -245436.709188 kJ/mol
# GULP energy per Si atom -5578.107027 kJ/mol
# Density = 1.887239 g / cm^3
# Si number density = 18.915442 Si / 1000 Ang^3
#
#
#
# Elastic Constant Matrix: (Units=GPa)
#
#
# Indices 1 2 3 4 5 6 
#
# 1 151.5297 57.5075 57.1262 0.0000 0.0000 0.0000
# 2 57.5075 119.7197 38.7567 0.0000 0.0000 0.0000
# 3 57.1262 38.7567 118.1584 0.0000 0.0000 0.0000
# 4 0.0000 0.0000 0.0000 35.2174 0.0000 0.0000
# 5 0.0000 0.0000 0.0000 0.0000 18.5290 0.0000
# 6 0.0000 0.0000 0.0000 0.0000 0.0000 21.0143
#
#
#
# Elastic Compliance Matrix: (Units=1/GPa)
#
#
# Indices 1 2 3 4 5 6 
#
# 1 0.009102 -0.003298 -0.003319 0.000000 0.000000 0.000000
# 2 -0.003298 0.010540 -0.001863 0.000000 0.000000 0.000000
# 3 -0.003319 -0.001863 0.010679 0.000000 0.000000 0.000000
# 4 0.000000 0.000000 0.000000 0.028395 0.000000 0.000000
# 5 0.000000 0.000000 0.000000 0.000000 0.053969 0.000000
# 6 0.000000 0.000000 0.000000 0.000000 0.000000 0.047587
#
#
# Mechanical properties :
#
#
# Convention : Reuss Voigt Hill
#
# Bulk Modulus (GPa) = 74.83951 77.35430 76.09691
# Shear Modulus (GPa) = 27.52015 30.68663 29.10339
#
# Velocity S-wave (km/s) = 3.81846 4.03216 3.92676
# Velocity P-wave (km/s) = 7.68713 7.91589 7.80235
#
# Compressibility (1/GPa) = 0.01336193
#
# Stress axis : x y z
#
# Youngs Moduli (GPa) = 109.86413 94.87676 93.64321
#
# Poissons Ratio (x) = 0.31288 0.31080
# Poissons Ratio (y) = 0.36231 0.17444
# Poissons Ratio (z) = 0.36463 0.17674
#
# Static dielectric constant tensor:
#      x y z
#    x 1.644520 0.000000 0.000000 
#    y 0.000000 1.842750 0.000000 
#    z 0.000000 0.000000 1.666400 
# 
# From -- ./inp_files/54492.got.cif
#   From: 2010.05.17/outbox.cif.g08.bks.cpg/sg66_28_cif.got.tgz:54492.got - 2010.06.03 17:51:23.
