data_PCOD9499081
_publ_section_title
;
Structure prediction by ZEFSAII (Michael W. Deem and Ramdas Pophale) SiO2 
 PCOD9499081
Probable space group: C C C M
;
_chemical_formula_sum "Si O2"
_cell_formula_units_Z 96
_cell_length_a 13.715727
_cell_length_b 16.349046
_cell_length_c 22.283594
_cell_angle_alpha 90.000000
_cell_angle_beta 90.000000
_cell_angle_gamma 90.000000
_cell_volume 4996.851986
_symmetry_space_group_name_H-M "C C C M"
_symmetry_group_IT_number 66
_symmetry_cell_setting 'orthorhombic'
loop_
_space_group_symop_operation_xyz
x,y,z
-x,-y,z
x,-y,1/2-z
-x,y,1/2-z
-x,-y,-z
x,y,-z
-x,y,1/2+z
x,-y,1/2+z
1/2+x,1/2+y,z
1/2-x,1/2-y,z
1/2+x,1/2-y,1/2-z
1/2-x,1/2+y,1/2-z
1/2-x,1/2-y,-z
1/2+x,1/2+y,-z
1/2-x,1/2+y,1/2+z
1/2+x,1/2-y,1/2+z
loop_
_atom_site_type_symbol
_atom_site_label
_atom_site_fract_x
_atom_site_fract_y
_atom_site_fract_z
Si Si1 0.091528 0.941696 0.500000
Si Si2 0.644819 0.705718 0.373816
Si Si3 0.468322 0.718391 0.000000
Si Si4 0.260173 0.407579 0.898308
Si Si5 0.657765 0.818626 0.000000
Si Si6 0.228514 0.048912 0.691779
Si Si7 0.750000 0.750000 0.176394
Si Si8 0.604357 0.827043 0.270816
O O1 0.157764 0.945994 0.558753
O O2 0.046728 0.852956 0.500000
O O3 0.000000 0.000000 0.500000
O O4 0.750000 0.750000 0.379798
O O5 0.594408 0.708633 0.439048
O O6 0.661069 0.615632 0.343718
O O7 0.590538 0.763045 0.325437
O O8 0.545135 0.792650 0.000000
O O9 0.235332 0.478067 0.852271
O O10 0.289570 0.325597 0.862676
O O11 0.177154 0.373834 0.941932
O O12 0.750000 0.750000 0.000000
O O13 0.321538 0.101496 0.711662
O O14 0.185983 0.000000 0.750000
O O15 0.662385 0.780183 0.218297
O O16 0.500000 0.857425 0.250000
#
# Coordination Sequence:
#
# PCOD9499081 Si02
#       8
#     8  16   8  16   8  16   8  16
#     4  11  23  39  59 100 127 169 218 264 333 395
#     4  10  23  43  64  94 130 172 221 268 334 388
#     4  12  22  39  69  90 124 170 230 267 316 397
#     4  11  22  39  67  91 133 168 212 270 329 382
#     4  11  22  41  62  97 124 170 217 266 323 383
#     4  11  21  42  64  92 133 174 209 268 335 386
#     4  12  20  43  66  91 128 172 216 278 324 382
#     4  11  24  40  67  96 128 172 224 262 323 395
#
# _framework density 19.212095999999999
#
# number of rings (size 3 to 8) (size 9 to 14) (size 15 to 20)
#    0.000    1.000    6.667    1.250    4.667    1.000 
#    0.000    1.667    0.000    4.000    0.000    0.000 
#    0.000    0.000    0.000    0.000    0.000    0.000 
#
# Total GULP energy -267656.091803 kJ/mol
# GULP energy per Si atom -5576.168579 kJ/mol
# Density = 1.916837 g / cm^3
# Si number density = 19.212096 Si / 1000 Ang^3
#
#
#
# Elastic Constant Matrix: (Units=GPa)
#
#
# Indices 1 2 3 4 5 6 
#
# 1 74.4455 20.1906 41.4007 0.0000 0.0000 0.0000
# 2 20.1906 110.8872 62.7275 0.0000 0.0000 0.0000
# 3 41.4007 62.7275 148.1467 0.0000 0.0000 0.0000
# 4 0.0000 0.0000 0.0000 47.4117 0.0000 0.0000
# 5 0.0000 0.0000 0.0000 0.0000 -17.8202 0.0000
# 6 0.0000 0.0000 0.0000 0.0000 0.0000 24.9308
#
#
#
# Elastic Compliance Matrix: (Units=1/GPa)
#
#
# Indices 1 2 3 4 5 6 
#
# 1 0.015926 -0.000503 -0.004238 0.000000 0.000000 0.000000
# 2 -0.000503 0.011874 -0.004887 0.000000 0.000000 0.000000
# 3 -0.004238 -0.004887 0.010004 0.000000 0.000000 0.000000
# 4 0.000000 0.000000 0.000000 0.021092 0.000000 0.000000
# 5 0.000000 0.000000 0.000000 0.000000 -0.056116 0.000000
# 6 0.000000 0.000000 0.000000 0.000000 0.000000 0.040111
#
#
# Mechanical properties :
#
#
# Convention : Reuss Voigt Hill
#
# Bulk Modulus (GPa) = 53.91286 64.67967 59.29627
# Shear Modulus (GPa) = 73.17565 24.84849 49.01207
#
# Velocity S-wave (km/s) = 6.17827 3.60026 5.05633
# Velocity P-wave (km/s) = 8.88918 7.14295 8.06347
#
# Compressibility (1/GPa) = 0.01854845
#
# Stress axis : x y z
#
# Youngs Moduli (GPa) = 62.79181 84.21484 99.96281
#
# Poissons Ratio (x) = 0.04232 0.42362
# Poissons Ratio (y) = 0.03156 0.48855
# Poissons Ratio (z) = 0.26610 0.41159
#
# Static dielectric constant tensor:
#      x y z
#    x 1.647460 0.000000 0.000000 
#    y 0.000000 1.651670 0.000000 
#    z 0.000000 0.000000 1.621360 
# 
# From -- ./inp_files/49968.got.cif
#   From: 2010.05.17/outbox.cif.g08.bks.cpg/sg66_25_cif.got.tgz:49968.got - 2010.06.03 17:51:23.
