data_PCOD9499563
_publ_section_title
;
Structure prediction by ZEFSAII (Michael W. Deem and Ramdas Pophale) SiO2 
 PCOD9499563
Probable space group: C C C M
;
_chemical_formula_sum "Si O2"
_cell_formula_units_Z 84
_cell_length_a 20.173210
_cell_length_b 11.576586
_cell_length_c 19.039183
_cell_angle_alpha 90.000000
_cell_angle_beta 90.000000
_cell_angle_gamma 90.000000
_cell_volume 4446.351785
_symmetry_space_group_name_H-M "C C C M"
_symmetry_group_IT_number 66
_symmetry_cell_setting 'orthorhombic'
loop_
_space_group_symop_operation_xyz
x,y,z
-x,-y,z
x,-y,1/2-z
-x,y,1/2-z
-x,-y,-z
x,y,-z
-x,y,1/2+z
x,-y,1/2+z
1/2+x,1/2+y,z
1/2-x,1/2-y,z
1/2+x,1/2-y,1/2-z
1/2-x,1/2+y,1/2-z
1/2-x,1/2-y,-z
1/2+x,1/2+y,-z
1/2-x,1/2+y,1/2+z
1/2+x,1/2-y,1/2+z
loop_
_atom_site_type_symbol
_atom_site_label
_atom_site_fract_x
_atom_site_fract_y
_atom_site_fract_z
Si Si1 0.500000 0.500000 0.250000
Si Si2 0.089502 0.822312 0.332387
Si Si3 0.474933 0.364627 0.580743
Si Si4 0.281742 0.622757 0.419590
Si Si5 0.273606 0.935299 0.822077
Si Si6 0.641426 0.281992 0.815038
O O1 0.547961 0.421734 0.294660
O O2 0.152198 0.869074 0.373782
O O3 0.113950 0.753908 0.263554
O O4 0.035815 0.784800 0.390701
O O5 0.500000 0.500000 0.579816
O O6 0.457521 0.338499 0.500000
O O7 0.414131 0.336600 0.633708
O O8 0.296395 0.591474 0.500000
O O9 0.250000 0.750000 0.418003
O O10 0.235302 0.529164 0.382820
O O11 0.325955 0.836426 0.841804
O O12 0.202542 0.872048 0.808819
O O13 0.291490 0.000000 0.750000
#
# Coordination Sequence:
#
# PCOD9499563 Si02
#       6
#     4  16  16  16  16  16
#     4  12  20  32  62  88 122 148 194 258 312 358
#     4  12  19  36  57  90 120 158 201 253 306 368
#     4  11  22  35  55  89 128 163 201 255 322 378
#     4  11  24  41  64  91 125 169 210 253 311 382
#     4  11  22  39  61  91 124 164 207 256 307 375
#     4  11  23  36  62  92 126 163 202 256 321 372
#
# _framework density 18.891893
#
# number of rings (size 3 to 8) (size 9 to 14) (size 15 to 20)
#    0.000    0.762    4.762    4.000    0.000    3.048 
#    0.000    1.905    0.000    8.000    0.000    8.000 
#    0.000    0.000    0.000    0.000    0.000    0.000 
#
# Total GULP energy -234230.699596 kJ/mol
# GULP energy per Si atom -5576.921419 kJ/mol
# Density = 1.884889 g / cm^3
# Si number density = 18.891893 Si / 1000 Ang^3
#
#
#
# Elastic Constant Matrix: (Units=GPa)
#
#
# Indices 1 2 3 4 5 6 
#
# 1 90.3338 37.0559 43.7067 0.0000 0.0000 0.0000
# 2 37.0559 73.3924 35.7083 0.0000 0.0000 0.0000
# 3 43.7067 35.7083 151.0880 0.0000 0.0000 0.0000
# 4 0.0000 0.0000 0.0000 49.7441 0.0000 0.0000
# 5 0.0000 0.0000 0.0000 0.0000 14.9561 0.0000
# 6 0.0000 0.0000 0.0000 0.0000 0.0000 20.2415
#
#
#
# Elastic Compliance Matrix: (Units=1/GPa)
#
#
# Indices 1 2 3 4 5 6 
#
# 1 0.014994 -0.006170 -0.002879 0.000000 0.000000 0.000000
# 2 -0.006170 0.017934 -0.002454 0.000000 0.000000 0.000000
# 3 -0.002879 -0.002454 0.008032 0.000000 0.000000 0.000000
# 4 0.000000 0.000000 0.000000 0.020103 0.000000 0.000000
# 5 0.000000 0.000000 0.000000 0.000000 0.066863 0.000000
# 6 0.000000 0.000000 0.000000 0.000000 0.000000 0.049404
#
#
# Mechanical properties :
#
#
# Convention : Reuss Voigt Hill
#
# Bulk Modulus (GPa) = 55.69702 60.86178 58.27940
# Shear Modulus (GPa) = 24.23430 30.21122 27.22276
#
# Velocity S-wave (km/s) = 3.58549 4.00329 3.80014
# Velocity P-wave (km/s) = 6.83278 7.32490 7.08312
#
# Compressibility (1/GPa) = 0.01795428
#
# Stress axis : x y z
#
# Youngs Moduli (GPa) = 66.69329 55.75902 124.50906
#
# Poissons Ratio (x) = 0.34401 0.35850
# Poissons Ratio (y) = 0.41147 0.30553
# Poissons Ratio (z) = 0.19203 0.13683
#
# Static dielectric constant tensor:
#      x y z
#    x 1.686270 0.000000 0.000000 
#    y 0.000000 1.662750 0.000000 
#    z 0.000000 0.000000 1.806960 
# 
# From -- ./inp_files/51799.got.cif
#   From: 2010.05.17/outbox.cif.g08.bks.cpg/sg66_26_cif.got.tgz:51799.got - 2010.06.03 17:51:23.
