data_PCOD9499893
_publ_section_title
;
Structure prediction by ZEFSAII (Michael W. Deem and Ramdas Pophale) SiO2 
 PCOD9499893
Probable space group: C C C M
;
_chemical_formula_sum "Si O2"
_cell_formula_units_Z 88
_cell_length_a 13.097265
_cell_length_b 12.344275
_cell_length_c 24.485292
_cell_angle_alpha 90.000000
_cell_angle_beta 90.000000
_cell_angle_gamma 90.000000
_cell_volume 3958.689968
_symmetry_space_group_name_H-M "C C C M"
_symmetry_group_IT_number 66
_symmetry_cell_setting 'orthorhombic'
loop_
_space_group_symop_operation_xyz
x,y,z
-x,-y,z
x,-y,1/2-z
-x,y,1/2-z
-x,-y,-z
x,y,-z
-x,y,1/2+z
x,-y,1/2+z
1/2+x,1/2+y,z
1/2-x,1/2-y,z
1/2+x,1/2-y,1/2-z
1/2-x,1/2+y,1/2-z
1/2-x,1/2-y,-z
1/2+x,1/2+y,-z
1/2-x,1/2+y,1/2+z
1/2+x,1/2-y,1/2+z
loop_
_atom_site_type_symbol
_atom_site_label
_atom_site_fract_x
_atom_site_fract_y
_atom_site_fract_z
Si Si1 0.942286 0.110084 0.436577
Si Si2 0.103938 0.417371 0.500000
Si Si3 0.694876 0.415239 0.793620
Si Si4 0.729877 0.025636 0.404542
Si Si5 0.474813 0.844065 0.396029
Si Si6 0.406894 0.184123 0.291149
O O1 0.970778 0.130174 0.500000
O O2 0.821789 0.092759 0.431363
O O3 0.969769 0.214579 0.401590
O O4 0.000000 0.000000 0.419614
O O5 0.186994 0.445795 0.451199
O O6 0.018373 0.387738 0.452788
O O7 0.651309 0.500000 0.750000
O O8 0.720733 0.467185 0.852171
O O9 0.626214 0.308730 0.799808
O O10 0.805158 0.375540 0.771141
O O11 0.636128 0.103563 0.387778
O O12 0.552518 0.867984 0.347207
O O13 0.500000 0.177432 0.250000
#
# Coordination Sequence:
#
# PCOD9499893 Si02
#       6
#    16   8  16  16  16  16
#     4  11  25  43  63  97 141 185 229 279 348 427
#     4  12  25  42  73 114 147 182 231 298 361 426
#     4  11  26  47  70 100 136 182 237 292 356 425
#     4  12  24  44  72 104 140 181 233 292 355 425
#     4  12  24  44  72 104 140 181 233 292 355 425
#     4  11  26  47  70 100 136 182 237 292 356 425
#
# _framework density 22.229576999999999
#
# number of rings (size 3 to 8) (size 9 to 14) (size 15 to 20)
#    0.000    0.545    3.636    4.364    2.545    2.909 
#    0.000    3.636    0.000    0.000    0.000    0.000 
#    0.000    0.000    0.000    0.000    0.000    0.000 
#
# Total GULP energy -245259.733722 kJ/mol
# GULP energy per Si atom -5574.084857 kJ/mol
# Density = 2.217898 g / cm^3
# Si number density = 22.229577 Si / 1000 Ang^3
#
#
#
# Elastic Constant Matrix: (Units=GPa)
#
#
# Indices 1 2 3 4 5 6 
#
# 1 68.6067 -1.3273 9.4072 0.0000 0.0000 0.0000
# 2 -1.3273 78.9923 17.2388 0.0000 0.0000 0.0000
# 3 9.4072 17.2388 103.9029 0.0000 0.0000 0.0000
# 4 0.0000 0.0000 0.0000 164.3946 0.0000 0.0000
# 5 0.0000 0.0000 0.0000 0.0000 28.7356 0.0000
# 6 0.0000 0.0000 0.0000 0.0000 0.0000 23.8837
#
#
#
# Elastic Compliance Matrix: (Units=1/GPa)
#
#
# Indices 1 2 3 4 5 6 
#
# 1 0.014783 0.000561 -0.001431 0.000000 0.000000 0.000000
# 2 0.000561 0.013156 -0.002234 0.000000 0.000000 0.000000
# 3 -0.001431 -0.002234 0.010125 0.000000 0.000000 0.000000
# 4 0.000000 0.000000 0.000000 0.006083 0.000000 0.000000
# 5 0.000000 0.000000 0.000000 0.000000 0.034800 0.000000
# 6 0.000000 0.000000 0.000000 0.000000 0.000000 0.041870
#
#
# Mechanical properties :
#
#
# Convention : Reuss Voigt Hill
#
# Bulk Modulus (GPa) = 31.39192 33.57103 32.48147
# Shear Modulus (GPa) = 36.32578 58.48167 47.40372
#
# Velocity S-wave (km/s) = 4.04681 5.13470 4.62287
# Velocity P-wave (km/s) = 5.99899 7.09142 6.56796
#
# Compressibility (1/GPa) = 0.03185533
#
# Stress axis : x y z
#
# Youngs Moduli (GPa) = 67.64546 76.00911 98.76983
#
# Poissons Ratio (x) = -0.04262 0.14139
# Poissons Ratio (y) = -0.03793 0.22061
# Poissons Ratio (z) = 0.09683 0.16977
#
# Static dielectric constant tensor:
#      x y z
#    x 1.790190 0.000000 0.000000 
#    y 0.000000 1.862000 0.000000 
#    z 0.000000 0.000000 1.750050 
# 
# From -- ./inp_files/56758.got.cif
#   From: 2010.05.17/outbox.cif.g08.bks.cpg/sg66_29_cif.got.tgz:56758.got - 2010.06.03 17:51:23.
