data_PCOD9499199
_publ_section_title
;
Structure prediction by ZEFSAII (Michael W. Deem and Ramdas Pophale) SiO2 
 PCOD9499199
Probable space group: C C C M
;
_chemical_formula_sum "Si O2"
_cell_formula_units_Z 60
_cell_length_a 27.718482
_cell_length_b 11.006221
_cell_length_c 9.117199
_cell_angle_alpha 90.000000
_cell_angle_beta 90.000000
_cell_angle_gamma 90.000000
_cell_volume 2781.436220
_symmetry_space_group_name_H-M "C C C M"
_symmetry_group_IT_number 66
_symmetry_cell_setting 'orthorhombic'
loop_
_space_group_symop_operation_xyz
x,y,z
-x,-y,z
x,-y,1/2-z
-x,y,1/2-z
-x,-y,-z
x,y,-z
-x,y,1/2+z
x,-y,1/2+z
1/2+x,1/2+y,z
1/2-x,1/2-y,z
1/2+x,1/2-y,1/2-z
1/2-x,1/2+y,1/2-z
1/2-x,1/2-y,-z
1/2+x,1/2+y,-z
1/2-x,1/2+y,1/2+z
1/2+x,1/2-y,1/2+z
loop_
_atom_site_type_symbol
_atom_site_label
_atom_site_fract_x
_atom_site_fract_y
_atom_site_fract_z
Si Si1 0.239188 0.107763 0.500000
Si Si2 0.000000 0.000000 0.750000
Si Si3 0.960513 0.393384 0.000000
Si Si4 0.395194 0.000000 0.250000
Si Si5 0.639787 0.329220 0.500000
Si Si6 0.674150 0.500000 0.750000
Si Si7 0.034074 0.827300 0.500000
Si Si8 0.174215 0.411611 0.000000
O O1 0.250000 0.250000 0.500000
O O2 0.207780 0.078165 0.643025
O O3 0.283787 0.011991 0.500000
O O4 0.970493 0.087205 0.641901
O O5 0.928161 0.414767 0.854372
O O6 0.000000 0.500000 0.000000
O O7 0.990440 0.268871 0.000000
O O8 0.359261 0.931137 0.358470
O O9 0.644339 0.413103 0.642952
O O10 0.586882 0.268894 0.500000
O O11 0.683587 0.232463 0.500000
#
# Coordination Sequence:
#
# PCOD9499199 Si02
#       8
#     8   4   8   8   8   8   8   8
#     4  11  26  46  74 105 139 174 228 286 372 429
#     4  10  26  42  66 100 132 206 238 288 352 400
#     4  11  24  40  68  99 137 182 225 294 354 397
#     4  10  24  44  64 110 136 174 236 286 365 405
#     4  11  25  45  70 101 139 186 240 289 353 410
#     4  10  26  46  70 100 138 184 228 302 343 425
#     4  11  24  45  69  95 146 185 248 290 339 427
#     4  11  25  43  75 102 136 181 226 294 351 438
#
# _framework density 21.571587999999998
#
# number of rings (size 3 to 8) (size 9 to 14) (size 15 to 20)
#    0.000    1.333    0.000    3.600   14.933    1.067 
#    0.000    0.000    0.000    0.000    0.000    0.000 
#    0.000    0.000    0.000    0.000    0.000    0.000 
#
# Total GULP energy -167688.395405 kJ/mol
# GULP energy per Si atom -5589.613180 kJ/mol
# Density = 2.152249 g / cm^3
# Si number density = 21.571588 Si / 1000 Ang^3
#
#
#
# Elastic Constant Matrix: (Units=GPa)
#
#
# Indices 1 2 3 4 5 6 
#
# 1 93.7366 22.5575 39.8930 0.0000 0.0000 0.0000
# 2 22.5575 88.6794 31.3631 0.0000 0.0000 0.0000
# 3 39.8930 31.3631 160.4750 0.0000 0.0000 0.0000
# 4 0.0000 0.0000 0.0000 3.3942 0.0000 0.0000
# 5 0.0000 0.0000 0.0000 0.0000 -60.4106 0.0000
# 6 0.0000 0.0000 0.0000 0.0000 0.0000 29.7734
#
#
#
# Elastic Compliance Matrix: (Units=1/GPa)
#
#
# Indices 1 2 3 4 5 6 
#
# 1 0.012318 -0.002203 -0.002632 0.000000 0.000000 0.000000
# 2 -0.002203 0.012508 -0.001897 0.000000 0.000000 0.000000
# 3 -0.002632 -0.001897 0.007256 0.000000 0.000000 0.000000
# 4 0.000000 0.000000 0.000000 0.294623 0.000000 0.000000
# 5 0.000000 0.000000 0.000000 0.000000 -0.016553 0.000000
# 6 0.000000 0.000000 0.000000 0.000000 0.000000 0.033587
#
#
# Mechanical properties :
#
#
# Convention : Reuss Voigt Hill
#
# Bulk Modulus (GPa) = 53.70624 58.94649 56.32636
# Shear Modulus (GPa) = 13.75861 11.15654 12.45758
#
# Velocity S-wave (km/s) = 2.52823 2.27664 2.40573
# Velocity P-wave (km/s) = 5.78562 5.85629 5.82106
#
# Compressibility (1/GPa) = 0.01861981
#
# Stress axis : x y z
#
# Youngs Moduli (GPa) = 81.18004 79.95042 137.80801
#
# Poissons Ratio (x) = 0.17610 0.36268
# Poissons Ratio (y) = 0.17881 0.26141
# Poissons Ratio (z) = 0.21365 0.15166
#
# Static dielectric constant tensor:
#      x y z
#    x 1.784770 0.000000 0.000000 
#    y 0.000000 1.868320 0.000000 
#    z 0.000000 0.000000 1.813850 
# 
# From -- ./inp_files/3810.got.cif
#   From: 2010.05.17/outbox.cif.g08.bks.cpg/sg66_2_cif.got.tgz:3810.got - 2010.06.03 17:51:23.
