data_PCOD9499080
_publ_section_title
;
Structure prediction by ZEFSAII (Michael W. Deem and Ramdas Pophale) SiO2 
 PCOD9499080
Probable space group: C C C M
;
_chemical_formula_sum "Si O2"
_cell_formula_units_Z 52
_cell_length_a 20.132867
_cell_length_b 12.591701
_cell_length_c 9.046129
_cell_angle_alpha 90.000000
_cell_angle_beta 90.000000
_cell_angle_gamma 90.000000
_cell_volume 2293.257400
_symmetry_space_group_name_H-M "C C C M"
_symmetry_group_IT_number 66
_symmetry_cell_setting 'orthorhombic'
loop_
_space_group_symop_operation_xyz
x,y,z
-x,-y,z
x,-y,1/2-z
-x,y,1/2-z
-x,-y,-z
x,y,-z
-x,y,1/2+z
x,-y,1/2+z
1/2+x,1/2+y,z
1/2-x,1/2-y,z
1/2+x,1/2-y,1/2-z
1/2-x,1/2+y,1/2-z
1/2-x,1/2-y,-z
1/2+x,1/2+y,-z
1/2-x,1/2+y,1/2+z
1/2+x,1/2-y,1/2+z
loop_
_atom_site_type_symbol
_atom_site_label
_atom_site_fract_x
_atom_site_fract_y
_atom_site_fract_z
Si Si1 0.614777 0.107091 0.175293
Si Si2 0.752932 0.875454 0.834278
Si Si3 0.395878 0.671807 0.330907
Si Si4 0.500000 0.500000 0.250000
O O1 0.692816 0.103728 0.222946
O O2 0.589833 0.220892 0.238566
O O3 0.585598 0.000000 0.250000
O O4 0.606603 0.103543 0.000000
O O5 0.750000 0.750000 0.852832
O O6 0.828070 0.885563 0.776857
O O7 0.744382 0.923039 0.000000
O O8 0.383962 0.706882 0.500000
O O9 0.452226 0.582875 0.332093
#
# Coordination Sequence:
#
# PCOD9499080 Si02
#       4
#    16  16  16   4
#     4  11  22  38  65  99 132 168 214 272 338 397
#     4   8  16  34  59  90 128 168 208 262 325 384
#     4  10  23  43  64  92 132 175 222 272 322 384
#     4  12  26  44  70  98 126 180 228 270 318 392
#
# _framework density 22.675170999999999
#
# number of rings (size 3 to 8) (size 9 to 14) (size 15 to 20)
#    0.000    2.154    0.000    5.077    2.154    8.000 
#    0.000    0.769    0.000    3.692    0.000    0.000 
#    0.000    0.000    0.000    0.000    0.000    0.000 
#
# Total GULP energy -144896.353825 kJ/mol
# GULP energy per Si atom -5572.936686 kJ/mol
# Density = 2.262356 g / cm^3
# Si number density = 22.675171 Si / 1000 Ang^3
#
#
#
# Elastic Constant Matrix: (Units=GPa)
#
#
# Indices 1 2 3 4 5 6 
#
# 1 84.9073 32.3046 10.8289 0.0000 0.0000 0.0000
# 2 32.3046 194.6397 84.3501 0.0000 0.0000 0.0000
# 3 10.8289 84.3501 125.8028 0.0000 0.0000 0.0000
# 4 0.0000 0.0000 0.0000 27.5929 0.0000 0.0000
# 5 0.0000 0.0000 0.0000 0.0000 -0.5606 0.0000
# 6 0.0000 0.0000 0.0000 0.0000 0.0000 19.7597
#
#
#
# Elastic Compliance Matrix: (Units=1/GPa)
#
#
# Indices 1 2 3 4 5 6 
#
# 1 0.012589 -0.002283 0.000447 0.000000 0.000000 0.000000
# 2 -0.002283 0.007656 -0.004937 0.000000 0.000000 0.000000
# 3 0.000447 -0.004937 0.011221 0.000000 0.000000 0.000000
# 4 0.000000 0.000000 0.000000 0.036241 0.000000 0.000000
# 5 0.000000 0.000000 0.000000 0.000000 -1.783708 0.000000
# 6 0.000000 0.000000 0.000000 0.000000 0.000000 0.050608
#
#
# Mechanical properties :
#
#
# Convention : Reuss Voigt Hill
#
# Bulk Modulus (GPa) = 55.80294 73.36856 64.58575
# Shear Modulus (GPa) = -3.03790 27.88282 12.42246
#
# Velocity S-wave (km/s) = -1.15873 3.51046 2.34315
# Velocity P-wave (km/s) = 4.78257 6.98983 5.98877
#
# Compressibility (1/GPa) = 0.01792020
#
# Stress axis : x y z
#
# Youngs Moduli (GPa) = 79.43302 130.61451 89.12200
#
# Poissons Ratio (x) = 0.29823 -0.03986
# Poissons Ratio (y) = 0.18137 0.43998
# Poissons Ratio (z) = -0.03553 0.64482
#
# Static dielectric constant tensor:
#      x y z
#    x 1.936420 0.000000 0.000000 
#    y 0.000000 1.884140 0.000000 
#    z 0.000000 0.000000 1.876600 
# 
# From -- ./inp_files/8626.got.cif
#   From: 2010.05.17/outbox.cif.g08.bks.cpg/sg66_5_cif.got.tgz:8626.got - 2010.06.03 17:51:23.
