data_PCOD9499150
_publ_section_title
;
Structure prediction by ZEFSAII (Michael W. Deem and Ramdas Pophale) SiO2 
 PCOD9499150
Probable space group: C C C M
;
_chemical_formula_sum "Si O2"
_cell_formula_units_Z 88
_cell_length_a 21.829579
_cell_length_b 19.803509
_cell_length_c 10.080312
_cell_angle_alpha 90.000000
_cell_angle_beta 90.000000
_cell_angle_gamma 90.000000
_cell_volume 4357.741701
_symmetry_space_group_name_H-M "C C C M"
_symmetry_group_IT_number 66
_symmetry_cell_setting 'orthorhombic'
loop_
_space_group_symop_operation_xyz
x,y,z
-x,-y,z
x,-y,1/2-z
-x,y,1/2-z
-x,-y,-z
x,y,-z
-x,y,1/2+z
x,-y,1/2+z
1/2+x,1/2+y,z
1/2-x,1/2-y,z
1/2+x,1/2-y,1/2-z
1/2-x,1/2+y,1/2-z
1/2-x,1/2-y,-z
1/2+x,1/2+y,-z
1/2-x,1/2+y,1/2+z
1/2+x,1/2-y,1/2+z
loop_
_atom_site_type_symbol
_atom_site_label
_atom_site_fract_x
_atom_site_fract_y
_atom_site_fract_z
Si Si1 0.394053 0.061366 0.351821
Si Si2 0.904054 0.858292 0.000000
Si Si3 0.631952 0.579118 0.277730
Si Si4 0.531520 0.424842 0.000000
Si Si5 0.000000 0.342858 0.250000
Si Si6 0.236674 0.417286 0.736264
Si Si7 0.219232 0.328335 0.000000
Si Si8 0.921158 0.705029 0.000000
O O1 0.398187 0.033890 0.500000
O O2 0.449177 0.111705 0.322640
O O3 0.327980 0.096777 0.333444
O O4 0.398583 0.000000 0.250000
O O5 0.877519 0.888104 0.134794
O O6 0.895952 0.779906 0.000000
O O7 0.975683 0.874388 0.000000
O O8 0.633854 0.500000 0.250000
O O9 0.574842 0.588082 0.374330
O O10 0.698632 0.598978 0.333328
O O11 0.500000 0.500000 0.000000
O O12 0.962386 0.306008 0.368096
O O13 0.236025 0.500000 0.750000
O O14 0.237884 0.372975 0.871206
O O15 0.250000 0.250000 0.000000
O O16 0.144193 0.333566 0.000000
#
# Coordination Sequence:
#
# PCOD9499150 Si02
#       8
#    16   8  16   8   8  16   8   8
#     4  11  25  42  71 104 144 180 232 291 357 419
#     4  12  26  44  67  94 136 183 237 290 357 432
#     4  11  22  41  64  96 132 174 223 292 359 421
#     4  12  24  39  65  95 135 174 225 290 362 429
#     4  12  25  46  68  98 135 186 234 290 354 408
#     4  10  24  39  70 104 143 179 242 298 361 419
#     4  12  24  49  75 106 141 196 247 297 361 455
#     4  12  28  46  68  96 142 189 242 288 348 443
#
# _framework density 20.193944999999999
#
# number of rings (size 3 to 8) (size 9 to 14) (size 15 to 20)
#    0.000    0.727    4.545    2.455   10.182    2.182 
#    0.000    0.000    0.000    0.545    0.000    0.000 
#    0.000    0.000    0.000    0.000    0.000    0.000 
#
# Total GULP energy -245418.320369 kJ/mol
# GULP energy per Si atom -5577.689099 kJ/mol
# Density = 2.014798 g / cm^3
# Si number density = 20.193945 Si / 1000 Ang^3
#
#
#
# Elastic Constant Matrix: (Units=GPa)
#
#
# Indices 1 2 3 4 5 6 
#
# 1 159.6315 15.0645 38.1416 0.0000 0.0000 0.0000
# 2 15.0645 71.5873 46.1162 0.0000 0.0000 0.0000
# 3 38.1416 46.1162 147.8680 0.0000 0.0000 0.0000
# 4 0.0000 0.0000 0.0000 71.5522 0.0000 0.0000
# 5 0.0000 0.0000 0.0000 0.0000 -37.1452 0.0000
# 6 0.0000 0.0000 0.0000 0.0000 0.0000 25.9664
#
#
#
# Elastic Compliance Matrix: (Units=1/GPa)
#
#
# Indices 1 2 3 4 5 6 
#
# 1 0.006684 -0.000370 -0.001609 0.000000 0.000000 0.000000
# 2 -0.000370 0.017502 -0.005363 0.000000 0.000000 0.000000
# 3 -0.001609 -0.005363 0.008850 0.000000 0.000000 0.000000
# 4 0.000000 0.000000 0.000000 0.013976 0.000000 0.000000
# 5 0.000000 0.000000 0.000000 0.000000 -0.026921 0.000000
# 6 0.000000 0.000000 0.000000 0.000000 0.000000 0.038511
#
#
# Mechanical properties :
#
#
# Convention : Reuss Voigt Hill
#
# Bulk Modulus (GPa) = 54.48911 64.19238 59.34075
# Shear Modulus (GPa) = 62.97080 30.72562 46.84821
#
# Velocity S-wave (km/s) = 5.59023 3.90491 4.82177
# Velocity P-wave (km/s) = 8.28909 7.22413 7.77487
#
# Compressibility (1/GPa) = 0.01835229
#
# Stress axis : x y z
#
# Youngs Moduli (GPa) = 149.61751 57.13783 112.99169
#
# Poissons Ratio (x) = 0.02116 0.18175
# Poissons Ratio (y) = 0.05540 0.60595
# Poissons Ratio (z) = 0.24067 0.30642
#
# Static dielectric constant tensor:
#      x y z
#    x 1.800720 0.000000 0.000000 
#    y 0.000000 1.805050 0.000000 
#    z 0.000000 0.000000 1.689140 
# 
# From -- ./inp_files/9025.got.cif
#   From: 2010.05.17/outbox.cif.g08.bks.cpg/sg66_5_cif.got.tgz:9025.got - 2010.06.03 17:51:23.
