data_PCOD9499242
_publ_section_title
;
Structure prediction by ZEFSAII (Michael W. Deem and Ramdas Pophale) SiO2 
 PCOD9499242
Probable space group: C C C M
;
_chemical_formula_sum "Si O2"
_cell_formula_units_Z 40
_cell_length_a 6.554954
_cell_length_b 17.663659
_cell_length_c 16.405321
_cell_angle_alpha 90.000000
_cell_angle_beta 90.000000
_cell_angle_gamma 90.000000
_cell_volume 1899.481434
_symmetry_space_group_name_H-M "C C C M"
_symmetry_group_IT_number 66
_symmetry_cell_setting 'orthorhombic'
loop_
_space_group_symop_operation_xyz
x,y,z
-x,-y,z
x,-y,1/2-z
-x,y,1/2-z
-x,-y,-z
x,y,-z
-x,y,1/2+z
x,-y,1/2+z
1/2+x,1/2+y,z
1/2-x,1/2-y,z
1/2+x,1/2-y,1/2-z
1/2-x,1/2+y,1/2-z
1/2-x,1/2-y,-z
1/2+x,1/2+y,-z
1/2-x,1/2+y,1/2+z
1/2+x,1/2-y,1/2+z
loop_
_atom_site_type_symbol
_atom_site_label
_atom_site_fract_x
_atom_site_fract_y
_atom_site_fract_z
Si Si1 0.000000 0.871111 0.250000
Si Si2 0.500000 0.500000 0.369649
Si Si3 0.019833 0.277659 0.000000
Si Si4 0.750000 0.750000 0.653891
Si Si5 0.317895 0.057509 0.500000
O O1 0.086844 0.930621 0.316407
O O2 0.179255 0.818730 0.212517
O O3 0.672334 0.539849 0.423848
O O4 0.250000 0.250000 0.000000
O O5 0.933211 0.250517 0.087563
O O6 0.929459 0.362381 0.000000
O O7 0.500000 0.000000 0.500000
#
# Coordination Sequence:
#
# PCOD9499242 Si02
#       5
#     8   8   8   8   8
#     4  11  24  46  70 101 146 186 238 319 364 436
#     4  10  24  48  68 102 148 182 242 312 372 446
#     4  11  26  46  67 103 145 194 247 299 365 468
#     4  11  26  44  72 101 140 192 246 305 384 432
#     4  11  24  42  75 100 136 197 241 291 375 458
#
# _framework density 21.058378000000001
#
# number of rings (size 3 to 8) (size 9 to 14) (size 15 to 20)
#    0.000    1.200    4.000    0.000    8.400    0.000 
#    0.000    2.000    0.000    0.000    0.000    0.000 
#    0.000    0.000    0.000    0.000    0.000    0.000 
#
# Total GULP energy -111368.889741 kJ/mol
# GULP energy per Si atom -5568.444487 kJ/mol
# Density = 2.101045 g / cm^3
# Si number density = 21.058378 Si / 1000 Ang^3
#
#
#
# Elastic Constant Matrix: (Units=GPa)
#
#
# Indices 1 2 3 4 5 6 
#
# 1 148.2610 61.3535 64.2405 0.0000 0.0000 0.0000
# 2 61.3535 153.2047 85.5261 0.0000 0.0000 0.0000
# 3 64.2405 85.5261 138.9445 0.0000 0.0000 0.0000
# 4 0.0000 0.0000 0.0000 50.9904 0.0000 0.0000
# 5 0.0000 0.0000 0.0000 0.0000 -28.4708 0.0000
# 6 0.0000 0.0000 0.0000 0.0000 0.0000 44.9964
#
#
#
# Elastic Compliance Matrix: (Units=1/GPa)
#
#
# Indices 1 2 3 4 5 6 
#
# 1 0.008785 -0.001905 -0.002889 0.000000 0.000000 0.000000
# 2 -0.001905 0.010358 -0.005495 0.000000 0.000000 0.000000
# 3 -0.002889 -0.005495 0.011915 0.000000 0.000000 0.000000
# 4 0.000000 0.000000 0.000000 0.019612 0.000000 0.000000
# 5 0.000000 0.000000 0.000000 0.000000 -0.035124 0.000000
# 6 0.000000 0.000000 0.000000 0.000000 0.000000 0.022224
#
#
# Mechanical properties :
#
#
# Convention : Reuss Voigt Hill
#
# Bulk Modulus (GPa) = 95.42115 95.85002 95.63559
# Shear Modulus (GPa) = 80.85321 28.78922 54.82122
#
# Velocity S-wave (km/s) = 6.20308 3.70146 5.10779
# Velocity P-wave (km/s) = 9.83439 7.99268 8.96098
#
# Compressibility (1/GPa) = 0.01047986
#
# Stress axis : x y z
#
# Youngs Moduli (GPa) = 113.82899 96.54744 83.92843
#
# Poissons Ratio (x) = 0.18396 0.24246
# Poissons Ratio (y) = 0.21689 0.46115
# Poissons Ratio (z) = 0.32884 0.53049
#
# Static dielectric constant tensor:
#      x y z
#    x 1.718060 0.000000 0.000000 
#    y 0.000000 1.636160 0.000000 
#    z 0.000000 0.000000 1.823260 
# 
# From -- ./inp_files/34432.got.cif
#   From: 2010.05.17/outbox.cif.g08.bks.cpg/sg66_18_cif.got.tgz:34432.got - 2010.06.03 17:51:23.
