data_PCOD9499675
_publ_section_title
;
Structure prediction by ZEFSAII (Michael W. Deem and Ramdas Pophale) SiO2 
 PCOD9499675
Probable space group: C C C M
;
_chemical_formula_sum "Si O2"
_cell_formula_units_Z 52
_cell_length_a 7.866160
_cell_length_b 17.085003
_cell_length_c 16.828913
_cell_angle_alpha 90.000000
_cell_angle_beta 90.000000
_cell_angle_gamma 90.000000
_cell_volume 2261.694284
_symmetry_space_group_name_H-M "C C C M"
_symmetry_group_IT_number 66
_symmetry_cell_setting 'orthorhombic'
loop_
_space_group_symop_operation_xyz
x,y,z
-x,-y,z
x,-y,1/2-z
-x,y,1/2-z
-x,-y,-z
x,y,-z
-x,y,1/2+z
x,-y,1/2+z
1/2+x,1/2+y,z
1/2-x,1/2-y,z
1/2+x,1/2-y,1/2-z
1/2-x,1/2+y,1/2-z
1/2-x,1/2-y,-z
1/2+x,1/2+y,-z
1/2-x,1/2+y,1/2+z
1/2+x,1/2-y,1/2+z
loop_
_atom_site_type_symbol
_atom_site_label
_atom_site_fract_x
_atom_site_fract_y
_atom_site_fract_z
Si Si1 0.250000 0.250000 0.500000
Si Si2 0.853286 0.616738 0.629259
Si Si3 0.824047 0.172104 0.711786
Si Si4 0.235762 0.442173 0.907569
O O1 0.197797 0.314737 0.569427
O O2 0.798107 0.641230 0.717945
O O3 0.764097 0.534263 0.608130
O O4 0.052035 0.594309 0.617416
O O5 0.750000 0.250000 0.671905
O O6 0.861482 0.104697 0.648702
O O7 0.000000 0.196505 0.750000
O O8 0.264260 0.427303 0.000000
#
# Coordination Sequence:
#
# PCOD9499675 Si02
#       4
#     4  16  16  16
#     4  12  20  38  76 108 136 176 234 288 328 406
#     4  11  22  43  73 102 138 181 227 282 345 409
#     4  12  27  45  68  98 137 182 231 285 347 407
#     4  11  23  45  69 103 138 181 231 278 345 417
#
# _framework density 22.991610999999999
#
# number of rings (size 3 to 8) (size 9 to 14) (size 15 to 20)
#    0.000    0.615    4.615    4.615    0.000    5.538 
#    2.769    1.538    0.000    0.000    0.000    0.000 
#    0.000    0.000    0.000    0.000    0.000    0.000 
#
# Total GULP energy -145076.369316 kJ/mol
# GULP energy per Si atom -5579.860358 kJ/mol
# Density = 2.293928 g / cm^3
# Si number density = 22.991611 Si / 1000 Ang^3
#
#
#
# Elastic Constant Matrix: (Units=GPa)
#
#
# Indices 1 2 3 4 5 6 
#
# 1 37.6185 30.6192 -7.0060 0.0000 0.0000 0.0000
# 2 30.6192 165.6303 41.0610 0.0000 0.0000 0.0000
# 3 -7.0060 41.0610 130.0651 0.0000 0.0000 0.0000
# 4 0.0000 0.0000 0.0000 42.7315 0.0000 0.0000
# 5 0.0000 0.0000 0.0000 0.0000 -4.2915 0.0000
# 6 0.0000 0.0000 0.0000 0.0000 0.0000 36.4523
#
#
#
# Elastic Compliance Matrix: (Units=1/GPa)
#
#
# Indices 1 2 3 4 5 6 
#
# 1 0.033134 -0.007125 0.004034 0.000000 0.000000 0.000000
# 2 -0.007125 0.008082 -0.002935 0.000000 0.000000 0.000000
# 3 0.004034 -0.002935 0.008832 0.000000 0.000000 0.000000
# 4 0.000000 0.000000 0.000000 0.023402 0.000000 0.000000
# 5 0.000000 0.000000 0.000000 0.000000 -0.233020 0.000000
# 6 0.000000 0.000000 0.000000 0.000000 0.000000 0.027433
#
#
# Mechanical properties :
#
#
# Convention : Reuss Voigt Hill
#
# Bulk Modulus (GPa) = 26.31893 51.40691 38.86292
# Shear Modulus (GPa) = -46.54720 32.88777 -6.82972
#
# Velocity S-wave (km/s) = -4.50436 3.78620 -1.72539
# Velocity P-wave (km/s) = 3.94719 6.44370 3.60146
#
# Compressibility (1/GPa) = 0.03799546
#
# Stress axis : x y z
#
# Youngs Moduli (GPa) = 30.18082 123.72439 113.21868
#
# Poissons Ratio (x) = 0.88158 -0.45675
# Poissons Ratio (y) = 0.21505 0.33234
# Poissons Ratio (z) = -0.12176 0.36318
#
# Static dielectric constant tensor:
#      x y z
#    x 1.967570 0.000000 0.000000 
#    y 0.000000 1.823570 0.000000 
#    z 0.000000 0.000000 1.822470 
# 
# From -- ./inp_files/35938.got.cif
#   From: 2010.05.17/outbox.cif.g08.bks.cpg/sg66_18_cif.got.tgz:35938.got - 2010.06.03 17:51:23.
