data_PCOD9499659
_publ_section_title
;
Structure prediction by ZEFSAII (Michael W. Deem and Ramdas Pophale) SiO2 
 PCOD9499659
Probable space group: C C C M
;
_chemical_formula_sum "Si O2"
_cell_formula_units_Z 36
_cell_length_a 7.729579
_cell_length_b 24.782259
_cell_length_c 7.753437
_cell_angle_alpha 90.000000
_cell_angle_beta 90.000000
_cell_angle_gamma 90.000000
_cell_volume 1485.220702
_symmetry_space_group_name_H-M "C C C M"
_symmetry_group_IT_number 66
_symmetry_cell_setting 'orthorhombic'
loop_
_space_group_symop_operation_xyz
x,y,z
-x,-y,z
x,-y,1/2-z
-x,y,1/2-z
-x,-y,-z
x,y,-z
-x,y,1/2+z
x,-y,1/2+z
1/2+x,1/2+y,z
1/2-x,1/2-y,z
1/2+x,1/2-y,1/2-z
1/2-x,1/2+y,1/2-z
1/2-x,1/2-y,-z
1/2+x,1/2+y,-z
1/2-x,1/2+y,1/2+z
1/2+x,1/2-y,1/2+z
loop_
_atom_site_type_symbol
_atom_site_label
_atom_site_fract_x
_atom_site_fract_y
_atom_site_fract_z
Si Si1 0.250000 0.750000 0.500000
Si Si2 0.203157 0.940797 0.702712
Si Si3 0.302626 0.175545 0.303222
O O1 0.198800 0.794102 0.346252
O O2 0.223381 0.933201 0.500000
O O3 0.282675 0.888866 0.792955
O O4 0.000000 0.940958 0.750000
O O5 0.272784 0.000000 0.750000
O O6 0.500000 0.188371 0.250000
O O7 0.268781 0.191791 0.500000
#
# Coordination Sequence:
#
# PCOD9499659 Si02
#       3
#     4  16  16
#     4  12  26  48  68 100 140 178 234 278 344 400
#     4  11  22  42  68 104 140 179 226 280 344 407
#     4  12  25  48  71 101 138 179 232 283 339 407
#
# _framework density 24.238823
#
# number of rings (size 3 to 8) (size 9 to 14) (size 15 to 20)
#    0.000    0.444    4.444    6.000    0.000    2.667 
#    8.000    4.444    0.000    0.000    0.000    0.000 
#    0.000    0.000    0.000    0.000    0.000    0.000 
#
# Total GULP energy -100273.464808 kJ/mol
# GULP energy per Si atom -5570.748045 kJ/mol
# Density = 2.418365 g / cm^3
# Si number density = 24.238823 Si / 1000 Ang^3
#
#
#
# Elastic Constant Matrix: (Units=GPa)
#
#
# Indices 1 2 3 4 5 6 
#
# 1 44.6752 13.7361 11.9907 0.0000 0.0000 0.0000
# 2 13.7361 214.9319 78.3381 0.0000 0.0000 0.0000
# 3 11.9907 78.3381 304.8368 0.0000 0.0000 0.0000
# 4 0.0000 0.0000 0.0000 27.0938 0.0000 0.0000
# 5 0.0000 0.0000 0.0000 0.0000 14.7071 0.0000
# 6 0.0000 0.0000 0.0000 0.0000 0.0000 -308.5300
#
#
#
# Elastic Compliance Matrix: (Units=1/GPa)
#
#
# Indices 1 2 3 4 5 6 
#
# 1 0.022925 -0.001254 -0.000580 0.000000 0.000000 0.000000
# 2 -0.001254 0.005202 -0.001288 0.000000 0.000000 0.000000
# 3 -0.000580 -0.001288 0.003634 0.000000 0.000000 0.000000
# 4 0.000000 0.000000 0.000000 0.036909 0.000000 0.000000
# 5 0.000000 0.000000 0.000000 0.000000 0.067994 0.000000
# 6 0.000000 0.000000 0.000000 0.000000 0.000000 -0.003241
#
#
# Mechanical properties :
#
#
# Convention : Reuss Voigt Hill
#
# Bulk Modulus (GPa) = 39.18624 85.84152 62.51388
# Shear Modulus (GPa) = 33.74476 -22.65389 5.54544
#
# Velocity S-wave (km/s) = 3.73524 -3.06046 1.51420
# Velocity P-wave (km/s) = 5.89953 4.79617 5.37623
#
# Compressibility (1/GPa) = 0.02551916
#
# Stress axis : x y z
#
# Youngs Moduli (GPa) = 43.62080 192.23208 275.17043
#
# Poissons Ratio (x) = 0.24104 0.15947
# Poissons Ratio (y) = 0.05470 0.35429
# Poissons Ratio (z) = 0.02528 0.24750
#
# Static dielectric constant tensor:
#      x y z
#    x 2.049580 0.000000 0.000000 
#    y 0.000000 1.977760 0.000000 
#    z 0.000000 0.000000 1.868570 
# 
# From -- ./inp_files/2338.got.cif
#   From: 2010.05.17/outbox.cif.g08.bks.cpg/sg66_2_cif.got.tgz:2338.got - 2010.06.03 17:51:23.
