data_PCOD9499151
_publ_section_title
;
Structure prediction by ZEFSAII (Michael W. Deem and Ramdas Pophale) SiO2 
 PCOD9499151
Probable space group: C C C M
;
_chemical_formula_sum "Si O2"
_cell_formula_units_Z 88
_cell_length_a 27.472907
_cell_length_b 6.378306
_cell_length_c 24.548327
_cell_angle_alpha 90.000000
_cell_angle_beta 90.000000
_cell_angle_gamma 90.000000
_cell_volume 4301.618255
_symmetry_space_group_name_H-M "C C C M"
_symmetry_group_IT_number 66
_symmetry_cell_setting 'orthorhombic'
loop_
_space_group_symop_operation_xyz
x,y,z
-x,-y,z
x,-y,1/2-z
-x,y,1/2-z
-x,-y,-z
x,y,-z
-x,y,1/2+z
x,-y,1/2+z
1/2+x,1/2+y,z
1/2-x,1/2-y,z
1/2+x,1/2-y,1/2-z
1/2-x,1/2+y,1/2-z
1/2-x,1/2-y,-z
1/2+x,1/2+y,-z
1/2-x,1/2+y,1/2+z
1/2+x,1/2-y,1/2+z
loop_
_atom_site_type_symbol
_atom_site_label
_atom_site_fract_x
_atom_site_fract_y
_atom_site_fract_z
Si Si1 0.905067 0.786434 0.117672
Si Si2 0.750000 0.250000 0.648347
Si Si3 0.619876 0.117860 0.500000
Si Si4 0.159908 0.501451 0.687502
Si Si5 0.679439 0.604591 0.383490
Si Si6 0.536953 0.801943 0.500000
Si Si7 0.306873 0.199511 0.500000
Si Si8 0.000000 0.000000 0.093341
O O1 0.884670 0.587489 0.150739
O O2 0.959917 0.865169 0.125447
O O3 0.868202 0.972427 0.130952
O O4 0.896241 0.737905 0.053846
O O5 0.794615 0.340048 0.682678
O O6 0.725384 0.444524 0.616201
O O7 0.589845 0.901714 0.500000
O O8 0.675897 0.044155 0.500000
O O9 0.144780 0.500000 0.750000
O O10 0.180497 0.287718 0.661278
O O11 0.674686 0.702470 0.443385
O O12 0.527538 0.661007 0.447073
O O13 0.500000 0.000000 0.500000
O O14 0.250000 0.250000 0.500000
#
# Coordination Sequence:
#
# PCOD9499151 Si02
#       8
#    16   8   8  16  16   8   8   8
#     4  11  24  40  65  97 132 173 216 280 333 404
#     4  10  24  39  70  96 128 171 228 280 324 388
#     4  12  21  41  61  99 134 175 218 268 339 391
#     4  11  25  44  67  95 129 173 229 280 335 383
#     4  11  24  43  62  98 137 174 219 271 332 398
#     4  11  20  36  63  99 134 164 218 274 321 396
#     4  12  23  35  65  89 139 184 208 253 325 417
#     4  11  22  38  64 103 126 170 223 265 340 402
#
# _framework density 20.457417
#
# number of rings (size 3 to 8) (size 9 to 14) (size 15 to 20)
#    0.000    0.909    3.636    3.818    5.091    2.545 
#    0.000    0.000    0.000    3.273    0.000    0.000 
#    0.000    0.000    0.000    0.000    0.000    0.000 
#
# Total GULP energy -245829.565968 kJ/mol
# GULP energy per Si atom -5587.035590 kJ/mol
# Density = 2.041086 g / cm^3
# Si number density = 20.457417 Si / 1000 Ang^3
#
#
#
# Elastic Constant Matrix: (Units=GPa)
#
#
# Indices 1 2 3 4 5 6 
#
# 1 107.0505 28.1864 10.9033 0.0000 0.0000 0.0000
# 2 28.1864 91.5840 34.3125 0.0000 0.0000 0.0000
# 3 10.9033 34.3125 105.8326 0.0000 0.0000 0.0000
# 4 0.0000 0.0000 0.0000 -1.0157 0.0000 0.0000
# 5 0.0000 0.0000 0.0000 0.0000 5.3988 0.0000
# 6 0.0000 0.0000 0.0000 0.0000 0.0000 51.1462
#
#
#
# Elastic Compliance Matrix: (Units=1/GPa)
#
#
# Indices 1 2 3 4 5 6 
#
# 1 0.010165 -0.003114 -0.000038 0.000000 0.000000 0.000000
# 2 -0.003114 0.013383 -0.004018 0.000000 0.000000 0.000000
# 3 -0.000038 -0.004018 0.010755 0.000000 0.000000 0.000000
# 4 0.000000 0.000000 0.000000 -0.984558 0.000000 0.000000
# 5 0.000000 0.000000 0.000000 0.000000 0.185226 0.000000
# 6 0.000000 0.000000 0.000000 0.000000 0.000000 0.019552
#
#
# Mechanical properties :
#
#
# Convention : Reuss Voigt Hill
#
# Bulk Modulus (GPa) = 50.09140 50.14128 50.11634
# Shear Modulus (GPa) = -6.90148 26.51019 9.80436
#
# Velocity S-wave (km/s) = -1.83872 3.60373 2.19157
# Velocity P-wave (km/s) = 4.47560 6.47141 5.56372
#
# Compressibility (1/GPa) = 0.01996351
#
# Stress axis : x y z
#
# Youngs Moduli (GPa) = 98.37444 74.72255 92.97597
#
# Poissons Ratio (x) = 0.23272 0.00349
# Poissons Ratio (y) = 0.30638 0.37358
# Poissons Ratio (z) = 0.00369 0.30024
#
# Static dielectric constant tensor:
#      x y z
#    x 1.771690 0.000000 0.000000 
#    y 0.000000 1.768400 0.000000 
#    z 0.000000 0.000000 1.697790 
# 
# From -- ./inp_files/60461.got.cif
#   From: 2010.05.17/outbox.cif.g08.bks.cpg/sg66_31_cif.got.tgz:60461.got - 2010.06.03 17:51:23.
