data_PCOD9499467
_publ_section_title
;
Structure prediction by ZEFSAII (Michael W. Deem and Ramdas Pophale) SiO2 
 PCOD9499467
Probable space group: C C C M
;
_chemical_formula_sum "Si O2"
_cell_formula_units_Z 96
_cell_length_a 28.781059
_cell_length_b 19.344780
_cell_length_c 8.302922
_cell_angle_alpha 90.000000
_cell_angle_beta 90.000000
_cell_angle_gamma 90.000000
_cell_volume 4622.761875
_symmetry_space_group_name_H-M "C C C M"
_symmetry_group_IT_number 66
_symmetry_cell_setting 'orthorhombic'
loop_
_space_group_symop_operation_xyz
x,y,z
-x,-y,z
x,-y,1/2-z
-x,y,1/2-z
-x,-y,-z
x,y,-z
-x,y,1/2+z
x,-y,1/2+z
1/2+x,1/2+y,z
1/2-x,1/2-y,z
1/2+x,1/2-y,1/2-z
1/2-x,1/2+y,1/2-z
1/2-x,1/2-y,-z
1/2+x,1/2+y,-z
1/2-x,1/2+y,1/2+z
1/2+x,1/2-y,1/2+z
loop_
_atom_site_type_symbol
_atom_site_label
_atom_site_fract_x
_atom_site_fract_y
_atom_site_fract_z
Si Si1 0.950474 0.258833 0.692140
Si Si2 0.295101 0.320481 0.684622
Si Si3 0.550070 0.602510 0.688142
Si Si4 0.284975 0.078267 0.809995
Si Si5 0.144074 0.071446 0.816601
Si Si6 0.351736 0.811008 0.808041
O O1 0.952682 0.247012 0.500000
O O2 0.947492 0.185344 0.783223
O O3 0.902424 0.298286 0.732183
O O4 0.000000 0.290686 0.750000
O O5 0.280238 0.312862 0.500000
O O6 0.257237 0.368937 0.770036
O O7 0.340652 0.367437 0.700123
O O8 0.313183 0.246605 0.748809
O O9 0.500000 0.580676 0.750000
O O10 0.557312 0.587004 0.500000
O O11 0.589031 0.570261 0.801491
O O12 0.329830 0.114777 0.731009
O O13 0.277067 0.000000 0.750000
O O14 0.291049 0.075938 0.000000
O O15 0.163717 0.000000 0.750000
O O16 0.158403 0.083936 0.000000
O O17 0.355597 0.801281 0.000000
#
# Coordination Sequence:
#
# PCOD9499467 Si02
#       6
#    16  16  16  16  16  16
#     4  11  21  36  61  93 128 165 208 257 313 370
#     4  11  23  41  64  91 125 164 209 258 311 368
#     4  11  21  36  55  79 111 152 200 253 311 369
#     4  12  26  44  66  93 129 168 212 260 317 378
#     4  12  24  38  56  80 114 157 206 257 311 371
#     4  11  23  41  67  97 130 166 211 261 314 372
#
# _framework density 20.766805999999999
#
# number of rings (size 3 to 8) (size 9 to 14) (size 15 to 20)
#    0.000    0.667    1.667    9.000    0.000    4.333 
#    0.000    1.667    0.000    0.500    0.000    3.500 
#    0.000    0.000    0.000    0.000    0.000    0.000 
#
# Total GULP energy -268320.614467 kJ/mol
# GULP energy per Si atom -5590.012801 kJ/mol
# Density = 2.071954 g / cm^3
# Si number density = 20.766806 Si / 1000 Ang^3
#
#
#
# Elastic Constant Matrix: (Units=GPa)
#
#
# Indices 1 2 3 4 5 6 
#
# 1 103.0635 55.2221 19.0013 0.0000 0.0000 0.0000
# 2 55.2221 92.8358 17.0846 0.0000 0.0000 0.0000
# 3 19.0013 17.0846 110.5695 0.0000 0.0000 0.0000
# 4 0.0000 0.0000 0.0000 17.6154 0.0000 0.0000
# 5 0.0000 0.0000 0.0000 0.0000 38.7563 0.0000
# 6 0.0000 0.0000 0.0000 0.0000 0.0000 -9.6647
#
#
#
# Elastic Compliance Matrix: (Units=1/GPa)
#
#
# Indices 1 2 3 4 5 6 
#
# 1 0.014391 -0.008342 -0.001184 0.000000 0.000000 0.000000
# 2 -0.008342 0.015923 -0.001027 0.000000 0.000000 0.000000
# 3 -0.001184 -0.001027 0.009406 0.000000 0.000000 0.000000
# 4 0.000000 0.000000 0.000000 0.056769 0.000000 0.000000
# 5 0.000000 0.000000 0.000000 0.000000 0.025802 0.000000
# 6 0.000000 0.000000 0.000000 0.000000 0.000000 -0.103470
#
#
# Mechanical properties :
#
#
# Convention : Reuss Voigt Hill
#
# Bulk Modulus (GPa) = 53.72332 54.34278 54.03305
# Shear Modulus (GPa) = 108.38466 23.68546 66.03506
#
# Velocity S-wave (km/s) = 7.23219 3.38086 5.64512
# Velocity P-wave (km/s) = 9.78087 6.43935 8.28042
#
# Compressibility (1/GPa) = 0.01861389
#
# Stress axis : x y z
#
# Youngs Moduli (GPa) = 69.48817 62.80234 106.31281
#
# Poissons Ratio (x) = 0.52392 0.12588
# Poissons Ratio (y) = 0.57969 0.10915
# Poissons Ratio (z) = 0.08228 0.06448
#
# Static dielectric constant tensor:
#      x y z
#    x 1.810590 0.000000 0.000000 
#    y 0.000000 1.752500 0.000000 
#    z 0.000000 0.000000 1.689930 
# 
# From -- ./inp_files/10282.got.cif
#   From: 2010.05.17/outbox.cif.g08.bks.cpg/sg66_6_cif.got.tgz:10282.got - 2010.06.03 17:51:23.
