data_PCOD9499042
_publ_section_title
;
Structure prediction by ZEFSAII (Michael W. Deem and Ramdas Pophale) SiO2 
 PCOD9499042
Probable space group: C C C M
;
_chemical_formula_sum "Si O2"
_cell_formula_units_Z 64
_cell_length_a 7.573919
_cell_length_b 17.432982
_cell_length_c 21.227929
_cell_angle_alpha 90.000000
_cell_angle_beta 90.000000
_cell_angle_gamma 90.000000
_cell_volume 2802.850698
_symmetry_space_group_name_H-M "C C C M"
_symmetry_group_IT_number 66
_symmetry_cell_setting 'orthorhombic'
loop_
_space_group_symop_operation_xyz
x,y,z
-x,-y,z
x,-y,1/2-z
-x,y,1/2-z
-x,-y,-z
x,y,-z
-x,y,1/2+z
x,-y,1/2+z
1/2+x,1/2+y,z
1/2-x,1/2-y,z
1/2+x,1/2-y,1/2-z
1/2-x,1/2+y,1/2-z
1/2-x,1/2-y,-z
1/2+x,1/2+y,-z
1/2-x,1/2+y,1/2+z
1/2+x,1/2-y,1/2+z
loop_
_atom_site_type_symbol
_atom_site_label
_atom_site_fract_x
_atom_site_fract_y
_atom_site_fract_z
Si Si1 0.644237 0.067221 0.931386
Si Si2 0.788594 0.517435 0.818737
Si Si3 0.458759 0.236395 0.429277
Si Si4 0.126788 0.180483 0.809237
O O1 0.537786 0.144986 0.917804
O O2 0.500000 0.000000 0.937232
O O3 0.769601 0.039922 0.874642
O O4 0.732175 0.076797 0.000000
O O5 0.715525 0.500000 0.750000
O O6 0.735990 0.605157 0.828440
O O7 0.000000 0.500000 0.815013
O O8 0.529133 0.252991 0.500000
O O9 0.250000 0.250000 0.430331
O O10 0.538588 0.285341 0.372675
O O11 0.250000 0.250000 0.785764
O O12 0.000000 0.163343 0.750000
#
# Coordination Sequence:
#
# PCOD9499042 Si02
#       4
#    16  16  16  16
#     4   9  18  37  67  95 126 171 218 271 336 401
#     4  10  23  41  66  94 136 182 228 286 348 411
#     4  10  23  45  72 104 142 181 228 289 350 417
#     4  12  27  42  70 104 139 186 237 294 351 417
#
# _framework density 22.833894999999998
#
# number of rings (size 3 to 8) (size 9 to 14) (size 15 to 20)
#    0.000    1.750    0.000    3.750   10.500    2.000 
#    0.000    0.000    0.000    4.500    0.000    0.000 
#    0.000    0.000    0.000    0.000    0.000    0.000 
#
# Total GULP energy -178578.625886 kJ/mol
# GULP energy per Si atom -5580.582059 kJ/mol
# Density = 2.278192 g / cm^3
# Si number density = 22.833895 Si / 1000 Ang^3
#
#
#
# Elastic Constant Matrix: (Units=GPa)
#
#
# Indices 1 2 3 4 5 6 
#
# 1 72.2906 48.4338 38.6675 0.0000 0.0000 0.0000
# 2 48.4338 171.5719 86.1005 0.0000 0.0000 0.0000
# 3 38.6675 86.1005 231.2864 0.0000 0.0000 0.0000
# 4 0.0000 0.0000 0.0000 6.1277 0.0000 0.0000
# 5 0.0000 0.0000 0.0000 0.0000 19.6460 0.0000
# 6 0.0000 0.0000 0.0000 0.0000 0.0000 34.1784
#
#
#
# Elastic Compliance Matrix: (Units=1/GPa)
#
#
# Indices 1 2 3 4 5 6 
#
# 1 0.017385 -0.004241 -0.001328 0.000000 0.000000 0.000000
# 2 -0.004241 0.008202 -0.002344 0.000000 0.000000 0.000000
# 3 -0.001328 -0.002344 0.005418 0.000000 0.000000 0.000000
# 4 0.000000 0.000000 0.000000 0.163193 0.000000 0.000000
# 5 0.000000 0.000000 0.000000 0.000000 0.050901 0.000000
# 6 0.000000 0.000000 0.000000 0.000000 0.000000 0.029258
#
#
# Mechanical properties :
#
#
# Convention : Reuss Voigt Hill
#
# Bulk Modulus (GPa) = 65.88133 91.28361 78.58247
# Shear Modulus (GPa) = 16.93515 32.12022 24.52769
#
# Velocity S-wave (km/s) = 2.72631 3.75466 3.28102
# Velocity P-wave (km/s) = 6.23101 7.67207 6.98878
#
# Compressibility (1/GPa) = 0.01517881
#
# Stress axis : x y z
#
# Youngs Moduli (GPa) = 57.52132 121.91750 184.55952
#
# Poissons Ratio (x) = 0.51711 0.24501
# Poissons Ratio (y) = 0.24397 0.43267
# Poissons Ratio (z) = 0.07636 0.28582
#
# Static dielectric constant tensor:
#      x y z
#    x 1.854260 0.000000 0.000000 
#    y 0.000000 1.951180 0.000000 
#    z 0.000000 0.000000 1.997410 
# 
# From -- ./inp_files/50499.got.cif
#   From: 2010.05.17/outbox.cif.g08.bks.cpg/sg66_26_cif.got.tgz:50499.got - 2010.06.03 17:51:23.
