data_PCOD9499747
_publ_section_title
;
Structure prediction by ZEFSAII (Michael W. Deem and Ramdas Pophale) SiO2 
 PCOD9499747
Probable space group: C C C M
;
_chemical_formula_sum "Si O2"
_cell_formula_units_Z 56
_cell_length_a 33.967337
_cell_length_b 5.074782
_cell_length_c 15.179899
_cell_angle_alpha 90.000000
_cell_angle_beta 90.000000
_cell_angle_gamma 90.000000
_cell_volume 2616.662875
_symmetry_space_group_name_H-M "C C C M"
_symmetry_group_IT_number 66
_symmetry_cell_setting 'orthorhombic'
loop_
_space_group_symop_operation_xyz
x,y,z
-x,-y,z
x,-y,1/2-z
-x,y,1/2-z
-x,-y,-z
x,y,-z
-x,y,1/2+z
x,-y,1/2+z
1/2+x,1/2+y,z
1/2-x,1/2-y,z
1/2+x,1/2-y,1/2-z
1/2-x,1/2+y,1/2-z
1/2-x,1/2-y,-z
1/2+x,1/2+y,-z
1/2-x,1/2+y,1/2+z
1/2+x,1/2-y,1/2+z
loop_
_atom_site_type_symbol
_atom_site_label
_atom_site_fract_x
_atom_site_fract_y
_atom_site_fract_z
Si Si1 0.708224 0.660438 0.900743
Si Si2 0.926539 0.743014 0.687623
Si Si3 0.165935 0.357972 0.660121
Si Si4 0.528197 0.251076 0.000000
O O1 0.750000 0.750000 0.861672
O O2 0.688026 0.415191 0.853692
O O3 0.679421 0.912088 0.905360
O O4 0.716673 0.566218 0.000000
O O5 0.939727 0.500000 0.750000
O O6 0.880426 0.699215 0.664989
O O7 0.947637 0.755587 0.592406
O O8 0.930966 0.000000 0.750000
O O9 0.177552 0.500000 0.750000
O O10 0.500000 0.500000 0.000000
O O11 0.500000 0.000000 0.000000
#
# Coordination Sequence:
#
# PCOD9499747 Si02
#       4
#    16  16  16   8
#     4  11  24  40  63  96 134 177 225 282 342 393
#     4  11  25  47  71 103 144 182 226 287 341 404
#     4  11  23  43  65  95 131 178 230 275 338 402
#     4  12  28  46  74 112 135 180 233 266 348 430
#
# _framework density 21.401305000000001
#
# number of rings (size 3 to 8) (size 9 to 14) (size 15 to 20)
#    0.000    0.857    0.000    7.714    4.000    8.000 
#    0.000    1.429    0.000    0.000    0.000    0.000 
#    0.000    0.000    0.000    0.000    0.000    0.000 
#
# Total GULP energy -156475.166846 kJ/mol
# GULP energy per Si atom -5588.398816 kJ/mol
# Density = 2.135259 g / cm^3
# Si number density = 21.401305 Si / 1000 Ang^3
#
#
#
# Elastic Constant Matrix: (Units=GPa)
#
#
# Indices 1 2 3 4 5 6 
#
# 1 102.3637 85.6436 97.8755 0.0000 0.0000 0.0000
# 2 85.6436 218.8367 84.2607 0.0000 0.0000 0.0000
# 3 97.8755 84.2607 175.7354 0.0000 0.0000 0.0000
# 4 0.0000 0.0000 0.0000 -20.1152 0.0000 0.0000
# 5 0.0000 0.0000 0.0000 0.0000 40.7359 0.0000
# 6 0.0000 0.0000 0.0000 0.0000 0.0000 34.7647
#
#
#
# Elastic Compliance Matrix: (Units=1/GPa)
#
#
# Indices 1 2 3 4 5 6 
#
# 1 0.025347 -0.005499 -0.011480 0.000000 0.000000 0.000000
# 2 -0.005499 0.006797 -0.000196 0.000000 0.000000 0.000000
# 3 -0.011480 -0.000196 0.012178 0.000000 0.000000 0.000000
# 4 0.000000 0.000000 0.000000 -0.049714 0.000000 0.000000
# 5 0.000000 0.000000 0.000000 0.000000 0.024548 0.000000
# 6 0.000000 0.000000 0.000000 0.000000 0.000000 0.028765
#
#
# Mechanical properties :
#
#
# Convention : Reuss Voigt Hill
#
# Bulk Modulus (GPa) = 100.29035 114.72169 107.50602
# Shear Modulus (GPa) = 58.41267 26.35416 42.38341
#
# Velocity S-wave (km/s) = 5.23003 3.51298 4.45501
# Velocity P-wave (km/s) = 9.13425 8.37711 8.76386
#
# Compressibility (1/GPa) = 0.00997105
#
# Stress axis : x y z
#
# Youngs Moduli (GPa) = 39.45227 147.11364 82.11301
#
# Poissons Ratio (x) = 0.80905 0.94267
# Poissons Ratio (y) = 0.21697 0.01612
# Poissons Ratio (z) = 0.45292 0.02888
#
# Static dielectric constant tensor:
#      x y z
#    x 1.754720 0.000000 0.000000 
#    y 0.000000 1.744670 0.000000 
#    z 0.000000 0.000000 1.891340 
# 
# From -- ./inp_files/33533.got.cif
#   From: 2010.05.17/outbox.cif.g08.bks.cpg/sg66_17_cif.got.tgz:33533.got - 2010.06.03 17:51:23.
