data_PCOD9499076
_publ_section_title
;
Structure prediction by ZEFSAII (Michael W. Deem and Ramdas Pophale) SiO2 
 PCOD9499076
Probable space group: C C C M
;
_chemical_formula_sum "Si O2"
_cell_formula_units_Z 72
_cell_length_a 25.547017
_cell_length_b 11.700323
_cell_length_c 12.717974
_cell_angle_alpha 90.000000
_cell_angle_beta 90.000000
_cell_angle_gamma 90.000000
_cell_volume 3801.508631
_symmetry_space_group_name_H-M "C C C M"
_symmetry_group_IT_number 66
_symmetry_cell_setting 'orthorhombic'
loop_
_space_group_symop_operation_xyz
x,y,z
-x,-y,z
x,-y,1/2-z
-x,y,1/2-z
-x,-y,-z
x,y,-z
-x,y,1/2+z
x,-y,1/2+z
1/2+x,1/2+y,z
1/2-x,1/2-y,z
1/2+x,1/2-y,1/2-z
1/2-x,1/2+y,1/2-z
1/2-x,1/2-y,-z
1/2+x,1/2+y,-z
1/2-x,1/2+y,1/2+z
1/2+x,1/2-y,1/2+z
loop_
_atom_site_type_symbol
_atom_site_label
_atom_site_fract_x
_atom_site_fract_y
_atom_site_fract_z
Si Si1 0.654629 0.500000 0.250000
Si Si2 0.142432 0.387073 0.203673
Si Si3 0.077444 0.605321 0.500000
Si Si4 0.955689 0.658449 0.500000
Si Si5 0.244968 0.886513 0.382425
Si Si6 0.121777 0.790994 0.879474
O O1 0.694684 0.423799 0.317880
O O2 0.622813 0.415181 0.173776
O O3 0.115533 0.500000 0.250000
O O4 0.199220 0.424715 0.161847
O O5 0.148482 0.294292 0.295853
O O6 0.108483 0.351105 0.102722
O O7 0.073454 0.465449 0.500000
O O8 0.017315 0.643249 0.500000
O O9 0.934517 0.732462 0.598516
O O10 0.239111 0.931205 0.500000
O O11 0.250000 0.750000 0.384297
O O12 0.144400 0.793775 0.000000
#
# Coordination Sequence:
#
# PCOD9499076 Si02
#       6
#     8  16   8   8  16  16
#     4  12  22  40  68  89 130 191 206 268 336 376
#     4  12  21  38  64  93 135 167 212 273 335 388
#     4  11  22  40  67  98 126 174 208 283 337 388
#     4   9  22  44  62  98 133 160 228 268 340 394
#     4  11  23  37  56  92 126 169 226 256 309 396
#     4  10  23  43  61  96 132 171 219 273 324 404
#
# _framework density 18.939848000000001
#
# number of rings (size 3 to 8) (size 9 to 14) (size 15 to 20)
#    0.667    0.444    6.667    0.667    0.000    0.889 
#    2.000    1.111    0.000    4.000    0.000    0.000 
#    0.000    0.000    0.000    0.000    0.000    0.000 
#
# Total GULP energy -200519.313589 kJ/mol
# GULP energy per Si atom -5569.980933 kJ/mol
# Density = 1.889674 g / cm^3
# Si number density = 18.939848 Si / 1000 Ang^3
#
#
#
# Elastic Constant Matrix: (Units=GPa)
#
#
# Indices 1 2 3 4 5 6 
#
# 1 68.3344 19.9952 31.7422 0.0000 0.0000 0.0000
# 2 19.9952 87.0277 47.7066 0.0000 0.0000 0.0000
# 3 31.7422 47.7066 145.9329 0.0000 0.0000 0.0000
# 4 0.0000 0.0000 0.0000 21.8968 0.0000 0.0000
# 5 0.0000 0.0000 0.0000 0.0000 32.7779 0.0000
# 6 0.0000 0.0000 0.0000 0.0000 0.0000 13.5654
#
#
#
# Elastic Compliance Matrix: (Units=1/GPa)
#
#
# Indices 1 2 3 4 5 6 
#
# 1 0.016629 -0.002239 -0.002885 0.000000 0.000000 0.000000
# 2 -0.002239 0.014301 -0.004188 0.000000 0.000000 0.000000
# 3 -0.002885 -0.004188 0.008849 0.000000 0.000000 0.000000
# 4 0.000000 0.000000 0.000000 0.045669 0.000000 0.000000
# 5 0.000000 0.000000 0.000000 0.000000 0.030508 0.000000
# 6 0.000000 0.000000 0.000000 0.000000 0.000000 0.073717
#
#
# Mechanical properties :
#
#
# Convention : Reuss Voigt Hill
#
# Bulk Modulus (GPa) = 47.27079 55.57591 51.42335
# Shear Modulus (GPa) = 23.21809 27.10475 25.16142
#
# Velocity S-wave (km/s) = 3.50506 3.78709 3.64880
# Velocity P-wave (km/s) = 6.43375 6.96633 6.70533
#
# Compressibility (1/GPa) = 0.02115471
#
# Stress axis : x y z
#
# Youngs Moduli (GPa) = 60.13490 69.92604 113.00589
#
# Poissons Ratio (x) = 0.15658 0.32603
# Poissons Ratio (y) = 0.13465 0.47327
# Poissons Ratio (z) = 0.17349 0.29285
#
# Static dielectric constant tensor:
#      x y z
#    x 1.638580 0.000000 0.000000 
#    y 0.000000 1.701190 0.000000 
#    z 0.000000 0.000000 1.710280 
# 
# From -- ./inp_files/20507.got.cif
#   From: 2010.05.17/outbox.cif.g08.bks.cpg/sg66_11_cif.got.tgz:20507.got - 2010.06.03 17:51:23.
