data_PCOD9499726
_publ_section_title
;
Structure prediction by ZEFSAII (Michael W. Deem and Ramdas Pophale) SiO2 
 PCOD9499726
Probable space group: C C C M
;
_chemical_formula_sum "Si O2"
_cell_formula_units_Z 80
_cell_length_a 18.234513
_cell_length_b 8.843812
_cell_length_c 26.096617
_cell_angle_alpha 90.000000
_cell_angle_beta 90.000000
_cell_angle_gamma 90.000000
_cell_volume 4208.408436
_symmetry_space_group_name_H-M "C C C M"
_symmetry_group_IT_number 66
_symmetry_cell_setting 'orthorhombic'
loop_
_space_group_symop_operation_xyz
x,y,z
-x,-y,z
x,-y,1/2-z
-x,y,1/2-z
-x,-y,-z
x,y,-z
-x,y,1/2+z
x,-y,1/2+z
1/2+x,1/2+y,z
1/2-x,1/2-y,z
1/2+x,1/2-y,1/2-z
1/2-x,1/2+y,1/2-z
1/2-x,1/2-y,-z
1/2+x,1/2+y,-z
1/2-x,1/2+y,1/2+z
1/2+x,1/2-y,1/2+z
loop_
_atom_site_type_symbol
_atom_site_label
_atom_site_fract_x
_atom_site_fract_y
_atom_site_fract_z
Si Si1 0.667925 0.294547 0.154174
Si Si2 0.389301 0.115368 0.442442
Si Si3 0.440654 0.782653 0.557710
Si Si4 0.587134 0.828630 0.248294
Si Si5 0.921625 0.913213 0.158214
O O1 0.750000 0.250000 0.168892
O O2 0.650949 0.207606 0.101430
O O3 0.615008 0.239715 0.199106
O O4 0.644939 0.469192 0.151159
O O5 0.360391 0.140996 0.500000
O O6 0.474103 0.168267 0.442051
O O7 0.393583 0.935125 0.433004
O O8 0.424064 0.726304 0.500000
O O9 0.431642 0.667263 0.603627
O O10 0.500000 0.841585 0.250000
O O11 0.599237 0.712877 0.200994
O O12 0.617766 0.000000 0.250000
O O13 0.000000 0.000000 0.170506
#
# Coordination Sequence:
#
# PCOD9499726 Si02
#       5
#    16  16  16  16  16
#     4  12  26  40  59  93 132 166 208 266 335 388
#     4   9  18  37  62  90 128 167 212 264 324 387
#     4   9  18  35  64  96 121 161 219 271 311 375
#     4  11  23  41  66  89 118 165 218 263 318 388
#     4  12  22  38  65  94 126 162 215 272 316 388
#
# _framework density 19.009561000000001
#
# number of rings (size 3 to 8) (size 9 to 14) (size 15 to 20)
#    0.000    1.400    4.000    3.000    0.000    6.400 
#    0.000    3.000    0.000    2.400    0.000    0.000 
#    0.000    0.000    0.000    0.000    0.000    0.000 
#
# Total GULP energy -223036.770816 kJ/mol
# GULP energy per Si atom -5575.919270 kJ/mol
# Density = 1.896629 g / cm^3
# Si number density = 19.009561 Si / 1000 Ang^3
#
#
#
# Elastic Constant Matrix: (Units=GPa)
#
#
# Indices 1 2 3 4 5 6 
#
# 1 52.7764 21.2234 12.9167 0.0000 0.0000 0.0000
# 2 21.2234 106.0516 62.8772 0.0000 0.0000 0.0000
# 3 12.9167 62.8772 108.3674 0.0000 0.0000 0.0000
# 4 0.0000 0.0000 0.0000 52.6000 0.0000 0.0000
# 5 0.0000 0.0000 0.0000 0.0000 -0.6132 0.0000
# 6 0.0000 0.0000 0.0000 0.0000 0.0000 17.0666
#
#
#
# Elastic Compliance Matrix: (Units=1/GPa)
#
#
# Indices 1 2 3 4 5 6 
#
# 1 0.020607 -0.004067 -0.000097 0.000000 0.000000 0.000000
# 2 -0.004067 0.015177 -0.008321 0.000000 0.000000 0.000000
# 3 -0.000097 -0.008321 0.014068 0.000000 0.000000 0.000000
# 4 0.000000 0.000000 0.000000 0.019011 0.000000 0.000000
# 5 0.000000 0.000000 0.000000 0.000000 -1.630834 0.000000
# 6 0.000000 0.000000 0.000000 0.000000 0.000000 0.058594
#
#
# Mechanical properties :
#
#
# Convention : Reuss Voigt Hill
#
# Bulk Modulus (GPa) = 40.18930 51.24777 45.71854
# Shear Modulus (GPa) = -3.40110 25.15588 10.87739
#
# Velocity S-wave (km/s) = -1.33904 3.64170 2.39468
# Velocity P-wave (km/s) = 4.33553 6.68582 5.63458
#
# Compressibility (1/GPa) = 0.02488224
#
# Stress axis : x y z
#
# Youngs Moduli (GPa) = 48.52750 65.89016 71.08568
#
# Poissons Ratio (x) = 0.26795 0.00687
# Poissons Ratio (y) = 0.19734 0.59152
# Poissons Ratio (z) = 0.00469 0.54828
#
# Static dielectric constant tensor:
#      x y z
#    x 1.648400 0.000000 0.000000 
#    y 0.000000 1.779670 0.000000 
#    z 0.000000 0.000000 1.659580 
# 
# From -- ./inp_files/65049.got.cif
#   From: 2010.05.17/outbox.cif.g08.bks.cpg/sg66_33_cif.got.tgz:65049.got - 2010.06.03 17:51:23.
