data_PCOD9499133
_publ_section_title
;
Structure prediction by ZEFSAII (Michael W. Deem and Ramdas Pophale) SiO2 
 PCOD9499133
Probable space group: C C C M
;
_chemical_formula_sum "Si O2"
_cell_formula_units_Z 64
_cell_length_a 21.080877
_cell_length_b 7.788450
_cell_length_c 17.103493
_cell_angle_alpha 90.000000
_cell_angle_beta 90.000000
_cell_angle_gamma 90.000000
_cell_volume 2808.177302
_symmetry_space_group_name_H-M "C C C M"
_symmetry_group_IT_number 66
_symmetry_cell_setting 'orthorhombic'
loop_
_space_group_symop_operation_xyz
x,y,z
-x,-y,z
x,-y,1/2-z
-x,y,1/2-z
-x,-y,-z
x,y,-z
-x,y,1/2+z
x,-y,1/2+z
1/2+x,1/2+y,z
1/2-x,1/2-y,z
1/2+x,1/2-y,1/2-z
1/2-x,1/2+y,1/2-z
1/2-x,1/2-y,-z
1/2+x,1/2+y,-z
1/2-x,1/2+y,1/2+z
1/2+x,1/2-y,1/2+z
loop_
_atom_site_type_symbol
_atom_site_label
_atom_site_fract_x
_atom_site_fract_y
_atom_site_fract_z
Si Si1 0.061917 0.757345 0.801545
Si Si2 0.869845 0.026399 0.910789
Si Si3 0.681880 0.777160 0.187138
Si Si4 0.141741 0.410935 0.589455
O O1 0.123410 0.735250 0.746225
O O2 0.073071 0.612483 0.868153
O O3 0.000000 0.745402 0.750000
O O4 0.072730 0.933145 0.850435
O O5 0.829417 0.873014 0.876142
O O6 0.835057 0.212487 0.910670
O O7 0.889804 0.993305 0.000000
O O8 0.750000 0.750000 0.225674
O O9 0.679842 0.956307 0.141427
O O10 0.137320 0.468061 0.500000
#
# Coordination Sequence:
#
# PCOD9499133 Si02
#       4
#    16  16  16  16
#     4  10  23  46  71  98 132 181 233 283 342 405
#     4   9  22  44  66  94 133 178 225 278 341 407
#     4  12  25  41  67 103 136 175 230 285 341 407
#     4   9  22  44  66  94 133 178 225 278 341 407
#
# _framework density 22.790585
#
# number of rings (size 3 to 8) (size 9 to 14) (size 15 to 20)
#    1.500    0.500    0.000    2.250    0.000   11.000 
#    0.000   10.000    0.000    0.000    0.000    0.000 
#    0.000    0.000    0.000    0.000    0.000    0.000 
#
# Total GULP energy -178479.240811 kJ/mol
# GULP energy per Si atom -5577.476275 kJ/mol
# Density = 2.273871 g / cm^3
# Si number density = 22.790585 Si / 1000 Ang^3
#
#
#
# Elastic Constant Matrix: (Units=GPa)
#
#
# Indices 1 2 3 4 5 6 
#
# 1 95.4342 20.8292 19.4863 0.0000 0.0000 0.0000
# 2 20.8292 81.2447 19.7301 0.0000 0.0000 0.0000
# 3 19.4863 19.7301 108.1580 0.0000 0.0000 0.0000
# 4 0.0000 0.0000 0.0000 -57.8499 0.0000 0.0000
# 5 0.0000 0.0000 0.0000 0.0000 18.6178 0.0000
# 6 0.0000 0.0000 0.0000 0.0000 0.0000 31.4961
#
#
#
# Elastic Compliance Matrix: (Units=1/GPa)
#
#
# Indices 1 2 3 4 5 6 
#
# 1 0.011353 -0.002526 -0.001585 0.000000 0.000000 0.000000
# 2 -0.002526 0.013441 -0.001997 0.000000 0.000000 0.000000
# 3 -0.001585 -0.001997 0.009895 0.000000 0.000000 0.000000
# 4 0.000000 0.000000 0.000000 -0.017286 0.000000 0.000000
# 5 0.000000 0.000000 0.000000 0.000000 0.053712 0.000000
# 6 0.000000 0.000000 0.000000 0.000000 0.000000 0.031750
#
#
# Mechanical properties :
#
#
# Convention : Reuss Voigt Hill
#
# Bulk Modulus (GPa) = 44.49389 44.99201 44.74295
# Shear Modulus (GPa) = 40.79233 13.43890 27.11561
#
# Velocity S-wave (km/s) = 4.23528 2.43094 3.45305
# Velocity P-wave (km/s) = 6.59410 5.25963 5.96430
#
# Compressibility (1/GPa) = 0.02247500
#
# Stress axis : x y z
#
# Youngs Moduli (GPa) = 88.08023 74.39922 101.05608
#
# Poissons Ratio (x) = 0.18792 0.16014
# Poissons Ratio (y) = 0.22248 0.20179
# Poissons Ratio (z) = 0.13958 0.14856
#
# Static dielectric constant tensor:
#      x y z
#    x 1.846960 0.000000 0.000000 
#    y 0.000000 1.906450 0.000000 
#    z 0.000000 0.000000 1.880280 
# 
# From -- ./inp_files/43379.got.cif
#   From: 2010.05.17/outbox.cif.g08.bks.cpg/sg66_22_cif.got.tgz:43379.got - 2010.06.03 17:51:23.
