data_PCOD9499153
_publ_section_title
;
Structure prediction by ZEFSAII (Michael W. Deem and Ramdas Pophale) SiO2 
 PCOD9499153
Probable space group: C C C M
;
_chemical_formula_sum "Si O2"
_cell_formula_units_Z 68
_cell_length_a 25.682862
_cell_length_b 14.027325
_cell_length_c 9.224279
_cell_angle_alpha 90.000000
_cell_angle_beta 90.000000
_cell_angle_gamma 90.000000
_cell_volume 3323.155838
_symmetry_space_group_name_H-M "C C C M"
_symmetry_group_IT_number 66
_symmetry_cell_setting 'orthorhombic'
loop_
_space_group_symop_operation_xyz
x,y,z
-x,-y,z
x,-y,1/2-z
-x,y,1/2-z
-x,-y,-z
x,y,-z
-x,y,1/2+z
x,-y,1/2+z
1/2+x,1/2+y,z
1/2-x,1/2-y,z
1/2+x,1/2-y,1/2-z
1/2-x,1/2+y,1/2-z
1/2-x,1/2-y,-z
1/2+x,1/2+y,-z
1/2-x,1/2+y,1/2+z
1/2+x,1/2-y,1/2+z
loop_
_atom_site_type_symbol
_atom_site_label
_atom_site_fract_x
_atom_site_fract_y
_atom_site_fract_z
Si Si1 0.550866 0.231563 0.500000
Si Si2 0.243393 0.870988 0.000000
Si Si3 0.202905 0.500000 0.750000
Si Si4 0.142303 0.218682 0.500000
Si Si5 0.958284 0.415913 0.000000
Si Si6 0.532940 0.623103 0.500000
Si Si7 0.000000 0.000000 0.250000
Si Si8 0.118756 0.356403 0.748388
O O1 0.497388 0.172362 0.500000
O O2 0.526175 0.335732 0.500000
O O3 0.584387 0.201643 0.638207
O O4 0.250000 0.750000 0.000000
O O5 0.265244 0.933136 0.862960
O O6 0.180756 0.869989 0.000000
O O7 0.161482 0.425278 0.820101
O O8 0.081980 0.191389 0.500000
O O9 0.148801 0.284370 0.641521
O O10 0.921063 0.412037 0.859657
O O11 0.000000 0.500000 0.000000
O O12 0.535309 0.562777 0.354529
#
# Coordination Sequence:
#
# PCOD9499153 Si02
#       8
#     8   8   8   8   8   8   4  16
#     4  12  22  35  64 103 139 185 218 265 340 444
#     4  12  25  50  74 101 138 186 233 309 366 415
#     4  12  24  45  75 102 140 183 241 298 368 428
#     4  11  23  44  72  89 135 184 229 289 364 409
#     4  11  22  36  57  96 144 181 215 250 322 421
#     4  11  22  41  63  93 130 178 225 279 340 406
#     4  10  24  40  64  86 130 174 230 286 328 386
#     4  11  22  38  63 102 141 181 223 277 346 432
#
# _framework density 20.462477
#
# number of rings (size 3 to 8) (size 9 to 14) (size 15 to 20)
#    0.000    0.706    4.706    4.941    0.000    1.882 
#    0.000    1.765    0.000    0.000    0.000    0.000 
#    0.000    0.000    0.000    0.000    0.000    0.000 
#
# Total GULP energy -189498.759064 kJ/mol
# GULP energy per Si atom -5573.492914 kJ/mol
# Density = 2.041590 g / cm^3
# Si number density = 20.462477 Si / 1000 Ang^3
#
#
#
# Elastic Constant Matrix: (Units=GPa)
#
#
# Indices 1 2 3 4 5 6 
#
# 1 123.5963 57.4972 52.7420 0.0000 0.0000 0.0000
# 2 57.4972 96.9744 56.9921 0.0000 0.0000 0.0000
# 3 52.7420 56.9921 133.3882 0.0000 0.0000 0.0000
# 4 0.0000 0.0000 0.0000 45.1585 0.0000 0.0000
# 5 0.0000 0.0000 0.0000 0.0000 49.7128 0.0000
# 6 0.0000 0.0000 0.0000 0.0000 0.0000 51.2677
#
#
#
# Elastic Compliance Matrix: (Units=1/GPa)
#
#
# Indices 1 2 3 4 5 6 
#
# 1 0.011640 -0.005604 -0.002208 0.000000 0.000000 0.000000
# 2 -0.005604 0.016467 -0.004820 0.000000 0.000000 0.000000
# 3 -0.002208 -0.004820 0.010430 0.000000 0.000000 0.000000
# 4 0.000000 0.000000 0.000000 0.022144 0.000000 0.000000
# 5 0.000000 0.000000 0.000000 0.000000 0.020116 0.000000
# 6 0.000000 0.000000 0.000000 0.000000 0.000000 0.019505
#
#
# Mechanical properties :
#
#
# Convention : Reuss Voigt Hill
#
# Bulk Modulus (GPa) = 75.34290 76.49127 75.91708
# Shear Modulus (GPa) = 38.46429 41.67630 40.07030
#
# Velocity S-wave (km/s) = 4.34031 4.51790 4.42999
# Velocity P-wave (km/s) = 7.87513 8.04224 7.95912
#
# Compressibility (1/GPa) = 0.01327265
#
# Stress axis : x y z
#
# Youngs Moduli (GPa) = 85.91041 60.72613 95.88140
#
# Poissons Ratio (x) = 0.34029 0.21173
# Poissons Ratio (y) = 0.48142 0.46217
# Poissons Ratio (z) = 0.18971 0.29271
#
# Static dielectric constant tensor:
#      x y z
#    x 1.743320 0.000000 0.000000 
#    y 0.000000 1.912990 0.000000 
#    z 0.000000 0.000000 1.702120 
# 
# From -- ./inp_files/9967.got.cif
#   From: 2010.05.17/outbox.cif.g08.bks.cpg/sg66_5_cif.got.tgz:9967.got - 2010.06.03 17:51:23.
