data_PCOD9499379
_publ_section_title
;
Structure prediction by ZEFSAII (Michael W. Deem and Ramdas Pophale) SiO2 
 PCOD9499379
Probable space group: C C C M
;
_chemical_formula_sum "Si O2"
_cell_formula_units_Z 56
_cell_length_a 21.908422
_cell_length_b 13.017003
_cell_length_c 7.619189
_cell_angle_alpha 90.000000
_cell_angle_beta 90.000000
_cell_angle_gamma 90.000000
_cell_volume 2172.855519
_symmetry_space_group_name_H-M "C C C M"
_symmetry_group_IT_number 66
_symmetry_cell_setting 'orthorhombic'
loop_
_space_group_symop_operation_xyz
x,y,z
-x,-y,z
x,-y,1/2-z
-x,y,1/2-z
-x,-y,-z
x,y,-z
-x,y,1/2+z
x,-y,1/2+z
1/2+x,1/2+y,z
1/2-x,1/2-y,z
1/2+x,1/2-y,1/2-z
1/2-x,1/2+y,1/2-z
1/2-x,1/2-y,-z
1/2+x,1/2+y,-z
1/2-x,1/2+y,1/2+z
1/2+x,1/2-y,1/2+z
loop_
_atom_site_type_symbol
_atom_site_label
_atom_site_fract_x
_atom_site_fract_y
_atom_site_fract_z
Si Si1 0.255854 0.129427 0.697328
Si Si2 0.895387 0.388918 0.290335
Si Si3 0.164198 0.914751 0.500000
Si Si4 0.568894 0.339456 0.201318
O O1 0.231928 0.116631 0.500000
O O2 0.250000 0.250000 0.736841
O O3 0.327520 0.106478 0.708896
O O4 0.217828 0.079963 0.850012
O O5 0.924636 0.500000 0.250000
O O6 0.890483 0.375968 0.500000
O O7 0.925336 0.285136 0.216167
O O8 0.114047 0.887744 0.343389
O O9 0.500000 0.367746 0.250000
O O10 0.583737 0.370224 0.000000
#
# Coordination Sequence:
#
# PCOD9499379 Si02
#       4
#    16  16   8  16
#     4  11  20  35  58  84 110 150 192 240 297 341
#     4  12  23  39  57  85 121 160 196 238 289 346
#     4  12  21  38  60  81 118 147 198 247 285 353
#     4  12  23  39  57  84 118 160 201 239 277 337
#
# _framework density 25.772537
#
# number of rings (size 3 to 8) (size 9 to 14) (size 15 to 20)
#    0.000    0.286    7.143    3.857    0.000    0.571 
#    0.000    2.857    0.000    0.000    0.000    0.000 
#    0.000    3.429    0.000    0.000    0.000    0.000 
#
# Total GULP energy -156114.779504 kJ/mol
# GULP energy per Si atom -5575.527839 kJ/mol
# Density = 2.571388 g / cm^3
# Si number density = 25.772537 Si / 1000 Ang^3
#
#
#
# Elastic Constant Matrix: (Units=GPa)
#
#
# Indices 1 2 3 4 5 6 
#
# 1 131.6196 -14.2873 52.1593 0.0000 0.0000 0.0000
# 2 -14.2873 109.7123 21.5785 0.0000 0.0000 0.0000
# 3 52.1593 21.5785 286.6004 0.0000 0.0000 0.0000
# 4 0.0000 0.0000 0.0000 -41.7632 0.0000 0.0000
# 5 0.0000 0.0000 0.0000 0.0000 46.9292 0.0000
# 6 0.0000 0.0000 0.0000 0.0000 0.0000 34.5205
#
#
#
# Elastic Compliance Matrix: (Units=1/GPa)
#
#
# Indices 1 2 3 4 5 6 
#
# 1 0.008399 0.001415 -0.001635 0.000000 0.000000 0.000000
# 2 0.001415 0.009490 -0.000972 0.000000 0.000000 0.000000
# 3 -0.001635 -0.000972 0.003860 0.000000 0.000000 0.000000
# 4 0.000000 0.000000 0.000000 -0.023945 0.000000 0.000000
# 5 0.000000 0.000000 0.000000 0.000000 0.021309 0.000000
# 6 0.000000 0.000000 0.000000 0.000000 0.000000 0.028968
#
#
# Mechanical properties :
#
#
# Convention : Reuss Voigt Hill
#
# Bulk Modulus (GPa) = 51.63759 71.87035 61.75397
# Shear Modulus (GPa) = 87.84098 39.16943 63.50520
#
# Velocity S-wave (km/s) = 5.84441 3.90271 4.96932
# Velocity P-wave (km/s) = 8.10076 6.94659 7.54577
#
# Compressibility (1/GPa) = 0.01936574
#
# Stress axis : x y z
#
# Youngs Moduli (GPa) = 119.05755 105.37108 259.06982
#
# Poissons Ratio (x) = -0.14914 0.42363
# Poissons Ratio (y) = -0.16852 0.25185
# Poissons Ratio (z) = 0.19468 0.10243
#
# Static dielectric constant tensor:
#      x y z
#    x 1.930730 0.000000 0.000000 
#    y 0.000000 2.205660 0.000000 
#    z 0.000000 0.000000 1.913230 
# 
# From -- ./inp_files/6114.got.cif
#   From: 2010.05.17/outbox.cif.g08.bks.cpg/sg66_4_cif.got.tgz:6114.got - 2010.06.03 17:51:23.
