data_PCOD9499310
_publ_section_title
;
Structure prediction by ZEFSAII (Michael W. Deem and Ramdas Pophale) SiO2 
 PCOD9499310
Probable space group: C C C M
;
_chemical_formula_sum "Si O2"
_cell_formula_units_Z 64
_cell_length_a 22.540138
_cell_length_b 22.747251
_cell_length_c 7.754285
_cell_angle_alpha 90.000000
_cell_angle_beta 90.000000
_cell_angle_gamma 90.000000
_cell_volume 3975.824901
_symmetry_space_group_name_H-M "C C C M"
_symmetry_group_IT_number 66
_symmetry_cell_setting 'orthorhombic'
loop_
_space_group_symop_operation_xyz
x,y,z
-x,-y,z
x,-y,1/2-z
-x,y,1/2-z
-x,-y,-z
x,y,-z
-x,y,1/2+z
x,-y,1/2+z
1/2+x,1/2+y,z
1/2-x,1/2-y,z
1/2+x,1/2-y,1/2-z
1/2-x,1/2+y,1/2-z
1/2-x,1/2-y,-z
1/2+x,1/2+y,-z
1/2-x,1/2+y,1/2+z
1/2+x,1/2-y,1/2+z
loop_
_atom_site_type_symbol
_atom_site_label
_atom_site_fract_x
_atom_site_fract_y
_atom_site_fract_z
Si Si1 0.433625 0.809679 0.302944
Si Si2 0.893640 0.434859 0.794005
Si Si3 0.254525 0.066489 0.199587
Si Si4 0.347635 0.230716 0.500000
Si Si5 0.272501 0.346160 0.500000
O O1 0.500000 0.792187 0.250000
O O2 0.421133 0.793156 0.500000
O O3 0.428599 0.880487 0.285494
O O4 0.386896 0.783429 0.167836
O O5 0.916367 0.500000 0.750000
O O6 0.825973 0.431054 0.725737
O O7 0.892426 0.428064 0.000000
O O8 0.226643 0.112660 0.331695
O O9 0.237116 0.000000 0.250000
O O10 0.241071 0.078064 0.000000
O O11 0.322840 0.296719 0.500000
O O12 0.290562 0.187935 0.500000
#
# Coordination Sequence:
#
# PCOD9499310 Si02
#       5
#    16  16  16   8   8
#     4  12  22  38  57  76 105 148 193 233 271 315
#     4  11  19  32  49  76 109 144 190 234 271 312
#     4  11  18  31  54  80 110 147 180 220 274 324
#     4  11  24  40  54  80 114 150 188 227 272 325
#     4  11  22  38  56  81 119 145 181 229 272 333
#
# _framework density 16.097289
#
# number of rings (size 3 to 8) (size 9 to 14) (size 15 to 20)
#    0.000    0.750    7.500    3.750    0.000    1.500 
#    0.000    5.000    0.000    0.000    0.000    0.000 
#    0.000    3.000    0.000    0.000    0.000    0.000 
#
# Total GULP energy -178814.477364 kJ/mol
# GULP energy per Si atom -5587.952418 kJ/mol
# Density = 1.606065 g / cm^3
# Si number density = 16.097289 Si / 1000 Ang^3
#
#
#
# Elastic Constant Matrix: (Units=GPa)
#
#
# Indices 1 2 3 4 5 6 
#
# 1 62.4491 39.4830 38.1232 0.0000 0.0000 0.0000
# 2 39.4830 93.6261 52.1375 0.0000 0.0000 0.0000
# 3 38.1232 52.1375 179.8356 0.0000 0.0000 0.0000
# 4 0.0000 0.0000 0.0000 9.3031 0.0000 0.0000
# 5 0.0000 0.0000 0.0000 0.0000 3.3689 0.0000
# 6 0.0000 0.0000 0.0000 0.0000 0.0000 19.7477
#
#
#
# Elastic Compliance Matrix: (Units=1/GPa)
#
#
# Indices 1 2 3 4 5 6 
#
# 1 0.022690 -0.008217 -0.002428 0.000000 0.000000 0.000000
# 2 -0.008217 0.015713 -0.002814 0.000000 0.000000 0.000000
# 3 -0.002428 -0.002814 0.006891 0.000000 0.000000 0.000000
# 4 0.000000 0.000000 0.000000 0.107491 0.000000 0.000000
# 5 0.000000 0.000000 0.000000 0.000000 0.296834 0.000000
# 6 0.000000 0.000000 0.000000 0.000000 0.000000 0.050639
#
#
# Mechanical properties :
#
#
# Convention : Reuss Voigt Hill
#
# Bulk Modulus (GPa) = 54.41405 66.15537 60.28471
# Shear Modulus (GPa) = 9.37560 20.22841 14.80201
#
# Velocity S-wave (km/s) = 2.41598 3.54875 3.03567
# Velocity P-wave (km/s) = 6.45440 7.61432 7.05823
#
# Compressibility (1/GPa) = 0.01837761
#
# Stress axis : x y z
#
# Youngs Moduli (GPa) = 44.07207 63.64336 145.11645
#
# Poissons Ratio (x) = 0.52293 0.35233
# Poissons Ratio (y) = 0.36212 0.40829
# Poissons Ratio (z) = 0.10700 0.17906
#
# Static dielectric constant tensor:
#      x y z
#    x 1.513120 0.000000 0.000000 
#    y 0.000000 1.540610 0.000000 
#    z 0.000000 0.000000 1.545680 
# 
# From -- ./inp_files/7572.got.cif
#   From: 2010.05.17/outbox.cif.g08.bks.cpg/sg66_4_cif.got.tgz:7572.got - 2010.06.03 17:51:23.
