data_PCOD9499318
_publ_section_title
;
Structure prediction by ZEFSAII (Michael W. Deem and Ramdas Pophale) SiO2 
 PCOD9499318
Probable space group: C C C M
;
_chemical_formula_sum "Si O2"
_cell_formula_units_Z 104
_cell_length_a 20.239588
_cell_length_b 8.060598
_cell_length_c 30.889417
_cell_angle_alpha 90.000000
_cell_angle_beta 90.000000
_cell_angle_gamma 90.000000
_cell_volume 5039.397797
_symmetry_space_group_name_H-M "C C C M"
_symmetry_group_IT_number 66
_symmetry_cell_setting 'orthorhombic'
loop_
_space_group_symop_operation_xyz
x,y,z
-x,-y,z
x,-y,1/2-z
-x,y,1/2-z
-x,-y,-z
x,y,-z
-x,y,1/2+z
x,-y,1/2+z
1/2+x,1/2+y,z
1/2-x,1/2-y,z
1/2+x,1/2-y,1/2-z
1/2-x,1/2+y,1/2-z
1/2-x,1/2-y,-z
1/2+x,1/2+y,-z
1/2-x,1/2+y,1/2+z
1/2+x,1/2-y,1/2+z
loop_
_atom_site_type_symbol
_atom_site_label
_atom_site_fract_x
_atom_site_fract_y
_atom_site_fract_z
Si Si1 0.540792 0.344734 0.935604
Si Si2 0.784377 0.928671 0.952259
Si Si3 0.750000 0.250000 0.148246
Si Si4 0.222032 0.060027 0.799213
Si Si5 0.339312 0.854657 0.074056
Si Si6 0.554251 0.886513 0.107410
Si Si7 0.384672 0.552711 0.370833
O O1 0.500000 0.500000 0.954438
O O2 0.609673 0.263904 0.951609
O O3 0.488242 0.197061 0.931369
O O4 0.564153 0.415173 0.888301
O O5 0.750000 0.750000 0.950991
O O6 0.834205 0.927873 0.911896
O O7 0.725546 0.064532 0.947504
O O8 0.815513 0.945710 0.000000
O O9 0.762758 0.414539 0.176353
O O10 0.688363 0.246989 0.115320
O O11 0.250000 0.250000 0.802826
O O12 0.154607 0.037204 0.826336
O O13 0.216254 0.000000 0.750000
O O14 0.385070 0.004410 0.090879
O O15 0.579695 0.729613 0.133064
O O16 0.500000 0.000000 0.130860
#
# Coordination Sequence:
#
# PCOD9499318 Si02
#       7
#    16  16   8  16  16  16  16
#     4   9  19  33  57  85 113 154 212 253 298 365
#     4  11  22  35  59  92 127 165 206 262 329 387
#     4  12  22  38  63  96 128 162 199 260 322 378
#     4  12  24  38  61  97 133 167 201 251 321 387
#     4  11  18  36  60  87 121 154 205 254 310 379
#     4   9  19  33  60  90 109 162 219 249 306 367
#     4  11  19  39  61  88 124 160 205 260 317 373
#
# _framework density 20.637384999999998
#
# number of rings (size 3 to 8) (size 9 to 14) (size 15 to 20)
#    0.000    1.385    5.385    1.385    0.000    0.000 
#    0.000    3.462    0.000   22.615    4.000    0.000 
#    0.000    0.000    0.000    0.000    0.000    0.000 
#
# Total GULP energy -289550.482288 kJ/mol
# GULP energy per Si atom -5568.278506 kJ/mol
# Density = 2.059041 g / cm^3
# Si number density = 20.637385 Si / 1000 Ang^3
#
#
#
# Elastic Constant Matrix: (Units=GPa)
#
#
# Indices 1 2 3 4 5 6 
#
# 1 90.2012 27.2698 35.5926 0.0000 0.0000 0.0000
# 2 27.2698 136.5250 35.6457 0.0000 0.0000 0.0000
# 3 35.5926 35.6457 107.3109 0.0000 0.0000 0.0000
# 4 0.0000 0.0000 0.0000 12.6820 0.0000 0.0000
# 5 0.0000 0.0000 0.0000 0.0000 4.1265 0.0000
# 6 0.0000 0.0000 0.0000 0.0000 0.0000 64.4944
#
#
#
# Elastic Compliance Matrix: (Units=1/GPa)
#
#
# Indices 1 2 3 4 5 6 
#
# 1 0.013075 -0.001620 -0.003799 0.000000 0.000000 0.000000
# 2 -0.001620 0.008221 -0.002193 0.000000 0.000000 0.000000
# 3 -0.003799 -0.002193 0.011307 0.000000 0.000000 0.000000
# 4 0.000000 0.000000 0.000000 0.078852 0.000000 0.000000
# 5 0.000000 0.000000 0.000000 0.000000 0.242334 0.000000
# 6 0.000000 0.000000 0.000000 0.000000 0.000000 0.015505
#
#
# Mechanical properties :
#
#
# Convention : Reuss Voigt Hill
#
# Bulk Modulus (GPa) = 57.53989 59.00591 58.27290
# Shear Modulus (GPa) = 12.81031 31.96252 22.38642
#
# Velocity S-wave (km/s) = 2.49416 3.93971 3.29713
# Velocity P-wave (km/s) = 6.01966 7.02488 6.54161
#
# Compressibility (1/GPa) = 0.01737925
#
# Stress axis : x y z
#
# Youngs Moduli (GPa) = 76.48224 121.64083 88.43888
#
# Poissons Ratio (x) = 0.19704 0.33594
# Poissons Ratio (y) = 0.12389 0.19399
# Poissons Ratio (z) = 0.29052 0.26682
#
# Static dielectric constant tensor:
#      x y z
#    x 1.819920 0.000000 0.000000 
#    y 0.000000 1.858240 0.000000 
#    z 0.000000 0.000000 1.692470 
# 
# From -- ./inp_files/70218.got.cif
#   From: 2010.05.17/outbox.cif.g08.bks.cpg/sg66_36_cif.got.tgz:70218.got - 2010.06.03 17:51:23.
