data_PCOD9499735
_publ_section_title
;
Structure prediction by ZEFSAII (Michael W. Deem and Ramdas Pophale) SiO2 
 PCOD9499735
Probable space group: C C C M
;
_chemical_formula_sum "Si O2"
_cell_formula_units_Z 64
_cell_length_a 16.065518
_cell_length_b 11.680387
_cell_length_c 15.225152
_cell_angle_alpha 90.000000
_cell_angle_beta 90.000000
_cell_angle_gamma 90.000000
_cell_volume 2857.022117
_symmetry_space_group_name_H-M "C C C M"
_symmetry_group_IT_number 66
_symmetry_cell_setting 'orthorhombic'
loop_
_space_group_symop_operation_xyz
x,y,z
-x,-y,z
x,-y,1/2-z
-x,y,1/2-z
-x,-y,-z
x,y,-z
-x,y,1/2+z
x,-y,1/2+z
1/2+x,1/2+y,z
1/2-x,1/2-y,z
1/2+x,1/2-y,1/2-z
1/2-x,1/2+y,1/2-z
1/2-x,1/2-y,-z
1/2+x,1/2+y,-z
1/2-x,1/2+y,1/2+z
1/2+x,1/2-y,1/2+z
loop_
_atom_site_type_symbol
_atom_site_label
_atom_site_fract_x
_atom_site_fract_y
_atom_site_fract_z
Si Si1 0.858127 0.280127 0.599702
Si Si2 0.944835 0.726179 0.403228
Si Si3 0.831819 0.529233 0.344983
Si Si4 0.340833 0.625797 0.769487
O O1 0.843357 0.237298 0.500000
O O2 0.819598 0.406998 0.609649
O O3 0.831898 0.196744 0.679130
O O4 0.957747 0.293431 0.610447
O O5 0.933590 0.777685 0.500000
O O6 0.894044 0.608344 0.397752
O O7 0.903004 0.805581 0.330925
O O8 0.870534 0.500000 0.250000
O O9 0.747179 0.598608 0.319264
O O10 0.375182 0.500000 0.750000
#
# Coordination Sequence:
#
# PCOD9499735 Si02
#       4
#    16  16  16  16
#     4  11  25  46  73 105 141 187 237 293 356 418
#     4  11  24  43  72 106 141 184 237 297 357 413
#     4  11  23  41  71 103 139 182 237 293 352 414
#     4  11  26  44  69 102 146 190 237 285 351 425
#
# _framework density 22.400946999999999
#
# number of rings (size 3 to 8) (size 9 to 14) (size 15 to 20)
#    0.000    1.000    2.500    3.000    3.500    9.000 
#    0.000   15.000    0.000    0.000    0.000    0.000 
#    0.000    0.000    0.000    0.000    0.000    0.000 
#
# Total GULP energy -179011.852096 kJ/mol
# GULP energy per Si atom -5594.120378 kJ/mol
# Density = 2.234996 g / cm^3
# Si number density = 22.400947 Si / 1000 Ang^3
#
#
#
# Elastic Constant Matrix: (Units=GPa)
#
#
# Indices 1 2 3 4 5 6 
#
# 1 145.6239 51.5483 63.5299 0.0000 0.0000 0.0000
# 2 51.5483 122.8374 47.5778 0.0000 0.0000 0.0000
# 3 63.5299 47.5778 142.1344 0.0000 0.0000 0.0000
# 4 0.0000 0.0000 0.0000 -22.3675 0.0000 0.0000
# 5 0.0000 0.0000 0.0000 0.0000 18.6296 0.0000
# 6 0.0000 0.0000 0.0000 0.0000 0.0000 11.1569
#
#
#
# Elastic Compliance Matrix: (Units=1/GPa)
#
#
# Indices 1 2 3 4 5 6 
#
# 1 0.009204 -0.002607 -0.003241 0.000000 0.000000 0.000000
# 2 -0.002607 0.010092 -0.002213 0.000000 0.000000 0.000000
# 3 -0.003241 -0.002213 0.009225 0.000000 0.000000 0.000000
# 4 0.000000 0.000000 0.000000 -0.044708 0.000000 0.000000
# 5 0.000000 0.000000 0.000000 0.000000 0.053678 0.000000
# 6 0.000000 0.000000 0.000000 0.000000 0.000000 0.089630
#
#
# Mechanical properties :
#
#
# Convention : Reuss Voigt Hill
#
# Bulk Modulus (GPa) = 80.65369 81.76751 81.21060
# Shear Modulus (GPa) = 33.92672 18.01313 25.96993
#
# Velocity S-wave (km/s) = 3.89591 2.83878 3.40858
# Velocity P-wave (km/s) = 7.50468 6.87939 7.19883
#
# Compressibility (1/GPa) = 0.01239869
#
# Stress axis : x y z
#
# Youngs Moduli (GPa) = 108.65047 99.08877 108.40034
#
# Poissons Ratio (x) = 0.25832 0.35135
# Poissons Ratio (y) = 0.28325 0.23988
# Poissons Ratio (z) = 0.35216 0.21928
#
# Static dielectric constant tensor:
#      x y z
#    x 1.846770 0.000000 0.000000 
#    y 0.000000 1.819720 0.000000 
#    z 0.000000 0.000000 1.822140 
# 
# From -- ./inp_files/25780.got.cif
#   From: 2010.05.17/outbox.cif.g08.bks.cpg/sg66_13_cif.got.tgz:25780.got - 2010.06.03 17:51:23.
