data_PCOD9499942
_publ_section_title
;
Structure prediction by ZEFSAII (Michael W. Deem and Ramdas Pophale) SiO2 
 PCOD9499942
Probable space group: C C C M
;
_chemical_formula_sum "Si O2"
_cell_formula_units_Z 112
_cell_length_a 21.954518
_cell_length_b 16.357415
_cell_length_c 14.755331
_cell_angle_alpha 90.000000
_cell_angle_beta 90.000000
_cell_angle_gamma 90.000000
_cell_volume 5298.922105
_symmetry_space_group_name_H-M "C C C M"
_symmetry_group_IT_number 66
_symmetry_cell_setting 'orthorhombic'
loop_
_space_group_symop_operation_xyz
x,y,z
-x,-y,z
x,-y,1/2-z
-x,y,1/2-z
-x,-y,-z
x,y,-z
-x,y,1/2+z
x,-y,1/2+z
1/2+x,1/2+y,z
1/2-x,1/2-y,z
1/2+x,1/2-y,1/2-z
1/2-x,1/2+y,1/2-z
1/2-x,1/2-y,-z
1/2+x,1/2+y,-z
1/2-x,1/2+y,1/2+z
1/2+x,1/2-y,1/2+z
loop_
_atom_site_type_symbol
_atom_site_label
_atom_site_fract_x
_atom_site_fract_y
_atom_site_fract_z
Si Si1 0.236005 0.156764 0.895641
Si Si2 0.160566 0.467006 0.844512
Si Si3 0.890148 0.199163 0.104832
Si Si4 0.044075 0.378444 0.892477
Si Si5 0.091863 0.622508 0.895619
Si Si6 0.035542 0.184057 0.897464
Si Si7 0.371430 0.405142 0.769943
O O1 0.250000 0.250000 0.865533
O O2 0.294367 0.097206 0.889747
O O3 0.184236 0.115832 0.835662
O O4 0.216026 0.162770 0.000000
O O5 0.186244 0.500000 0.750000
O O6 0.096537 0.419577 0.833870
O O7 0.139658 0.549825 0.893697
O O8 0.883988 0.291916 0.142095
O O9 0.859188 0.138691 0.174373
O O10 0.962423 0.179104 0.107594
O O11 0.869701 0.192614 0.000000
O O12 0.050110 0.280481 0.887524
O O13 0.975612 0.400379 0.861759
O O14 0.052473 0.402589 0.000000
O O15 0.078148 0.644781 0.000000
O O16 0.069985 0.133361 0.820966
O O17 0.053629 0.158889 0.000000
O O18 0.379683 0.500000 0.750000
#
# Coordination Sequence:
#
# PCOD9499942 Si02
#       7
#    16  16  16  16  16  16  16
#     4  11  26  48  71  89 114 163 225 281 330 378
#     4  12  24  35  57  95 129 163 204 263 322 378
#     4   9  21  40  63  95 132 173 208 248 321 399
#     4   9  18  35  59  90 128 170 211 252 308 378
#     4   9  19  36  59  89 130 172 206 247 311 392
#     4   9  19  38  64  93 129 172 216 259 311 375
#     4  12  25  41  63  95 126 164 214 276 327 378
#
# _framework density 21.136374
#
# number of rings (size 3 to 8) (size 9 to 14) (size 15 to 20)
#    0.000    1.857    0.000    5.571    4.000    6.857 
#    0.000    1.429    0.000    0.429    0.000    0.000 
#    0.000    0.000    0.000    0.000    0.000    0.000 
#
# Total GULP energy -312884.050382 kJ/mol
# GULP energy per Si atom -5587.215185 kJ/mol
# Density = 2.108827 g / cm^3
# Si number density = 21.136374 Si / 1000 Ang^3
#
#
#
# Elastic Constant Matrix: (Units=GPa)
#
#
# Indices 1 2 3 4 5 6 
#
# 1 40.3858 36.5637 11.5264 0.0000 0.0000 0.0000
# 2 36.5637 117.7912 34.0652 0.0000 0.0000 0.0000
# 3 11.5264 34.0652 71.4300 0.0000 0.0000 0.0000
# 4 0.0000 0.0000 0.0000 70.5053 0.0000 0.0000
# 5 0.0000 0.0000 0.0000 0.0000 10.9681 0.0000
# 6 0.0000 0.0000 0.0000 0.0000 0.0000 13.7355
#
#
#
# Elastic Compliance Matrix: (Units=1/GPa)
#
#
# Indices 1 2 3 4 5 6 
#
# 1 0.034457 -0.010542 -0.000533 0.000000 0.000000 0.000000
# 2 -0.010542 0.013073 -0.004533 0.000000 0.000000 0.000000
# 3 -0.000533 -0.004533 0.016248 0.000000 0.000000 0.000000
# 4 0.000000 0.000000 0.000000 0.014183 0.000000 0.000000
# 5 0.000000 0.000000 0.000000 0.000000 0.091174 0.000000
# 6 0.000000 0.000000 0.000000 0.000000 0.000000 0.072804
#
#
# Mechanical properties :
#
#
# Convention : Reuss Voigt Hill
#
# Bulk Modulus (GPa) = 30.71075 43.76862 37.23968
# Shear Modulus (GPa) = 17.60503 28.87189 23.23846
#
# Velocity S-wave (km/s) = 2.88918 3.69993 3.31940
# Velocity P-wave (km/s) = 5.06864 6.24542 5.68755
#
# Compressibility (1/GPa) = 0.03256189
#
# Stress axis : x y z
#
# Youngs Moduli (GPa) = 29.02128 76.49364 61.54719
#
# Poissons Ratio (x) = 0.80639 0.03279
# Poissons Ratio (y) = 0.30594 0.27902
# Poissons Ratio (z) = 0.01546 0.34678
#
# Static dielectric constant tensor:
#      x y z
#    x 1.768680 0.000000 0.000000 
#    y 0.000000 1.747320 0.000000 
#    z 0.000000 0.000000 1.804980 
# 
# From -- ./inp_files/32461.got.cif
#   From: 2010.05.17/outbox.cif.g08.bks.cpg/sg66_17_cif.got.tgz:32461.got - 2010.06.03 17:51:23.
