data_PCOD9499861
_publ_section_title
;
Structure prediction by ZEFSAII (Michael W. Deem and Ramdas Pophale) SiO2 
 PCOD9499861
Probable space group: C C C M
;
_chemical_formula_sum "Si O2"
_cell_formula_units_Z 64
_cell_length_a 8.421373
_cell_length_b 13.065836
_cell_length_c 26.692217
_cell_angle_alpha 90.000000
_cell_angle_beta 90.000000
_cell_angle_gamma 90.000000
_cell_volume 2937.005455
_symmetry_space_group_name_H-M "C C C M"
_symmetry_group_IT_number 66
_symmetry_cell_setting 'orthorhombic'
loop_
_space_group_symop_operation_xyz
x,y,z
-x,-y,z
x,-y,1/2-z
-x,y,1/2-z
-x,-y,-z
x,y,-z
-x,y,1/2+z
x,-y,1/2+z
1/2+x,1/2+y,z
1/2-x,1/2-y,z
1/2+x,1/2-y,1/2-z
1/2-x,1/2+y,1/2-z
1/2-x,1/2-y,-z
1/2+x,1/2+y,-z
1/2-x,1/2+y,1/2+z
1/2+x,1/2-y,1/2+z
loop_
_atom_site_type_symbol
_atom_site_label
_atom_site_fract_x
_atom_site_fract_y
_atom_site_fract_z
Si Si1 0.119759 0.177790 0.621033
Si Si2 0.130338 0.843655 0.292566
Si Si3 0.176965 0.480153 0.859160
Si Si4 0.910456 0.314959 0.444659
O O1 0.250000 0.250000 0.646342
O O2 0.968728 0.175832 0.656732
O O3 0.053312 0.239712 0.573008
O O4 0.211754 0.069721 0.617205
O O5 0.250000 0.750000 0.281867
O O6 0.231037 0.940284 0.310391
O O7 0.000000 0.859022 0.250000
O O8 0.133989 0.399312 0.903170
O O9 0.000000 0.500000 0.840201
O O10 0.946555 0.357701 0.500000
O O11 0.750000 0.250000 0.448068
#
# Coordination Sequence:
#
# PCOD9499861 Si02
#       4
#    16  16  16  16
#     4  12  23  44  71 101 146 189 233 301 354 416
#     4  12  25  47  74 105 137 184 237 292 360 432
#     4  12  24  45  73 103 150 186 237 301 359 426
#     4  11  24  45  72 104 145 192 241 294 362 427
#
# _framework density 21.790901999999999
#
# number of rings (size 3 to 8) (size 9 to 14) (size 15 to 20)
#    0.000    0.250    7.500    1.500    0.000    4.000 
#    0.000    3.750    0.000    0.000    0.000    0.000 
#    0.000    0.000    0.000    0.000    0.000    0.000 
#
# Total GULP energy -178532.430102 kJ/mol
# GULP energy per Si atom -5579.138441 kJ/mol
# Density = 2.174130 g / cm^3
# Si number density = 21.790902 Si / 1000 Ang^3
#
#
#
# Elastic Constant Matrix: (Units=GPa)
#
#
# Indices 1 2 3 4 5 6 
#
# 1 156.4058 59.3296 52.5442 0.0000 0.0000 0.0000
# 2 59.3296 115.6876 47.0058 0.0000 0.0000 0.0000
# 3 52.5442 47.0058 102.4416 0.0000 0.0000 0.0000
# 4 0.0000 0.0000 0.0000 27.7670 0.0000 0.0000
# 5 0.0000 0.0000 0.0000 0.0000 -88.0959 0.0000
# 6 0.0000 0.0000 0.0000 0.0000 0.0000 58.3590
#
#
#
# Elastic Compliance Matrix: (Units=1/GPa)
#
#
# Indices 1 2 3 4 5 6 
#
# 1 0.008600 -0.003218 -0.002935 0.000000 0.000000 0.000000
# 2 -0.003218 0.011829 -0.003777 0.000000 0.000000 0.000000
# 3 -0.002935 -0.003777 0.013000 0.000000 0.000000 0.000000
# 4 0.000000 0.000000 0.000000 0.036014 0.000000 0.000000
# 5 0.000000 0.000000 0.000000 0.000000 -0.011351 0.000000
# 6 0.000000 0.000000 0.000000 0.000000 0.000000 0.017135
#
#
# Mechanical properties :
#
#
# Convention : Reuss Voigt Hill
#
# Bulk Modulus (GPa) = 73.69445 76.92157 75.30801
# Shear Modulus (GPa) = 50.19554 13.98305 32.08929
#
# Velocity S-wave (km/s) = 4.80470 2.53591 3.84161
# Velocity P-wave (km/s) = 8.04192 6.62955 7.36965
#
# Compressibility (1/GPa) = 0.01356954
#
# Stress axis : x y z
#
# Youngs Moduli (GPa) = 116.27575 84.53700 76.92308
#
# Poissons Ratio (x) = 0.27206 0.22573
# Poissons Ratio (y) = 0.37420 0.29055
# Poissons Ratio (z) = 0.34121 0.31931
#
# Static dielectric constant tensor:
#      x y z
#    x 1.606690 0.000000 0.000000 
#    y 0.000000 2.030090 0.000000 
#    z 0.000000 0.000000 1.818690 
# 
# From -- ./inp_files/67873.got.cif
#   From: 2010.05.17/outbox.cif.g08.bks.cpg/sg66_34_cif.got.tgz:67873.got - 2010.06.03 17:51:23.
