data_PCOD9499905
_publ_section_title
;
Structure prediction by ZEFSAII (Michael W. Deem and Ramdas Pophale) SiO2 
 PCOD9499905
Probable space group: C C C M
;
_chemical_formula_sum "Si O2"
_cell_formula_units_Z 52
_cell_length_a 8.620024
_cell_length_b 17.536271
_cell_length_c 15.133103
_cell_angle_alpha 90.000000
_cell_angle_beta 90.000000
_cell_angle_gamma 90.000000
_cell_volume 2287.566412
_symmetry_space_group_name_H-M "C C C M"
_symmetry_group_IT_number 66
_symmetry_cell_setting 'orthorhombic'
loop_
_space_group_symop_operation_xyz
x,y,z
-x,-y,z
x,-y,1/2-z
-x,y,1/2-z
-x,-y,-z
x,y,-z
-x,y,1/2+z
x,-y,1/2+z
1/2+x,1/2+y,z
1/2-x,1/2-y,z
1/2+x,1/2-y,1/2-z
1/2-x,1/2+y,1/2-z
1/2-x,1/2-y,-z
1/2+x,1/2+y,-z
1/2-x,1/2+y,1/2+z
1/2+x,1/2-y,1/2+z
loop_
_atom_site_type_symbol
_atom_site_label
_atom_site_fract_x
_atom_site_fract_y
_atom_site_fract_z
Si Si1 0.325549 0.990242 0.103836
Si Si2 0.673730 0.358325 0.648476
Si Si3 0.320057 0.329519 0.644653
Si Si4 0.750000 0.750000 0.000000
O O1 0.272278 0.903826 0.115135
O O2 0.500000 0.000000 0.138308
O O3 0.212641 0.052110 0.147998
O O4 0.324274 0.008183 0.000000
O O5 0.498669 0.340635 0.616788
O O6 0.686204 0.330081 0.748580
O O7 0.780338 0.314237 0.578766
O O8 0.250000 0.250000 0.612148
#
# Coordination Sequence:
#
# PCOD9499905 Si02
#       4
#    16  16  16   4
#     4  11  26  44  69 100 138 181 230 281 341 407
#     4  11  25  45  71  99 139 179 229 281 346 400
#     4  11  26  44  69 103 139 178 227 283 342 407
#     4  12  24  44  78 100 134 182 230 288 328 412
#
# _framework density 22.731580000000001
#
# number of rings (size 3 to 8) (size 9 to 14) (size 15 to 20)
#    0.000    0.923    3.077    1.846    6.462    6.769 
#    0.000    0.000    0.000    0.000    0.000    0.000 
#    0.000    0.000    0.000    0.000    0.000    0.000 
#
# Total GULP energy -145025.831267 kJ/mol
# GULP energy per Si atom -5577.916587 kJ/mol
# Density = 2.267984 g / cm^3
# Si number density = 22.731580 Si / 1000 Ang^3
#
#
#
# Elastic Constant Matrix: (Units=GPa)
#
#
# Indices 1 2 3 4 5 6 
#
# 1 99.6397 61.6649 -16.2251 0.0000 0.0000 0.0000
# 2 61.6649 205.8793 -19.3849 0.0000 0.0000 0.0000
# 3 -16.2251 -19.3849 63.2205 0.0000 0.0000 0.0000
# 4 0.0000 0.0000 0.0000 74.1075 0.0000 0.0000
# 5 0.0000 0.0000 0.0000 0.0000 9.5517 0.0000
# 6 0.0000 0.0000 0.0000 0.0000 0.0000 35.6031
#
#
#
# Elastic Compliance Matrix: (Units=1/GPa)
#
#
# Indices 1 2 3 4 5 6 
#
# 1 0.012594 -0.003571 0.002137 0.000000 0.000000 0.000000
# 2 -0.003571 0.006014 0.000928 0.000000 0.000000 0.000000
# 3 0.002137 0.000928 0.016651 0.000000 0.000000 0.000000
# 4 0.000000 0.000000 0.000000 0.013494 0.000000 0.000000
# 5 0.000000 0.000000 0.000000 0.000000 0.104693 0.000000
# 6 0.000000 0.000000 0.000000 0.000000 0.000000 0.028087
#
#
# Mechanical properties :
#
#
# Convention : Reuss Voigt Hill
#
# Bulk Modulus (GPa) = 29.19989 46.76105 37.98047
# Shear Modulus (GPa) = 25.77833 46.69810 36.23821
#
# Velocity S-wave (km/s) = 3.37119 4.53739 3.99705
# Velocity P-wave (km/s) = 5.29402 6.93297 6.16817
#
# Compressibility (1/GPa) = 0.03424671
#
# Stress axis : x y z
#
# Youngs Moduli (GPa) = 79.40173 166.27505 60.05793
#
# Poissons Ratio (x) = 0.59376 -0.12836
# Poissons Ratio (y) = 0.28354 -0.05571
# Poissons Ratio (z) = -0.16970 -0.15424
#
# Static dielectric constant tensor:
#      x y z
#    x 1.885850 0.000000 0.000000 
#    y 0.000000 1.856150 0.000000 
#    z 0.000000 0.000000 1.924480 
# 
# From -- ./inp_files/30626.got.cif
#   From: 2010.05.17/outbox.cif.g08.bks.cpg/sg66_16_cif.got.tgz:30626.got - 2010.06.03 17:51:23.
