data_PCOD9499710
_publ_section_title
;
Structure prediction by ZEFSAII (Michael W. Deem and Ramdas Pophale) SiO2 
 PCOD9499710
Probable space group: C C C M
;
_chemical_formula_sum "Si O2"
_cell_formula_units_Z 72
_cell_length_a 10.124928
_cell_length_b 12.884467
_cell_length_c 29.150925
_cell_angle_alpha 90.000000
_cell_angle_beta 90.000000
_cell_angle_gamma 90.000000
_cell_volume 3802.863535
_symmetry_space_group_name_H-M "C C C M"
_symmetry_group_IT_number 66
_symmetry_cell_setting 'orthorhombic'
loop_
_space_group_symop_operation_xyz
x,y,z
-x,-y,z
x,-y,1/2-z
-x,y,1/2-z
-x,-y,-z
x,y,-z
-x,y,1/2+z
x,-y,1/2+z
1/2+x,1/2+y,z
1/2-x,1/2-y,z
1/2+x,1/2-y,1/2-z
1/2-x,1/2+y,1/2-z
1/2-x,1/2-y,-z
1/2+x,1/2+y,-z
1/2-x,1/2+y,1/2+z
1/2+x,1/2-y,1/2+z
loop_
_atom_site_type_symbol
_atom_site_label
_atom_site_fract_x
_atom_site_fract_y
_atom_site_fract_z
Si Si1 0.789064 0.550144 0.500000
Si Si2 0.143155 0.665435 0.253423
Si Si3 0.156378 0.981866 0.406320
Si Si4 0.948198 0.335108 0.500000
Si Si5 0.646380 0.999919 0.171301
Si Si6 0.750000 0.750000 0.927059
O O1 0.702090 0.536087 0.454050
O O2 0.879728 0.447452 0.500000
O O3 0.894239 0.645587 0.500000
O O4 0.250000 0.750000 0.244958
O O5 0.143015 0.580621 0.213166
O O6 0.164838 0.609143 0.302208
O O7 0.000000 0.715770 0.250000
O O8 0.241116 0.027554 0.364447
O O9 0.204397 0.860150 0.405303
O O10 0.000000 0.000000 0.400970
O O11 0.880631 0.277758 0.542973
O O12 0.500000 0.000000 0.149099
#
# Coordination Sequence:
#
# PCOD9499710 Si02
#       6
#     8  16  16   8  16   8
#     4   9  19  35  61  81 119 160 197 240 302 346
#     4   9  19  39  62  86 115 152 189 238 301 355
#     4  11  23  39  58  87 121 156 199 248 298 348
#     4   8  16  35  58  84 105 157 205 235 294 358
#     4   9  21  39  59  84 119 154 193 240 294 360
#     4   9  20  36  58  80 118 150 196 248 296 343
#
# _framework density 18.933101000000001
#
# number of rings (size 3 to 8) (size 9 to 14) (size 15 to 20)
#    0.000    2.667    0.000    2.333    7.778    1.778 
#    4.000    4.444    0.000    0.000    0.000    0.000 
#    0.000    0.000    0.000    0.000    0.000    0.000 
#
# Total GULP energy -200402.541975 kJ/mol
# GULP energy per Si atom -5566.737277 kJ/mol
# Density = 1.889001 g / cm^3
# Si number density = 18.933101 Si / 1000 Ang^3
#
#
#
# Elastic Constant Matrix: (Units=GPa)
#
#
# Indices 1 2 3 4 5 6 
#
# 1 171.8569 24.0247 63.7167 0.0000 0.0000 0.0000
# 2 24.0247 35.6520 -14.7241 0.0000 0.0000 0.0000
# 3 63.7167 -14.7241 76.8314 0.0000 0.0000 0.0000
# 4 0.0000 0.0000 0.0000 -10.1135 0.0000 0.0000
# 5 0.0000 0.0000 0.0000 0.0000 13.3677 0.0000
# 6 0.0000 0.0000 0.0000 0.0000 0.0000 27.3570
#
#
#
# Elastic Compliance Matrix: (Units=1/GPa)
#
#
# Indices 1 2 3 4 5 6 
#
# 1 0.012655 -0.013967 -0.013171 0.000000 0.000000 0.000000
# 2 -0.013967 0.045876 0.020375 0.000000 0.000000 0.000000
# 3 -0.013171 0.020375 0.027843 0.000000 0.000000 0.000000
# 4 0.000000 0.000000 0.000000 -0.098878 0.000000 0.000000
# 5 0.000000 0.000000 0.000000 0.000000 0.074807 0.000000
# 6 0.000000 0.000000 0.000000 0.000000 0.000000 0.036554
#
#
# Mechanical properties :
#
#
# Convention : Reuss Voigt Hill
#
# Bulk Modulus (GPa) = 13.72759 47.81943 30.77351
# Shear Modulus (GPa) = 36.58559 20.21044 28.39802
#
# Velocity S-wave (km/s) = 4.40063 3.27075 3.87707
# Velocity P-wave (km/s) = 5.75214 6.29092 6.02755
#
# Compressibility (1/GPa) = 0.07284602
#
# Stress axis : x y z
#
# Youngs Moduli (GPa) = 79.02248 21.79805 35.91552
#
# Poissons Ratio (x) = 0.30446 0.47305
# Poissons Ratio (y) = 1.10372 -0.73177
# Poissons Ratio (z) = 1.04082 -0.44413
#
# Static dielectric constant tensor:
#      x y z
#    x 1.994850 0.000000 0.000000 
#    y 0.000000 1.673460 0.000000 
#    z 0.000000 0.000000 1.658430 
# 
# From -- ./inp_files/62257.got.cif
#   From: 2010.05.17/outbox.cif.g08.bks.cpg/sg66_32_cif.got.tgz:62257.got - 2010.06.03 17:51:23.
