data_PCOD9499816
_publ_section_title
;
Structure prediction by ZEFSAII (Michael W. Deem and Ramdas Pophale) SiO2 
 PCOD9499816
Probable space group: C C C M
;
_chemical_formula_sum "Si O2"
_cell_formula_units_Z 56
_cell_length_a 17.597403
_cell_length_b 7.572336
_cell_length_c 21.423160
_cell_angle_alpha 90.000000
_cell_angle_beta 90.000000
_cell_angle_gamma 90.000000
_cell_volume 2854.709942
_symmetry_space_group_name_H-M "C C C M"
_symmetry_group_IT_number 66
_symmetry_cell_setting 'orthorhombic'
loop_
_space_group_symop_operation_xyz
x,y,z
-x,-y,z
x,-y,1/2-z
-x,y,1/2-z
-x,-y,-z
x,y,-z
-x,y,1/2+z
x,-y,1/2+z
1/2+x,1/2+y,z
1/2-x,1/2-y,z
1/2+x,1/2-y,1/2-z
1/2-x,1/2+y,1/2-z
1/2-x,1/2-y,-z
1/2+x,1/2+y,-z
1/2-x,1/2+y,1/2+z
1/2+x,1/2-y,1/2+z
loop_
_atom_site_type_symbol
_atom_site_label
_atom_site_fract_x
_atom_site_fract_y
_atom_site_fract_z
Si Si1 0.906508 0.308503 0.316474
Si Si2 0.183248 0.892335 0.931622
Si Si3 0.426076 0.234004 0.327878
Si Si4 0.750000 0.250000 0.613450
O O1 0.914978 0.520357 0.327277
O O2 0.908378 0.236654 0.245344
O O3 0.825187 0.271528 0.345142
O O4 0.985337 0.231570 0.343407
O O5 0.250000 0.750000 0.929560
O O6 0.127024 0.840851 0.875132
O O7 0.226958 0.077520 0.924943
O O8 0.145129 0.884317 0.000000
#
# Coordination Sequence:
#
# PCOD9499816 Si02
#       4
#    16  16  16   8
#     4   9  20  36  66  94 125 153 205 263 308 369
#     4  11  24  42  62  88 127 167 207 252 305 370
#     4   9  19  41  61  92 126 164 199 252 318 369
#     4  12  23  38  64  96 117 158 216 262 302 360
#
# _framework density 19.616703999999999
#
# number of rings (size 3 to 8) (size 9 to 14) (size 15 to 20)
#    0.000    2.000    2.857    2.143    2.000    2.286 
#    0.000   10.000    0.000    0.000    0.000    0.000 
#    0.000    0.000    0.000    0.000    0.000    0.000 
#
# Total GULP energy -155928.684100 kJ/mol
# GULP energy per Si atom -5568.881575 kJ/mol
# Density = 1.957206 g / cm^3
# Si number density = 19.616704 Si / 1000 Ang^3
#
#
#
# Elastic Constant Matrix: (Units=GPa)
#
#
# Indices 1 2 3 4 5 6 
#
# 1 139.6603 47.3176 77.4249 0.0000 0.0000 0.0000
# 2 47.3176 99.1593 47.3802 0.0000 0.0000 0.0000
# 3 77.4249 47.3802 105.2426 0.0000 0.0000 0.0000
# 4 0.0000 0.0000 0.0000 35.8744 0.0000 0.0000
# 5 0.0000 0.0000 0.0000 0.0000 22.3772 0.0000
# 6 0.0000 0.0000 0.0000 0.0000 0.0000 33.6925
#
#
#
# Elastic Compliance Matrix: (Units=1/GPa)
#
#
# Indices 1 2 3 4 5 6 
#
# 1 0.012391 -0.001984 -0.008223 0.000000 0.000000 0.000000
# 2 -0.001984 0.013166 -0.004468 0.000000 0.000000 0.000000
# 3 -0.008223 -0.004468 0.017562 0.000000 0.000000 0.000000
# 4 0.000000 0.000000 0.000000 0.027875 0.000000 0.000000
# 5 0.000000 0.000000 0.000000 0.000000 0.044688 0.000000
# 6 0.000000 0.000000 0.000000 0.000000 0.000000 0.029680
#
#
# Mechanical properties :
#
#
# Convention : Reuss Voigt Hill
#
# Bulk Modulus (GPa) = 72.61705 76.47859 74.54782
# Shear Modulus (GPa) = 27.88589 29.85146 28.86868
#
# Velocity S-wave (km/s) = 3.77442 3.90518 3.84035
# Velocity P-wave (km/s) = 7.48955 7.70746 7.59929
#
# Compressibility (1/GPa) = 0.01377087
#
# Stress axis : x y z
#
# Youngs Moduli (GPa) = 80.70527 75.95124 56.93953
#
# Poissons Ratio (x) = 0.15068 0.46819
# Poissons Ratio (y) = 0.16011 0.25441
# Poissons Ratio (z) = 0.66360 0.33935
#
# Static dielectric constant tensor:
#      x y z
#    x 1.622610 0.000000 0.000000 
#    y 0.000000 1.742710 0.000000 
#    z 0.000000 0.000000 1.690090 
# 
# From -- ./inp_files/46378.got.cif
#   From: 2010.05.17/outbox.cif.g08.bks.cpg/sg66_24_cif.got.tgz:46378.got - 2010.06.03 17:51:23.
