data_PCOD9499648
_publ_section_title
;
Structure prediction by ZEFSAII (Michael W. Deem and Ramdas Pophale) SiO2 
 PCOD9499648
Probable space group: C C C M
;
_chemical_formula_sum "Si O2"
_cell_formula_units_Z 36
_cell_length_a 5.226488
_cell_length_b 17.585729
_cell_length_c 14.285140
_cell_angle_alpha 90.000000
_cell_angle_beta 90.000000
_cell_angle_gamma 90.000000
_cell_volume 1312.970096
_symmetry_space_group_name_H-M "C C C M"
_symmetry_group_IT_number 66
_symmetry_cell_setting 'orthorhombic'
loop_
_space_group_symop_operation_xyz
x,y,z
-x,-y,z
x,-y,1/2-z
-x,y,1/2-z
-x,-y,-z
x,y,-z
-x,y,1/2+z
x,-y,1/2+z
1/2+x,1/2+y,z
1/2-x,1/2-y,z
1/2+x,1/2-y,1/2-z
1/2-x,1/2+y,1/2-z
1/2-x,1/2-y,-z
1/2+x,1/2+y,-z
1/2-x,1/2+y,1/2+z
1/2+x,1/2-y,1/2+z
loop_
_atom_site_type_symbol
_atom_site_label
_atom_site_fract_x
_atom_site_fract_y
_atom_site_fract_z
Si Si1 0.675803 0.359420 0.665287
Si Si2 0.500000 0.000000 0.250000
Si Si3 0.364195 0.577346 0.000000
Si Si4 0.478553 0.186624 0.500000
O O1 0.500000 0.326798 0.750000
O O2 0.460478 0.380422 0.591012
O O3 0.814591 0.438509 0.697893
O O4 0.878188 0.312100 0.601111
O O5 0.500000 0.500000 0.000000
O O6 0.069316 0.594128 0.000000
O O7 0.250000 0.250000 0.500000
#
# Coordination Sequence:
#
# PCOD9499648 Si02
#       4
#    16   4   8   8
#     4  11  23  40  73 115 155 205 262 327 399 478
#     4  12  22  42  76 114 164 202 264 334 398 476
#     4  11  22  41  74 110 148 199 257 323 396 480
#     4  11  26  47  76 111 161 211 271 336 407 490
#
# _framework density 27.418749999999999
#
# number of rings (size 3 to 8) (size 9 to 14) (size 15 to 20)
#    0.000    0.889    0.000    8.667    0.000    7.111 
#    0.000    0.000   48.889    0.000    0.000    4.667 
#    0.000    0.000    0.000    0.000    0.000    0.000 
#
# Total GULP energy -100223.624800 kJ/mol
# GULP energy per Si atom -5567.979156 kJ/mol
# Density = 2.735634 g / cm^3
# Si number density = 27.418750 Si / 1000 Ang^3
#
#
#
# Elastic Constant Matrix: (Units=GPa)
#
#
# Indices 1 2 3 4 5 6 
#
# 1 97.2940 76.3522 69.8627 0.0000 0.0000 0.0000
# 2 76.3522 167.4830 53.3486 0.0000 0.0000 0.0000
# 3 69.8627 53.3486 229.2838 0.0000 0.0000 0.0000
# 4 0.0000 0.0000 0.0000 61.4269 0.0000 0.0000
# 5 0.0000 0.0000 0.0000 0.0000 83.5104 0.0000
# 6 0.0000 0.0000 0.0000 0.0000 0.0000 80.4009
#
#
#
# Elastic Compliance Matrix: (Units=1/GPa)
#
#
# Indices 1 2 3 4 5 6 
#
# 1 0.018969 -0.007352 -0.004069 0.000000 0.000000 0.000000
# 2 -0.007352 0.009298 0.000077 0.000000 0.000000 0.000000
# 3 -0.004069 0.000077 0.005584 0.000000 0.000000 0.000000
# 4 0.000000 0.000000 0.000000 0.016280 0.000000 0.000000
# 5 0.000000 0.000000 0.000000 0.000000 0.011975 0.000000
# 6 0.000000 0.000000 0.000000 0.000000 0.000000 0.012438
#
#
# Mechanical properties :
#
#
# Convention : Reuss Voigt Hill
#
# Bulk Modulus (GPa) = 89.58940 99.24308 94.41624
# Shear Modulus (GPa) = 49.52860 64.70079 57.11470
#
# Velocity S-wave (km/s) = 4.25476 4.86297 4.56900
# Velocity P-wave (km/s) = 7.54207 8.23439 7.89582
#
# Compressibility (1/GPa) = 0.01116203
#
# Stress axis : x y z
#
# Youngs Moduli (GPa) = 52.71646 107.55284 179.09809
#
# Poissons Ratio (x) = 0.79068 0.72883
# Poissons Ratio (y) = 0.38755 -0.01373
# Poissons Ratio (z) = 0.21453 -0.00824
#
# Static dielectric constant tensor:
#      x y z
#    x 2.530570 0.000000 0.000000 
#    y 0.000000 2.268170 0.000000 
#    z 0.000000 0.000000 2.145170 
# 
# From -- ./inp_files/22075.got.cif
#   From: 2010.05.17/outbox.cif.g08.bks.cpg/sg66_12_cif.got.tgz:22075.got - 2010.06.03 17:51:23.
