data_PCOD9499819
_publ_section_title
;
Structure prediction by ZEFSAII (Michael W. Deem and Ramdas Pophale) SiO2 
 PCOD9499819
Probable space group: C C C M
;
_chemical_formula_sum "Si O2"
_cell_formula_units_Z 56
_cell_length_a 18.024362
_cell_length_b 8.199672
_cell_length_c 14.509582
_cell_angle_alpha 90.000000
_cell_angle_beta 90.000000
_cell_angle_gamma 90.000000
_cell_volume 2144.427079
_symmetry_space_group_name_H-M "C C C M"
_symmetry_group_IT_number 66
_symmetry_cell_setting 'orthorhombic'
loop_
_space_group_symop_operation_xyz
x,y,z
-x,-y,z
x,-y,1/2-z
-x,y,1/2-z
-x,-y,-z
x,y,-z
-x,y,1/2+z
x,-y,1/2+z
1/2+x,1/2+y,z
1/2-x,1/2-y,z
1/2+x,1/2-y,1/2-z
1/2-x,1/2+y,1/2-z
1/2-x,1/2-y,-z
1/2+x,1/2+y,-z
1/2-x,1/2+y,1/2+z
1/2+x,1/2-y,1/2+z
loop_
_atom_site_type_symbol
_atom_site_label
_atom_site_fract_x
_atom_site_fract_y
_atom_site_fract_z
Si Si1 0.313485 0.491541 0.390186
Si Si2 0.154547 0.607117 0.889016
Si Si3 0.540417 0.343708 0.650509
Si Si4 0.000000 0.500000 0.872419
O O1 0.318112 0.524385 0.500000
O O2 0.227065 0.497136 0.363311
O O3 0.333039 0.300319 0.376810
O O4 0.373298 0.607768 0.342496
O O5 0.080695 0.555684 0.837827
O O6 0.142543 0.584375 0.000000
O O7 0.500000 0.500000 0.607004
O O8 0.500000 0.324697 0.750000
O O9 0.526006 0.179372 0.595256
#
# Coordination Sequence:
#
# PCOD9499819 Si02
#       4
#    16  16  16   8
#     4   9  19  40  67  97 134 173 210 269 335 392
#     4   9  19  36  65 103 136 163 210 269 330 396
#     4  11  24  42  65  88 131 173 222 270 326 380
#     4  12  22  38  66  96 129 170 221 268 317 388
#
# _framework density 26.114201000000001
#
# number of rings (size 3 to 8) (size 9 to 14) (size 15 to 20)
#    0.000    2.000    2.857    2.571    0.000    4.000 
#    0.000    2.857   25.143    0.000    0.000    0.000 
#    0.000    0.000    0.000    0.000    0.000    0.000 
#
# Total GULP energy -156192.540026 kJ/mol
# GULP energy per Si atom -5578.305001 kJ/mol
# Density = 2.605476 g / cm^3
# Si number density = 26.114201 Si / 1000 Ang^3
#
#
#
# Elastic Constant Matrix: (Units=GPa)
#
#
# Indices 1 2 3 4 5 6 
#
# 1 288.3220 61.4306 48.0221 0.0000 0.0000 0.0000
# 2 61.4306 168.7713 19.8036 0.0000 0.0000 0.0000
# 3 48.0221 19.8036 127.6986 0.0000 0.0000 0.0000
# 4 0.0000 0.0000 0.0000 -50.4480 0.0000 0.0000
# 5 0.0000 0.0000 0.0000 0.0000 138.4700 0.0000
# 6 0.0000 0.0000 0.0000 0.0000 0.0000 51.4546
#
#
#
# Elastic Compliance Matrix: (Units=1/GPa)
#
#
# Indices 1 2 3 4 5 6 
#
# 1 0.003958 -0.001289 -0.001288 0.000000 0.000000 0.000000
# 2 -0.001289 0.006455 -0.000516 0.000000 0.000000 0.000000
# 3 -0.001288 -0.000516 0.008395 0.000000 0.000000 0.000000
# 4 0.000000 0.000000 0.000000 -0.019822 0.000000 0.000000
# 5 0.000000 0.000000 0.000000 0.000000 0.007222 0.000000
# 6 0.000000 0.000000 0.000000 0.000000 0.000000 0.019435
#
#
# Mechanical properties :
#
#
# Convention : Reuss Voigt Hill
#
# Bulk Modulus (GPa) = 79.23675 93.70050 86.46863
# Shear Modulus (GPa) = 138.74724 58.26437 98.50580
#
# Velocity S-wave (km/s) = 7.29701 4.72862 6.14842
# Velocity P-wave (km/s) = 10.06992 8.11000 9.14263
#
# Compressibility (1/GPa) = 0.01262041
#
# Stress axis : x y z
#
# Youngs Moduli (GPa) = 252.67569 154.91736 119.11168
#
# Poissons Ratio (x) = 0.19974 0.15346
# Poissons Ratio (y) = 0.32579 0.06148
# Poissons Ratio (z) = 0.32553 0.07997
#
# Static dielectric constant tensor:
#      x y z
#    x 2.021970 0.000000 0.000000 
#    y 0.000000 1.402340 0.000000 
#    z 0.000000 0.000000 2.227160 
# 
# From -- ./inp_files/57580.got.cif
#   From: 2010.05.17/outbox.cif.g08.bks.cpg/sg66_29_cif.got.tgz:57580.got - 2010.06.03 17:51:23.
