data_PCOD9499595
_publ_section_title
;
Structure prediction by ZEFSAII (Michael W. Deem and Ramdas Pophale) SiO2 
 PCOD9499595
Probable space group: C C C M
;
_chemical_formula_sum "Si O2"
_cell_formula_units_Z 116
_cell_length_a 23.184027
_cell_length_b 28.006668
_cell_length_c 9.212957
_cell_angle_alpha 90.000000
_cell_angle_beta 90.000000
_cell_angle_gamma 90.000000
_cell_volume 5982.040669
_symmetry_space_group_name_H-M "C C C M"
_symmetry_group_IT_number 66
_symmetry_cell_setting 'orthorhombic'
loop_
_space_group_symop_operation_xyz
x,y,z
-x,-y,z
x,-y,1/2-z
-x,y,1/2-z
-x,-y,-z
x,y,-z
-x,y,1/2+z
x,-y,1/2+z
1/2+x,1/2+y,z
1/2-x,1/2-y,z
1/2+x,1/2-y,1/2-z
1/2-x,1/2+y,1/2-z
1/2-x,1/2-y,-z
1/2+x,1/2+y,-z
1/2-x,1/2+y,1/2+z
1/2+x,1/2-y,1/2+z
loop_
_atom_site_type_symbol
_atom_site_label
_atom_site_fract_x
_atom_site_fract_y
_atom_site_fract_z
Si Si1 0.224617 0.450356 0.671296
Si Si2 0.867050 0.330928 0.327605
Si Si3 0.000000 0.500000 0.250000
Si Si4 0.408197 0.918551 0.164783
Si Si5 0.941918 0.129396 0.326115
Si Si6 0.749797 0.692933 0.670500
Si Si7 0.057206 0.240187 0.171963
Si Si8 0.315358 0.618158 0.673715
O O1 0.234383 0.500000 0.750000
O O2 0.236444 0.452223 0.500000
O O3 0.156710 0.438308 0.687784
O O4 0.268128 0.414215 0.748447
O O5 0.855905 0.336781 0.500000
O O6 0.909433 0.373349 0.273495
O O7 0.808198 0.329793 0.235947
O O8 0.893885 0.278841 0.300497
O O9 0.045228 0.538571 0.180512
O O10 0.412587 0.900356 0.000000
O O11 0.949227 0.127623 0.500000
O O12 0.933834 0.185275 0.282736
O O13 0.881254 0.104581 0.290403
O O14 0.000000 0.111686 0.250000
O O15 0.744751 0.680689 0.500000
O O16 0.750000 0.750000 0.684115
O O17 0.698397 0.670647 0.764378
O O18 0.000000 0.257787 0.250000
O O19 0.047855 0.239265 0.000000
O O20 0.308695 0.617525 0.500000
#
# Coordination Sequence:
#
# PCOD9499595 Si02
#       8
#    16  16   4  16  16  16  16  16
#     4  11  23  42  66  92 123 157 200 254 311 373
#     4  11  23  38  58  83 117 158 202 254 313 371
#     4  12  26  48  68  90 118 160 214 270 334 388
#     4  11  25  43  64  88 117 153 202 260 318 378
#     4   9  19  36  59  87 122 159 200 244 289 351
#     4  11  23  37  56  86 123 163 207 255 309 369
#     4   9  19  35  53  79 113 156 202 244 292 352
#     4  11  22  38  62  91 122 159 204 250 305 370
#
# _framework density 19.391376999999999
#
# number of rings (size 3 to 8) (size 9 to 14) (size 15 to 20)
#    0.000    1.517    2.069    2.690    0.966    6.069 
#    0.000    2.759    0.000    0.414    0.000    2.897 
#    0.000    0.000    0.000    0.000    0.000    0.000 
#
# Total GULP energy -323537.155017 kJ/mol
# GULP energy per Si atom -5578.226811 kJ/mol
# Density = 1.934724 g / cm^3
# Si number density = 19.391377 Si / 1000 Ang^3
#
#
#
# Elastic Constant Matrix: (Units=GPa)
#
#
# Indices 1 2 3 4 5 6 
#
# 1 130.1558 22.3645 58.5726 0.0000 0.0000 0.0000
# 2 22.3645 54.4771 31.4756 0.0000 0.0000 0.0000
# 3 58.5726 31.4756 68.7466 0.0000 0.0000 0.0000
# 4 0.0000 0.0000 0.0000 35.6330 0.0000 0.0000
# 5 0.0000 0.0000 0.0000 0.0000 18.9942 0.0000
# 6 0.0000 0.0000 0.0000 0.0000 0.0000 36.1560
#
#
#
# Elastic Compliance Matrix: (Units=1/GPa)
#
#
# Indices 1 2 3 4 5 6 
#
# 1 0.012538 0.001394 -0.011321 0.000000 0.000000 0.000000
# 2 0.001394 0.025114 -0.012686 0.000000 0.000000 0.000000
# 3 -0.011321 -0.012686 0.030000 0.000000 0.000000 0.000000
# 4 0.000000 0.000000 0.000000 0.028064 0.000000 0.000000
# 5 0.000000 0.000000 0.000000 0.000000 0.052648 0.000000
# 6 0.000000 0.000000 0.000000 0.000000 0.000000 0.027658
#
#
# Mechanical properties :
#
#
# Convention : Reuss Voigt Hill
#
# Bulk Modulus (GPa) = 44.59115 53.13390 48.86253
# Shear Modulus (GPa) = 21.86066 27.55443 24.70754
#
# Velocity S-wave (km/s) = 3.36123 3.77366 3.57340
# Velocity P-wave (km/s) = 6.17326 6.81525 6.50218
#
# Compressibility (1/GPa) = 0.02242597
#
# Stress axis : x y z
#
# Youngs Moduli (GPa) = 79.75658 39.81895 33.33388
#
# Poissons Ratio (x) = -0.05549 0.37736
# Poissons Ratio (y) = -0.11114 0.42286
# Poissons Ratio (z) = 0.90289 0.50513
#
# Static dielectric constant tensor:
#      x y z
#    x 1.692020 0.000000 0.000000 
#    y 0.000000 1.204990 0.000000 
#    z 0.000000 0.000000 1.650450 
# 
# From -- ./inp_files/9624.got.cif
#   From: 2010.05.17/outbox.cif.g08.bks.cpg/sg66_5_cif.got.tgz:9624.got - 2010.06.03 17:51:23.
