data_PCOD9499064
_publ_section_title
;
Structure prediction by ZEFSAII (Michael W. Deem and Ramdas Pophale) SiO2 
 PCOD9499064
Probable space group: C C C M
;
_chemical_formula_sum "Si O2"
_cell_formula_units_Z 112
_cell_length_a 16.930008
_cell_length_b 22.305166
_cell_length_c 15.286942
_cell_angle_alpha 90.000000
_cell_angle_beta 90.000000
_cell_angle_gamma 90.000000
_cell_volume 5772.756525
_symmetry_space_group_name_H-M "C C C M"
_symmetry_group_IT_number 66
_symmetry_cell_setting 'orthorhombic'
loop_
_space_group_symop_operation_xyz
x,y,z
-x,-y,z
x,-y,1/2-z
-x,y,1/2-z
-x,-y,-z
x,y,-z
-x,y,1/2+z
x,-y,1/2+z
1/2+x,1/2+y,z
1/2-x,1/2-y,z
1/2+x,1/2-y,1/2-z
1/2-x,1/2+y,1/2-z
1/2-x,1/2-y,-z
1/2+x,1/2+y,-z
1/2-x,1/2+y,1/2+z
1/2+x,1/2-y,1/2+z
loop_
_atom_site_type_symbol
_atom_site_label
_atom_site_fract_x
_atom_site_fract_y
_atom_site_fract_z
Si Si1 0.757857 0.429932 0.750000
Si Si2 0.406584 0.237103 0.397413
Si Si3 0.337871 0.635439 0.100235
Si Si4 0.092657 0.359995 0.250000
Si Si5 0.093416 0.262897 0.897413
Si Si6 1.000000 0.929298 0.355515
Si Si7 0.662129 0.364561 0.600235
O O1 0.738661 0.500000 0.750000
O O2 0.719692 0.397765 0.833796
O O3 0.850576 0.416542 0.750000
O O4 0.719692 0.397765 0.666204
O O5 0.394847 0.223220 0.500000
O O6 0.355096 0.295458 0.375254
O O7 0.390065 0.181845 0.334116
O O8 0.500000 0.252495 0.385796
O O9 0.422089 0.601948 0.107499
O O10 0.310401 0.633672 0.000000
O O11 0.109935 0.318155 0.165884
O O12 0.000000 0.374568 0.250000
O O13 0.144904 0.204542 0.875254
O O14 0.105153 0.276780 0.000000
O O15 0.000000 0.922134 0.250000
O O16 0.077911 0.898052 0.392501
O O17 0.000000 0.000000 0.374984
O O18 0.689599 0.366328 0.500000
#
# Coordination Sequence:
#
# PCOD9499064 Si02
#       7
#    16  16  16  16  16  16  16
#     4  12  27  43  57  83 120 154 203 259 293 340
#     4   9  18  35  61  93 123 149 188 239 288 352
#     4  11  22  37  60  89 124 164 195 231 286 344
#     4  10  23  42  66  86 107 151 197 250 321 364
#     4   9  18  35  61  93 123 149 188 239 288 352
#     4  11  21  33  53  84 125 173 210 228 255 327
#     4  11  22  37  60  89 124 164 195 231 286 344
#
# _framework density 19.401477
#
# number of rings (size 3 to 8) (size 9 to 14) (size 15 to 20)
#    0.000    1.571    2.857    2.143    0.000    6.571 
#    0.000    2.857    0.000    0.000    0.000    6.000 
#    0.000    0.000    0.000    0.000    0.000    0.000 
#
# Total GULP energy -313164.979002 kJ/mol
# GULP energy per Si atom -5592.231768 kJ/mol
# Density = 1.935732 g / cm^3
# Si number density = 19.401477 Si / 1000 Ang^3
#
#
#
# Elastic Constant Matrix: (Units=GPa)
#
#
# Indices 1 2 3 4 5 6 
#
# 1 65.1254 21.3073 23.0195 0.0000 0.0000 0.0000
# 2 21.3073 16.1230 15.6127 0.0000 0.0000 0.0000
# 3 23.0195 15.6127 68.8292 0.0000 0.0000 0.0000
# 4 0.0000 0.0000 0.0000 -12.8718 0.0000 0.0000
# 5 0.0000 0.0000 0.0000 0.0000 -119.9047 0.0000
# 6 0.0000 0.0000 0.0000 0.0000 0.0000 -70.4288
#
#
#
# Elastic Compliance Matrix: (Units=1/GPa)
#
#
# Indices 1 2 3 4 5 6 
#
# 1 0.027129 -0.034685 -0.001205 0.000000 0.000000 0.000000
# 2 -0.034685 0.123826 -0.016488 0.000000 0.000000 0.000000
# 3 -0.001205 -0.016488 0.018672 0.000000 0.000000 0.000000
# 4 0.000000 0.000000 0.000000 -0.077689 0.000000 0.000000
# 5 0.000000 0.000000 0.000000 0.000000 -0.008340 0.000000
# 6 0.000000 0.000000 0.000000 0.000000 0.000000 -0.014199
#
#
# Mechanical properties :
#
#
# Convention : Reuss Voigt Hill
#
# Bulk Modulus (GPa) = 15.41517 29.99519 22.70518
# Shear Modulus (GPa) = 25.53898 -34.63186 -4.54644
#
# Velocity S-wave (km/s) = 3.63208 -4.22952 -1.53246
# Velocity P-wave (km/s) = 5.05489 2.89102 2.93206
#
# Compressibility (1/GPa) = 0.06487117
#
# Stress axis : x y z
#
# Youngs Moduli (GPa) = 36.86089 8.07582 53.55659
#
# Poissons Ratio (x) = 0.28011 0.06456
# Poissons Ratio (y) = 1.27851 0.88303
# Poissons Ratio (z) = 0.04444 0.13315
#
# Static dielectric constant tensor:
#      x y z
#    x 1.679630 0.000000 0.000000 
#    y 0.000000 1.629780 0.000000 
#    z 0.000000 0.000000 1.696930 
# 
# From -- ./inp_files/28743.got.cif
#   From: 2010.05.17/outbox.cif.g08.bks.cpg/sg66_15_cif.got.tgz:28743.got - 2010.06.03 17:51:23.
