data_PCOD9499473
_publ_section_title
;
Structure prediction by ZEFSAII (Michael W. Deem and Ramdas Pophale) SiO2 
 PCOD9499473
Probable space group: C C C M
;
_chemical_formula_sum "Si O2"
_cell_formula_units_Z 96
_cell_length_a 27.696767
_cell_length_b 13.826084
_cell_length_c 12.968831
_cell_angle_alpha 90.000000
_cell_angle_beta 90.000000
_cell_angle_gamma 90.000000
_cell_volume 4966.255963
_symmetry_space_group_name_H-M "C C C M"
_symmetry_group_IT_number 66
_symmetry_cell_setting 'orthorhombic'
loop_
_space_group_symop_operation_xyz
x,y,z
-x,-y,z
x,-y,1/2-z
-x,y,1/2-z
-x,-y,-z
x,y,-z
-x,y,1/2+z
x,-y,1/2+z
1/2+x,1/2+y,z
1/2-x,1/2-y,z
1/2+x,1/2-y,1/2-z
1/2-x,1/2+y,1/2-z
1/2-x,1/2-y,-z
1/2+x,1/2+y,-z
1/2-x,1/2+y,1/2+z
1/2+x,1/2-y,1/2+z
loop_
_atom_site_type_symbol
_atom_site_label
_atom_site_fract_x
_atom_site_fract_y
_atom_site_fract_z
Si Si1 0.308561 0.908166 0.709992
Si Si2 0.250059 0.130923 0.000000
Si Si3 0.855985 0.976171 0.000000
Si Si4 0.733030 0.639142 0.619034
Si Si5 0.141399 0.223020 0.289740
Si Si6 0.608093 0.697269 0.500000
Si Si7 0.999812 0.883110 0.500000
Si Si8 0.429539 0.409947 0.823157
O O1 0.279751 0.902165 0.601987
O O2 0.270289 0.909257 0.804380
O O3 0.337752 0.807984 0.720383
O O4 0.339758 0.000000 0.750000
O O5 0.250000 0.250000 0.000000
O O6 0.195561 0.082426 0.000000
O O7 0.887091 0.944693 0.099481
O O8 0.863450 0.093434 0.000000
O O9 0.733251 0.604127 0.500000
O O10 0.750000 0.750000 0.612113
O O11 0.683394 0.645148 0.683728
O O12 0.125407 0.257532 0.402224
O O13 0.095188 0.170712 0.245308
O O14 0.552431 0.665213 0.500000
O O15 0.029046 0.864674 0.605120
O O16 0.000000 0.000000 0.500000
O O17 0.444000 0.500000 0.750000
#
# Coordination Sequence:
#
# PCOD9499473 Si02
#       8
#    16   8   8  16  16   8   8  16
#     4  11  26  39  61  88 120 171 215 268 324 363
#     4  12  25  44  59  86 135 169 225 275 310 384
#     4  11  22  36  57  88 114 166 205 240 305 371
#     4   9  18  34  57  82 115 153 204 257 302 355
#     4  11  22  38  57  90 118 161 209 259 313 371
#     4  12  23  37  61  92 120 155 209 260 307 389
#     4  11  22  40  55  91 124 162 199 248 325 393
#     4  11  21  36  60  85 127 159 196 246 316 396
#
# _framework density 19.330458
#
# number of rings (size 3 to 8) (size 9 to 14) (size 15 to 20)
#    0.000    1.167    4.167    3.500    4.667    4.333 
#    0.000    0.000    0.000    0.000    0.000    3.500 
#    0.000    0.000    0.000    0.000    0.000    0.000 
#
# Total GULP energy -267573.538329 kJ/mol
# GULP energy per Si atom -5574.448715 kJ/mol
# Density = 1.928646 g / cm^3
# Si number density = 19.330458 Si / 1000 Ang^3
#
#
#
# Elastic Constant Matrix: (Units=GPa)
#
#
# Indices 1 2 3 4 5 6 
#
# 1 88.9138 8.5171 23.6637 0.0000 0.0000 0.0000
# 2 8.5171 54.0348 18.0060 0.0000 0.0000 0.0000
# 3 23.6637 18.0060 116.8863 0.0000 0.0000 0.0000
# 4 0.0000 0.0000 0.0000 22.3800 0.0000 0.0000
# 5 0.0000 0.0000 0.0000 0.0000 41.3001 0.0000
# 6 0.0000 0.0000 0.0000 0.0000 0.0000 12.8644
#
#
#
# Elastic Compliance Matrix: (Units=1/GPa)
#
#
# Indices 1 2 3 4 5 6 
#
# 1 0.011953 -0.001136 -0.002245 0.000000 0.000000 0.000000
# 2 -0.001136 0.019616 -0.002792 0.000000 0.000000 0.000000
# 3 -0.002245 -0.002792 0.009440 0.000000 0.000000 0.000000
# 4 0.000000 0.000000 0.000000 0.044683 0.000000 0.000000
# 5 0.000000 0.000000 0.000000 0.000000 0.024213 0.000000
# 6 0.000000 0.000000 0.000000 0.000000 0.000000 0.077734
#
#
# Mechanical properties :
#
#
# Convention : Reuss Voigt Hill
#
# Bulk Modulus (GPa) = 34.88753 40.02316 37.45535
# Shear Modulus (GPa) = 23.86194 29.28544 26.57369
#
# Velocity S-wave (km/s) = 3.51725 3.89651 3.71172
# Velocity P-wave (km/s) = 5.88063 6.40261 6.14716
#
# Compressibility (1/GPa) = 0.02866353
#
# Stress axis : x y z
#
# Youngs Moduli (GPa) = 83.66012 50.97887 105.93365
#
# Poissons Ratio (x) = 0.05791 0.23781
# Poissons Ratio (y) = 0.09504 0.29575
# Poissons Ratio (z) = 0.18781 0.14232
#
# Static dielectric constant tensor:
#      x y z
#    x 1.733300 0.000000 0.000000 
#    y 0.000000 1.863480 0.000000 
#    z 0.000000 0.000000 1.760010 
# 
# From -- ./inp_files/21458.got.cif
#   From: 2010.05.17/outbox.cif.g08.bks.cpg/sg66_11_cif.got.tgz:21458.got - 2010.06.03 17:51:23.
