data_PCOD9499233
_publ_section_title
;
Structure prediction by ZEFSAII (Michael W. Deem and Ramdas Pophale) SiO2 
 PCOD9499233
Probable space group: C C C M
;
_chemical_formula_sum "Si O2"
_cell_formula_units_Z 104
_cell_length_a 13.656922
_cell_length_b 20.177128
_cell_length_c 17.125005
_cell_angle_alpha 90.000000
_cell_angle_beta 90.000000
_cell_angle_gamma 90.000000
_cell_volume 4718.922936
_symmetry_space_group_name_H-M "C C C M"
_symmetry_group_IT_number 66
_symmetry_cell_setting 'orthorhombic'
loop_
_space_group_symop_operation_xyz
x,y,z
-x,-y,z
x,-y,1/2-z
-x,y,1/2-z
-x,-y,-z
x,y,-z
-x,y,1/2+z
x,-y,1/2+z
1/2+x,1/2+y,z
1/2-x,1/2-y,z
1/2+x,1/2-y,1/2-z
1/2-x,1/2+y,1/2-z
1/2-x,1/2-y,-z
1/2+x,1/2+y,-z
1/2-x,1/2+y,1/2+z
1/2+x,1/2-y,1/2+z
loop_
_atom_site_type_symbol
_atom_site_label
_atom_site_fract_x
_atom_site_fract_y
_atom_site_fract_z
Si Si1 0.364848 0.236011 0.202589
Si Si2 0.896331 0.683831 0.376607
Si Si3 0.693530 0.619656 0.382096
Si Si4 0.601079 0.380469 0.715499
Si Si5 0.756309 0.521176 0.159180
Si Si6 0.076674 0.800344 0.000000
Si Si7 0.081317 0.384585 0.907200
O O1 0.250000 0.250000 0.206529
O O2 0.396936 0.207048 0.286623
O O3 0.414668 0.306541 0.183768
O O4 0.381685 0.181660 0.136387
O O5 0.785982 0.665963 0.401254
O O6 0.931366 0.742375 0.432355
O O7 0.965717 0.619691 0.387589
O O8 0.668329 0.629817 0.291696
O O9 0.726152 0.543743 0.388889
O O10 0.603557 0.643768 0.432817
O O11 0.500000 0.409143 0.750000
O O12 0.664072 0.427980 0.660289
O O13 0.770832 0.500000 0.250000
O O14 0.853301 0.556553 0.127534
O O15 0.094067 0.382247 0.000000
#
# Coordination Sequence:
#
# PCOD9499233 Si02
#       7
#    16  16  16  16  16   8  16
#     4  12  21  42  70 100 133 183 236 289 354 416
#     4  12  22  42  69 103 138 176 231 292 353 421
#     4  11  23  39  68  96 135 176 225 292 349 409
#     4  11  22  41  71  99 130 178 242 295 344 417
#     4  10  24  46  67  98 138 195 238 283 353 432
#     4  12  23  40  66 103 137 172 227 304 355 386
#     4  12  27  44  69 106 151 185 231 290 367 443
#
# _framework density 22.038927000000001
#
# number of rings (size 3 to 8) (size 9 to 14) (size 15 to 20)
#    0.000    0.615    5.385    3.692    1.077    3.692 
#    0.000    3.077    1.692    0.923    0.000    0.000 
#    0.000    0.000    0.000    0.000    0.000    0.000 
#
# Total GULP energy -289786.198650 kJ/mol
# GULP energy per Si atom -5572.811512 kJ/mol
# Density = 2.198876 g / cm^3
# Si number density = 22.038927 Si / 1000 Ang^3
#
#
#
# Elastic Constant Matrix: (Units=GPa)
#
#
# Indices 1 2 3 4 5 6 
#
# 1 59.5877 8.7004 14.8836 0.0000 0.0000 0.0000
# 2 8.7004 100.5327 22.4010 0.0000 0.0000 0.0000
# 3 14.8836 22.4010 77.2417 0.0000 0.0000 0.0000
# 4 0.0000 0.0000 0.0000 -23.8344 0.0000 0.0000
# 5 0.0000 0.0000 0.0000 0.0000 -16.3024 0.0000
# 6 0.0000 0.0000 0.0000 0.0000 0.0000 28.6442
#
#
#
# Elastic Compliance Matrix: (Units=1/GPa)
#
#
# Indices 1 2 3 4 5 6 
#
# 1 0.017694 -0.000825 -0.003170 0.000000 0.000000 0.000000
# 2 -0.000825 0.010673 -0.002936 0.000000 0.000000 0.000000
# 3 -0.003170 -0.002936 0.014409 0.000000 0.000000 0.000000
# 4 0.000000 0.000000 0.000000 -0.041956 0.000000 0.000000
# 5 0.000000 0.000000 0.000000 0.000000 -0.061341 0.000000
# 6 0.000000 0.000000 0.000000 0.000000 0.000000 0.034911
#
#
# Mechanical properties :
#
#
# Convention : Reuss Voigt Hill
#
# Bulk Modulus (GPa) = 34.58662 36.59246 35.58954
# Shear Modulus (GPa) = -2370.32007 10.45994 -1179.93006
#
# Velocity S-wave (km/s) = -32.83063 2.18092 -23.16348
# Velocity P-wave (km/s) = 37.70154 4.79390 26.44262
#
# Compressibility (1/GPa) = 0.02891291
#
# Stress axis : x y z
#
# Youngs Moduli (GPa) = 56.51538 93.69734 69.40209
#
# Poissons Ratio (x) = 0.07729 0.22002
# Poissons Ratio (y) = 0.04662 0.20378
# Poissons Ratio (z) = 0.17917 0.27512
#
# Static dielectric constant tensor:
#      x y z
#    x 1.889230 0.000000 0.000000 
#    y 0.000000 1.828220 0.000000 
#    z 0.000000 0.000000 1.784150 
# 
# From -- ./inp_files/40562.got.cif
#   From: 2010.05.17/outbox.cif.g08.bks.cpg/sg66_21_cif.got.tgz:40562.got - 2010.06.03 17:51:23.
