data_PCOD9499732
_publ_section_title
;
Structure prediction by ZEFSAII (Michael W. Deem and Ramdas Pophale) SiO2 
 PCOD9499732
Probable space group: C C C M
;
_chemical_formula_sum "Si O2"
_cell_formula_units_Z 80
_cell_length_a 27.262896
_cell_length_b 7.461804
_cell_length_c 14.921919
_cell_angle_alpha 90.000000
_cell_angle_beta 90.000000
_cell_angle_gamma 90.000000
_cell_volume 3035.571748
_symmetry_space_group_name_H-M "C C C M"
_symmetry_group_IT_number 66
_symmetry_cell_setting 'orthorhombic'
loop_
_space_group_symop_operation_xyz
x,y,z
-x,-y,z
x,-y,1/2-z
-x,y,1/2-z
-x,-y,-z
x,y,-z
-x,y,1/2+z
x,-y,1/2+z
1/2+x,1/2+y,z
1/2-x,1/2-y,z
1/2+x,1/2-y,1/2-z
1/2-x,1/2+y,1/2-z
1/2-x,1/2-y,-z
1/2+x,1/2+y,-z
1/2-x,1/2+y,1/2+z
1/2+x,1/2-y,1/2+z
loop_
_atom_site_type_symbol
_atom_site_label
_atom_site_fract_x
_atom_site_fract_y
_atom_site_fract_z
Si Si1 0.963063 0.768128 0.390846
Si Si2 0.325450 0.775557 0.331227
Si Si3 0.434042 0.139259 0.891118
Si Si4 0.702701 0.857483 0.627901
Si Si5 0.132529 0.937865 0.099479
O O1 0.962425 0.787353 0.500000
O O2 0.947207 0.565345 0.368900
O O3 0.920638 0.902023 0.357709
O O4 0.020224 0.767154 0.365018
O O5 0.383287 0.815968 0.343337
O O6 0.304767 0.814096 0.233366
O O7 0.327243 0.565907 0.354362
O O8 0.298360 0.929913 0.388584
O O9 0.429567 0.145763 0.000000
O O10 0.750000 0.750000 0.597079
O O11 0.655099 0.759068 0.590627
O O12 0.125952 0.015569 0.000000
#
# Coordination Sequence:
#
# PCOD9499732 Si02
#       5
#    16  16  16  16  16
#     4   8  16  32  60  96 138 181 210 257 330 396
#     4  11  24  40  69  97 123 174 232 271 336 418
#     4   9  16  34  63  97 137 177 220 262 319 397
#     4  11  27  47  67  87 129 179 222 283 357 414
#     4  11  23  41  68 102 134 166 222 283 329 399
#
# _framework density 26.354181000000001
#
# number of rings (size 3 to 8) (size 9 to 14) (size 15 to 20)
#    0.000    2.000    2.000    2.400    5.600    2.000 
#    0.000    5.000    0.000    2.400    0.000    0.000 
#    0.000    0.000    0.000    0.000    0.000    0.000 
#
# Total GULP energy -223559.977661 kJ/mol
# GULP energy per Si atom -5588.999442 kJ/mol
# Density = 2.629420 g / cm^3
# Si number density = 26.354181 Si / 1000 Ang^3
#
#
#
# Elastic Constant Matrix: (Units=GPa)
#
#
# Indices 1 2 3 4 5 6 
#
# 1 149.3512 25.5115 10.6043 0.0000 0.0000 0.0000
# 2 25.5115 133.8103 16.2858 0.0000 0.0000 0.0000
# 3 10.6043 16.2858 72.4035 0.0000 0.0000 0.0000
# 4 0.0000 0.0000 0.0000 33.1477 0.0000 0.0000
# 5 0.0000 0.0000 0.0000 0.0000 12.1697 0.0000
# 6 0.0000 0.0000 0.0000 0.0000 0.0000 62.1741
#
#
#
# Elastic Compliance Matrix: (Units=1/GPa)
#
#
# Indices 1 2 3 4 5 6 
#
# 1 0.006959 -0.001237 -0.000741 0.000000 0.000000 0.000000
# 2 -0.001237 0.007903 -0.001597 0.000000 0.000000 0.000000
# 3 -0.000741 -0.001597 0.014279 0.000000 0.000000 0.000000
# 4 0.000000 0.000000 0.000000 0.030168 0.000000 0.000000
# 5 0.000000 0.000000 0.000000 0.000000 0.082171 0.000000
# 6 0.000000 0.000000 0.000000 0.000000 0.000000 0.016084
#
#
# Mechanical properties :
#
#
# Convention : Reuss Voigt Hill
#
# Bulk Modulus (GPa) = 45.46849 51.15201 48.31025
# Shear Modulus (GPa) = 29.06213 41.70918 35.38565
#
# Velocity S-wave (km/s) = 3.32437 3.98256 3.66826
# Velocity P-wave (km/s) = 5.65912 6.37175 6.02598
#
# Compressibility (1/GPa) = 0.02199326
#
# Stress axis : x y z
#
# Youngs Moduli (GPa) = 143.68868 126.52850 70.03212
#
# Poissons Ratio (x) = 0.15647 0.05190
# Poissons Ratio (y) = 0.17769 0.11181
# Poissons Ratio (z) = 0.10649 0.20201
#
# Static dielectric constant tensor:
#      x y z
#    x 2.026800 0.000000 0.000000 
#    y 0.000000 2.106790 0.000000 
#    z 0.000000 0.000000 2.218700 
# 
# From -- ./inp_files/44597.got.cif
#   From: 2010.05.17/outbox.cif.g08.bks.cpg/sg66_23_cif.got.tgz:44597.got - 2010.06.03 17:51:23.
