data_PCOD9499499
_publ_section_title
;
Structure prediction by ZEFSAII (Michael W. Deem and Ramdas Pophale) SiO2 
 PCOD9499499
Probable space group: C C C M
;
_chemical_formula_sum "Si O2"
_cell_formula_units_Z 104
_cell_length_a 22.988424
_cell_length_b 8.275555
_cell_length_c 28.954021
_cell_angle_alpha 90.000000
_cell_angle_beta 90.000000
_cell_angle_gamma 90.000000
_cell_volume 5508.269913
_symmetry_space_group_name_H-M "C C C M"
_symmetry_group_IT_number 66
_symmetry_cell_setting 'orthorhombic'
loop_
_space_group_symop_operation_xyz
x,y,z
-x,-y,z
x,-y,1/2-z
-x,y,1/2-z
-x,-y,-z
x,y,-z
-x,y,1/2+z
x,-y,1/2+z
1/2+x,1/2+y,z
1/2-x,1/2-y,z
1/2+x,1/2-y,1/2-z
1/2-x,1/2+y,1/2-z
1/2-x,1/2-y,-z
1/2+x,1/2+y,-z
1/2-x,1/2+y,1/2+z
1/2+x,1/2-y,1/2+z
loop_
_atom_site_type_symbol
_atom_site_label
_atom_site_fract_x
_atom_site_fract_y
_atom_site_fract_z
Si Si1 0.766220 0.991172 0.949309
Si Si2 0.891778 0.287407 0.848263
Si Si3 0.490800 0.804423 0.302929
Si Si4 0.250000 0.750000 0.629793
Si Si5 0.847959 0.694814 0.550823
Si Si6 0.862535 0.352904 0.687705
Si Si7 0.813536 0.175101 0.774269
O O1 0.808294 0.144874 0.947656
O O2 0.699524 0.051759 0.946966
O O3 0.775079 0.882920 0.905064
O O4 0.775931 0.915783 0.000000
O O5 0.956725 0.240572 0.833744
O O6 0.885586 0.303924 0.903070
O O7 0.874464 0.460909 0.825620
O O8 0.846921 0.166935 0.822963
O O9 0.500000 0.749656 0.250000
O O10 0.425732 0.771145 0.320734
O O11 0.500000 0.000000 0.302418
O O12 0.195757 0.693855 0.660392
O O13 0.876749 0.688107 0.500000
O O14 0.847672 0.296995 0.739810
O O15 0.750000 0.250000 0.781455
O O16 0.809882 0.000000 0.750000
#
# Coordination Sequence:
#
# PCOD9499499 Si02
#       7
#    16  16  16   8  16  16  16
#     4   9  19  35  54  80 113 148 186 234 285 345
#     4  11  21  38  64  78 113 159 191 238 288 332
#     4   9  18  36  58  79 109 152 200 231 274 345
#     4  12  21  32  56  86 120 144 179 234 300 344
#     4   9  19  35  56  84 110 143 195 234 278 345
#     4  11  22  37  55  88 115 147 191 237 282 350
#     4  12  26  37  54  85 122 152 188 233 287 349
#
# _framework density 18.880701999999999
#
# number of rings (size 3 to 8) (size 9 to 14) (size 15 to 20)
#    0.000    1.692    3.846    2.538    4.308    0.000 
#    0.000    1.538    0.000    6.000    0.000    2.154 
#    0.000    0.000    0.000    0.000    0.000    0.000 
#
# Total GULP energy -289976.731530 kJ/mol
# GULP energy per Si atom -5576.475606 kJ/mol
# Density = 1.883773 g / cm^3
# Si number density = 18.880702 Si / 1000 Ang^3
#
#
#
# Elastic Constant Matrix: (Units=GPa)
#
#
# Indices 1 2 3 4 5 6 
#
# 1 130.7920 4.1638 44.4225 0.0000 0.0000 0.0000
# 2 4.1638 27.7186 9.9687 0.0000 0.0000 0.0000
# 3 44.4225 9.9687 131.4447 0.0000 0.0000 0.0000
# 4 0.0000 0.0000 0.0000 25.4377 0.0000 0.0000
# 5 0.0000 0.0000 0.0000 0.0000 45.7086 0.0000
# 6 0.0000 0.0000 0.0000 0.0000 0.0000 10.4878
#
#
#
# Elastic Compliance Matrix: (Units=1/GPa)
#
#
# Indices 1 2 3 4 5 6 
#
# 1 0.008639 -0.000255 -0.002900 0.000000 0.000000 0.000000
# 2 -0.000255 0.037096 -0.002727 0.000000 0.000000 0.000000
# 3 -0.002900 -0.002727 0.008795 0.000000 0.000000 0.000000
# 4 0.000000 0.000000 0.000000 0.039312 0.000000 0.000000
# 5 0.000000 0.000000 0.000000 0.000000 0.021878 0.000000
# 6 0.000000 0.000000 0.000000 0.000000 0.000000 0.095349
#
#
# Mechanical properties :
#
#
# Convention : Reuss Voigt Hill
#
# Bulk Modulus (GPa) = 23.38351 45.22947 34.30649
# Shear Modulus (GPa) = 21.08926 31.75351 26.42139
#
# Velocity S-wave (km/s) = 3.34574 4.10542 3.74489
# Velocity P-wave (km/s) = 5.22849 6.81763 6.07524
#
# Compressibility (1/GPa) = 0.04276519
#
# Stress axis : x y z
#
# Youngs Moduli (GPa) = 115.75566 26.95716 113.70417
#
# Poissons Ratio (x) = 0.00686 0.32977
# Poissons Ratio (y) = 0.02948 0.31010
# Poissons Ratio (z) = 0.33572 0.07352
#
# Static dielectric constant tensor:
#      x y z
#    x 1.643290 0.000000 0.000000 
#    y 0.000000 1.717050 0.000000 
#    z 0.000000 0.000000 1.667980 
# 
# From -- ./inp_files/68281.got.cif
#   From: 2010.05.17/outbox.cif.g08.bks.cpg/sg66_35_cif.got.tgz:68281.got - 2010.06.03 17:51:23.
