data_PCOD9499904
_publ_section_title
;
Structure prediction by ZEFSAII (Michael W. Deem and Ramdas Pophale) SiO2 
 PCOD9499904
Probable space group: C C C M
;
_chemical_formula_sum "Si O2"
_cell_formula_units_Z 36
_cell_length_a 17.843441
_cell_length_b 4.755058
_cell_length_c 18.848760
_cell_angle_alpha 90.000000
_cell_angle_beta 90.000000
_cell_angle_gamma 90.000000
_cell_volume 1599.253141
_symmetry_space_group_name_H-M "C C C M"
_symmetry_group_IT_number 66
_symmetry_cell_setting 'orthorhombic'
loop_
_space_group_symop_operation_xyz
x,y,z
-x,-y,z
x,-y,1/2-z
-x,y,1/2-z
-x,-y,-z
x,y,-z
-x,y,1/2+z
x,-y,1/2+z
1/2+x,1/2+y,z
1/2-x,1/2-y,z
1/2+x,1/2-y,1/2-z
1/2-x,1/2+y,1/2-z
1/2-x,1/2-y,-z
1/2+x,1/2+y,-z
1/2-x,1/2+y,1/2+z
1/2+x,1/2-y,1/2+z
loop_
_atom_site_type_symbol
_atom_site_label
_atom_site_fract_x
_atom_site_fract_y
_atom_site_fract_z
Si Si1 0.500000 0.000000 0.750000
Si Si2 0.924218 0.135881 0.129787
Si Si3 0.337417 0.829041 0.579709
O O1 0.452449 0.799582 0.801537
O O2 0.870096 0.357053 0.089270
O O3 0.875139 0.859830 0.139900
O O4 0.000000 0.000000 0.095251
O O5 0.361353 0.740658 0.500000
O O6 0.250000 0.750000 0.583088
#
# Coordination Sequence:
#
# PCOD9499904 Si02
#       3
#     4  16  16
#     4  12  26  48  68  96 138 180 232 298 314 400
#     4  12  24  44  74  96 137 182 231 281 343 399
#     4  11  25  45  70 105 143 174 219 287 356 418
#
# _framework density 22.51051
#
# number of rings (size 3 to 8) (size 9 to 14) (size 15 to 20)
#    0.000    0.444    4.444    3.333    0.000    8.889 
#    0.000    4.444    0.000    0.000    0.000    0.000 
#    0.000    0.000    0.000    0.000    0.000    0.000 
#
# Total GULP energy -100309.144732 kJ/mol
# GULP energy per Si atom -5572.730263 kJ/mol
# Density = 2.245928 g / cm^3
# Si number density = 22.510510 Si / 1000 Ang^3
#
#
#
# Elastic Constant Matrix: (Units=GPa)
#
#
# Indices 1 2 3 4 5 6 
#
# 1 134.5565 54.2029 27.6800 0.0000 0.0000 0.0000
# 2 54.2029 162.8832 22.3236 0.0000 0.0000 0.0000
# 3 27.6800 22.3236 59.4540 0.0000 0.0000 0.0000
# 4 0.0000 0.0000 0.0000 13.6902 0.0000 0.0000
# 5 0.0000 0.0000 0.0000 0.0000 19.0969 0.0000
# 6 0.0000 0.0000 0.0000 0.0000 0.0000 51.3352
#
#
#
# Elastic Compliance Matrix: (Units=1/GPa)
#
#
# Indices 1 2 3 4 5 6 
#
# 1 0.009154 -0.002596 -0.003287 0.000000 0.000000 0.000000
# 2 -0.002596 0.007208 -0.001498 0.000000 0.000000 0.000000
# 3 -0.003287 -0.001498 0.018913 0.000000 0.000000 0.000000
# 4 0.000000 0.000000 0.000000 0.073045 0.000000 0.000000
# 5 0.000000 0.000000 0.000000 0.000000 0.052364 0.000000
# 6 0.000000 0.000000 0.000000 0.000000 0.000000 0.019480
#
#
# Mechanical properties :
#
#
# Convention : Reuss Voigt Hill
#
# Bulk Modulus (GPa) = 48.74952 62.81185 55.78069
# Shear Modulus (GPa) = 24.78154 33.67028 29.22591
#
# Velocity S-wave (km/s) = 3.32156 3.87170 3.60713
# Velocity P-wave (km/s) = 6.03438 6.92464 6.49478
#
# Compressibility (1/GPa) = 0.02051302
#
# Stress axis : x y z
#
# Youngs Moduli (GPa) = 109.24702 138.72663 52.87479
#
# Poissons Ratio (x) = 0.36007 0.17380
# Poissons Ratio (y) = 0.28356 0.07922
# Poissons Ratio (z) = 0.35910 0.20784
#
# Static dielectric constant tensor:
#      x y z
#    x 1.946250 0.000000 0.000000 
#    y 0.000000 1.872050 0.000000 
#    z 0.000000 0.000000 1.842320 
# 
# From -- ./inp_files/45094.got.cif
#   From: 2010.05.17/outbox.cif.g08.bks.cpg/sg66_23_cif.got.tgz:45094.got - 2010.06.03 17:51:23.
