data_PCOD9499238
_publ_section_title
;
Structure prediction by ZEFSAII (Michael W. Deem and Ramdas Pophale) SiO2 
 PCOD9499238
Probable space group: C C C M
;
_chemical_formula_sum "Si O2"
_cell_formula_units_Z 40
_cell_length_a 25.239228
_cell_length_b 6.327143
_cell_length_c 10.942009
_cell_angle_alpha 90.000000
_cell_angle_beta 90.000000
_cell_angle_gamma 90.000000
_cell_volume 1747.353542
_symmetry_space_group_name_H-M "C C C M"
_symmetry_group_IT_number 66
_symmetry_cell_setting 'orthorhombic'
loop_
_space_group_symop_operation_xyz
x,y,z
-x,-y,z
x,-y,1/2-z
-x,y,1/2-z
-x,-y,-z
x,y,-z
-x,y,1/2+z
x,-y,1/2+z
1/2+x,1/2+y,z
1/2-x,1/2-y,z
1/2+x,1/2-y,1/2-z
1/2-x,1/2+y,1/2-z
1/2-x,1/2-y,-z
1/2+x,1/2+y,-z
1/2-x,1/2+y,1/2+z
1/2+x,1/2-y,1/2+z
loop_
_atom_site_type_symbol
_atom_site_label
_atom_site_fract_x
_atom_site_fract_y
_atom_site_fract_z
Si Si1 0.442271 0.112688 0.366762
Si Si2 0.689535 0.170548 0.358793
Si Si3 0.606413 0.500000 0.750000
O O1 0.419351 0.076664 0.500000
O O2 0.432600 0.356860 0.333568
O O3 0.500000 0.000000 0.372587
O O4 0.417918 0.000000 0.250000
O O5 0.683107 0.096978 0.500000
O O6 0.750000 0.250000 0.351938
O O7 0.646316 0.354518 0.329763
O O8 0.686627 0.000000 0.250000
#
# Coordination Sequence:
#
# PCOD9499238 Si02
#       3
#    16  16   8
#     4  10  24  46  71 102 140 184 240 297 352 417
#     4  11  25  45  70 105 145 189 239 293 353 427
#     4  12  24  43  74 106 142 194 237 290 358 424
#
# _framework density 22.891760000000001
#
# number of rings (size 3 to 8) (size 9 to 14) (size 15 to 20)
#    0.000    1.200    2.000    2.400    0.000   13.600 
#    0.000   10.000    0.000    0.000    0.000    0.000 
#    0.000    0.000    0.000    0.000    0.000    0.000 
#
# Total GULP energy -111377.288091 kJ/mol
# GULP energy per Si atom -5568.864405 kJ/mol
# Density = 2.283966 g / cm^3
# Si number density = 22.891760 Si / 1000 Ang^3
#
#
#
# Elastic Constant Matrix: (Units=GPa)
#
#
# Indices 1 2 3 4 5 6 
#
# 1 197.3811 84.1486 40.8714 0.0000 0.0000 0.0000
# 2 84.1486 119.4812 87.3747 0.0000 0.0000 0.0000
# 3 40.8714 87.3747 278.6394 0.0000 0.0000 0.0000
# 4 0.0000 0.0000 0.0000 -67.2861 0.0000 0.0000
# 5 0.0000 0.0000 0.0000 0.0000 2.4133 0.0000
# 6 0.0000 0.0000 0.0000 0.0000 0.0000 47.1559
#
#
#
# Elastic Compliance Matrix: (Units=1/GPa)
#
#
# Indices 1 2 3 4 5 6 
#
# 1 0.007346 -0.005691 0.000707 0.000000 0.000000 0.000000
# 2 -0.005691 0.015268 -0.003953 0.000000 0.000000 0.000000
# 3 0.000707 -0.003953 0.004725 0.000000 0.000000 0.000000
# 4 0.000000 0.000000 0.000000 -0.014862 0.000000 0.000000
# 5 0.000000 0.000000 0.000000 0.000000 0.414372 0.000000
# 6 0.000000 0.000000 0.000000 0.000000 0.000000 0.021206
#
#
# Mechanical properties :
#
#
# Convention : Reuss Voigt Hill
#
# Bulk Modulus (GPa) = 105.64761 113.36568 109.50664
# Shear Modulus (GPa) = 10.65908 21.99709 16.32809
#
# Velocity S-wave (km/s) = 2.16019 3.10323 2.67362
# Velocity P-wave (km/s) = 7.24382 7.90380 7.58100
#
# Compressibility (1/GPa) = 0.00946543
#
# Stress axis : x y z
#
# Youngs Moduli (GPa) = 136.12791 65.49594 211.65165
#
# Poissons Ratio (x) = 0.37271 -0.14962
# Poissons Ratio (y) = 0.77466 0.83666
# Poissons Ratio (z) = -0.09623 0.25891
#
# Static dielectric constant tensor:
#      x y z
#    x 1.980790 0.000000 0.000000 
#    y 0.000000 2.115400 0.000000 
#    z 0.000000 0.000000 1.833950 
# 
# From -- ./inp_files/12316.got.cif
#   From: 2010.05.17/outbox.cif.g08.bks.cpg/sg66_7_cif.got.tgz:12316.got - 2010.06.03 17:51:23.
