data_PCOD9499795
_publ_section_title
;
Structure prediction by ZEFSAII (Michael W. Deem and Ramdas Pophale) SiO2 
 PCOD9499795
Probable space group: C C C M
;
_chemical_formula_sum "Si O2"
_cell_formula_units_Z 112
_cell_length_a 12.221789
_cell_length_b 27.956360
_cell_length_c 16.679138
_cell_angle_alpha 90.000000
_cell_angle_beta 90.000000
_cell_angle_gamma 90.000000
_cell_volume 5698.873383
_symmetry_space_group_name_H-M "C C C M"
_symmetry_group_IT_number 66
_symmetry_cell_setting 'orthorhombic'
loop_
_space_group_symop_operation_xyz
x,y,z
-x,-y,z
x,-y,1/2-z
-x,y,1/2-z
-x,-y,-z
x,y,-z
-x,y,1/2+z
x,-y,1/2+z
1/2+x,1/2+y,z
1/2-x,1/2-y,z
1/2+x,1/2-y,1/2-z
1/2-x,1/2+y,1/2-z
1/2-x,1/2-y,-z
1/2+x,1/2+y,-z
1/2-x,1/2+y,1/2+z
1/2+x,1/2-y,1/2+z
loop_
_atom_site_type_symbol
_atom_site_label
_atom_site_fract_x
_atom_site_fract_y
_atom_site_fract_z
Si Si1 0.586488 0.708703 0.907884
Si Si2 0.963163 0.554632 0.413903
Si Si3 0.729989 0.437593 0.157056
Si Si4 0.346582 0.090902 0.823641
Si Si5 0.153274 0.310960 0.093615
Si Si6 0.162350 0.035886 0.907782
Si Si7 0.987669 0.111733 0.844459
O O1 0.716707 0.699213 0.907744
O O2 0.583250 0.764189 0.881696
O O3 0.527042 0.665601 0.862506
O O4 0.548756 0.706432 0.000000
O O5 0.991760 0.577352 0.500000
O O6 0.834462 0.559181 0.400360
O O7 0.000000 0.500000 0.417776
O O8 0.030571 0.573837 0.338751
O O9 0.783327 0.424549 0.243246
O O10 0.670527 0.489257 0.148977
O O11 0.638190 0.398956 0.134853
O O12 0.354639 0.146572 0.843215
O O13 0.273373 0.065687 0.892775
O O14 0.125057 0.322121 0.000000
O O15 0.065429 0.072980 0.887900
O O16 0.153607 0.020244 0.000000
O O17 0.000000 0.102698 0.750000
#
# Coordination Sequence:
#
# PCOD9499795 Si02
#       7
#    16  16  16  16  16  16  16
#     4   9  18  34  60  91 121 157 205 268 329 384
#     4  11  24  40  61  86 118 164 222 275 323 390
#     4  12  26  40  60  90 133 175 217 267 339 406
#     4  12  22  39  65  91 122 167 215 277 330 384
#     4   9  17  34  62  93 120 152 209 271 322 379
#     4  12  24  39  62  91 128 178 226 268 320 398
#     4  12  24  39  60  91 134 177 214 268 334 405
#
# _framework density 19.653008
#
# number of rings (size 3 to 8) (size 9 to 14) (size 15 to 20)
#    0.000    1.000    4.286    4.286    0.000    4.000 
#    0.000    1.429    0.000    2.571    0.000    3.000 
#    0.000    0.000    0.000    0.000    0.000    0.000 
#
# Total GULP energy -312399.758043 kJ/mol
# GULP energy per Si atom -5578.567108 kJ/mol
# Density = 1.960828 g / cm^3
# Si number density = 19.653008 Si / 1000 Ang^3
#
#
#
# Elastic Constant Matrix: (Units=GPa)
#
#
# Indices 1 2 3 4 5 6 
#
# 1 92.0704 37.1471 20.3178 0.0000 0.0000 0.0000
# 2 37.1471 134.6166 52.5518 0.0000 0.0000 0.0000
# 3 20.3178 52.5518 96.4647 0.0000 0.0000 0.0000
# 4 0.0000 0.0000 0.0000 34.6605 0.0000 0.0000
# 5 0.0000 0.0000 0.0000 0.0000 75.2981 0.0000
# 6 0.0000 0.0000 0.0000 0.0000 0.0000 31.2931
#
#
#
# Elastic Compliance Matrix: (Units=1/GPa)
#
#
# Indices 1 2 3 4 5 6 
#
# 1 0.012289 -0.003024 -0.000941 0.000000 0.000000 0.000000
# 2 -0.003024 0.010179 -0.004908 0.000000 0.000000 0.000000
# 3 -0.000941 -0.004908 0.013239 0.000000 0.000000 0.000000
# 4 0.000000 0.000000 0.000000 0.028851 0.000000 0.000000
# 5 0.000000 0.000000 0.000000 0.000000 0.013281 0.000000
# 6 0.000000 0.000000 0.000000 0.000000 0.000000 0.031956
#
#
# Mechanical properties :
#
#
# Convention : Reuss Voigt Hill
#
# Bulk Modulus (GPa) = 55.67875 60.35388 58.01632
# Shear Modulus (GPa) = 37.44542 42.45934 39.95238
#
# Velocity S-wave (km/s) = 4.36974 4.65311 4.51365
# Velocity P-wave (km/s) = 7.33839 7.72301 7.53316
#
# Compressibility (1/GPa) = 0.01796017
#
# Stress axis : x y z
#
# Youngs Moduli (GPa) = 81.37432 98.24090 75.53597
#
# Poissons Ratio (x) = 0.29705 0.07109
# Poissons Ratio (y) = 0.24605 0.37077
# Poissons Ratio (z) = 0.07658 0.48221
#
# Static dielectric constant tensor:
#      x y z
#    x 1.683920 0.000000 0.000000 
#    y 0.000000 1.764870 0.000000 
#    z 0.000000 0.000000 1.739920 
# 
# From -- ./inp_files/27008.got.cif
#   From: 2010.05.17/outbox.cif.g08.bks.cpg/sg66_14_cif.got.tgz:27008.got - 2010.06.03 17:51:23.
