data_PCOD9499687
_publ_section_title
;
Structure prediction by ZEFSAII (Michael W. Deem and Ramdas Pophale) SiO2 
 PCOD9499687
Probable space group: C C C M
;
_chemical_formula_sum "Si O2"
_cell_formula_units_Z 48
_cell_length_a 15.020166
_cell_length_b 9.381958
_cell_length_c 14.526866
_cell_angle_alpha 90.000000
_cell_angle_beta 90.000000
_cell_angle_gamma 90.000000
_cell_volume 2047.105133
_symmetry_space_group_name_H-M "C C C M"
_symmetry_group_IT_number 66
_symmetry_cell_setting 'orthorhombic'
loop_
_space_group_symop_operation_xyz
x,y,z
-x,-y,z
x,-y,1/2-z
-x,y,1/2-z
-x,-y,-z
x,y,-z
-x,y,1/2+z
x,-y,1/2+z
1/2+x,1/2+y,z
1/2-x,1/2-y,z
1/2+x,1/2-y,1/2-z
1/2-x,1/2+y,1/2-z
1/2-x,1/2-y,-z
1/2+x,1/2+y,-z
1/2-x,1/2+y,1/2+z
1/2+x,1/2-y,1/2+z
loop_
_atom_site_type_symbol
_atom_site_label
_atom_site_fract_x
_atom_site_fract_y
_atom_site_fract_z
Si Si1 0.002053 0.164543 0.860175
Si Si2 0.096189 0.560036 0.145236
Si Si3 0.758915 0.579836 0.500000
Si Si4 0.651702 0.682533 0.000000
O O1 0.920397 0.271583 0.876382
O O2 0.000000 0.167314 0.750000
O O3 0.091022 0.220330 0.911252
O O4 0.000000 0.000000 0.887961
O O5 0.105674 0.500000 0.250000
O O6 0.000000 0.500000 0.114738
O O7 0.183335 0.528439 0.087644
O O8 0.750000 0.750000 0.500000
O O9 0.670022 0.487274 0.500000
O O10 0.750000 0.750000 0.000000
#
# Coordination Sequence:
#
# PCOD9499687 Si02
#       4
#    16  16   8   8
#     4  11  23  45  71  99 136 188 233 275 340 430
#     4  11  22  45  71 101 133 185 235 276 337 424
#     4  12  26  46  70 104 144 180 222 294 356 402
#     4  12  26  44  70 108 138 172 230 298 346 396
#
# _framework density 23.447745999999999
#
# number of rings (size 3 to 8) (size 9 to 14) (size 15 to 20)
#    0.000    0.667    3.333    6.000    0.000    0.000 
#   12.000    0.000    0.000    0.000    0.000    0.000 
#    0.000    0.000    0.000    0.000    0.000    0.000 
#
# Total GULP energy -133876.376522 kJ/mol
# GULP energy per Si atom -5578.182355 kJ/mol
# Density = 2.339438 g / cm^3
# Si number density = 23.447746 Si / 1000 Ang^3
#
#
#
# Elastic Constant Matrix: (Units=GPa)
#
#
# Indices 1 2 3 4 5 6 
#
# 1 122.7533 24.7115 95.0166 0.0000 0.0000 0.0000
# 2 24.7115 126.0325 36.9421 0.0000 0.0000 0.0000
# 3 95.0166 36.9421 146.2034 0.0000 0.0000 0.0000
# 4 0.0000 0.0000 0.0000 -8.4255 0.0000 0.0000
# 5 0.0000 0.0000 0.0000 0.0000 421.5748 0.0000
# 6 0.0000 0.0000 0.0000 0.0000 0.0000 50.2070
#
#
#
# Elastic Compliance Matrix: (Units=1/GPa)
#
#
# Indices 1 2 3 4 5 6 
#
# 1 0.016394 -0.000099 -0.010629 0.000000 0.000000 0.000000
# 2 -0.000099 0.008570 -0.002101 0.000000 0.000000 0.000000
# 3 -0.010629 -0.002101 0.014279 0.000000 0.000000 0.000000
# 4 0.000000 0.000000 0.000000 -0.118687 0.000000 0.000000
# 5 0.000000 0.000000 0.000000 0.000000 0.002372 0.000000
# 6 0.000000 0.000000 0.000000 0.000000 0.000000 0.019918
#
#
# Mechanical properties :
#
#
# Convention : Reuss Voigt Hill
#
# Bulk Modulus (GPa) = 73.61761 78.70326 76.16043
# Shear Modulus (GPa) = -185.39723 108.55919 -38.41902
#
# Velocity S-wave (km/s) = -8.90168 6.81167 -4.05222
# Velocity P-wave (km/s) = 8.61328 9.77258 3.26457
#
# Compressibility (1/GPa) = 0.01358371
#
# Stress axis : x y z
#
# Youngs Moduli (GPa) = 60.99845 116.69006 70.03485
#
# Poissons Ratio (x) = 0.01153 0.74442
# Poissons Ratio (y) = 0.00602 0.14716
# Poissons Ratio (z) = 0.64837 0.24519
#
# Static dielectric constant tensor:
#      x y z
#    x 1.785560 0.000000 0.000000 
#    y 0.000000 2.052580 0.000000 
#    z 0.000000 0.000000 3.412970 
# 
# From -- ./inp_files/27499.got.cif
#   From: 2010.05.17/outbox.cif.g08.bks.cpg/sg66_14_cif.got.tgz:27499.got - 2010.06.03 17:51:23.
