data_PCOD9499866
_publ_section_title
;
Structure prediction by ZEFSAII (Michael W. Deem and Ramdas Pophale) SiO2 
 PCOD9499866
Probable space group: C C C M
;
_chemical_formula_sum "Si O2"
_cell_formula_units_Z 68
_cell_length_a 6.250210
_cell_length_b 27.438420
_cell_length_c 18.858369
_cell_angle_alpha 90.000000
_cell_angle_beta 90.000000
_cell_angle_gamma 90.000000
_cell_volume 3234.132720
_symmetry_space_group_name_H-M "C C C M"
_symmetry_group_IT_number 66
_symmetry_cell_setting 'orthorhombic'
loop_
_space_group_symop_operation_xyz
x,y,z
-x,-y,z
x,-y,1/2-z
-x,y,1/2-z
-x,-y,-z
x,y,-z
-x,y,1/2+z
x,-y,1/2+z
1/2+x,1/2+y,z
1/2-x,1/2-y,z
1/2+x,1/2-y,1/2-z
1/2-x,1/2+y,1/2-z
1/2-x,1/2-y,-z
1/2+x,1/2+y,-z
1/2-x,1/2+y,1/2+z
1/2+x,1/2-y,1/2+z
loop_
_atom_site_type_symbol
_atom_site_label
_atom_site_fract_x
_atom_site_fract_y
_atom_site_fract_z
Si Si1 0.000000 0.000000 0.750000
Si Si2 0.344626 0.954050 0.152297
Si Si3 0.196582 0.806430 0.000000
Si Si4 0.021830 0.350168 0.375488
Si Si5 0.500000 0.774000 0.250000
Si Si6 0.639746 0.548302 0.500000
Si Si7 0.809128 0.137421 0.500000
O O1 0.141385 0.033931 0.699849
O O2 0.429325 0.900016 0.166282
O O3 0.282507 0.952048 0.069787
O O4 0.500000 0.000000 0.163694
O O5 0.250000 0.750000 0.000000
O O6 0.293131 0.832376 0.930002
O O7 0.944375 0.813317 0.000000
O O8 0.830511 0.363102 0.429269
O O9 0.981618 0.307208 0.320224
O O10 0.750000 0.750000 0.255169
O O11 0.500000 0.500000 0.500000
O O12 0.477388 0.593446 0.500000
#
# Coordination Sequence:
#
# PCOD9499866 Si02
#       7
#     4  16   8  16   8   8   8
#     4  12  30  44  72 102 152 206 244 312 380 468
#     4  12  26  47  69 108 146 191 253 304 387 460
#     4  11  24  46  75 108 143 187 256 316 389 443
#     4  11  27  46  75 109 148 197 249 322 379 468
#     4  12  32  53  79 114 155 212 265 322 398 470
#     4  12  21  42  73 103 142 193 242 314 370 460
#     4  11  24  45  75 113 141 190 252 311 400 450
#
# _framework density 21.025729999999999
#
# number of rings (size 3 to 8) (size 9 to 14) (size 15 to 20)
#    0.000    0.471    3.529    3.529    9.882    1.882 
#    0.000    0.000    0.000    0.000    0.000    0.000 
#    0.000    0.000    0.000    0.000    0.000    0.000 
#
# Total GULP energy -189916.355001 kJ/mol
# GULP energy per Si atom -5585.775147 kJ/mol
# Density = 2.097787 g / cm^3
# Si number density = 21.025730 Si / 1000 Ang^3
#
#
#
# Elastic Constant Matrix: (Units=GPa)
#
#
# Indices 1 2 3 4 5 6 
#
# 1 113.1674 66.0227 47.3510 0.0000 0.0000 0.0000
# 2 66.0227 153.8776 38.1191 0.0000 0.0000 0.0000
# 3 47.3510 38.1191 140.0196 0.0000 0.0000 0.0000
# 4 0.0000 0.0000 0.0000 63.8669 0.0000 0.0000
# 5 0.0000 0.0000 0.0000 0.0000 22.8013 0.0000
# 6 0.0000 0.0000 0.0000 0.0000 0.0000 28.7390
#
#
#
# Elastic Compliance Matrix: (Units=1/GPa)
#
#
# Indices 1 2 3 4 5 6 
#
# 1 0.012906 -0.004779 -0.003064 0.000000 0.000000 0.000000
# 2 -0.004779 0.008738 -0.000763 0.000000 0.000000 0.000000
# 3 -0.003064 -0.000763 0.008386 0.000000 0.000000 0.000000
# 4 0.000000 0.000000 0.000000 0.015658 0.000000 0.000000
# 5 0.000000 0.000000 0.000000 0.000000 0.043857 0.000000
# 6 0.000000 0.000000 0.000000 0.000000 0.000000 0.034796
#
#
# Mechanical properties :
#
#
# Convention : Reuss Voigt Hill
#
# Bulk Modulus (GPa) = 78.00539 78.89448 78.44994
# Shear Modulus (GPa) = 34.28802 40.11957 37.20379
#
# Velocity S-wave (km/s) = 4.04265 4.37294 4.21104
# Velocity P-wave (km/s) = 7.67927 7.94362 7.81256
#
# Compressibility (1/GPa) = 0.01281963
#
# Stress axis : x y z
#
# Youngs Moduli (GPa) = 77.48210 114.44333 119.25254
#
# Poissons Ratio (x) = 0.54688 0.36534
# Poissons Ratio (y) = 0.37026 0.09097
# Poissons Ratio (z) = 0.23738 0.08730
#
# Static dielectric constant tensor:
#      x y z
#    x 1.792170 0.000000 0.000000 
#    y 0.000000 1.752540 0.000000 
#    z 0.000000 0.000000 1.741140 
# 
# From -- ./inp_files/45811.got.cif
#   From: 2010.05.17/outbox.cif.g08.bks.cpg/sg66_23_cif.got.tgz:45811.got - 2010.06.03 17:51:23.
