data_PCOD9499660
_publ_section_title
;
Structure prediction by ZEFSAII (Michael W. Deem and Ramdas Pophale) SiO2 
 PCOD9499660
Probable space group: C C C M
;
_chemical_formula_sum "Si O2"
_cell_formula_units_Z 96
_cell_length_a 9.563313
_cell_length_b 21.974820
_cell_length_c 22.492817
_cell_angle_alpha 90.000000
_cell_angle_beta 90.000000
_cell_angle_gamma 90.000000
_cell_volume 4726.912318
_symmetry_space_group_name_H-M "C C C M"
_symmetry_group_IT_number 66
_symmetry_cell_setting 'orthorhombic'
loop_
_space_group_symop_operation_xyz
x,y,z
-x,-y,z
x,-y,1/2-z
-x,y,1/2-z
-x,-y,-z
x,y,-z
-x,y,1/2+z
x,-y,1/2+z
1/2+x,1/2+y,z
1/2-x,1/2-y,z
1/2+x,1/2-y,1/2-z
1/2-x,1/2+y,1/2-z
1/2-x,1/2-y,-z
1/2+x,1/2+y,-z
1/2-x,1/2+y,1/2+z
1/2+x,1/2-y,1/2+z
loop_
_atom_site_type_symbol
_atom_site_label
_atom_site_fract_x
_atom_site_fract_y
_atom_site_fract_z
Si Si1 0.767208 0.145040 0.848249
Si Si2 0.802827 0.388921 0.617476
Si Si3 0.471475 0.324042 0.069788
Si Si4 0.340977 0.195581 0.228157
Si Si5 0.168169 0.490674 0.319254
Si Si6 0.032580 0.686057 0.934086
O O1 0.910193 0.154008 0.883957
O O2 0.754802 0.173825 0.783083
O O3 0.717986 0.075395 0.840426
O O4 0.653323 0.180796 0.886635
O O5 0.668688 0.357656 0.589050
O O6 0.848311 0.357122 0.679499
O O7 0.776082 0.458107 0.635729
O O8 0.930265 0.371078 0.574566
O O9 0.456346 0.250734 0.074595
O O10 0.505014 0.336568 0.000000
O O11 0.500000 0.209320 0.250000
O O12 0.250000 0.250000 0.200879
O O13 0.211257 0.500000 0.250000
O O14 0.000000 0.500000 0.320593
O O15 0.093365 0.686068 0.000000
#
# Coordination Sequence:
#
# PCOD9499660 Si02
#       6
#    16  16  16  16  16  16
#     4  12  24  42  68  99 131 176 224 269 331 397
#     4  12  24  42  68  99 131 176 224 269 331 397
#     4  11  26  46  67  96 140 178 214 277 338 393
#     4  12  24  39  65 102 138 169 217 284 341 399
#     4  11  22  45  68  93 133 177 217 272 331 398
#     4  11  22  42  69  98 130 176 226 271 328 389
#
# _framework density 20.309241
#
# number of rings (size 3 to 8) (size 9 to 14) (size 15 to 20)
#    0.000    0.500    5.000    4.000    2.333    3.333 
#    0.000    5.833    0.000    0.000    0.000    0.000 
#    0.000    0.000    0.000    0.000    0.000    0.000 
#
# Total GULP energy -268295.406578 kJ/mol
# GULP energy per Si atom -5589.487637 kJ/mol
# Density = 2.026302 g / cm^3
# Si number density = 20.309241 Si / 1000 Ang^3
#
#
#
# Elastic Constant Matrix: (Units=GPa)
#
#
# Indices 1 2 3 4 5 6 
#
# 1 43.1492 -20.5421 -4.3727 0.0000 0.0000 0.0000
# 2 -20.5421 84.4005 9.8147 0.0000 0.0000 0.0000
# 3 -4.3727 9.8147 90.5362 0.0000 0.0000 0.0000
# 4 0.0000 0.0000 0.0000 23.0793 0.0000 0.0000
# 5 0.0000 0.0000 0.0000 0.0000 -198.0787 0.0000
# 6 0.0000 0.0000 0.0000 0.0000 0.0000 19.8545
#
#
#
# Elastic Compliance Matrix: (Units=1/GPa)
#
#
# Indices 1 2 3 4 5 6 
#
# 1 0.026243 0.006320 0.000582 0.000000 0.000000 0.000000
# 2 0.006320 0.013521 -0.001161 0.000000 0.000000 0.000000
# 3 0.000582 -0.001161 0.011199 0.000000 0.000000 0.000000
# 4 0.000000 0.000000 0.000000 0.043329 0.000000 0.000000
# 5 0.000000 0.000000 0.000000 0.000000 -0.005048 0.000000
# 6 0.000000 0.000000 0.000000 0.000000 0.000000 0.050367
#
#
# Mechanical properties :
#
#
# Convention : Reuss Voigt Hill
#
# Bulk Modulus (GPa) = 16.01377 20.87619 18.44498
# Shear Modulus (GPa) = 33.56986 -15.48325 9.04331
#
# Velocity S-wave (km/s) = 4.07004 -2.76411 2.11246
# Velocity P-wave (km/s) = 5.47623 0.33825 3.87966
#
# Compressibility (1/GPa) = 0.06244625
#
# Stress axis : x y z
#
# Youngs Moduli (GPa) = 38.10540 73.95724 89.29173
#
# Poissons Ratio (x) = -0.46737 -0.05200
# Poissons Ratio (y) = -0.24081 0.10363
# Poissons Ratio (z) = -0.02219 0.08583
#
# Static dielectric constant tensor:
#      x y z
#    x 1.722060 0.000000 0.000000 
#    y 0.000000 1.715460 0.000000 
#    z 0.000000 0.000000 1.727740 
# 
# From -- ./inp_files/55649.got.cif
#   From: 2010.05.17/outbox.cif.g08.bks.cpg/sg66_28_cif.got.tgz:55649.got - 2010.06.03 17:51:23.
