data_PCOD9499892
_publ_section_title
;
Structure prediction by ZEFSAII (Michael W. Deem and Ramdas Pophale) SiO2 
 PCOD9499892
Probable space group: C C C M
;
_chemical_formula_sum "Si O2"
_cell_formula_units_Z 56
_cell_length_a 15.354467
_cell_length_b 9.769388
_cell_length_c 18.764356
_cell_angle_alpha 90.000000
_cell_angle_beta 90.000000
_cell_angle_gamma 90.000000
_cell_volume 2814.723685
_symmetry_space_group_name_H-M "C C C M"
_symmetry_group_IT_number 66
_symmetry_cell_setting 'orthorhombic'
loop_
_space_group_symop_operation_xyz
x,y,z
-x,-y,z
x,-y,1/2-z
-x,y,1/2-z
-x,-y,-z
x,y,-z
-x,y,1/2+z
x,-y,1/2+z
1/2+x,1/2+y,z
1/2-x,1/2-y,z
1/2+x,1/2-y,1/2-z
1/2-x,1/2+y,1/2-z
1/2-x,1/2-y,-z
1/2+x,1/2+y,-z
1/2-x,1/2+y,1/2+z
1/2+x,1/2-y,1/2+z
loop_
_atom_site_type_symbol
_atom_site_label
_atom_site_fract_x
_atom_site_fract_y
_atom_site_fract_z
Si Si1 0.362261 0.581207 0.416744
Si Si2 0.250000 0.750000 0.313525
Si Si3 0.410797 0.154716 0.277301
Si Si4 0.550881 0.285855 0.082674
O O1 0.336824 0.590504 0.500000
O O2 0.285317 0.630006 0.365318
O O3 0.448417 0.676978 0.407515
O O4 0.396193 0.427001 0.403592
O O5 0.329221 0.781331 0.261430
O O6 0.500000 0.223387 0.250000
O O7 0.415113 0.174076 0.361904
O O8 0.411471 0.000000 0.250000
O O9 0.563040 0.248344 0.000000
#
# Coordination Sequence:
#
# PCOD9499892 Si02
#       4
#    16   8  16  16
#     4   9  19  37  66  98 124 159 211 263 315 375
#     4  12  23  38  65  94 130 166 208 264 311 372
#     4  11  25  43  59  92 132 166 211 258 314 375
#     4   9  19  42  67  90 123 166 211 258 314 375
#
# _framework density 19.895381
#
# number of rings (size 3 to 8) (size 9 to 14) (size 15 to 20)
#    0.000    2.000    2.857    2.143    4.000    0.000 
#    0.000    6.429    0.000    0.000    0.000    0.000 
#    0.000    0.000    0.000    0.000    0.000    0.000 
#
# Total GULP energy -156221.205967 kJ/mol
# GULP energy per Si atom -5579.328785 kJ/mol
# Density = 1.985010 g / cm^3
# Si number density = 19.895381 Si / 1000 Ang^3
#
#
#
# Elastic Constant Matrix: (Units=GPa)
#
#
# Indices 1 2 3 4 5 6 
#
# 1 116.8473 15.6109 51.8362 0.0000 0.0000 0.0000
# 2 15.6109 42.4154 55.1282 0.0000 0.0000 0.0000
# 3 51.8362 55.1282 149.0749 0.0000 0.0000 0.0000
# 4 0.0000 0.0000 0.0000 31.4205 0.0000 0.0000
# 5 0.0000 0.0000 0.0000 0.0000 51.9191 0.0000
# 6 0.0000 0.0000 0.0000 0.0000 0.0000 18.8531
#
#
#
# Elastic Compliance Matrix: (Units=1/GPa)
#
#
# Indices 1 2 3 4 5 6 
#
# 1 0.010178 0.001644 -0.004147 0.000000 0.000000 0.000000
# 2 0.001644 0.045661 -0.017457 0.000000 0.000000 0.000000
# 3 -0.004147 -0.017457 0.014606 0.000000 0.000000 0.000000
# 4 0.000000 0.000000 0.000000 0.031826 0.000000 0.000000
# 5 0.000000 0.000000 0.000000 0.000000 0.019261 0.000000
# 6 0.000000 0.000000 0.000000 0.000000 0.000000 0.053042
#
#
# Mechanical properties :
#
#
# Convention : Reuss Voigt Hill
#
# Bulk Modulus (GPa) = 32.76080 61.49870 47.12975
# Shear Modulus (GPa) = 22.25501 32.82267 27.53884
#
# Velocity S-wave (km/s) = 3.34818 4.06613 3.72450
# Velocity P-wave (km/s) = 5.60797 7.28167 6.49893
#
# Compressibility (1/GPa) = 0.03052428
#
# Stress axis : x y z
#
# Youngs Moduli (GPa) = 98.24813 21.90076 68.46626
#
# Poissons Ratio (x) = -0.03601 0.28394
# Poissons Ratio (y) = -0.16153 1.19522
# Poissons Ratio (z) = 0.40745 0.38232
#
# Static dielectric constant tensor:
#      x y z
#    x 1.742490 0.000000 0.000000 
#    y 0.000000 1.839930 0.000000 
#    z 0.000000 0.000000 1.713210 
# 
# From -- ./inp_files/25352.got.cif
#   From: 2010.05.17/outbox.cif.g08.bks.cpg/sg66_13_cif.got.tgz:25352.got - 2010.06.03 17:51:23.
