data_PCOD9499513
_publ_section_title
;
Structure prediction by ZEFSAII (Michael W. Deem and Ramdas Pophale) SiO2 
 PCOD9499513
Probable space group: C C C M
;
_chemical_formula_sum "Si O2"
_cell_formula_units_Z 80
_cell_length_a 8.625532
_cell_length_b 16.863398
_cell_length_c 25.476793
_cell_angle_alpha 90.000000
_cell_angle_beta 90.000000
_cell_angle_gamma 90.000000
_cell_volume 3705.746774
_symmetry_space_group_name_H-M "C C C M"
_symmetry_group_IT_number 66
_symmetry_cell_setting 'orthorhombic'
loop_
_space_group_symop_operation_xyz
x,y,z
-x,-y,z
x,-y,1/2-z
-x,y,1/2-z
-x,-y,-z
x,y,-z
-x,y,1/2+z
x,-y,1/2+z
1/2+x,1/2+y,z
1/2-x,1/2-y,z
1/2+x,1/2-y,1/2-z
1/2-x,1/2+y,1/2-z
1/2-x,1/2-y,-z
1/2+x,1/2+y,-z
1/2-x,1/2+y,1/2+z
1/2+x,1/2-y,1/2+z
loop_
_atom_site_type_symbol
_atom_site_label
_atom_site_fract_x
_atom_site_fract_y
_atom_site_fract_z
Si Si1 0.320476 0.973327 0.059273
Si Si2 0.629544 0.186979 0.113118
Si Si3 0.877392 0.930179 0.861341
Si Si4 0.586369 0.703945 0.058879
Si Si5 0.433087 0.912394 0.307912
O O1 0.294977 0.891782 0.089736
O O2 0.500000 0.000000 0.058370
O O3 0.228305 0.038224 0.091085
O O4 0.265677 0.966233 0.000000
O O5 0.750000 0.250000 0.136272
O O6 0.544600 0.229646 0.064946
O O7 0.503933 0.154073 0.154177
O O8 0.940404 0.851596 0.890008
O O9 0.753071 0.914579 0.814931
O O10 0.000000 0.000000 0.848521
O O11 0.750000 0.750000 0.063649
O O12 0.580656 0.667646 0.000000
O O13 0.500000 0.898452 0.250000
O O14 0.500000 0.000000 0.322910
#
# Coordination Sequence:
#
# PCOD9499513 Si02
#       5
#    16  16  16  16  16
#     4  11  21  39  67  94 132 185 230 262 320 407
#     4  12  23  41  66  95 132 175 224 270 329 404
#     4  12  23  41  69  98 132 170 224 277 339 403
#     4  11  23  39  63  99 147 182 207 265 341 402
#     4  11  24  49  73  89 125 175 226 290 344 395
#
# _framework density 21.588090000000001
#
# number of rings (size 3 to 8) (size 9 to 14) (size 15 to 20)
#    0.000    0.600    6.000    2.400    0.000    8.000 
#    3.600    2.000    0.000    0.000    0.000    0.000 
#    0.000    0.000    0.000    0.000    0.000    0.000 
#
# Total GULP energy -223432.195690 kJ/mol
# GULP energy per Si atom -5585.804892 kJ/mol
# Density = 2.153895 g / cm^3
# Si number density = 21.588090 Si / 1000 Ang^3
#
#
#
# Elastic Constant Matrix: (Units=GPa)
#
#
# Indices 1 2 3 4 5 6 
#
# 1 94.0260 15.1429 26.3181 0.0000 0.0000 0.0000
# 2 15.1429 70.2905 11.1654 0.0000 0.0000 0.0000
# 3 26.3181 11.1654 105.8400 0.0000 0.0000 0.0000
# 4 0.0000 0.0000 0.0000 8.8507 0.0000 0.0000
# 5 0.0000 0.0000 0.0000 0.0000 -44.6807 0.0000
# 6 0.0000 0.0000 0.0000 0.0000 0.0000 35.5269
#
#
#
# Elastic Compliance Matrix: (Units=1/GPa)
#
#
# Indices 1 2 3 4 5 6 
#
# 1 0.011728 -0.002098 -0.002695 0.000000 0.000000 0.000000
# 2 -0.002098 0.014845 -0.001044 0.000000 0.000000 0.000000
# 3 -0.002695 -0.001044 0.010228 0.000000 0.000000 0.000000
# 4 0.000000 0.000000 0.000000 0.112985 0.000000 0.000000
# 5 0.000000 0.000000 0.000000 0.000000 -0.022381 0.000000
# 6 0.000000 0.000000 0.000000 0.000000 0.000000 0.028148
#
#
# Mechanical properties :
#
#
# Convention : Reuss Voigt Hill
#
# Bulk Modulus (GPa) = 39.79980 41.71214 40.75597
# Shear Modulus (GPa) = 28.47339 14.44136 21.45738
#
# Velocity S-wave (km/s) = 3.63566 2.58921 3.15611
# Velocity P-wave (km/s) = 6.00833 5.32001 5.67462
#
# Compressibility (1/GPa) = 0.02512576
#
# Stress axis : x y z
#
# Youngs Moduli (GPa) = 85.26894 67.36444 97.76630
#
# Poissons Ratio (x) = 0.14136 0.26346
# Poissons Ratio (y) = 0.17893 0.10209
# Poissons Ratio (z) = 0.22978 0.07034
#
# Static dielectric constant tensor:
#      x y z
#    x 1.781630 0.000000 0.000000 
#    y 0.000000 1.842180 0.000000 
#    z 0.000000 0.000000 1.760850 
# 
# From -- ./inp_files/62377.got.cif
#   From: 2010.05.17/outbox.cif.g08.bks.cpg/sg66_32_cif.got.tgz:62377.got - 2010.06.03 17:51:23.
