data_PCOD9499734
_publ_section_title
;
Structure prediction by ZEFSAII (Michael W. Deem and Ramdas Pophale) SiO2 
 PCOD9499734
Probable space group: C C C M
;
_chemical_formula_sum "Si O2"
_cell_formula_units_Z 88
_cell_length_a 22.242215
_cell_length_b 12.375452
_cell_length_c 14.940506
_cell_angle_alpha 90.000000
_cell_angle_beta 90.000000
_cell_angle_gamma 90.000000
_cell_volume 4112.485794
_symmetry_space_group_name_H-M "C C C M"
_symmetry_group_IT_number 66
_symmetry_cell_setting 'orthorhombic'
loop_
_space_group_symop_operation_xyz
x,y,z
-x,-y,z
x,-y,1/2-z
-x,y,1/2-z
-x,-y,-z
x,y,-z
-x,y,1/2+z
x,-y,1/2+z
1/2+x,1/2+y,z
1/2-x,1/2-y,z
1/2+x,1/2-y,1/2-z
1/2-x,1/2+y,1/2-z
1/2-x,1/2-y,-z
1/2+x,1/2+y,-z
1/2-x,1/2+y,1/2+z
1/2+x,1/2-y,1/2+z
loop_
_atom_site_type_symbol
_atom_site_label
_atom_site_fract_x
_atom_site_fract_y
_atom_site_fract_z
Si Si1 0.107556 0.877382 0.738913
Si Si2 0.180038 0.239298 0.395408
Si Si3 0.324086 0.011973 0.645287
Si Si4 0.941255 0.430340 0.098785
Si Si5 0.783555 0.139808 0.601706
Si Si6 0.000000 0.278507 0.750000
O O1 0.140251 0.833640 0.829969
O O2 0.161256 0.879991 0.666699
O O3 0.052528 0.799875 0.711711
O O4 0.086052 0.000000 0.750000
O O5 0.177609 0.206260 0.500000
O O6 0.250000 0.250000 0.368128
O O7 0.163192 0.364477 0.382521
O O8 0.390684 0.976044 0.619783
O O9 0.314717 0.000000 0.750000
O O10 0.266740 0.954827 0.603154
O O11 0.961625 0.349280 0.178603
O O12 0.000000 0.500000 0.090277
O O13 0.931398 0.378613 0.000000
O O14 0.804227 0.154141 0.500000
O O15 0.750000 0.250000 0.630249
#
# Coordination Sequence:
#
# PCOD9499734 Si02
#       6
#    16  16  16  16  16   8
#     4  12  26  45  67  97 136 187 243 298 361 436
#     4  11  23  41  68  99 132 173 229 297 356 417
#     4  12  22  40  69 101 138 177 229 286 363 431
#     4  11  25  43  69 104 137 180 236 295 356 421
#     4  11  25  42  66 103 144 187 230 293 372 442
#     4  12  26  46  70  98 142 194 240 292 354 430
#
# _framework density 21.398250000000001
#
# number of rings (size 3 to 8) (size 9 to 14) (size 15 to 20)
#    0.000    0.545    1.818    7.636    2.545    2.909 
#    0.000    0.000    0.000    3.273    0.000    0.000 
#    0.000    0.000    0.000    0.000    0.000    0.000 
#
# Total GULP energy -245453.141212 kJ/mol
# GULP energy per Si atom -5578.480482 kJ/mol
# Density = 2.134955 g / cm^3
# Si number density = 21.398250 Si / 1000 Ang^3
#
#
#
# Elastic Constant Matrix: (Units=GPa)
#
#
# Indices 1 2 3 4 5 6 
#
# 1 109.8236 12.8649 36.9919 0.0000 0.0000 0.0000
# 2 12.8649 80.0860 24.5315 0.0000 0.0000 0.0000
# 3 36.9919 24.5315 97.1013 0.0000 0.0000 0.0000
# 4 0.0000 0.0000 0.0000 24.8820 0.0000 0.0000
# 5 0.0000 0.0000 0.0000 0.0000 115.9773 0.0000
# 6 0.0000 0.0000 0.0000 0.0000 0.0000 36.2309
#
#
#
# Elastic Compliance Matrix: (Units=1/GPa)
#
#
# Indices 1 2 3 4 5 6 
#
# 1 0.010464 -0.000498 -0.003861 0.000000 0.000000 0.000000
# 2 -0.000498 0.013558 -0.003235 0.000000 0.000000 0.000000
# 3 -0.003861 -0.003235 0.012587 0.000000 0.000000 0.000000
# 4 0.000000 0.000000 0.000000 0.040190 0.000000 0.000000
# 5 0.000000 0.000000 0.000000 0.000000 0.008622 0.000000
# 6 0.000000 0.000000 0.000000 0.000000 0.000000 0.027601
#
#
# Mechanical properties :
#
#
# Convention : Reuss Voigt Hill
#
# Bulk Modulus (GPa) = 46.68544 48.42084 47.55314
# Shear Modulus (GPa) = 36.94129 49.59289 43.26709
#
# Velocity S-wave (km/s) = 4.15947 4.81938 4.50153
# Velocity P-wave (km/s) = 6.70321 7.32435 7.02065
#
# Compressibility (1/GPa) = 0.02141995
#
# Stress axis : x y z
#
# Youngs Moduli (GPa) = 95.56344 73.75901 79.44952
#
# Poissons Ratio (x) = 0.03676 0.30672
# Poissons Ratio (y) = 0.04763 0.25704
# Poissons Ratio (z) = 0.36893 0.23863
#
# Static dielectric constant tensor:
#      x y z
#    x 0.710520 0.000000 0.000000 
#    y 0.000000 1.775710 0.000000 
#    z 0.000000 0.000000 1.836440 
# 
# From -- ./inp_files/32195.got.cif
#   From: 2010.05.17/outbox.cif.g08.bks.cpg/sg66_17_cif.got.tgz:32195.got - 2010.06.03 17:51:23.
