data_PCOD9499641
_publ_section_title
;
Structure prediction by ZEFSAII (Michael W. Deem and Ramdas Pophale) SiO2 
 PCOD9499641
Probable space group: C C C M
;
_chemical_formula_sum "Si O2"
_cell_formula_units_Z 72
_cell_length_a 15.796699
_cell_length_b 11.700774
_cell_length_c 19.449958
_cell_angle_alpha 90.000000
_cell_angle_beta 90.000000
_cell_angle_gamma 90.000000
_cell_volume 3595.005853
_symmetry_space_group_name_H-M "C C C M"
_symmetry_group_IT_number 66
_symmetry_cell_setting 'orthorhombic'
loop_
_space_group_symop_operation_xyz
x,y,z
-x,-y,z
x,-y,1/2-z
-x,y,1/2-z
-x,-y,-z
x,y,-z
-x,y,1/2+z
x,-y,1/2+z
1/2+x,1/2+y,z
1/2-x,1/2-y,z
1/2+x,1/2-y,1/2-z
1/2-x,1/2+y,1/2-z
1/2-x,1/2-y,-z
1/2+x,1/2+y,-z
1/2-x,1/2+y,1/2+z
1/2+x,1/2-y,1/2+z
loop_
_atom_site_type_symbol
_atom_site_label
_atom_site_fract_x
_atom_site_fract_y
_atom_site_fract_z
Si Si1 0.578814 0.081955 0.644772
Si Si2 0.635705 0.522004 0.355436
Si Si3 0.283569 0.000000 0.250000
Si Si4 0.138785 0.629555 0.500000
Si Si5 0.013743 0.180465 0.173971
Si Si6 0.161802 0.105671 0.000000
O O1 0.612043 0.059524 0.567941
O O2 0.548158 0.211129 0.635700
O O3 0.500000 0.000000 0.662090
O O4 0.651918 0.075124 0.703143
O O5 0.719076 0.546443 0.309471
O O6 0.582568 0.420038 0.319286
O O7 0.571984 0.628469 0.356333
O O8 0.645638 0.469507 0.431640
O O9 0.117734 0.767921 0.500000
O O10 0.239427 0.629871 0.500000
O O11 0.000000 0.225498 0.250000
#
# Coordination Sequence:
#
# PCOD9499641 Si02
#       6
#    16  16   8   8  16   8
#     4  12  26  45  64  98 139 184 229 269 342 417
#     4  11  22  41  71 100 134 170 227 286 348 391
#     4  12  23  43  68  98 130 180 224 279 333 404
#     4  11  23  41  71  96 136 181 224 284 335 409
#     4  11  22  41  66 102 139 173 223 288 338 399
#     4  11  22  42  70 107 128 171 232 291 336 406
#
# _framework density 20.027784
#
# number of rings (size 3 to 8) (size 9 to 14) (size 15 to 20)
#    0.000    0.667    6.667    2.667    0.000    3.556 
#    4.000    0.000    0.000    1.333    0.000    0.000 
#    0.000    0.000    0.000    0.000    0.000    0.000 
#
# Total GULP energy -200508.699846 kJ/mol
# GULP energy per Si atom -5569.686107 kJ/mol
# Density = 1.998220 g / cm^3
# Si number density = 20.027784 Si / 1000 Ang^3
#
#
#
# Elastic Constant Matrix: (Units=GPa)
#
#
# Indices 1 2 3 4 5 6 
#
# 1 116.5625 44.9774 37.6767 0.0000 0.0000 0.0000
# 2 44.9774 65.1533 10.5119 0.0000 0.0000 0.0000
# 3 37.6767 10.5119 128.1275 0.0000 0.0000 0.0000
# 4 0.0000 0.0000 0.0000 20.9188 0.0000 0.0000
# 5 0.0000 0.0000 0.0000 0.0000 40.0714 0.0000
# 6 0.0000 0.0000 0.0000 0.0000 0.0000 21.2984
#
#
#
# Elastic Compliance Matrix: (Units=1/GPa)
#
#
# Indices 1 2 3 4 5 6 
#
# 1 0.012789 -0.008332 -0.003077 0.000000 0.000000 0.000000
# 2 -0.008332 0.020983 0.000729 0.000000 0.000000 0.000000
# 3 -0.003077 0.000729 0.008650 0.000000 0.000000 0.000000
# 4 0.000000 0.000000 0.000000 0.047804 0.000000 0.000000
# 5 0.000000 0.000000 0.000000 0.000000 0.024955 0.000000
# 6 0.000000 0.000000 0.000000 0.000000 0.000000 0.046952
#
#
# Mechanical properties :
#
#
# Convention : Reuss Voigt Hill
#
# Bulk Modulus (GPa) = 47.48260 55.13058 51.30659
# Shear Modulus (GPa) = 26.24487 30.90287 28.57387
#
# Velocity S-wave (km/s) = 3.62390 3.93237 3.78128
# Velocity P-wave (km/s) = 6.42418 6.94297 6.68861
#
# Compressibility (1/GPa) = 0.02106035
#
# Stress axis : x y z
#
# Youngs Moduli (GPa) = 78.19395 47.65824 115.61008
#
# Poissons Ratio (x) = 0.39709 0.35573
# Poissons Ratio (y) = 0.65151 -0.08423
# Poissons Ratio (z) = 0.24060 -0.03472
#
# Static dielectric constant tensor:
#      x y z
#    x 1.729180 0.000000 0.000000 
#    y 0.000000 1.700300 0.000000 
#    z 0.000000 0.000000 4.373400 
# 
# From -- ./inp_files/40071.got.cif
#   From: 2010.05.17/outbox.cif.g08.bks.cpg/sg66_21_cif.got.tgz:40071.got - 2010.06.03 17:51:23.
