data_PCOD9499622
_publ_section_title
;
Structure prediction by ZEFSAII (Michael W. Deem and Ramdas Pophale) SiO2 
 PCOD9499622
Probable space group: C C C M
;
_chemical_formula_sum "Si O2"
_cell_formula_units_Z 80
_cell_length_a 11.573996
_cell_length_b 17.299108
_cell_length_c 20.722905
_cell_angle_alpha 90.000000
_cell_angle_beta 90.000000
_cell_angle_gamma 90.000000
_cell_volume 4149.136035
_symmetry_space_group_name_H-M "C C C M"
_symmetry_group_IT_number 66
_symmetry_cell_setting 'orthorhombic'
loop_
_space_group_symop_operation_xyz
x,y,z
-x,-y,z
x,-y,1/2-z
-x,y,1/2-z
-x,-y,-z
x,y,-z
-x,y,1/2+z
x,-y,1/2+z
1/2+x,1/2+y,z
1/2-x,1/2-y,z
1/2+x,1/2-y,1/2-z
1/2-x,1/2+y,1/2-z
1/2-x,1/2-y,-z
1/2+x,1/2+y,-z
1/2-x,1/2+y,1/2+z
1/2+x,1/2-y,1/2+z
loop_
_atom_site_type_symbol
_atom_site_label
_atom_site_fract_x
_atom_site_fract_y
_atom_site_fract_z
Si Si1 0.734713 0.841549 0.887555
Si Si2 0.881972 0.094045 0.500000
Si Si3 0.002029 0.413480 0.927634
Si Si4 0.139034 0.407516 0.246771
Si Si5 0.657225 0.583974 0.500000
Si Si6 0.717097 0.160843 0.122857
O O1 0.750000 0.750000 0.880327
O O2 0.840113 0.868026 0.932932
O O3 0.625094 0.873541 0.927325
O O4 0.702818 0.878015 0.817992
O O5 0.019884 0.095283 0.500000
O O6 0.827820 0.008163 0.500000
O O7 0.915630 0.354075 0.895524
O O8 0.000000 0.500000 0.896861
O O9 0.958304 0.425370 0.000000
O O10 0.139845 0.500000 0.250000
O O11 0.216191 0.376221 0.306203
O O12 0.000000 0.384509 0.250000
O O13 0.710998 0.619823 0.434536
O O14 0.750000 0.250000 0.124873
#
# Coordination Sequence:
#
# PCOD9499622 Si02
#       6
#    16   8  16  16   8  16
#     4  12  25  40  66  99 136 168 216 279 332 383
#     4  11  25  43  65  93 133 179 219 257 321 405
#     4  11  22  39  69 101 130 171 227 279 327 385
#     4  11  23  42  69  97 128 169 223 278 334 394
#     4  11  25  43  65  93 133 179 219 257 321 405
#     4  12  25  40  66  99 136 168 216 279 332 383
#
# _framework density 19.281122
#
# number of rings (size 3 to 8) (size 9 to 14) (size 15 to 20)
#    0.000    0.600    4.000    4.800    2.800    0.000 
#    0.000    1.000    0.000    3.600    0.000    0.000 
#    0.000    0.000    0.000    0.000    0.000    0.000 
#
# Total GULP energy -223071.002498 kJ/mol
# GULP energy per Si atom -5576.775062 kJ/mol
# Density = 1.923724 g / cm^3
# Si number density = 19.281122 Si / 1000 Ang^3
#
#
#
# Elastic Constant Matrix: (Units=GPa)
#
#
# Indices 1 2 3 4 5 6 
#
# 1 63.6013 43.1443 36.4112 0.0000 0.0000 0.0000
# 2 43.1443 145.9868 64.7043 0.0000 0.0000 0.0000
# 3 36.4112 64.7043 182.7245 0.0000 0.0000 0.0000
# 4 0.0000 0.0000 0.0000 24.5862 0.0000 0.0000
# 5 0.0000 0.0000 0.0000 0.0000 12.7014 0.0000
# 6 0.0000 0.0000 0.0000 0.0000 0.0000 29.4663
#
#
#
# Elastic Compliance Matrix: (Units=1/GPa)
#
#
# Indices 1 2 3 4 5 6 
#
# 1 0.020446 -0.005025 -0.002295 0.000000 0.000000 0.000000
# 2 -0.005025 0.009360 -0.002313 0.000000 0.000000 0.000000
# 3 -0.002295 -0.002313 0.006749 0.000000 0.000000 0.000000
# 4 0.000000 0.000000 0.000000 0.040673 0.000000 0.000000
# 5 0.000000 0.000000 0.000000 0.000000 0.078731 0.000000
# 6 0.000000 0.000000 0.000000 0.000000 0.000000 0.033937
#
#
# Mechanical properties :
#
#
# Convention : Reuss Voigt Hill
#
# Bulk Modulus (GPa) = 57.84137 75.64803 66.74470
# Shear Modulus (GPa) = 23.26382 29.88765 26.57574
#
# Velocity S-wave (km/s) = 3.47732 3.94140 3.71661
# Velocity P-wave (km/s) = 6.79606 7.74805 7.28762
#
# Compressibility (1/GPa) = 0.01728866
#
# Stress axis : x y z
#
# Youngs Moduli (GPa) = 48.91024 106.83351 148.16820
#
# Poissons Ratio (x) = 0.53688 0.33999
# Poissons Ratio (y) = 0.24579 0.34274
# Poissons Ratio (z) = 0.11223 0.24713
#
# Static dielectric constant tensor:
#      x y z
#    x 1.658950 0.000000 0.000000 
#    y 0.000000 1.655230 0.000000 
#    z 0.000000 0.000000 1.776570 
# 
# From -- ./inp_files/48481.got.cif
#   From: 2010.05.17/outbox.cif.g08.bks.cpg/sg66_25_cif.got.tgz:48481.got - 2010.06.03 17:51:23.
