data_PCOD9499572
_publ_section_title
;
Structure prediction by ZEFSAII (Michael W. Deem and Ramdas Pophale) SiO2 
 PCOD9499572
Probable space group: C C C M
;
_chemical_formula_sum "Si O2"
_cell_formula_units_Z 64
_cell_length_a 10.534607
_cell_length_b 15.563374
_cell_length_c 16.827114
_cell_angle_alpha 90.000000
_cell_angle_beta 90.000000
_cell_angle_gamma 90.000000
_cell_volume 2758.873131
_symmetry_space_group_name_H-M "C C C M"
_symmetry_group_IT_number 66
_symmetry_cell_setting 'orthorhombic'
loop_
_space_group_symop_operation_xyz
x,y,z
-x,-y,z
x,-y,1/2-z
-x,y,1/2-z
-x,-y,-z
x,y,-z
-x,y,1/2+z
x,-y,1/2+z
1/2+x,1/2+y,z
1/2-x,1/2-y,z
1/2+x,1/2-y,1/2-z
1/2-x,1/2+y,1/2-z
1/2-x,1/2-y,-z
1/2+x,1/2+y,-z
1/2-x,1/2+y,1/2+z
1/2+x,1/2-y,1/2+z
loop_
_atom_site_type_symbol
_atom_site_label
_atom_site_fract_x
_atom_site_fract_y
_atom_site_fract_z
Si Si1 0.022373 0.326926 0.654951
Si Si2 0.020505 0.132530 0.589133
Si Si3 0.750492 0.847134 0.870549
Si Si4 0.731803 0.587752 0.296303
O O1 0.895802 0.375010 0.622935
O O2 0.000000 0.315680 0.750000
O O3 0.031166 0.233555 0.614340
O O4 0.151844 0.380139 0.649903
O O5 0.067826 0.120952 0.500000
O O6 0.105026 0.083591 0.653024
O O7 0.871732 0.107736 0.591989
O O8 0.750000 0.750000 0.901485
O O9 0.783774 0.846099 0.776642
O O10 0.761468 0.500000 0.250000
#
# Coordination Sequence:
#
# PCOD9499572 Si02
#       4
#    16  16  16  16
#     4   9  19  37  62  89 116 155 210 259 303 356
#     4  11  22  37  61  93 125 157 198 251 311 367
#     4   9  19  37  60  86 116 156 205 255 301 355
#     4  11  22  37  58  87 121 163 209 252 298 357
#
# _framework density 23.197876999999998
#
# number of rings (size 3 to 8) (size 9 to 14) (size 15 to 20)
#    0.000    2.000    0.000    6.000    0.000   13.000 
#    0.000    2.500    0.000    1.500    0.000   33.250 
#    0.000    0.000    0.000    0.000    0.000    0.000 
#
# Total GULP energy -178718.979170 kJ/mol
# GULP energy per Si atom -5584.968099 kJ/mol
# Density = 2.314508 g / cm^3
# Si number density = 23.197877 Si / 1000 Ang^3
#
#
#
# Elastic Constant Matrix: (Units=GPa)
#
#
# Indices 1 2 3 4 5 6 
#
# 1 129.9580 21.9982 21.3774 0.0000 0.0000 0.0000
# 2 21.9982 76.9823 1.3757 0.0000 0.0000 0.0000
# 3 21.3774 1.3757 58.1594 0.0000 0.0000 0.0000
# 4 0.0000 0.0000 0.0000 3.0970 0.0000 0.0000
# 5 0.0000 0.0000 0.0000 0.0000 84.1794 0.0000
# 6 0.0000 0.0000 0.0000 0.0000 0.0000 -0.4750
#
#
#
# Elastic Compliance Matrix: (Units=1/GPa)
#
#
# Indices 1 2 3 4 5 6 
#
# 1 0.008613 -0.002406 -0.003109 0.000000 0.000000 0.000000
# 2 -0.002406 0.013667 0.000561 0.000000 0.000000 0.000000
# 3 -0.003109 0.000561 0.018324 0.000000 0.000000 0.000000
# 4 0.000000 0.000000 0.000000 0.322897 0.000000 0.000000
# 5 0.000000 0.000000 0.000000 0.000000 0.011879 0.000000
# 6 0.000000 0.000000 0.000000 0.000000 0.000000 -2.105081
#
#
# Mechanical properties :
#
#
# Convention : Reuss Voigt Hill
#
# Bulk Modulus (GPa) = 32.57675 39.40029 35.98852
# Shear Modulus (GPa) = -2.92473 32.05014 14.56271
#
# Velocity S-wave (km/s) = -1.12406 3.72102 2.50823
# Velocity P-wave (km/s) = 3.51977 5.95673 4.89241
#
# Compressibility (1/GPa) = 0.03069674
#
# Stress axis : x y z
#
# Youngs Moduli (GPa) = 116.09740 73.16656 54.57424
#
# Poissons Ratio (x) = 0.17602 0.16968
# Poissons Ratio (y) = 0.27931 -0.03062
# Poissons Ratio (z) = 0.36096 -0.04105
#
# Static dielectric constant tensor:
#      x y z
#    x 1.913770 0.000000 0.000000 
#    y 0.000000 1.944390 0.000000 
#    z 0.000000 0.000000 1.833980 
# 
# From -- ./inp_files/25800.got.cif
#   From: 2010.05.17/outbox.cif.g08.bks.cpg/sg66_13_cif.got.tgz:25800.got - 2010.06.03 17:51:23.
