data_PCOD9499547
_publ_section_title
;
Structure prediction by ZEFSAII (Michael W. Deem and Ramdas Pophale) SiO2 
 PCOD9499547
Probable space group: C C C M
;
_chemical_formula_sum "Si O2"
_cell_formula_units_Z 80
_cell_length_a 8.856629
_cell_length_b 17.684812
_cell_length_c 25.648864
_cell_angle_alpha 90.000000
_cell_angle_beta 90.000000
_cell_angle_gamma 90.000000
_cell_volume 4017.325623
_symmetry_space_group_name_H-M "C C C M"
_symmetry_group_IT_number 66
_symmetry_cell_setting 'orthorhombic'
loop_
_space_group_symop_operation_xyz
x,y,z
-x,-y,z
x,-y,1/2-z
-x,y,1/2-z
-x,-y,-z
x,y,-z
-x,y,1/2+z
x,-y,1/2+z
1/2+x,1/2+y,z
1/2-x,1/2-y,z
1/2+x,1/2-y,1/2-z
1/2-x,1/2+y,1/2-z
1/2-x,1/2-y,-z
1/2+x,1/2+y,-z
1/2-x,1/2+y,1/2+z
1/2+x,1/2-y,1/2+z
loop_
_atom_site_type_symbol
_atom_site_label
_atom_site_fract_x
_atom_site_fract_y
_atom_site_fract_z
Si Si1 0.239022 0.019648 0.500000
Si Si2 0.592294 0.710087 0.702122
Si Si3 0.852307 0.175673 0.610346
Si Si4 0.840908 0.043876 0.795350
Si Si5 0.523878 0.372983 0.500000
Si Si6 0.330932 0.983712 0.613442
O O1 0.147607 0.097976 0.500000
O O2 0.122390 0.949680 0.500000
O O3 0.326685 0.008669 0.553443
O O4 0.500000 0.748559 0.750000
O O5 0.750000 0.750000 0.687322
O O6 0.478838 0.689846 0.654755
O O7 0.642765 0.628556 0.723241
O O8 0.750000 0.250000 0.610304
O O9 0.931298 0.167576 0.553714
O O10 0.747324 0.099939 0.618783
O O11 0.752265 0.000000 0.750000
O O12 0.770629 0.038840 0.851929
O O13 0.000000 0.000000 0.800530
O O14 0.500000 0.000000 0.632419
#
# Coordination Sequence:
#
# PCOD9499547 Si02
#       6
#     8  16  16  16   8  16
#     4   9  19  36  63  94 120 155 219 263 315 374
#     4  12  25  43  67  94 128 170 215 268 328 387
#     4  11  23  41  62  93 132 164 207 262 324 386
#     4  11  21  43  67  89 122 166 215 264 314 384
#     4   9  19  38  66  87 117 173 209 258 316 386
#     4  11  23  38  65  95 126 164 210 266 318 380
#
# _framework density 19.913746
#
# number of rings (size 3 to 8) (size 9 to 14) (size 15 to 20)
#    0.000    1.200    4.000    2.400    5.600    0.400 
#    0.000    0.500    0.000    0.000    0.000    0.000 
#    0.000    0.000    0.000    0.000    0.000    0.000 
#
# Total GULP energy -222941.685653 kJ/mol
# GULP energy per Si atom -5573.542141 kJ/mol
# Density = 1.986842 g / cm^3
# Si number density = 19.913746 Si / 1000 Ang^3
#
#
#
# Elastic Constant Matrix: (Units=GPa)
#
#
# Indices 1 2 3 4 5 6 
#
# 1 112.8755 34.8570 42.6796 0.0000 0.0000 0.0000
# 2 34.8570 69.7461 8.2706 0.0000 0.0000 0.0000
# 3 42.6796 8.2706 119.3983 0.0000 0.0000 0.0000
# 4 0.0000 0.0000 0.0000 20.9457 0.0000 0.0000
# 5 0.0000 0.0000 0.0000 0.0000 53.9569 0.0000
# 6 0.0000 0.0000 0.0000 0.0000 0.0000 25.2876
#
#
#
# Elastic Compliance Matrix: (Units=1/GPa)
#
#
# Indices 1 2 3 4 5 6 
#
# 1 0.012062 -0.005562 -0.003926 0.000000 0.000000 0.000000
# 2 -0.005562 0.017022 0.000809 0.000000 0.000000 0.000000
# 3 -0.003926 0.000809 0.009723 0.000000 0.000000 0.000000
# 4 0.000000 0.000000 0.000000 0.047742 0.000000 0.000000
# 5 0.000000 0.000000 0.000000 0.000000 0.018533 0.000000
# 6 0.000000 0.000000 0.000000 0.000000 0.000000 0.039545
#
#
# Mechanical properties :
#
#
# Convention : Reuss Voigt Hill
#
# Bulk Modulus (GPa) = 46.62600 52.62602 49.62601
# Shear Modulus (GPa) = 29.56223 34.45222 32.00722
#
# Velocity S-wave (km/s) = 3.85712 4.16393 4.01346
# Velocity P-wave (km/s) = 6.58037 7.04287 6.81555
#
# Compressibility (1/GPa) = 0.02144726
#
# Stress axis : x y z
#
# Youngs Moduli (GPa) = 82.90779 58.74846 102.85202
#
# Poissons Ratio (x) = 0.32679 0.40382
# Poissons Ratio (y) = 0.46117 -0.08323
# Poissons Ratio (z) = 0.32551 -0.04754
#
# Static dielectric constant tensor:
#      x y z
#    x 1.755790 0.000000 0.000000 
#    y 0.000000 1.702250 0.000000 
#    z 0.000000 0.000000 1.757940 
# 
# From -- ./inp_files/62475.got.cif
#   From: 2010.05.17/outbox.cif.g08.bks.cpg/sg66_32_cif.got.tgz:62475.got - 2010.06.03 17:51:23.
