data_PCOD9499482
_publ_section_title
;
Structure prediction by ZEFSAII (Michael W. Deem and Ramdas Pophale) SiO2 
 PCOD9499482
Probable space group: C C C M
;
_chemical_formula_sum "Si O2"
_cell_formula_units_Z 88
_cell_length_a 26.999206
_cell_length_b 14.598787
_cell_length_c 12.890244
_cell_angle_alpha 90.000000
_cell_angle_beta 90.000000
_cell_angle_gamma 90.000000
_cell_volume 5080.762600
_symmetry_space_group_name_H-M "C C C M"
_symmetry_group_IT_number 66
_symmetry_cell_setting 'orthorhombic'
loop_
_space_group_symop_operation_xyz
x,y,z
-x,-y,z
x,-y,1/2-z
-x,y,1/2-z
-x,-y,-z
x,y,-z
-x,y,1/2+z
x,-y,1/2+z
1/2+x,1/2+y,z
1/2-x,1/2-y,z
1/2+x,1/2-y,1/2-z
1/2-x,1/2+y,1/2-z
1/2-x,1/2-y,-z
1/2+x,1/2+y,-z
1/2-x,1/2+y,1/2+z
1/2+x,1/2-y,1/2+z
loop_
_atom_site_type_symbol
_atom_site_label
_atom_site_fract_x
_atom_site_fract_y
_atom_site_fract_z
Si Si1 0.275567 0.350408 0.621201
Si Si2 0.350469 0.382038 0.000000
Si Si3 0.443186 0.600727 0.782455
Si Si4 0.857588 0.212374 0.277558
Si Si5 0.192185 0.594536 0.277627
Si Si6 0.058548 0.969350 0.000000
Si Si7 0.758256 0.362886 0.500000
O O1 0.283080 0.376309 0.500000
O O2 0.250000 0.250000 0.618618
O O3 0.324827 0.342812 0.692050
O O4 0.236611 0.405531 0.692237
O O5 0.349328 0.322247 0.105148
O O6 0.398629 0.450576 0.000000
O O7 0.293968 0.417594 0.000000
O O8 0.422999 0.500000 0.750000
O O9 0.500000 0.602612 0.750000
O O10 0.414063 0.685820 0.739205
O O11 0.436209 0.595386 0.903091
O O12 0.842010 0.316687 0.263045
O O13 0.165234 0.500000 0.250000
O O14 0.213905 0.609009 0.393819
O O15 0.000000 0.000000 0.000000
O O16 0.750000 0.250000 0.500000
#
# Coordination Sequence:
#
# PCOD9499482 Si02
#       7
#    16   8  16  16  16   8   8
#     4   9  19  35  52  74 109 147 183 230 282 335
#     4  12  20  34  62  79 111 154 192 244 288 349
#     4  11  22  38  57  84 116 146 185 242 296 366
#     4  11  21  37  57  81 112 154 192 234 298 343
#     4  11  23  37  56  81 116 154 201 249 282 343
#     4  12  22  38  57  88 120 145 186 242 302 369
#     4  12  20  40  57  83 116 155 210 253 285 347
#
# _framework density 17.320235
#
# number of rings (size 3 to 8) (size 9 to 14) (size 15 to 20)
#    0.000    1.091    7.273    0.545    2.545    2.182 
#    0.000    0.000    0.000    0.545    0.000    0.000 
#    0.000    5.818    0.000    0.000    0.000    0.000 
#
# Total GULP energy -244984.413071 kJ/mol
# GULP energy per Si atom -5567.827570 kJ/mol
# Density = 1.728081 g / cm^3
# Si number density = 17.320235 Si / 1000 Ang^3
#
#
#
# Elastic Constant Matrix: (Units=GPa)
#
#
# Indices 1 2 3 4 5 6 
#
# 1 79.0916 45.8171 19.5188 0.0000 0.0000 0.0000
# 2 45.8171 91.1746 37.6260 0.0000 0.0000 0.0000
# 3 19.5188 37.6260 153.1833 0.0000 0.0000 0.0000
# 4 0.0000 0.0000 0.0000 34.4332 0.0000 0.0000
# 5 0.0000 0.0000 0.0000 0.0000 24.0167 0.0000
# 6 0.0000 0.0000 0.0000 0.0000 0.0000 19.3932
#
#
#
# Elastic Compliance Matrix: (Units=1/GPa)
#
#
# Indices 1 2 3 4 5 6 
#
# 1 0.017836 -0.008931 -0.000079 0.000000 0.000000 0.000000
# 2 -0.008931 0.016677 -0.002958 0.000000 0.000000 0.000000
# 3 -0.000079 -0.002958 0.007265 0.000000 0.000000 0.000000
# 4 0.000000 0.000000 0.000000 0.029042 0.000000 0.000000
# 5 0.000000 0.000000 0.000000 0.000000 0.041638 0.000000
# 6 0.000000 0.000000 0.000000 0.000000 0.000000 0.051564
#
#
# Mechanical properties :
#
#
# Convention : Reuss Voigt Hill
#
# Bulk Modulus (GPa) = 56.04765 58.81922 57.43343
# Shear Modulus (GPa) = 25.78582 30.26780 28.02681
#
# Velocity S-wave (km/s) = 3.86264 4.18489 4.02699
# Velocity P-wave (km/s) = 7.23348 7.57527 7.40634
#
# Compressibility (1/GPa) = 0.01784196
#
# Stress axis : x y z
#
# Youngs Moduli (GPa) = 56.06483 59.96438 137.64915
#
# Poissons Ratio (x) = 0.53551 0.01090
# Poissons Ratio (y) = 0.50069 0.40720
# Poissons Ratio (z) = 0.00444 0.17739
#
# Static dielectric constant tensor:
#      x y z
#    x 1.559670 0.000000 0.000000 
#    y 0.000000 1.587210 0.000000 
#    z 0.000000 0.000000 1.722980 
# 
# From -- ./inp_files/16643.got.cif
#   From: 2010.05.17/outbox.cif.g08.bks.cpg/sg66_9_cif.got.tgz:16643.got - 2010.06.03 17:51:23.
