data_PCOD9499338
_publ_section_title
;
Structure prediction by ZEFSAII (Michael W. Deem and Ramdas Pophale) SiO2 
 PCOD9499338
Probable space group: C C C M
;
_chemical_formula_sum "Si O2"
_cell_formula_units_Z 96
_cell_length_a 16.468349
_cell_length_b 12.200841
_cell_length_c 27.234579
_cell_angle_alpha 90.000000
_cell_angle_beta 90.000000
_cell_angle_gamma 90.000000
_cell_volume 5472.181528
_symmetry_space_group_name_H-M "C C C M"
_symmetry_group_IT_number 66
_symmetry_cell_setting 'orthorhombic'
loop_
_space_group_symop_operation_xyz
x,y,z
-x,-y,z
x,-y,1/2-z
-x,y,1/2-z
-x,-y,-z
x,y,-z
-x,y,1/2+z
x,-y,1/2+z
1/2+x,1/2+y,z
1/2-x,1/2-y,z
1/2+x,1/2-y,1/2-z
1/2-x,1/2+y,1/2-z
1/2-x,1/2-y,-z
1/2+x,1/2+y,-z
1/2-x,1/2+y,1/2+z
1/2+x,1/2-y,1/2+z
loop_
_atom_site_type_symbol
_atom_site_label
_atom_site_fract_x
_atom_site_fract_y
_atom_site_fract_z
Si Si1 0.737518 0.573149 0.941811
Si Si2 0.406617 0.861780 0.304779
Si Si3 0.900036 0.624855 0.693804
Si Si4 0.369801 0.240418 0.903740
Si Si5 0.017319 0.621564 0.943207
Si Si6 0.807249 0.650487 0.595544
O O1 0.662599 0.640686 0.918548
O O2 0.814316 0.654116 0.933836
O O3 0.758823 0.462187 0.913297
O O4 0.726111 0.554258 0.000000
O O5 0.504145 0.846671 0.311089
O O6 0.379926 0.837421 0.249058
O O7 0.362224 0.792331 0.346632
O O8 0.393848 0.992511 0.310275
O O9 0.842847 0.666954 0.650500
O O10 0.461640 0.212559 0.918241
O O11 0.111828 0.643416 0.937094
O O12 0.000000 0.500000 0.921402
O O13 0.994106 0.618026 0.000000
O O14 0.750000 0.750000 0.581785
#
# Coordination Sequence:
#
# PCOD9499338 Si02
#       6
#    16  16  16  16  16  16
#     4  11  23  37  55  85 123 153 189 247 303 338
#     4   9  16  31  62  85 111 144 189 246 288 332
#     4   9  17  33  54  89 114 144 190 237 289 342
#     4  11  19  35  60  87 113 144 193 248 295 335
#     4  11  20  34  60  85 107 146 202 243 280 343
#     4  12  24  39  56  84 124 159 188 239 294 358
#
# _framework density 17.543277
#
# number of rings (size 3 to 8) (size 9 to 14) (size 15 to 20)
#    0.000    1.500    5.000    3.500    0.000    1.333 
#    3.000    0.833    0.000    2.000    0.000    2.333 
#    0.000    0.000    0.000    0.000    0.000    0.000 
#
# Total GULP energy -267735.264928 kJ/mol
# GULP energy per Si atom -5577.818019 kJ/mol
# Density = 1.750335 g / cm^3
# Si number density = 17.543277 Si / 1000 Ang^3
#
#
#
# Elastic Constant Matrix: (Units=GPa)
#
#
# Indices 1 2 3 4 5 6 
#
# 1 65.5302 44.7435 14.0082 0.0000 0.0000 0.0000
# 2 44.7435 75.0766 15.9672 0.0000 0.0000 0.0000
# 3 14.0082 15.9672 115.9175 0.0000 0.0000 0.0000
# 4 0.0000 0.0000 0.0000 -4.4889 0.0000 0.0000
# 5 0.0000 0.0000 0.0000 0.0000 0.1291 0.0000
# 6 0.0000 0.0000 0.0000 0.0000 0.0000 25.5050
#
#
#
# Elastic Compliance Matrix: (Units=1/GPa)
#
#
# Indices 1 2 3 4 5 6 
#
# 1 0.025850 -0.015186 -0.001032 0.000000 0.000000 0.000000
# 2 -0.015186 0.022643 -0.001284 0.000000 0.000000 0.000000
# 3 -0.001032 -0.001284 0.008928 0.000000 0.000000 0.000000
# 4 0.000000 0.000000 0.000000 -0.222773 0.000000 0.000000
# 5 0.000000 0.000000 0.000000 0.000000 7.748396 0.000000
# 6 0.000000 0.000000 0.000000 0.000000 0.000000 0.039208
#
#
# Mechanical properties :
#
#
# Convention : Reuss Voigt Hill
#
# Bulk Modulus (GPa) = 44.60830 45.10689 44.85760
# Shear Modulus (GPa) = 0.65234 16.34939 8.50087
#
# Velocity S-wave (km/s) = 0.61045 3.05609 2.20367
# Velocity P-wave (km/s) = 5.09702 6.18228 5.66569
#
# Compressibility (1/GPa) = 0.02241735
#
# Stress axis : x y z
#
# Youngs Moduli (GPa) = 38.68506 44.16309 112.00238
#
# Poissons Ratio (x) = 0.67067 0.11559
# Poissons Ratio (y) = 0.58748 0.14379
# Poissons Ratio (z) = 0.03992 0.05670
#
# Static dielectric constant tensor:
#      x y z
#    x 1.603810 0.000000 0.000000 
#    y 0.000000 1.580400 0.000000 
#    z 0.000000 0.000000 1.655250 
# 
# From -- ./inp_files/65214.got.cif
#   From: 2010.05.17/outbox.cif.g08.bks.cpg/sg66_33_cif.got.tgz:65214.got - 2010.06.03 17:51:23.
