data_PCOD9499925
_publ_section_title
;
Structure prediction by ZEFSAII (Michael W. Deem and Ramdas Pophale) SiO2 
 PCOD9499925
Probable space group: C C C M
;
_chemical_formula_sum "Si O2"
_cell_formula_units_Z 64
_cell_length_a 10.585681
_cell_length_b 10.375499
_cell_length_c 27.970768
_cell_angle_alpha 90.000000
_cell_angle_beta 90.000000
_cell_angle_gamma 90.000000
_cell_volume 3072.077633
_symmetry_space_group_name_H-M "C C C M"
_symmetry_group_IT_number 66
_symmetry_cell_setting 'orthorhombic'
loop_
_space_group_symop_operation_xyz
x,y,z
-x,-y,z
x,-y,1/2-z
-x,y,1/2-z
-x,-y,-z
x,y,-z
-x,y,1/2+z
x,-y,1/2+z
1/2+x,1/2+y,z
1/2-x,1/2-y,z
1/2+x,1/2-y,1/2-z
1/2-x,1/2+y,1/2-z
1/2-x,1/2-y,-z
1/2+x,1/2+y,-z
1/2-x,1/2+y,1/2+z
1/2+x,1/2-y,1/2+z
loop_
_atom_site_type_symbol
_atom_site_label
_atom_site_fract_x
_atom_site_fract_y
_atom_site_fract_z
Si Si1 0.705308 0.543887 0.446285
Si Si2 0.379469 0.920478 0.629311
Si Si3 0.967564 0.786854 0.947008
Si Si4 0.353343 0.148048 0.235081
O O1 0.762454 0.554390 0.500000
O O2 0.795451 0.519048 0.401745
O O3 0.618791 0.414735 0.446852
O O4 0.610128 0.663295 0.439846
O O5 0.419447 0.810088 0.592349
O O6 0.332525 0.858099 0.677936
O O7 0.500000 0.000000 0.645584
O O8 0.956440 0.728513 0.000000
O O9 0.500000 0.179573 0.250000
O O10 0.250000 0.250000 0.254938
O O11 0.329517 0.000000 0.250000
#
# Coordination Sequence:
#
# PCOD9499925 Si02
#       4
#    16  16  16  16
#     4   9  19  36  58  88 126 168 215 258 301 370
#     4  12  23  38  61  89 127 167 207 265 328 382
#     4   9  19  36  58  88 126 168 215 258 301 370
#     4  11  25  49  72  99 132 168 219 283 344 409
#
# _framework density 20.832806999999999
#
# number of rings (size 3 to 8) (size 9 to 14) (size 15 to 20)
#    0.000    1.750    2.500    4.500    0.000    7.500 
#    0.000    2.500    0.000    0.000    0.000    0.000 
#    0.000    0.000    0.000    0.000    0.000    0.000 
#
# Total GULP energy -178652.404621 kJ/mol
# GULP energy per Si atom -5582.887644 kJ/mol
# Density = 2.078539 g / cm^3
# Si number density = 20.832807 Si / 1000 Ang^3
#
#
#
# Elastic Constant Matrix: (Units=GPa)
#
#
# Indices 1 2 3 4 5 6 
#
# 1 87.9489 30.5793 26.2231 0.0000 0.0000 0.0000
# 2 30.5793 79.0587 31.7125 0.0000 0.0000 0.0000
# 3 26.2231 31.7125 121.4678 0.0000 0.0000 0.0000
# 4 0.0000 0.0000 0.0000 -106.2704 0.0000 0.0000
# 5 0.0000 0.0000 0.0000 0.0000 -165.6753 0.0000
# 6 0.0000 0.0000 0.0000 0.0000 0.0000 37.0579
#
#
#
# Elastic Compliance Matrix: (Units=1/GPa)
#
#
# Indices 1 2 3 4 5 6 
#
# 1 0.013454 -0.004511 -0.001727 0.000000 0.000000 0.000000
# 2 -0.004511 0.015641 -0.003110 0.000000 0.000000 0.000000
# 3 -0.001727 -0.003110 0.009417 0.000000 0.000000 0.000000
# 4 0.000000 0.000000 0.000000 -0.009410 0.000000 0.000000
# 5 0.000000 0.000000 0.000000 0.000000 -0.006036 0.000000
# 6 0.000000 0.000000 0.000000 0.000000 0.000000 0.026985
#
#
# Mechanical properties :
#
#
# Convention : Reuss Voigt Hill
#
# Bulk Modulus (GPa) = 50.46172 51.72280 51.09226
# Shear Modulus (GPa) = 66.35576 -33.64688 16.35444
#
# Velocity S-wave (km/s) = 5.64984 -4.02318 2.80488
# Velocity P-wave (km/s) = 8.17532 1.81664 5.92182
#
# Compressibility (1/GPa) = 0.01981700
#
# Stress axis : x y z
#
# Youngs Moduli (GPa) = 74.32973 63.93427 106.18808
#
# Poissons Ratio (x) = 0.28842 0.18335
# Poissons Ratio (y) = 0.33531 0.33021
# Poissons Ratio (z) = 0.12834 0.19881
#
# Static dielectric constant tensor:
#      x y z
#    x 1.817540 0.000000 0.000000 
#    y 0.000000 1.749730 0.000000 
#    z 0.000000 0.000000 1.903010 
# 
# From -- ./inp_files/67907.got.cif
#   From: 2010.05.17/outbox.cif.g08.bks.cpg/sg66_34_cif.got.tgz:67907.got - 2010.06.03 17:51:23.
