data_PCOD9499604
_publ_section_title
;
Structure prediction by ZEFSAII (Michael W. Deem and Ramdas Pophale) SiO2 
 PCOD9499604
Probable space group: C C C M
;
_chemical_formula_sum "Si O2"
_cell_formula_units_Z 72
_cell_length_a 18.334818
_cell_length_b 8.672238
_cell_length_c 23.372759
_cell_angle_alpha 90.000000
_cell_angle_beta 90.000000
_cell_angle_gamma 90.000000
_cell_volume 3716.359961
_symmetry_space_group_name_H-M "C C C M"
_symmetry_group_IT_number 66
_symmetry_cell_setting 'orthorhombic'
loop_
_space_group_symop_operation_xyz
x,y,z
-x,-y,z
x,-y,1/2-z
-x,y,1/2-z
-x,-y,-z
x,y,-z
-x,y,1/2+z
x,-y,1/2+z
1/2+x,1/2+y,z
1/2-x,1/2-y,z
1/2+x,1/2-y,1/2-z
1/2-x,1/2+y,1/2-z
1/2-x,1/2-y,-z
1/2+x,1/2+y,-z
1/2-x,1/2+y,1/2+z
1/2+x,1/2-y,1/2+z
loop_
_atom_site_type_symbol
_atom_site_label
_atom_site_fract_x
_atom_site_fract_y
_atom_site_fract_z
Si Si1 0.250000 0.750000 0.660442
Si Si2 0.625575 0.270216 0.064705
Si Si3 0.473059 0.822842 0.167793
Si Si4 0.604972 0.676005 0.770910
Si Si5 0.746990 0.001740 0.065630
O O1 0.317750 0.706865 0.700310
O O2 0.229918 0.613968 0.616473
O O3 0.563369 0.229926 0.109184
O O4 0.685617 0.133868 0.066246
O O5 0.673882 0.421796 0.077299
O O6 0.597533 0.281994 0.000000
O O7 0.541559 0.716108 0.184053
O O8 0.413676 0.788858 0.217632
O O9 0.500000 0.000000 0.167441
O O10 0.599948 0.500000 0.750000
O O11 0.748116 0.940566 0.000000
#
# Coordination Sequence:
#
# PCOD9499604 Si02
#       5
#     8  16  16  16  16
#     4  12  23  38  62  86 109 152 204 236 280 354
#     4   9  19  38  62  87 117 154 191 231 288 349
#     4  11  22  39  60  84 117 153 192 241 290 338
#     4  11  25  40  57  82 118 154 189 242 297 339
#     4   9  19  36  59  88 121 150 185 241 291 333
#
# _framework density 19.373797
#
# number of rings (size 3 to 8) (size 9 to 14) (size 15 to 20)
#    0.000    1.778    0.000    7.000    0.000    5.778 
#    0.000    2.222    0.000    5.333    0.000    0.000 
#    0.000    0.000    0.000    0.000    0.000    0.000 
#
# Total GULP energy -201058.999883 kJ/mol
# GULP energy per Si atom -5584.972219 kJ/mol
# Density = 1.932970 g / cm^3
# Si number density = 19.373797 Si / 1000 Ang^3
#
#
#
# Elastic Constant Matrix: (Units=GPa)
#
#
# Indices 1 2 3 4 5 6 
#
# 1 94.0223 38.6716 66.5311 0.0000 0.0000 0.0000
# 2 38.6716 80.7724 38.1235 0.0000 0.0000 0.0000
# 3 66.5311 38.1235 97.1733 0.0000 0.0000 0.0000
# 4 0.0000 0.0000 0.0000 23.6665 0.0000 0.0000
# 5 0.0000 0.0000 0.0000 0.0000 24.3737 0.0000
# 6 0.0000 0.0000 0.0000 0.0000 0.0000 9.2986
#
#
#
# Elastic Compliance Matrix: (Units=1/GPa)
#
#
# Indices 1 2 3 4 5 6 
#
# 1 0.021706 -0.004146 -0.013235 0.000000 0.000000 0.000000
# 2 -0.004146 0.015986 -0.003433 0.000000 0.000000 0.000000
# 3 -0.013235 -0.003433 0.020699 0.000000 0.000000 0.000000
# 4 0.000000 0.000000 0.000000 0.042254 0.000000 0.000000
# 5 0.000000 0.000000 0.000000 0.000000 0.041028 0.000000
# 6 0.000000 0.000000 0.000000 0.000000 0.000000 0.107543
#
#
# Mechanical properties :
#
#
# Convention : Reuss Voigt Hill
#
# Bulk Modulus (GPa) = 59.65324 62.06892 60.86108
# Shear Modulus (GPa) = 16.86729 20.04387 18.45558
#
# Velocity S-wave (km/s) = 2.95383 3.21999 3.08978
# Velocity P-wave (km/s) = 6.51852 6.77728 6.64916
#
# Compressibility (1/GPa) = 0.01676355
#
# Stress axis : x y z
#
# Youngs Moduli (GPa) = 46.07013 62.55588 48.31058
#
# Poissons Ratio (x) = 0.25933 0.63939
# Poissons Ratio (y) = 0.19098 0.16587
# Poissons Ratio (z) = 0.60974 0.21477
#
# Static dielectric constant tensor:
#      x y z
#    x 1.646350 0.000000 0.000000 
#    y 0.000000 1.702900 0.000000 
#    z 0.000000 0.000000 1.674500 
# 
# From -- ./inp_files/55242.got.cif
#   From: 2010.05.17/outbox.cif.g08.bks.cpg/sg66_28_cif.got.tgz:55242.got - 2010.06.03 17:51:23.
