data_PCOD9499598
_publ_section_title
;
Structure prediction by ZEFSAII (Michael W. Deem and Ramdas Pophale) SiO2 
 PCOD9499598
Probable space group: C C C M
;
_chemical_formula_sum "Si O2"
_cell_formula_units_Z 72
_cell_length_a 13.004864
_cell_length_b 32.213145
_cell_length_c 9.251659
_cell_angle_alpha 90.000000
_cell_angle_beta 90.000000
_cell_angle_gamma 90.000000
_cell_volume 3875.775021
_symmetry_space_group_name_H-M "C C C M"
_symmetry_group_IT_number 66
_symmetry_cell_setting 'orthorhombic'
loop_
_space_group_symop_operation_xyz
x,y,z
-x,-y,z
x,-y,1/2-z
-x,y,1/2-z
-x,-y,-z
x,y,-z
-x,y,1/2+z
x,-y,1/2+z
1/2+x,1/2+y,z
1/2-x,1/2-y,z
1/2+x,1/2-y,1/2-z
1/2-x,1/2+y,1/2-z
1/2-x,1/2-y,-z
1/2+x,1/2+y,-z
1/2-x,1/2+y,1/2+z
1/2+x,1/2-y,1/2+z
loop_
_atom_site_type_symbol
_atom_site_label
_atom_site_fract_x
_atom_site_fract_y
_atom_site_fract_z
Si Si1 0.900490 0.335822 0.669506
Si Si2 0.684873 0.620861 0.167481
Si Si3 0.128501 0.256747 0.654822
Si Si4 0.500000 0.680450 0.250000
Si Si5 0.112068 0.041333 0.674389
O O1 0.912624 0.340628 0.500000
O O2 0.789505 0.355057 0.707301
O O3 0.896261 0.287482 0.714843
O O4 0.000000 0.354032 0.750000
O O5 0.584939 0.650815 0.177086
O O6 0.670268 0.582571 0.275578
O O7 0.692366 0.606738 0.000000
O O8 0.104151 0.277361 0.500000
O O9 0.250000 0.250000 0.660050
O O10 0.069338 0.213192 0.661233
O O11 0.104310 0.037641 0.500000
O O12 0.000000 0.045481 0.750000
O O13 0.157352 0.000000 0.750000
#
# Coordination Sequence:
#
# PCOD9499598 Si02
#       5
#    16  16  16   8  16
#     4  11  24  41  60  83 115 159 209 257 304 358
#     4  11  24  40  60  90 125 159 201 250 306 363
#     4  11  23  37  54  81 116 158 204 250 301 359
#     4  12  22  36  59  88 122 160 201 254 308 358
#     4  11  22  38  63  93 128 162 195 237 297 364
#
# _framework density 18.576930999999998
#
# number of rings (size 3 to 8) (size 9 to 14) (size 15 to 20)
#    0.000    0.889    4.444    4.000    0.000    4.000 
#    0.000    0.000    0.000    0.667    0.000    4.667 
#    0.000    0.000    0.000    0.000    0.000    0.000 
#
# Total GULP energy -200828.180239 kJ/mol
# GULP energy per Si atom -5578.560562 kJ/mol
# Density = 1.853465 g / cm^3
# Si number density = 18.576931 Si / 1000 Ang^3
#
#
#
# Elastic Constant Matrix: (Units=GPa)
#
#
# Indices 1 2 3 4 5 6 
#
# 1 135.1642 45.9725 42.4293 0.0000 0.0000 0.0000
# 2 45.9725 105.6258 51.5349 0.0000 0.0000 0.0000
# 3 42.4293 51.5349 122.2481 0.0000 0.0000 0.0000
# 4 0.0000 0.0000 0.0000 21.0298 0.0000 0.0000
# 5 0.0000 0.0000 0.0000 0.0000 21.3143 0.0000
# 6 0.0000 0.0000 0.0000 0.0000 0.0000 18.0947
#
#
#
# Elastic Compliance Matrix: (Units=1/GPa)
#
#
# Indices 1 2 3 4 5 6 
#
# 1 0.009006 -0.003015 -0.001855 0.000000 0.000000 0.000000
# 2 -0.003015 0.012928 -0.004404 0.000000 0.000000 0.000000
# 3 -0.001855 -0.004404 0.010680 0.000000 0.000000 0.000000
# 4 0.000000 0.000000 0.000000 0.047552 0.000000 0.000000
# 5 0.000000 0.000000 0.000000 0.000000 0.046917 0.000000
# 6 0.000000 0.000000 0.000000 0.000000 0.000000 0.055265
#
#
# Mechanical properties :
#
#
# Convention : Reuss Voigt Hill
#
# Bulk Modulus (GPa) = 71.08402 71.43459 71.25930
# Shear Modulus (GPa) = 24.32104 26.96119 25.64111
#
# Velocity S-wave (km/s) = 3.62222 3.81376 3.71922
# Velocity P-wave (km/s) = 7.47273 7.61117 7.54227
#
# Compressibility (1/GPa) = 0.01406786
#
# Stress axis : x y z
#
# Youngs Moduli (GPa) = 111.03613 77.35112 93.63092
#
# Poissons Ratio (x) = 0.23320 0.17367
# Poissons Ratio (y) = 0.33475 0.41231
# Poissons Ratio (z) = 0.20596 0.34062
#
# Static dielectric constant tensor:
#      x y z
#    x 1.674880 0.000000 0.000000 
#    y 0.000000 1.644710 0.000000 
#    z 0.000000 0.000000 1.662530 
# 
# From -- ./inp_files/5538.got.cif
#   From: 2010.05.17/outbox.cif.g08.bks.cpg/sg66_3_cif.got.tgz:5538.got - 2010.06.03 17:51:23.
