data_PCOD9499847
_publ_section_title
;
Structure prediction by ZEFSAII (Michael W. Deem and Ramdas Pophale) SiO2 
 PCOD9499847
Probable space group: C C C M
;
_chemical_formula_sum "Si O2"
_cell_formula_units_Z 48
_cell_length_a 22.282200
_cell_length_b 5.036273
_cell_length_c 21.407236
_cell_angle_alpha 90.000000
_cell_angle_beta 90.000000
_cell_angle_gamma 90.000000
_cell_volume 2402.303802
_symmetry_space_group_name_H-M "C C C M"
_symmetry_group_IT_number 66
_symmetry_cell_setting 'orthorhombic'
loop_
_space_group_symop_operation_xyz
x,y,z
-x,-y,z
x,-y,1/2-z
-x,y,1/2-z
-x,-y,-z
x,y,-z
-x,y,1/2+z
x,-y,1/2+z
1/2+x,1/2+y,z
1/2-x,1/2-y,z
1/2+x,1/2-y,1/2-z
1/2-x,1/2+y,1/2-z
1/2-x,1/2-y,-z
1/2+x,1/2+y,-z
1/2-x,1/2+y,1/2+z
1/2+x,1/2-y,1/2+z
loop_
_atom_site_type_symbol
_atom_site_label
_atom_site_fract_x
_atom_site_fract_y
_atom_site_fract_z
Si Si1 0.705372 0.497682 0.500000
Si Si2 0.639452 0.435371 0.129435
Si Si3 0.250000 0.750000 0.788409
Si Si4 0.570566 0.053021 0.676429
O O1 0.750000 0.750000 0.500000
O O2 0.663580 0.497154 0.438974
O O3 0.750000 0.250000 0.500000
O O4 0.698471 0.389563 0.171374
O O5 0.595905 0.659029 0.158083
O O6 0.605259 0.157434 0.133769
O O7 0.223922 0.500000 0.750000
O O8 0.500000 0.000000 0.667120
O O9 0.582092 0.000000 0.750000
#
# Coordination Sequence:
#
# PCOD9499847 Si02
#       4
#     8  16   8  16
#     4  12  26  46  65  92 135 180 212 263 327 392
#     4  12  24  43  66  96 131 174 221 262 328 389
#     4  12  24  37  64 101 136 162 212 280 336 392
#     4  11  24  44  68  97 133 173 215 270 330 384
#
# _framework density 19.980820999999999
#
# number of rings (size 3 to 8) (size 9 to 14) (size 15 to 20)
#    0.000    0.333    1.667    9.000    2.333    2.667 
#    0.000    5.000    0.000    0.000    0.000    0.000 
#    0.000    0.000    0.000    0.000    0.000    0.000 
#
# Total GULP energy -134285.677539 kJ/mol
# GULP energy per Si atom -5595.236564 kJ/mol
# Density = 1.993534 g / cm^3
# Si number density = 19.980821 Si / 1000 Ang^3
#
#
#
# Elastic Constant Matrix: (Units=GPa)
#
#
# Indices 1 2 3 4 5 6 
#
# 1 113.0908 8.1914 29.7818 0.0000 0.0000 0.0000
# 2 8.1914 99.8438 7.0769 0.0000 0.0000 0.0000
# 3 29.7818 7.0769 106.6347 0.0000 0.0000 0.0000
# 4 0.0000 0.0000 0.0000 23.0779 0.0000 0.0000
# 5 0.0000 0.0000 0.0000 0.0000 35.8606 0.0000
# 6 0.0000 0.0000 0.0000 0.0000 0.0000 44.5500
#
#
#
# Elastic Compliance Matrix: (Units=1/GPa)
#
#
# Indices 1 2 3 4 5 6 
#
# 1 0.009580 -0.000599 -0.002636 0.000000 0.000000 0.000000
# 2 -0.000599 0.010100 -0.000503 0.000000 0.000000 0.000000
# 3 -0.002636 -0.000503 0.010147 0.000000 0.000000 0.000000
# 4 0.000000 0.000000 0.000000 0.043332 0.000000 0.000000
# 5 0.000000 0.000000 0.000000 0.000000 0.027886 0.000000
# 6 0.000000 0.000000 0.000000 0.000000 0.000000 0.022447
#
#
# Mechanical properties :
#
#
# Convention : Reuss Voigt Hill
#
# Bulk Modulus (GPa) = 44.73897 45.51885 45.12891
# Shear Modulus (GPa) = 36.12240 38.99898 37.56069
#
# Velocity S-wave (km/s) = 4.25650 4.42273 4.34041
# Velocity P-wave (km/s) = 6.82617 6.99368 6.91043
#
# Compressibility (1/GPa) = 0.02235188
#
# Stress axis : x y z
#
# Youngs Moduli (GPa) = 104.38439 99.00553 98.54794
#
# Poissons Ratio (x) = 0.05932 0.25975
# Poissons Ratio (y) = 0.06254 0.04957
# Poissons Ratio (z) = 0.27514 0.04980
#
# Static dielectric constant tensor:
#      x y z
#    x 1.730840 0.000000 0.000000 
#    y 0.000000 1.640270 0.000000 
#    z 0.000000 0.000000 1.703390 
# 
# From -- ./inp_files/51424.got.cif
#   From: 2010.05.17/outbox.cif.g08.bks.cpg/sg66_26_cif.got.tgz:51424.got - 2010.06.03 17:51:23.
