data_PCOD9499580
_publ_section_title
;
Structure prediction by ZEFSAII (Michael W. Deem and Ramdas Pophale) SiO2 
 PCOD9499580
Probable space group: C C C M
;
_chemical_formula_sum "Si O2"
_cell_formula_units_Z 68
_cell_length_a 7.854145
_cell_length_b 15.660659
_cell_length_c 26.780970
_cell_angle_alpha 90.000000
_cell_angle_beta 90.000000
_cell_angle_gamma 90.000000
_cell_volume 3294.088410
_symmetry_space_group_name_H-M "C C C M"
_symmetry_group_IT_number 66
_symmetry_cell_setting 'orthorhombic'
loop_
_space_group_symop_operation_xyz
x,y,z
-x,-y,z
x,-y,1/2-z
-x,y,1/2-z
-x,-y,-z
x,y,-z
-x,y,1/2+z
x,-y,1/2+z
1/2+x,1/2+y,z
1/2-x,1/2-y,z
1/2+x,1/2-y,1/2-z
1/2-x,1/2+y,1/2-z
1/2-x,1/2-y,-z
1/2+x,1/2+y,-z
1/2-x,1/2+y,1/2+z
1/2+x,1/2-y,1/2+z
loop_
_atom_site_type_symbol
_atom_site_label
_atom_site_fract_x
_atom_site_fract_y
_atom_site_fract_z
Si Si1 0.702999 0.843809 0.891896
Si Si2 0.694456 0.153352 0.889409
Si Si3 0.701968 0.602555 0.000000
Si Si4 0.690398 0.507755 0.174808
Si Si5 0.793808 0.904276 0.500000
Si Si6 0.500000 0.000000 0.250000
O O1 0.750000 0.750000 0.873752
O O2 0.505701 0.857406 0.882233
O O3 0.733811 0.851623 0.950711
O O4 0.812054 0.917255 0.866066
O O5 0.750000 0.250000 0.877130
O O6 0.733437 0.136711 0.948012
O O7 0.775096 0.081231 0.853983
O O8 0.497905 0.601411 0.000000
O O9 0.759867 0.503716 0.000000
O O10 0.500000 0.500000 0.196720
O O11 0.851937 0.531673 0.210498
#
# Coordination Sequence:
#
# PCOD9499580 Si02
#       6
#    16  16   8  16   8   4
#     4  12  24  42  68 102 143 185 232 280 341 412
#     4  12  24  42  68 102 143 185 232 280 341 412
#     4  11  22  37  62 100 141 191 231 271 334 409
#     4  12  25  48  76 103 137 180 227 291 354 415
#     4  11  22  37  62 100 141 191 231 271 334 409
#     4  12  26  52  76 104 132 178 234 292 368 408
#
# _framework density 20.643041
#
# number of rings (size 3 to 8) (size 9 to 14) (size 15 to 20)
#    0.000    0.235    4.706    6.000    0.000    0.941 
#    0.000    1.176    0.000    0.000    0.000    0.000 
#    0.000    0.000    0.000    0.000    0.000    0.000 
#
# Total GULP energy -189807.959248 kJ/mol
# GULP energy per Si atom -5582.587037 kJ/mol
# Density = 2.059606 g / cm^3
# Si number density = 20.643041 Si / 1000 Ang^3
#
#
#
# Elastic Constant Matrix: (Units=GPa)
#
#
# Indices 1 2 3 4 5 6 
#
# 1 151.2978 22.4948 24.9368 0.0000 0.0000 0.0000
# 2 22.4948 142.3218 28.1955 0.0000 0.0000 0.0000
# 3 24.9368 28.1955 90.6767 0.0000 0.0000 0.0000
# 4 0.0000 0.0000 0.0000 1.0734 0.0000 0.0000
# 5 0.0000 0.0000 0.0000 0.0000 11.1285 0.0000
# 6 0.0000 0.0000 0.0000 0.0000 0.0000 29.3490
#
#
#
# Elastic Compliance Matrix: (Units=1/GPa)
#
#
# Indices 1 2 3 4 5 6 
#
# 1 0.007002 -0.000773 -0.001685 0.000000 0.000000 0.000000
# 2 -0.000773 0.007573 -0.002142 0.000000 0.000000 0.000000
# 3 -0.001685 -0.002142 0.012158 0.000000 0.000000 0.000000
# 4 0.000000 0.000000 0.000000 0.931638 0.000000 0.000000
# 5 0.000000 0.000000 0.000000 0.000000 0.089860 0.000000
# 6 0.000000 0.000000 0.000000 0.000000 0.000000 0.034073
#
#
# Mechanical properties :
#
#
# Convention : Reuss Voigt Hill
#
# Bulk Modulus (GPa) = 57.03846 59.50561 58.27204
# Shear Modulus (GPa) = 4.55644 28.88811 16.72228
#
# Velocity S-wave (km/s) = 1.48729 3.74493 2.84926
# Velocity P-wave (km/s) = 5.53536 6.89840 6.25412
#
# Compressibility (1/GPa) = 0.01753203
#
# Stress axis : x y z
#
# Youngs Moduli (GPa) = 142.81301 132.05011 82.25190
#
# Poissons Ratio (x) = 0.10206 0.13862
# Poissons Ratio (y) = 0.11037 0.17620
# Poissons Ratio (z) = 0.24069 0.28288
#
# Static dielectric constant tensor:
#      x y z
#    x 1.741430 0.000000 0.000000 
#    y 0.000000 1.779190 0.000000 
#    z 0.000000 0.000000 1.789450 
# 
# From -- ./inp_files/62117.got.cif
#   From: 2010.05.17/outbox.cif.g08.bks.cpg/sg66_32_cif.got.tgz:62117.got - 2010.06.03 17:51:23.
