data_PCOD9499705
_publ_section_title
;
Structure prediction by ZEFSAII (Michael W. Deem and Ramdas Pophale) SiO2 
 PCOD9499705
Probable space group: C C C M
;
_chemical_formula_sum "Si O2"
_cell_formula_units_Z 96
_cell_length_a 29.422521
_cell_length_b 8.170756
_cell_length_c 14.617702
_cell_angle_alpha 90.000000
_cell_angle_beta 90.000000
_cell_angle_gamma 90.000000
_cell_volume 3514.157540
_symmetry_space_group_name_H-M "C C C M"
_symmetry_group_IT_number 66
_symmetry_cell_setting 'orthorhombic'
loop_
_space_group_symop_operation_xyz
x,y,z
-x,-y,z
x,-y,1/2-z
-x,y,1/2-z
-x,-y,-z
x,y,-z
-x,y,1/2+z
x,-y,1/2+z
1/2+x,1/2+y,z
1/2-x,1/2-y,z
1/2+x,1/2-y,1/2-z
1/2-x,1/2+y,1/2-z
1/2-x,1/2-y,-z
1/2+x,1/2+y,-z
1/2-x,1/2+y,1/2+z
1/2+x,1/2-y,1/2+z
loop_
_atom_site_type_symbol
_atom_site_label
_atom_site_fract_x
_atom_site_fract_y
_atom_site_fract_z
Si Si1 0.611439 0.711962 0.895938
Si Si2 0.694603 0.889730 0.889771
Si Si3 0.943268 0.095863 0.154121
Si Si4 0.361254 0.221015 0.388947
Si Si5 0.721736 0.578375 0.392916
Si Si6 0.516184 0.168239 0.354659
O O1 0.661933 0.742582 0.857002
O O2 0.589102 0.533146 0.896588
O O3 0.569916 0.818403 0.858404
O O4 0.616205 0.765956 0.000000
O O5 0.755254 0.561136 0.853776
O O6 0.663073 0.048496 0.871103
O O7 0.701882 0.876951 0.000000
O O8 0.909186 0.250622 0.159178
O O9 0.988902 0.171387 0.110637
O O10 0.950899 0.000000 0.250000
O O11 0.366613 0.229102 0.500000
O O12 0.326524 0.363099 0.356257
O O13 0.713165 0.535713 0.500000
O O14 0.750000 0.750000 0.393798
O O15 0.500000 0.168646 0.250000
O O16 0.500000 0.000000 0.397995
#
# Coordination Sequence:
#
# PCOD9499705 Si02
#       6
#    16  16  16  16  16  16
#     4  11  23  38  61  91 120 152 194 250 309 365
#     4   8  15  31  56  89 120 148 194 252 300 349
#     4  12  24  39  57  81 118 158 194 242 309 377
#     4   9  17  32  57  86 115 155 204 246 290 353
#     4   7  11  24  51  83 115 151 192 241 293 343
#     4  11  24  43  64  84 110 152 203 247 304 381
#
# _framework density 27.318069000000001
#
# number of rings (size 3 to 8) (size 9 to 14) (size 15 to 20)
#    0.000    2.333    1.667    4.000    0.000    2.333 
#    0.000    0.833    0.000   10.000    0.000    0.000 
#    0.000    0.000    0.000    0.000    0.000    0.000 
#
# Total GULP energy -268245.523977 kJ/mol
# GULP energy per Si atom -5588.448416 kJ/mol
# Density = 2.725589 g / cm^3
# Si number density = 27.318069 Si / 1000 Ang^3
#
#
#
# Elastic Constant Matrix: (Units=GPa)
#
#
# Indices 1 2 3 4 5 6 
#
# 1 178.1366 27.0491 27.3994 0.0000 0.0000 0.0000
# 2 27.0491 131.5304 9.2414 0.0000 0.0000 0.0000
# 3 27.3994 9.2414 83.3687 0.0000 0.0000 0.0000
# 4 0.0000 0.0000 0.0000 6.2322 0.0000 0.0000
# 5 0.0000 0.0000 0.0000 0.0000 20.6708 0.0000
# 6 0.0000 0.0000 0.0000 0.0000 0.0000 62.6456
#
#
#
# Elastic Compliance Matrix: (Units=1/GPa)
#
#
# Indices 1 2 3 4 5 6 
#
# 1 0.006071 -0.001117 -0.001871 0.000000 0.000000 0.000000
# 2 -0.001117 0.007868 -0.000505 0.000000 0.000000 0.000000
# 3 -0.001871 -0.000505 0.012666 0.000000 0.000000 0.000000
# 4 0.000000 0.000000 0.000000 0.160458 0.000000 0.000000
# 5 0.000000 0.000000 0.000000 0.000000 0.048377 0.000000
# 6 0.000000 0.000000 0.000000 0.000000 0.000000 0.015963
#
#
# Mechanical properties :
#
#
# Convention : Reuss Voigt Hill
#
# Bulk Modulus (GPa) = 50.97361 57.82392 54.39876
# Shear Modulus (GPa) = 18.87294 39.86611 29.36952
#
# Velocity S-wave (km/s) = 2.63127 3.82426 3.28242
# Velocity P-wave (km/s) = 5.28500 6.38066 5.85850
#
# Compressibility (1/GPa) = 0.01961800
#
# Stress axis : x y z
#
# Youngs Moduli (GPa) = 164.71374 127.09705 78.95174
#
# Poissons Ratio (x) = 0.14197 0.14776
# Poissons Ratio (y) = 0.18399 0.03987
# Poissons Ratio (z) = 0.30826 0.06419
#
# Static dielectric constant tensor:
#      x y z
#    x 2.128360 0.000000 0.000000 
#    y 0.000000 2.273950 0.000000 
#    z 0.000000 0.000000 2.105750 
# 
# From -- ./inp_files/52950.got.cif
#   From: 2010.05.17/outbox.cif.g08.bks.cpg/sg66_27_cif.got.tgz:52950.got - 2010.06.03 17:51:23.
