data_PCOD9499727
_publ_section_title
;
Structure prediction by ZEFSAII (Michael W. Deem and Ramdas Pophale) SiO2 
 PCOD9499727
Probable space group: C C C M
;
_chemical_formula_sum "Si O2"
_cell_formula_units_Z 88
_cell_length_a 9.856173
_cell_length_b 12.204111
_cell_length_c 29.905523
_cell_angle_alpha 90.000000
_cell_angle_beta 90.000000
_cell_angle_gamma 90.000000
_cell_volume 3597.210636
_symmetry_space_group_name_H-M "C C C M"
_symmetry_group_IT_number 66
_symmetry_cell_setting 'orthorhombic'
loop_
_space_group_symop_operation_xyz
x,y,z
-x,-y,z
x,-y,1/2-z
-x,y,1/2-z
-x,-y,-z
x,y,-z
-x,y,1/2+z
x,-y,1/2+z
1/2+x,1/2+y,z
1/2-x,1/2-y,z
1/2+x,1/2-y,1/2-z
1/2-x,1/2+y,1/2-z
1/2-x,1/2-y,-z
1/2+x,1/2+y,-z
1/2-x,1/2+y,1/2+z
1/2+x,1/2-y,1/2+z
loop_
_atom_site_type_symbol
_atom_site_label
_atom_site_fract_x
_atom_site_fract_y
_atom_site_fract_z
Si Si1 0.497187 0.624447 0.332097
Si Si2 0.750000 0.250000 0.071313
Si Si3 0.951741 0.728711 0.906965
Si Si4 0.000000 0.500000 0.134833
Si Si5 0.293000 0.573775 0.000000
Si Si6 0.602208 0.662440 0.000000
Si Si7 0.500000 0.256853 0.750000
Si Si8 0.208425 0.416065 0.708504
O O1 0.500000 0.500000 0.347857
O O2 0.406504 0.692480 0.367420
O O3 0.429854 0.663775 0.285862
O O4 0.654924 0.629765 0.314513
O O5 0.888584 0.237308 0.096696
O O6 0.769626 0.360131 0.041677
O O7 0.949995 0.601828 0.895162
O O8 0.896203 0.765030 0.955028
O O9 0.123111 0.530987 0.167688
O O10 0.450296 0.611745 0.000000
O O11 0.296782 0.442359 0.000000
O O12 0.392139 0.176150 0.727454
O O13 0.230018 0.500000 0.750000
#
# Coordination Sequence:
#
# PCOD9499727 Si02
#       8
#    16   8  16   8   8   8   8  16
#     4  12  27  42  67 108 141 177 228 293 348 413
#     4   9  18  34  64  98 120 172 226 282 336 395
#     4  11  23  41  66  97 132 181 232 287 345 417
#     4  12  23  43  64 100 134 182 242 272 352 420
#     4   8  16  34  63  94 124 162 231 279 341 410
#     4   9  20  37  63  95 132 178 218 293 356 404
#     4  12  22  44  66 104 132 177 227 274 350 414
#     4  12  22  44  72  97 138 183 227 281 346 421
#
# _framework density 24.4634
#
# number of rings (size 3 to 8) (size 9 to 14) (size 15 to 20)
#    0.000    1.091    3.636    3.545    5.091    0.364 
#    0.000    0.909    0.000    2.182    0.000    0.000 
#    0.000    0.000    0.000    0.000    0.000    0.000 
#
# Total GULP energy -245555.146752 kJ/mol
# GULP energy per Si atom -5580.798790 kJ/mol
# Density = 2.440772 g / cm^3
# Si number density = 24.463400 Si / 1000 Ang^3
#
#
#
# Elastic Constant Matrix: (Units=GPa)
#
#
# Indices 1 2 3 4 5 6 
#
# 1 70.1017 5.0667 -9.5352 0.0000 0.0000 0.0000
# 2 5.0667 194.2099 84.9149 0.0000 0.0000 0.0000
# 3 -9.5352 84.9149 155.4254 0.0000 0.0000 0.0000
# 4 0.0000 0.0000 0.0000 11.9144 0.0000 0.0000
# 5 0.0000 0.0000 0.0000 0.0000 -8.0519 0.0000
# 6 0.0000 0.0000 0.0000 0.0000 0.0000 2.6120
#
#
#
# Elastic Compliance Matrix: (Units=1/GPa)
#
#
# Indices 1 2 3 4 5 6 
#
# 1 0.014534 -0.001010 0.001444 0.000000 0.000000 0.000000
# 2 -0.001010 0.006835 -0.003796 0.000000 0.000000 0.000000
# 3 0.001444 -0.003796 0.008597 0.000000 0.000000 0.000000
# 4 0.000000 0.000000 0.000000 0.083932 0.000000 0.000000
# 5 0.000000 0.000000 0.000000 0.000000 -0.124195 0.000000
# 6 0.000000 0.000000 0.000000 0.000000 0.000000 0.382850
#
#
# Mechanical properties :
#
#
# Convention : Reuss Voigt Hill
#
# Bulk Modulus (GPa) = 43.02901 64.51443 53.77172
# Shear Modulus (GPa) = 12.91901 23.91428 18.41664
#
# Velocity S-wave (km/s) = 2.30053 3.12998 2.74674
# Velocity P-wave (km/s) = 4.96829 6.28422 5.66460
#
# Compressibility (1/GPa) = 0.02324013
#
# Stress axis : x y z
#
# Youngs Moduli (GPa) = 68.80236 146.29863 116.32453
#
# Poissons Ratio (x) = 0.14782 -0.16794
# Poissons Ratio (y) = 0.06952 0.44161
# Poissons Ratio (z) = -0.09933 0.55541
#
# Static dielectric constant tensor:
#      x y z
#    x 2.011680 0.000000 0.000000 
#    y 0.000000 1.467360 0.000000 
#    z 0.000000 0.000000 1.965950 
# 
# From -- ./inp_files/68943.got.cif
#   From: 2010.05.17/outbox.cif.g08.bks.cpg/sg66_35_cif.got.tgz:68943.got - 2010.06.03 17:51:23.
