data_PCOD9499708
_publ_section_title
;
Structure prediction by ZEFSAII (Michael W. Deem and Ramdas Pophale) SiO2 
 PCOD9499708
Probable space group: C C C M
;
_chemical_formula_sum "Si O2"
_cell_formula_units_Z 112
_cell_length_a 14.311356
_cell_length_b 14.661718
_cell_length_c 27.117727
_cell_angle_alpha 90.000000
_cell_angle_beta 90.000000
_cell_angle_gamma 90.000000
_cell_volume 5690.087325
_symmetry_space_group_name_H-M "C C C M"
_symmetry_group_IT_number 66
_symmetry_cell_setting 'orthorhombic'
loop_
_space_group_symop_operation_xyz
x,y,z
-x,-y,z
x,-y,1/2-z
-x,y,1/2-z
-x,-y,-z
x,y,-z
-x,y,1/2+z
x,-y,1/2+z
1/2+x,1/2+y,z
1/2-x,1/2-y,z
1/2+x,1/2-y,1/2-z
1/2-x,1/2+y,1/2-z
1/2-x,1/2-y,-z
1/2+x,1/2+y,-z
1/2-x,1/2+y,1/2+z
1/2+x,1/2-y,1/2+z
loop_
_atom_site_type_symbol
_atom_site_label
_atom_site_fract_x
_atom_site_fract_y
_atom_site_fract_z
Si Si1 0.338078 0.184394 0.821582
Si Si2 0.797586 0.476832 0.155000
Si Si3 0.647553 0.792424 0.706689
Si Si4 0.605534 0.526034 0.192580
Si Si5 0.899416 0.806664 0.443365
Si Si6 0.191556 0.610055 0.943944
Si Si7 0.017414 0.197413 0.850802
O O1 0.250000 0.250000 0.831838
O O2 0.318303 0.077528 0.825786
O O3 0.367435 0.200801 0.764932
O O4 0.421690 0.211751 0.857701
O O5 0.846870 0.394035 0.183988
O O6 0.685248 0.473622 0.162997
O O7 0.823908 0.463193 0.098274
O O8 0.750000 0.750000 0.697517
O O9 0.569811 0.726890 0.683137
O O10 0.500000 0.500000 0.180876
O O11 0.622364 0.500000 0.250000
O O12 0.592088 0.631421 0.176995
O O13 0.931981 0.816637 0.500000
O O14 0.870704 0.700579 0.434820
O O15 0.799970 0.858179 0.439555
O O16 0.973797 0.835961 0.402195
O O17 0.175692 0.579986 0.000000
#
# Coordination Sequence:
#
# PCOD9499708 Si02
#       7
#    16  16  16  16  16  16  16
#     4  11  25  41  58  84 131 175 213 255 301 376
#     4  12  22  41  62  89 128 168 209 257 318 374
#     4  11  23  38  64  91 124 164 213 260 315 372
#     4  11  24  35  60  90 125 164 216 253 309 382
#     4   9  18  37  64  96 124 155 204 263 321 375
#     4   9  18  36  65  95 122 153 202 266 321 376
#     4  12  23  40  61  93 129 168 206 263 315 369
#
# _framework density 19.683354000000001
#
# number of rings (size 3 to 8) (size 9 to 14) (size 15 to 20)
#    0.000    1.286    2.857    5.143    6.000    0.571 
#    0.000    2.857    0.000    5.143    0.000    0.000 
#    0.000    0.000    0.000    0.000    0.000    0.000 
#
# Total GULP energy -312450.735207 kJ/mol
# GULP energy per Si atom -5579.477414 kJ/mol
# Density = 1.963855 g / cm^3
# Si number density = 19.683354 Si / 1000 Ang^3
#
#
#
# Elastic Constant Matrix: (Units=GPa)
#
#
# Indices 1 2 3 4 5 6 
#
# 1 23.3720 -9.6360 20.8125 0.0000 0.0000 0.0000
# 2 -9.6360 61.6313 35.0673 0.0000 0.0000 0.0000
# 3 20.8125 35.0673 103.6902 0.0000 0.0000 0.0000
# 4 0.0000 0.0000 0.0000 18.5423 0.0000 0.0000
# 5 0.0000 0.0000 0.0000 0.0000 15.3853 0.0000
# 6 0.0000 0.0000 0.0000 0.0000 0.0000 29.2052
#
#
#
# Elastic Compliance Matrix: (Units=1/GPa)
#
#
# Indices 1 2 3 4 5 6 
#
# 1 0.073485 0.024619 -0.023076 0.000000 0.000000 0.000000
# 2 0.024619 0.028340 -0.014526 0.000000 0.000000 0.000000
# 3 -0.023076 -0.014526 0.019188 0.000000 0.000000 0.000000
# 4 0.000000 0.000000 0.000000 0.053931 0.000000 0.000000
# 5 0.000000 0.000000 0.000000 0.000000 0.064997 0.000000
# 6 0.000000 0.000000 0.000000 0.000000 0.000000 0.034240
#
#
# Mechanical properties :
#
#
# Convention : Reuss Voigt Hill
#
# Bulk Modulus (GPa) = 10.52101 31.24235 20.88168
# Shear Modulus (GPa) = 15.06802 22.12321 18.59562
#
# Velocity S-wave (km/s) = 2.76981 3.35618 3.07699
# Velocity P-wave (km/s) = 3.94789 5.56107 4.82242
#
# Compressibility (1/GPa) = 0.09504793
#
# Stress axis : x y z
#
# Youngs Moduli (GPa) = 13.60825 35.28632 52.11505
#
# Poissons Ratio (x) = -0.86871 1.20259
# Poissons Ratio (y) = -0.33502 0.75701
# Poissons Ratio (z) = 0.31402 0.51256
#
# Static dielectric constant tensor:
#      x y z
#    x 1.718300 0.000000 0.000000 
#    y 0.000000 1.891570 0.000000 
#    z 0.000000 0.000000 1.695970 
# 
# From -- ./inp_files/64669.got.cif
#   From: 2010.05.17/outbox.cif.g08.bks.cpg/sg66_33_cif.got.tgz:64669.got - 2010.06.03 17:51:23.
