data_PCOD9499609
_publ_section_title
;
Structure prediction by ZEFSAII (Michael W. Deem and Ramdas Pophale) SiO2 
 PCOD9499609
Probable space group: C C C M
;
_chemical_formula_sum "Si O2"
_cell_formula_units_Z 68
_cell_length_a 21.075348
_cell_length_b 16.501609
_cell_length_c 8.355982
_cell_angle_alpha 90.000000
_cell_angle_beta 90.000000
_cell_angle_gamma 90.000000
_cell_volume 2906.019624
_symmetry_space_group_name_H-M "C C C M"
_symmetry_group_IT_number 66
_symmetry_cell_setting 'orthorhombic'
loop_
_space_group_symop_operation_xyz
x,y,z
-x,-y,z
x,-y,1/2-z
-x,y,1/2-z
-x,-y,-z
x,y,-z
-x,y,1/2+z
x,-y,1/2+z
1/2+x,1/2+y,z
1/2-x,1/2-y,z
1/2+x,1/2-y,1/2-z
1/2-x,1/2+y,1/2-z
1/2-x,1/2-y,-z
1/2+x,1/2+y,-z
1/2-x,1/2+y,1/2+z
1/2+x,1/2-y,1/2+z
loop_
_atom_site_type_symbol
_atom_site_label
_atom_site_fract_x
_atom_site_fract_y
_atom_site_fract_z
Si Si1 0.379189 0.387241 0.320514
Si Si2 0.068155 0.592256 0.192564
Si Si3 0.749454 0.415863 0.682486
Si Si4 0.000000 0.000000 0.750000
Si Si5 0.835593 0.719667 0.187676
O O1 0.354570 0.399949 0.500000
O O2 0.326485 0.420431 0.199242
O O3 0.446869 0.433653 0.312116
O O4 0.372368 0.291603 0.280700
O O5 0.071855 0.500000 0.250000
O O6 0.118296 0.643712 0.289941
O O7 0.000000 0.623383 0.250000
O O8 0.075781 0.598035 0.000000
O O9 0.775479 0.500000 0.750000
O O10 0.767915 0.413216 0.500000
O O11 0.771822 0.328281 0.749248
O O12 0.828151 0.744000 0.000000
#
# Coordination Sequence:
#
# PCOD9499609 Si02
#       5
#    16  16  16   4  16
#     4  12  27  47  74 104 140 188 243 301 364 436
#     4  11  22  39  63  94 135 182 234 289 355 430
#     4  11  24  44  72 106 145 189 238 297 363 432
#     4  12  30  52  76 106 148 192 244 304 362 428
#     4  11  25  44  69 103 144 186 235 299 363 430
#
# _framework density 23.399705000000001
#
# number of rings (size 3 to 8) (size 9 to 14) (size 15 to 20)
#    0.000    0.706    1.176    6.706    1.647   11.294 
#    0.000    0.000    0.000    0.000    0.000    0.000 
#    0.000    0.000    0.000    0.000    0.000    0.000 
#
# Total GULP energy -189409.923078 kJ/mol
# GULP energy per Si atom -5570.880091 kJ/mol
# Density = 2.334645 g / cm^3
# Si number density = 23.399705 Si / 1000 Ang^3
#
#
#
# Elastic Constant Matrix: (Units=GPa)
#
#
# Indices 1 2 3 4 5 6 
#
# 1 96.8679 24.4005 19.8858 0.0000 0.0000 0.0000
# 2 24.4005 161.4833 25.2426 0.0000 0.0000 0.0000
# 3 19.8858 25.2426 94.1111 0.0000 0.0000 0.0000
# 4 0.0000 0.0000 0.0000 35.1919 0.0000 0.0000
# 5 0.0000 0.0000 0.0000 0.0000 21.6159 0.0000
# 6 0.0000 0.0000 0.0000 0.0000 0.0000 41.5201
#
#
#
# Elastic Compliance Matrix: (Units=1/GPa)
#
#
# Indices 1 2 3 4 5 6 
#
# 1 0.011072 -0.001365 -0.001974 0.000000 0.000000 0.000000
# 2 -0.001365 0.006632 -0.001490 0.000000 0.000000 0.000000
# 3 -0.001974 -0.001490 0.011443 0.000000 0.000000 0.000000
# 4 0.000000 0.000000 0.000000 0.028416 0.000000 0.000000
# 5 0.000000 0.000000 0.000000 0.000000 0.046262 0.000000
# 6 0.000000 0.000000 0.000000 0.000000 0.000000 0.024085
#
#
# Mechanical properties :
#
#
# Convention : Reuss Voigt Hill
#
# Bulk Modulus (GPa) = 51.31002 54.61335 52.96168
# Shear Modulus (GPa) = 34.70711 38.52781 36.61746
#
# Velocity S-wave (km/s) = 3.85545 4.06212 3.96013
# Velocity P-wave (km/s) = 6.46487 6.73729 6.60249
#
# Compressibility (1/GPa) = 0.01948937
#
# Stress axis : x y z
#
# Youngs Moduli (GPa) = 90.31623 150.78965 87.39331
#
# Poissons Ratio (x) = 0.20576 0.17248
# Poissons Ratio (y) = 0.12324 0.13026
# Poissons Ratio (z) = 0.17825 0.22474
#
# Static dielectric constant tensor:
#      x y z
#    x 2.032010 0.000000 0.000000 
#    y 0.000000 2.013190 0.000000 
#    z 0.000000 0.000000 1.820490 
# 
# From -- ./inp_files/7457.got.cif
#   From: 2010.05.17/outbox.cif.g08.bks.cpg/sg66_4_cif.got.tgz:7457.got - 2010.06.03 17:51:23.
