data_PCOD9499807
_publ_section_title
;
Structure prediction by ZEFSAII (Michael W. Deem and Ramdas Pophale) SiO2 
 PCOD9499807
Probable space group: C C C M
;
_chemical_formula_sum "Si O2"
_cell_formula_units_Z 80
_cell_length_a 8.428059
_cell_length_b 17.523239
_cell_length_c 24.340522
_cell_angle_alpha 90.000000
_cell_angle_beta 90.000000
_cell_angle_gamma 90.000000
_cell_volume 3594.776048
_symmetry_space_group_name_H-M "C C C M"
_symmetry_group_IT_number 66
_symmetry_cell_setting 'orthorhombic'
loop_
_space_group_symop_operation_xyz
x,y,z
-x,-y,z
x,-y,1/2-z
-x,y,1/2-z
-x,-y,-z
x,y,-z
-x,y,1/2+z
x,-y,1/2+z
1/2+x,1/2+y,z
1/2-x,1/2-y,z
1/2+x,1/2-y,1/2-z
1/2-x,1/2+y,1/2-z
1/2-x,1/2-y,-z
1/2+x,1/2+y,-z
1/2-x,1/2+y,1/2+z
1/2+x,1/2-y,1/2+z
loop_
_atom_site_type_symbol
_atom_site_label
_atom_site_fract_x
_atom_site_fract_y
_atom_site_fract_z
Si Si1 0.014412 0.279408 0.564927
Si Si2 0.321236 0.479986 0.157408
Si Si3 0.175645 0.866533 0.436486
Si Si4 0.796345 0.332804 0.282387
Si Si5 0.145734 0.361335 0.666536
O O1 0.062049 0.280126 0.500000
O O2 0.133793 0.318543 0.608138
O O3 0.960127 0.193831 0.581674
O O4 0.848437 0.326636 0.568120
O O5 0.500000 0.500000 0.170568
O O6 0.319542 0.443624 0.096986
O O7 0.284437 0.408597 0.195805
O O8 0.200790 0.550989 0.160422
O O9 0.146016 0.880532 0.500000
O O10 0.750000 0.250000 0.305307
O O11 0.752010 0.330561 0.217600
O O12 0.973740 0.348658 0.305294
#
# Coordination Sequence:
#
# PCOD9499807 Si02
#       5
#    16  16  16  16  16
#     4   9  18  38  70 101 129 172 232 280 327 403
#     4  12  26  42  65  98 142 178 218 283 349 405
#     4   9  19  38  66  98 137 179 219 274 338 408
#     4  11  25  46  69  92 130 180 232 279 332 410
#     4  11  24  41  67 100 133 172 226 284 340 398
#
# _framework density 22.254515000000001
#
# number of rings (size 3 to 8) (size 9 to 14) (size 15 to 20)
#    0.000    1.600    2.000    3.600    0.000    9.200 
#    0.000    2.000    0.000    3.000    0.000    0.000 
#    0.000    0.000    0.000    0.000    0.000    0.000 
#
# Total GULP energy -223184.069619 kJ/mol
# GULP energy per Si atom -5579.601740 kJ/mol
# Density = 2.220386 g / cm^3
# Si number density = 22.254515 Si / 1000 Ang^3
#
#
#
# Elastic Constant Matrix: (Units=GPa)
#
#
# Indices 1 2 3 4 5 6 
#
# 1 42.9871 47.5567 9.0815 0.0000 0.0000 0.0000
# 2 47.5567 190.4494 65.4098 0.0000 0.0000 0.0000
# 3 9.0815 65.4098 130.7475 0.0000 0.0000 0.0000
# 4 0.0000 0.0000 0.0000 50.0635 0.0000 0.0000
# 5 0.0000 0.0000 0.0000 0.0000 341.3969 0.0000
# 6 0.0000 0.0000 0.0000 0.0000 0.0000 12.4901
#
#
#
# Elastic Compliance Matrix: (Units=1/GPa)
#
#
# Indices 1 2 3 4 5 6 
#
# 1 0.032652 -0.008904 0.002187 0.000000 0.000000 0.000000
# 2 -0.008904 0.008768 -0.003768 0.000000 0.000000 0.000000
# 3 0.002187 -0.003768 0.009382 0.000000 0.000000 0.000000
# 4 0.000000 0.000000 0.000000 0.019975 0.000000 0.000000
# 5 0.000000 0.000000 0.000000 0.000000 0.002929 0.000000
# 6 0.000000 0.000000 0.000000 0.000000 0.000000 0.080063
#
#
# Mechanical properties :
#
#
# Convention : Reuss Voigt Hill
#
# Bulk Modulus (GPa) = 33.52319 67.58667 50.55493
# Shear Modulus (GPa) = 27.07327 96.93250 62.00288
#
# Velocity S-wave (km/s) = 3.49166 6.60688 5.28406
# Velocity P-wave (km/s) = 5.59927 9.41472 7.74561
#
# Compressibility (1/GPa) = 0.02983010
#
# Stress axis : x y z
#
# Youngs Moduli (GPa) = 30.62618 114.04575 106.59215
#
# Poissons Ratio (x) = 1.01551 -0.23309
# Poissons Ratio (y) = 0.27271 0.40165
# Poissons Ratio (z) = -0.06697 0.42974
#
# Static dielectric constant tensor:
#      x y z
#    x 4.771810 0.000000 0.000000 
#    y 0.000000 1.779920 0.000000 
#    z 0.000000 0.000000 1.932490 
# 
# From -- ./inp_files/62437.got.cif
#   From: 2010.05.17/outbox.cif.g08.bks.cpg/sg66_32_cif.got.tgz:62437.got - 2010.06.03 17:51:23.
