data_PCOD9499662
_publ_section_title
;
Structure prediction by ZEFSAII (Michael W. Deem and Ramdas Pophale) SiO2 
 PCOD9499662
Probable space group: C C C M
;
_chemical_formula_sum "Si O2"
_cell_formula_units_Z 48
_cell_length_a 10.305316
_cell_length_b 12.879605
_cell_length_c 15.787111
_cell_angle_alpha 90.000000
_cell_angle_beta 90.000000
_cell_angle_gamma 90.000000
_cell_volume 2095.397975
_symmetry_space_group_name_H-M "C C C M"
_symmetry_group_IT_number 66
_symmetry_cell_setting 'orthorhombic'
loop_
_space_group_symop_operation_xyz
x,y,z
-x,-y,z
x,-y,1/2-z
-x,y,1/2-z
-x,-y,-z
x,y,-z
-x,y,1/2+z
x,-y,1/2+z
1/2+x,1/2+y,z
1/2-x,1/2-y,z
1/2+x,1/2-y,1/2-z
1/2-x,1/2+y,1/2-z
1/2-x,1/2-y,-z
1/2+x,1/2+y,-z
1/2-x,1/2+y,1/2+z
1/2+x,1/2-y,1/2+z
loop_
_atom_site_type_symbol
_atom_site_label
_atom_site_fract_x
_atom_site_fract_y
_atom_site_fract_z
Si Si1 0.000000 0.166253 0.750000
Si Si2 0.163118 0.853408 0.093078
Si Si3 0.250000 0.250000 0.162888
Si Si4 0.347968 0.974613 0.649045
O O1 0.057595 0.117667 0.664539
O O2 0.122881 0.229576 0.781656
O O3 0.250000 0.750000 0.109553
O O4 0.266260 0.944405 0.096216
O O5 0.102743 0.840984 0.000000
O O6 0.294145 0.139558 0.123602
O O7 0.500000 0.000000 0.636661
O O8 0.322143 0.000000 0.750000
#
# Coordination Sequence:
#
# PCOD9499662 Si02
#       4
#     8  16   8  16
#     4  12  22  47  69 110 142 192 247 305 374 454
#     4  11  24  44  73 106 146 198 250 311 384 457
#     4  12  24  40  78 102 142 202 252 306 386 452
#     4  11  22  42  71 106 146 196 255 311 379 456
#
# _framework density 22.907343999999998
#
# number of rings (size 3 to 8) (size 9 to 14) (size 15 to 20)
#    0.000    0.667    5.000    4.000    0.000    3.333 
#    0.000    6.667    0.000    0.000    0.000    0.000 
#    0.000    0.000    0.000    0.000    0.000    0.000 
#
# Total GULP energy -133809.319965 kJ/mol
# GULP energy per Si atom -5575.388332 kJ/mol
# Density = 2.285521 g / cm^3
# Si number density = 22.907344 Si / 1000 Ang^3
#
#
#
# Elastic Constant Matrix: (Units=GPa)
#
#
# Indices 1 2 3 4 5 6 
#
# 1 139.9151 48.9695 44.1802 0.0000 0.0000 0.0000
# 2 48.9695 196.4456 23.1788 0.0000 0.0000 0.0000
# 3 44.1802 23.1788 127.1579 0.0000 0.0000 0.0000
# 4 0.0000 0.0000 0.0000 -4.7656 0.0000 0.0000
# 5 0.0000 0.0000 0.0000 0.0000 8.7315 0.0000
# 6 0.0000 0.0000 0.0000 0.0000 0.0000 35.8338
#
#
#
# Elastic Compliance Matrix: (Units=1/GPa)
#
#
# Indices 1 2 3 4 5 6 
#
# 1 0.008631 -0.001837 -0.002664 0.000000 0.000000 0.000000
# 2 -0.001837 0.005593 -0.000381 0.000000 0.000000 0.000000
# 3 -0.002664 -0.000381 0.008859 0.000000 0.000000 0.000000
# 4 0.000000 0.000000 0.000000 -0.209836 0.000000 0.000000
# 5 0.000000 0.000000 0.000000 0.000000 0.114528 0.000000
# 6 0.000000 0.000000 0.000000 0.000000 0.000000 0.027907
#
#
# Mechanical properties :
#
#
# Convention : Reuss Voigt Hill
#
# Bulk Modulus (GPa) = 75.08021 77.35288 76.21654
# Shear Modulus (GPa) = -166.04448 31.10594 -67.46927
#
# Velocity S-wave (km/s) = -8.52306 3.68897 -5.43296
# Velocity P-wave (km/s) = 8.00063 7.21011 2.45198
#
# Compressibility (1/GPa) = 0.01331909
#
# Stress axis : x y z
#
# Youngs Moduli (GPa) = 115.85552 178.78067 112.87534
#
# Poissons Ratio (x) = 0.32847 0.30070
# Poissons Ratio (y) = 0.21286 0.04303
# Poissons Ratio (z) = 0.30864 0.06816
#
# Static dielectric constant tensor:
#      x y z
#    x 1.816770 0.000000 0.000000 
#    y 0.000000 1.929740 0.000000 
#    z 0.000000 0.000000 1.932680 
# 
# From -- ./inp_files/35746.got.cif
#   From: 2010.05.17/outbox.cif.g08.bks.cpg/sg66_18_cif.got.tgz:35746.got - 2010.06.03 17:51:23.
