data_PCOD9499175
_publ_section_title
;
Structure prediction by ZEFSAII (Michael W. Deem and Ramdas Pophale) SiO2 
 PCOD9499175
Probable space group: C C C M
;
_chemical_formula_sum "Si O2"
_cell_formula_units_Z 104
_cell_length_a 25.859191
_cell_length_b 9.438843
_cell_length_c 19.537134
_cell_angle_alpha 90.000000
_cell_angle_beta 90.000000
_cell_angle_gamma 90.000000
_cell_volume 4768.640155
_symmetry_space_group_name_H-M "C C C M"
_symmetry_group_IT_number 66
_symmetry_cell_setting 'orthorhombic'
loop_
_space_group_symop_operation_xyz
x,y,z
-x,-y,z
x,-y,1/2-z
-x,y,1/2-z
-x,-y,-z
x,y,-z
-x,y,1/2+z
x,-y,1/2+z
1/2+x,1/2+y,z
1/2-x,1/2-y,z
1/2+x,1/2-y,1/2-z
1/2-x,1/2+y,1/2-z
1/2-x,1/2-y,-z
1/2+x,1/2+y,-z
1/2-x,1/2+y,1/2+z
1/2+x,1/2-y,1/2+z
loop_
_atom_site_type_symbol
_atom_site_label
_atom_site_fract_x
_atom_site_fract_y
_atom_site_fract_z
Si Si1 0.882062 0.165619 0.234330
Si Si2 0.870380 0.577528 0.821896
Si Si3 0.196701 0.837101 0.882715
Si Si4 0.972171 0.149197 0.129157
Si Si5 0.746593 0.919650 0.822470
Si Si6 0.108330 0.162464 0.500000
Si Si7 0.544792 0.114177 0.423958
O O1 0.877448 0.257751 0.302358
O O2 0.833492 0.207994 0.186521
O O3 0.934779 0.189829 0.192178
O O4 0.878935 0.000000 0.250000
O O5 0.881445 0.500000 0.750000
O O6 0.812174 0.548578 0.843998
O O7 0.909430 0.542710 0.881848
O O8 0.250000 0.750000 0.891649
O O9 0.213786 0.001549 0.872623
O O10 0.154174 0.823311 0.941042
O O11 0.936362 0.147232 0.061083
O O12 0.018210 0.259131 0.116534
O O13 0.000000 0.000000 0.141698
O O14 0.750000 0.750000 0.817224
O O15 0.753250 0.000000 0.750000
O O16 0.561856 0.159311 0.500000
O O17 0.500000 0.000000 0.431009
#
# Coordination Sequence:
#
# PCOD9499175 Si02
#       7
#    16  16  16  16  16   8  16
#     4  11  23  38  64 100 128 159 212 270 316 379
#     4  11  23  40  64  97 128 167 214 262 315 381
#     4  11  22  41  65  93 127 170 215 267 324 384
#     4  11  23  43  68  91 125 171 214 262 327 381
#     4  11  22  40  65  95 130 169 207 261 326 382
#     4  10  24  42  64  92 124 166 226 268 314 394
#     4  11  25  44  63  90 128 175 211 259 320 384
#
# _framework density 21.809152000000001
#
# number of rings (size 3 to 8) (size 9 to 14) (size 15 to 20)
#    0.000    1.077    0.769    6.923    0.000    6.154 
#    1.385    0.385    0.000    0.000    0.000    0.000 
#    0.000    0.000    0.000    0.000    0.000    0.000 
#
# Total GULP energy -289887.628196 kJ/mol
# GULP energy per Si atom -5574.762081 kJ/mol
# Density = 2.175951 g / cm^3
# Si number density = 21.809152 Si / 1000 Ang^3
#
#
#
# Elastic Constant Matrix: (Units=GPa)
#
#
# Indices 1 2 3 4 5 6 
#
# 1 135.8629 -11.4962 36.9354 0.0000 0.0000 0.0000
# 2 -11.4962 78.6626 -25.7128 0.0000 0.0000 0.0000
# 3 36.9354 -25.7128 38.3343 0.0000 0.0000 0.0000
# 4 0.0000 0.0000 0.0000 4.1289 0.0000 0.0000
# 5 0.0000 0.0000 0.0000 0.0000 25.8435 0.0000
# 6 0.0000 0.0000 0.0000 0.0000 0.0000 25.1541
#
#
#
# Elastic Compliance Matrix: (Units=1/GPa)
#
#
# Indices 1 2 3 4 5 6 
#
# 1 0.010266 -0.002220 -0.011381 0.000000 0.000000 0.000000
# 2 -0.002220 0.016762 0.013382 0.000000 0.000000 0.000000
# 3 -0.011381 0.013382 0.046028 0.000000 0.000000 0.000000
# 4 0.000000 0.000000 0.000000 0.242193 0.000000 0.000000
# 5 0.000000 0.000000 0.000000 0.000000 0.038694 0.000000
# 6 0.000000 0.000000 0.000000 0.000000 0.000000 0.039755
#
#
# Mechanical properties :
#
#
# Convention : Reuss Voigt Hill
#
# Bulk Modulus (GPa) = 13.77033 28.03475 20.90254
# Shear Modulus (GPa) = 11.95193 27.90085 19.92639
#
# Velocity S-wave (km/s) = 2.34353 3.58064 3.02598
# Velocity P-wave (km/s) = 3.69467 5.47513 4.67053
#
# Compressibility (1/GPa) = 0.07261992
#
# Stress axis : x y z
#
# Youngs Moduli (GPa) = 97.40448 59.65746 21.72606
#
# Poissons Ratio (x) = 0.13242 0.24726
# Poissons Ratio (y) = 0.21620 -0.29074
# Poissons Ratio (z) = 1.10853 -0.79834
#
# Static dielectric constant tensor:
#      x y z
#    x 1.784710 0.000000 0.000000 
#    y 0.000000 1.791280 0.000000 
#    z 0.000000 0.000000 1.800190 
# 
# From -- ./inp_files/53051.got.cif
#   From: 2010.05.17/outbox.cif.g08.bks.cpg/sg66_27_cif.got.tgz:53051.got - 2010.06.03 17:51:23.
