data_PCOD9499868
_publ_section_title
;
Structure prediction by ZEFSAII (Michael W. Deem and Ramdas Pophale) SiO2 
 PCOD9499868
Probable space group: C C C M
;
_chemical_formula_sum "Si O2"
_cell_formula_units_Z 60
_cell_length_a 21.740861
_cell_length_b 5.529960
_cell_length_c 19.065227
_cell_angle_alpha 90.000000
_cell_angle_beta 90.000000
_cell_angle_gamma 90.000000
_cell_volume 2292.137729
_symmetry_space_group_name_H-M "C C C M"
_symmetry_group_IT_number 66
_symmetry_cell_setting 'orthorhombic'
loop_
_space_group_symop_operation_xyz
x,y,z
-x,-y,z
x,-y,1/2-z
-x,y,1/2-z
-x,-y,-z
x,y,-z
-x,y,1/2+z
x,-y,1/2+z
1/2+x,1/2+y,z
1/2-x,1/2-y,z
1/2+x,1/2-y,1/2-z
1/2-x,1/2+y,1/2-z
1/2-x,1/2-y,-z
1/2+x,1/2+y,-z
1/2-x,1/2+y,1/2+z
1/2+x,1/2-y,1/2+z
loop_
_atom_site_type_symbol
_atom_site_label
_atom_site_fract_x
_atom_site_fract_y
_atom_site_fract_z
Si Si1 0.000000 0.000000 0.250000
Si Si2 0.906004 0.033887 0.131392
Si Si3 0.959514 0.244239 0.500000
Si Si4 0.184434 0.289936 0.791310
Si Si5 0.312092 0.094871 0.426118
O O1 0.956192 0.121871 0.189741
O O2 0.925908 0.818629 0.076027
O O3 0.853082 0.936452 0.182689
O O4 0.872616 0.242657 0.087447
O O5 0.000000 0.500000 0.500000
O O6 0.000000 0.000000 0.500000
O O7 0.148531 0.500000 0.750000
O O8 0.250000 0.250000 0.754234
O O9 0.198944 0.416434 0.864135
O O10 0.320831 0.965059 0.500000
O O11 0.250000 0.250000 0.429794
#
# Coordination Sequence:
#
# PCOD9499868 Si02
#       5
#     4  16   8  16  16
#     4  12  28  50  74 104 158 210 286 326 406 482
#     4  12  27  49  77 112 158 208 272 346 405 501
#     4  12  30  54  82 116 164 226 284 337 417 490
#     4  12  27  44  74 112 156 206 257 328 421 499
#     4  11  24  45  76 115 157 196 258 331 419 503
#
# _framework density 26.176435999999999
#
# number of rings (size 3 to 8) (size 9 to 14) (size 15 to 20)
#    0.000    0.267    5.333    2.400    7.467    2.667 
#    0.000    1.333    0.000    0.000    0.000    0.000 
#    0.000    0.000    0.000    0.000    0.000    0.000 
#
# Total GULP energy -167278.814347 kJ/mol
# GULP energy per Si atom -5575.960478 kJ/mol
# Density = 2.611686 g / cm^3
# Si number density = 26.176436 Si / 1000 Ang^3
#
#
#
# Elastic Constant Matrix: (Units=GPa)
#
#
# Indices 1 2 3 4 5 6 
#
# 1 113.3990 19.0127 29.1133 0.0000 0.0000 0.0000
# 2 19.0127 62.8838 3.8400 0.0000 0.0000 0.0000
# 3 29.1133 3.8400 177.8438 0.0000 0.0000 0.0000
# 4 0.0000 0.0000 0.0000 47.4275 0.0000 0.0000
# 5 0.0000 0.0000 0.0000 0.0000 91.5201 0.0000
# 6 0.0000 0.0000 0.0000 0.0000 0.0000 48.3259
#
#
#
# Elastic Compliance Matrix: (Units=1/GPa)
#
#
# Indices 1 2 3 4 5 6 
#
# 1 0.009685 -0.002835 -0.001524 0.000000 0.000000 0.000000
# 2 -0.002835 0.016753 0.000102 0.000000 0.000000 0.000000
# 3 -0.001524 0.000102 0.005870 0.000000 0.000000 0.000000
# 4 0.000000 0.000000 0.000000 0.021085 0.000000 0.000000
# 5 0.000000 0.000000 0.000000 0.000000 0.010927 0.000000
# 6 0.000000 0.000000 0.000000 0.000000 0.000000 0.020693
#
#
# Mechanical properties :
#
#
# Convention : Reuss Voigt Hill
#
# Bulk Modulus (GPa) = 42.02645 50.89541 46.46093
# Shear Modulus (GPa) = 49.28130 57.59876 53.44003
#
# Velocity S-wave (km/s) = 4.34367 4.69594 4.52323
# Velocity P-wave (km/s) = 6.42235 6.99198 6.71321
#
# Compressibility (1/GPa) = 0.02379454
#
# Stress axis : x y z
#
# Youngs Moduli (GPa) = 103.25146 59.68977 170.35127
#
# Poissons Ratio (x) = 0.16923 0.25966
# Poissons Ratio (y) = 0.29274 -0.01744
# Poissons Ratio (z) = 0.15738 -0.00611
#
# Static dielectric constant tensor:
#      x y z
#    x 2.245390 0.000000 0.000000 
#    y 0.000000 2.343900 0.000000 
#    z 0.000000 0.000000 2.190400 
# 
# From -- ./inp_files/45561.got.cif
#   From: 2010.05.17/outbox.cif.g08.bks.cpg/sg66_23_cif.got.tgz:45561.got - 2010.06.03 17:51:23.
