data_PCOD9499615
_publ_section_title
;
Structure prediction by ZEFSAII (Michael W. Deem and Ramdas Pophale) SiO2 
 PCOD9499615
Probable space group: C C C M
;
_chemical_formula_sum "Si O2"
_cell_formula_units_Z 104
_cell_length_a 7.626801
_cell_length_b 22.068966
_cell_length_c 30.094260
_cell_angle_alpha 90.000000
_cell_angle_beta 90.000000
_cell_angle_gamma 90.000000
_cell_volume 5065.333788
_symmetry_space_group_name_H-M "C C C M"
_symmetry_group_IT_number 66
_symmetry_cell_setting 'orthorhombic'
loop_
_space_group_symop_operation_xyz
x,y,z
-x,-y,z
x,-y,1/2-z
-x,y,1/2-z
-x,-y,-z
x,y,-z
-x,y,1/2+z
x,-y,1/2+z
1/2+x,1/2+y,z
1/2-x,1/2-y,z
1/2+x,1/2-y,1/2-z
1/2-x,1/2+y,1/2-z
1/2-x,1/2-y,-z
1/2+x,1/2+y,-z
1/2-x,1/2+y,1/2+z
1/2+x,1/2-y,1/2+z
loop_
_atom_site_type_symbol
_atom_site_label
_atom_site_fract_x
_atom_site_fract_y
_atom_site_fract_z
Si Si1 0.250000 0.250000 0.657569
Si Si2 0.748193 0.555237 0.548689
Si Si3 0.212623 0.008916 0.698463
Si Si4 0.247239 0.110495 0.145702
Si Si5 0.659121 0.381541 0.138826
Si Si6 0.835495 0.583156 0.048598
Si Si7 0.082144 0.291174 0.206498
O O1 0.257363 0.315085 0.633492
O O2 0.425760 0.248619 0.686572
O O3 0.679357 0.574222 0.500000
O O4 0.662113 0.584460 0.591576
O O5 0.742721 0.482549 0.550877
O O6 0.955149 0.571744 0.550035
O O7 0.247794 0.074160 0.675605
O O8 0.268140 0.000000 0.750000
O O9 0.284468 0.956217 0.665997
O O10 0.000000 0.000000 0.698125
O O11 0.283759 0.116045 0.093472
O O12 0.359043 0.159031 0.171842
O O13 0.042579 0.123671 0.153126
O O14 0.795039 0.610247 0.000000
O O15 0.250000 0.250000 0.217172
O O16 0.000000 0.321012 0.250000
#
# Coordination Sequence:
#
# PCOD9499615 Si02
#       7
#     8  16  16  16  16  16  16
#     4  12  26  44  67  90 128 182 219 270 320 390
#     4   9  18  35  60  92 130 173 220 272 333 397
#     4   9  20  36  58  88 128 168 207 267 332 389
#     4  11  22  40  65  97 131 165 219 278 333 389
#     4  11  22  39  65  93 130 174 218 268 331 396
#     4   9  18  35  61  93 131 172 218 275 337 400
#     4  12  26  46  68  96 130 175 231 272 324 395
#
# _framework density 20.531714999999998
#
# number of rings (size 3 to 8) (size 9 to 14) (size 15 to 20)
#    0.000    1.692    3.846    1.846    2.154    0.615 
#    0.000    1.923    0.000    1.385    0.000    0.000 
#    0.000    0.000    0.000    0.000    0.000    0.000 
#
# Total GULP energy -290398.038523 kJ/mol
# GULP energy per Si atom -5584.577664 kJ/mol
# Density = 2.048498 g / cm^3
# Si number density = 20.531715 Si / 1000 Ang^3
#
#
#
# Elastic Constant Matrix: (Units=GPa)
#
#
# Indices 1 2 3 4 5 6 
#
# 1 71.8324 22.7892 24.4271 0.0000 0.0000 0.0000
# 2 22.7892 90.4163 58.4971 0.0000 0.0000 0.0000
# 3 24.4271 58.4971 161.8335 0.0000 0.0000 0.0000
# 4 0.0000 0.0000 0.0000 -13.1942 0.0000 0.0000
# 5 0.0000 0.0000 0.0000 0.0000 26.9603 0.0000
# 6 0.0000 0.0000 0.0000 0.0000 0.0000 21.8006
#
#
#
# Elastic Compliance Matrix: (Units=1/GPa)
#
#
# Indices 1 2 3 4 5 6 
#
# 1 0.015306 -0.003085 -0.001195 0.000000 0.000000 0.000000
# 2 -0.003085 0.015058 -0.004977 0.000000 0.000000 0.000000
# 3 -0.001195 -0.004977 0.008159 0.000000 0.000000 0.000000
# 4 0.000000 0.000000 0.000000 -0.075791 0.000000 0.000000
# 5 0.000000 0.000000 0.000000 0.000000 0.037092 0.000000
# 6 0.000000 0.000000 0.000000 0.000000 0.000000 0.045870
#
#
# Mechanical properties :
#
#
# Convention : Reuss Voigt Hill
#
# Bulk Modulus (GPa) = 49.97907 59.50096 54.74001
# Shear Modulus (GPa) = 70.54437 21.67127 46.10782
#
# Velocity S-wave (km/s) = 5.86799 3.25237 4.74401
# Velocity P-wave (km/s) = 8.38489 6.56863 7.53171
#
# Compressibility (1/GPa) = 0.02000838
#
# Stress axis : x y z
#
# Youngs Moduli (GPa) = 65.33221 66.41199 122.56861
#
# Poissons Ratio (x) = 0.20485 0.14652
# Poissons Ratio (y) = 0.20152 0.61005
# Poissons Ratio (z) = 0.07810 0.33054
#
# Static dielectric constant tensor:
#      x y z
#    x 1.791840 0.000000 0.000000 
#    y 0.000000 1.715110 0.000000 
#    z 0.000000 0.000000 1.740620 
# 
# From -- ./inp_files/62671.got.cif
#   From: 2010.05.17/outbox.cif.g08.bks.cpg/sg66_32_cif.got.tgz:62671.got - 2010.06.03 17:51:23.
