data_PCOD9499613
_publ_section_title
;
Structure prediction by ZEFSAII (Michael W. Deem and Ramdas Pophale) SiO2 
 PCOD9499613
Probable space group: C C C M
;
_chemical_formula_sum "Si O2"
_cell_formula_units_Z 52
_cell_length_a 14.149671
_cell_length_b 7.592358
_cell_length_c 23.987450
_cell_angle_alpha 90.000000
_cell_angle_beta 90.000000
_cell_angle_gamma 90.000000
_cell_volume 2576.956589
_symmetry_space_group_name_H-M "C C C M"
_symmetry_group_IT_number 66
_symmetry_cell_setting 'orthorhombic'
loop_
_space_group_symop_operation_xyz
x,y,z
-x,-y,z
x,-y,1/2-z
-x,y,1/2-z
-x,-y,-z
x,y,-z
-x,y,1/2+z
x,-y,1/2+z
1/2+x,1/2+y,z
1/2-x,1/2-y,z
1/2+x,1/2-y,1/2-z
1/2-x,1/2+y,1/2-z
1/2-x,1/2-y,-z
1/2+x,1/2+y,-z
1/2-x,1/2+y,1/2+z
1/2+x,1/2-y,1/2+z
loop_
_atom_site_type_symbol
_atom_site_label
_atom_site_fract_x
_atom_site_fract_y
_atom_site_fract_z
Si Si1 0.096668 0.906459 0.097823
Si Si2 0.146404 0.812886 0.780949
Si Si3 0.500000 0.000000 0.250000
Si Si4 0.082306 0.361807 0.500000
Si Si5 0.281326 0.446350 0.000000
O O1 0.150762 0.856134 0.153436
O O2 0.070758 0.747204 0.056763
O O3 0.000000 0.000000 0.115090
O O4 0.158311 0.021889 0.055509
O O5 0.250000 0.750000 0.760590
O O6 0.073185 0.647115 0.775998
O O7 0.121152 0.000000 0.750000
O O8 0.188991 0.432280 0.500000
O O9 0.000000 0.500000 0.500000
O O10 0.250000 0.250000 0.000000
#
# Coordination Sequence:
#
# PCOD9499613 Si02
#       5
#    16  16   4   8   8
#     4  11  23  42  66  96 136 175 224 291 349 420
#     4  12  26  49  73 106 143 189 245 301 365 436
#     4  12  26  48  76 102 144 188 242 300 372 430
#     4  11  22  39  64  98 132 175 226 277 344 418
#     4  11  22  41  64  98 134 181 226 279 354 426
#
# _framework density 20.178840000000001
#
# number of rings (size 3 to 8) (size 9 to 14) (size 15 to 20)
#    0.000    0.615    1.538    9.692    2.154    1.231 
#   11.077    0.000    0.000    0.000    0.000    0.000 
#    0.000    0.000    0.000    0.000    0.000    0.000 
#
# Total GULP energy -144989.879489 kJ/mol
# GULP energy per Si atom -5576.533827 kJ/mol
# Density = 2.013291 g / cm^3
# Si number density = 20.178840 Si / 1000 Ang^3
#
#
#
# Elastic Constant Matrix: (Units=GPa)
#
#
# Indices 1 2 3 4 5 6 
#
# 1 102.1892 32.7555 3.8730 0.0000 0.0000 0.0000
# 2 32.7555 134.3464 48.1392 0.0000 0.0000 0.0000
# 3 3.8730 48.1392 112.7019 0.0000 0.0000 0.0000
# 4 0.0000 0.0000 0.0000 -231.2935 0.0000 0.0000
# 5 0.0000 0.0000 0.0000 0.0000 40.2607 0.0000
# 6 0.0000 0.0000 0.0000 0.0000 0.0000 62.5689
#
#
#
# Elastic Compliance Matrix: (Units=1/GPa)
#
#
# Indices 1 2 3 4 5 6 
#
# 1 0.010689 -0.002922 0.000881 0.000000 0.000000 0.000000
# 2 -0.002922 0.009587 -0.003995 0.000000 0.000000 0.000000
# 3 0.000881 -0.003995 0.010549 0.000000 0.000000 0.000000
# 4 0.000000 0.000000 0.000000 -0.004324 0.000000 0.000000
# 5 0.000000 0.000000 0.000000 0.000000 0.024838 0.000000
# 6 0.000000 0.000000 0.000000 0.000000 0.000000 0.015982
#
#
# Mechanical properties :
#
#
# Convention : Reuss Voigt Hill
#
# Bulk Modulus (GPa) = 53.32285 57.64145 55.48215
# Shear Modulus (GPa) = 58.38087 -8.06145 25.15971
#
# Velocity S-wave (km/s) = 5.38466 -2.00092 3.53489
# Velocity P-wave (km/s) = 8.07105 4.82588 6.64947
#
# Compressibility (1/GPa) = 0.01875369
#
# Stress axis : x y z
#
# Youngs Moduli (GPa) = 93.55504 104.30635 94.79608
#
# Poissons Ratio (x) = 0.30475 -0.08348
# Poissons Ratio (y) = 0.27333 0.37867
# Poissons Ratio (z) = -0.08239 0.41666
#
# Static dielectric constant tensor:
#      x y z
#    x 1.732000 0.000000 0.000000 
#    y 0.000000 1.743590 0.000000 
#    z 0.000000 0.000000 1.664080 
# 
# From -- ./inp_files/49408.got.cif
#   From: 2010.05.17/outbox.cif.g08.bks.cpg/sg66_25_cif.got.tgz:49408.got - 2010.06.03 17:51:23.
