data_PCOD9499285
_publ_section_title
;
Structure prediction by ZEFSAII (Michael W. Deem and Ramdas Pophale) SiO2 
 PCOD9499285
Probable space group: C C C M
;
_chemical_formula_sum "Si O2"
_cell_formula_units_Z 108
_cell_length_a 32.635756
_cell_length_b 4.987884
_cell_length_c 29.726615
_cell_angle_alpha 90.000000
_cell_angle_beta 90.000000
_cell_angle_gamma 90.000000
_cell_volume 4838.998425
_symmetry_space_group_name_H-M "C C C M"
_symmetry_group_IT_number 66
_symmetry_cell_setting 'orthorhombic'
loop_
_space_group_symop_operation_xyz
x,y,z
-x,-y,z
x,-y,1/2-z
-x,y,1/2-z
-x,-y,-z
x,y,-z
-x,y,1/2+z
x,-y,1/2+z
1/2+x,1/2+y,z
1/2-x,1/2-y,z
1/2+x,1/2-y,1/2-z
1/2-x,1/2+y,1/2-z
1/2-x,1/2-y,-z
1/2+x,1/2+y,-z
1/2-x,1/2+y,1/2+z
1/2+x,1/2-y,1/2+z
loop_
_atom_site_type_symbol
_atom_site_label
_atom_site_fract_x
_atom_site_fract_y
_atom_site_fract_z
Si Si1 0.721994 0.001902 0.671561
Si Si2 0.593274 0.845450 0.313585
Si Si3 0.339004 0.000000 0.750000
Si Si4 0.039305 0.165933 0.823983
Si Si5 0.651243 0.998290 0.604779
Si Si6 0.371994 0.499488 0.052138
Si Si7 0.037239 0.813334 0.428656
Si Si8 0.000000 0.500000 0.500000
O O1 0.750000 0.250000 0.658938
O O2 0.691463 0.100036 0.711289
O O3 0.750000 0.750000 0.685927
O O4 0.692826 0.923993 0.630333
O O5 0.574399 0.558178 0.323140
O O6 0.615444 0.962183 0.357973
O O7 0.628740 0.813344 0.276342
O O8 0.557674 0.063906 0.302263
O O9 0.029992 0.237363 0.876086
O O10 0.000000 0.000000 0.805801
O O11 0.641131 0.797106 0.564792
O O12 0.651349 0.296045 0.585341
O O13 0.419771 0.454618 0.063481
O O14 0.365008 0.440118 0.000000
O O15 0.034202 0.556994 0.460212
O O16 0.000000 0.000000 0.446369
#
# Coordination Sequence:
#
# PCOD9499285 Si02
#       8
#    16  16   8  16  16  16  16   4
#     4  11  24  45  76 107 137 164 199 258 335 422
#     4  11  22  43  63  94 130 174 217 277 329 394
#     4  10  26  42  75 108 140 160 204 266 339 404
#     4  11  24  40  63  84 125 185 235 270 320 386
#     4  11  23  42  64  95 131 173 216 263 336 399
#     4  12  24  40  63  92 133 177 231 280 321 385
#     4  11  25  36  57  87 130 176 231 289 346 378
#     4  12  26  36  56  94 136 170 234 318 358 360
#
# _framework density 22.318666
#
# number of rings (size 3 to 8) (size 9 to 14) (size 15 to 20)
#    0.000    0.889    3.704    2.444    6.222    5.333 
#    0.000    2.222    0.000    8.889    0.000    0.000 
#    0.000    0.000    0.000    0.000    0.000    0.000 
#
# Total GULP energy -301506.739669 kJ/mol
# GULP energy per Si atom -5583.458142 kJ/mol
# Density = 2.226787 g / cm^3
# Si number density = 22.318666 Si / 1000 Ang^3
#
#
#
# Elastic Constant Matrix: (Units=GPa)
#
#
# Indices 1 2 3 4 5 6 
#
# 1 80.2923 18.8446 34.1036 0.0000 0.0000 0.0000
# 2 18.8446 85.5206 6.4337 0.0000 0.0000 0.0000
# 3 34.1036 6.4337 90.9227 0.0000 0.0000 0.0000
# 4 0.0000 0.0000 0.0000 4.6424 0.0000 0.0000
# 5 0.0000 0.0000 0.0000 0.0000 17.2901 0.0000
# 6 0.0000 0.0000 0.0000 0.0000 0.0000 25.4275
#
#
#
# Elastic Compliance Matrix: (Units=1/GPa)
#
#
# Indices 1 2 3 4 5 6 
#
# 1 0.015546 -0.003003 -0.005618 0.000000 0.000000 0.000000
# 2 -0.003003 0.012336 0.000253 0.000000 0.000000 0.000000
# 3 -0.005618 0.000253 0.013088 0.000000 0.000000 0.000000
# 4 0.000000 0.000000 0.000000 0.215407 0.000000 0.000000
# 5 0.000000 0.000000 0.000000 0.000000 0.057837 0.000000
# 6 0.000000 0.000000 0.000000 0.000000 0.000000 0.039327
#
#
# Mechanical properties :
#
#
# Convention : Reuss Voigt Hill
#
# Bulk Modulus (GPa) = 41.26520 41.72214 41.49367
# Shear Modulus (GPa) = 13.21515 22.62892 17.92203
#
# Velocity S-wave (km/s) = 2.43597 3.18764 2.83681
# Velocity P-wave (km/s) = 5.14210 5.68176 5.41865
#
# Compressibility (1/GPa) = 0.02423350
#
# Stress axis : x y z
#
# Youngs Moduli (GPa) = 64.32670 81.06551 76.40702
#
# Poissons Ratio (x) = 0.24343 0.42929
# Poissons Ratio (y) = 0.19316 -0.01936
# Poissons Ratio (z) = 0.36141 -0.02054
#
# Static dielectric constant tensor:
#      x y z
#    x 1.846300 0.000000 0.000000 
#    y 0.000000 1.874780 0.000000 
#    z 0.000000 0.000000 1.841560 
# 
# From -- ./inp_files/70719.got.cif
#   From: 2010.05.17/outbox.cif.g08.bks.cpg/sg66_36_cif.got.tgz:70719.got - 2010.06.03 17:51:23.
