data_PCOD9499691
_publ_section_title
;
Structure prediction by ZEFSAII (Michael W. Deem and Ramdas Pophale) SiO2 
 PCOD9499691
Probable space group: C C C M
;
_chemical_formula_sum "Si O2"
_cell_formula_units_Z 116
_cell_length_a 10.569650
_cell_length_b 29.051206
_cell_length_c 18.439101
_cell_angle_alpha 90.000000
_cell_angle_beta 90.000000
_cell_angle_gamma 90.000000
_cell_volume 5661.930258
_symmetry_space_group_name_H-M "C C C M"
_symmetry_group_IT_number 66
_symmetry_cell_setting 'orthorhombic'
loop_
_space_group_symop_operation_xyz
x,y,z
-x,-y,z
x,-y,1/2-z
-x,y,1/2-z
-x,-y,-z
x,y,-z
-x,y,1/2+z
x,-y,1/2+z
1/2+x,1/2+y,z
1/2-x,1/2-y,z
1/2+x,1/2-y,1/2-z
1/2-x,1/2+y,1/2-z
1/2-x,1/2-y,-z
1/2+x,1/2+y,-z
1/2-x,1/2+y,1/2+z
1/2+x,1/2-y,1/2+z
loop_
_atom_site_type_symbol
_atom_site_label
_atom_site_fract_x
_atom_site_fract_y
_atom_site_fract_z
Si Si1 0.994580 0.243343 0.417847
Si Si2 0.513417 0.571354 0.632881
Si Si3 0.185678 0.204404 0.790909
Si Si4 0.214926 0.052361 0.758686
Si Si5 0.413367 0.848096 0.084828
Si Si6 0.000000 0.000000 0.000000
Si Si7 0.396639 0.131504 0.193084
Si Si8 0.863493 0.163746 0.862156
O O1 0.942561 0.240755 0.500000
O O2 0.901433 0.224150 0.355294
O O3 0.039146 0.295409 0.404602
O O4 0.112592 0.208899 0.409844
O O5 0.628882 0.561994 0.688300
O O6 0.383861 0.559772 0.675084
O O7 0.520898 0.539470 0.563433
O O8 0.532085 0.625549 0.617910
O O9 0.250000 0.250000 0.757959
O O10 0.290733 0.169783 0.821771
O O11 0.127566 0.177391 0.722508
O O12 0.327884 0.087695 0.772283
O O13 0.258607 0.000000 0.750000
O O14 0.521270 0.878798 0.122076
O O15 0.277554 0.853711 0.122089
O O16 0.400970 0.857043 0.000000
O O17 0.500000 0.150566 0.250000
#
# Coordination Sequence:
#
# PCOD9499691 Si02
#       8
#    16  16  16  16  16   4  16  16
#     4  11  25  40  60  97 141 186 231 279 346 402
#     4  11  23  43  68 103 133 167 216 279 351 408
#     4  12  23  39  69  94 133 182 235 290 329 405
#     4  11  22  46  70  95 132 172 220 282 353 413
#     4  11  24  44  63  94 145 188 229 279 339 403
#     4  12  24  42  72 104 140 168 212 286 354 420
#     4  12  24  44  65  96 128 179 234 280 338 411
#     4  12  24  40  67 100 132 183 234 284 332 406
#
# _framework density 20.487712999999999
#
# number of rings (size 3 to 8) (size 9 to 14) (size 15 to 20)
#    0.000    0.552    5.517    3.310    3.862    2.207 
#    1.241    0.000    0.000    0.000    0.000    3.862 
#    0.000    0.000    0.000    0.000    0.000    0.000 
#
# Total GULP energy -323725.210084 kJ/mol
# GULP energy per Si atom -5581.469139 kJ/mol
# Density = 2.044108 g / cm^3
# Si number density = 20.487713 Si / 1000 Ang^3
#
#
#
# Elastic Constant Matrix: (Units=GPa)
#
#
# Indices 1 2 3 4 5 6 
#
# 1 84.2819 24.9100 47.1800 0.0000 0.0000 0.0000
# 2 24.9100 85.5359 26.3843 0.0000 0.0000 0.0000
# 3 47.1800 26.3843 144.4873 0.0000 0.0000 0.0000
# 4 0.0000 0.0000 0.0000 18.2022 0.0000 0.0000
# 5 0.0000 0.0000 0.0000 0.0000 17.2276 0.0000
# 6 0.0000 0.0000 0.0000 0.0000 0.0000 22.2862
#
#
#
# Elastic Compliance Matrix: (Units=1/GPa)
#
#
# Indices 1 2 3 4 5 6 
#
# 1 0.015247 -0.003078 -0.004417 0.000000 0.000000 0.000000
# 2 -0.003078 0.013010 -0.001371 0.000000 0.000000 0.000000
# 3 -0.004417 -0.001371 0.008613 0.000000 0.000000 0.000000
# 4 0.000000 0.000000 0.000000 0.054938 0.000000 0.000000
# 5 0.000000 0.000000 0.000000 0.000000 0.058046 0.000000
# 6 0.000000 0.000000 0.000000 0.000000 0.000000 0.044871
#
#
# Mechanical properties :
#
#
# Convention : Reuss Voigt Hill
#
# Bulk Modulus (GPa) = 52.24607 56.80596 54.52601
# Shear Modulus (GPa) = 22.84808 25.93193 24.39000
#
# Velocity S-wave (km/s) = 3.34310 3.56157 3.45406
# Velocity P-wave (km/s) = 6.36068 6.68581 6.52527
#
# Compressibility (1/GPa) = 0.01914020
#
# Stress axis : x y z
#
# Youngs Moduli (GPa) = 65.58666 76.86305 116.09690
#
# Poissons Ratio (x) = 0.23658 0.51276
# Poissons Ratio (y) = 0.20187 0.15913
# Poissons Ratio (z) = 0.28967 0.10536
#
# Static dielectric constant tensor:
#      x y z
#    x 1.770270 0.000000 0.000000 
#    y 0.000000 1.765990 0.000000 
#    z 0.000000 0.000000 1.738090 
# 
# From -- ./inp_files/39130.got.cif
#   From: 2010.05.17/outbox.cif.g08.bks.cpg/sg66_20_cif.got.tgz:39130.got - 2010.06.03 17:51:23.
