data_PCOD9499817
_publ_section_title
;
Structure prediction by ZEFSAII (Michael W. Deem and Ramdas Pophale) SiO2 
 PCOD9499817
Probable space group: C C C M
;
_chemical_formula_sum "Si O2"
_cell_formula_units_Z 48
_cell_length_a 19.913986
_cell_length_b 10.252735
_cell_length_c 12.415253
_cell_angle_alpha 90.000000
_cell_angle_beta 90.000000
_cell_angle_gamma 90.000000
_cell_volume 2534.857232
_symmetry_space_group_name_H-M "C C C M"
_symmetry_group_IT_number 66
_symmetry_cell_setting 'orthorhombic'
loop_
_space_group_symop_operation_xyz
x,y,z
-x,-y,z
x,-y,1/2-z
-x,y,1/2-z
-x,-y,-z
x,y,-z
-x,y,1/2+z
x,-y,1/2+z
1/2+x,1/2+y,z
1/2-x,1/2-y,z
1/2+x,1/2-y,1/2-z
1/2-x,1/2+y,1/2-z
1/2-x,1/2-y,-z
1/2+x,1/2+y,-z
1/2-x,1/2+y,1/2+z
1/2+x,1/2-y,1/2+z
loop_
_atom_site_type_symbol
_atom_site_label
_atom_site_fract_x
_atom_site_fract_y
_atom_site_fract_z
Si Si1 0.783777 0.044349 0.500000
Si Si2 0.820178 0.196440 0.876047
Si Si3 0.644332 0.821209 0.000000
Si Si4 0.578886 0.150934 0.728273
O O1 0.703886 0.070299 0.500000
O O2 0.818548 0.182732 0.500000
O O3 0.808576 0.957152 0.601563
O O4 0.750000 0.250000 0.831005
O O5 0.879417 0.249851 0.803221
O O6 0.827865 0.248309 0.000000
O O7 0.599030 0.827977 0.894704
O O8 0.500000 0.166449 0.750000
O O9 0.597407 0.000000 0.750000
#
# Coordination Sequence:
#
# PCOD9499817 Si02
#       4
#     8  16   8  16
#     4   9  21  41  67  96 128 166 215 287 303 400
#     4   9  20  41  67  91 124 172 211 261 338 379
#     4  11  24  42  63 103 126 166 231 265 327 379
#     4  11  26  41  67  94 133 175 214 277 319 399
#
# _framework density 18.935979
#
# number of rings (size 3 to 8) (size 9 to 14) (size 15 to 20)
#    1.000    1.000    0.000    2.000    9.333    2.667 
#    0.000    5.000    0.000    0.000    0.000    0.000 
#    0.000    0.000    0.000    0.000    0.000    0.000 
#
# Total GULP energy -133827.565420 kJ/mol
# GULP energy per Si atom -5576.148559 kJ/mol
# Density = 1.889288 g / cm^3
# Si number density = 18.935979 Si / 1000 Ang^3
#
#
#
# Elastic Constant Matrix: (Units=GPa)
#
#
# Indices 1 2 3 4 5 6 
#
# 1 112.6178 53.1021 77.2967 0.0000 0.0000 0.0000
# 2 53.1021 116.6664 39.7797 0.0000 0.0000 0.0000
# 3 77.2967 39.7797 115.2699 0.0000 0.0000 0.0000
# 4 0.0000 0.0000 0.0000 2.0233 0.0000 0.0000
# 5 0.0000 0.0000 0.0000 0.0000 39.0473 0.0000
# 6 0.0000 0.0000 0.0000 0.0000 0.0000 23.2330
#
#
#
# Elastic Compliance Matrix: (Units=1/GPa)
#
#
# Indices 1 2 3 4 5 6 
#
# 1 0.018518 -0.004754 -0.010777 0.000000 0.000000 0.000000
# 2 -0.004754 0.010935 -0.000586 0.000000 0.000000 0.000000
# 3 -0.010777 -0.000586 0.016104 0.000000 0.000000 0.000000
# 4 0.000000 0.000000 0.000000 0.494249 0.000000 0.000000
# 5 0.000000 0.000000 0.000000 0.000000 0.025610 0.000000
# 6 0.000000 0.000000 0.000000 0.000000 0.000000 0.043042
#
#
# Mechanical properties :
#
#
# Convention : Reuss Voigt Hill
#
# Bulk Modulus (GPa) = 75.05484 76.10125 75.57805
# Shear Modulus (GPa) = 7.75032 24.48575 16.11804
#
# Velocity S-wave (km/s) = 2.02529 3.59984 2.92067
# Velocity P-wave (km/s) = 6.72244 7.58647 7.16748
#
# Compressibility (1/GPa) = 0.01332359
#
# Stress axis : x y z
#
# Youngs Moduli (GPa) = 54.00037 91.44895 62.09510
#
# Poissons Ratio (x) = 0.43476 0.66921
# Poissons Ratio (y) = 0.25673 0.03637
# Poissons Ratio (z) = 0.58198 0.05356
#
# Static dielectric constant tensor:
#      x y z
#    x 1.644920 0.000000 0.000000 
#    y 0.000000 1.673940 0.000000 
#    z 0.000000 0.000000 1.670670 
# 
# From -- ./inp_files/17092.got.cif
#   From: 2010.05.17/outbox.cif.g08.bks.cpg/sg66_9_cif.got.tgz:17092.got - 2010.06.03 17:51:23.
