data_PCOD9499062
_publ_section_title
;
Structure prediction by ZEFSAII (Michael W. Deem and Ramdas Pophale) SiO2 
 PCOD9499062
Probable space group: C C C M
;
_chemical_formula_sum "Si O2"
_cell_formula_units_Z 116
_cell_length_a 21.209519
_cell_length_b 8.560621
_cell_length_c 29.038387
_cell_angle_alpha 90.000000
_cell_angle_beta 90.000000
_cell_angle_gamma 90.000000
_cell_volume 5272.402758
_symmetry_space_group_name_H-M "C C C M"
_symmetry_group_IT_number 66
_symmetry_cell_setting 'orthorhombic'
loop_
_space_group_symop_operation_xyz
x,y,z
-x,-y,z
x,-y,1/2-z
-x,y,1/2-z
-x,-y,-z
x,y,-z
-x,y,1/2+z
x,-y,1/2+z
1/2+x,1/2+y,z
1/2-x,1/2-y,z
1/2+x,1/2-y,1/2-z
1/2-x,1/2+y,1/2-z
1/2-x,1/2-y,-z
1/2+x,1/2+y,-z
1/2-x,1/2+y,1/2+z
1/2+x,1/2-y,1/2+z
loop_
_atom_site_type_symbol
_atom_site_label
_atom_site_fract_x
_atom_site_fract_y
_atom_site_fract_z
Si Si1 0.891022 0.156696 0.116012
Si Si2 0.712850 0.507519 0.927104
Si Si3 0.864420 0.694279 0.948381
Si Si4 0.428380 0.555214 0.701370
Si Si5 0.174849 0.530047 0.131482
Si Si6 0.067114 0.571124 0.301122
Si Si7 0.505813 0.811439 0.446820
Si Si8 0.750000 0.250000 0.000000
O O1 0.855445 0.070861 0.075361
O O2 0.841505 0.288655 0.131101
O O3 0.951480 0.239322 0.093393
O O4 0.901237 0.034367 0.157094
O O5 0.690780 0.679525 0.941966
O O6 0.751726 0.507456 0.878788
O O7 0.749966 0.390130 0.960354
O O8 0.855899 0.557528 0.912110
O O9 0.935312 0.757239 0.942047
O O10 0.861919 0.631777 0.000000
O O11 0.500000 0.500000 0.702521
O O12 0.398325 0.500000 0.750000
O O13 0.432713 0.741725 0.698745
O O14 0.132238 0.470916 0.173505
O O15 0.069804 0.500000 0.250000
O O16 0.000000 0.500000 0.320601
O O17 0.527861 0.781750 0.500000
O O18 0.500000 0.000000 0.442385
#
# Coordination Sequence:
#
# PCOD9499062 Si02
#       8
#    16  16  16  16  16  16  16   4
#     4  12  25  41  70  98 143 187 241 299 372 443
#     4  12  27  45  66  99 139 195 251 304 358 431
#     4  11  25  42  66 100 147 194 253 303 364 439
#     4  11  24  43  69 107 141 177 230 298 368 446
#     4  12  25  42  69 102 140 187 245 296 356 434
#     4  11  24  47  77 108 144 190 238 299 381 453
#     4  10  23  42  66 105 148 197 247 310 382 445
#     4  12  24  48  66  90 144 192 260 300 370 408
#
# _framework density 22.001353000000002
#
# number of rings (size 3 to 8) (size 9 to 14) (size 15 to 20)
#    0.000    0.690    3.448    4.552    7.724    0.552 
#    0.000    2.069    0.000    1.655    0.000    0.000 
#    0.000    0.000    0.000    0.000    0.000    0.000 
#
# Total GULP energy -323168.078457 kJ/mol
# GULP energy per Si atom -5571.863422 kJ/mol
# Density = 2.195128 g / cm^3
# Si number density = 22.001353 Si / 1000 Ang^3
#
#
#
# Elastic Constant Matrix: (Units=GPa)
#
#
# Indices 1 2 3 4 5 6 
#
# 1 90.7089 21.8786 41.1283 0.0000 0.0000 0.0000
# 2 21.8786 86.6675 47.4258 0.0000 0.0000 0.0000
# 3 41.1283 47.4258 83.1305 0.0000 0.0000 0.0000
# 4 0.0000 0.0000 0.0000 39.4128 0.0000 0.0000
# 5 0.0000 0.0000 0.0000 0.0000 7.2138 0.0000
# 6 0.0000 0.0000 0.0000 0.0000 0.0000 29.6527
#
#
#
# Elastic Compliance Matrix: (Units=1/GPa)
#
#
# Indices 1 2 3 4 5 6 
#
# 1 0.014221 0.000378 -0.007251 0.000000 0.000000 0.000000
# 2 0.000378 0.016785 -0.009763 0.000000 0.000000 0.000000
# 3 -0.007251 -0.009763 0.021187 0.000000 0.000000 0.000000
# 4 0.000000 0.000000 0.000000 0.025372 0.000000 0.000000
# 5 0.000000 0.000000 0.000000 0.000000 0.138623 0.000000
# 6 0.000000 0.000000 0.000000 0.000000 0.000000 0.033724
#
#
# Mechanical properties :
#
#
# Convention : Reuss Voigt Hill
#
# Bulk Modulus (GPa) = 52.85353 53.48580 53.16967
# Shear Modulus (GPa) = 17.27165 25.26080 21.26623
#
# Velocity S-wave (km/s) = 2.80487 3.39211 3.11237
# Velocity P-wave (km/s) = 5.87918 6.30118 6.09383
#
# Compressibility (1/GPa) = 0.01892021
#
# Stress axis : x y z
#
# Youngs Moduli (GPa) = 70.31879 59.57543 47.19934
#
# Poissons Ratio (x) = -0.02253 0.34226
# Poissons Ratio (y) = -0.02659 0.46081
# Poissons Ratio (z) = 0.50991 0.58164
#
# Static dielectric constant tensor:
#      x y z
#    x 1.867920 0.000000 0.000000 
#    y 0.000000 1.623770 0.000000 
#    z 0.000000 0.000000 1.874460 
# 
# From -- ./inp_files/66122.got.cif
#   From: 2010.05.17/outbox.cif.g08.bks.cpg/sg66_34_cif.got.tgz:66122.got - 2010.06.03 17:51:23.
