data_PCOD9499180
_publ_section_title
;
Structure prediction by ZEFSAII (Michael W. Deem and Ramdas Pophale) SiO2 
 PCOD9499180
Probable space group: C C C M
;
_chemical_formula_sum "Si O2"
_cell_formula_units_Z 76
_cell_length_a 24.770876
_cell_length_b 16.319611
_cell_length_c 10.005956
_cell_angle_alpha 90.000000
_cell_angle_beta 90.000000
_cell_angle_gamma 90.000000
_cell_volume 4044.918324
_symmetry_space_group_name_H-M "C C C M"
_symmetry_group_IT_number 66
_symmetry_cell_setting 'orthorhombic'
loop_
_space_group_symop_operation_xyz
x,y,z
-x,-y,z
x,-y,1/2-z
-x,y,1/2-z
-x,-y,-z
x,y,-z
-x,y,1/2+z
x,-y,1/2+z
1/2+x,1/2+y,z
1/2-x,1/2-y,z
1/2+x,1/2-y,1/2-z
1/2-x,1/2+y,1/2-z
1/2-x,1/2-y,-z
1/2+x,1/2+y,-z
1/2-x,1/2+y,1/2+z
1/2+x,1/2-y,1/2+z
loop_
_atom_site_type_symbol
_atom_site_label
_atom_site_fract_x
_atom_site_fract_y
_atom_site_fract_z
Si Si1 0.552344 0.606217 0.500000
Si Si2 0.918507 0.500000 0.750000
Si Si3 0.266564 0.578057 0.845297
Si Si4 0.000000 0.500000 0.000000
Si Si5 0.651476 0.844445 0.659732
Si Si6 0.575697 0.414137 0.500000
Si Si7 0.123175 0.833266 0.236005
O O1 0.574877 0.512948 0.500000
O O2 0.487842 0.607441 0.500000
O O3 0.576124 0.649631 0.370329
O O4 0.954768 0.483261 0.619341
O O5 0.881642 0.577835 0.712372
O O6 0.262395 0.500000 0.750000
O O7 0.214862 0.636255 0.824621
O O8 0.321952 0.625062 0.816100
O O9 0.265982 0.551592 0.000000
O O10 0.641164 0.832429 0.500000
O O11 0.633946 0.763417 0.738549
O O12 0.604915 0.376394 0.371781
#
# Coordination Sequence:
#
# PCOD9499180 Si02
#       7
#     8   8  16   4  16   8  16
#     4  11  22  47  69  90 139 180 220 270 336 396
#     4  11  22  46  66  98 132 180 219 276 324 394
#     4  11  23  41  71  99 131 177 219 267 337 404
#     4  10  24  42  68  94 124 178 230 262 330 378
#     4  11  23  45  69  99 139 174 222 272 343 391
#     4  11  26  43  67 100 133 176 224 276 332 388
#     4  12  24  43  67 104 132 174 223 278 325 401
#
# _framework density 18.789007999999999
#
# number of rings (size 3 to 8) (size 9 to 14) (size 15 to 20)
#    0.000    0.842    4.211    3.158    1.474    4.211 
#   13.263    1.053    0.000    0.000    0.000    0.000 
#    0.000    0.000    0.000    0.000    0.000    0.000 
#
# Total GULP energy -211906.439895 kJ/mol
# GULP energy per Si atom -5576.485260 kJ/mol
# Density = 1.874624 g / cm^3
# Si number density = 18.789008 Si / 1000 Ang^3
#
#
#
# Elastic Constant Matrix: (Units=GPa)
#
#
# Indices 1 2 3 4 5 6 
#
# 1 89.5297 24.5309 23.9431 0.0000 0.0000 0.0000
# 2 24.5309 95.9162 14.7739 0.0000 0.0000 0.0000
# 3 23.9431 14.7739 103.6702 0.0000 0.0000 0.0000
# 4 0.0000 0.0000 0.0000 18.2358 0.0000 0.0000
# 5 0.0000 0.0000 0.0000 0.0000 -101.8002 0.0000
# 6 0.0000 0.0000 0.0000 0.0000 0.0000 14.4009
#
#
#
# Elastic Compliance Matrix: (Units=1/GPa)
#
#
# Indices 1 2 3 4 5 6 
#
# 1 0.012619 -0.002841 -0.002510 0.000000 0.000000 0.000000
# 2 -0.002841 0.011299 -0.000954 0.000000 0.000000 0.000000
# 3 -0.002510 -0.000954 0.010362 0.000000 0.000000 0.000000
# 4 0.000000 0.000000 0.000000 0.054837 0.000000 0.000000
# 5 0.000000 0.000000 0.000000 0.000000 -0.009823 0.000000
# 6 0.000000 0.000000 0.000000 0.000000 0.000000 0.069440
#
#
# Mechanical properties :
#
#
# Convention : Reuss Voigt Hill
#
# Bulk Modulus (GPa) = 46.14511 46.17910 46.16210
# Shear Modulus (GPa) = 29.66189 1.22519 15.44354
#
# Velocity S-wave (km/s) = 3.97757 0.80839 2.87007
# Velocity P-wave (km/s) = 6.76075 5.04999 5.96700
#
# Compressibility (1/GPa) = 0.02167077
#
# Stress axis : x y z
#
# Youngs Moduli (GPa) = 79.24563 88.50122 96.51071
#
# Poissons Ratio (x) = 0.25141 0.24220
# Poissons Ratio (y) = 0.22512 0.09209
# Poissons Ratio (z) = 0.19887 0.08444
#
# Static dielectric constant tensor:
#      x y z
#    x 1.638700 0.000000 0.000000 
#    y 0.000000 1.627370 0.000000 
#    z 0.000000 0.000000 1.439690 
# 
# From -- ./inp_files/10126.got.cif
#   From: 2010.05.17/outbox.cif.g08.bks.cpg/sg66_6_cif.got.tgz:10126.got - 2010.06.03 17:51:23.
