data_PCOD9499678
_publ_section_title
;
Structure prediction by ZEFSAII (Michael W. Deem and Ramdas Pophale) SiO2 
 PCOD9499678
Probable space group: C C C M
;
_chemical_formula_sum "Si O2"
_cell_formula_units_Z 68
_cell_length_a 15.284017
_cell_length_b 20.610288
_cell_length_c 10.439068
_cell_angle_alpha 90.000000
_cell_angle_beta 90.000000
_cell_angle_gamma 90.000000
_cell_volume 3288.389851
_symmetry_space_group_name_H-M "C C C M"
_symmetry_group_IT_number 66
_symmetry_cell_setting 'orthorhombic'
loop_
_space_group_symop_operation_xyz
x,y,z
-x,-y,z
x,-y,1/2-z
-x,y,1/2-z
-x,-y,-z
x,y,-z
-x,y,1/2+z
x,-y,1/2+z
1/2+x,1/2+y,z
1/2-x,1/2-y,z
1/2+x,1/2-y,1/2-z
1/2-x,1/2+y,1/2-z
1/2-x,1/2-y,-z
1/2+x,1/2+y,-z
1/2-x,1/2+y,1/2+z
1/2+x,1/2-y,1/2+z
loop_
_atom_site_type_symbol
_atom_site_label
_atom_site_fract_x
_atom_site_fract_y
_atom_site_fract_z
Si Si1 0.129349 0.391587 0.854207
Si Si2 0.573988 0.255581 0.351121
Si Si3 0.000000 0.500000 0.750000
Si Si4 0.395352 0.564027 0.500000
Si Si5 0.813803 0.863951 0.759034
Si Si6 0.603254 0.586184 0.500000
O O1 0.081621 0.322081 0.846793
O O2 0.064384 0.450911 0.825599
O O3 0.212324 0.384039 0.760993
O O4 0.163082 0.398029 0.000000
O O5 0.500000 0.276528 0.250000
O O6 0.556218 0.273178 0.500000
O O7 0.662429 0.291098 0.304673
O O8 0.358444 0.594042 0.629671
O O9 0.498634 0.579010 0.500000
O O10 0.369261 0.488927 0.500000
O O11 0.858994 0.878978 0.624851
#
# Coordination Sequence:
#
# PCOD9499678 Si02
#       6
#    16  16   4   8  16   8
#     4  11  25  47  71 100 136 184 239 283 352 416
#     4  11  23  44  71 102 138 184 233 286 348 413
#     4  12  26  48  72 106 138 182 226 304 346 406
#     4  11  22  44  65  96 140 188 229 281 354 422
#     4  12  24  42  71 102 136 186 232 290 343 419
#     4  11  26  40  63 104 144 176 233 287 352 416
#
# _framework density 20.678813000000002
#
# number of rings (size 3 to 8) (size 9 to 14) (size 15 to 20)
#    0.000    0.706    3.529    3.882    4.941    3.765 
#    4.235    1.176    0.000    0.000    0.000    0.000 
#    0.000    0.000    0.000    0.000    0.000    0.000 
#
# Total GULP energy -189972.186004 kJ/mol
# GULP energy per Si atom -5587.417235 kJ/mol
# Density = 2.063175 g / cm^3
# Si number density = 20.678813 Si / 1000 Ang^3
#
#
#
# Elastic Constant Matrix: (Units=GPa)
#
#
# Indices 1 2 3 4 5 6 
#
# 1 93.0329 23.1511 46.2244 0.0000 0.0000 0.0000
# 2 23.1511 133.2782 38.6109 0.0000 0.0000 0.0000
# 3 46.2244 38.6109 153.6128 0.0000 0.0000 0.0000
# 4 0.0000 0.0000 0.0000 21.3027 0.0000 0.0000
# 5 0.0000 0.0000 0.0000 0.0000 6.7803 0.0000
# 6 0.0000 0.0000 0.0000 0.0000 0.0000 34.6984
#
#
#
# Elastic Compliance Matrix: (Units=1/GPa)
#
#
# Indices 1 2 3 4 5 6 
#
# 1 0.012813 -0.001196 -0.003555 0.000000 0.000000 0.000000
# 2 -0.001196 0.008204 -0.001702 0.000000 0.000000 0.000000
# 3 -0.003555 -0.001702 0.008007 0.000000 0.000000 0.000000
# 4 0.000000 0.000000 0.000000 0.046942 0.000000 0.000000
# 5 0.000000 0.000000 0.000000 0.000000 0.147485 0.000000
# 6 0.000000 0.000000 0.000000 0.000000 0.000000 0.028820
#
#
# Mechanical properties :
#
#
# Convention : Reuss Voigt Hill
#
# Bulk Modulus (GPa) = 62.04167 66.21075 64.12621
# Shear Modulus (GPa) = 18.48084 30.68546 24.58315
#
# Velocity S-wave (km/s) = 2.99274 3.85633 3.45165
# Velocity P-wave (km/s) = 6.48149 7.20531 6.85296
#
# Compressibility (1/GPa) = 0.01611820
#
# Stress axis : x y z
#
# Youngs Moduli (GPa) = 78.04700 121.89237 124.88297
#
# Poissons Ratio (x) = 0.14575 0.44396
# Poissons Ratio (y) = 0.09333 0.21258
# Poissons Ratio (z) = 0.27746 0.20749
#
# Static dielectric constant tensor:
#      x y z
#    x 1.752850 0.000000 0.000000 
#    y 0.000000 1.764500 0.000000 
#    z 0.000000 0.000000 1.696610 
# 
# From -- ./inp_files/16179.got.cif
#   From: 2010.05.17/outbox.cif.g08.bks.cpg/sg66_9_cif.got.tgz:16179.got - 2010.06.03 17:51:23.
