data_PCOD9499562
_publ_section_title
;
Structure prediction by ZEFSAII (Michael W. Deem and Ramdas Pophale) SiO2 
 PCOD9499562
Probable space group: C C C M
;
_chemical_formula_sum "Si O2"
_cell_formula_units_Z 96
_cell_length_a 26.616082
_cell_length_b 11.681146
_cell_length_c 17.189243
_cell_angle_alpha 90.000000
_cell_angle_beta 90.000000
_cell_angle_gamma 90.000000
_cell_volume 5344.244625
_symmetry_space_group_name_H-M "C C C M"
_symmetry_group_IT_number 66
_symmetry_cell_setting 'orthorhombic'
loop_
_space_group_symop_operation_xyz
x,y,z
-x,-y,z
x,-y,1/2-z
-x,y,1/2-z
-x,-y,-z
x,y,-z
-x,y,1/2+z
x,-y,1/2+z
1/2+x,1/2+y,z
1/2-x,1/2-y,z
1/2+x,1/2-y,1/2-z
1/2-x,1/2+y,1/2-z
1/2-x,1/2-y,-z
1/2+x,1/2+y,-z
1/2-x,1/2+y,1/2+z
1/2+x,1/2-y,1/2+z
loop_
_atom_site_type_symbol
_atom_site_label
_atom_site_fract_x
_atom_site_fract_y
_atom_site_fract_z
Si Si1 0.107123 0.149454 0.408181
Si Si2 0.368909 0.001688 0.841834
Si Si3 0.946435 0.954518 0.838655
Si Si4 0.959469 0.357296 0.091675
Si Si5 0.070973 0.295324 0.906269
Si Si6 0.197330 0.306806 0.405869
O O1 0.113373 0.143771 0.500000
O O2 0.057886 0.226764 0.393104
O O3 0.154236 0.219672 0.376996
O O4 0.098582 0.024520 0.377072
O O5 0.419693 0.930566 0.860954
O O6 0.322176 0.931623 0.878820
O O7 0.361618 0.000000 0.750000
O O8 0.382858 0.126561 0.876602
O O9 0.936949 0.821719 0.857629
O O10 0.946542 0.000000 0.750000
O O11 0.000000 0.000000 0.871966
O O12 0.018527 0.364870 0.105895
O O13 0.950392 0.381993 0.000000
O O14 0.074410 0.273594 0.000000
O O15 0.197160 0.310200 0.500000
O O16 0.250000 0.250000 0.381550
#
# Coordination Sequence:
#
# PCOD9499562 Si02
#       6
#    16  16  16  16  16  16
#     4   9  17  33  55  77 103 143 194 234 271 332
#     4  11  23  34  56  86 121 145 185 238 303 353
#     4  11  23  33  50  78 119 158 199 235 279 338
#     4   9  18  33  53  77 113 158 196 228 270 341
#     4  11  22  35  54  81 120 164 199 238 286 341
#     4   9  19  39  66  85 103 140 193 242 284 348
#
# _framework density 17.963249999999999
#
# number of rings (size 3 to 8) (size 9 to 14) (size 15 to 20)
#    0.000    2.000    1.667    3.500    4.667    3.333 
#    0.000    0.833    0.000    0.000    0.000    4.667 
#    0.000    0.000    0.000    0.000    0.000    0.000 
#
# Total GULP energy -267338.994092 kJ/mol
# GULP energy per Si atom -5569.562377 kJ/mol
# Density = 1.792236 g / cm^3
# Si number density = 17.963250 Si / 1000 Ang^3
#
#
#
# Elastic Constant Matrix: (Units=GPa)
#
#
# Indices 1 2 3 4 5 6 
#
# 1 93.3943 42.8726 27.4727 0.0000 0.0000 0.0000
# 2 42.8726 105.7819 41.2102 0.0000 0.0000 0.0000
# 3 27.4727 41.2102 36.5220 0.0000 0.0000 0.0000
# 4 0.0000 0.0000 0.0000 26.6145 0.0000 0.0000
# 5 0.0000 0.0000 0.0000 0.0000 54.1193 0.0000
# 6 0.0000 0.0000 0.0000 0.0000 0.0000 14.4340
#
#
#
# Elastic Compliance Matrix: (Units=1/GPa)
#
#
# Indices 1 2 3 4 5 6 
#
# 1 0.014215 -0.002847 -0.007480 0.000000 0.000000 0.000000
# 2 -0.002847 0.017439 -0.017536 0.000000 0.000000 0.000000
# 3 -0.007480 -0.017536 0.052794 0.000000 0.000000 0.000000
# 4 0.000000 0.000000 0.000000 0.037574 0.000000 0.000000
# 5 0.000000 0.000000 0.000000 0.000000 0.018478 0.000000
# 6 0.000000 0.000000 0.000000 0.000000 0.000000 0.069281
#
#
# Mechanical properties :
#
#
# Convention : Reuss Voigt Hill
#
# Bulk Modulus (GPa) = 34.81662 50.97881 42.89771
# Shear Modulus (GPa) = 18.17655 27.30974 22.74314
#
# Velocity S-wave (km/s) = 3.18445 3.90335 3.56208
# Velocity P-wave (km/s) = 5.73979 6.98255 6.39144
#
# Compressibility (1/GPa) = 0.02872192
#
# Stress axis : x y z
#
# Youngs Moduli (GPa) = 70.35059 57.34319 18.94140
#
# Poissons Ratio (x) = 0.16325 0.14168
# Poissons Ratio (y) = 0.20029 0.33215
# Poissons Ratio (z) = 0.52623 1.00556
#
# Static dielectric constant tensor:
#      x y z
#    x 1.622290 0.000000 0.000000 
#    y 0.000000 1.671470 0.000000 
#    z 0.000000 0.000000 1.656880 
# 
# From -- ./inp_files/44267.got.cif
#   From: 2010.05.17/outbox.cif.g08.bks.cpg/sg66_23_cif.got.tgz:44267.got - 2010.06.03 17:51:23.
