data_PCOD9499748
_publ_section_title
;
Structure prediction by ZEFSAII (Michael W. Deem and Ramdas Pophale) SiO2 
 PCOD9499748
Probable space group: C C C M
;
_chemical_formula_sum "Si O2"
_cell_formula_units_Z 52
_cell_length_a 22.064769
_cell_length_b 7.339276
_cell_length_c 14.442153
_cell_angle_alpha 90.000000
_cell_angle_beta 90.000000
_cell_angle_gamma 90.000000
_cell_volume 2338.754019
_symmetry_space_group_name_H-M "C C C M"
_symmetry_group_IT_number 66
_symmetry_cell_setting 'orthorhombic'
loop_
_space_group_symop_operation_xyz
x,y,z
-x,-y,z
x,-y,1/2-z
-x,y,1/2-z
-x,-y,-z
x,y,-z
-x,y,1/2+z
x,-y,1/2+z
1/2+x,1/2+y,z
1/2-x,1/2-y,z
1/2+x,1/2-y,1/2-z
1/2-x,1/2+y,1/2-z
1/2-x,1/2-y,-z
1/2+x,1/2+y,-z
1/2-x,1/2+y,1/2+z
1/2+x,1/2-y,1/2+z
loop_
_atom_site_type_symbol
_atom_site_label
_atom_site_fract_x
_atom_site_fract_y
_atom_site_fract_z
Si Si1 0.597543 0.999230 0.862243
Si Si2 0.000039 0.792782 0.637288
Si Si3 0.750000 0.250000 0.500000
Si Si4 0.735976 0.961216 0.359289
O O1 0.558686 0.175634 0.890554
O O2 0.666718 0.002338 0.891945
O O3 0.598925 0.000000 0.750000
O O4 0.558923 0.823230 0.890840
O O5 0.000000 0.794036 0.750000
O O6 0.000000 0.000000 0.606105
O O7 0.727101 0.394708 0.418885
O O8 0.750000 0.750000 0.375907
O O9 0.742120 0.000000 0.250000
#
# Coordination Sequence:
#
# PCOD9499748 Si02
#       4
#    16  16   4  16
#     4   8  16  29  50  81 122 159 205 265 317 378
#     4   8  13  25  46  80 115 156 207 259 318 379
#     4  12  26  44  68  94 132 178 228 270 326 394
#     4  11  23  43  65  95 133 175 221 274 332 391
#
# _framework density 22.234062999999999
#
# number of rings (size 3 to 8) (size 9 to 14) (size 15 to 20)
#    0.000    2.769    1.538    2.308    0.000    2.462 
#    5.538    0.000    0.000    3.692    0.000   10.769 
#    0.000    0.000    0.000    0.000    0.000    0.000 
#
# Total GULP energy -144735.357300 kJ/mol
# GULP energy per Si atom -5566.744512 kJ/mol
# Density = 2.218346 g / cm^3
# Si number density = 22.234063 Si / 1000 Ang^3
#
#
#
# Elastic Constant Matrix: (Units=GPa)
#
#
# Indices 1 2 3 4 5 6 
#
# 1 78.7120 19.3931 -8.4617 0.0000 0.0000 0.0000
# 2 19.3931 195.6294 20.6789 0.0000 0.0000 0.0000
# 3 -8.4617 20.6789 149.5091 0.0000 0.0000 0.0000
# 4 0.0000 0.0000 0.0000 -6.3792 0.0000 0.0000
# 5 0.0000 0.0000 0.0000 0.0000 -4.4135 0.0000
# 6 0.0000 0.0000 0.0000 0.0000 0.0000 8.8574
#
#
#
# Elastic Compliance Matrix: (Units=1/GPa)
#
#
# Indices 1 2 3 4 5 6 
#
# 1 0.013151 -0.001403 0.000938 0.000000 0.000000 0.000000
# 2 -0.001403 0.005337 -0.000818 0.000000 0.000000 0.000000
# 3 0.000938 -0.000818 0.006855 0.000000 0.000000 0.000000
# 4 0.000000 0.000000 0.000000 -0.156759 0.000000 0.000000
# 5 0.000000 0.000000 0.000000 0.000000 -0.226577 0.000000
# 6 0.000000 0.000000 0.000000 0.000000 0.000000 0.112900
#
#
# Mechanical properties :
#
#
# Convention : Reuss Voigt Hill
#
# Bulk Modulus (GPa) = 43.90058 54.11901 49.00980
# Shear Modulus (GPa) = -21.28244 25.76227 2.23991
#
# Velocity S-wave (km/s) = -3.09722 3.40764 1.00479
# Velocity P-wave (km/s) = 2.64523 6.31475 4.84114
#
# Compressibility (1/GPa) = 0.02277874
#
# Stress axis : x y z
#
# Youngs Moduli (GPa) = 76.03947 187.36413 145.88432
#
# Poissons Ratio (x) = 0.26285 -0.13689
# Poissons Ratio (y) = 0.10667 0.11927
# Poissons Ratio (z) = -0.07135 0.15319
#
# Static dielectric constant tensor:
#      x y z
#    x 1.850530 0.000000 0.000000 
#    y 0.000000 1.816070 0.000000 
#    z 0.000000 0.000000 1.225920 
# 
# From -- ./inp_files/30647.got.cif
#   From: 2010.05.17/outbox.cif.g08.bks.cpg/sg66_16_cif.got.tgz:30647.got - 2010.06.03 17:51:23.
