data_PCOD9499490
_publ_section_title
;
Structure prediction by ZEFSAII (Michael W. Deem and Ramdas Pophale) SiO2 
 PCOD9499490
Probable space group: C C C M
;
_chemical_formula_sum "Si O2"
_cell_formula_units_Z 92
_cell_length_a 11.562733
_cell_length_b 16.951777
_cell_length_c 22.096715
_cell_angle_alpha 90.000000
_cell_angle_beta 90.000000
_cell_angle_gamma 90.000000
_cell_volume 4331.152167
_symmetry_space_group_name_H-M "C C C M"
_symmetry_group_IT_number 66
_symmetry_cell_setting 'orthorhombic'
loop_
_space_group_symop_operation_xyz
x,y,z
-x,-y,z
x,-y,1/2-z
-x,y,1/2-z
-x,-y,-z
x,y,-z
-x,y,1/2+z
x,-y,1/2+z
1/2+x,1/2+y,z
1/2-x,1/2-y,z
1/2+x,1/2-y,1/2-z
1/2-x,1/2+y,1/2-z
1/2-x,1/2-y,-z
1/2+x,1/2+y,-z
1/2-x,1/2+y,1/2+z
1/2+x,1/2-y,1/2+z
loop_
_atom_site_type_symbol
_atom_site_label
_atom_site_fract_x
_atom_site_fract_y
_atom_site_fract_z
Si Si1 0.382413 0.285598 0.000000
Si Si2 0.500000 0.000000 0.750000
Si Si3 0.212092 0.660684 0.164109
Si Si4 0.650607 0.528378 0.000000
Si Si5 0.188339 0.613584 0.302873
Si Si6 0.961079 0.681614 0.895840
Si Si7 0.902336 0.561661 0.000000
Si Si8 0.369668 0.508157 0.862706
O O1 0.250000 0.250000 0.000000
O O2 0.371013 0.378421 0.000000
O O3 0.451400 0.256891 0.059914
O O4 0.583715 0.051617 0.708190
O O5 0.250000 0.750000 0.150762
O O6 0.209153 0.647883 0.236425
O O7 0.085309 0.658199 0.132115
O O8 0.300043 0.590432 0.145854
O O9 0.615488 0.497636 0.065125
O O10 0.786109 0.514820 0.000000
O O11 0.291106 0.562806 0.333940
O O12 0.135135 0.682587 0.343828
O O13 0.915857 0.614249 0.940944
O O14 0.000000 0.500000 0.000000
O O15 0.500000 0.500000 0.836331
#
# Coordination Sequence:
#
# PCOD9499490 Si02
#       8
#     8   4  16   8  16  16   8  16
#     4  11  22  43  68 113 143 179 237 302 382 433
#     4  12  20  40  74 102 132 168 254 290 342 412
#     4  12  28  47  66 106 145 194 239 299 373 429
#     4  12  24  45  73 105 139 192 245 293 375 443
#     4  12  22  45  76 101 139 189 239 298 356 433
#     4  11  23  43  70 104 143 177 240 310 360 430
#     4  11  21  37  72 106 130 176 236 300 362 423
#     4  12  27  49  74 105 149 192 246 300 365 455
#
# _framework density 21.24146
#
# number of rings (size 3 to 8) (size 9 to 14) (size 15 to 20)
#    0.000    0.348    6.957    1.304    3.652    4.174 
#    3.130    2.174    0.000    0.000    0.000    0.000 
#    0.000    0.000    0.000    0.000    0.000    0.000 
#
# Total GULP energy -256745.489908 kJ/mol
# GULP energy per Si atom -5581.423694 kJ/mol
# Density = 2.119311 g / cm^3
# Si number density = 21.241460 Si / 1000 Ang^3
#
#
#
# Elastic Constant Matrix: (Units=GPa)
#
#
# Indices 1 2 3 4 5 6 
#
# 1 171.7690 32.7601 52.4803 0.0000 0.0000 0.0000
# 2 32.7601 52.2608 18.5065 0.0000 0.0000 0.0000
# 3 52.4803 18.5065 141.3642 0.0000 0.0000 0.0000
# 4 0.0000 0.0000 0.0000 24.0790 0.0000 0.0000
# 5 0.0000 0.0000 0.0000 0.0000 42.4137 0.0000
# 6 0.0000 0.0000 0.0000 0.0000 0.0000 33.7926
#
#
#
# Elastic Compliance Matrix: (Units=1/GPa)
#
#
# Indices 1 2 3 4 5 6 
#
# 1 0.007203 -0.003742 -0.002184 0.000000 0.000000 0.000000
# 2 -0.003742 0.022009 -0.001492 0.000000 0.000000 0.000000
# 3 -0.002184 -0.001492 0.008080 0.000000 0.000000 0.000000
# 4 0.000000 0.000000 0.000000 0.041530 0.000000 0.000000
# 5 0.000000 0.000000 0.000000 0.000000 0.023577 0.000000
# 6 0.000000 0.000000 0.000000 0.000000 0.000000 0.029592
#
#
# Mechanical properties :
#
#
# Convention : Reuss Voigt Hill
#
# Bulk Modulus (GPa) = 44.53227 63.65420 54.09323
# Shear Modulus (GPa) = 32.40188 37.50020 34.95104
#
# Velocity S-wave (km/s) = 3.90988 4.20625 4.06077
# Velocity P-wave (km/s) = 6.43376 7.32271 6.89258
#
# Compressibility (1/GPa) = 0.02245563
#
# Stress axis : x y z
#
# Youngs Moduli (GPa) = 138.83705 45.43661 123.76069
#
# Poissons Ratio (x) = 0.17001 0.27031
# Poissons Ratio (y) = 0.51948 0.18467
# Poissons Ratio (z) = 0.30324 0.06780
#
# Static dielectric constant tensor:
#      x y z
#    x 1.802670 0.000000 0.000000 
#    y 0.000000 1.768120 0.000000 
#    z 0.000000 0.000000 1.950790 
# 
# From -- ./inp_files/48624.got.cif
#   From: 2010.05.17/outbox.cif.g08.bks.cpg/sg66_25_cif.got.tgz:48624.got - 2010.06.03 17:51:23.
