data_PCOD9499111
_publ_section_title
;
Structure prediction by ZEFSAII (Michael W. Deem and Ramdas Pophale) SiO2 
 PCOD9499111
Probable space group: C C C M
;
_chemical_formula_sum "Si O2"
_cell_formula_units_Z 112
_cell_length_a 22.140593
_cell_length_b 15.585295
_cell_length_c 15.398959
_cell_angle_alpha 90.000000
_cell_angle_beta 90.000000
_cell_angle_gamma 90.000000
_cell_volume 5313.682955
_symmetry_space_group_name_H-M "C C C M"
_symmetry_group_IT_number 66
_symmetry_cell_setting 'orthorhombic'
loop_
_space_group_symop_operation_xyz
x,y,z
-x,-y,z
x,-y,1/2-z
-x,y,1/2-z
-x,-y,-z
x,y,-z
-x,y,1/2+z
x,-y,1/2+z
1/2+x,1/2+y,z
1/2-x,1/2-y,z
1/2+x,1/2-y,1/2-z
1/2-x,1/2+y,1/2-z
1/2-x,1/2-y,-z
1/2+x,1/2+y,-z
1/2-x,1/2+y,1/2+z
1/2+x,1/2-y,1/2+z
loop_
_atom_site_type_symbol
_atom_site_label
_atom_site_fract_x
_atom_site_fract_y
_atom_site_fract_z
Si Si1 0.993514 0.355409 0.152563
Si Si2 0.336850 0.378950 0.101659
Si Si3 0.711896 0.054835 0.667384
Si Si4 0.433590 0.476514 0.605314
Si Si5 0.404942 0.281287 0.401042
Si Si6 0.679693 0.766641 0.244282
Si Si7 0.587222 0.007509 0.599665
O O1 0.965236 0.276966 0.099941
O O2 0.945424 0.433828 0.154618
O O3 0.000000 0.323209 0.250000
O O4 0.053872 0.401892 0.118285
O O5 0.269335 0.417466 0.111378
O O6 0.384239 0.452331 0.129402
O O7 0.339757 0.299950 0.168712
O O8 0.347115 0.355536 0.000000
O O9 0.679589 0.138970 0.705161
O O10 0.658240 0.007997 0.616876
O O11 0.733182 0.000000 0.750000
O O12 0.500000 0.500000 0.638116
O O13 0.435521 0.478378 0.500000
O O14 0.417004 0.379099 0.627255
O O15 0.381182 0.281298 0.500000
O O16 0.360083 0.242415 0.329924
O O17 0.750000 0.750000 0.265737
O O18 0.574888 0.985118 0.500000
#
# Coordination Sequence:
#
# PCOD9499111 Si02
#       7
#    16  16  16  16  16  16  16
#     4  11  22  38  58  86 129 167 212 268 324 391
#     4  10  23  44  68  93 127 169 217 272 331 394
#     4  11  23  39  63  91 129 167 212 270 322 393
#     4   9  21  41  65  94 125 162 210 267 324 383
#     4  11  23  41  64  92 129 169 215 269 330 398
#     4  10  24  41  63  93 127 169 214 272 327 389
#     4  11  21  36  60  89 123 171 219 265 330 390
#
# _framework density 21.077660999999999
#
# number of rings (size 3 to 8) (size 9 to 14) (size 15 to 20)
#    0.000    1.571    0.000    5.571    4.000    5.714 
#    0.000    2.857    0.000    0.000    0.000    0.000 
#    0.000    0.000    0.000    0.000    0.000    0.000 
#
# Total GULP energy -312995.372628 kJ/mol
# GULP energy per Si atom -5589.203083 kJ/mol
# Density = 2.102969 g / cm^3
# Si number density = 21.077661 Si / 1000 Ang^3
#
#
#
# Elastic Constant Matrix: (Units=GPa)
#
#
# Indices 1 2 3 4 5 6 
#
# 1 67.8345 17.7262 34.3719 0.0000 0.0000 0.0000
# 2 17.7262 88.7604 24.7758 0.0000 0.0000 0.0000
# 3 34.3719 24.7758 87.9519 0.0000 0.0000 0.0000
# 4 0.0000 0.0000 0.0000 -9.3579 0.0000 0.0000
# 5 0.0000 0.0000 0.0000 0.0000 32.0296 0.0000
# 6 0.0000 0.0000 0.0000 0.0000 0.0000 28.0478
#
#
#
# Elastic Compliance Matrix: (Units=1/GPa)
#
#
# Indices 1 2 3 4 5 6 
#
# 1 0.018653 -0.001835 -0.006773 0.000000 0.000000 0.000000
# 2 -0.001835 0.012408 -0.002778 0.000000 0.000000 0.000000
# 3 -0.006773 -0.002778 0.014799 0.000000 0.000000 0.000000
# 4 0.000000 0.000000 0.000000 -0.106862 0.000000 0.000000
# 5 0.000000 0.000000 0.000000 0.000000 0.031221 0.000000
# 6 0.000000 0.000000 0.000000 0.000000 0.000000 0.035653
#
#
# Mechanical properties :
#
#
# Convention : Reuss Voigt Hill
#
# Bulk Modulus (GPa) = 43.31096 44.25497 43.78296
# Shear Modulus (GPa) = 137.58510 21.32210 79.45360
#
# Velocity S-wave (km/s) = 8.08808 3.18401 6.14634
# Velocity P-wave (km/s) = 10.38343 5.87869 8.43726
#
# Compressibility (1/GPa) = 0.02308884
#
# Stress axis : x y z
#
# Youngs Moduli (GPa) = 53.61065 80.59176 67.57042
#
# Poissons Ratio (x) = 0.14786 0.45764
# Poissons Ratio (y) = 0.09836 0.18774
# Poissons Ratio (z) = 0.36310 0.22391
#
# Static dielectric constant tensor:
#      x y z
#    x 1.776060 0.000000 0.000000 
#    y 0.000000 1.749500 0.000000 
#    z 0.000000 0.000000 1.741310 
# 
# From -- ./inp_files/32508.got.cif
#   From: 2010.05.17/outbox.cif.g08.bks.cpg/sg66_17_cif.got.tgz:32508.got - 2010.06.03 17:51:23.
