data_PCOD9499575
_publ_section_title
;
Structure prediction by ZEFSAII (Michael W. Deem and Ramdas Pophale) SiO2 
 PCOD9499575
Probable space group: C C C M
;
_chemical_formula_sum "Si O2"
_cell_formula_units_Z 64
_cell_length_a 4.971150
_cell_length_b 36.224889
_cell_length_c 14.899694
_cell_angle_alpha 90.000000
_cell_angle_beta 90.000000
_cell_angle_gamma 90.000000
_cell_volume 2683.127314
_symmetry_space_group_name_H-M "C C C M"
_symmetry_group_IT_number 66
_symmetry_cell_setting 'orthorhombic'
loop_
_space_group_symop_operation_xyz
x,y,z
-x,-y,z
x,-y,1/2-z
-x,y,1/2-z
-x,-y,-z
x,y,-z
-x,y,1/2+z
x,-y,1/2+z
1/2+x,1/2+y,z
1/2-x,1/2-y,z
1/2+x,1/2-y,1/2-z
1/2-x,1/2+y,1/2-z
1/2-x,1/2-y,-z
1/2+x,1/2+y,-z
1/2-x,1/2+y,1/2+z
1/2+x,1/2-y,1/2+z
loop_
_atom_site_type_symbol
_atom_site_label
_atom_site_fract_x
_atom_site_fract_y
_atom_site_fract_z
Si Si1 0.589115 0.914703 0.398577
Si Si2 0.917193 0.040327 0.646484
Si Si3 0.613159 0.166613 0.105528
Si Si4 0.094003 0.785327 0.394865
O O1 0.489320 0.909285 0.500000
O O2 0.388001 0.945589 0.359653
O O3 0.605336 0.874351 0.354316
O O4 0.888632 0.930233 0.399008
O O5 0.000000 0.040291 0.750000
O O6 0.000000 0.000000 0.610492
O O7 0.315581 0.182713 0.106799
O O8 0.821953 0.196869 0.144148
O O9 0.696256 0.162689 0.000000
O O10 0.033975 0.775031 0.500000
O O11 0.250000 0.750000 0.355155
#
# Coordination Sequence:
#
# PCOD9499575 Si02
#       4
#    16  16  16  16
#     4  11  22  37  59  85 114 148 187 235 288 342
#     4  11  24  41  59  81 112 148 187 235 289 344
#     4   9  17  28  43  69 104 138 175 221 270 316
#     4   9  15  24  40  64 100 144 179 209 259 324
#
# _framework density 23.852761999999998
#
# number of rings (size 3 to 8) (size 9 to 14) (size 15 to 20)
#    0.000    2.000    0.000    4.500    0.000   12.000 
#    0.000    0.000    0.000    0.000    0.000    0.000 
#    0.000   56.000    0.000    0.000    0.000    0.000 
#
# Total GULP energy -178706.251045 kJ/mol
# GULP energy per Si atom -5584.570345 kJ/mol
# Density = 2.379847 g / cm^3
# Si number density = 23.852762 Si / 1000 Ang^3
#
#
#
# Elastic Constant Matrix: (Units=GPa)
#
#
# Indices 1 2 3 4 5 6 
#
# 1 96.8673 -6.2947 -0.5087 0.0000 0.0000 0.0000
# 2 -6.2947 93.1440 4.4986 0.0000 0.0000 0.0000
# 3 -0.5087 4.4986 43.4503 0.0000 0.0000 0.0000
# 4 0.0000 0.0000 0.0000 15.0519 0.0000 0.0000
# 5 0.0000 0.0000 0.0000 0.0000 17.9815 0.0000
# 6 0.0000 0.0000 0.0000 0.0000 0.0000 35.8547
#
#
#
# Elastic Compliance Matrix: (Units=1/GPa)
#
#
# Indices 1 2 3 4 5 6 
#
# 1 0.010369 0.000698 0.000049 0.000000 0.000000 0.000000
# 2 0.000698 0.010837 -0.001114 0.000000 0.000000 0.000000
# 3 0.000049 -0.001114 0.023131 0.000000 0.000000 0.000000
# 4 0.000000 0.000000 0.000000 0.066437 0.000000 0.000000
# 5 0.000000 0.000000 0.000000 0.000000 0.055613 0.000000
# 6 0.000000 0.000000 0.000000 0.000000 0.000000 0.027890
#
#
# Mechanical properties :
#
#
# Convention : Reuss Voigt Hill
#
# Bulk Modulus (GPa) = 22.93364 25.42799 24.18081
# Shear Modulus (GPa) = 23.86131 29.49537 26.67834
#
# Velocity S-wave (km/s) = 3.16628 3.52029 3.34797
# Velocity P-wave (km/s) = 4.79610 5.21601 5.01046
#
# Compressibility (1/GPa) = 0.04360407
#
# Stress axis : x y z
#
# Youngs Moduli (GPa) = 96.44091 92.27597 43.23260
#
# Poissons Ratio (x) = -0.06444 -0.00212
# Poissons Ratio (y) = -0.06735 0.04815
# Poissons Ratio (z) = -0.00473 0.10278
#
# Static dielectric constant tensor:
#      x y z
#    x 1.829980 0.000000 0.000000 
#    y 0.000000 1.954340 0.000000 
#    z 0.000000 0.000000 1.991290 
# 
# From -- ./inp_files/35057.got.cif
#   From: 2010.05.17/outbox.cif.g08.bks.cpg/sg66_18_cif.got.tgz:35057.got - 2010.06.03 17:51:23.
