data_PCOD9499579
_publ_section_title
;
Structure prediction by ZEFSAII (Michael W. Deem and Ramdas Pophale) SiO2 
 PCOD9499579
Probable space group: C C C M
;
_chemical_formula_sum "Si O2"
_cell_formula_units_Z 96
_cell_length_a 16.072504
_cell_length_b 16.124679
_cell_length_c 19.737862
_cell_angle_alpha 90.000000
_cell_angle_beta 90.000000
_cell_angle_gamma 90.000000
_cell_volume 5115.342630
_symmetry_space_group_name_H-M "C C C M"
_symmetry_group_IT_number 66
_symmetry_cell_setting 'orthorhombic'
loop_
_space_group_symop_operation_xyz
x,y,z
-x,-y,z
x,-y,1/2-z
-x,y,1/2-z
-x,-y,-z
x,y,-z
-x,y,1/2+z
x,-y,1/2+z
1/2+x,1/2+y,z
1/2-x,1/2-y,z
1/2+x,1/2-y,1/2-z
1/2-x,1/2+y,1/2-z
1/2-x,1/2-y,-z
1/2+x,1/2+y,-z
1/2-x,1/2+y,1/2+z
1/2+x,1/2-y,1/2+z
loop_
_atom_site_type_symbol
_atom_site_label
_atom_site_fract_x
_atom_site_fract_y
_atom_site_fract_z
Si Si1 0.000392 0.216209 0.638214
Si Si2 0.000000 0.357279 0.250000
Si Si3 0.773794 0.616275 0.000000
Si Si4 0.392097 0.275626 0.000000
Si Si5 0.136207 0.500000 0.250000
Si Si6 0.318305 0.680988 0.919806
Si Si7 0.753217 0.999189 0.379593
Si Si8 0.574304 0.549184 0.178867
O O1 0.949039 0.221758 0.567557
O O2 0.955855 0.143316 0.681193
O O3 0.000414 0.298752 0.683655
O O4 0.095470 0.191929 0.620472
O O5 0.078777 0.418507 0.246993
O O6 0.786498 0.557617 0.935749
O O7 0.678986 0.652539 0.000000
O O8 0.837863 0.691762 0.000000
O O9 0.193811 0.492843 0.315531
O O10 0.250000 0.750000 0.900307
O O11 0.278502 0.591167 0.906676
O O12 0.335744 0.690321 0.000000
O O13 0.839007 0.042281 0.357833
O O14 0.500000 0.500000 0.141143
O O15 0.583845 0.500000 0.250000
#
# Coordination Sequence:
#
# PCOD9499579 Si02
#       8
#    16   8   8   8   8  16  16  16
#     4  12  23  43  68  94 132 168 212 266 331 383
#     4  11  26  46  65  90 124 178 221 272 314 375
#     4  11  24  41  63  96 130 165 216 264 324 385
#     4  11  24  41  65  96 128 169 214 266 320 395
#     4  11  26  46  65  88 128 172 229 264 314 381
#     4  11  24  41  65  95 127 163 210 264 318 384
#     4  12  22  42  66  94 129 169 208 266 324 387
#     4  11  22  37  61  95 129 163 202 256 323 391
#
# _framework density 18.767071000000001
#
# number of rings (size 3 to 8) (size 9 to 14) (size 15 to 20)
#    0.000    0.667    5.833    3.000    0.000    0.000 
#    0.000    2.500    0.000    4.000    0.000    0.000 
#    0.000    0.000    0.000    0.000    0.000    0.000 
#
# Total GULP energy -268201.250425 kJ/mol
# GULP energy per Si atom -5587.526051 kJ/mol
# Density = 1.872436 g / cm^3
# Si number density = 18.767071 Si / 1000 Ang^3
#
#
#
# Elastic Constant Matrix: (Units=GPa)
#
#
# Indices 1 2 3 4 5 6 
#
# 1 85.2900 37.3451 25.6433 0.0000 0.0000 0.0000
# 2 37.3451 132.3713 37.2604 0.0000 0.0000 0.0000
# 3 25.6433 37.2604 100.6386 0.0000 0.0000 0.0000
# 4 0.0000 0.0000 0.0000 665.3597 0.0000 0.0000
# 5 0.0000 0.0000 0.0000 0.0000 46.9332 0.0000
# 6 0.0000 0.0000 0.0000 0.0000 0.0000 24.6422
#
#
#
# Elastic Compliance Matrix: (Units=1/GPa)
#
#
# Indices 1 2 3 4 5 6 
#
# 1 0.013848 -0.003253 -0.002324 0.000000 0.000000 0.000000
# 2 -0.003253 0.009197 -0.002576 0.000000 0.000000 0.000000
# 3 -0.002324 -0.002576 0.011483 0.000000 0.000000 0.000000
# 4 0.000000 0.000000 0.000000 0.001503 0.000000 0.000000
# 5 0.000000 0.000000 0.000000 0.000000 0.021307 0.000000
# 6 0.000000 0.000000 0.000000 0.000000 0.000000 0.040581
#
#
# Mechanical properties :
#
#
# Convention : Reuss Voigt Hill
#
# Bulk Modulus (GPa) = 54.88102 57.64417 56.26259
# Shear Modulus (GPa) = 41.56327 161.92377 101.74352
#
# Velocity S-wave (km/s) = 4.71116 9.29882 7.37099
# Velocity P-wave (km/s) = 7.67464 12.08607 10.12356
#
# Compressibility (1/GPa) = 0.01822124
#
# Stress axis : x y z
#
# Youngs Moduli (GPa) = 72.21435 108.72698 87.08763
#
# Poissons Ratio (x) = 0.35364 0.20241
# Poissons Ratio (y) = 0.23488 0.22438
# Poissons Ratio (z) = 0.16784 0.28013
#
# Static dielectric constant tensor:
#      x y z
#    x 1.633040 0.000000 0.000000 
#    y 0.000000 1.633820 0.000000 
#    z 0.000000 0.000000 1.653220 
# 
# From -- ./inp_files/49956.got.cif
#   From: 2010.05.17/outbox.cif.g08.bks.cpg/sg66_25_cif.got.tgz:49956.got - 2010.06.03 17:51:23.
