data_PCOD9499281
_publ_section_title
;
Structure prediction by ZEFSAII (Michael W. Deem and Ramdas Pophale) SiO2 
 PCOD9499281
Probable space group: C C C M
;
_chemical_formula_sum "Si O2"
_cell_formula_units_Z 88
_cell_length_a 30.957334
_cell_length_b 5.282785
_cell_length_c 22.019030
_cell_angle_alpha 90.000000
_cell_angle_beta 90.000000
_cell_angle_gamma 90.000000
_cell_volume 3601.012857
_symmetry_space_group_name_H-M "C C C M"
_symmetry_group_IT_number 66
_symmetry_cell_setting 'orthorhombic'
loop_
_space_group_symop_operation_xyz
x,y,z
-x,-y,z
x,-y,1/2-z
-x,y,1/2-z
-x,-y,-z
x,y,-z
-x,y,1/2+z
x,-y,1/2+z
1/2+x,1/2+y,z
1/2-x,1/2-y,z
1/2+x,1/2-y,1/2-z
1/2-x,1/2+y,1/2-z
1/2-x,1/2-y,-z
1/2+x,1/2+y,-z
1/2-x,1/2+y,1/2+z
1/2+x,1/2-y,1/2+z
loop_
_atom_site_type_symbol
_atom_site_label
_atom_site_fract_x
_atom_site_fract_y
_atom_site_fract_z
Si Si1 0.472377 0.255173 0.129674
Si Si2 0.250000 0.750000 0.590765
Si Si3 0.884346 0.180629 0.310276
Si Si4 0.696981 0.050568 0.812712
Si Si5 0.627818 0.871085 0.500000
Si Si6 0.327328 0.576296 0.099788
Si Si7 0.928635 0.134713 0.500000
O O1 0.500000 0.500000 0.148758
O O2 0.432181 0.222508 0.175693
O O3 0.500000 0.000000 0.128885
O O4 0.455822 0.312557 0.061020
O O5 0.276313 0.937964 0.632790
O O6 0.290061 0.582418 0.565901
O O7 0.848356 0.400875 0.306656
O O8 0.883591 0.000000 0.250000
O O9 0.870423 0.054641 0.375024
O O10 0.720152 0.000000 0.750000
O O11 0.690504 0.335096 0.834374
O O12 0.657207 0.806882 0.441755
O O13 0.590969 0.650582 0.500000
O O14 0.609239 0.151571 0.500000
#
# Coordination Sequence:
#
# PCOD9499281 Si02
#       7
#    16   8  16  16   8  16   8
#     4  12  27  46  75 110 148 185 239 301 368 432
#     4  10  26  39  66 106 146 177 244 296 358 420
#     4  11  24  44  69 101 144 192 239 291 358 434
#     4  11  23  40  71 100 139 189 243 294 354 420
#     4  12  26  44  83 103 146 190 247 295 362 442
#     4  11  24  46  68 108 139 195 237 298 359 428
#     4  12  24  49  76 110 137 186 247 306 356 431
#
# _framework density 24.437570000000001
#
# number of rings (size 3 to 8) (size 9 to 14) (size 15 to 20)
#    0.000    0.727    3.636    3.273    7.636    0.727 
#    0.000    2.727    0.000    0.000    0.000    0.000 
#    0.000    0.000    0.000    0.000    0.000    0.000 
#
# Total GULP energy -245803.739288 kJ/mol
# GULP energy per Si atom -5586.448620 kJ/mol
# Density = 2.438195 g / cm^3
# Si number density = 24.437570 Si / 1000 Ang^3
#
#
#
# Elastic Constant Matrix: (Units=GPa)
#
#
# Indices 1 2 3 4 5 6 
#
# 1 141.1078 41.0067 35.2972 0.0000 0.0000 0.0000
# 2 41.0067 70.1175 12.5008 0.0000 0.0000 0.0000
# 3 35.2972 12.5008 107.4847 0.0000 0.0000 0.0000
# 4 0.0000 0.0000 0.0000 5.8805 0.0000 0.0000
# 5 0.0000 0.0000 0.0000 0.0000 28.0083 0.0000
# 6 0.0000 0.0000 0.0000 0.0000 0.0000 55.1941
#
#
#
# Elastic Compliance Matrix: (Units=1/GPa)
#
#
# Indices 1 2 3 4 5 6 
#
# 1 0.009117 -0.004900 -0.002424 0.000000 0.000000 0.000000
# 2 -0.004900 0.017197 -0.000391 0.000000 0.000000 0.000000
# 3 -0.002424 -0.000391 0.010145 0.000000 0.000000 0.000000
# 4 0.000000 0.000000 0.000000 0.170054 0.000000 0.000000
# 5 0.000000 0.000000 0.000000 0.000000 0.035704 0.000000
# 6 0.000000 0.000000 0.000000 0.000000 0.000000 0.018118
#
#
# Mechanical properties :
#
#
# Convention : Reuss Voigt Hill
#
# Bulk Modulus (GPa) = 47.55232 55.14661 51.34946
# Shear Modulus (GPa) = 17.68196 33.14361 25.41278
#
# Velocity S-wave (km/s) = 2.69282 3.68673 3.22826
# Velocity P-wave (km/s) = 5.40086 6.38263 5.91216
#
# Compressibility (1/GPa) = 0.02102947
#
# Stress axis : x y z
#
# Youngs Moduli (GPa) = 109.68471 58.14974 98.56894
#
# Poissons Ratio (x) = 0.28492 0.23894
# Poissons Ratio (y) = 0.53742 0.03854
# Poissons Ratio (z) = 0.26589 0.02274
#
# Static dielectric constant tensor:
#      x y z
#    x 2.040990 0.000000 0.000000 
#    y 0.000000 1.602990 0.000000 
#    z 0.000000 0.000000 2.000040 
# 
# From -- ./inp_files/60442.got.cif
#   From: 2010.05.17/outbox.cif.g08.bks.cpg/sg66_31_cif.got.tgz:60442.got - 2010.06.03 17:51:23.
