data_PCOD9499370
_publ_section_title
;
Structure prediction by ZEFSAII (Michael W. Deem and Ramdas Pophale) SiO2 
 PCOD9499370
Probable space group: C C C M
;
_chemical_formula_sum "Si O2"
_cell_formula_units_Z 80
_cell_length_a 19.308106
_cell_length_b 18.239075
_cell_length_c 13.727118
_cell_angle_alpha 90.000000
_cell_angle_beta 90.000000
_cell_angle_gamma 90.000000
_cell_volume 4834.169239
_symmetry_space_group_name_H-M "C C C M"
_symmetry_group_IT_number 66
_symmetry_cell_setting 'orthorhombic'
loop_
_space_group_symop_operation_xyz
x,y,z
-x,-y,z
x,-y,1/2-z
-x,y,1/2-z
-x,-y,-z
x,y,-z
-x,y,1/2+z
x,-y,1/2+z
1/2+x,1/2+y,z
1/2-x,1/2-y,z
1/2+x,1/2-y,1/2-z
1/2-x,1/2+y,1/2-z
1/2-x,1/2-y,-z
1/2+x,1/2+y,-z
1/2-x,1/2+y,1/2+z
1/2+x,1/2-y,1/2+z
loop_
_atom_site_type_symbol
_atom_site_label
_atom_site_fract_x
_atom_site_fract_y
_atom_site_fract_z
Si Si1 0.860416 0.549892 0.386826
Si Si2 0.422111 0.824222 0.776075
Si Si3 0.720335 0.418470 0.233435
Si Si4 0.671575 0.119395 0.612908
Si Si5 0.325890 0.287202 0.385474
O O1 0.860924 0.570903 0.500000
O O2 0.917010 0.595926 0.328020
O O3 0.787302 0.571285 0.337404
O O4 0.862898 0.462032 0.380816
O O5 0.500000 0.805157 0.750000
O O6 0.624166 0.828595 0.821599
O O7 0.383973 0.768907 0.849111
O O8 0.691280 0.500000 0.250000
O O9 0.754366 0.388431 0.333254
O O10 0.672681 0.359800 0.180575
O O11 0.677239 0.139293 0.500000
O O12 0.332544 0.303364 0.500000
O O13 0.250000 0.250000 0.370678
#
# Coordination Sequence:
#
# PCOD9499370 Si02
#       5
#    16  16  16  16  16
#     4   9  16  29  49  73 101 137 179 215 249 303
#     4  11  22  33  46  72 109 142 175 219 266 307
#     4   9  17  31  52  79 105 128 166 221 273 308
#     4   9  18  30  46  70 105 145 176 202 251 323
#     4  11  20  34  59  83 102 132 180 226 261 302
#
# _framework density 16.548863000000001
#
# number of rings (size 3 to 8) (size 9 to 14) (size 15 to 20)
#    0.000    2.200    4.000    3.000    0.000    4.000 
#    0.000    4.000    0.000    0.600    0.000    1.400 
#    0.000    0.000    0.000    0.000    0.000    0.000 
#
# Total GULP energy -223025.274788 kJ/mol
# GULP energy per Si atom -5575.631870 kJ/mol
# Density = 1.651120 g / cm^3
# Si number density = 16.548863 Si / 1000 Ang^3
#
#
#
# Elastic Constant Matrix: (Units=GPa)
#
#
# Indices 1 2 3 4 5 6 
#
# 1 31.2498 12.1752 7.7304 0.0000 0.0000 0.0000
# 2 12.1752 55.1753 27.0950 0.0000 0.0000 0.0000
# 3 7.7304 27.0950 121.9182 0.0000 0.0000 0.0000
# 4 0.0000 0.0000 0.0000 28.2673 0.0000 0.0000
# 5 0.0000 0.0000 0.0000 0.0000 5.9553 0.0000
# 6 0.0000 0.0000 0.0000 0.0000 0.0000 14.6418
#
#
#
# Elastic Compliance Matrix: (Units=1/GPa)
#
#
# Indices 1 2 3 4 5 6 
#
# 1 0.035045 -0.007456 -0.000565 0.000000 0.000000 0.000000
# 2 -0.007456 0.021931 -0.004401 0.000000 0.000000 0.000000
# 3 -0.000565 -0.004401 0.009216 0.000000 0.000000 0.000000
# 4 0.000000 0.000000 0.000000 0.035377 0.000000 0.000000
# 5 0.000000 0.000000 0.000000 0.000000 0.167918 0.000000
# 6 0.000000 0.000000 0.000000 0.000000 0.000000 0.068298
#
#
# Mechanical properties :
#
#
# Convention : Reuss Voigt Hill
#
# Bulk Modulus (GPa) = 24.18509 33.59383 28.88946
# Shear Modulus (GPa) = 13.28339 20.52905 16.90622
#
# Velocity S-wave (km/s) = 2.83623 3.52591 3.19971
# Velocity P-wave (km/s) = 5.03703 6.07618 5.58084
#
# Compressibility (1/GPa) = 0.04134778
#
# Stress axis : x y z
#
# Youngs Moduli (GPa) = 28.53489 45.59858 108.50518
#
# Poissons Ratio (x) = 0.33997 0.06132
# Poissons Ratio (y) = 0.21275 0.47754
# Poissons Ratio (z) = 0.01613 0.20068
#
# Static dielectric constant tensor:
#      x y z
#    x 1.530520 0.000000 0.000000 
#    y 0.000000 1.603940 0.000000 
#    z 0.000000 0.000000 1.576280 
# 
# From -- ./inp_files/29932.got.cif
#   From: 2010.05.17/outbox.cif.g08.bks.cpg/sg66_15_cif.got.tgz:29932.got - 2010.06.03 17:51:23.
