data_PCOD9499617
_publ_section_title
;
Structure prediction by ZEFSAII (Michael W. Deem and Ramdas Pophale) SiO2 
 PCOD9499617
Probable space group: C C C M
;
_chemical_formula_sum "Si O2"
_cell_formula_units_Z 96
_cell_length_a 14.659842
_cell_length_b 19.704330
_cell_length_c 15.417509
_cell_angle_alpha 90.000000
_cell_angle_beta 90.000000
_cell_angle_gamma 90.000000
_cell_volume 4453.538105
_symmetry_space_group_name_H-M "C C C M"
_symmetry_group_IT_number 66
_symmetry_cell_setting 'orthorhombic'
loop_
_space_group_symop_operation_xyz
x,y,z
-x,-y,z
x,-y,1/2-z
-x,y,1/2-z
-x,-y,-z
x,y,-z
-x,y,1/2+z
x,-y,1/2+z
1/2+x,1/2+y,z
1/2-x,1/2-y,z
1/2+x,1/2-y,1/2-z
1/2-x,1/2+y,1/2-z
1/2-x,1/2-y,-z
1/2+x,1/2+y,-z
1/2-x,1/2+y,1/2+z
1/2+x,1/2-y,1/2+z
loop_
_atom_site_type_symbol
_atom_site_label
_atom_site_fract_x
_atom_site_fract_y
_atom_site_fract_z
Si Si1 0.856761 0.500000 0.250000
Si Si2 0.605633 0.520212 0.402274
Si Si3 0.397922 0.643530 0.779296
Si Si4 0.960830 0.606299 0.653906
Si Si5 0.857448 0.264341 0.098819
Si Si6 0.886735 0.376947 0.500000
Si Si7 0.263318 0.602986 0.645402
O O1 0.914421 0.533306 0.328230
O O2 0.797781 0.439512 0.287726
O O3 0.500000 0.500000 0.388219
O O4 0.614124 0.547517 0.500000
O O5 0.633159 0.578136 0.334837
O O6 0.668053 0.453825 0.393739
O O7 0.500000 0.627866 0.750000
O O8 0.402226 0.709261 0.839045
O O9 0.328318 0.652991 0.699717
O O10 0.883750 0.660834 0.629190
O O11 0.000000 0.623823 0.750000
O O12 0.035517 0.610655 0.577756
O O13 0.750000 0.250000 0.101500
O O14 0.889692 0.255426 0.000000
O O15 0.805880 0.368205 0.575180
#
# Coordination Sequence:
#
# PCOD9499617 Si02
#       7
#     8  16  16  16  16   8  16
#     4  12  25  42  75 110 140 194 249 298 380 433
#     4  11  22  39  66 105 150 191 241 307 372 446
#     4  12  24  44  73 104 146 194 245 306 378 449
#     4  12  26  49  75 104 150 198 245 318 375 454
#     4  11  26  49  74 105 138 188 258 310 373 450
#     4  12  28  47  72 109 152 195 258 300 389 456
#     4  12  24  41  70 110 148 192 247 305 376 452
#
# _framework density 21.555896000000001
#
# number of rings (size 3 to 8) (size 9 to 14) (size 15 to 20)
#    0.000    0.333    6.667    2.250    0.000    1.333 
#    1.500    0.000    0.000    4.000    0.000    0.000 
#    0.000    0.000    0.000    0.000    0.000    0.000 
#
# Total GULP energy -267320.922205 kJ/mol
# GULP energy per Si atom -5569.185879 kJ/mol
# Density = 2.150683 g / cm^3
# Si number density = 21.555896 Si / 1000 Ang^3
#
#
#
# Elastic Constant Matrix: (Units=GPa)
#
#
# Indices 1 2 3 4 5 6 
#
# 1 113.9542 18.5464 59.9515 0.0000 0.0000 0.0000
# 2 18.5464 55.4450 25.5970 0.0000 0.0000 0.0000
# 3 59.9515 25.5970 152.7664 0.0000 0.0000 0.0000
# 4 0.0000 0.0000 0.0000 12.8328 0.0000 0.0000
# 5 0.0000 0.0000 0.0000 0.0000 45.5527 0.0000
# 6 0.0000 0.0000 0.0000 0.0000 0.0000 19.4261
#
#
#
# Elastic Compliance Matrix: (Units=1/GPa)
#
#
# Indices 1 2 3 4 5 6 
#
# 1 0.011234 -0.001867 -0.004096 0.000000 0.000000 0.000000
# 2 -0.001867 0.019858 -0.002595 0.000000 0.000000 0.000000
# 3 -0.004096 -0.002595 0.008588 0.000000 0.000000 0.000000
# 4 0.000000 0.000000 0.000000 0.077925 0.000000 0.000000
# 5 0.000000 0.000000 0.000000 0.000000 0.021953 0.000000
# 6 0.000000 0.000000 0.000000 0.000000 0.000000 0.051477
#
#
# Mechanical properties :
#
#
# Convention : Reuss Voigt Hill
#
# Bulk Modulus (GPa) = 44.31554 58.92838 51.62196
# Shear Modulus (GPa) = 23.18333 30.10039 26.64186
#
# Velocity S-wave (km/s) = 3.28304 3.74088 3.51941
# Velocity P-wave (km/s) = 5.91390 6.78644 6.36514
#
# Compressibility (1/GPa) = 0.02256545
#
# Stress axis : x y z
#
# Youngs Moduli (GPa) = 89.01420 50.35681 116.44018
#
# Poissons Ratio (x) = 0.09401 0.47693
# Poissons Ratio (y) = 0.16618 0.30213
# Poissons Ratio (z) = 0.36459 0.13066
#
# Static dielectric constant tensor:
#      x y z
#    x 1.813290 0.000000 0.000000 
#    y 0.000000 1.783910 0.000000 
#    z 0.000000 0.000000 1.777810 
# 
# From -- ./inp_files/28464.got.cif
#   From: 2010.05.17/outbox.cif.g08.bks.cpg/sg66_15_cif.got.tgz:28464.got - 2010.06.03 17:51:23.
