data_PCOD9499353
_publ_section_title
;
Structure prediction by ZEFSAII (Michael W. Deem and Ramdas Pophale) SiO2 
 PCOD9499353
Probable space group: C C C M
;
_chemical_formula_sum "Si O2"
_cell_formula_units_Z 116
_cell_length_a 27.427882
_cell_length_b 27.103866
_cell_length_c 8.992835
_cell_angle_alpha 90.000000
_cell_angle_beta 90.000000
_cell_angle_gamma 90.000000
_cell_volume 6685.288273
_symmetry_space_group_name_H-M "C C C M"
_symmetry_group_IT_number 66
_symmetry_cell_setting 'orthorhombic'
loop_
_space_group_symop_operation_xyz
x,y,z
-x,-y,z
x,-y,1/2-z
-x,y,1/2-z
-x,-y,-z
x,y,-z
-x,y,1/2+z
x,-y,1/2+z
1/2+x,1/2+y,z
1/2-x,1/2-y,z
1/2+x,1/2-y,1/2-z
1/2-x,1/2+y,1/2-z
1/2-x,1/2-y,-z
1/2+x,1/2+y,-z
1/2-x,1/2+y,1/2+z
1/2+x,1/2-y,1/2+z
loop_
_atom_site_type_symbol
_atom_site_label
_atom_site_fract_x
_atom_site_fract_y
_atom_site_fract_z
Si Si1 0.747017 0.634498 0.676694
Si Si2 0.000000 0.000000 0.250000
Si Si3 0.450756 0.204344 0.323147
Si Si4 0.415370 0.687278 0.823774
Si Si5 0.317096 0.714280 0.323578
Si Si6 0.420738 0.578133 0.166115
Si Si7 0.178708 0.052627 0.176695
Si Si8 0.656991 0.182312 0.821688
O O1 0.739522 0.630079 0.500000
O O2 0.724755 0.685961 0.735052
O O3 0.716603 0.592497 0.759449
O O4 0.804989 0.638343 0.706936
O O5 0.963079 0.037633 0.169870
O O6 0.500000 0.185544 0.250000
O O7 0.456051 0.201875 0.500000
O O8 0.443427 0.262560 0.283407
O O9 0.400119 0.177170 0.282913
O O10 0.366919 0.686902 0.724559
O O11 0.439740 0.633818 0.806157
O O12 0.402513 0.692445 0.000000
O O13 0.309152 0.712328 0.500000
O O14 0.324918 0.769612 0.266388
O O15 0.376851 0.565960 0.277137
O O16 0.398799 0.578056 0.000000
O O17 0.189406 0.000000 0.250000
O O18 0.182205 0.050472 0.000000
O O19 0.659168 0.192695 0.000000
#
# Coordination Sequence:
#
# PCOD9499353 Si02
#       8
#    16   4  16  16  16  16  16  16
#     4  11  21  36  57  78 104 141 178 216 267 323
#     4  12  26  36  60  82 102 128 190 248 292 328
#     4   9  18  33  51  74 103 139 179 216 257 309
#     4   9  19  35  52  68  97 139 179 217 268 330
#     4  11  20  30  49  79 109 136 172 220 268 318
#     4  11  23  40  57  74 101 137 178 232 287 333
#     4  12  25  41  61  82 106 136 174 223 276 334
#     4   9  20  36  53  74 107 146 180 213 258 322
#
# _framework density 17.351533
#
# number of rings (size 3 to 8) (size 9 to 14) (size 15 to 20)
#    0.000    1.655    2.069    4.345    0.966    5.517 
#    0.000    0.000    0.000    0.000    0.000    0.000 
#    0.000    0.552    0.000    6.345    0.000    1.931 
#
# Total GULP energy -323543.247888 kJ/mol
# GULP energy per Si atom -5578.331860 kJ/mol
# Density = 1.731204 g / cm^3
# Si number density = 17.351533 Si / 1000 Ang^3
#
#
#
# Elastic Constant Matrix: (Units=GPa)
#
#
# Indices 1 2 3 4 5 6 
#
# 1 126.2739 37.9248 46.7643 0.0000 0.0000 0.0000
# 2 37.9248 42.3177 24.7680 0.0000 0.0000 0.0000
# 3 46.7643 24.7680 81.2531 0.0000 0.0000 0.0000
# 4 0.0000 0.0000 0.0000 -194.9561 0.0000 0.0000
# 5 0.0000 0.0000 0.0000 0.0000 21.5043 0.0000
# 6 0.0000 0.0000 0.0000 0.0000 0.0000 26.8079
#
#
#
# Elastic Compliance Matrix: (Units=1/GPa)
#
#
# Indices 1 2 3 4 5 6 
#
# 1 0.012013 -0.008178 -0.004421 0.000000 0.000000 0.000000
# 2 -0.008178 0.034330 -0.005758 0.000000 0.000000 0.000000
# 3 -0.004421 -0.005758 0.016607 0.000000 0.000000 0.000000
# 4 0.000000 0.000000 0.000000 -0.005129 0.000000 0.000000
# 5 0.000000 0.000000 0.000000 0.000000 0.046502 0.000000
# 6 0.000000 0.000000 0.000000 0.000000 0.000000 0.037302
#
#
# Mechanical properties :
#
#
# Convention : Reuss Voigt Hill
#
# Bulk Modulus (GPa) = 38.11597 52.08432 45.10014
# Shear Modulus (GPa) = 26.72598 -19.96960 3.37819
#
# Velocity S-wave (km/s) = 3.92888 -3.39615 1.39683
# Velocity P-wave (km/s) = 6.52657 3.83456 5.35257
#
# Compressibility (1/GPa) = 0.02623572
#
# Stress axis : x y z
#
# Youngs Moduli (GPa) = 83.24490 29.12902 60.21665
#
# Poissons Ratio (x) = 0.23822 0.26621
# Poissons Ratio (y) = 0.68080 0.34671
# Poissons Ratio (z) = 0.36801 0.16772
#
# Static dielectric constant tensor:
#      x y z
#    x 1.626650 0.000000 0.000000 
#    y 0.000000 1.599620 0.000000 
#    z 0.000000 0.000000 1.591300 
# 
# From -- ./inp_files/10913.got.cif
#   From: 2010.05.17/outbox.cif.g08.bks.cpg/sg66_6_cif.got.tgz:10913.got - 2010.06.03 17:51:23.
