data_PCOD9499130
_publ_section_title
;
Structure prediction by ZEFSAII (Michael W. Deem and Ramdas Pophale) SiO2 
 PCOD9499130
Probable space group: C C C M
;
_chemical_formula_sum "Si O2"
_cell_formula_units_Z 116
_cell_length_a 12.280675
_cell_length_b 26.294546
_cell_length_c 15.741492
_cell_angle_alpha 90.000000
_cell_angle_beta 90.000000
_cell_angle_gamma 90.000000
_cell_volume 5083.160327
_symmetry_space_group_name_H-M "C C C M"
_symmetry_group_IT_number 66
_symmetry_cell_setting 'orthorhombic'
loop_
_space_group_symop_operation_xyz
x,y,z
-x,-y,z
x,-y,1/2-z
-x,y,1/2-z
-x,-y,-z
x,y,-z
-x,y,1/2+z
x,-y,1/2+z
1/2+x,1/2+y,z
1/2-x,1/2-y,z
1/2+x,1/2-y,1/2-z
1/2-x,1/2+y,1/2-z
1/2-x,1/2-y,-z
1/2+x,1/2+y,-z
1/2-x,1/2+y,1/2+z
1/2+x,1/2-y,1/2+z
loop_
_atom_site_type_symbol
_atom_site_label
_atom_site_fract_x
_atom_site_fract_y
_atom_site_fract_z
Si Si1 0.486414 0.941204 0.897917
Si Si2 0.958635 0.726927 0.597058
Si Si3 0.579473 0.659430 0.399469
Si Si4 0.772909 0.598222 0.903510
Si Si5 0.812659 0.637989 0.654386
Si Si6 0.313445 0.197473 0.170252
Si Si7 0.000000 0.000000 0.000000
Si Si8 0.447275 0.572301 0.339186
O O1 0.602647 0.914965 0.881848
O O2 0.389489 0.911032 0.852576
O O3 0.500000 0.000000 0.874174
O O4 0.465566 0.938563 0.000000
O O5 0.996862 0.732228 0.500000
O O6 0.912171 0.781330 0.625727
O O7 0.869720 0.682675 0.600188
O O8 0.061419 0.710350 0.651855
O O9 0.561950 0.657964 0.500000
O O10 0.690842 0.630191 0.377979
O O11 0.482941 0.630876 0.352185
O O12 0.765776 0.659275 0.900174
O O13 0.683682 0.571775 0.843870
O O14 0.752784 0.579944 0.000000
O O15 0.806400 0.662696 0.746684
O O16 0.250000 0.250000 0.177510
O O17 0.989803 0.956763 0.077016
O O18 0.500000 0.555744 0.250000
#
# Coordination Sequence:
#
# PCOD9499130 Si02
#       8
#    16  16  16  16  16  16   4  16
#     4  10  23  45  75 108 143 196 249 309 384 454
#     4  11  23  40  66  99 142 194 249 301 379 461
#     4  11  23  42  69 104 146 193 243 307 374 453
#     4  11  23  46  75 105 149 191 249 318 372 452
#     4  12  24  42  65 105 150 190 247 306 372 456
#     4  12  25  40  66 102 146 197 243 306 381 453
#     4  12  26  52  76 102 146 196 230 326 368 436
#     4  12  26  48  76 109 146 189 254 306 380 455
#
# _framework density 22.820449
#
# number of rings (size 3 to 8) (size 9 to 14) (size 15 to 20)
#    0.000    0.690    2.759    5.172    0.000    5.517 
#    2.483    2.759    0.000    0.000    0.000    0.000 
#    0.000    0.000    0.000    0.000    0.000    0.000 
#
# Total GULP energy -324085.018519 kJ/mol
# GULP energy per Si atom -5587.672733 kJ/mol
# Density = 2.276851 g / cm^3
# Si number density = 22.820449 Si / 1000 Ang^3
#
#
#
# Elastic Constant Matrix: (Units=GPa)
#
#
# Indices 1 2 3 4 5 6 
#
# 1 70.0693 -0.1802 1.2231 0.0000 0.0000 0.0000
# 2 -0.1802 111.7176 2.5090 0.0000 0.0000 0.0000
# 3 1.2231 2.5090 94.3742 0.0000 0.0000 0.0000
# 4 0.0000 0.0000 0.0000 21.2844 0.0000 0.0000
# 5 0.0000 0.0000 0.0000 0.0000 27.2944 0.0000
# 6 0.0000 0.0000 0.0000 0.0000 0.0000 7.3450
#
#
#
# Elastic Compliance Matrix: (Units=1/GPa)
#
#
# Indices 1 2 3 4 5 6 
#
# 1 0.014275 0.000027 -0.000186 0.000000 0.000000 0.000000
# 2 0.000027 0.008957 -0.000238 0.000000 0.000000 0.000000
# 3 -0.000186 -0.000238 0.010605 0.000000 0.000000 0.000000
# 4 0.000000 0.000000 0.000000 0.046983 0.000000 0.000000
# 5 0.000000 0.000000 0.000000 0.000000 0.036637 0.000000
# 6 0.000000 0.000000 0.000000 0.000000 0.000000 0.136147
#
#
# Mechanical properties :
#
#
# Convention : Reuss Voigt Hill
#
# Bulk Modulus (GPa) = 30.26423 31.47388 30.86906
# Shear Modulus (GPa) = 18.83866 29.35871 24.09869
#
# Velocity S-wave (km/s) = 2.87630 3.59068 3.25316
# Velocity P-wave (km/s) = 4.93168 5.56890 5.25995
#
# Compressibility (1/GPa) = 0.03304230
#
# Stress axis : x y z
#
# Youngs Moduli (GPa) = 70.05301 111.65021 94.29633
#
# Poissons Ratio (x) = -0.00304 0.01751
# Poissons Ratio (y) = -0.00190 0.02249
# Poissons Ratio (z) = 0.01301 0.02663
#
# Static dielectric constant tensor:
#      x y z
#    x 1.856490 0.000000 0.000000 
#    y 0.000000 1.856930 0.000000 
#    z 0.000000 0.000000 1.902700 
# 
# From -- ./inp_files/39126.got.cif
#   From: 2010.05.17/outbox.cif.g08.bks.cpg/sg66_20_cif.got.tgz:39126.got - 2010.06.03 17:51:23.
