data_PCOD9499637
_publ_section_title
;
Structure prediction by ZEFSAII (Michael W. Deem and Ramdas Pophale) SiO2 
 PCOD9499637
Probable space group: C C C M
;
_chemical_formula_sum "Si O2"
_cell_formula_units_Z 64
_cell_length_a 22.362983
_cell_length_b 8.279412
_cell_length_c 14.480624
_cell_angle_alpha 90.000000
_cell_angle_beta 90.000000
_cell_angle_gamma 90.000000
_cell_volume 2681.121560
_symmetry_space_group_name_H-M "C C C M"
_symmetry_group_IT_number 66
_symmetry_cell_setting 'orthorhombic'
loop_
_space_group_symop_operation_xyz
x,y,z
-x,-y,z
x,-y,1/2-z
-x,y,1/2-z
-x,-y,-z
x,y,-z
-x,y,1/2+z
x,-y,1/2+z
1/2+x,1/2+y,z
1/2-x,1/2-y,z
1/2+x,1/2-y,1/2-z
1/2-x,1/2+y,1/2-z
1/2-x,1/2-y,-z
1/2+x,1/2+y,-z
1/2-x,1/2+y,1/2+z
1/2+x,1/2-y,1/2+z
loop_
_atom_site_type_symbol
_atom_site_label
_atom_site_fract_x
_atom_site_fract_y
_atom_site_fract_z
Si Si1 0.133828 0.923965 0.893706
Si Si2 0.016746 0.762069 0.854091
Si Si3 0.907298 0.444636 0.395735
Si Si4 0.179108 0.239755 0.214318
O O1 0.061895 0.896841 0.891628
O O2 0.160404 0.795858 0.819946
O O3 0.154928 0.091141 0.848329
O O4 0.153294 0.908168 0.000000
O O5 0.056424 0.597928 0.858166
O O6 0.000000 0.802720 0.750000
O O7 0.955199 0.703132 0.899358
O O8 0.887931 0.481616 0.500000
O O9 0.853384 0.391627 0.331458
O O10 0.250000 0.250000 0.208226
#
# Coordination Sequence:
#
# PCOD9499637 Si02
#       4
#    16  16  16  16
#     4  11  25  47  73 105 139 183 236 291 358 422
#     4  11  22  42  70 105 144 182 230 294 359 421
#     4  11  22  40  70 106 145 187 233 288 354 426
#     4  11  27  48  71 101 144 191 237 294 350 414
#
# _framework density 23.870609000000002
#
# number of rings (size 3 to 8) (size 9 to 14) (size 15 to 20)
#    0.000    1.000    2.500    5.250    0.000    7.500 
#    0.000    2.500    0.000    0.000    0.000    0.000 
#    0.000    0.000    0.000    0.000    0.000    0.000 
#
# Total GULP energy -179170.166202 kJ/mol
# GULP energy per Si atom -5599.067694 kJ/mol
# Density = 2.381628 g / cm^3
# Si number density = 23.870609 Si / 1000 Ang^3
#
#
#
# Elastic Constant Matrix: (Units=GPa)
#
#
# Indices 1 2 3 4 5 6 
#
# 1 168.2388 37.7452 58.6263 0.0000 0.0000 0.0000
# 2 37.7452 81.0862 42.8274 0.0000 0.0000 0.0000
# 3 58.6263 42.8274 203.7463 0.0000 0.0000 0.0000
# 4 0.0000 0.0000 0.0000 -5.3860 0.0000 0.0000
# 5 0.0000 0.0000 0.0000 0.0000 -10.4943 0.0000
# 6 0.0000 0.0000 0.0000 0.0000 0.0000 23.4995
#
#
#
# Elastic Compliance Matrix: (Units=1/GPa)
#
#
# Indices 1 2 3 4 5 6 
#
# 1 0.007022 -0.002477 -0.001500 0.000000 0.000000 0.000000
# 2 -0.002477 0.014746 -0.002387 0.000000 0.000000 0.000000
# 3 -0.001500 -0.002387 0.005841 0.000000 0.000000 0.000000
# 4 0.000000 0.000000 0.000000 -0.185666 0.000000 0.000000
# 5 0.000000 0.000000 0.000000 0.000000 -0.095290 0.000000
# 6 0.000000 0.000000 0.000000 0.000000 0.000000 0.042554
#
#
# Mechanical properties :
#
#
# Convention : Reuss Voigt Hill
#
# Bulk Modulus (GPa) = 67.19244 81.27434 74.23339
# Shear Modulus (GPa) = -25.89275 22.44867 -1.72204
#
# Velocity S-wave (km/s) = -3.29707 3.06997 -0.85028
# Velocity P-wave (km/s) = 3.70344 6.83287 5.49562
#
# Compressibility (1/GPa) = 0.01488263
#
# Stress axis : x y z
#
# Youngs Moduli (GPa) = 142.40393 67.81435 171.19068
#
# Poissons Ratio (x) = 0.16795 0.25679
# Poissons Ratio (y) = 0.35267 0.40864
# Poissons Ratio (z) = 0.21361 0.16187
#
# Static dielectric constant tensor:
#      x y z
#    x 1.874370 0.000000 0.000000 
#    y 0.000000 2.039650 0.000000 
#    z 0.000000 0.000000 1.897780 
# 
# From -- ./inp_files/31896.got.cif
#   From: 2010.05.17/outbox.cif.g08.bks.cpg/sg66_16_cif.got.tgz:31896.got - 2010.06.03 17:51:23.
