data_PCOD9499240
_publ_section_title
;
Structure prediction by ZEFSAII (Michael W. Deem and Ramdas Pophale) SiO2 
 PCOD9499240
Probable space group: C C C M
;
_chemical_formula_sum "Si O2"
_cell_formula_units_Z 64
_cell_length_a 7.613583
_cell_length_b 18.719651
_cell_length_c 20.080513
_cell_angle_alpha 90.000000
_cell_angle_beta 90.000000
_cell_angle_gamma 90.000000
_cell_volume 2861.947336
_symmetry_space_group_name_H-M "C C C M"
_symmetry_group_IT_number 66
_symmetry_cell_setting 'orthorhombic'
loop_
_space_group_symop_operation_xyz
x,y,z
-x,-y,z
x,-y,1/2-z
-x,y,1/2-z
-x,-y,-z
x,y,-z
-x,y,1/2+z
x,-y,1/2+z
1/2+x,1/2+y,z
1/2-x,1/2-y,z
1/2+x,1/2-y,1/2-z
1/2-x,1/2+y,1/2-z
1/2-x,1/2-y,-z
1/2+x,1/2+y,-z
1/2-x,1/2+y,1/2+z
1/2+x,1/2-y,1/2+z
loop_
_atom_site_type_symbol
_atom_site_label
_atom_site_fract_x
_atom_site_fract_y
_atom_site_fract_z
Si Si1 0.873374 0.137210 0.312263
Si Si2 0.066307 0.371409 0.000000
Si Si3 0.051663 0.736074 0.886789
Si Si4 0.000000 0.000000 0.615260
Si Si5 0.000000 0.336552 0.750000
Si Si6 0.750228 0.516137 0.500000
O O1 0.917475 0.060611 0.340633
O O2 0.674506 0.132425 0.285276
O O3 0.000000 0.153024 0.250000
O O4 0.927414 0.195955 0.368585
O O5 0.043472 0.319688 0.936387
O O6 0.913462 0.431089 0.000000
O O7 0.225638 0.428970 0.000000
O O8 0.250000 0.750000 0.913576
O O9 0.080746 0.702807 0.813817
O O10 0.143666 0.033306 0.566275
#
# Coordination Sequence:
#
# PCOD9499240 Si02
#       6
#    16   8  16   8   8   8
#     4  12  25  46  73 107 151 192 250 311 371 450
#     4  11  25  43  75 113 142 206 251 305 381 451
#     4  12  22  43  72 109 152 196 249 312 375 443
#     4  11  25  48  72 102 145 205 246 312 386 440
#     4  12  24  44  73 105 148 194 240 316 376 434
#     4  10  24  47  69 102 154 186 254 316 367 451
#
# _framework density 22.362394999999999
#
# number of rings (size 3 to 8) (size 9 to 14) (size 15 to 20)
#    0.000    0.500    3.750    4.500    0.000    2.000 
#    0.000    5.000    0.000    0.000    0.000    0.000 
#    0.000    0.000    0.000    0.000    0.000    0.000 
#
# Total GULP energy -178586.805868 kJ/mol
# GULP energy per Si atom -5580.837683 kJ/mol
# Density = 2.231150 g / cm^3
# Si number density = 22.362395 Si / 1000 Ang^3
#
#
#
# Elastic Constant Matrix: (Units=GPa)
#
#
# Indices 1 2 3 4 5 6 
#
# 1 157.2319 67.4077 39.1821 0.0000 0.0000 0.0000
# 2 67.4077 118.5202 56.4952 0.0000 0.0000 0.0000
# 3 39.1821 56.4952 110.5550 0.0000 0.0000 0.0000
# 4 0.0000 0.0000 0.0000 106.5406 0.0000 0.0000
# 5 0.0000 0.0000 0.0000 0.0000 33.7414 0.0000
# 6 0.0000 0.0000 0.0000 0.0000 0.0000 32.3338
#
#
#
# Elastic Compliance Matrix: (Units=1/GPa)
#
#
# Indices 1 2 3 4 5 6 
#
# 1 0.008453 -0.004468 -0.000713 0.000000 0.000000 0.000000
# 2 -0.004468 0.013516 -0.005323 0.000000 0.000000 0.000000
# 3 -0.000713 -0.005323 0.012018 0.000000 0.000000 0.000000
# 4 0.000000 0.000000 0.000000 0.009386 0.000000 0.000000
# 5 0.000000 0.000000 0.000000 0.000000 0.029637 0.000000
# 6 0.000000 0.000000 0.000000 0.000000 0.000000 0.030927
#
#
# Mechanical properties :
#
#
# Convention : Reuss Voigt Hill
#
# Bulk Modulus (GPa) = 77.04603 79.16412 78.10508
# Shear Modulus (GPa) = 38.67801 49.40462 44.04132
#
# Velocity S-wave (km/s) = 4.16336 4.70539 4.44265
# Velocity P-wave (km/s) = 7.59207 8.06215 7.83064
#
# Compressibility (1/GPa) = 0.01297925
#
# Stress axis : x y z
#
# Youngs Moduli (GPa) = 118.29970 73.98645 83.20718
#
# Poissons Ratio (x) = 0.33057 0.05930
# Poissons Ratio (y) = 0.52855 0.44294
# Poissons Ratio (z) = 0.08431 0.39386
#
# Static dielectric constant tensor:
#      x y z
#    x 2.220730 0.000000 0.000000 
#    y 0.000000 1.834980 0.000000 
#    z 0.000000 0.000000 1.783840 
# 
# From -- ./inp_files/46684.got.cif
#   From: 2010.05.17/outbox.cif.g08.bks.cpg/sg66_24_cif.got.tgz:46684.got - 2010.06.03 17:51:23.
