data_PCOD9499051
_publ_section_title
;
Structure prediction by ZEFSAII (Michael W. Deem and Ramdas Pophale) SiO2 
 PCOD9499051
Probable space group: C C C M
;
_chemical_formula_sum "Si O2"
_cell_formula_units_Z 40
_cell_length_a 7.423323
_cell_length_b 7.041384
_cell_length_c 28.644446
_cell_angle_alpha 90.000000
_cell_angle_beta 90.000000
_cell_angle_gamma 90.000000
_cell_volume 1497.258592
_symmetry_space_group_name_H-M "C C C M"
_symmetry_group_IT_number 66
_symmetry_cell_setting 'orthorhombic'
loop_
_space_group_symop_operation_xyz
x,y,z
-x,-y,z
x,-y,1/2-z
-x,y,1/2-z
-x,-y,-z
x,y,-z
-x,y,1/2+z
x,-y,1/2+z
1/2+x,1/2+y,z
1/2-x,1/2-y,z
1/2+x,1/2-y,1/2-z
1/2-x,1/2+y,1/2-z
1/2-x,1/2-y,-z
1/2+x,1/2+y,-z
1/2-x,1/2+y,1/2+z
1/2+x,1/2-y,1/2+z
loop_
_atom_site_type_symbol
_atom_site_label
_atom_site_fract_x
_atom_site_fract_y
_atom_site_fract_z
Si Si1 0.500000 0.500000 0.000000
Si Si2 0.500000 0.500000 0.750000
Si Si3 0.207469 0.524809 0.681712
Si Si4 0.207554 0.526136 0.427051
O O1 0.356134 0.566527 0.040655
O O2 0.355240 0.418341 0.713023
O O3 0.250000 0.750000 0.686331
O O4 0.227349 0.474307 0.627267
O O5 0.000000 0.500000 0.695312
O O6 0.250000 0.750000 0.433005
O O7 0.000000 0.500000 0.440901
#
# Coordination Sequence:
#
# PCOD9499051 Si02
#       4
#     4   4  16  16
#     4  12  22  38  68  94 124 174 222 274 332 406
#     4  12  24  36  66  92 124 164 228 270 344 408
#     4  10  24  43  64  92 133 173 220 280 346 410
#     4  10  23  42  61  92 130 169 217 275 335 403
#
# _framework density 26.715494
#
# number of rings (size 3 to 8) (size 9 to 14) (size 15 to 20)
#    0.000    1.600    0.000    3.000    5.600    3.200 
#    0.000   12.000    0.000    0.000    0.000    0.000 
#    0.000    0.000    0.000    0.000    0.000    0.000 
#
# Total GULP energy -111536.880535 kJ/mol
# GULP energy per Si atom -5576.844027 kJ/mol
# Density = 2.665469 g / cm^3
# Si number density = 26.715494 Si / 1000 Ang^3
#
#
#
# Elastic Constant Matrix: (Units=GPa)
#
#
# Indices 1 2 3 4 5 6 
#
# 1 341.1344 58.4540 137.5093 0.0000 0.0000 0.0000
# 2 58.4540 112.7273 -12.7298 0.0000 0.0000 0.0000
# 3 137.5093 -12.7298 196.8905 0.0000 0.0000 0.0000
# 4 0.0000 0.0000 0.0000 -14.3569 0.0000 0.0000
# 5 0.0000 0.0000 0.0000 0.0000 84.5801 0.0000
# 6 0.0000 0.0000 0.0000 0.0000 0.0000 47.5544
#
#
#
# Elastic Compliance Matrix: (Units=1/GPa)
#
#
# Indices 1 2 3 4 5 6 
#
# 1 0.004888 -0.002942 -0.003604 0.000000 0.000000 0.000000
# 2 -0.002942 0.010707 0.002747 0.000000 0.000000 0.000000
# 3 -0.003604 0.002747 0.007774 0.000000 0.000000 0.000000
# 4 0.000000 0.000000 0.000000 -0.069653 0.000000 0.000000
# 5 0.000000 0.000000 0.000000 0.000000 0.011823 0.000000
# 6 0.000000 0.000000 0.000000 0.000000 0.000000 0.021029
#
#
# Mechanical properties :
#
#
# Convention : Reuss Voigt Hill
#
# Bulk Modulus (GPa) = 63.41069 113.02436 88.21752
# Shear Modulus (GPa) = -8659.30398 54.72345 -4302.29027
#
# Velocity S-wave (km/s) = -56.99422 4.53081 -40.17345
# Velocity P-wave (km/s) = 65.63028 8.35282 46.03023
#
# Compressibility (1/GPa) = 0.01577021
#
# Stress axis : x y z
#
# Youngs Moduli (GPa) = 204.56903 93.40029 128.63775
#
# Poissons Ratio (x) = 0.27477 0.46364
# Poissons Ratio (y) = 0.60180 -0.35334
# Poissons Ratio (z) = 0.73731 -0.25655
#
# Static dielectric constant tensor:
#      x y z
#    x 1.967260 0.000000 0.000000 
#    y 0.000000 2.404430 0.000000 
#    z 0.000000 0.000000 2.034760 
# 
# From -- ./inp_files/60732.got.cif
#   From: 2010.05.17/outbox.cif.g08.bks.cpg/sg66_31_cif.got.tgz:60732.got - 2010.06.03 17:51:23.
