data_PCOD9499966
_publ_section_title
;
Structure prediction by ZEFSAII (Michael W. Deem and Ramdas Pophale) SiO2 
 PCOD9499966
Probable space group: C C C M
;
_chemical_formula_sum "Si O2"
_cell_formula_units_Z 88
_cell_length_a 11.822680
_cell_length_b 18.928123
_cell_length_c 19.809668
_cell_angle_alpha 90.000000
_cell_angle_beta 90.000000
_cell_angle_gamma 90.000000
_cell_volume 4433.030112
_symmetry_space_group_name_H-M "C C C M"
_symmetry_group_IT_number 66
_symmetry_cell_setting 'orthorhombic'
loop_
_space_group_symop_operation_xyz
x,y,z
-x,-y,z
x,-y,1/2-z
-x,y,1/2-z
-x,-y,-z
x,y,-z
-x,y,1/2+z
x,-y,1/2+z
1/2+x,1/2+y,z
1/2-x,1/2-y,z
1/2+x,1/2-y,1/2-z
1/2-x,1/2+y,1/2-z
1/2-x,1/2-y,-z
1/2+x,1/2+y,-z
1/2-x,1/2+y,1/2+z
1/2+x,1/2-y,1/2+z
loop_
_atom_site_type_symbol
_atom_site_label
_atom_site_fract_x
_atom_site_fract_y
_atom_site_fract_z
Si Si1 0.250000 0.750000 0.856435
Si Si2 0.273918 0.913110 0.500000
Si Si3 0.635396 0.141436 0.245282
Si Si4 0.849621 0.695697 0.894232
Si Si5 0.967541 0.809597 0.420102
Si Si6 0.596910 0.446535 0.382747
Si Si7 0.274070 0.500000 0.750000
O O1 0.323523 0.802035 0.809585
O O2 0.161807 0.796836 0.899401
O O3 0.347395 0.871570 0.558323
O O4 0.191101 0.943317 0.440174
O O5 0.500000 0.134150 0.250000
O O6 0.672601 0.171305 0.318229
O O7 0.695461 0.066740 0.231161
O O8 0.750000 0.750000 0.916217
O O9 0.964651 0.738281 0.903456
O O10 0.978815 0.824975 0.500000
O O11 0.034261 0.870538 0.379606
O O12 0.500000 0.500000 0.403855
O O13 0.649639 0.473348 0.312421
#
# Coordination Sequence:
#
# PCOD9499966 Si02
#       7
#     8   8  16  16  16  16   8
#     4  12  27  42  68 107 144 190 234 294 360 429
#     4  12  22  40  70 101 135 178 240 286 350 426
#     4  12  25  44  69  96 143 188 234 292 359 426
#     4  12  20  40  71 103 132 180 238 289 345 414
#     4  12  24  44  72 104 145 184 237 297 356 427
#     4  12  25  43  69 100 141 183 229 297 361 424
#     4  12  26  46  68 102 136 184 244 296 360 430
#
# _framework density 19.850981000000001
#
# number of rings (size 3 to 8) (size 9 to 14) (size 15 to 20)
#    0.000    0.000    8.182    2.455    0.000    0.000 
#    0.000    0.000    0.000    1.091    0.000    0.000 
#    0.000    0.000    0.000    0.000    0.000    0.000 
#
# Total GULP energy -244942.243546 kJ/mol
# GULP energy per Si atom -5566.869171 kJ/mol
# Density = 1.980580 g / cm^3
# Si number density = 19.850981 Si / 1000 Ang^3
#
#
#
# Elastic Constant Matrix: (Units=GPa)
#
#
# Indices 1 2 3 4 5 6 
#
# 1 98.0588 49.2907 39.7910 0.0000 0.0000 0.0000
# 2 49.2907 97.4578 40.5102 0.0000 0.0000 0.0000
# 3 39.7910 40.5102 114.3435 0.0000 0.0000 0.0000
# 4 0.0000 0.0000 0.0000 20.3806 0.0000 0.0000
# 5 0.0000 0.0000 0.0000 0.0000 10.1032 0.0000
# 6 0.0000 0.0000 0.0000 0.0000 0.0000 44.1079
#
#
#
# Elastic Compliance Matrix: (Units=1/GPa)
#
#
# Indices 1 2 3 4 5 6 
#
# 1 0.014428 -0.006110 -0.002856 0.000000 0.000000 0.000000
# 2 -0.006110 0.014620 -0.003053 0.000000 0.000000 0.000000
# 3 -0.002856 -0.003053 0.010821 0.000000 0.000000 0.000000
# 4 0.000000 0.000000 0.000000 0.049066 0.000000 0.000000
# 5 0.000000 0.000000 0.000000 0.000000 0.098979 0.000000
# 6 0.000000 0.000000 0.000000 0.000000 0.000000 0.022672
#
#
# Mechanical properties :
#
#
# Convention : Reuss Voigt Hill
#
# Bulk Modulus (GPa) = 63.16985 63.22711 63.19848
# Shear Modulus (GPa) = 20.84177 26.93623 23.88900
#
# Velocity S-wave (km/s) = 3.24375 3.68764 3.47279
# Velocity P-wave (km/s) = 6.77645 7.07471 6.92719
#
# Compressibility (1/GPa) = 0.01583034
#
# Stress axis : x y z
#
# Youngs Moduli (GPa) = 69.30816 68.39786 92.40978
#
# Poissons Ratio (x) = 0.41791 0.26395
# Poissons Ratio (y) = 0.42348 0.28217
# Poissons Ratio (z) = 0.19796 0.20885
#
# Static dielectric constant tensor:
#      x y z
#    x 1.698170 0.000000 0.000000 
#    y 0.000000 1.721460 0.000000 
#    z 0.000000 0.000000 1.720710 
# 
# From -- ./inp_files/48600.got.cif
#   From: 2010.05.17/outbox.cif.g08.bks.cpg/sg66_25_cif.got.tgz:48600.got - 2010.06.03 17:51:23.
