data_PCOD9499128
_publ_section_title
;
Structure prediction by ZEFSAII (Michael W. Deem and Ramdas Pophale) SiO2 
 PCOD9499128
Probable space group: C C C M
;
_chemical_formula_sum "Si O2"
_cell_formula_units_Z 56
_cell_length_a 16.893862
_cell_length_b 9.411066
_cell_length_c 15.082457
_cell_angle_alpha 90.000000
_cell_angle_beta 90.000000
_cell_angle_gamma 90.000000
_cell_volume 2397.948531
_symmetry_space_group_name_H-M "C C C M"
_symmetry_group_IT_number 66
_symmetry_cell_setting 'orthorhombic'
loop_
_space_group_symop_operation_xyz
x,y,z
-x,-y,z
x,-y,1/2-z
-x,y,1/2-z
-x,-y,-z
x,y,-z
-x,y,1/2+z
x,-y,1/2+z
1/2+x,1/2+y,z
1/2-x,1/2-y,z
1/2+x,1/2-y,1/2-z
1/2-x,1/2+y,1/2-z
1/2-x,1/2-y,-z
1/2+x,1/2+y,-z
1/2-x,1/2+y,1/2+z
1/2+x,1/2-y,1/2+z
loop_
_atom_site_type_symbol
_atom_site_label
_atom_site_fract_x
_atom_site_fract_y
_atom_site_fract_z
Si Si1 0.496263 0.172255 0.500000
Si Si2 0.364182 0.500000 0.750000
Si Si3 0.824896 0.356209 0.500000
Si Si4 0.224302 0.593228 0.134077
Si Si5 0.571077 0.788789 0.303709
O O1 0.589016 0.217523 0.500000
O O2 0.452543 0.218908 0.408565
O O3 0.500000 0.000000 0.500000
O O4 0.303995 0.520836 0.831288
O O5 0.415703 0.360528 0.745487
O O6 0.750000 0.250000 0.500000
O O7 0.817282 0.469721 0.420939
O O8 0.250000 0.750000 0.096439
O O9 0.157074 0.639688 0.203332
O O10 0.500000 0.857396 0.250000
#
# Coordination Sequence:
#
# PCOD9499128 Si02
#       5
#     8   8   8  16  16
#     4  12  26  48  74 114 152 207 258 317 400 451
#     4  10  25  44  71 108 144 204 252 306 395 440
#     4  12  27  44  72 110 152 189 265 312 391 460
#     4  10  23  45  73 101 147 200 253 311 385 458
#     4  11  25  47  77 108 157 196 258 320 383 464
#
# _framework density 23.353296
#
# number of rings (size 3 to 8) (size 9 to 14) (size 15 to 20)
#    0.000    1.143    2.857    0.857    8.000    5.143 
#    0.000    2.857    0.000    0.000    0.000    0.000 
#    0.000    0.000    0.000    0.000    0.000    0.000 
#
# Total GULP energy -156209.635127 kJ/mol
# GULP energy per Si atom -5578.915540 kJ/mol
# Density = 2.330014 g / cm^3
# Si number density = 23.353296 Si / 1000 Ang^3
#
#
#
# Elastic Constant Matrix: (Units=GPa)
#
#
# Indices 1 2 3 4 5 6 
#
# 1 159.1900 42.4663 12.9031 0.0000 0.0000 0.0000
# 2 42.4663 159.5872 35.4388 0.0000 0.0000 0.0000
# 3 12.9031 35.4388 74.7246 0.0000 0.0000 0.0000
# 4 0.0000 0.0000 0.0000 11.0308 0.0000 0.0000
# 5 0.0000 0.0000 0.0000 0.0000 30.1123 0.0000
# 6 0.0000 0.0000 0.0000 0.0000 0.0000 -13.7651
#
#
#
# Elastic Compliance Matrix: (Units=1/GPa)
#
#
# Indices 1 2 3 4 5 6 
#
# 1 0.006770 -0.001723 -0.000352 0.000000 0.000000 0.000000
# 2 -0.001723 0.007443 -0.003232 0.000000 0.000000 0.000000
# 3 -0.000352 -0.003232 0.014976 0.000000 0.000000 0.000000
# 4 0.000000 0.000000 0.000000 0.090655 0.000000 0.000000
# 5 0.000000 0.000000 0.000000 0.000000 0.033209 0.000000
# 6 0.000000 0.000000 0.000000 0.000000 0.000000 -0.072648
#
#
# Mechanical properties :
#
#
# Convention : Reuss Voigt Hill
#
# Bulk Modulus (GPa) = 53.83797 63.90203 58.87000
# Shear Modulus (GPa) = 51.43438 25.65516 38.54477
#
# Velocity S-wave (km/s) = 4.69811 3.31806 4.06705
# Velocity P-wave (km/s) = 7.24800 6.48860 6.87879
#
# Compressibility (1/GPa) = 0.01857425
#
# Stress axis : x y z
#
# Youngs Moduli (GPa) = 147.70927 134.36333 66.77329
#
# Poissons Ratio (x) = 0.23157 0.02348
# Poissons Ratio (y) = 0.25457 0.21582
# Poissons Ratio (z) = 0.05195 0.43427
#
# Static dielectric constant tensor:
#      x y z
#    x 1.937220 0.000000 0.000000 
#    y 0.000000 1.925310 0.000000 
#    z 0.000000 0.000000 1.939000 
# 
# From -- ./inp_files/41121.got.cif
#   From: 2010.05.17/outbox.cif.g08.bks.cpg/sg66_21_cif.got.tgz:41121.got - 2010.06.03 17:51:23.
