data_PCOD9499033
_publ_section_title
;
Structure prediction by ZEFSAII (Michael W. Deem and Ramdas Pophale) SiO2 
 PCOD9499033
Probable space group: C C C M
;
_chemical_formula_sum "Si O2"
_cell_formula_units_Z 96
_cell_length_a 21.027849
_cell_length_b 26.621637
_cell_length_c 9.925860
_cell_angle_alpha 90.000000
_cell_angle_beta 90.000000
_cell_angle_gamma 90.000000
_cell_volume 5556.454372
_symmetry_space_group_name_H-M "C C C M"
_symmetry_group_IT_number 66
_symmetry_cell_setting 'orthorhombic'
loop_
_space_group_symop_operation_xyz
x,y,z
-x,-y,z
x,-y,1/2-z
-x,y,1/2-z
-x,-y,-z
x,y,-z
-x,y,1/2+z
x,-y,1/2+z
1/2+x,1/2+y,z
1/2-x,1/2-y,z
1/2+x,1/2-y,1/2-z
1/2-x,1/2+y,1/2-z
1/2-x,1/2-y,-z
1/2+x,1/2+y,-z
1/2-x,1/2+y,1/2+z
1/2+x,1/2-y,1/2+z
loop_
_atom_site_type_symbol
_atom_site_label
_atom_site_fract_x
_atom_site_fract_y
_atom_site_fract_z
Si Si1 0.061637 0.744614 0.152927
Si Si2 0.847259 0.487096 0.500000
Si Si3 0.062979 0.430735 0.500000
Si Si4 0.759242 0.500000 0.250000
Si Si5 0.386017 0.138998 0.270471
Si Si6 0.697187 0.705094 0.338465
Si Si7 0.255797 0.612486 0.334193
Si Si8 0.073886 0.608171 0.500000
O O1 0.095519 0.690035 0.157044
O O2 0.124008 0.778225 0.183773
O O3 0.000000 0.748136 0.250000
O O4 0.040476 0.754875 0.000000
O O5 0.914343 0.513276 0.500000
O O6 0.805929 0.504666 0.375662
O O7 0.865432 0.428860 0.500000
O O8 0.091894 0.404957 0.367933
O O9 0.989371 0.423051 0.500000
O O10 0.727812 0.444917 0.282654
O O11 0.314671 0.127201 0.222276
O O12 0.425495 0.140546 0.133093
O O13 0.705586 0.694045 0.500000
O O14 0.750000 0.750000 0.308791
O O15 0.706233 0.656696 0.242458
O O16 0.260766 0.614610 0.500000
#
# Coordination Sequence:
#
# PCOD9499033 Si02
#       8
#    16   8   8   8  16  16  16   8
#     4  11  24  41  62  90 120 157 199 242 296 361
#     4  12  21  36  52  72 104 150 203 256 300 346
#     4  12  23  32  54  70 103 157 204 246 301 337
#     4  12  22  38  57  82 111 152 200 252 304 360
#     4  12  22  36  53  79 110 151 197 247 296 346
#     4  10  23  41  64  92 122 157 204 250 301 362
#     4  12  24  40  60  85 119 156 200 254 309 358
#     4  12  23  38  44  74 111 149 208 254 293 347
#
# _framework density 17.277204999999999
#
# number of rings (size 3 to 8) (size 9 to 14) (size 15 to 20)
#    0.000    0.500    7.500    1.750    3.500    1.000 
#    0.000    2.500    0.000    0.000    0.000    0.583 
#    0.000    4.000    0.000    0.000    0.000    0.000 
#
# Total GULP energy -267242.738751 kJ/mol
# GULP energy per Si atom -5567.557057 kJ/mol
# Density = 1.723788 g / cm^3
# Si number density = 17.277205 Si / 1000 Ang^3
#
#
#
# Elastic Constant Matrix: (Units=GPa)
#
#
# Indices 1 2 3 4 5 6 
#
# 1 69.7156 45.7356 39.9827 0.0000 0.0000 0.0000
# 2 45.7356 105.1112 39.5847 0.0000 0.0000 0.0000
# 3 39.9827 39.5847 107.6135 0.0000 0.0000 0.0000
# 4 0.0000 0.0000 0.0000 15.7391 0.0000 0.0000
# 5 0.0000 0.0000 0.0000 0.0000 31.5596 0.0000
# 6 0.0000 0.0000 0.0000 0.0000 0.0000 13.4095
#
#
#
# Elastic Compliance Matrix: (Units=1/GPa)
#
#
# Indices 1 2 3 4 5 6 
#
# 1 0.022610 -0.007748 -0.005551 0.000000 0.000000 0.000000
# 2 -0.007748 0.013698 -0.002160 0.000000 0.000000 0.000000
# 3 -0.005551 -0.002160 0.012149 0.000000 0.000000 0.000000
# 4 0.000000 0.000000 0.000000 0.063536 0.000000 0.000000
# 5 0.000000 0.000000 0.000000 0.000000 0.031686 0.000000
# 6 0.000000 0.000000 0.000000 0.000000 0.000000 0.074574
#
#
# Mechanical properties :
#
#
# Convention : Reuss Voigt Hill
#
# Bulk Modulus (GPa) = 57.01003 59.22740 58.11871
# Shear Modulus (GPa) = 19.60645 22.61746 21.11196
#
# Velocity S-wave (km/s) = 3.37236 3.62206 3.49944
# Velocity P-wave (km/s) = 6.94497 7.20052 7.07390
#
# Compressibility (1/GPa) = 0.01754077
#
# Stress axis : x y z
#
# Youngs Moduli (GPa) = 44.22812 73.00110 82.30834
#
# Poissons Ratio (x) = 0.56559 0.45686
# Poissons Ratio (y) = 0.34266 0.17781
# Poissons Ratio (z) = 0.24549 0.15770
#
# Static dielectric constant tensor:
#      x y z
#    x 1.590150 0.000000 0.000000 
#    y 0.000000 1.637670 0.000000 
#    z 0.000000 0.000000 1.610500 
# 
# From -- ./inp_files/9205.got.cif
#   From: 2010.05.17/outbox.cif.g08.bks.cpg/sg66_5_cif.got.tgz:9205.got - 2010.06.03 17:51:23.
