data_PCOD9499450
_publ_section_title
;
Structure prediction by ZEFSAII (Michael W. Deem and Ramdas Pophale) SiO2 
 PCOD9499450
Probable space group: C C C M
;
_chemical_formula_sum "Si O2"
_cell_formula_units_Z 80
_cell_length_a 11.677141
_cell_length_b 22.862579
_cell_length_c 15.991174
_cell_angle_alpha 90.000000
_cell_angle_beta 90.000000
_cell_angle_gamma 90.000000
_cell_volume 4269.156664
_symmetry_space_group_name_H-M "C C C M"
_symmetry_group_IT_number 66
_symmetry_cell_setting 'orthorhombic'
loop_
_space_group_symop_operation_xyz
x,y,z
-x,-y,z
x,-y,1/2-z
-x,y,1/2-z
-x,-y,-z
x,y,-z
-x,y,1/2+z
x,-y,1/2+z
1/2+x,1/2+y,z
1/2-x,1/2-y,z
1/2+x,1/2-y,1/2-z
1/2-x,1/2+y,1/2-z
1/2-x,1/2-y,-z
1/2+x,1/2+y,-z
1/2-x,1/2+y,1/2+z
1/2+x,1/2-y,1/2+z
loop_
_atom_site_type_symbol
_atom_site_label
_atom_site_fract_x
_atom_site_fract_y
_atom_site_fract_z
Si Si1 0.895966 0.425366 0.400455
Si Si2 0.742711 0.333166 0.155495
Si Si3 0.560536 0.753377 0.595882
Si Si4 0.828873 0.699250 0.160075
Si Si5 0.843147 0.553052 0.601692
O O1 0.904335 0.430653 0.500000
O O2 0.835636 0.364708 0.380500
O O3 0.835205 0.485203 0.371961
O O4 0.028498 0.426694 0.371231
O O5 0.622373 0.304721 0.130030
O O6 0.839892 0.302461 0.098256
O O7 0.779620 0.313238 0.247827
O O8 0.754602 0.401991 0.141837
O O9 0.521935 0.746527 0.500000
O O10 0.456631 0.775061 0.652848
O O11 0.750000 0.750000 0.121079
O O12 0.834973 0.556717 0.500000
#
# Coordination Sequence:
#
# PCOD9499450 Si02
#       5
#    16  16  16  16  16
#     4   9  19  33  52  80 113 148 186 231 288 347
#     4  11  21  34  58  82 112 147 190 241 284 326
#     4  11  22  37  56  81 112 154 198 230 276 345
#     4  12  24  36  55  84 124 152 183 235 293 346
#     4   9  17  33  56  80 109 145 189 238 282 339
#
# _framework density 18.739063000000002
#
# number of rings (size 3 to 8) (size 9 to 14) (size 15 to 20)
#    0.000    1.600    4.000    4.800    0.000    2.400 
#    0.000    2.000    0.000    1.200    0.000    7.000 
#    0.000    0.000    0.000    0.000    0.000    0.000 
#
# Total GULP energy -223131.365246 kJ/mol
# GULP energy per Si atom -5578.284131 kJ/mol
# Density = 1.869641 g / cm^3
# Si number density = 18.739063 Si / 1000 Ang^3
#
#
#
# Elastic Constant Matrix: (Units=GPa)
#
#
# Indices 1 2 3 4 5 6 
#
# 1 34.7788 43.9461 5.5594 0.0000 0.0000 0.0000
# 2 43.9461 180.6841 7.1817 0.0000 0.0000 0.0000
# 3 5.5594 7.1817 33.4627 0.0000 0.0000 0.0000
# 4 0.0000 0.0000 0.0000 -225.5293 0.0000 0.0000
# 5 0.0000 0.0000 0.0000 0.0000 13.1142 0.0000
# 6 0.0000 0.0000 0.0000 0.0000 0.0000 34.1626
#
#
#
# Elastic Compliance Matrix: (Units=1/GPa)
#
#
# Indices 1 2 3 4 5 6 
#
# 1 0.042280 -0.010090 -0.004859 0.000000 0.000000 0.000000
# 2 -0.010090 0.007990 -0.000039 0.000000 0.000000 0.000000
# 3 -0.004859 -0.000039 0.030699 0.000000 0.000000 0.000000
# 4 0.000000 0.000000 0.000000 -0.004434 0.000000 0.000000
# 5 0.000000 0.000000 0.000000 0.000000 0.076253 0.000000
# 6 0.000000 0.000000 0.000000 0.000000 0.000000 0.029272
#
#
# Mechanical properties :
#
#
# Convention : Reuss Voigt Hill
#
# Bulk Modulus (GPa) = 19.60990 40.25554 29.93272
# Shear Modulus (GPa) = 21.83090 -22.83462 -0.50186
#
# Velocity S-wave (km/s) = 3.41690 -3.49457 -0.51807
# Velocity P-wave (km/s) = 5.10435 2.29043 3.95604
#
# Compressibility (1/GPa) = 0.05099466
#
# Stress axis : x y z
#
# Youngs Moduli (GPa) = 23.65204 125.15355 32.57387
#
# Poissons Ratio (x) = 1.26282 0.15827
# Poissons Ratio (y) = 0.23865 0.00125
# Poissons Ratio (z) = 0.11492 0.00482
#
# Static dielectric constant tensor:
#      x y z
#    x 1.642770 0.000000 0.000000 
#    y 0.000000 1.701930 0.000000 
#    z 0.000000 0.000000 1.696540 
# 
# From -- ./inp_files/26371.got.cif
#   From: 2010.05.17/outbox.cif.g08.bks.cpg/sg66_14_cif.got.tgz:26371.got - 2010.06.03 17:51:23.
