data_PCOD9499455
_publ_section_title
;
Structure prediction by ZEFSAII (Michael W. Deem and Ramdas Pophale) SiO2 
 PCOD9499455
Probable space group: C C C M
;
_chemical_formula_sum "Si O2"
_cell_formula_units_Z 88
_cell_length_a 11.953276
_cell_length_b 18.838913
_cell_length_c 18.732106
_cell_angle_alpha 90.000000
_cell_angle_beta 90.000000
_cell_angle_gamma 90.000000
_cell_volume 4218.221633
_symmetry_space_group_name_H-M "C C C M"
_symmetry_group_IT_number 66
_symmetry_cell_setting 'orthorhombic'
loop_
_space_group_symop_operation_xyz
x,y,z
-x,-y,z
x,-y,1/2-z
-x,y,1/2-z
-x,-y,-z
x,y,-z
-x,y,1/2+z
x,-y,1/2+z
1/2+x,1/2+y,z
1/2-x,1/2-y,z
1/2+x,1/2-y,1/2-z
1/2-x,1/2+y,1/2-z
1/2-x,1/2-y,-z
1/2+x,1/2+y,-z
1/2-x,1/2+y,1/2+z
1/2+x,1/2-y,1/2+z
loop_
_atom_site_type_symbol
_atom_site_label
_atom_site_fract_x
_atom_site_fract_y
_atom_site_fract_z
Si Si1 0.291274 0.071792 0.883900
Si Si2 0.753346 0.500000 0.250000
Si Si3 0.601147 0.198826 0.000000
Si Si4 0.394082 0.630393 0.195928
Si Si5 0.750000 0.750000 0.632245
Si Si6 0.374675 0.030572 0.500000
Si Si7 0.044058 0.919623 0.419403
Si Si8 0.846517 0.310274 0.500000
O O1 0.159340 0.085902 0.877278
O O2 0.337361 0.137789 0.930144
O O3 0.326443 0.046422 0.805570
O O4 0.310916 0.002791 0.932902
O O5 0.671435 0.442656 0.212458
O O6 0.658260 0.222689 0.074435
O O7 0.615569 0.113909 0.000000
O O8 0.471206 0.220084 0.000000
O O9 0.500000 0.639917 0.250000
O O10 0.304592 0.692343 0.185362
O O11 0.449956 0.625061 0.118181
O O12 0.500000 0.000000 0.500000
O O13 0.068238 0.898397 0.500000
O O14 0.000000 0.000000 0.419176
O O15 0.750000 0.250000 0.500000
#
# Coordination Sequence:
#
# PCOD9499455 Si02
#       8
#    16   8   8  16   8   8  16   8
#     4  11  22  40  68 102 132 178 232 294 358 418
#     4  12  23  44  71 100 140 178 229 298 367 420
#     4  11  25  49  72  97 150 182 243 302 361 427
#     4  12  24  46  69 101 146 183 232 292 362 427
#     4  11  30  44  70 106 137 202 230 290 367 442
#     4  11  21  45  70  97 129 172 236 295 350 407
#     4  11  21  34  66 105 128 163 228 298 348 403
#     4  11  26  45  70 108 140 192 249 301 356 427
#
# _framework density 20.861872000000002
#
# number of rings (size 3 to 8) (size 9 to 14) (size 15 to 20)
#    0.000    0.727    7.273    1.364    5.091    0.000 
#    4.909    0.455    0.000    0.000    0.000    0.000 
#    0.000    0.000    0.000    0.000    0.000    0.000 
#
# Total GULP energy -245540.394325 kJ/mol
# GULP energy per Si atom -5580.463507 kJ/mol
# Density = 2.081439 g / cm^3
# Si number density = 20.861872 Si / 1000 Ang^3
#
#
#
# Elastic Constant Matrix: (Units=GPa)
#
#
# Indices 1 2 3 4 5 6 
#
# 1 80.4730 43.3889 4.2877 0.0000 0.0000 0.0000
# 2 43.3889 122.6408 25.2269 0.0000 0.0000 0.0000
# 3 4.2877 25.2269 82.1179 0.0000 0.0000 0.0000
# 4 0.0000 0.0000 0.0000 5.7852 0.0000 0.0000
# 5 0.0000 0.0000 0.0000 0.0000 22.6201 0.0000
# 6 0.0000 0.0000 0.0000 0.0000 0.0000 39.4592
#
#
#
# Elastic Compliance Matrix: (Units=1/GPa)
#
#
# Indices 1 2 3 4 5 6 
#
# 1 0.015422 -0.005647 0.000930 0.000000 0.000000 0.000000
# 2 -0.005647 0.010772 -0.003014 0.000000 0.000000 0.000000
# 3 0.000930 -0.003014 0.013055 0.000000 0.000000 0.000000
# 4 0.000000 0.000000 0.000000 0.172856 0.000000 0.000000
# 5 0.000000 0.000000 0.000000 0.000000 0.044209 0.000000
# 6 0.000000 0.000000 0.000000 0.000000 0.000000 0.025343
#
#
# Mechanical properties :
#
#
# Convention : Reuss Voigt Hill
#
# Bulk Modulus (GPa) = 42.04348 47.89319 44.96834
# Shear Modulus (GPa) = 16.39084 27.72809 22.05947
#
# Velocity S-wave (km/s) = 2.80605 3.64968 3.25531
# Velocity P-wave (km/s) = 5.54036 6.38493 5.97758
#
# Compressibility (1/GPa) = 0.02378490
#
# Stress axis : x y z
#
# Youngs Moduli (GPa) = 64.84300 92.83432 76.59855
#
# Poissons Ratio (x) = 0.52426 -0.07121
# Poissons Ratio (y) = 0.36619 0.23089
# Poissons Ratio (z) = -0.06028 0.27983
#
# Static dielectric constant tensor:
#      x y z
#    x 1.800980 0.000000 0.000000 
#    y 0.000000 1.758980 0.000000 
#    z 0.000000 0.000000 1.766250 
# 
# From -- ./inp_files/48619.got.cif
#   From: 2010.05.17/outbox.cif.g08.bks.cpg/sg66_25_cif.got.tgz:48619.got - 2010.06.03 17:51:23.
