data_PCOD9499210
_publ_section_title
;
Structure prediction by ZEFSAII (Michael W. Deem and Ramdas Pophale) SiO2 
 PCOD9499210
Probable space group: C C C M
;
_chemical_formula_sum "Si O2"
_cell_formula_units_Z 52
_cell_length_a 16.791353
_cell_length_b 9.430097
_cell_length_c 14.416719
_cell_angle_alpha 90.000000
_cell_angle_beta 90.000000
_cell_angle_gamma 90.000000
_cell_volume 2282.802216
_symmetry_space_group_name_H-M "C C C M"
_symmetry_group_IT_number 66
_symmetry_cell_setting 'orthorhombic'
loop_
_space_group_symop_operation_xyz
x,y,z
-x,-y,z
x,-y,1/2-z
-x,y,1/2-z
-x,-y,-z
x,y,-z
-x,y,1/2+z
x,-y,1/2+z
1/2+x,1/2+y,z
1/2-x,1/2-y,z
1/2+x,1/2-y,1/2-z
1/2-x,1/2+y,1/2-z
1/2-x,1/2-y,-z
1/2+x,1/2+y,-z
1/2-x,1/2+y,1/2+z
1/2+x,1/2-y,1/2+z
loop_
_atom_site_type_symbol
_atom_site_label
_atom_site_fract_x
_atom_site_fract_y
_atom_site_fract_z
Si Si1 0.500000 0.000000 0.750000
Si Si2 0.910347 0.035261 0.859070
Si Si3 0.750479 0.401591 0.395878
Si Si4 0.121233 0.637134 0.109607
O O1 0.553689 0.090741 0.818902
O O2 0.878703 0.193621 0.878678
O O3 0.910226 0.000000 0.750000
O O4 0.841750 0.938948 0.900571
O O5 0.000000 0.000000 0.891973
O O6 0.782851 0.376591 0.500000
O O7 0.750000 0.250000 0.343730
O O8 0.802258 0.538138 0.364395
O O9 0.104011 0.612065 0.000000
#
# Coordination Sequence:
#
# PCOD9499210 Si02
#       4
#     4  16  16  16
#     4  12  26  44  74 110 142 188 240 308 352 442
#     4  11  25  43  69 105 143 189 242 297 358 427
#     4  10  24  44  69 101 140 187 239 297 366 435
#     4  11  26  47  73 105 148 194 242 302 370 437
#
# _framework density 22.779019999999999
#
# number of rings (size 3 to 8) (size 9 to 14) (size 15 to 20)
#    0.000    1.231    0.000    4.154   10.769    4.923 
#    0.000    0.000    0.000    0.000    0.000    0.000 
#    0.000    0.000    0.000    0.000    0.000    0.000 
#
# Total GULP energy -145011.314245 kJ/mol
# GULP energy per Si atom -5577.358240 kJ/mol
# Density = 2.272717 g / cm^3
# Si number density = 22.779020 Si / 1000 Ang^3
#
#
#
# Elastic Constant Matrix: (Units=GPa)
#
#
# Indices 1 2 3 4 5 6 
#
# 1 153.6195 87.7969 27.7079 0.0000 0.0000 0.0000
# 2 87.7969 188.1698 18.6150 0.0000 0.0000 0.0000
# 3 27.7079 18.6150 124.2072 0.0000 0.0000 0.0000
# 4 0.0000 0.0000 0.0000 35.4693 0.0000 0.0000
# 5 0.0000 0.0000 0.0000 0.0000 35.7176 0.0000
# 6 0.0000 0.0000 0.0000 0.0000 0.0000 11.1460
#
#
#
# Elastic Compliance Matrix: (Units=1/GPa)
#
#
# Indices 1 2 3 4 5 6 
#
# 1 0.009116 -0.004113 -0.001417 0.000000 0.000000 0.000000
# 2 -0.004113 0.007250 -0.000169 0.000000 0.000000 0.000000
# 3 -0.001417 -0.000169 0.008393 0.000000 0.000000 0.000000
# 4 0.000000 0.000000 0.000000 0.028193 0.000000 0.000000
# 5 0.000000 0.000000 0.000000 0.000000 0.027997 0.000000
# 6 0.000000 0.000000 0.000000 0.000000 0.000000 0.089718
#
#
# Mechanical properties :
#
#
# Convention : Reuss Voigt Hill
#
# Bulk Modulus (GPa) = 74.85011 81.58181 78.21596
# Shear Modulus (GPa) = 26.80684 38.59168 32.69926
#
# Velocity S-wave (km/s) = 3.43420 4.12050 3.79291
# Velocity P-wave (km/s) = 6.97536 7.65051 7.32072
#
# Compressibility (1/GPa) = 0.01336003
#
# Stress axis : x y z
#
# Youngs Moduli (GPa) = 109.69775 137.92711 119.15358
#
# Poissons Ratio (x) = 0.56732 0.16886
# Poissons Ratio (y) = 0.45120 0.02014
# Poissons Ratio (z) = 0.15546 0.02331
#
# Static dielectric constant tensor:
#      x y z
#    x 1.840220 0.000000 0.000000 
#    y 0.000000 2.044880 0.000000 
#    z 0.000000 0.000000 1.921380 
# 
# From -- ./inp_files/35952.got.cif
#   From: 2010.05.17/outbox.cif.g08.bks.cpg/sg66_18_cif.got.tgz:35952.got - 2010.06.03 17:51:23.
