data_PCOD9499472
_publ_section_title
;
Structure prediction by ZEFSAII (Michael W. Deem and Ramdas Pophale) SiO2 
 PCOD9499472
Probable space group: C C C M
;
_chemical_formula_sum "Si O2"
_cell_formula_units_Z 96
_cell_length_a 10.162165
_cell_length_b 22.798978
_cell_length_c 22.881792
_cell_angle_alpha 90.000000
_cell_angle_beta 90.000000
_cell_angle_gamma 90.000000
_cell_volume 5301.413200
_symmetry_space_group_name_H-M "C C C M"
_symmetry_group_IT_number 66
_symmetry_cell_setting 'orthorhombic'
loop_
_space_group_symop_operation_xyz
x,y,z
-x,-y,z
x,-y,1/2-z
-x,y,1/2-z
-x,-y,-z
x,y,-z
-x,y,1/2+z
x,-y,1/2+z
1/2+x,1/2+y,z
1/2-x,1/2-y,z
1/2+x,1/2-y,1/2-z
1/2-x,1/2+y,1/2-z
1/2-x,1/2-y,-z
1/2+x,1/2+y,-z
1/2-x,1/2+y,1/2+z
1/2+x,1/2-y,1/2+z
loop_
_atom_site_type_symbol
_atom_site_label
_atom_site_fract_x
_atom_site_fract_y
_atom_site_fract_z
Si Si1 0.025675 0.174740 0.627036
Si Si2 0.285043 0.867298 0.813559
Si Si3 0.229678 0.121366 0.175898
Si Si4 0.410628 0.816451 0.000000
Si Si5 0.108072 0.174249 0.500000
Si Si6 0.848395 0.497318 0.820837
Si Si7 0.530667 0.187535 0.624660
O O1 0.169723 0.168659 0.655240
O O2 0.039113 0.155356 0.559679
O O3 0.920153 0.136238 0.661530
O O4 0.980516 0.242349 0.628761
O O5 0.260152 0.868373 0.744326
O O6 0.286175 0.934638 0.835632
O O7 0.425893 0.840274 0.830157
O O8 0.325783 0.164113 0.139998
O O9 0.269048 0.054713 0.160499
O O10 0.262633 0.841465 0.000000
O O11 0.396980 0.745497 0.000000
O O12 0.485394 0.831394 0.059713
O O13 0.852649 0.500000 0.750000
O O14 0.000000 0.500000 0.841280
#
# Coordination Sequence:
#
# PCOD9499472 Si02
#       7
#    16  16  16   8   8  16  16
#     4  11  23  36  56  86 117 148 182 229 286 334
#     4  11  21  36  60  83 112 153 187 225 276 338
#     4  11  23  36  55  87 119 145 180 233 289 329
#     4   9  18  35  59  80 102 151 206 221 253 337
#     4   9  18  37  57  76 109 152 194 227 262 333
#     4   9  18  36  58  78 106 151 197 224 260 331
#     4  11  21  36  59  84 113 150 188 229 275 332
#
# _framework density 18.108378999999999
#
# number of rings (size 3 to 8) (size 9 to 14) (size 15 to 20)
#    0.000    1.667    3.333    2.000    0.000    5.333 
#    0.000    5.000    0.000    6.000    0.000    0.000 
#    0.000    0.000    0.000    0.000    0.000    0.000 
#
# Total GULP energy -267968.221835 kJ/mol
# GULP energy per Si atom -5582.671288 kJ/mol
# Density = 1.806716 g / cm^3
# Si number density = 18.108379 Si / 1000 Ang^3
#
#
#
# Elastic Constant Matrix: (Units=GPa)
#
#
# Indices 1 2 3 4 5 6 
#
# 1 31.1429 -8.4253 -7.8631 0.0000 0.0000 0.0000
# 2 -8.4253 60.3975 -2.3540 0.0000 0.0000 0.0000
# 3 -7.8631 -2.3540 69.8740 0.0000 0.0000 0.0000
# 4 0.0000 0.0000 0.0000 -15.2350 0.0000 0.0000
# 5 0.0000 0.0000 0.0000 0.0000 -10.7258 0.0000
# 6 0.0000 0.0000 0.0000 0.0000 0.0000 12.8382
#
#
#
# Elastic Compliance Matrix: (Units=1/GPa)
#
#
# Indices 1 2 3 4 5 6 
#
# 1 0.034476 0.004967 0.004047 0.000000 0.000000 0.000000
# 2 0.004967 0.017294 0.001142 0.000000 0.000000 0.000000
# 3 0.004047 0.001142 0.014805 0.000000 0.000000 0.000000
# 4 0.000000 0.000000 0.000000 -0.065638 0.000000 0.000000
# 5 0.000000 0.000000 0.000000 0.000000 -0.093233 0.000000
# 6 0.000000 0.000000 0.000000 0.000000 0.000000 0.077892
#
#
# Mechanical properties :
#
#
# Convention : Reuss Voigt Hill
#
# Bulk Modulus (GPa) = 11.50932 13.79220 12.65076
# Shear Modulus (GPa) = -869.21849 9.37925 -429.91962
#
# Velocity S-wave (km/s) = -21.93288 2.27832 -15.42498
# Velocity P-wave (km/s) = 25.19984 3.81497 17.61360
#
# Compressibility (1/GPa) = 0.08688614
#
# Stress axis : x y z
#
# Youngs Moduli (GPa) = 29.00608 57.82236 67.54322
#
# Poissons Ratio (x) = -0.28720 -0.27334
# Poissons Ratio (y) = -0.14407 -0.07711
# Poissons Ratio (z) = -0.11739 -0.06601
#
# Static dielectric constant tensor:
#      x y z
#    x 1.591180 0.000000 0.000000 
#    y 0.000000 1.621260 0.000000 
#    z 0.000000 0.000000 1.620520 
# 
# From -- ./inp_files/55702.got.cif
#   From: 2010.05.17/outbox.cif.g08.bks.cpg/sg66_28_cif.got.tgz:55702.got - 2010.06.03 17:51:23.
