data_PCOD9499653
_publ_section_title
;
Structure prediction by ZEFSAII (Michael W. Deem and Ramdas Pophale) SiO2 
 PCOD9499653
Probable space group: C C C M
;
_chemical_formula_sum "Si O2"
_cell_formula_units_Z 52
_cell_length_a 13.651554
_cell_length_b 14.407863
_cell_length_c 13.504769
_cell_angle_alpha 90.000000
_cell_angle_beta 90.000000
_cell_angle_gamma 90.000000
_cell_volume 2656.249230
_symmetry_space_group_name_H-M "C C C M"
_symmetry_group_IT_number 66
_symmetry_cell_setting 'orthorhombic'
loop_
_space_group_symop_operation_xyz
x,y,z
-x,-y,z
x,-y,1/2-z
-x,y,1/2-z
-x,-y,-z
x,y,-z
-x,y,1/2+z
x,-y,1/2+z
1/2+x,1/2+y,z
1/2-x,1/2-y,z
1/2+x,1/2-y,1/2-z
1/2-x,1/2+y,1/2-z
1/2-x,1/2-y,-z
1/2+x,1/2+y,-z
1/2-x,1/2+y,1/2+z
1/2+x,1/2-y,1/2+z
loop_
_atom_site_type_symbol
_atom_site_label
_atom_site_fract_x
_atom_site_fract_y
_atom_site_fract_z
Si Si1 0.026620 0.207717 0.000000
Si Si2 0.726878 0.598830 0.000000
Si Si3 0.686884 0.618982 0.500000
Si Si4 0.118913 0.334536 0.840111
Si Si5 0.750000 0.250000 0.825490
Si Si6 0.500000 0.000000 0.750000
O O1 0.043510 0.273393 0.904575
O O2 0.119103 0.140160 0.000000
O O3 0.927045 0.149875 0.000000
O O4 0.714465 0.488580 0.000000
O O5 0.787698 0.638408 0.092789
O O6 0.729431 0.665528 0.599602
O O7 0.160231 0.278903 0.745737
O O8 0.067260 0.430485 0.812265
#
# Coordination Sequence:
#
# PCOD9499653 Si02
#       6
#     8   8   8  16   8   4
#     4  11  22  43  64  91 124 177 204 260 310 391
#     4  11  22  43  64  91 124 177 204 260 310 391
#     4  11  25  36  66  96 131 151 228 258 314 358
#     4  11  22  42  67  87 130 167 210 252 332 368
#     4  11  22  45  62  92 128 179 190 275 324 374
#     4  12  24  34  64 104 120 154 224 270 296 392
#
# _framework density 19.576477000000001
#
# number of rings (size 3 to 8) (size 9 to 14) (size 15 to 20)
#    0.000    0.923    3.077    5.077    0.000    4.923 
#    0.000    0.000    6.769    0.000    0.000    0.000 
#    0.000    0.000    0.000    0.000    0.000    0.000 
#
# Total GULP energy -145337.214280 kJ/mol
# GULP energy per Si atom -5589.892857 kJ/mol
# Density = 1.953192 g / cm^3
# Si number density = 19.576477 Si / 1000 Ang^3
#
#
#
# Elastic Constant Matrix: (Units=GPa)
#
#
# Indices 1 2 3 4 5 6 
#
# 1 47.9453 -1.6199 25.4981 0.0000 0.0000 0.0000
# 2 -1.6199 115.7137 38.4276 0.0000 0.0000 0.0000
# 3 25.4981 38.4276 119.1948 0.0000 0.0000 0.0000
# 4 0.0000 0.0000 0.0000 93.4107 0.0000 0.0000
# 5 0.0000 0.0000 0.0000 0.0000 30.7742 0.0000
# 6 0.0000 0.0000 0.0000 0.0000 0.0000 46.5790
#
#
#
# Elastic Compliance Matrix: (Units=1/GPa)
#
#
# Indices 1 2 3 4 5 6 
#
# 1 0.024065 0.002292 -0.005887 0.000000 0.000000 0.000000
# 2 0.002292 0.009896 -0.003681 0.000000 0.000000 0.000000
# 3 -0.005887 -0.003681 0.010836 0.000000 0.000000 0.000000
# 4 0.000000 0.000000 0.000000 0.010705 0.000000 0.000000
# 5 0.000000 0.000000 0.000000 0.000000 0.032495 0.000000
# 6 0.000000 0.000000 0.000000 0.000000 0.000000 0.021469
#
#
# Mechanical properties :
#
#
# Convention : Reuss Voigt Hill
#
# Bulk Modulus (GPa) = 33.06257 45.27393 39.16825
# Shear Modulus (GPa) = 37.28556 48.85598 43.07077
#
# Velocity S-wave (km/s) = 4.36892 5.00107 4.69564
# Velocity P-wave (km/s) = 6.50965 7.51827 7.03207
#
# Compressibility (1/GPa) = 0.03024568
#
# Stress axis : x y z
#
# Youngs Moduli (GPa) = 41.55359 101.04597 92.28799
#
# Poissons Ratio (x) = -0.23159 0.54329
# Poissons Ratio (y) = -0.09524 0.33970
# Poissons Ratio (z) = 0.24462 0.37193
#
# Static dielectric constant tensor:
#      x y z
#    x 1.693490 0.000000 0.000000 
#    y 0.000000 1.647580 0.000000 
#    z 0.000000 0.000000 1.632120 
# 
# From -- ./inp_files/25459.got.cif
#   From: 2010.05.17/outbox.cif.g08.bks.cpg/sg66_13_cif.got.tgz:25459.got - 2010.06.03 17:51:23.
