data_PCOD9499652
_publ_section_title
;
Structure prediction by ZEFSAII (Michael W. Deem and Ramdas Pophale) SiO2 
 PCOD9499652
Probable space group: C C C M
;
_chemical_formula_sum "Si O2"
_cell_formula_units_Z 80
_cell_length_a 16.740589
_cell_length_b 7.500953
_cell_length_c 27.323676
_cell_angle_alpha 90.000000
_cell_angle_beta 90.000000
_cell_angle_gamma 90.000000
_cell_volume 3431.044140
_symmetry_space_group_name_H-M "C C C M"
_symmetry_group_IT_number 66
_symmetry_cell_setting 'orthorhombic'
loop_
_space_group_symop_operation_xyz
x,y,z
-x,-y,z
x,-y,1/2-z
-x,y,1/2-z
-x,-y,-z
x,y,-z
-x,y,1/2+z
x,-y,1/2+z
1/2+x,1/2+y,z
1/2-x,1/2-y,z
1/2+x,1/2-y,1/2-z
1/2-x,1/2+y,1/2-z
1/2-x,1/2-y,-z
1/2+x,1/2+y,-z
1/2-x,1/2+y,1/2+z
1/2+x,1/2-y,1/2+z
loop_
_atom_site_type_symbol
_atom_site_label
_atom_site_fract_x
_atom_site_fract_y
_atom_site_fract_z
Si Si1 0.917969 0.391352 0.306944
Si Si2 0.588886 0.425434 0.118764
Si Si3 0.157677 0.747379 0.785927
Si Si4 0.332976 0.850438 0.057302
Si Si5 0.837950 0.266011 0.398289
O O1 0.898604 0.259357 0.262120
O O2 0.852930 0.548321 0.306893
O O3 0.905144 0.299079 0.357848
O O4 0.000000 0.500000 0.302957
O O5 0.500000 0.500000 0.124270
O O6 0.629687 0.383953 0.171888
O O7 0.597736 0.240033 0.089602
O O8 0.637793 0.568289 0.085388
O O9 0.250000 0.750000 0.771668
O O10 0.250000 0.750000 0.072450
O O11 0.332596 0.062980 0.066964
O O12 0.344434 0.818007 0.000000
O O13 0.750000 0.250000 0.375078
#
# Coordination Sequence:
#
# PCOD9499652 Si02
#       5
#    16  16  16  16  16
#     4  11  24  43  69 100 143 195 238 295 358 423
#     4  12  26  44  72 107 148 192 242 300 363 437
#     4  11  22  42  66  96 141 189 243 289 347 420
#     4  11  25  49  77 107 145 184 241 314 373 439
#     4  12  24  43  76 108 141 193 246 294 367 447
#
# _framework density 23.316516
#
# number of rings (size 3 to 8) (size 9 to 14) (size 15 to 20)
#    0.000    0.600    4.000    4.800    0.000    4.000 
#    0.000    2.000    0.000    0.000    0.000    0.000 
#    0.000    0.000    0.000    0.000    0.000    0.000 
#
# Total GULP energy -223361.642175 kJ/mol
# GULP energy per Si atom -5584.041054 kJ/mol
# Density = 2.326345 g / cm^3
# Si number density = 23.316516 Si / 1000 Ang^3
#
#
#
# Elastic Constant Matrix: (Units=GPa)
#
#
# Indices 1 2 3 4 5 6 
#
# 1 146.5547 24.5879 36.6467 0.0000 0.0000 0.0000
# 2 24.5879 105.5569 15.7428 0.0000 0.0000 0.0000
# 3 36.6467 15.7428 77.2435 0.0000 0.0000 0.0000
# 4 0.0000 0.0000 0.0000 24.4926 0.0000 0.0000
# 5 0.0000 0.0000 0.0000 0.0000 14.1879 0.0000
# 6 0.0000 0.0000 0.0000 0.0000 0.0000 44.8586
#
#
#
# Elastic Compliance Matrix: (Units=1/GPa)
#
#
# Indices 1 2 3 4 5 6 
#
# 1 0.007917 -0.001324 -0.003486 0.000000 0.000000 0.000000
# 2 -0.001324 0.009992 -0.001408 0.000000 0.000000 0.000000
# 3 -0.003486 -0.001408 0.014887 0.000000 0.000000 0.000000
# 4 0.000000 0.000000 0.000000 0.040829 0.000000 0.000000
# 5 0.000000 0.000000 0.000000 0.000000 0.070482 0.000000
# 6 0.000000 0.000000 0.000000 0.000000 0.000000 0.022292
#
#
# Mechanical properties :
#
#
# Convention : Reuss Voigt Hill
#
# Bulk Modulus (GPa) = 49.11855 53.70111 51.40983
# Shear Modulus (GPa) = 26.93621 33.53301 30.23461
#
# Velocity S-wave (km/s) = 3.40257 3.79643 3.60488
# Velocity P-wave (km/s) = 6.04553 6.50373 6.27881
#
# Compressibility (1/GPa) = 0.02035891
#
# Stress axis : x y z
#
# Youngs Moduli (GPa) = 126.30500 100.07959 67.17226
#
# Poissons Ratio (x) = 0.13253 0.23419
# Poissons Ratio (y) = 0.16726 0.09459
# Poissons Ratio (z) = 0.44034 0.14093
#
# Static dielectric constant tensor:
#      x y z
#    x 1.925760 0.000000 0.000000 
#    y 0.000000 1.987570 0.000000 
#    z 0.000000 0.000000 1.862290 
# 
# From -- ./inp_files/65048.got.cif
#   From: 2010.05.17/outbox.cif.g08.bks.cpg/sg66_33_cif.got.tgz:65048.got - 2010.06.03 17:51:23.
