data_PCOD9499497
_publ_section_title
;
Structure prediction by ZEFSAII (Michael W. Deem and Ramdas Pophale) SiO2 
 PCOD9499497
Probable space group: C C C M
;
_chemical_formula_sum "Si O2"
_cell_formula_units_Z 80
_cell_length_a 9.131538
_cell_length_b 17.860515
_cell_length_c 25.123277
_cell_angle_alpha 90.000000
_cell_angle_beta 90.000000
_cell_angle_gamma 90.000000
_cell_volume 4097.455021
_symmetry_space_group_name_H-M "C C C M"
_symmetry_group_IT_number 66
_symmetry_cell_setting 'orthorhombic'
loop_
_space_group_symop_operation_xyz
x,y,z
-x,-y,z
x,-y,1/2-z
-x,y,1/2-z
-x,-y,-z
x,y,-z
-x,y,1/2+z
x,-y,1/2+z
1/2+x,1/2+y,z
1/2-x,1/2-y,z
1/2+x,1/2-y,1/2-z
1/2-x,1/2+y,1/2-z
1/2-x,1/2-y,-z
1/2+x,1/2+y,-z
1/2-x,1/2+y,1/2+z
1/2+x,1/2-y,1/2+z
loop_
_atom_site_type_symbol
_atom_site_label
_atom_site_fract_x
_atom_site_fract_y
_atom_site_fract_z
Si Si1 0.288689 0.631387 0.000000
Si Si2 0.069258 0.917451 0.892663
Si Si3 0.889719 0.300472 0.793667
Si Si4 0.414056 0.255030 0.885244
Si Si5 0.993208 0.279791 0.000000
Si Si6 0.162065 0.917532 0.227154
O O1 0.333589 0.591845 0.945338
O O2 0.386930 0.707022 0.000000
O O3 0.118765 0.651525 0.000000
O O4 0.151478 0.917590 0.836592
O O5 0.967646 0.842175 0.888139
O O6 0.000000 0.000000 0.896386
O O7 0.750000 0.250000 0.805142
O O8 0.810228 0.370315 0.764511
O O9 0.000000 0.268537 0.750000
O O10 0.979861 0.296025 0.848698
O O11 0.250000 0.250000 0.863536
O O12 0.417964 0.224167 0.945471
O O13 0.000000 0.893733 0.250000
O O14 0.181679 0.000000 0.250000
#
# Coordination Sequence:
#
# PCOD9499497 Si02
#       6
#     8  16  16  16   8  16
#     4   9  19  34  63  97 122 165 218 272 313 389
#     4  11  21  38  63  91 128 167 216 260 324 392
#     4  12  25  39  62  90 124 162 216 265 314 379
#     4  11  24  40  66  97 128 168 216 273 323 386
#     4   9  19  38  63  93 131 162 212 273 329 373
#     4  11  23  41  63  88 124 170 208 260 324 386
#
# _framework density 19.524315000000001
#
# number of rings (size 3 to 8) (size 9 to 14) (size 15 to 20)
#    0.000    1.200    4.000    3.000    5.600    0.400 
#    0.000    0.000    0.000    4.800    0.000    0.000 
#    0.000    0.000    0.000    0.000    0.000    0.000 
#
# Total GULP energy -222818.157403 kJ/mol
# GULP energy per Si atom -5570.453935 kJ/mol
# Density = 1.947988 g / cm^3
# Si number density = 19.524315 Si / 1000 Ang^3
#
#
#
# Elastic Constant Matrix: (Units=GPa)
#
#
# Indices 1 2 3 4 5 6 
#
# 1 102.8058 21.7637 19.4412 0.0000 0.0000 0.0000
# 2 21.7637 84.6397 -2.7187 0.0000 0.0000 0.0000
# 3 19.4412 -2.7187 108.5919 0.0000 0.0000 0.0000
# 4 0.0000 0.0000 0.0000 43.4819 0.0000 0.0000
# 5 0.0000 0.0000 0.0000 0.0000 269.0844 0.0000
# 6 0.0000 0.0000 0.0000 0.0000 0.0000 -41.9708
#
#
#
# Elastic Compliance Matrix: (Units=1/GPa)
#
#
# Indices 1 2 3 4 5 6 
#
# 1 0.010698 -0.002815 -0.001986 0.000000 0.000000 0.000000
# 2 -0.002815 0.012565 0.000818 0.000000 0.000000 0.000000
# 3 -0.001986 0.000818 0.009585 0.000000 0.000000 0.000000
# 4 0.000000 0.000000 0.000000 0.022998 0.000000 0.000000
# 5 0.000000 0.000000 0.000000 0.000000 0.003716 0.000000
# 6 0.000000 0.000000 0.000000 0.000000 0.000000 -0.023826
#
#
# Mechanical properties :
#
#
# Convention : Reuss Voigt Hill
#
# Bulk Modulus (GPa) = 40.18643 41.44553 40.81598
# Shear Modulus (GPa) = 96.16276 71.28919 83.72597
#
# Velocity S-wave (km/s) = 7.02565 6.04916 6.55561
# Velocity P-wave (km/s) = 9.29733 8.37039 8.84601
#
# Compressibility (1/GPa) = 0.02488402
#
# Stress axis : x y z
#
# Youngs Moduli (GPa) = 93.47121 79.58714 104.33183
#
# Poissons Ratio (x) = 0.22402 0.20718
# Poissons Ratio (y) = 0.26310 -0.08539
# Poissons Ratio (z) = 0.18562 -0.06514
#
# Static dielectric constant tensor:
#      x y z
#    x 1.700920 0.000000 0.000000 
#    y 0.000000 1.785310 0.000000 
#    z 0.000000 0.000000 1.628320 
# 
# From -- ./inp_files/55397.got.cif
#   From: 2010.05.17/outbox.cif.g08.bks.cpg/sg66_28_cif.got.tgz:55397.got - 2010.06.03 17:51:23.
