data_PCOD9499606
_publ_section_title
;
Structure prediction by ZEFSAII (Michael W. Deem and Ramdas Pophale) SiO2 
 PCOD9499606
Probable space group: C C C M
;
_chemical_formula_sum "Si O2"
_cell_formula_units_Z 64
_cell_length_a 16.046210
_cell_length_b 9.206057
_cell_length_c 20.711377
_cell_angle_alpha 90.000000
_cell_angle_beta 90.000000
_cell_angle_gamma 90.000000
_cell_volume 3059.532741
_symmetry_space_group_name_H-M "C C C M"
_symmetry_group_IT_number 66
_symmetry_cell_setting 'orthorhombic'
loop_
_space_group_symop_operation_xyz
x,y,z
-x,-y,z
x,-y,1/2-z
-x,y,1/2-z
-x,-y,-z
x,y,-z
-x,y,1/2+z
x,-y,1/2+z
1/2+x,1/2+y,z
1/2-x,1/2-y,z
1/2+x,1/2-y,1/2-z
1/2-x,1/2+y,1/2-z
1/2-x,1/2-y,-z
1/2+x,1/2+y,-z
1/2-x,1/2+y,1/2+z
1/2+x,1/2-y,1/2+z
loop_
_atom_site_type_symbol
_atom_site_label
_atom_site_fract_x
_atom_site_fract_y
_atom_site_fract_z
Si Si1 0.816306 0.144658 0.373383
Si Si2 0.246940 0.989576 0.000000
Si Si3 0.985362 0.667106 0.892684
Si Si4 0.610150 0.237775 0.000000
Si Si5 0.366688 0.500000 0.750000
Si Si6 0.500000 0.752199 0.750000
O O1 0.750000 0.250000 0.339727
O O2 0.898149 0.240123 0.394058
O O3 0.771456 0.083316 0.436751
O O4 0.827263 0.015878 0.321063
O O5 0.337120 0.912800 0.000000
O O6 0.178128 0.863206 0.000000
O O7 0.004473 0.664313 0.816706
O O8 0.000000 0.500000 0.915248
O O9 0.051535 0.750746 0.937262
O O10 0.421732 0.644677 0.749880
#
# Coordination Sequence:
#
# PCOD9499606 Si02
#       6
#    16   8  16   8   8   8
#     4  11  23  42  62  93 127 172 209 265 317 382
#     4  11  24  43  64  93 129 163 214 261 326 379
#     4  11  22  39  62  92 124 165 212 259 321 376
#     4  11  24  41  64  95 121 167 206 271 314 383
#     4   9  20  40  60  90 119 162 212 252 319 378
#     4   9  19  38  64  86 121 157 210 264 310 379
#
# _framework density 20.918227000000002
#
# number of rings (size 3 to 8) (size 9 to 14) (size 15 to 20)
#    0.000    1.500    0.000    4.875    0.000    4.000 
#   22.500    0.000    0.000    0.000    0.000    0.000 
#    0.000    0.000    0.000    0.000    0.000    0.000 
#
# Total GULP energy -178269.879151 kJ/mol
# GULP energy per Si atom -5570.933723 kJ/mol
# Density = 2.087062 g / cm^3
# Si number density = 20.918227 Si / 1000 Ang^3
#
#
#
# Elastic Constant Matrix: (Units=GPa)
#
#
# Indices 1 2 3 4 5 6 
#
# 1 99.8476 13.6709 38.9943 0.0000 0.0000 0.0000
# 2 13.6709 60.1468 15.8567 0.0000 0.0000 0.0000
# 3 38.9943 15.8567 127.2395 0.0000 0.0000 0.0000
# 4 0.0000 0.0000 0.0000 48.8137 0.0000 0.0000
# 5 0.0000 0.0000 0.0000 0.0000 110.6494 0.0000
# 6 0.0000 0.0000 0.0000 0.0000 0.0000 16.9486
#
#
#
# Elastic Compliance Matrix: (Units=1/GPa)
#
#
# Indices 1 2 3 4 5 6 
#
# 1 0.011552 -0.001750 -0.003322 0.000000 0.000000 0.000000
# 2 -0.001750 0.017456 -0.001639 0.000000 0.000000 0.000000
# 3 -0.003322 -0.001639 0.009082 0.000000 0.000000 0.000000
# 4 0.000000 0.000000 0.000000 0.020486 0.000000 0.000000
# 5 0.000000 0.000000 0.000000 0.000000 0.009038 0.000000
# 6 0.000000 0.000000 0.000000 0.000000 0.000000 0.059002
#
#
# Mechanical properties :
#
#
# Convention : Reuss Voigt Hill
#
# Bulk Modulus (GPa) = 40.53959 47.14198 43.84079
# Shear Modulus (GPa) = 33.72449 49.86314 41.79382
#
# Velocity S-wave (km/s) = 4.01958 4.88763 4.47471
# Velocity P-wave (km/s) = 6.40038 7.37815 6.90659
#
# Compressibility (1/GPa) = 0.02466724
#
# Stress axis : x y z
#
# Youngs Moduli (GPa) = 86.56258 57.28743 110.11253
#
# Poissons Ratio (x) = 0.10025 0.36583
# Poissons Ratio (y) = 0.15147 0.18048
# Poissons Ratio (z) = 0.28759 0.09390
#
# Static dielectric constant tensor:
#      x y z
#    x 1.774070 0.000000 0.000000 
#    y 0.000000 1.756310 0.000000 
#    z 0.000000 0.000000 1.742930 
# 
# From -- ./inp_files/57751.got.cif
#   From: 2010.05.17/outbox.cif.g08.bks.cpg/sg66_29_cif.got.tgz:57751.got - 2010.06.03 17:51:23.
