data_PCOD9499491
_publ_section_title
;
Structure prediction by ZEFSAII (Michael W. Deem and Ramdas Pophale) SiO2 
 PCOD9499491
Probable space group: C C C M
;
_chemical_formula_sum "Si O2"
_cell_formula_units_Z 100
_cell_length_a 33.421514
_cell_length_b 9.521194
_cell_length_c 15.184021
_cell_angle_alpha 90.000000
_cell_angle_beta 90.000000
_cell_angle_gamma 90.000000
_cell_volume 4831.748601
_symmetry_space_group_name_H-M "C C C M"
_symmetry_group_IT_number 66
_symmetry_cell_setting 'orthorhombic'
loop_
_space_group_symop_operation_xyz
x,y,z
-x,-y,z
x,-y,1/2-z
-x,y,1/2-z
-x,-y,-z
x,y,-z
-x,y,1/2+z
x,-y,1/2+z
1/2+x,1/2+y,z
1/2-x,1/2-y,z
1/2+x,1/2-y,1/2-z
1/2-x,1/2+y,1/2-z
1/2-x,1/2-y,-z
1/2+x,1/2+y,-z
1/2-x,1/2+y,1/2+z
1/2+x,1/2-y,1/2+z
loop_
_atom_site_type_symbol
_atom_site_label
_atom_site_fract_x
_atom_site_fract_y
_atom_site_fract_z
Si Si1 0.000000 0.000000 0.250000
Si Si2 0.206737 0.418810 0.500000
Si Si3 0.348954 0.074762 0.664289
Si Si4 0.994663 0.707613 0.603044
Si Si5 0.054965 0.997671 0.898942
Si Si6 0.202862 0.919953 0.000000
Si Si7 0.356140 0.415266 0.340338
Si Si8 0.065466 0.526660 0.606626
O O1 0.032362 0.928085 0.316230
O O2 0.181119 0.456252 0.585081
O O3 0.207313 0.248972 0.500000
O O4 0.251886 0.475614 0.500000
O O5 0.355345 0.244583 0.671258
O O6 0.331878 0.000000 0.750000
O O7 0.391155 0.998489 0.645845
O O8 0.996486 0.670975 0.500000
O O9 0.969967 0.852439 0.603226
O O10 0.963284 0.596906 0.641918
O O11 0.039939 0.665062 0.629478
O O12 0.100617 0.963549 0.878014
O O13 0.050744 0.054943 0.000000
O O14 0.177114 0.954112 0.913226
O O15 0.349660 0.500000 0.250000
O O16 0.070781 0.517181 0.500000
#
# Coordination Sequence:
#
# PCOD9499491 Si02
#       8
#     4   8  16  16  16   8  16  16
#     4  12  26  36  52  76 120 152 206 264 310 346
#     4   9  20  40  65  97 128 157 213 255 321 391
#     4  11  22  36  63  94 129 164 200 264 323 377
#     4   8  16  28  52  77 107 148 199 250 290 346
#     4  11  21  38  58  80 114 166 212 260 306 360
#     4   9  20  40  71  95 117 170 212 262 309 391
#     4  11  22  40  66  94 124 162 220 262 307 377
#     4   9  15  30  52  81 110 150 200 244 292 351
#
# _framework density 20.696442000000001
#
# number of rings (size 3 to 8) (size 9 to 14) (size 15 to 20)
#    0.000    2.080    4.000    1.200    0.000    1.920 
#    0.000    1.600    0.000    0.960    0.000    0.000 
#    0.000    0.000    0.000    0.000    0.000    0.000 
#
# Total GULP energy -278388.782673 kJ/mol
# GULP energy per Si atom -5567.775653 kJ/mol
# Density = 2.064934 g / cm^3
# Si number density = 20.696442 Si / 1000 Ang^3
#
#
#
# Elastic Constant Matrix: (Units=GPa)
#
#
# Indices 1 2 3 4 5 6 
#
# 1 184.2287 23.4898 87.1679 0.0000 0.0000 0.0000
# 2 23.4898 43.8061 42.6029 0.0000 0.0000 0.0000
# 3 87.1679 42.6029 161.9733 0.0000 0.0000 0.0000
# 4 0.0000 0.0000 0.0000 50.9686 0.0000 0.0000
# 5 0.0000 0.0000 0.0000 0.0000 39.2828 0.0000
# 6 0.0000 0.0000 0.0000 0.0000 0.0000 17.8872
#
#
#
# Elastic Compliance Matrix: (Units=1/GPa)
#
#
# Indices 1 2 3 4 5 6 
#
# 1 0.007283 -0.000126 -0.003886 0.000000 0.000000 0.000000
# 2 -0.000126 0.030677 -0.008001 0.000000 0.000000 0.000000
# 3 -0.003886 -0.008001 0.010370 0.000000 0.000000 0.000000
# 4 0.000000 0.000000 0.000000 0.019620 0.000000 0.000000
# 5 0.000000 0.000000 0.000000 0.000000 0.025456 0.000000
# 6 0.000000 0.000000 0.000000 0.000000 0.000000 0.055906
#
#
# Mechanical properties :
#
#
# Convention : Reuss Voigt Hill
#
# Bulk Modulus (GPa) = 41.14689 77.39213 59.26951
# Shear Modulus (GPa) = 27.55753 37.41088 32.48421
#
# Velocity S-wave (km/s) = 3.65295 4.25620 3.96606
# Velocity P-wave (km/s) = 6.14136 7.85040 7.04787
#
# Compressibility (1/GPa) = 0.02430317
#
# Stress axis : x y z
#
# Youngs Moduli (GPa) = 137.30856 32.59816 96.43391
#
# Poissons Ratio (x) = 0.00410 0.37477
# Poissons Ratio (y) = 0.01725 0.77157
# Poissons Ratio (z) = 0.53362 0.26082
#
# Static dielectric constant tensor:
#      x y z
#    x 1.717750 0.000000 0.000000 
#    y 0.000000 1.948840 0.000000 
#    z 0.000000 0.000000 1.895020 
# 
# From -- ./inp_files/33770.got.cif
#   From: 2010.05.17/outbox.cif.g08.bks.cpg/sg66_17_cif.got.tgz:33770.got - 2010.06.03 17:51:23.
