data_PCOD9499340
_publ_section_title
;
Structure prediction by ZEFSAII (Michael W. Deem and Ramdas Pophale) SiO2 
 PCOD9499340
Probable space group: C C C M
;
_chemical_formula_sum "Si O2"
_cell_formula_units_Z 80
_cell_length_a 12.250761
_cell_length_b 11.001399
_cell_length_c 26.310737
_cell_angle_alpha 90.000000
_cell_angle_beta 90.000000
_cell_angle_gamma 90.000000
_cell_volume 3546.042993
_symmetry_space_group_name_H-M "C C C M"
_symmetry_group_IT_number 66
_symmetry_cell_setting 'orthorhombic'
loop_
_space_group_symop_operation_xyz
x,y,z
-x,-y,z
x,-y,1/2-z
-x,y,1/2-z
-x,-y,-z
x,y,-z
-x,y,1/2+z
x,-y,1/2+z
1/2+x,1/2+y,z
1/2-x,1/2-y,z
1/2+x,1/2-y,1/2-z
1/2-x,1/2+y,1/2-z
1/2-x,1/2-y,-z
1/2+x,1/2+y,-z
1/2-x,1/2+y,1/2+z
1/2+x,1/2-y,1/2+z
loop_
_atom_site_type_symbol
_atom_site_label
_atom_site_fract_x
_atom_site_fract_y
_atom_site_fract_z
Si Si1 0.503924 0.312251 0.586157
Si Si2 0.227380 0.622998 0.717623
Si Si3 0.181570 0.019991 0.441504
Si Si4 0.608521 0.922835 0.884607
Si Si5 0.030696 0.140226 0.195691
O O1 0.389175 0.354656 0.562152
O O2 0.591932 0.417626 0.573901
O O3 0.571727 0.188306 0.578611
O O4 0.475998 0.306828 0.646198
O O5 0.218143 0.500000 0.750000
O O6 0.250000 0.750000 0.748379
O O7 0.139153 0.621963 0.672639
O O8 0.340944 0.626925 0.687701
O O9 0.213197 0.002902 0.500000
O O10 0.288563 0.997831 0.407007
O O11 0.500000 0.000000 0.879914
O O12 0.000000 0.198243 0.250000
O O13 0.000000 0.000000 0.198768
#
# Coordination Sequence:
#
# PCOD9499340 Si02
#       5
#    16  16  16  16  16
#     4  11  21  44  74  98 138 180 238 294 366 428
#     4  12  24  45  69 102 143 190 241 293 352 433
#     4  11  24  44  74 108 132 177 251 311 359 436
#     4  12  27  46  67 101 149 195 228 298 376 442
#     4  11  19  35  69  98 124 175 233 284 340 417
#
# _framework density 22.560358000000001
#
# number of rings (size 3 to 8) (size 9 to 14) (size 15 to 20)
#    0.000    0.600    8.000    1.800    0.000    5.600 
#    0.000    1.000    0.000    0.000    0.000    0.000 
#    0.000    0.000    0.000    0.000    0.000    0.000 
#
# Total GULP energy -222798.659166 kJ/mol
# GULP energy per Si atom -5569.966479 kJ/mol
# Density = 2.250901 g / cm^3
# Si number density = 22.560358 Si / 1000 Ang^3
#
#
#
# Elastic Constant Matrix: (Units=GPa)
#
#
# Indices 1 2 3 4 5 6 
#
# 1 134.3064 43.2963 20.8732 0.0000 0.0000 0.0000
# 2 43.2963 97.7016 19.5268 0.0000 0.0000 0.0000
# 3 20.8732 19.5268 107.8904 0.0000 0.0000 0.0000
# 4 0.0000 0.0000 0.0000 -21.2890 0.0000 0.0000
# 5 0.0000 0.0000 0.0000 0.0000 14.6156 0.0000
# 6 0.0000 0.0000 0.0000 0.0000 0.0000 25.2762
#
#
#
# Elastic Compliance Matrix: (Units=1/GPa)
#
#
# Indices 1 2 3 4 5 6 
#
# 1 0.008796 -0.003691 -0.001034 0.000000 0.000000 0.000000
# 2 -0.003691 0.012169 -0.001488 0.000000 0.000000 0.000000
# 3 -0.001034 -0.001488 0.009738 0.000000 0.000000 0.000000
# 4 0.000000 0.000000 0.000000 -0.046973 0.000000 0.000000
# 5 0.000000 0.000000 0.000000 0.000000 0.068420 0.000000
# 6 0.000000 0.000000 0.000000 0.000000 0.000000 0.039563
#
#
# Mechanical properties :
#
#
# Convention : Reuss Voigt Hill
#
# Bulk Modulus (GPa) = 54.71604 56.36569 55.54086
# Shear Modulus (GPa) = 45.35886 20.80069 33.07977
#
# Velocity S-wave (km/s) = 4.48879 3.03974 3.83336
# Velocity P-wave (km/s) = 7.15342 6.11217 6.65320
#
# Compressibility (1/GPa) = 0.01827618
#
# Stress axis : x y z
#
# Youngs Moduli (GPa) = 113.68376 82.17907 102.69057
#
# Poissons Ratio (x) = 0.30336 0.10615
# Poissons Ratio (y) = 0.41966 0.15282
# Poissons Ratio (z) = 0.11751 0.12230
#
# Static dielectric constant tensor:
#      x y z
#    x 1.862290 0.000000 0.000000 
#    y 0.000000 1.974300 0.000000 
#    z 0.000000 0.000000 1.824020 
# 
# From -- ./inp_files/68772.got.cif
#   From: 2010.05.17/outbox.cif.g08.bks.cpg/sg66_35_cif.got.tgz:68772.got - 2010.06.03 17:51:23.
