data_PCOD9499254
_publ_section_title
;
Structure prediction by ZEFSAII (Michael W. Deem and Ramdas Pophale) SiO2 
 PCOD9499254
Probable space group: C C C M
;
_chemical_formula_sum "Si O2"
_cell_formula_units_Z 64
_cell_length_a 9.593713
_cell_length_b 11.087800
_cell_length_c 31.503347
_cell_angle_alpha 90.000000
_cell_angle_beta 90.000000
_cell_angle_gamma 90.000000
_cell_volume 3351.110918
_symmetry_space_group_name_H-M "C C C M"
_symmetry_group_IT_number 66
_symmetry_cell_setting 'orthorhombic'
loop_
_space_group_symop_operation_xyz
x,y,z
-x,-y,z
x,-y,1/2-z
-x,y,1/2-z
-x,-y,-z
x,y,-z
-x,y,1/2+z
x,-y,1/2+z
1/2+x,1/2+y,z
1/2-x,1/2-y,z
1/2+x,1/2-y,1/2-z
1/2-x,1/2+y,1/2-z
1/2-x,1/2-y,-z
1/2+x,1/2+y,-z
1/2-x,1/2+y,1/2+z
1/2+x,1/2-y,1/2+z
loop_
_atom_site_type_symbol
_atom_site_label
_atom_site_fract_x
_atom_site_fract_y
_atom_site_fract_z
Si Si1 0.500000 0.000000 0.651877
Si Si2 0.852519 0.369231 0.772295
Si Si3 0.598949 0.681577 0.500000
Si Si4 0.500000 0.500000 0.072363
Si Si5 0.384940 0.102447 0.000000
Si Si6 0.231389 0.388849 0.907083
O O1 0.405358 0.087349 0.681298
O O2 0.605376 0.067348 0.621018
O O3 0.805278 0.500000 0.750000
O O4 0.750000 0.250000 0.771339
O O5 0.000000 0.335872 0.750000
O O6 0.750000 0.750000 0.500000
O O7 0.569604 0.600210 0.458565
O O8 0.473237 0.776160 0.500000
O O9 0.623252 0.547802 0.101347
O O10 0.297375 0.093173 0.042740
O O11 0.500000 0.000000 0.000000
O O12 0.250000 0.250000 0.899406
#
# Coordination Sequence:
#
# PCOD9499254 Si02
#       6
#     8  16   8   8   8  16
#     4  10  25  41  62  98 138 170 202 259 323 390
#     4   9  21  45  74 104 133 165 209 254 312 395
#     4  11  22  38  59  85 109 151 232 291 323 371
#     4  11  24  38  58  86 113 158 222 278 321 374
#     4  12  21  40  62  80 115 176 230 277 321 368
#     4  12  24  41  59  87 129 173 222 275 323 370
#
# _framework density 19.098143
#
# number of rings (size 3 to 8) (size 9 to 14) (size 15 to 20)
#    0.000    1.500    3.750    3.375    0.000    6.500 
#    0.000    0.000    0.000    0.000    0.000    0.000 
#    0.000    0.000    0.000    0.000    0.000    0.000 
#
# Total GULP energy -178415.068787 kJ/mol
# GULP energy per Si atom -5575.470900 kJ/mol
# Density = 1.905468 g / cm^3
# Si number density = 19.098143 Si / 1000 Ang^3
#
#
#
# Elastic Constant Matrix: (Units=GPa)
#
#
# Indices 1 2 3 4 5 6 
#
# 1 130.0831 83.4487 50.4013 0.0000 0.0000 0.0000
# 2 83.4487 142.0225 46.4112 0.0000 0.0000 0.0000
# 3 50.4013 46.4112 97.6748 0.0000 0.0000 0.0000
# 4 0.0000 0.0000 0.0000 105.7951 0.0000 0.0000
# 5 0.0000 0.0000 0.0000 0.0000 31.1933 0.0000
# 6 0.0000 0.0000 0.0000 0.0000 0.0000 57.2017
#
#
#
# Elastic Compliance Matrix: (Units=1/GPa)
#
#
# Indices 1 2 3 4 5 6 
#
# 1 0.013411 -0.006651 -0.003760 0.000000 0.000000 0.000000
# 2 -0.006651 0.011634 -0.002096 0.000000 0.000000 0.000000
# 3 -0.003760 -0.002096 0.013174 0.000000 0.000000 0.000000
# 4 0.000000 0.000000 0.000000 0.009452 0.000000 0.000000
# 5 0.000000 0.000000 0.000000 0.000000 0.032058 0.000000
# 6 0.000000 0.000000 0.000000 0.000000 0.000000 0.017482
#
#
# Mechanical properties :
#
#
# Convention : Reuss Voigt Hill
#
# Bulk Modulus (GPa) = 75.72800 81.14474 78.43637
# Shear Modulus (GPa) = 39.48596 51.47266 45.47931
#
# Velocity S-wave (km/s) = 4.55194 5.19713 4.88520
# Velocity P-wave (km/s) = 8.20762 8.86533 8.54281
#
# Compressibility (1/GPa) = 0.01320515
#
# Stress axis : x y z
#
# Youngs Moduli (GPa) = 74.56598 85.95364 75.90671
#
# Poissons Ratio (x) = 0.57170 0.28539
# Poissons Ratio (y) = 0.49596 0.15910
# Poissons Ratio (z) = 0.28035 0.18016
#
# Static dielectric constant tensor:
#      x y z
#    x 1.657740 0.000000 0.000000 
#    y 0.000000 1.727940 0.000000 
#    z 0.000000 0.000000 1.680620 
# 
# From -- ./inp_files/67954.got.cif
#   From: 2010.05.17/outbox.cif.g08.bks.cpg/sg66_34_cif.got.tgz:67954.got - 2010.06.03 17:51:23.
