data_PCOD9499251
_publ_section_title
;
Structure prediction by ZEFSAII (Michael W. Deem and Ramdas Pophale) SiO2 
 PCOD9499251
Probable space group: C C C M
;
_chemical_formula_sum "Si O2"
_cell_formula_units_Z 60
_cell_length_a 23.207154
_cell_length_b 5.108286
_cell_length_c 23.848398
_cell_angle_alpha 90.000000
_cell_angle_beta 90.000000
_cell_angle_gamma 90.000000
_cell_volume 2827.198485
_symmetry_space_group_name_H-M "C C C M"
_symmetry_group_IT_number 66
_symmetry_cell_setting 'orthorhombic'
loop_
_space_group_symop_operation_xyz
x,y,z
-x,-y,z
x,-y,1/2-z
-x,y,1/2-z
-x,-y,-z
x,y,-z
-x,y,1/2+z
x,-y,1/2+z
1/2+x,1/2+y,z
1/2-x,1/2-y,z
1/2+x,1/2-y,1/2-z
1/2-x,1/2+y,1/2-z
1/2-x,1/2-y,-z
1/2+x,1/2+y,-z
1/2-x,1/2+y,1/2+z
1/2+x,1/2-y,1/2+z
loop_
_atom_site_type_symbol
_atom_site_label
_atom_site_fract_x
_atom_site_fract_y
_atom_site_fract_z
Si Si1 0.311365 0.306722 0.820763
Si Si2 0.333626 0.190757 0.393599
Si Si3 0.909346 0.000000 0.750000
Si Si4 0.462237 0.261196 0.361260
Si Si5 0.250000 0.250000 0.500000
O O1 0.250000 0.250000 0.792878
O O2 0.312723 0.592010 0.848859
O O3 0.365964 0.297524 0.780210
O O4 0.319210 0.094944 0.869614
O O5 0.402794 0.219700 0.394619
O O6 0.300050 0.236194 0.450779
O O7 0.944254 0.146021 0.798466
O O8 0.500000 0.500000 0.384985
O O9 0.500000 0.000000 0.359064
#
# Coordination Sequence:
#
# PCOD9499251 Si02
#       5
#    16  16   8  16   4
#     4  11  22  42  59 102 142 170 217 272 333 399
#     4  11  25  42  70  99 128 173 224 284 333 393
#     4  10  25  36  68  96 134 188 219 254 330 398
#     4  11  24  44  63  94 137 177 222 267 316 398
#     4  12  24  50  76  98 128 170 232 284 368 392
#
# _framework density 21.222422999999999
#
# number of rings (size 3 to 8) (size 9 to 14) (size 15 to 20)
#    0.000    1.067    2.667    3.600    0.000   19.200 
#    0.000    1.333    0.000    0.000    0.000    0.000 
#    0.000    0.000    0.000    0.000    0.000    0.000 
#
# Total GULP energy -167344.890829 kJ/mol
# GULP energy per Si atom -5578.163028 kJ/mol
# Density = 2.117412 g / cm^3
# Si number density = 21.222423 Si / 1000 Ang^3
#
#
#
# Elastic Constant Matrix: (Units=GPa)
#
#
# Indices 1 2 3 4 5 6 
#
# 1 207.4489 50.0239 54.7684 0.0000 0.0000 0.0000
# 2 50.0239 93.9765 11.9396 0.0000 0.0000 0.0000
# 3 54.7684 11.9396 96.2501 0.0000 0.0000 0.0000
# 4 0.0000 0.0000 0.0000 -9.9098 0.0000 0.0000
# 5 0.0000 0.0000 0.0000 0.0000 35.6649 0.0000
# 6 0.0000 0.0000 0.0000 0.0000 0.0000 38.0827
#
#
#
# Elastic Compliance Matrix: (Units=1/GPa)
#
#
# Indices 1 2 3 4 5 6 
#
# 1 0.006407 -0.002994 -0.003274 0.000000 0.000000 0.000000
# 2 -0.002994 0.012211 0.000189 0.000000 0.000000 0.000000
# 3 -0.003274 0.000189 0.012229 0.000000 0.000000 0.000000
# 4 0.000000 0.000000 0.000000 -0.100910 0.000000 0.000000
# 5 0.000000 0.000000 0.000000 0.000000 0.028039 0.000000
# 6 0.000000 0.000000 0.000000 0.000000 0.000000 0.026259
#
#
# Mechanical properties :
#
#
# Convention : Reuss Voigt Hill
#
# Bulk Modulus (GPa) = 53.51017 70.12660 61.81838
# Shear Modulus (GPa) = 1906.51556 31.49713 969.00635
#
# Velocity S-wave (km/s) = 30.00500 3.85664 21.39128
# Velocity P-wave (km/s) = 35.00955 7.27646 25.28454
#
# Compressibility (1/GPa) = 0.01868804
#
# Stress axis : x y z
#
# Youngs Moduli (GPa) = 156.07989 81.89418 81.77119
#
# Poissons Ratio (x) = 0.24523 0.26774
# Poissons Ratio (y) = 0.46737 -0.01547
# Poissons Ratio (z) = 0.51104 -0.01549
#
# Static dielectric constant tensor:
#      x y z
#    x 1.822370 0.000000 0.000000 
#    y 0.000000 1.788810 0.000000 
#    z 0.000000 0.000000 1.710210 
# 
# From -- ./inp_files/59184.got.cif
#   From: 2010.05.17/outbox.cif.g08.bks.cpg/sg66_30_cif.got.tgz:59184.got - 2010.06.03 17:51:23.
