data_PCOD9499875
_publ_section_title
;
Structure prediction by ZEFSAII (Michael W. Deem and Ramdas Pophale) SiO2 
 PCOD9499875
Probable space group: C C C M
;
_chemical_formula_sum "Si O2"
_cell_formula_units_Z 68
_cell_length_a 9.552339
_cell_length_b 16.934274
_cell_length_c 19.323395
_cell_angle_alpha 90.000000
_cell_angle_beta 90.000000
_cell_angle_gamma 90.000000
_cell_volume 3125.789591
_symmetry_space_group_name_H-M "C C C M"
_symmetry_group_IT_number 66
_symmetry_cell_setting 'orthorhombic'
loop_
_space_group_symop_operation_xyz
x,y,z
-x,-y,z
x,-y,1/2-z
-x,y,1/2-z
-x,-y,-z
x,y,-z
-x,y,1/2+z
x,-y,1/2+z
1/2+x,1/2+y,z
1/2-x,1/2-y,z
1/2+x,1/2-y,1/2-z
1/2-x,1/2+y,1/2-z
1/2-x,1/2-y,-z
1/2+x,1/2+y,-z
1/2-x,1/2+y,1/2+z
1/2+x,1/2-y,1/2+z
loop_
_atom_site_type_symbol
_atom_site_label
_atom_site_fract_x
_atom_site_fract_y
_atom_site_fract_z
Si Si1 0.180429 0.084109 0.133987
Si Si2 0.185089 0.575882 0.920005
Si Si3 0.445912 0.308877 0.421984
Si Si4 0.000000 0.000000 0.250000
Si Si5 0.468168 0.161035 0.169065
O O1 0.069421 0.127450 0.085372
O O2 0.306138 0.142232 0.154772
O O3 0.096969 0.053903 0.201425
O O4 0.243296 0.006949 0.097576
O O5 0.301321 0.644716 0.909795
O O6 0.058838 0.593464 0.868526
O O7 0.140128 0.577113 0.000000
O O8 0.442906 0.275839 0.500000
O O9 0.481127 0.241446 0.367198
O O10 0.500000 0.162587 0.250000
#
# Coordination Sequence:
#
# PCOD9499875 Si02
#       5
#    16  16  16   4  16
#     4  12  25  43  72  99 136 182 237 290 343 414
#     4  11  24  47  74 102 139 184 231 286 351 421
#     4  11  25  46  71 101 137 182 232 284 344 416
#     4  12  24  44  72 100 140 192 234 300 360 420
#     4  12  28  43  66 105 142 181 228 285 352 417
#
# _framework density 21.754501000000001
#
# number of rings (size 3 to 8) (size 9 to 14) (size 15 to 20)
#    0.000    0.471    2.353    4.941    1.647   12.235 
#    0.000    0.000    0.000    0.000    0.000    0.000 
#    0.000    0.000    0.000    0.000    0.000    0.000 
#
# Total GULP energy -190564.194046 kJ/mol
# GULP energy per Si atom -5604.829237 kJ/mol
# Density = 2.170499 g / cm^3
# Si number density = 21.754501 Si / 1000 Ang^3
#
#
#
# Elastic Constant Matrix: (Units=GPa)
#
#
# Indices 1 2 3 4 5 6 
#
# 1 98.4034 5.4360 43.5544 0.0000 0.0000 0.0000
# 2 5.4360 83.0164 35.4157 0.0000 0.0000 0.0000
# 3 43.5544 35.4157 146.2283 0.0000 0.0000 0.0000
# 4 0.0000 0.0000 0.0000 -83.9457 0.0000 0.0000
# 5 0.0000 0.0000 0.0000 0.0000 69.7876 0.0000
# 6 0.0000 0.0000 0.0000 0.0000 0.0000 21.4698
#
#
#
# Elastic Compliance Matrix: (Units=1/GPa)
#
#
# Indices 1 2 3 4 5 6 
#
# 1 0.011754 0.000807 -0.003696 0.000000 0.000000 0.000000
# 2 0.000807 0.013489 -0.003507 0.000000 0.000000 0.000000
# 3 -0.003696 -0.003507 0.008789 0.000000 0.000000 0.000000
# 4 0.000000 0.000000 0.000000 -0.011912 0.000000 0.000000
# 5 0.000000 0.000000 0.000000 0.000000 0.014329 0.000000
# 6 0.000000 0.000000 0.000000 0.000000 0.000000 0.046577
#
#
# Mechanical properties :
#
#
# Convention : Reuss Voigt Hill
#
# Bulk Modulus (GPa) = 47.08342 55.16226 51.12284
# Shear Modulus (GPa) = 48.59151 17.67847 33.13499
#
# Velocity S-wave (km/s) = 4.73126 2.85377 3.90697
# Velocity P-wave (km/s) = 7.17889 6.02249 6.62597
#
# Compressibility (1/GPa) = 0.02123890
#
# Stress axis : x y z
#
# Youngs Moduli (GPa) = 85.07948 74.13294 113.77739
#
# Poissons Ratio (x) = -0.05985 0.42057
# Poissons Ratio (y) = -0.06868 0.39907
# Poissons Ratio (z) = 0.31449 0.26002
#
# Static dielectric constant tensor:
#      x y z
#    x 1.787630 0.000000 0.000000 
#    y 0.000000 1.797960 0.000000 
#    z 0.000000 0.000000 1.760050 
# 
# From -- ./inp_files/42515.got.cif
#   From: 2010.05.17/outbox.cif.g08.bks.cpg/sg66_22_cif.got.tgz:42515.got - 2010.06.03 17:51:23.
