data_PCOD9499633
_publ_section_title
;
Structure prediction by ZEFSAII (Michael W. Deem and Ramdas Pophale) SiO2 
 PCOD9499633
Probable space group: C C C M
;
_chemical_formula_sum "Si O2"
_cell_formula_units_Z 88
_cell_length_a 12.642027
_cell_length_b 20.497984
_cell_length_c 15.191892
_cell_angle_alpha 90.000000
_cell_angle_beta 90.000000
_cell_angle_gamma 90.000000
_cell_volume 3936.767146
_symmetry_space_group_name_H-M "C C C M"
_symmetry_group_IT_number 66
_symmetry_cell_setting 'orthorhombic'
loop_
_space_group_symop_operation_xyz
x,y,z
-x,-y,z
x,-y,1/2-z
-x,y,1/2-z
-x,-y,-z
x,y,-z
-x,y,1/2+z
x,-y,1/2+z
1/2+x,1/2+y,z
1/2-x,1/2-y,z
1/2+x,1/2-y,1/2-z
1/2-x,1/2+y,1/2-z
1/2-x,1/2-y,-z
1/2+x,1/2+y,-z
1/2-x,1/2+y,1/2+z
1/2+x,1/2-y,1/2+z
loop_
_atom_site_type_symbol
_atom_site_label
_atom_site_fract_x
_atom_site_fract_y
_atom_site_fract_z
Si Si1 0.487938 0.174776 0.854015
Si Si2 0.318575 0.500619 0.151483
Si Si3 0.970396 0.820330 0.150151
Si Si4 0.745951 0.646365 0.102507
Si Si5 0.597384 0.045338 0.101062
Si Si6 0.448167 0.578286 0.000000
O O1 0.500000 0.166851 0.750000
O O2 0.516301 0.249388 0.874993
O O3 0.366641 0.159969 0.876263
O O4 0.558545 0.119430 0.898166
O O5 0.364026 0.500000 0.250000
O O6 0.284212 0.428107 0.123864
O O7 0.206471 0.539162 0.153163
O O8 0.392730 0.531411 0.077043
O O9 0.843373 0.812318 0.151071
O O10 0.000000 0.838190 0.250000
O O11 0.004976 0.873119 0.078229
O O12 0.731080 0.658846 0.000000
O O13 0.500000 0.000000 0.133605
O O14 0.619227 0.024186 0.000000
#
# Coordination Sequence:
#
# PCOD9499633 Si02
#       6
#    16  16  16  16  16   8
#     4  11  25  43  71 109 144 187 246 300 370 444
#     4  12  25  44  73 108 144 190 241 302 370 434
#     4  11  27  48  72 103 147 197 245 304 359 434
#     4  12  23  44  76 104 136 188 251 303 354 429
#     4  11  22  40  67 106 146 181 232 301 374 434
#     4  12  26  51  71 108 146 191 244 295 367 429
#
# _framework density 22.353368
#
# number of rings (size 3 to 8) (size 9 to 14) (size 15 to 20)
#    0.000    0.545    4.545    3.273    2.545    2.182 
#    0.000    5.455    0.000    0.000    0.000    0.000 
#    0.000    0.000    0.000    0.000    0.000    0.000 
#
# Total GULP energy -245305.379972 kJ/mol
# GULP energy per Si atom -5575.122272 kJ/mol
# Density = 2.230249 g / cm^3
# Si number density = 22.353368 Si / 1000 Ang^3
#
#
#
# Elastic Constant Matrix: (Units=GPa)
#
#
# Indices 1 2 3 4 5 6 
#
# 1 77.1832 25.9735 54.1784 0.0000 0.0000 0.0000
# 2 25.9735 97.7831 19.8916 0.0000 0.0000 0.0000
# 3 54.1784 19.8916 160.8422 0.0000 0.0000 0.0000
# 4 0.0000 0.0000 0.0000 30.7566 0.0000 0.0000
# 5 0.0000 0.0000 0.0000 0.0000 35.7136 0.0000
# 6 0.0000 0.0000 0.0000 0.0000 0.0000 34.8030
#
#
#
# Elastic Compliance Matrix: (Units=1/GPa)
#
#
# Indices 1 2 3 4 5 6 
#
# 1 0.018170 -0.003674 -0.005666 0.000000 0.000000 0.000000
# 2 -0.003674 0.011233 -0.000152 0.000000 0.000000 0.000000
# 3 -0.005666 -0.000152 0.008145 0.000000 0.000000 0.000000
# 4 0.000000 0.000000 0.000000 0.032513 0.000000 0.000000
# 5 0.000000 0.000000 0.000000 0.000000 0.028001 0.000000
# 6 0.000000 0.000000 0.000000 0.000000 0.000000 0.028733
#
#
# Mechanical properties :
#
#
# Convention : Reuss Voigt Hill
#
# Bulk Modulus (GPa) = 53.86557 59.54395 56.70476
# Shear Modulus (GPa) = 32.90213 35.97230 34.43721
#
# Velocity S-wave (km/s) = 3.84071 4.01591 3.92928
# Velocity P-wave (km/s) = 6.61949 6.94253 6.78293
#
# Compressibility (1/GPa) = 0.01856473
#
# Stress axis : x y z
#
# Youngs Moduli (GPa) = 55.03683 89.02015 122.78101
#
# Poissons Ratio (x) = 0.32703 0.69567
# Poissons Ratio (y) = 0.20219 0.01864
# Poissons Ratio (z) = 0.31184 0.01351
#
# Static dielectric constant tensor:
#      x y z
#    x 1.750880 0.000000 0.000000 
#    y 0.000000 1.881610 0.000000 
#    z 0.000000 0.000000 1.703360 
# 
# From -- ./inp_files/26505.got.cif
#   From: 2010.05.17/outbox.cif.g08.bks.cpg/sg66_14_cif.got.tgz:26505.got - 2010.06.03 17:51:23.
