data_PCOD9499067
_publ_section_title
;
Structure prediction by ZEFSAII (Michael W. Deem and Ramdas Pophale) SiO2 
 PCOD9499067
Probable space group: C C C M
;
_chemical_formula_sum "Si O2"
_cell_formula_units_Z 52
_cell_length_a 4.972962
_cell_length_b 25.730747
_cell_length_c 18.970401
_cell_angle_alpha 90.000000
_cell_angle_beta 90.000000
_cell_angle_gamma 90.000000
_cell_volume 2427.415085
_symmetry_space_group_name_H-M "C C C M"
_symmetry_group_IT_number 66
_symmetry_cell_setting 'orthorhombic'
loop_
_space_group_symop_operation_xyz
x,y,z
-x,-y,z
x,-y,1/2-z
-x,y,1/2-z
-x,-y,-z
x,y,-z
-x,y,1/2+z
x,-y,1/2+z
1/2+x,1/2+y,z
1/2-x,1/2-y,z
1/2+x,1/2-y,1/2-z
1/2-x,1/2+y,1/2-z
1/2-x,1/2-y,-z
1/2+x,1/2+y,-z
1/2-x,1/2+y,1/2+z
1/2+x,1/2-y,1/2+z
loop_
_atom_site_type_symbol
_atom_site_label
_atom_site_fract_x
_atom_site_fract_y
_atom_site_fract_z
Si Si1 0.240354 0.036619 0.581227
Si Si2 0.104211 0.202207 0.141186
Si Si3 0.901902 0.364810 0.171723
Si Si4 0.750000 0.250000 0.500000
O O1 0.182562 0.052747 0.500000
O O2 0.290162 0.086103 0.629589
O O3 0.500000 0.000000 0.580676
O O4 0.000000 0.000000 0.606656
O O5 0.250000 0.250000 0.181643
O O6 0.334467 0.158445 0.134413
O O7 0.061674 0.224727 0.063113
O O8 0.835403 0.178004 0.172683
O O9 0.000000 0.378292 0.250000
#
# Coordination Sequence:
#
# PCOD9499067 Si02
#       4
#    16  16  16   4
#     4  10  23  42  67  98 131 172 228 289 341 400
#     4  10  24  41  67  97 138 175 234 275 340 409
#     4  12  25  42  67 100 138 183 222 279 355 423
#     4   8  24  42  68 102 132 190 226 290 344 394
#
# _framework density 21.421965
#
# number of rings (size 3 to 8) (size 9 to 14) (size 15 to 20)
#    0.923    0.615    0.000    3.692    4.308    4.308 
#    0.000    1.538    0.000    0.000    0.000    0.000 
#    0.000    0.000    0.000    0.000    0.000    0.000 
#
# Total GULP energy -144748.822871 kJ/mol
# GULP energy per Si atom -5567.262418 kJ/mol
# Density = 2.137321 g / cm^3
# Si number density = 21.421965 Si / 1000 Ang^3
#
#
#
# Elastic Constant Matrix: (Units=GPa)
#
#
# Indices 1 2 3 4 5 6 
#
# 1 123.8625 33.2333 25.4891 0.0000 0.0000 0.0000
# 2 33.2333 92.1853 61.8827 0.0000 0.0000 0.0000
# 3 25.4891 61.8827 102.6159 0.0000 0.0000 0.0000
# 4 0.0000 0.0000 0.0000 36.4492 0.0000 0.0000
# 5 0.0000 0.0000 0.0000 0.0000 -7.7623 0.0000
# 6 0.0000 0.0000 0.0000 0.0000 0.0000 46.6054
#
#
#
# Elastic Compliance Matrix: (Units=1/GPa)
#
#
# Indices 1 2 3 4 5 6 
#
# 1 0.008951 -0.002914 -0.000466 0.000000 0.000000 0.000000
# 2 -0.002914 0.019175 -0.010839 0.000000 0.000000 0.000000
# 3 -0.000466 -0.010839 0.016398 0.000000 0.000000 0.000000
# 4 0.000000 0.000000 0.000000 0.027435 0.000000 0.000000
# 5 0.000000 0.000000 0.000000 0.000000 -0.128828 0.000000
# 6 0.000000 0.000000 0.000000 0.000000 0.000000 0.021457
#
#
# Mechanical properties :
#
#
# Convention : Reuss Voigt Hill
#
# Bulk Modulus (GPa) = 62.17271 62.20820 62.19046
# Shear Modulus (GPa) = -3103.06433 28.26236 -1537.40098
#
# Velocity S-wave (km/s) = -38.10102 3.63618 -26.81852
# Velocity P-wave (km/s) = 43.66346 6.83605 30.49399
#
# Compressibility (1/GPa) = 0.01608423
#
# Stress axis : x y z
#
# Youngs Moduli (GPa) = 111.71616 52.15223 60.98452
#
# Poissons Ratio (x) = 0.15198 0.02842
# Poissons Ratio (y) = 0.32555 0.66104
# Poissons Ratio (z) = 0.05207 0.56530
#
# Static dielectric constant tensor:
#      x y z
#    x 1.785460 0.000000 0.000000 
#    y 0.000000 1.786350 0.000000 
#    z 0.000000 0.000000 1.776680 
# 
# From -- ./inp_files/45358.got.cif
#   From: 2010.05.17/outbox.cif.g08.bks.cpg/sg66_23_cif.got.tgz:45358.got - 2010.06.03 17:51:23.
