data_PCOD9499125
_publ_section_title
;
Structure prediction by ZEFSAII (Michael W. Deem and Ramdas Pophale) SiO2 
 PCOD9499125
Probable space group: C C C M
;
_chemical_formula_sum "Si O2"
_cell_formula_units_Z 88
_cell_length_a 11.180092
_cell_length_b 26.867457
_cell_length_c 14.384301
_cell_angle_alpha 90.000000
_cell_angle_beta 90.000000
_cell_angle_gamma 90.000000
_cell_volume 4320.765556
_symmetry_space_group_name_H-M "C C C M"
_symmetry_group_IT_number 66
_symmetry_cell_setting 'orthorhombic'
loop_
_space_group_symop_operation_xyz
x,y,z
-x,-y,z
x,-y,1/2-z
-x,y,1/2-z
-x,-y,-z
x,y,-z
-x,y,1/2+z
x,-y,1/2+z
1/2+x,1/2+y,z
1/2-x,1/2-y,z
1/2+x,1/2-y,1/2-z
1/2-x,1/2+y,1/2-z
1/2-x,1/2-y,-z
1/2+x,1/2+y,-z
1/2-x,1/2+y,1/2+z
1/2+x,1/2-y,1/2+z
loop_
_atom_site_type_symbol
_atom_site_label
_atom_site_fract_x
_atom_site_fract_y
_atom_site_fract_z
Si Si1 0.941982 0.381467 0.151924
Si Si2 0.221435 0.160001 0.258564
Si Si3 0.000000 0.224868 0.750000
Si Si4 0.121752 0.298772 0.104738
Si Si5 0.365350 0.476951 0.000000
Si Si6 0.614577 0.037410 0.000000
Si Si7 0.634924 0.551968 0.790080
O O1 0.835445 0.342280 0.174045
O O2 0.898332 0.426742 0.089416
O O3 0.000000 0.398073 0.250000
O O4 0.044666 0.349460 0.103395
O O5 0.260985 0.186091 0.162581
O O6 0.196217 0.101928 0.243699
O O7 0.104844 0.189603 0.289817
O O8 0.948338 0.259641 0.668908
O O9 0.140454 0.281918 0.000000
O O10 0.500000 0.500000 0.000000
O O11 0.246065 0.511799 0.000000
O O12 0.360860 0.448725 0.098323
O O13 0.500000 0.000000 0.000000
O O14 0.686974 0.500000 0.750000
O O15 0.500000 0.553586 0.750000
#
# Coordination Sequence:
#
# PCOD9499125 Si02
#       7
#    16  16   8  16   8   8  16
#     4  10  23  45  70  97 140 181 223 286 349 411
#     4  11  24  43  71 100 137 180 228 288 345 424
#     4  12  24  46  69 104 133 176 238 290 350 410
#     4  11  24  45  71  98 138 178 227 289 352 407
#     4  12  26  44  68  99 142 185 232 290 342 417
#     4  12  28  44  72 108 138 185 248 287 349 432
#     4  11  23  43  68  99 140 181 228 282 354 419
#
# _framework density 20.366759999999999
#
# number of rings (size 3 to 8) (size 9 to 14) (size 15 to 20)
#    0.000    0.909    6.364    1.636    6.364    1.818 
#    1.636    0.909    0.000    0.000    0.000    0.000 
#    0.000    0.000    0.000    0.000    0.000    0.000 
#
# Total GULP energy -245682.433033 kJ/mol
# GULP energy per Si atom -5583.691660 kJ/mol
# Density = 2.032040 g / cm^3
# Si number density = 20.366760 Si / 1000 Ang^3
#
#
#
# Elastic Constant Matrix: (Units=GPa)
#
#
# Indices 1 2 3 4 5 6 
#
# 1 104.1642 39.1629 16.3638 0.0000 0.0000 0.0000
# 2 39.1629 94.6648 35.5598 0.0000 0.0000 0.0000
# 3 16.3638 35.5598 116.3570 0.0000 0.0000 0.0000
# 4 0.0000 0.0000 0.0000 2.9146 0.0000 0.0000
# 5 0.0000 0.0000 0.0000 0.0000 10.7471 0.0000
# 6 0.0000 0.0000 0.0000 0.0000 0.0000 32.8696
#
#
#
# Elastic Compliance Matrix: (Units=1/GPa)
#
#
# Indices 1 2 3 4 5 6 
#
# 1 0.011372 -0.004636 -0.000182 0.000000 0.000000 0.000000
# 2 -0.004636 0.013824 -0.003573 0.000000 0.000000 0.000000
# 3 -0.000182 -0.003573 0.009712 0.000000 0.000000 0.000000
# 4 0.000000 0.000000 0.000000 0.343104 0.000000 0.000000
# 5 0.000000 0.000000 0.000000 0.000000 0.093048 0.000000
# 6 0.000000 0.000000 0.000000 0.000000 0.000000 0.030423
#
#
# Mechanical properties :
#
#
# Convention : Reuss Voigt Hill
#
# Bulk Modulus (GPa) = 55.17259 55.26212 55.21736
# Shear Modulus (GPa) = 9.53641 24.24623 16.89132
#
# Velocity S-wave (km/s) = 2.16622 3.45408 2.88298
# Velocity P-wave (km/s) = 5.77971 6.56505 6.18486
#
# Compressibility (1/GPa) = 0.01812494
#
# Stress axis : x y z
#
# Youngs Moduli (GPa) = 87.93593 72.34041 102.96830
#
# Poissons Ratio (x) = 0.33537 0.01879
# Poissons Ratio (y) = 0.40767 0.36787
# Poissons Ratio (z) = 0.01605 0.25844
#
# Static dielectric constant tensor:
#      x y z
#    x 1.771030 0.000000 0.000000 
#    y 0.000000 1.725730 0.000000 
#    z 0.000000 0.000000 1.769780 
# 
# From -- ./inp_files/26803.got.cif
#   From: 2010.05.17/outbox.cif.g08.bks.cpg/sg66_14_cif.got.tgz:26803.got - 2010.06.03 17:51:23.
