data_PCOD9499288
_publ_section_title
;
Structure prediction by ZEFSAII (Michael W. Deem and Ramdas Pophale) SiO2 
 PCOD9499288
Probable space group: C C C M
;
_chemical_formula_sum "Si O2"
_cell_formula_units_Z 36
_cell_length_a 5.702503
_cell_length_b 29.074114
_cell_length_c 9.122400
_cell_angle_alpha 90.000000
_cell_angle_beta 90.000000
_cell_angle_gamma 90.000000
_cell_volume 1512.450336
_symmetry_space_group_name_H-M "C C C M"
_symmetry_group_IT_number 66
_symmetry_cell_setting 'orthorhombic'
loop_
_space_group_symop_operation_xyz
x,y,z
-x,-y,z
x,-y,1/2-z
-x,y,1/2-z
-x,-y,-z
x,y,-z
-x,y,1/2+z
x,-y,1/2+z
1/2+x,1/2+y,z
1/2-x,1/2-y,z
1/2+x,1/2-y,1/2-z
1/2-x,1/2+y,1/2-z
1/2-x,1/2-y,-z
1/2+x,1/2+y,-z
1/2-x,1/2+y,1/2+z
1/2+x,1/2-y,1/2+z
loop_
_atom_site_type_symbol
_atom_site_label
_atom_site_fract_x
_atom_site_fract_y
_atom_site_fract_z
Si Si1 0.000000 0.000000 0.750000
Si Si2 0.000000 0.856149 0.250000
Si Si3 0.810386 0.459658 0.000000
Si Si4 0.784420 0.304286 0.000000
Si Si5 0.840224 0.623763 0.000000
O O1 0.155888 0.031257 0.643178
O O2 0.843388 0.825257 0.357975
O O3 0.821893 0.882482 0.142237
O O4 0.000000 0.500000 0.000000
O O5 0.944468 0.411545 0.000000
O O6 0.750000 0.250000 0.000000
O O7 0.047655 0.325051 0.000000
#
# Coordination Sequence:
#
# PCOD9499288 Si02
#       5
#     4   8   8   8   8
#     4  10  26  48  76 112 148 202 250 310 374 440
#     4  10  26  45  74 107 146 190 245 304 375 444
#     4  11  26  47  77 110 153 197 251 311 373 453
#     4  11  26  43  74 105 144 191 245 307 374 441
#     4  11  26  49  73 109 149 197 249 313 372 456
#
# _framework density 23.802436
#
# number of rings (size 3 to 8) (size 9 to 14) (size 15 to 20)
#    0.000    1.333    0.000    2.000    6.222   19.556 
#    0.000    6.667    0.000    0.000    0.000    0.000 
#    0.000    0.000    0.000    0.000    0.000    0.000 
#
# Total GULP energy -101010.129747 kJ/mol
# GULP energy per Si atom -5611.673875 kJ/mol
# Density = 2.374826 g / cm^3
# Si number density = 23.802436 Si / 1000 Ang^3
#
#
#
# Elastic Constant Matrix: (Units=GPa)
#
#
# Indices 1 2 3 4 5 6 
#
# 1 157.4812 76.3030 102.5660 0.0000 0.0000 0.0000
# 2 76.3030 147.7232 71.8493 0.0000 0.0000 0.0000
# 3 102.5660 71.8493 235.8713 0.0000 0.0000 0.0000
# 4 0.0000 0.0000 0.0000 0.6813 0.0000 0.0000
# 5 0.0000 0.0000 0.0000 0.0000 -74.8898 0.0000
# 6 0.0000 0.0000 0.0000 0.0000 0.0000 38.5615
#
#
#
# Elastic Compliance Matrix: (Units=1/GPa)
#
#
# Indices 1 2 3 4 5 6 
#
# 1 0.010336 -0.003701 -0.003367 0.000000 0.000000 0.000000
# 2 -0.003701 0.009272 -0.001215 0.000000 0.000000 0.000000
# 3 -0.003367 -0.001215 0.006074 0.000000 0.000000 0.000000
# 4 0.000000 0.000000 0.000000 1.467843 0.000000 0.000000
# 5 0.000000 0.000000 0.000000 0.000000 -0.013353 0.000000
# 6 0.000000 0.000000 0.000000 0.000000 0.000000 0.025933
#
#
# Mechanical properties :
#
#
# Convention : Reuss Voigt Hill
#
# Bulk Modulus (GPa) = 109.70286 115.83470 112.76878
# Shear Modulus (GPa) = 3.27716 12.22776 7.75246
#
# Velocity S-wave (km/s) = 1.17465 2.26900 1.80667
# Velocity P-wave (km/s) = 6.93028 7.45890 7.19944
#
# Compressibility (1/GPa) = 0.00911553
#
# Stress axis : x y z
#
# Youngs Moduli (GPa) = 96.74627 107.84989 164.63961
#
# Poissons Ratio (x) = 0.39918 0.55437
# Poissons Ratio (y) = 0.35808 0.20003
# Poissons Ratio (z) = 0.32576 0.13103
#
# Static dielectric constant tensor:
#      x y z
#    x 1.907170 0.000000 0.000000 
#    y 0.000000 1.905870 0.000000 
#    z 0.000000 0.000000 1.824780 
# 
# From -- ./inp_files/12378.got.cif
#   From: 2010.05.17/outbox.cif.g08.bks.cpg/sg66_7_cif.got.tgz:12378.got - 2010.06.03 17:51:23.
