data_PCOD9499567
_publ_section_title
;
Structure prediction by ZEFSAII (Michael W. Deem and Ramdas Pophale) SiO2 
 PCOD9499567
Probable space group: C C C M
;
_chemical_formula_sum "Si O2"
_cell_formula_units_Z 72
_cell_length_a 6.948933
_cell_length_b 17.449131
_cell_length_c 25.104331
_cell_angle_alpha 90.000000
_cell_angle_beta 90.000000
_cell_angle_gamma 90.000000
_cell_volume 3043.971486
_symmetry_space_group_name_H-M "C C C M"
_symmetry_group_IT_number 66
_symmetry_cell_setting 'orthorhombic'
loop_
_space_group_symop_operation_xyz
x,y,z
-x,-y,z
x,-y,1/2-z
-x,y,1/2-z
-x,-y,-z
x,y,-z
-x,y,1/2+z
x,-y,1/2+z
1/2+x,1/2+y,z
1/2-x,1/2-y,z
1/2+x,1/2-y,1/2-z
1/2-x,1/2+y,1/2-z
1/2-x,1/2-y,-z
1/2+x,1/2+y,-z
1/2-x,1/2+y,1/2+z
1/2+x,1/2-y,1/2+z
loop_
_atom_site_type_symbol
_atom_site_label
_atom_site_fract_x
_atom_site_fract_y
_atom_site_fract_z
Si Si1 0.500000 0.136584 0.750000
Si Si2 0.736755 0.931387 0.058117
Si Si3 0.701439 0.661949 0.326833
Si Si4 0.805938 0.108193 0.942276
Si Si5 0.242542 0.831962 0.346388
O O1 0.325963 0.105887 0.711597
O O2 0.623548 0.177242 0.704612
O O3 0.672134 0.893420 0.112797
O O4 0.963934 0.908156 0.058540
O O5 0.718839 0.022751 0.060224
O O6 0.661931 0.905647 0.000000
O O7 0.750000 0.750000 0.311440
O O8 0.749845 0.652642 0.389317
O O9 0.471928 0.648466 0.326131
O O10 0.762183 0.143366 0.000000
O O11 0.250000 0.750000 0.375364
#
# Coordination Sequence:
#
# PCOD9499567 Si02
#       5
#     8  16  16  16  16
#     4  12  24  40  57  82 117 154 198 234 280 332
#     4   8  16  35  61  86 115 150 186 229 286 345
#     4  11  22  36  60  87 112 152 191 235 282 335
#     4   8  16  35  61  86 115 150 186 229 286 345
#     4  11  22  36  60  87 112 152 191 235 282 335
#
# _framework density 23.653307999999999
#
# number of rings (size 3 to 8) (size 9 to 14) (size 15 to 20)
#    0.000    2.222    2.222    2.667    0.000    0.889 
#    0.000    4.444    0.000    8.000    0.000    0.000 
#    0.000    0.000    0.000    0.000    0.000    0.000 
#
# Total GULP energy -200651.277903 kJ/mol
# GULP energy per Si atom -5573.646608 kJ/mol
# Density = 2.359947 g / cm^3
# Si number density = 23.653308 Si / 1000 Ang^3
#
#
#
# Elastic Constant Matrix: (Units=GPa)
#
#
# Indices 1 2 3 4 5 6 
#
# 1 145.6796 -3.6701 26.3661 0.0000 0.0000 0.0000
# 2 -3.6701 23.2490 38.1434 0.0000 0.0000 0.0000
# 3 26.3661 38.1434 175.2403 0.0000 0.0000 0.0000
# 4 0.0000 0.0000 0.0000 7.9526 0.0000 0.0000
# 5 0.0000 0.0000 0.0000 0.0000 7.2583 0.0000
# 6 0.0000 0.0000 0.0000 0.0000 0.0000 12.4600
#
#
#
# Elastic Compliance Matrix: (Units=1/GPa)
#
#
# Indices 1 2 3 4 5 6 
#
# 1 0.007364 0.004636 -0.002117 0.000000 0.000000 0.000000
# 2 0.004636 0.069823 -0.015895 0.000000 0.000000 0.000000
# 3 -0.002117 -0.015895 0.009485 0.000000 0.000000 0.000000
# 4 0.000000 0.000000 0.000000 0.125745 0.000000 0.000000
# 5 0.000000 0.000000 0.000000 0.000000 0.137774 0.000000
# 6 0.000000 0.000000 0.000000 0.000000 0.000000 0.080257
#
#
# Mechanical properties :
#
#
# Convention : Reuss Voigt Hill
#
# Bulk Modulus (GPa) = 16.68913 51.76084 34.22499
# Shear Modulus (GPa) = 10.47835 24.42280 17.45058
#
# Velocity S-wave (km/s) = 2.10703 3.21679 2.71913
# Velocity P-wave (km/s) = 3.60423 5.97726 4.93549
#
# Compressibility (1/GPa) = 0.05991923
#
# Stress axis : x y z
#
# Youngs Moduli (GPa) = 135.78956 14.32186 105.43131
#
# Poissons Ratio (x) = -0.06640 0.22321
# Poissons Ratio (y) = -0.62951 1.67588
# Poissons Ratio (z) = 0.28748 0.22765
#
# Static dielectric constant tensor:
#      x y z
#    x 2.016470 0.000000 0.000000 
#    y 0.000000 1.872040 0.000000 
#    z 0.000000 0.000000 1.898270 
# 
# From -- ./inp_files/62321.got.cif
#   From: 2010.05.17/outbox.cif.g08.bks.cpg/sg66_32_cif.got.tgz:62321.got - 2010.06.03 17:51:23.
