data_PCOD9499157
_publ_section_title
;
Structure prediction by ZEFSAII (Michael W. Deem and Ramdas Pophale) SiO2 
 PCOD9499157
Probable space group: C C C M
;
_chemical_formula_sum "Si O2"
_cell_formula_units_Z 80
_cell_length_a 9.926335
_cell_length_b 16.126061
_cell_length_c 23.367378
_cell_angle_alpha 90.000000
_cell_angle_beta 90.000000
_cell_angle_gamma 90.000000
_cell_volume 3740.478908
_symmetry_space_group_name_H-M "C C C M"
_symmetry_group_IT_number 66
_symmetry_cell_setting 'orthorhombic'
loop_
_space_group_symop_operation_xyz
x,y,z
-x,-y,z
x,-y,1/2-z
-x,y,1/2-z
-x,-y,-z
x,y,-z
-x,y,1/2+z
x,-y,1/2+z
1/2+x,1/2+y,z
1/2-x,1/2-y,z
1/2+x,1/2-y,1/2-z
1/2-x,1/2+y,1/2-z
1/2-x,1/2-y,-z
1/2+x,1/2+y,-z
1/2-x,1/2+y,1/2+z
1/2+x,1/2-y,1/2+z
loop_
_atom_site_type_symbol
_atom_site_label
_atom_site_fract_x
_atom_site_fract_y
_atom_site_fract_z
Si Si1 0.716255 0.540702 0.500000
Si Si2 0.153809 0.831339 0.896377
Si Si3 0.500000 0.163388 0.250000
Si Si4 0.738383 0.948749 0.698924
Si Si5 0.129842 0.549734 0.592507
Si Si6 0.906472 0.730928 0.869112
O O1 0.691578 0.610844 0.550438
O O2 0.750136 0.470536 0.549793
O O3 0.250000 0.750000 0.893868
O O4 0.174856 0.886141 0.839241
O O5 0.001593 0.798454 0.898093
O O6 0.379160 0.105373 0.271942
O O7 0.454845 0.217570 0.195977
O O8 0.807240 0.000000 0.750000
O O9 0.670511 0.012908 0.654207
O O10 0.081506 0.643085 0.599106
O O11 0.000000 0.500000 0.569826
O O12 0.750000 0.750000 0.869351
#
# Coordination Sequence:
#
# PCOD9499157 Si02
#       6
#     8  16   8  16  16  16
#     4  10  24  40  71  96 133 182 242 298 342 412
#     4  11  23  44  67 105 140 180 228 297 358 399
#     4  12  21  38  68  96 139 174 222 266 349 416
#     4  11  20  37  68  99 134 181 222 275 345 429
#     4  11  20  41  66  98 131 180 233 283 342 420
#     4  12  27  41  67 102 138 176 233 289 347 420
#
# _framework density 21.387637000000002
#
# number of rings (size 3 to 8) (size 9 to 14) (size 15 to 20)
#    0.000    0.800    6.000    2.100    2.800    0.800 
#    0.000    7.000    4.400    0.000    0.000    0.000 
#    0.000    0.000    0.000    0.000    0.000    0.000 
#
# Total GULP energy -222679.768405 kJ/mol
# GULP energy per Si atom -5566.994210 kJ/mol
# Density = 2.133896 g / cm^3
# Si number density = 21.387637 Si / 1000 Ang^3
#
#
#
# Elastic Constant Matrix: (Units=GPa)
#
#
# Indices 1 2 3 4 5 6 
#
# 1 61.7197 25.8548 5.8362 0.0000 0.0000 0.0000
# 2 25.8548 60.6642 19.6209 0.0000 0.0000 0.0000
# 3 5.8362 19.6209 101.7689 0.0000 0.0000 0.0000
# 4 0.0000 0.0000 0.0000 -85.5875 0.0000 0.0000
# 5 0.0000 0.0000 0.0000 0.0000 -17.0444 0.0000
# 6 0.0000 0.0000 0.0000 0.0000 0.0000 34.1586
#
#
#
# Elastic Compliance Matrix: (Units=1/GPa)
#
#
# Indices 1 2 3 4 5 6 
#
# 1 0.019750 -0.008586 0.000523 0.000000 0.000000 0.000000
# 2 -0.008586 0.021313 -0.003617 0.000000 0.000000 0.000000
# 3 0.000523 -0.003617 0.010494 0.000000 0.000000 0.000000
# 4 0.000000 0.000000 0.000000 -0.011684 0.000000 0.000000
# 5 0.000000 0.000000 0.000000 0.000000 -0.058670 0.000000
# 6 0.000000 0.000000 0.000000 0.000000 0.000000 0.029275
#
#
# Mechanical properties :
#
#
# Convention : Reuss Voigt Hill
#
# Bulk Modulus (GPa) = 35.46594 36.30852 35.88723
# Shear Modulus (GPa) = 115.64200 -2.17194 56.73503
#
# Velocity S-wave (km/s) = 7.36118 -1.00882 5.15603
# Velocity P-wave (km/s) = 9.42697 3.95680 7.22925
#
# Compressibility (1/GPa) = 0.02819607
#
# Stress axis : x y z
#
# Youngs Moduli (GPa) = 50.63369 46.91885 95.29703
#
# Poissons Ratio (x) = 0.40286 -0.04982
# Poissons Ratio (y) = 0.43476 0.34467
# Poissons Ratio (z) = -0.02647 0.16969
#
# Static dielectric constant tensor:
#      x y z
#    x 1.793300 0.000000 0.000000 
#    y 0.000000 1.633450 0.000000 
#    z 0.000000 0.000000 1.688190 
# 
# From -- ./inp_files/56675.got.cif
#   From: 2010.05.17/outbox.cif.g08.bks.cpg/sg66_29_cif.got.tgz:56675.got - 2010.06.03 17:51:23.
