data_PCOD9499834
_publ_section_title
;
Structure prediction by ZEFSAII (Michael W. Deem and Ramdas Pophale) SiO2 
 PCOD9499834
Probable space group: C C C M
;
_chemical_formula_sum "Si O2"
_cell_formula_units_Z 44
_cell_length_a 13.683819
_cell_length_b 8.347094
_cell_length_c 17.843164
_cell_angle_alpha 90.000000
_cell_angle_beta 90.000000
_cell_angle_gamma 90.000000
_cell_volume 2038.048395
_symmetry_space_group_name_H-M "C C C M"
_symmetry_group_IT_number 66
_symmetry_cell_setting 'orthorhombic'
loop_
_space_group_symop_operation_xyz
x,y,z
-x,-y,z
x,-y,1/2-z
-x,y,1/2-z
-x,-y,-z
x,y,-z
-x,y,1/2+z
x,-y,1/2+z
1/2+x,1/2+y,z
1/2-x,1/2-y,z
1/2+x,1/2-y,1/2-z
1/2-x,1/2+y,1/2-z
1/2-x,1/2-y,-z
1/2+x,1/2+y,-z
1/2-x,1/2+y,1/2+z
1/2+x,1/2-y,1/2+z
loop_
_atom_site_type_symbol
_atom_site_label
_atom_site_fract_x
_atom_site_fract_y
_atom_site_fract_z
Si Si1 0.863944 0.417580 0.500000
Si Si2 0.145141 0.728306 0.661597
Si Si3 0.500000 0.500000 0.379352
Si Si4 0.000000 0.500000 0.750000
Si Si5 0.572994 0.743451 0.500000
O O1 0.829792 0.346117 0.579317
O O2 0.850674 0.610486 0.500000
O O3 0.973634 0.346376 0.500000
O O4 0.250000 0.750000 0.700431
O O5 0.071506 0.605217 0.699630
O O6 0.081846 0.891493 0.659780
O O7 0.562921 0.625072 0.429742
#
# Coordination Sequence:
#
# PCOD9499834 Si02
#       5
#     8  16   8   4   8
#     4   9  17  37  65  94 126 160 208 263 312 367
#     4  11  24  43  67  94 126 167 212 260 315 374
#     4   9  18  35  60  90 124 162 208 256 304 370
#     4  12  28  44  60  90 132 172 208 256 320 382
#     4   8  14  29  58  94 129 159 192 255 323 362
#
# _framework density 21.589279000000001
#
# number of rings (size 3 to 8) (size 9 to 14) (size 15 to 20)
#    0.000    2.182    0.000    6.000    0.000    3.636 
#    0.000    7.273    0.000    0.000    0.000    1.273 
#    0.000    0.000    0.000    0.000    0.000    0.000 
#
# Total GULP energy -122567.313182 kJ/mol
# GULP energy per Si atom -5571.241508 kJ/mol
# Density = 2.154014 g / cm^3
# Si number density = 21.589279 Si / 1000 Ang^3
#
#
#
# Elastic Constant Matrix: (Units=GPa)
#
#
# Indices 1 2 3 4 5 6 
#
# 1 141.8177 86.4463 44.4182 0.0000 0.0000 0.0000
# 2 86.4463 192.3214 46.5186 0.0000 0.0000 0.0000
# 3 44.4182 46.5186 57.3858 0.0000 0.0000 0.0000
# 4 0.0000 0.0000 0.0000 35.4977 0.0000 0.0000
# 5 0.0000 0.0000 0.0000 0.0000 -362.9744 0.0000
# 6 0.0000 0.0000 0.0000 0.0000 0.0000 18.8825
#
#
#
# Elastic Compliance Matrix: (Units=1/GPa)
#
#
# Indices 1 2 3 4 5 6 
#
# 1 0.010991 -0.003586 -0.005601 0.000000 0.000000 0.000000
# 2 -0.003586 0.007638 -0.003416 0.000000 0.000000 0.000000
# 3 -0.005601 -0.003416 0.024530 0.000000 0.000000 0.000000
# 4 0.000000 0.000000 0.000000 0.028171 0.000000 0.000000
# 5 0.000000 0.000000 0.000000 0.000000 -0.002755 0.000000
# 6 0.000000 0.000000 0.000000 0.000000 0.000000 0.052959
#
#
# Mechanical properties :
#
#
# Convention : Reuss Voigt Hill
#
# Bulk Modulus (GPa) = 55.69739 82.92124 69.30932
# Shear Modulus (GPa) = 32.73898 -47.44272 -7.35187
#
# Velocity S-wave (km/s) = 3.89838 -4.69285 -1.84736
# Velocity P-wave (km/s) = 6.79101 3.02128 5.25576
#
# Compressibility (1/GPa) = 0.01795416
#
# Stress axis : x y z
#
# Youngs Moduli (GPa) = 90.98167 130.93164 40.76634
#
# Poissons Ratio (x) = 0.46948 0.22833
# Poissons Ratio (y) = 0.32623 0.13925
# Poissons Ratio (z) = 0.50957 0.44724
#
# Static dielectric constant tensor:
#      x y z
#    x 1.636040 0.000000 0.000000 
#    y 0.000000 1.894170 0.000000 
#    z 0.000000 0.000000 1.838720 
# 
# From -- ./inp_files/39486.got.cif
#   From: 2010.05.17/outbox.cif.g08.bks.cpg/sg66_20_cif.got.tgz:39486.got - 2010.06.03 17:51:23.
