data_PCOD9499297
_publ_section_title
;
Structure prediction by ZEFSAII (Michael W. Deem and Ramdas Pophale) SiO2 
 PCOD9499297
Probable space group: C C C M
;
_chemical_formula_sum "Si O2"
_cell_formula_units_Z 60
_cell_length_a 30.856081
_cell_length_b 4.878373
_cell_length_c 16.540689
_cell_angle_alpha 90.000000
_cell_angle_beta 90.000000
_cell_angle_gamma 90.000000
_cell_volume 2489.828108
_symmetry_space_group_name_H-M "C C C M"
_symmetry_group_IT_number 66
_symmetry_cell_setting 'orthorhombic'
loop_
_space_group_symop_operation_xyz
x,y,z
-x,-y,z
x,-y,1/2-z
-x,y,1/2-z
-x,-y,-z
x,y,-z
-x,y,1/2+z
x,-y,1/2+z
1/2+x,1/2+y,z
1/2-x,1/2-y,z
1/2+x,1/2-y,1/2-z
1/2-x,1/2+y,1/2-z
1/2-x,1/2-y,-z
1/2+x,1/2+y,-z
1/2-x,1/2+y,1/2+z
1/2+x,1/2-y,1/2+z
loop_
_atom_site_type_symbol
_atom_site_label
_atom_site_fract_x
_atom_site_fract_y
_atom_site_fract_z
Si Si1 0.660618 0.025484 0.500000
Si Si2 0.853986 0.500000 0.750000
Si Si3 0.099954 0.011773 0.500000
Si Si4 0.425148 0.670552 0.668904
Si Si5 0.220039 0.507466 0.853486
Si Si6 0.000000 0.500000 0.750000
O O1 0.640525 0.719270 0.500000
O O2 0.617987 0.206025 0.500000
O O3 0.690729 0.101422 0.574872
O O4 0.885342 0.382386 0.680844
O O5 0.816658 0.334608 0.798088
O O6 0.075370 0.009557 0.587109
O O7 0.416935 0.500000 0.750000
O O8 0.469749 0.823021 0.690276
O O9 0.250000 0.250000 0.823331
O O10 0.250000 0.750000 0.883734
#
# Coordination Sequence:
#
# PCOD9499297 Si02
#       6
#     8   8   8  16  16   4
#     4  12  24  47  66 108 141 198 253 312 364 437
#     4  11  24  41  68  96 146 188 258 299 366 439
#     4  12  26  46  81 109 150 196 255 297 380 450
#     4  11  25  48  78 109 148 195 239 311 372 459
#     4  12  25  41  64 101 144 194 254 311 365 418
#     4  10  26  50  76 118 144 182 242 298 386 454
#
# _framework density 24.098047999999999
#
# number of rings (size 3 to 8) (size 9 to 14) (size 15 to 20)
#    0.000    0.533    2.667    5.200    7.467    0.533 
#    0.000    2.667    0.000    0.000    0.000    0.000 
#    0.000    0.000    0.000    0.000    0.000    0.000 
#
# Total GULP energy -167001.678858 kJ/mol
# GULP energy per Si atom -5566.722629 kJ/mol
# Density = 2.404320 g / cm^3
# Si number density = 24.098048 Si / 1000 Ang^3
#
#
#
# Elastic Constant Matrix: (Units=GPa)
#
#
# Indices 1 2 3 4 5 6 
#
# 1 135.8027 23.5516 43.6184 0.0000 0.0000 0.0000
# 2 23.5516 56.3468 7.2570 0.0000 0.0000 0.0000
# 3 43.6184 7.2570 115.0122 0.0000 0.0000 0.0000
# 4 0.0000 0.0000 0.0000 31.3422 0.0000 0.0000
# 5 0.0000 0.0000 0.0000 0.0000 21.6681 0.0000
# 6 0.0000 0.0000 0.0000 0.0000 0.0000 18.8643
#
#
#
# Elastic Compliance Matrix: (Units=1/GPa)
#
#
# Indices 1 2 3 4 5 6 
#
# 1 0.008967 -0.003337 -0.003190 0.000000 0.000000 0.000000
# 2 -0.003337 0.019135 0.000058 0.000000 0.000000 0.000000
# 3 -0.003190 0.000058 0.009901 0.000000 0.000000 0.000000
# 4 0.000000 0.000000 0.000000 0.031906 0.000000 0.000000
# 5 0.000000 0.000000 0.000000 0.000000 0.046151 0.000000
# 6 0.000000 0.000000 0.000000 0.000000 0.000000 0.053010
#
#
# Mechanical properties :
#
#
# Convention : Reuss Voigt Hill
#
# Bulk Modulus (GPa) = 39.89721 50.66843 45.28282
# Shear Modulus (GPa) = 26.26573 29.89058 28.07816
#
# Velocity S-wave (km/s) = 3.30502 3.52571 3.41715
# Velocity P-wave (km/s) = 5.58179 6.13562 5.86525
#
# Compressibility (1/GPa) = 0.02506441
#
# Stress axis : x y z
#
# Youngs Moduli (GPa) = 111.51982 52.26147 101.00066
#
# Poissons Ratio (x) = 0.17440 0.32221
# Poissons Ratio (y) = 0.37216 -0.00588
# Poissons Ratio (z) = 0.35577 -0.00304
#
# Static dielectric constant tensor:
#      x y z
#    x 1.680060 0.000000 0.000000 
#    y 0.000000 2.074590 0.000000 
#    z 0.000000 0.000000 2.171170 
# 
# From -- ./inp_files/43983.got.cif
#   From: 2010.05.17/outbox.cif.g08.bks.cpg/sg66_22_cif.got.tgz:43983.got - 2010.06.03 17:51:23.
