data_PCOD9499642
_publ_section_title
;
Structure prediction by ZEFSAII (Michael W. Deem and Ramdas Pophale) SiO2 
 PCOD9499642
Probable space group: C C C M
;
_chemical_formula_sum "Si O2"
_cell_formula_units_Z 64
_cell_length_a 11.016856
_cell_length_b 17.448415
_cell_length_c 15.924742
_cell_angle_alpha 90.000000
_cell_angle_beta 90.000000
_cell_angle_gamma 90.000000
_cell_volume 3061.160213
_symmetry_space_group_name_H-M "C C C M"
_symmetry_group_IT_number 66
_symmetry_cell_setting 'orthorhombic'
loop_
_space_group_symop_operation_xyz
x,y,z
-x,-y,z
x,-y,1/2-z
-x,y,1/2-z
-x,-y,-z
x,y,-z
-x,y,1/2+z
x,-y,1/2+z
1/2+x,1/2+y,z
1/2-x,1/2-y,z
1/2+x,1/2-y,1/2-z
1/2-x,1/2+y,1/2-z
1/2-x,1/2-y,-z
1/2+x,1/2+y,-z
1/2-x,1/2+y,1/2+z
1/2+x,1/2-y,1/2+z
loop_
_atom_site_type_symbol
_atom_site_label
_atom_site_fract_x
_atom_site_fract_y
_atom_site_fract_z
Si Si1 0.483122 0.388225 0.347621
Si Si2 0.889920 0.260736 0.599217
Si Si3 0.303045 0.505474 0.596094
Si Si4 0.932636 0.570857 0.839729
O O1 0.500000 0.406869 0.250000
O O2 0.516996 0.299955 0.361157
O O3 0.584317 0.435984 0.398214
O O4 0.354818 0.422357 0.377845
O O5 0.887839 0.245959 0.500000
O O6 0.750000 0.250000 0.630336
O O7 0.930496 0.347239 0.616649
O O8 0.258492 0.504929 0.500000
O O9 0.204732 0.540111 0.659472
O O10 0.000000 0.500000 0.884368
O O11 0.000000 0.579649 0.750000
#
# Coordination Sequence:
#
# PCOD9499642 Si02
#       4
#    16  16  16  16
#     4  11  23  38  70 103 135 172 223 283 339 397
#     4  11  22  42  69  99 135 176 225 277 338 409
#     4  11  22  41  68 100 134 173 224 279 337 404
#     4  11  26  42  66  95 137 181 223 274 341 409
#
# _framework density 20.907105999999999
#
# number of rings (size 3 to 8) (size 9 to 14) (size 15 to 20)
#    0.000    1.000    2.500    6.000    7.000    2.000 
#    0.000    1.250    0.000    3.000    0.000    0.000 
#    0.000    0.000    0.000    0.000    0.000    0.000 
#
# Total GULP energy -178655.275719 kJ/mol
# GULP energy per Si atom -5582.977366 kJ/mol
# Density = 2.085952 g / cm^3
# Si number density = 20.907106 Si / 1000 Ang^3
#
#
#
# Elastic Constant Matrix: (Units=GPa)
#
#
# Indices 1 2 3 4 5 6 
#
# 1 69.0657 32.4516 19.8928 0.0000 0.0000 0.0000
# 2 32.4516 161.5409 7.9720 0.0000 0.0000 0.0000
# 3 19.8928 7.9720 103.6155 0.0000 0.0000 0.0000
# 4 0.0000 0.0000 0.0000 26.7946 0.0000 0.0000
# 5 0.0000 0.0000 0.0000 0.0000 25.6240 0.0000
# 6 0.0000 0.0000 0.0000 0.0000 0.0000 35.6142
#
#
#
# Elastic Compliance Matrix: (Units=1/GPa)
#
#
# Indices 1 2 3 4 5 6 
#
# 1 0.016862 -0.003240 -0.002988 0.000000 0.000000 0.000000
# 2 -0.003240 0.006837 0.000096 0.000000 0.000000 0.000000
# 3 -0.002988 0.000096 0.010217 0.000000 0.000000 0.000000
# 4 0.000000 0.000000 0.000000 0.037321 0.000000 0.000000
# 5 0.000000 0.000000 0.000000 0.000000 0.039026 0.000000
# 6 0.000000 0.000000 0.000000 0.000000 0.000000 0.028079
#
#
# Mechanical properties :
#
#
# Convention : Reuss Voigt Hill
#
# Bulk Modulus (GPa) = 46.18506 50.53944 48.36225
# Shear Modulus (GPa) = 31.68119 35.86693 33.77406
#
# Velocity S-wave (km/s) = 3.89695 4.14640 4.02361
# Velocity P-wave (km/s) = 6.51052 6.86654 6.69089
#
# Compressibility (1/GPa) = 0.02165202
#
# Stress axis : x y z
#
# Youngs Moduli (GPa) = 59.30523 146.27365 97.87296
#
# Poissons Ratio (x) = 0.47391 0.29244
# Poissons Ratio (y) = 0.19214 -0.00940
# Poissons Ratio (z) = 0.17720 -0.01405
#
# Static dielectric constant tensor:
#      x y z
#    x 1.844270 0.000000 0.000000 
#    y 0.000000 1.765520 0.000000 
#    z 0.000000 0.000000 1.735050 
# 
# From -- ./inp_files/25769.got.cif
#   From: 2010.05.17/outbox.cif.g08.bks.cpg/sg66_13_cif.got.tgz:25769.got - 2010.06.03 17:51:23.
