data_PCOD9499186
_publ_section_title
;
Structure prediction by ZEFSAII (Michael W. Deem and Ramdas Pophale) SiO2 
 PCOD9499186
Probable space group: C C C M
;
_chemical_formula_sum "Si O2"
_cell_formula_units_Z 80
_cell_length_a 18.085777
_cell_length_b 8.023765
_cell_length_c 22.300102
_cell_angle_alpha 90.000000
_cell_angle_beta 90.000000
_cell_angle_gamma 90.000000
_cell_volume 3236.102148
_symmetry_space_group_name_H-M "C C C M"
_symmetry_group_IT_number 66
_symmetry_cell_setting 'orthorhombic'
loop_
_space_group_symop_operation_xyz
x,y,z
-x,-y,z
x,-y,1/2-z
-x,y,1/2-z
-x,-y,-z
x,y,-z
-x,y,1/2+z
x,-y,1/2+z
1/2+x,1/2+y,z
1/2-x,1/2-y,z
1/2+x,1/2-y,1/2-z
1/2-x,1/2+y,1/2-z
1/2-x,1/2-y,-z
1/2+x,1/2+y,-z
1/2-x,1/2+y,1/2+z
1/2+x,1/2-y,1/2+z
loop_
_atom_site_type_symbol
_atom_site_label
_atom_site_fract_x
_atom_site_fract_y
_atom_site_fract_z
Si Si1 0.311285 0.575195 0.932017
Si Si2 0.849928 0.554096 0.400494
Si Si3 0.600452 0.278996 0.614533
Si Si4 0.668631 0.201266 0.258193
Si Si5 0.541211 0.786743 0.313008
O O1 0.239169 0.540012 0.890129
O O2 0.345644 0.760469 0.928147
O O3 0.374370 0.445644 0.916760
O O4 0.283442 0.551233 0.000000
O O5 0.878332 0.379759 0.427120
O O6 0.915310 0.573229 0.350589
O O7 0.650467 0.248064 0.673882
O O8 0.518130 0.287761 0.641870
O O9 0.750000 0.250000 0.241333
O O10 0.612850 0.303730 0.214672
O O11 0.661210 0.000000 0.250000
O O12 0.500000 0.829112 0.250000
#
# Coordination Sequence:
#
# PCOD9499186 Si02
#       5
#    16  16  16  16  16
#     4  11  27  48  72 105 142 189 262 325 366 430
#     4  11  22  42  75 100 139 191 243 305 377 441
#     4  11  24  44  70 105 145 196 235 300 379 450
#     4  11  23  39  69 108 149 192 243 291 365 461
#     4  10  24  42  71 105 153 197 234 297 378 462
#
# _framework density 24.721098000000001
#
# number of rings (size 3 to 8) (size 9 to 14) (size 15 to 20)
#    0.000    1.200    2.000    3.600    5.600    3.200 
#    0.000   11.000    0.000    6.000    0.000    0.000 
#    0.000    0.000    0.000    0.000    0.000    0.000 
#
# Total GULP energy -222898.118474 kJ/mol
# GULP energy per Si atom -5572.452962 kJ/mol
# Density = 2.466483 g / cm^3
# Si number density = 24.721098 Si / 1000 Ang^3
#
#
#
# Elastic Constant Matrix: (Units=GPa)
#
#
# Indices 1 2 3 4 5 6 
#
# 1 200.8627 58.5426 45.4810 0.0000 0.0000 0.0000
# 2 58.5426 135.6588 29.6600 0.0000 0.0000 0.0000
# 3 45.4810 29.6600 68.3669 0.0000 0.0000 0.0000
# 4 0.0000 0.0000 0.0000 -29.8970 0.0000 0.0000
# 5 0.0000 0.0000 0.0000 0.0000 11.9819 0.0000
# 6 0.0000 0.0000 0.0000 0.0000 0.0000 34.7077
#
#
#
# Elastic Compliance Matrix: (Units=1/GPa)
#
#
# Indices 1 2 3 4 5 6 
#
# 1 0.006316 -0.001996 -0.003335 0.000000 0.000000 0.000000
# 2 -0.001996 0.008775 -0.002479 0.000000 0.000000 0.000000
# 3 -0.003335 -0.002479 0.017921 0.000000 0.000000 0.000000
# 4 0.000000 0.000000 0.000000 -0.033448 0.000000 0.000000
# 5 0.000000 0.000000 0.000000 0.000000 0.083459 0.000000
# 6 0.000000 0.000000 0.000000 0.000000 0.000000 0.028812
#
#
# Mechanical properties :
#
#
# Convention : Reuss Voigt Hill
#
# Bulk Modulus (GPa) = 57.50193 74.69509 66.09851
# Shear Modulus (GPa) = 37.52269 21.43883 29.48076
#
# Velocity S-wave (km/s) = 3.90017 2.94807 3.45706
# Velocity P-wave (km/s) = 6.60247 6.47061 6.53687
#
# Compressibility (1/GPa) = 0.01739072
#
# Stress axis : x y z
#
# Youngs Moduli (GPa) = 158.33913 113.96205 55.79967
#
# Poissons Ratio (x) = 0.22749 0.18611
# Poissons Ratio (y) = 0.31608 0.13832
# Poissons Ratio (z) = 0.52812 0.28250
#
# Static dielectric constant tensor:
#      x y z
#    x 1.973350 0.000000 0.000000 
#    y 0.000000 2.077720 0.000000 
#    z 0.000000 0.000000 2.049710 
# 
# From -- ./inp_files/65066.got.cif
#   From: 2010.05.17/outbox.cif.g08.bks.cpg/sg66_33_cif.got.tgz:65066.got - 2010.06.03 17:51:23.
