data_PCOD9499056
_publ_section_title
;
Structure prediction by ZEFSAII (Michael W. Deem and Ramdas Pophale) SiO2 
 PCOD9499056
Probable space group: C C C M
;
_chemical_formula_sum "Si O2"
_cell_formula_units_Z 80
_cell_length_a 14.423341
_cell_length_b 10.180667
_cell_length_c 27.043375
_cell_angle_alpha 90.000000
_cell_angle_beta 90.000000
_cell_angle_gamma 90.000000
_cell_volume 3971.028409
_symmetry_space_group_name_H-M "C C C M"
_symmetry_group_IT_number 66
_symmetry_cell_setting 'orthorhombic'
loop_
_space_group_symop_operation_xyz
x,y,z
-x,-y,z
x,-y,1/2-z
-x,y,1/2-z
-x,-y,-z
x,y,-z
-x,y,1/2+z
x,-y,1/2+z
1/2+x,1/2+y,z
1/2-x,1/2-y,z
1/2+x,1/2-y,1/2-z
1/2-x,1/2+y,1/2-z
1/2-x,1/2-y,-z
1/2+x,1/2+y,-z
1/2-x,1/2+y,1/2+z
1/2+x,1/2-y,1/2+z
loop_
_atom_site_type_symbol
_atom_site_label
_atom_site_fract_x
_atom_site_fract_y
_atom_site_fract_z
Si Si1 0.601709 0.566855 0.057992
Si Si2 0.141027 0.726562 0.631114
Si Si3 0.018097 0.200597 0.306489
Si Si4 0.630127 0.966122 0.307782
Si Si5 0.697184 0.620202 0.366566
O O1 0.500000 0.500000 0.064689
O O2 0.607341 0.716563 0.078516
O O3 0.675976 0.484059 0.090304
O O4 0.622853 0.562746 0.000000
O O5 0.250000 0.750000 0.636153
O O6 0.118778 0.581064 0.651238
O O7 0.080750 0.815761 0.667916
O O8 0.053447 0.352110 0.309157
O O9 0.099055 0.136680 0.338787
O O10 0.000000 0.163157 0.250000
O O11 0.730941 0.915264 0.323440
O O12 0.632822 0.000000 0.250000
O O13 0.750000 0.750000 0.388082
#
# Coordination Sequence:
#
# PCOD9499056 Si02
#       5
#    16  16  16  16  16
#     4  11  24  46  68  89 123 167 217 278 329 367
#     4  12  24  39  64  95 128 166 217 260 308 387
#     4  11  23  38  63  91 132 177 206 248 317 383
#     4  11  23  39  63  93 133 171 205 251 316 381
#     4  10  23  42  64  93 128 166 215 265 313 386
#
# _framework density 20.145914999999999
#
# number of rings (size 3 to 8) (size 9 to 14) (size 15 to 20)
#    0.000    1.000    6.000    0.600    2.800    0.800 
#    0.000    1.000    0.000    2.400    0.000    0.000 
#    0.000    0.000    0.000    0.000    0.000    0.000 
#
# Total GULP energy -222841.612229 kJ/mol
# GULP energy per Si atom -5571.040306 kJ/mol
# Density = 2.010006 g / cm^3
# Si number density = 20.145915 Si / 1000 Ang^3
#
#
#
# Elastic Constant Matrix: (Units=GPa)
#
#
# Indices 1 2 3 4 5 6 
#
# 1 108.3622 -1.0090 47.6467 0.0000 0.0000 0.0000
# 2 -1.0090 95.2561 47.7180 0.0000 0.0000 0.0000
# 3 47.6467 47.7180 133.2333 0.0000 0.0000 0.0000
# 4 0.0000 0.0000 0.0000 10.5517 0.0000 0.0000
# 5 0.0000 0.0000 0.0000 0.0000 13.0802 0.0000
# 6 0.0000 0.0000 0.0000 0.0000 0.0000 11.3196
#
#
#
# Elastic Compliance Matrix: (Units=1/GPa)
#
#
# Indices 1 2 3 4 5 6 
#
# 1 0.011475 0.002653 -0.005054 0.000000 0.000000 0.000000
# 2 0.002653 0.013407 -0.005751 0.000000 0.000000 0.000000
# 3 -0.005054 -0.005751 0.011373 0.000000 0.000000 0.000000
# 4 0.000000 0.000000 0.000000 0.094772 0.000000 0.000000
# 5 0.000000 0.000000 0.000000 0.000000 0.076452 0.000000
# 6 0.000000 0.000000 0.000000 0.000000 0.000000 0.088342
#
#
# Mechanical properties :
#
#
# Convention : Reuss Voigt Hill
#
# Bulk Modulus (GPa) = 50.11987 58.39589 54.25788
# Shear Modulus (GPa) = 15.68511 23.15668 19.42090
#
# Velocity S-wave (km/s) = 2.79332 3.39403 3.10822
# Velocity P-wave (km/s) = 5.94441 6.66398 6.31445
#
# Compressibility (1/GPa) = 0.01995217
#
# Stress axis : x y z
#
# Youngs Moduli (GPa) = 87.14368 74.58861 87.92999
#
# Poissons Ratio (x) = -0.19791 0.44441
# Poissons Ratio (y) = -0.23123 0.50565
# Poissons Ratio (z) = 0.44043 0.42893
#
# Static dielectric constant tensor:
#      x y z
#    x 1.991200 0.000000 0.000000 
#    y 0.000000 1.932210 0.000000 
#    z 0.000000 0.000000 1.670400 
# 
# From -- ./inp_files/57897.got.cif
#   From: 2010.05.17/outbox.cif.g08.bks.cpg/sg66_29_cif.got.tgz:57897.got - 2010.06.03 17:51:23.
