data_PCOD9499527
_publ_section_title
;
Structure prediction by ZEFSAII (Michael W. Deem and Ramdas Pophale) SiO2 
 PCOD9499527
Probable space group: C C C M
;
_chemical_formula_sum "Si O2"
_cell_formula_units_Z 64
_cell_length_a 11.618314
_cell_length_b 10.486144
_cell_length_c 22.339512
_cell_angle_alpha 90.000000
_cell_angle_beta 90.000000
_cell_angle_gamma 90.000000
_cell_volume 2721.652093
_symmetry_space_group_name_H-M "C C C M"
_symmetry_group_IT_number 66
_symmetry_cell_setting 'orthorhombic'
loop_
_space_group_symop_operation_xyz
x,y,z
-x,-y,z
x,-y,1/2-z
-x,y,1/2-z
-x,-y,-z
x,y,-z
-x,y,1/2+z
x,-y,1/2+z
1/2+x,1/2+y,z
1/2-x,1/2-y,z
1/2+x,1/2-y,1/2-z
1/2-x,1/2+y,1/2-z
1/2-x,1/2-y,-z
1/2+x,1/2+y,-z
1/2-x,1/2+y,1/2+z
1/2+x,1/2-y,1/2+z
loop_
_atom_site_type_symbol
_atom_site_label
_atom_site_fract_x
_atom_site_fract_y
_atom_site_fract_z
Si Si1 0.630218 0.954291 0.124268
Si Si2 0.719281 0.966154 0.500000
Si Si3 0.838864 0.049123 0.182819
Si Si4 0.538999 0.308007 0.369302
Si Si5 0.563414 0.290227 0.000000
O O1 0.705712 0.049790 0.164612
O O2 0.614352 0.812893 0.150308
O O3 0.500000 0.000000 0.117054
O O4 0.688514 0.956163 0.059133
O O5 0.637754 0.840065 0.500000
O O6 0.847634 0.908956 0.500000
O O7 0.889234 0.934797 0.142426
O O8 0.853740 0.000000 0.250000
O O9 0.918755 0.169020 0.166399
O O10 0.508321 0.293411 0.439036
#
# Coordination Sequence:
#
# PCOD9499527 Si02
#       5
#    16   8  16  16   8
#     4  12  24  44  72 106 139 182 235 288 355 426
#     4  11  22  42  67 110 154 176 224 296 356 438
#     4  11  27  51  68  97 143 187 242 300 348 418
#     4  11  23  45  74 101 137 186 231 289 361 422
#     4  11  21  40  75 104 145 192 218 285 375 429
#
# _framework density 23.515129000000002
#
# number of rings (size 3 to 8) (size 9 to 14) (size 15 to 20)
#    0.000    0.750    5.000    3.375    0.000    4.500 
#   13.500    2.500    0.000    0.000    0.000    0.000 
#    0.000    0.000    0.000    0.000    0.000    0.000 
#
# Total GULP energy -179118.677805 kJ/mol
# GULP energy per Si atom -5597.458681 kJ/mol
# Density = 2.346161 g / cm^3
# Si number density = 23.515129 Si / 1000 Ang^3
#
#
#
# Elastic Constant Matrix: (Units=GPa)
#
#
# Indices 1 2 3 4 5 6 
#
# 1 116.0144 24.1038 32.3427 0.0000 0.0000 0.0000
# 2 24.1038 90.5028 -0.6131 0.0000 0.0000 0.0000
# 3 32.3427 -0.6131 124.5889 0.0000 0.0000 0.0000
# 4 0.0000 0.0000 0.0000 -31.2410 0.0000 0.0000
# 5 0.0000 0.0000 0.0000 0.0000 15.4392 0.0000
# 6 0.0000 0.0000 0.0000 0.0000 0.0000 32.1717
#
#
#
# Elastic Compliance Matrix: (Units=1/GPa)
#
#
# Indices 1 2 3 4 5 6 
#
# 1 0.009890 -0.002651 -0.002580 0.000000 0.000000 0.000000
# 2 -0.002651 0.011761 0.000746 0.000000 0.000000 0.000000
# 3 -0.002580 0.000746 0.008700 0.000000 0.000000 0.000000
# 4 0.000000 0.000000 0.000000 -0.032009 0.000000 0.000000
# 5 0.000000 0.000000 0.000000 0.000000 0.064770 0.000000
# 6 0.000000 0.000000 0.000000 0.000000 0.000000 0.031083
#
#
# Mechanical properties :
#
#
# Convention : Reuss Voigt Hill
#
# Bulk Modulus (GPa) = 46.77484 49.19699 47.98591
# Shear Modulus (GPa) = 45.33398 21.62547 33.47973
#
# Velocity S-wave (km/s) = 4.39551 3.03585 3.77736
# Velocity P-wave (km/s) = 6.75982 5.76674 6.28294
#
# Compressibility (1/GPa) = 0.02137901
#
# Stress axis : x y z
#
# Youngs Moduli (GPa) = 101.11346 85.02958 114.94337
#
# Poissons Ratio (x) = 0.22545 0.29660
# Poissons Ratio (y) = 0.26810 -0.08577
# Poissons Ratio (z) = 0.26091 -0.06345
#
# Static dielectric constant tensor:
#      x y z
#    x 1.962050 0.000000 0.000000 
#    y 0.000000 1.940770 0.000000 
#    z 0.000000 0.000000 1.858140 
# 
# From -- ./inp_files/56324.got.cif
#   From: 2010.05.17/outbox.cif.g08.bks.cpg/sg66_29_cif.got.tgz:56324.got - 2010.06.03 17:51:23.
