data_PCOD9499400
_publ_section_title
;
Structure prediction by ZEFSAII (Michael W. Deem and Ramdas Pophale) SiO2 
 PCOD9499400
Probable space group: C C C M
;
_chemical_formula_sum "Si O2"
_cell_formula_units_Z 88
_cell_length_a 13.375466
_cell_length_b 13.473903
_cell_length_c 21.477654
_cell_angle_alpha 90.000000
_cell_angle_beta 90.000000
_cell_angle_gamma 90.000000
_cell_volume 3870.697036
_symmetry_space_group_name_H-M "C C C M"
_symmetry_group_IT_number 66
_symmetry_cell_setting 'orthorhombic'
loop_
_space_group_symop_operation_xyz
x,y,z
-x,-y,z
x,-y,1/2-z
-x,y,1/2-z
-x,-y,-z
x,y,-z
-x,y,1/2+z
x,-y,1/2+z
1/2+x,1/2+y,z
1/2-x,1/2-y,z
1/2+x,1/2-y,1/2-z
1/2-x,1/2+y,1/2-z
1/2-x,1/2-y,-z
1/2+x,1/2+y,-z
1/2-x,1/2+y,1/2+z
1/2+x,1/2-y,1/2+z
loop_
_atom_site_type_symbol
_atom_site_label
_atom_site_fract_x
_atom_site_fract_y
_atom_site_fract_z
Si Si1 0.053607 0.396604 0.618595
Si Si2 0.187650 0.837476 0.760113
Si Si3 0.517669 0.314787 0.069823
Si Si4 0.500000 0.801026 0.750000
Si Si5 0.788699 0.932029 0.616976
Si Si6 0.805575 0.150126 0.620816
O O1 0.024246 0.303555 0.576277
O O2 0.019553 0.367133 0.688987
O O3 0.173442 0.400875 0.614331
O O4 0.000000 0.500000 0.602375
O O5 0.250000 0.750000 0.793411
O O6 0.179902 0.924548 0.809635
O O7 0.232147 0.861525 0.692560
O O8 0.089883 0.775920 0.744364
O O9 0.624107 0.365461 0.086101
O O10 0.425531 0.342253 0.114621
O O11 0.490036 0.344197 0.000000
O O12 0.785841 0.043633 0.590851
O O13 0.750000 0.250000 0.597125
#
# Coordination Sequence:
#
# PCOD9499400 Si02
#       6
#    16  16  16   8  16  16
#     4  12  26  44  71 107 141 183 228 287 358 426
#     4  11  20  38  68 102 142 179 220 270 341 427
#     4  12  27  49  70  95 136 188 242 299 354 414
#     4  12  21  40  69 104 150 178 217 276 345 426
#     4  12  24  43  72 104 139 182 237 286 348 429
#     4  11  25  43  71 105 142 182 227 290 357 427
#
# _framework density 22.734923999999999
#
# number of rings (size 3 to 8) (size 9 to 14) (size 15 to 20)
#    0.000    0.364    5.455    3.000    2.545    5.091 
#    0.000    4.545    0.000    0.000    0.000    0.000 
#    0.000    0.000    0.000    0.000    0.000    0.000 
#
# Total GULP energy -245538.047392 kJ/mol
# GULP energy per Si atom -5580.410168 kJ/mol
# Density = 2.268318 g / cm^3
# Si number density = 22.734924 Si / 1000 Ang^3
#
#
#
# Elastic Constant Matrix: (Units=GPa)
#
#
# Indices 1 2 3 4 5 6 
#
# 1 87.5935 9.9804 -2.2997 0.0000 0.0000 0.0000
# 2 9.9804 96.5971 2.3346 0.0000 0.0000 0.0000
# 3 -2.2997 2.3346 60.3506 0.0000 0.0000 0.0000
# 4 0.0000 0.0000 0.0000 -1.6059 0.0000 0.0000
# 5 0.0000 0.0000 0.0000 0.0000-1091.6981 0.0000
# 6 0.0000 0.0000 0.0000 0.0000 0.0000 25.8677
#
#
#
# Elastic Compliance Matrix: (Units=1/GPa)
#
#
# Indices 1 2 3 4 5 6 
#
# 1 0.011567 -0.001207 0.000487 0.000000 0.000000 0.000000
# 2 -0.001207 0.010488 -0.000452 0.000000 0.000000 0.000000
# 3 0.000487 -0.000452 0.016606 0.000000 0.000000 0.000000
# 4 0.000000 0.000000 0.000000 -0.622719 0.000000 0.000000
# 5 0.000000 0.000000 0.000000 0.000000 -0.000916 0.000000
# 6 0.000000 0.000000 0.000000 0.000000 0.000000 0.038658
#
#
# Mechanical properties :
#
#
# Convention : Reuss Voigt Hill
#
# Bulk Modulus (GPa) = 27.53438 29.39687 28.46562
# Shear Modulus (GPa) = -9.40083 -197.85220 -103.62652
#
# Velocity S-wave (km/s) = -2.03567 -9.33888 -6.75864
# Velocity P-wave (km/s) = 2.57139 10.16503 6.95398
#
# Compressibility (1/GPa) = 0.03631824
#
# Stress axis : x y z
#
# Youngs Moduli (GPa) = 86.45529 95.34811 60.21957
#
# Poissons Ratio (x) = 0.11507 -0.02935
# Poissons Ratio (y) = 0.10434 0.02720
# Poissons Ratio (z) = -0.04214 0.04307
#
# Static dielectric constant tensor:
#      x y z
#    x 1.750160 0.000000 0.000000 
#    y 0.000000 2.186460 0.000000 
#    z 0.000000 0.000000 1.879230 
# 
# From -- ./inp_files/56754.got.cif
#   From: 2010.05.17/outbox.cif.g08.bks.cpg/sg66_29_cif.got.tgz:56754.got - 2010.06.03 17:51:23.
