data_PCOD9499412
_publ_section_title
;
Structure prediction by ZEFSAII (Michael W. Deem and Ramdas Pophale) SiO2 
 PCOD9499412
Probable space group: C C C M
;
_chemical_formula_sum "Si O2"
_cell_formula_units_Z 60
_cell_length_a 7.598996
_cell_length_b 13.377292
_cell_length_c 30.703915
_cell_angle_alpha 90.000000
_cell_angle_beta 90.000000
_cell_angle_gamma 90.000000
_cell_volume 3121.175419
_symmetry_space_group_name_H-M "C C C M"
_symmetry_group_IT_number 66
_symmetry_cell_setting 'orthorhombic'
loop_
_space_group_symop_operation_xyz
x,y,z
-x,-y,z
x,-y,1/2-z
-x,y,1/2-z
-x,-y,-z
x,y,-z
-x,y,1/2+z
x,-y,1/2+z
1/2+x,1/2+y,z
1/2-x,1/2-y,z
1/2+x,1/2-y,1/2-z
1/2-x,1/2+y,1/2-z
1/2-x,1/2-y,-z
1/2+x,1/2+y,-z
1/2-x,1/2+y,1/2+z
1/2+x,1/2-y,1/2+z
loop_
_atom_site_type_symbol
_atom_site_label
_atom_site_fract_x
_atom_site_fract_y
_atom_site_fract_z
Si Si1 0.324287 0.862566 0.282799
Si Si2 0.500000 0.000000 0.644860
Si Si3 0.500000 0.500000 0.750000
Si Si4 0.662629 0.848129 0.421709
Si Si5 0.811277 0.041195 0.000000
Si Si6 0.894071 0.334928 0.500000
O O1 0.500000 0.863425 0.250000
O O2 0.250000 0.750000 0.288724
O O3 0.395676 0.921660 0.324968
O O4 0.147053 0.924404 0.270261
O O5 0.382914 0.069036 0.613542
O O6 0.750000 0.750000 0.401681
O O7 0.793167 0.893734 0.457074
O O8 0.502012 0.823934 0.454827
O O9 0.677659 0.948296 0.000000
O O10 0.000000 0.000000 0.000000
O O11 0.750000 0.250000 0.500000
#
# Coordination Sequence:
#
# PCOD9499412 Si02
#       6
#    16   8   4  16   8   8
#     4  12  26  47  79 105 138 188 237 284 356 438
#     4  12  25  47  64 108 146 170 228 295 365 412
#     4  12  22  48  80 104 136 182 238 284 340 436
#     4  11  23  42  64  93 139 179 222 286 341 396
#     4  11  20  41  64  92 128 188 239 273 328 402
#     4  11  20  39  68  90 126 186 241 274 327 410
#
# _framework density 19.223528000000002
#
# number of rings (size 3 to 8) (size 9 to 14) (size 15 to 20)
#    0.000    0.533    6.667    4.000    0.000    4.267 
#    7.200    0.000    0.000    0.000    0.000    0.000 
#    0.000    0.000    0.000    0.000    0.000    0.000 
#
# Total GULP energy -167023.679057 kJ/mol
# GULP energy per Si atom -5567.455969 kJ/mol
# Density = 1.917977 g / cm^3
# Si number density = 19.223528 Si / 1000 Ang^3
#
#
#
# Elastic Constant Matrix: (Units=GPa)
#
#
# Indices 1 2 3 4 5 6 
#
# 1 104.0068 40.0544 43.1055 0.0000 0.0000 0.0000
# 2 40.0544 162.3132 58.4842 0.0000 0.0000 0.0000
# 3 43.1055 58.4842 109.0762 0.0000 0.0000 0.0000
# 4 0.0000 0.0000 0.0000 11.1211 0.0000 0.0000
# 5 0.0000 0.0000 0.0000 0.0000 -18.0026 0.0000
# 6 0.0000 0.0000 0.0000 0.0000 0.0000 64.7333
#
#
#
# Elastic Compliance Matrix: (Units=1/GPa)
#
#
# Indices 1 2 3 4 5 6 
#
# 1 0.011795 -0.001526 -0.003843 0.000000 0.000000 0.000000
# 2 -0.001526 0.007834 -0.003597 0.000000 0.000000 0.000000
# 3 -0.003843 -0.003597 0.012615 0.000000 0.000000 0.000000
# 4 0.000000 0.000000 0.000000 0.089919 0.000000 0.000000
# 5 0.000000 0.000000 0.000000 0.000000 -0.055548 0.000000
# 6 0.000000 0.000000 0.000000 0.000000 0.000000 0.015448
#
#
# Mechanical properties :
#
#
# Convention : Reuss Voigt Hill
#
# Bulk Modulus (GPa) = 69.87304 73.18714 71.53009
# Shear Modulus (GPa) = 47.72521 27.15386 37.43953
#
# Velocity S-wave (km/s) = 4.98802 3.76244 4.41794
# Velocity P-wave (km/s) = 8.34268 7.55175 7.95705
#
# Compressibility (1/GPa) = 0.01431167
#
# Stress axis : x y z
#
# Youngs Moduli (GPa) = 84.78023 127.65496 79.26847
#
# Poissons Ratio (x) = 0.19480 0.30464
# Poissons Ratio (y) = 0.12937 0.28514
# Poissons Ratio (z) = 0.32582 0.45919
#
# Static dielectric constant tensor:
#      x y z
#    x 1.662870 0.000000 0.000000 
#    y 0.000000 1.694210 0.000000 
#    z 0.000000 0.000000 1.669730 
# 
# From -- ./inp_files/62020.got.cif
#   From: 2010.05.17/outbox.cif.g08.bks.cpg/sg66_32_cif.got.tgz:62020.got - 2010.06.03 17:51:23.
