data_PCOD9499474
_publ_section_title
;
Structure prediction by ZEFSAII (Michael W. Deem and Ramdas Pophale) SiO2 
 PCOD9499474
Probable space group: C C C M
;
_chemical_formula_sum "Si O2"
_cell_formula_units_Z 80
_cell_length_a 13.758230
_cell_length_b 11.447075
_cell_length_c 25.636966
_cell_angle_alpha 90.000000
_cell_angle_beta 90.000000
_cell_angle_gamma 90.000000
_cell_volume 4037.603992
_symmetry_space_group_name_H-M "C C C M"
_symmetry_group_IT_number 66
_symmetry_cell_setting 'orthorhombic'
loop_
_space_group_symop_operation_xyz
x,y,z
-x,-y,z
x,-y,1/2-z
-x,y,1/2-z
-x,-y,-z
x,y,-z
-x,y,1/2+z
x,-y,1/2+z
1/2+x,1/2+y,z
1/2-x,1/2-y,z
1/2+x,1/2-y,1/2-z
1/2-x,1/2+y,1/2-z
1/2-x,1/2-y,-z
1/2+x,1/2+y,-z
1/2-x,1/2+y,1/2+z
1/2+x,1/2-y,1/2+z
loop_
_atom_site_type_symbol
_atom_site_label
_atom_site_fract_x
_atom_site_fract_y
_atom_site_fract_z
Si Si1 0.723777 0.624589 0.386791
Si Si2 0.521609 0.636760 0.556409
Si Si3 0.362915 0.243696 0.872201
Si Si4 0.610654 0.458432 0.691055
Si Si5 0.386283 0.026192 0.059805
O O1 0.750000 0.750000 0.361871
O O2 0.628696 0.650075 0.421308
O O3 0.686153 0.526897 0.346055
O O4 0.811605 0.575070 0.422111
O O5 0.500000 0.500000 0.552340
O O6 0.516396 0.694343 0.500000
O O7 0.436179 0.686712 0.591025
O O8 0.250000 0.250000 0.885631
O O9 0.377325 0.318708 0.818802
O O10 0.384762 0.112328 0.889693
O O11 0.500000 0.500000 0.677949
O O12 0.627358 0.500000 0.750000
O O13 0.500000 0.000000 0.055161
O O14 0.355877 0.065192 0.000000
#
# Coordination Sequence:
#
# PCOD9499474 Si02
#       5
#    16  16  16  16  16
#     4  12  23  42  65  92 132 176 220 271 326 394
#     4  11  21  36  60  91 127 167 214 256 311 391
#     4  12  21  40  66  93 131 163 213 270 328 388
#     4  11  24  46  70  94 120 163 224 281 333 383
#     4  11  25  41  63  98 141 180 211 259 332 401
#
# _framework density 19.813731000000001
#
# number of rings (size 3 to 8) (size 9 to 14) (size 15 to 20)
#    0.000    0.600    6.000    2.400    0.000    7.200 
#    0.000    0.000    0.000    0.600    0.000    0.000 
#    0.000    0.000    0.000    0.000    0.000    0.000 
#
# Total GULP energy -222710.483087 kJ/mol
# GULP energy per Si atom -5567.762077 kJ/mol
# Density = 1.976863 g / cm^3
# Si number density = 19.813731 Si / 1000 Ang^3
#
#
#
# Elastic Constant Matrix: (Units=GPa)
#
#
# Indices 1 2 3 4 5 6 
#
# 1 138.3458 22.8541 30.6755 0.0000 0.0000 0.0000
# 2 22.8541 85.2389 21.9900 0.0000 0.0000 0.0000
# 3 30.6755 21.9900 101.8971 0.0000 0.0000 0.0000
# 4 0.0000 0.0000 0.0000 35.1426 0.0000 0.0000
# 5 0.0000 0.0000 0.0000 0.0000 117.6228 0.0000
# 6 0.0000 0.0000 0.0000 0.0000 0.0000 39.1213
#
#
#
# Elastic Compliance Matrix: (Units=1/GPa)
#
#
# Indices 1 2 3 4 5 6 
#
# 1 0.007947 -0.001603 -0.002046 0.000000 0.000000 0.000000
# 2 -0.001603 0.012747 -0.002268 0.000000 0.000000 0.000000
# 3 -0.002046 -0.002268 0.010919 0.000000 0.000000 0.000000
# 4 0.000000 0.000000 0.000000 0.028455 0.000000 0.000000
# 5 0.000000 0.000000 0.000000 0.000000 0.008502 0.000000
# 6 0.000000 0.000000 0.000000 0.000000 0.000000 0.025561
#
#
# Mechanical properties :
#
#
# Convention : Reuss Voigt Hill
#
# Bulk Modulus (GPa) = 50.56161 52.94676 51.75419
# Shear Modulus (GPa) = 44.42108 55.04149 49.73129
#
# Velocity S-wave (km/s) = 4.74004 5.27634 5.01537
# Velocity P-wave (km/s) = 7.45193 7.99375 7.72759
#
# Compressibility (1/GPa) = 0.01977785
#
# Stress axis : x y z
#
# Youngs Moduli (GPa) = 125.83693 78.45211 91.58002
#
# Poissons Ratio (x) = 0.12574 0.18741
# Poissons Ratio (y) = 0.20168 0.20773
# Poissons Ratio (z) = 0.25752 0.17795
#
# Static dielectric constant tensor:
#      x y z
#    x 1.271740 0.000000 0.000000 
#    y 0.000000 1.811190 0.000000 
#    z 0.000000 0.000000 1.713030 
# 
# From -- ./inp_files/68764.got.cif
#   From: 2010.05.17/outbox.cif.g08.bks.cpg/sg66_35_cif.got.tgz:68764.got - 2010.06.03 17:51:23.
