data_PCOD9499755
_publ_section_title
;
Structure prediction by ZEFSAII (Michael W. Deem and Ramdas Pophale) SiO2 
 PCOD9499755
Probable space group: C C C M
;
_chemical_formula_sum "Si O2"
_cell_formula_units_Z 88
_cell_length_a 10.348125
_cell_length_b 19.018901
_cell_length_c 22.224955
_cell_angle_alpha 90.000000
_cell_angle_beta 90.000000
_cell_angle_gamma 90.000000
_cell_volume 4374.092614
_symmetry_space_group_name_H-M "C C C M"
_symmetry_group_IT_number 66
_symmetry_cell_setting 'orthorhombic'
loop_
_space_group_symop_operation_xyz
x,y,z
-x,-y,z
x,-y,1/2-z
-x,y,1/2-z
-x,-y,-z
x,y,-z
-x,y,1/2+z
x,-y,1/2+z
1/2+x,1/2+y,z
1/2-x,1/2-y,z
1/2+x,1/2-y,1/2-z
1/2-x,1/2+y,1/2-z
1/2-x,1/2-y,-z
1/2+x,1/2+y,-z
1/2-x,1/2+y,1/2+z
1/2+x,1/2-y,1/2+z
loop_
_atom_site_type_symbol
_atom_site_label
_atom_site_fract_x
_atom_site_fract_y
_atom_site_fract_z
Si Si1 0.145345 0.470280 0.000000
Si Si2 0.753617 0.935570 0.601206
Si Si3 0.138918 0.579819 0.225733
Si Si4 0.877511 0.855290 0.210957
Si Si5 0.599130 0.187361 0.500000
Si Si6 0.750000 0.750000 0.888229
Si Si7 0.000000 0.000000 0.837572
Si Si8 0.706692 0.828442 0.500000
O O1 0.209101 0.501404 0.059133
O O2 0.000000 0.500000 0.000000
O O3 0.164007 0.388350 0.000000
O O4 0.651190 0.924250 0.654201
O O5 0.758154 0.868569 0.558418
O O6 0.890984 0.957133 0.627227
O O7 0.158809 0.500000 0.250000
O O8 0.252459 0.630558 0.247868
O O9 0.000000 0.603023 0.250000
O O10 0.823463 0.807042 0.155586
O O11 0.000000 0.825978 0.250000
O O12 0.923377 0.935226 0.193884
O O13 0.643527 0.222816 0.562839
O O14 0.447731 0.171456 0.500000
O O15 0.750000 0.750000 0.500000
#
# Coordination Sequence:
#
# PCOD9499755 Si02
#       8
#     8  16  16  16   8   8   8   8
#     4  11  23  43  70  99 131 175 233 301 356 409
#     4  11  24  43  70 104 135 182 231 302 363 424
#     4  11  24  38  70 107 140 179 231 298 363 429
#     4  12  24  48  72 108 149 190 244 297 373 444
#     4  11  25  51  70  94 150 186 246 300 360 443
#     4  11  30  46  72 106 138 209 234 300 368 453
#     4  12  23  43  76 104 142 179 243 304 366 434
#     4  11  28  45  68  97 138 189 242 296 356 439
#
# _framework density 20.118459000000001
#
# number of rings (size 3 to 8) (size 9 to 14) (size 15 to 20)
#    0.000    0.727    5.455    1.364    7.636    2.182 
#    1.636    0.000    0.000    0.000    0.000    0.000 
#    0.000    0.000    0.000    0.000    0.000    0.000 
#
# Total GULP energy -245511.370446 kJ/mol
# GULP energy per Si atom -5579.803874 kJ/mol
# Density = 2.007267 g / cm^3
# Si number density = 20.118459 Si / 1000 Ang^3
#
#
#
# Elastic Constant Matrix: (Units=GPa)
#
#
# Indices 1 2 3 4 5 6 
#
# 1 123.6769 9.9012 43.1418 0.0000 0.0000 0.0000
# 2 9.9012 99.6976 53.5936 0.0000 0.0000 0.0000
# 3 43.1418 53.5936 144.2576 0.0000 0.0000 0.0000
# 4 0.0000 0.0000 0.0000 187.4406 0.0000 0.0000
# 5 0.0000 0.0000 0.0000 0.0000 -28.8157 0.0000
# 6 0.0000 0.0000 0.0000 0.0000 0.0000 28.3823
#
#
#
# Elastic Compliance Matrix: (Units=1/GPa)
#
#
# Indices 1 2 3 4 5 6 
#
# 1 0.009066 0.000696 -0.002970 0.000000 0.000000 0.000000
# 2 0.000696 0.012587 -0.004884 0.000000 0.000000 0.000000
# 3 -0.002970 -0.004884 0.009635 0.000000 0.000000 0.000000
# 4 0.000000 0.000000 0.000000 0.005335 0.000000 0.000000
# 5 0.000000 0.000000 0.000000 0.000000 -0.034703 0.000000
# 6 0.000000 0.000000 0.000000 0.000000 0.000000 0.035233
#
#
# Mechanical properties :
#
#
# Convention : Reuss Voigt Hill
#
# Bulk Modulus (GPa) = 58.92299 64.54504 61.73402
# Shear Modulus (GPa) = 87.52640 54.80115 71.16378
#
# Velocity S-wave (km/s) = 6.60303 5.22478 5.95392
# Velocity P-wave (km/s) = 9.35334 8.27949 8.83275
#
# Compressibility (1/GPa) = 0.01697130
#
# Stress axis : x y z
#
# Youngs Moduli (GPa) = 110.30446 79.44805 103.79025
#
# Poissons Ratio (x) = -0.05531 0.30824
# Poissons Ratio (y) = -0.07679 0.50695
# Poissons Ratio (z) = 0.32759 0.38805
#
# Static dielectric constant tensor:
#      x y z
#    x 1.651090 0.000000 0.000000 
#    y 0.000000 1.679010 0.000000 
#    z 0.000000 0.000000 1.318360 
# 
# From -- ./inp_files/48622.got.cif
#   From: 2010.05.17/outbox.cif.g08.bks.cpg/sg66_25_cif.got.tgz:48622.got - 2010.06.03 17:51:23.
