data_PCOD9499436
_publ_section_title
;
Structure prediction by ZEFSAII (Michael W. Deem and Ramdas Pophale) SiO2 
 PCOD9499436
Probable space group: C C C M
;
_chemical_formula_sum "Si O2"
_cell_formula_units_Z 80
_cell_length_a 9.705724
_cell_length_b 11.553282
_cell_length_c 29.472293
_cell_angle_alpha 90.000000
_cell_angle_beta 90.000000
_cell_angle_gamma 90.000000
_cell_volume 3304.815640
_symmetry_space_group_name_H-M "C C C M"
_symmetry_group_IT_number 66
_symmetry_cell_setting 'orthorhombic'
loop_
_space_group_symop_operation_xyz
x,y,z
-x,-y,z
x,-y,1/2-z
-x,y,1/2-z
-x,-y,-z
x,y,-z
-x,y,1/2+z
x,-y,1/2+z
1/2+x,1/2+y,z
1/2-x,1/2-y,z
1/2+x,1/2-y,1/2-z
1/2-x,1/2+y,1/2-z
1/2-x,1/2-y,-z
1/2+x,1/2+y,-z
1/2-x,1/2+y,1/2+z
1/2+x,1/2-y,1/2+z
loop_
_atom_site_type_symbol
_atom_site_label
_atom_site_fract_x
_atom_site_fract_y
_atom_site_fract_z
Si Si1 0.675079 0.068167 0.296517
Si Si2 0.205409 0.124550 0.354262
Si Si3 0.569012 0.716961 0.171347
Si Si4 0.684644 0.907186 0.448925
Si Si5 0.382209 0.176902 0.070406
O O1 0.553812 0.162261 0.301494
O O2 0.811342 0.145251 0.304223
O O3 0.674367 0.000000 0.250000
O O4 0.693361 0.974125 0.336372
O O5 0.250000 0.250000 0.337298
O O6 0.213480 0.126289 0.408473
O O7 0.052105 0.125409 0.335486
O O8 0.602704 0.769071 0.121152
O O9 0.738531 0.897222 0.500000
O O10 0.541959 0.832939 0.446323
O O11 0.656938 0.042595 0.437615
O O12 0.250000 0.250000 0.051550
#
# Coordination Sequence:
#
# PCOD9499436 Si02
#       5
#    16  16  16  16  16
#     4  11  26  49  77 112 148 191 261 321 380 472
#     4  12  25  44  73 104 156 203 246 319 392 458
#     4  11  23  46  77 108 145 205 249 309 395 461
#     4  11  25  44  71 112 154 202 266 327 386 463
#     4  11  20  43  75 106 151 203 259 316 389 461
#
# _framework density 24.207100000000001
#
# number of rings (size 3 to 8) (size 9 to 14) (size 15 to 20)
#    0.000    0.800    6.000    1.800    2.800    4.400 
#    0.000    1.000    0.000    3.600    0.000    0.000 
#    0.000    0.000    0.000    0.000    0.000    0.000 
#
# Total GULP energy -223092.108937 kJ/mol
# GULP energy per Si atom -5577.302723 kJ/mol
# Density = 2.415200 g / cm^3
# Si number density = 24.207100 Si / 1000 Ang^3
#
#
#
# Elastic Constant Matrix: (Units=GPa)
#
#
# Indices 1 2 3 4 5 6 
#
# 1 101.1789 43.5971 20.2008 0.0000 0.0000 0.0000
# 2 43.5971 153.6956 32.4435 0.0000 0.0000 0.0000
# 3 20.2008 32.4435 139.5510 0.0000 0.0000 0.0000
# 4 0.0000 0.0000 0.0000 42.5589 0.0000 0.0000
# 5 0.0000 0.0000 0.0000 0.0000 14.6692 0.0000
# 6 0.0000 0.0000 0.0000 0.0000 0.0000 28.2784
#
#
#
# Elastic Compliance Matrix: (Units=1/GPa)
#
#
# Indices 1 2 3 4 5 6 
#
# 1 0.011376 -0.003028 -0.000943 0.000000 0.000000 0.000000
# 2 -0.003028 0.007648 -0.001340 0.000000 0.000000 0.000000
# 3 -0.000943 -0.001340 0.007614 0.000000 0.000000 0.000000
# 4 0.000000 0.000000 0.000000 0.023497 0.000000 0.000000
# 5 0.000000 0.000000 0.000000 0.000000 0.068170 0.000000
# 6 0.000000 0.000000 0.000000 0.000000 0.000000 0.035363
#
#
# Mechanical properties :
#
#
# Convention : Reuss Voigt Hill
#
# Bulk Modulus (GPa) = 62.43305 65.21204 63.82255
# Shear Modulus (GPa) = 29.47620 36.98023 33.22822
#
# Velocity S-wave (km/s) = 3.49330 3.91277 3.70897
# Velocity P-wave (km/s) = 6.48984 6.88554 6.69062
#
# Compressibility (1/GPa) = 0.01601716
#
# Stress axis : x y z
#
# Youngs Moduli (GPa) = 87.90079 130.75159 131.34055
#
# Poissons Ratio (x) = 0.39592 0.12383
# Poissons Ratio (y) = 0.26616 0.17596
# Poissons Ratio (z) = 0.08288 0.17517
#
# Static dielectric constant tensor:
#      x y z
#    x 2.253510 0.000000 0.000000 
#    y 0.000000 2.034710 0.000000 
#    z 0.000000 0.000000 1.926710 
# 
# From -- ./inp_files/68768.got.cif
#   From: 2010.05.17/outbox.cif.g08.bks.cpg/sg66_35_cif.got.tgz:68768.got - 2010.06.03 17:51:23.
