data_PCOD9499014
_publ_section_title
;
Structure prediction by ZEFSAII (Michael W. Deem and Ramdas Pophale) SiO2 
 PCOD9499014
Probable space group: C C C M
;
_chemical_formula_sum "Si O2"
_cell_formula_units_Z 80
_cell_length_a 5.182369
_cell_length_b 34.377468
_cell_length_c 21.002262
_cell_angle_alpha 90.000000
_cell_angle_beta 90.000000
_cell_angle_gamma 90.000000
_cell_volume 3741.694204
_symmetry_space_group_name_H-M "C C C M"
_symmetry_group_IT_number 66
_symmetry_cell_setting 'orthorhombic'
loop_
_space_group_symop_operation_xyz
x,y,z
-x,-y,z
x,-y,1/2-z
-x,y,1/2-z
-x,-y,-z
x,y,-z
-x,y,1/2+z
x,-y,1/2+z
1/2+x,1/2+y,z
1/2-x,1/2-y,z
1/2+x,1/2-y,1/2-z
1/2-x,1/2+y,1/2-z
1/2-x,1/2-y,-z
1/2+x,1/2+y,-z
1/2-x,1/2+y,1/2+z
1/2+x,1/2-y,1/2+z
loop_
_atom_site_type_symbol
_atom_site_label
_atom_site_fract_x
_atom_site_fract_y
_atom_site_fract_z
Si Si1 0.256013 0.482326 0.677768
Si Si2 0.614650 0.602189 0.364839
Si Si3 0.501163 0.776158 0.627821
Si Si4 0.598012 0.142745 0.318811
Si Si5 0.432818 0.174194 0.500000
Si Si6 0.559873 0.619644 0.000000
O O1 0.500000 0.500000 0.643225
O O2 0.254137 0.500000 0.750000
O O3 0.304650 0.436643 0.673245
O O4 0.000000 0.500000 0.648204
O O5 0.384687 0.626737 0.331616
O O6 0.499788 0.595861 0.435522
O O7 0.883101 0.625695 0.367074
O O8 0.250000 0.750000 0.621309
O O9 0.427750 0.811007 0.675639
O O10 0.548625 0.798055 0.561209
O O11 0.750000 0.750000 0.644930
O O12 0.500000 0.129786 0.250000
O O13 0.665759 0.142202 0.500000
O O14 0.156271 0.153450 0.500000
#
# Coordination Sequence:
#
# PCOD9499014 Si02
#       6
#    16  16  16  16   8   8
#     4  10  23  40  65 100 136 173 216 278 335 407
#     4  12  24  45  70 101 140 180 229 283 348 415
#     4  12  24  42  66  97 137 182 232 297 354 400
#     4  12  27  43  68 101 135 187 237 280 345 427
#     4  12  22  43  66 103 132 176 246 288 342 415
#     4  12  22  43  72  97 140 178 230 294 340 413
#
# _framework density 21.380687999999999
#
# number of rings (size 3 to 8) (size 9 to 14) (size 15 to 20)
#    0.000    0.400    4.000    4.800    8.400    0.800 
#    0.000    1.000    0.000    0.000    0.000    0.000 
#    0.000    0.000    0.000    0.000    0.000    0.000 
#
# Total GULP energy -223351.933859 kJ/mol
# GULP energy per Si atom -5583.798346 kJ/mol
# Density = 2.133202 g / cm^3
# Si number density = 21.380688 Si / 1000 Ang^3
#
#
#
# Elastic Constant Matrix: (Units=GPa)
#
#
# Indices 1 2 3 4 5 6 
#
# 1 179.1248 61.4618 0.7522 0.0000 0.0000 0.0000
# 2 61.4618 149.0522 25.3121 0.0000 0.0000 0.0000
# 3 0.7522 25.3121 73.5541 0.0000 0.0000 0.0000
# 4 0.0000 0.0000 0.0000 7.8280 0.0000 0.0000
# 5 0.0000 0.0000 0.0000 0.0000 -12.6540 0.0000
# 6 0.0000 0.0000 0.0000 0.0000 0.0000 44.5923
#
#
#
# Elastic Compliance Matrix: (Units=1/GPa)
#
#
# Indices 1 2 3 4 5 6 
#
# 1 0.006561 -0.002861 0.000917 0.000000 0.000000 0.000000
# 2 -0.002861 0.008373 -0.002852 0.000000 0.000000 0.000000
# 3 0.000917 -0.002852 0.014568 0.000000 0.000000 0.000000
# 4 0.000000 0.000000 0.000000 0.127747 0.000000 0.000000
# 5 0.000000 0.000000 0.000000 0.000000 -0.079026 0.000000
# 6 0.000000 0.000000 0.000000 0.000000 0.000000 0.022425
#
#
# Mechanical properties :
#
#
# Convention : Reuss Voigt Hill
#
# Bulk Modulus (GPa) = 50.22664 64.08704 57.15684
# Shear Modulus (GPa) = 42.78039 28.90025 35.84032
#
# Velocity S-wave (km/s) = 4.47798 3.68053 4.09870
# Velocity P-wave (km/s) = 7.09077 6.93550 7.01356
#
# Compressibility (1/GPa) = 0.01990975
#
# Stress axis : x y z
#
# Youngs Moduli (GPa) = 152.42654 119.42900 68.64564
#
# Poissons Ratio (x) = 0.34169 -0.06298
# Poissons Ratio (y) = 0.43610 0.19579
# Poissons Ratio (z) = -0.13985 0.34063
#
# Static dielectric constant tensor:
#      x y z
#    x 1.777110 0.000000 0.000000 
#    y 0.000000 1.356670 0.000000 
#    z 0.000000 0.000000 1.828590 
# 
# From -- ./inp_files/54391.got.cif
#   From: 2010.05.17/outbox.cif.g08.bks.cpg/sg66_28_cif.got.tgz:54391.got - 2010.06.03 17:51:23.
