data_PCOD9499991
_publ_section_title
;
Structure prediction by ZEFSAII (Michael W. Deem and Ramdas Pophale) SiO2 
 PCOD9499991
Probable space group: C C C M
;
_chemical_formula_sum "Si O2"
_cell_formula_units_Z 52
_cell_length_a 6.909333
_cell_length_b 12.873506
_cell_length_c 20.246670
_cell_angle_alpha 90.000000
_cell_angle_beta 90.000000
_cell_angle_gamma 90.000000
_cell_volume 1800.887437
_symmetry_space_group_name_H-M "C C C M"
_symmetry_group_IT_number 66
_symmetry_cell_setting 'orthorhombic'
loop_
_space_group_symop_operation_xyz
x,y,z
-x,-y,z
x,-y,1/2-z
-x,y,1/2-z
-x,-y,-z
x,y,-z
-x,y,1/2+z
x,-y,1/2+z
1/2+x,1/2+y,z
1/2-x,1/2-y,z
1/2+x,1/2-y,1/2-z
1/2-x,1/2+y,1/2-z
1/2-x,1/2-y,-z
1/2+x,1/2+y,-z
1/2-x,1/2+y,1/2+z
1/2+x,1/2-y,1/2+z
loop_
_atom_site_type_symbol
_atom_site_label
_atom_site_fract_x
_atom_site_fract_y
_atom_site_fract_z
Si Si1 0.563707 0.390045 0.851988
Si Si2 0.472603 0.840545 0.351023
Si Si3 0.891941 0.126154 0.000000
Si Si4 0.500000 0.000000 0.250000
Si Si5 0.522278 0.133963 0.500000
O O1 0.500000 0.500000 0.822721
O O2 0.461946 0.280933 0.832395
O O3 0.795493 0.367524 0.849637
O O4 0.521060 0.398505 0.929931
O O5 0.398799 0.867161 0.425149
O O6 0.389034 0.919998 0.297828
O O7 0.679546 0.070028 0.000000
O O8 0.929039 0.250323 0.000000
#
# Coordination Sequence:
#
# PCOD9499991 Si02
#       5
#    16  16   8   4   8
#     4   9  16  34  58  88 108 142 185 233 286 350
#     4   9  20  36  55  82 114 146 186 234 286 341
#     4   7  11  22  54  87 115 128 169 237 288 331
#     4  12  24  42  48  68 116 154 180 244 296 330
#     4   7  12  29  54  78 106 144 184 224 280 344
#
# _framework density 28.874652999999999
#
# number of rings (size 3 to 8) (size 9 to 14) (size 15 to 20)
#    0.000    3.385    0.000    4.154    0.000    0.615 
#   11.077    0.000    0.000    0.000    0.000   12.923 
#    0.000    0.000    0.000    0.000    0.000    0.000 
#
# Total GULP energy -145141.749476 kJ/mol
# GULP energy per Si atom -5582.374980 kJ/mol
# Density = 2.880893 g / cm^3
# Si number density = 28.874653 Si / 1000 Ang^3
#
#
#
# Elastic Constant Matrix: (Units=GPa)
#
#
# Indices 1 2 3 4 5 6 
#
# 1 145.8513 9.9273 13.2834 0.0000 0.0000 0.0000
# 2 9.9273 160.8286 68.1855 0.0000 0.0000 0.0000
# 3 13.2834 68.1855 214.3866 0.0000 0.0000 0.0000
# 4 0.0000 0.0000 0.0000 180.9797 0.0000 0.0000
# 5 0.0000 0.0000 0.0000 0.0000 -7.1439 0.0000
# 6 0.0000 0.0000 0.0000 0.0000 0.0000 32.3531
#
#
#
# Elastic Compliance Matrix: (Units=1/GPa)
#
#
# Indices 1 2 3 4 5 6 
#
# 1 0.006906 -0.000283 -0.000338 0.000000 0.000000 0.000000
# 2 -0.000283 0.007198 -0.002272 0.000000 0.000000 0.000000
# 3 -0.000338 -0.002272 0.005408 0.000000 0.000000 0.000000
# 4 0.000000 0.000000 0.000000 0.005525 0.000000 0.000000
# 5 0.000000 0.000000 0.000000 0.000000 -0.139980 0.000000
# 6 0.000000 0.000000 0.000000 0.000000 0.000000 0.030909
#
#
# Mechanical properties :
#
#
# Convention : Reuss Voigt Hill
#
# Bulk Modulus (GPa) = 72.84876 78.20654 75.52765
# Shear Modulus (GPa) = -67.86889 69.88249 1.00680
#
# Velocity S-wave (km/s) = -4.85342 4.92489 0.59113
# Velocity P-wave (km/s) = 2.47457 7.71253 5.16525
#
# Compressibility (1/GPa) = 0.01372707
#
# Stress axis : x y z
#
# Youngs Moduli (GPa) = 144.79455 138.91808 184.91152
#
# Poissons Ratio (x) = 0.03932 0.06248
# Poissons Ratio (y) = 0.04098 0.42011
# Poissons Ratio (z) = 0.04893 0.31561
#
# Static dielectric constant tensor:
#      x y z
#    x 1.856530 0.000000 0.000000 
#    y 0.000000 0.796440 0.000000 
#    z 0.000000 0.000000 2.154670 
# 
# From -- ./inp_files/46342.got.cif
#   From: 2010.05.17/outbox.cif.g08.bks.cpg/sg66_24_cif.got.tgz:46342.got - 2010.06.03 17:51:23.
