data_PCOD9499332
_publ_section_title
;
Structure prediction by ZEFSAII (Michael W. Deem and Ramdas Pophale) SiO2 
 PCOD9499332
Probable space group: C C C M
;
_chemical_formula_sum "Si O2"
_cell_formula_units_Z 80
_cell_length_a 23.622594
_cell_length_b 11.964167
_cell_length_c 14.107325
_cell_angle_alpha 90.000000
_cell_angle_beta 90.000000
_cell_angle_gamma 90.000000
_cell_volume 3987.077926
_symmetry_space_group_name_H-M "C C C M"
_symmetry_group_IT_number 66
_symmetry_cell_setting 'orthorhombic'
loop_
_space_group_symop_operation_xyz
x,y,z
-x,-y,z
x,-y,1/2-z
-x,y,1/2-z
-x,-y,-z
x,y,-z
-x,y,1/2+z
x,-y,1/2+z
1/2+x,1/2+y,z
1/2-x,1/2-y,z
1/2+x,1/2-y,1/2-z
1/2-x,1/2+y,1/2-z
1/2-x,1/2-y,-z
1/2+x,1/2+y,-z
1/2-x,1/2+y,1/2+z
1/2+x,1/2-y,1/2+z
loop_
_atom_site_type_symbol
_atom_site_label
_atom_site_fract_x
_atom_site_fract_y
_atom_site_fract_z
Si Si1 0.004048 0.187198 0.113692
Si Si2 0.902717 0.876923 0.246933
Si Si3 0.324370 0.024177 0.105339
Si Si4 0.306997 0.188499 0.267514
Si Si5 0.450537 0.932902 0.649741
O O1 0.056343 0.115906 0.154733
O O2 0.024345 0.309036 0.150685
O O3 0.946581 0.150776 0.167032
O O4 0.999158 0.185274 0.000000
O O5 0.856624 0.777956 0.246958
O O6 0.875451 0.000000 0.250000
O O7 0.295177 0.113593 0.174244
O O8 0.389600 0.063522 0.103736
O O9 0.324251 0.902330 0.153537
O O10 0.300741 0.021424 0.000000
O O11 0.250000 0.250000 0.296725
O O12 0.500000 0.000000 0.599442
O O13 0.442804 0.000000 0.750000
#
# Coordination Sequence:
#
# PCOD9499332 Si02
#       5
#    16  16  16  16  16
#     4  11  22  39  62  93 133 169 208 262 322 386
#     4  11  24  41  64  94 131 175 220 262 315 389
#     4  11  23  43  68  98 129 162 214 272 322 383
#     4  11  25  45  69  92 128 174 219 271 325 376
#     4  11  19  33  61  96 132 166 201 253 319 389
#
# _framework density 20.064820000000001
#
# number of rings (size 3 to 8) (size 9 to 14) (size 15 to 20)
#    0.000    1.000    4.000    5.400    2.800    6.400 
#    0.000    0.000    0.000    0.000    0.000    0.000 
#    0.000    0.000    0.000    0.000    0.000    0.000 
#
# Total GULP energy -223136.465203 kJ/mol
# GULP energy per Si atom -5578.411630 kJ/mol
# Density = 2.001915 g / cm^3
# Si number density = 20.064820 Si / 1000 Ang^3
#
#
#
# Elastic Constant Matrix: (Units=GPa)
#
#
# Indices 1 2 3 4 5 6 
#
# 1 61.5336 27.2575 1.0995 0.0000 0.0000 0.0000
# 2 27.2575 141.6333 35.0103 0.0000 0.0000 0.0000
# 3 1.0995 35.0103 150.4346 0.0000 0.0000 0.0000
# 4 0.0000 0.0000 0.0000 -9.2917 0.0000 0.0000
# 5 0.0000 0.0000 0.0000 0.0000 30.2917 0.0000
# 6 0.0000 0.0000 0.0000 0.0000 0.0000 10.9304
#
#
#
# Elastic Compliance Matrix: (Units=1/GPa)
#
#
# Indices 1 2 3 4 5 6 
#
# 1 0.017837 -0.003608 0.000709 0.000000 0.000000 0.000000
# 2 -0.003608 0.008221 -0.001887 0.000000 0.000000 0.000000
# 3 0.000709 -0.001887 0.007081 0.000000 0.000000 0.000000
# 4 0.000000 0.000000 0.000000 -0.107623 0.000000 0.000000
# 5 0.000000 0.000000 0.000000 0.000000 0.033012 0.000000
# 6 0.000000 0.000000 0.000000 0.000000 0.000000 0.091488
#
#
# Mechanical properties :
#
#
# Convention : Reuss Voigt Hill
#
# Bulk Modulus (GPa) = 42.43013 53.37068 47.90041
# Shear Modulus (GPa) = 74.13569 25.73503 49.93536
#
# Velocity S-wave (km/s) = 6.08509 3.58522 4.99410
# Velocity P-wave (km/s) = 8.40021 6.61780 7.56171
#
# Compressibility (1/GPa) = 0.02356816
#
# Stress axis : x y z
#
# Youngs Moduli (GPa) = 56.06366 121.63524 141.21564
#
# Poissons Ratio (x) = 0.43887 -0.10017
# Poissons Ratio (y) = 0.20228 0.26647
# Poissons Ratio (z) = -0.03977 0.22952
#
# Static dielectric constant tensor:
#      x y z
#    x 1.690410 0.000000 0.000000 
#    y 0.000000 1.822000 0.000000 
#    z 0.000000 0.000000 1.768810 
# 
# From -- ./inp_files/33126.got.cif
#   From: 2010.05.17/outbox.cif.g08.bks.cpg/sg66_17_cif.got.tgz:33126.got - 2010.06.03 17:51:23.
