data_PCOD9499546
_publ_section_title
;
Structure prediction by ZEFSAII (Michael W. Deem and Ramdas Pophale) SiO2 
 PCOD9499546
Probable space group: C C C M
;
_chemical_formula_sum "Si O2"
_cell_formula_units_Z 68
_cell_length_a 8.485190
_cell_length_b 14.743098
_cell_length_c 27.883405
_cell_angle_alpha 90.000000
_cell_angle_beta 90.000000
_cell_angle_gamma 90.000000
_cell_volume 3488.157856
_symmetry_space_group_name_H-M "C C C M"
_symmetry_group_IT_number 66
_symmetry_cell_setting 'orthorhombic'
loop_
_space_group_symop_operation_xyz
x,y,z
-x,-y,z
x,-y,1/2-z
-x,y,1/2-z
-x,-y,-z
x,y,-z
-x,y,1/2+z
x,-y,1/2+z
1/2+x,1/2+y,z
1/2-x,1/2-y,z
1/2+x,1/2-y,1/2-z
1/2-x,1/2+y,1/2-z
1/2-x,1/2-y,-z
1/2+x,1/2+y,-z
1/2-x,1/2+y,1/2+z
1/2+x,1/2-y,1/2+z
loop_
_atom_site_type_symbol
_atom_site_label
_atom_site_fract_x
_atom_site_fract_y
_atom_site_fract_z
Si Si1 0.547329 0.100416 0.328579
Si Si2 0.370141 0.833277 0.000000
Si Si3 0.500000 0.500000 0.750000
Si Si4 0.737037 0.857441 0.733866
Si Si5 0.343149 0.841245 0.570807
Si Si6 0.185265 0.020197 0.000000
O O1 0.384292 0.142976 0.310233
O O2 0.656408 0.099551 0.281318
O O3 0.631980 0.147188 0.372758
O O4 0.500000 0.000000 0.344111
O O5 0.250000 0.750000 0.000000
O O6 0.487323 0.834132 0.045391
O O7 0.273692 0.925386 0.000000
O O8 0.384767 0.425241 0.723938
O O9 0.750000 0.750000 0.745674
O O10 0.250000 0.750000 0.560291
O O11 0.245762 0.922207 0.545816
O O12 0.000000 0.000000 0.000000
#
# Coordination Sequence:
#
# PCOD9499546 Si02
#       6
#    16   8   4  16  16   8
#     4  11  21  43  60  87 130 170 206 265 331 389
#     4  11  22  41  66  92 130 169 214 267 322 392
#     4  12  20  42  64  98 120 172 228 272 328 396
#     4  11  23  40  66  91 130 170 220 273 333 398
#     4  11  23  40  66  95 128 169 215 266 333 397
#     4  11  22  43  66  96 128 171 214 271 330 394
#
# _framework density 19.494530000000001
#
# number of rings (size 3 to 8) (size 9 to 14) (size 15 to 20)
#    0.000    0.941    2.353    8.471    0.000    0.941 
#    2.118    2.353    0.000    0.000    0.000    0.000 
#    0.000    0.000    0.000    0.000    0.000    0.000 
#
# Total GULP energy -189664.860437 kJ/mol
# GULP energy per Si atom -5578.378248 kJ/mol
# Density = 1.945016 g / cm^3
# Si number density = 19.494530 Si / 1000 Ang^3
#
#
#
# Elastic Constant Matrix: (Units=GPa)
#
#
# Indices 1 2 3 4 5 6 
#
# 1 138.8879 70.7455 41.7659 0.0000 0.0000 0.0000
# 2 70.7455 157.2501 19.1827 0.0000 0.0000 0.0000
# 3 41.7659 19.1827 95.6706 0.0000 0.0000 0.0000
# 4 0.0000 0.0000 0.0000 -3.1887 0.0000 0.0000
# 5 0.0000 0.0000 0.0000 0.0000 7.5662 0.0000
# 6 0.0000 0.0000 0.0000 0.0000 0.0000 44.0195
#
#
#
# Elastic Compliance Matrix: (Units=1/GPa)
#
#
# Indices 1 2 3 4 5 6 
#
# 1 0.010494 -0.004267 -0.003726 0.000000 0.000000 0.000000
# 2 -0.004267 0.008253 0.000208 0.000000 0.000000 0.000000
# 3 -0.003726 0.000208 0.012037 0.000000 0.000000 0.000000
# 4 0.000000 0.000000 0.000000 -0.313606 0.000000 0.000000
# 5 0.000000 0.000000 0.000000 0.000000 0.132166 0.000000
# 6 0.000000 0.000000 0.000000 0.000000 0.000000 0.022717
#
#
# Mechanical properties :
#
#
# Convention : Reuss Voigt Hill
#
# Bulk Modulus (GPa) = 65.72224 72.79963 69.26094
# Shear Modulus (GPa) = -46.59936 27.02037 -9.78950
#
# Velocity S-wave (km/s) = -4.89446 3.72701 -2.24334
# Velocity P-wave (km/s) = 1.35846 7.47967 5.37545
#
# Compressibility (1/GPa) = 0.01521555
#
# Stress axis : x y z
#
# Youngs Moduli (GPa) = 95.29566 121.16176 83.07480
#
# Poissons Ratio (x) = 0.51694 0.30951
# Poissons Ratio (y) = 0.40658 -0.01726
# Poissons Ratio (z) = 0.35504 -0.02517
#
# Static dielectric constant tensor:
#      x y z
#    x 1.685990 0.000000 0.000000 
#    y 0.000000 1.710730 0.000000 
#    z 0.000000 0.000000 1.676100 
# 
# From -- ./inp_files/62133.got.cif
#   From: 2010.05.17/outbox.cif.g08.bks.cpg/sg66_32_cif.got.tgz:62133.got - 2010.06.03 17:51:23.
