data_PCOD9499407
_publ_section_title
;
Structure prediction by ZEFSAII (Michael W. Deem and Ramdas Pophale) SiO2 
 PCOD9499407
Probable space group: C C C M
;
_chemical_formula_sum "Si O2"
_cell_formula_units_Z 64
_cell_length_a 10.350278
_cell_length_b 20.590146
_cell_length_c 15.313739
_cell_angle_alpha 90.000000
_cell_angle_beta 90.000000
_cell_angle_gamma 90.000000
_cell_volume 3263.568118
_symmetry_space_group_name_H-M "C C C M"
_symmetry_group_IT_number 66
_symmetry_cell_setting 'orthorhombic'
loop_
_space_group_symop_operation_xyz
x,y,z
-x,-y,z
x,-y,1/2-z
-x,y,1/2-z
-x,-y,-z
x,y,-z
-x,y,1/2+z
x,-y,1/2+z
1/2+x,1/2+y,z
1/2-x,1/2-y,z
1/2+x,1/2-y,1/2-z
1/2-x,1/2+y,1/2-z
1/2-x,1/2-y,-z
1/2+x,1/2+y,-z
1/2-x,1/2+y,1/2+z
1/2+x,1/2-y,1/2+z
loop_
_atom_site_type_symbol
_atom_site_label
_atom_site_fract_x
_atom_site_fract_y
_atom_site_fract_z
Si Si1 0.041125 0.276155 0.600958
Si Si2 0.219163 0.673335 0.654600
Si Si3 0.640656 0.559695 0.500000
Si Si4 0.332253 0.585831 0.500000
Si Si5 0.305865 0.343088 0.650185
O O1 0.001991 0.268403 0.500000
O O2 0.180400 0.309167 0.607839
O O3 0.070098 0.204819 0.640324
O O4 0.936185 0.321419 0.647680
O O5 0.250000 0.750000 0.641038
O O6 0.281203 0.627159 0.582073
O O7 0.271401 0.651361 0.748444
O O8 0.485703 0.572073 0.500000
O O9 0.708792 0.489538 0.500000
O O10 0.677168 0.594294 0.590881
#
# Coordination Sequence:
#
# PCOD9499407 Si02
#       5
#    16  16   8   8  16
#     4  11  20  39  64  96 129 164 209 269 325 377
#     4  12  24  39  64  99 133 161 214 271 328 380
#     4  11  24  46  65  87 130 172 224 257 321 400
#     4  11  27  43  63  92 126 180 214 265 318 391
#     4  11  22  39  66  99 128 166 210 268 330 381
#
# _framework density 19.610439
#
# number of rings (size 3 to 8) (size 9 to 14) (size 15 to 20)
#    0.000    0.750    6.250    3.375    0.000    4.000 
#    0.000    5.000    0.000    3.000    0.000    0.000 
#    0.000    0.000    0.000    0.000    0.000    0.000 
#
# Total GULP energy -178501.545245 kJ/mol
# GULP energy per Si atom -5578.173289 kJ/mol
# Density = 1.956580 g / cm^3
# Si number density = 19.610439 Si / 1000 Ang^3
#
#
#
# Elastic Constant Matrix: (Units=GPa)
#
#
# Indices 1 2 3 4 5 6 
#
# 1 70.9862 29.3116 34.6620 0.0000 0.0000 0.0000
# 2 29.3116 124.9706 81.2590 0.0000 0.0000 0.0000
# 3 34.6620 81.2590 204.5450 0.0000 0.0000 0.0000
# 4 0.0000 0.0000 0.0000 -28.9713 0.0000 0.0000
# 5 0.0000 0.0000 0.0000 0.0000 28.4492 0.0000
# 6 0.0000 0.0000 0.0000 0.0000 0.0000 22.7034
#
#
#
# Elastic Compliance Matrix: (Units=1/GPa)
#
#
# Indices 1 2 3 4 5 6 
#
# 1 0.015998 -0.002683 -0.001645 0.000000 0.000000 0.000000
# 2 -0.002683 0.011239 -0.004010 0.000000 0.000000 0.000000
# 3 -0.001645 -0.004010 0.006761 0.000000 0.000000 0.000000
# 4 0.000000 0.000000 0.000000 -0.034517 0.000000 0.000000
# 5 0.000000 0.000000 0.000000 0.000000 0.035150 0.000000
# 6 0.000000 0.000000 0.000000 0.000000 0.000000 0.044046
#
#
# Mechanical properties :
#
#
# Convention : Reuss Voigt Hill
#
# Bulk Modulus (GPa) = 57.73125 76.77413 67.25269
# Shear Modulus (GPa) = 49.44263 21.45421 35.44842
#
# Velocity S-wave (km/s) = 5.02664 3.31119 4.25624
# Velocity P-wave (km/s) = 7.94937 7.33847 7.65002
#
# Compressibility (1/GPa) = 0.01732164
#
# Stress axis : x y z
#
# Youngs Moduli (GPa) = 62.50651 88.97944 147.91100
#
# Poissons Ratio (x) = 0.23869 0.24337
# Poissons Ratio (y) = 0.16767 0.59314
# Poissons Ratio (z) = 0.10285 0.35682
#
# Static dielectric constant tensor:
#      x y z
#    x 1.782660 0.000000 0.000000 
#    y 0.000000 1.716430 0.000000 
#    z 0.000000 0.000000 1.711800 
# 
# From -- ./inp_files/25860.got.cif
#   From: 2010.05.17/outbox.cif.g08.bks.cpg/sg66_13_cif.got.tgz:25860.got - 2010.06.03 17:51:23.
