data_PCOD9499902
_publ_section_title
;
Structure prediction by ZEFSAII (Michael W. Deem and Ramdas Pophale) SiO2 
 PCOD9499902
Probable space group: C C C M
;
_chemical_formula_sum "Si O2"
_cell_formula_units_Z 40
_cell_length_a 6.890684
_cell_length_b 27.577783
_cell_length_c 9.571489
_cell_angle_alpha 90.000000
_cell_angle_beta 90.000000
_cell_angle_gamma 90.000000
_cell_volume 1818.868026
_symmetry_space_group_name_H-M "C C C M"
_symmetry_group_IT_number 66
_symmetry_cell_setting 'orthorhombic'
loop_
_space_group_symop_operation_xyz
x,y,z
-x,-y,z
x,-y,1/2-z
-x,y,1/2-z
-x,-y,-z
x,y,-z
-x,y,1/2+z
x,-y,1/2+z
1/2+x,1/2+y,z
1/2-x,1/2-y,z
1/2+x,1/2-y,1/2-z
1/2-x,1/2+y,1/2-z
1/2-x,1/2-y,-z
1/2+x,1/2+y,-z
1/2-x,1/2+y,1/2+z
1/2+x,1/2-y,1/2+z
loop_
_atom_site_type_symbol
_atom_site_label
_atom_site_fract_x
_atom_site_fract_y
_atom_site_fract_z
Si Si1 0.500000 0.875336 0.250000
Si Si2 0.693319 0.452148 0.836627
Si Si3 0.180645 0.802786 0.341030
O O1 0.355559 0.910913 0.168506
O O2 0.358180 0.840005 0.334946
O O3 0.758539 0.500000 0.750000
O O4 0.500000 0.437179 0.750000
O O5 0.652930 0.462449 0.000000
O O6 0.114925 0.796650 0.500000
O O7 0.250000 0.750000 0.288427
O O8 0.000000 0.819774 0.250000
#
# Coordination Sequence:
#
# PCOD9499902 Si02
#       3
#     8  16  16
#     4  12  25  42  70 104 136 180 229 280 338 400
#     4  11  25  45  71 102 139 178 225 279 339 407
#     4  11  25  45  68  97 134 178 229 282 336 396
#
# _framework density 21.991699000000001
#
# number of rings (size 3 to 8) (size 9 to 14) (size 15 to 20)
#    0.000    0.800    2.000    5.400    0.000   15.200 
#    0.000    0.000    0.000    0.000    0.000    0.000 
#    0.000    0.000    0.000    0.000    0.000    0.000 
#
# Total GULP energy -111792.377902 kJ/mol
# GULP energy per Si atom -5589.618895 kJ/mol
# Density = 2.194164 g / cm^3
# Si number density = 21.991699 Si / 1000 Ang^3
#
#
#
# Elastic Constant Matrix: (Units=GPa)
#
#
# Indices 1 2 3 4 5 6 
#
# 1 137.6726 66.6052 50.9494 0.0000 0.0000 0.0000
# 2 66.6052 148.6455 40.6437 0.0000 0.0000 0.0000
# 3 50.9494 40.6437 140.9387 0.0000 0.0000 0.0000
# 4 0.0000 0.0000 0.0000 -0.4499 0.0000 0.0000
# 5 0.0000 0.0000 0.0000 0.0000 11.4540 0.0000
# 6 0.0000 0.0000 0.0000 0.0000 0.0000 50.1159
#
#
#
# Elastic Compliance Matrix: (Units=1/GPa)
#
#
# Indices 1 2 3 4 5 6 
#
# 1 0.010043 -0.003808 -0.002532 0.000000 0.000000 0.000000
# 2 -0.003808 0.008747 -0.001146 0.000000 0.000000 0.000000
# 3 -0.002532 -0.001146 0.008341 0.000000 0.000000 0.000000
# 4 0.000000 0.000000 0.000000 -2.222749 0.000000 0.000000
# 5 0.000000 0.000000 0.000000 0.000000 0.087306 0.000000
# 6 0.000000 0.000000 0.000000 0.000000 0.000000 0.019954
#
#
# Mechanical properties :
#
#
# Convention : Reuss Voigt Hill
#
# Bulk Modulus (GPa) = 82.24399 82.62816 82.43608
# Shear Modulus (GPa) = -2.41624 30.16123 13.87250
#
# Velocity S-wave (km/s) = -1.04933 3.70737 2.51431
# Velocity P-wave (km/s) = 6.00090 7.48199 6.78200
#
# Compressibility (1/GPa) = 0.01215894
#
# Stress axis : x y z
#
# Youngs Moduli (GPa) = 99.57265 114.32675 119.88611
#
# Poissons Ratio (x) = 0.43531 0.30361
# Poissons Ratio (y) = 0.37913 0.13738
# Poissons Ratio (z) = 0.25217 0.13101
#
# Static dielectric constant tensor:
#      x y z
#    x 1.797610 0.000000 0.000000 
#    y 0.000000 1.842250 0.000000 
#    z 0.000000 0.000000 1.747160 
# 
# From -- ./inp_files/2645.got.cif
#   From: 2010.05.17/outbox.cif.g08.bks.cpg/sg66_2_cif.got.tgz:2645.got - 2010.06.03 17:51:23.
