data_PCOD9499219
_publ_section_title
;
Structure prediction by ZEFSAII (Michael W. Deem and Ramdas Pophale) SiO2 
 PCOD9499219
Probable space group: C C C M
;
_chemical_formula_sum "Si O2"
_cell_formula_units_Z 68
_cell_length_a 6.105277
_cell_length_b 19.710525
_cell_length_c 24.127537
_cell_angle_alpha 90.000000
_cell_angle_beta 90.000000
_cell_angle_gamma 90.000000
_cell_volume 2903.464733
_symmetry_space_group_name_H-M "C C C M"
_symmetry_group_IT_number 66
_symmetry_cell_setting 'orthorhombic'
loop_
_space_group_symop_operation_xyz
x,y,z
-x,-y,z
x,-y,1/2-z
-x,y,1/2-z
-x,-y,-z
x,y,-z
-x,y,1/2+z
x,-y,1/2+z
1/2+x,1/2+y,z
1/2-x,1/2-y,z
1/2+x,1/2-y,1/2-z
1/2-x,1/2+y,1/2-z
1/2-x,1/2-y,-z
1/2+x,1/2+y,-z
1/2-x,1/2+y,1/2+z
1/2+x,1/2-y,1/2+z
loop_
_atom_site_type_symbol
_atom_site_label
_atom_site_fract_x
_atom_site_fract_y
_atom_site_fract_z
Si Si1 0.881690 0.684291 0.899809
Si Si2 0.500000 0.500000 0.250000
Si Si3 0.828837 0.561708 0.437700
Si Si4 0.022347 0.089681 0.155094
Si Si5 0.840034 0.316818 0.792567
O O1 0.750000 0.750000 0.923249
O O2 0.700162 0.633180 0.876524
O O3 0.044031 0.634464 0.933824
O O4 0.027701 0.706777 0.847143
O O5 0.627933 0.543792 0.203768
O O6 0.739264 0.555035 0.500000
O O7 0.641017 0.558587 0.391333
O O8 0.000000 0.500000 0.428854
O O9 0.857833 0.137307 0.188984
O O10 0.750000 0.250000 0.762883
O O11 0.000000 0.352918 0.750000
#
# Coordination Sequence:
#
# PCOD9499219 Si02
#       5
#    16   4  16  16  16
#     4  11  22  41  66  95 129 171 225 282 341 408
#     4  12  24  40  64  96 128 178 222 258 334 400
#     4  10  24  45  68  96 132 178 227 280 344 409
#     4  11  24  42  64  96 136 174 220 284 332 407
#     4  11  22  35  59  90 128 171 216 268 337 406
#
# _framework density 23.420296
#
# number of rings (size 3 to 8) (size 9 to 14) (size 15 to 20)
#    0.000    1.176    2.353    3.529    1.647    3.294 
#    0.000    8.824    0.000    0.000    0.000    0.000 
#    0.000    0.000    0.000    0.000    0.000    0.000 
#
# Total GULP energy -189874.554451 kJ/mol
# GULP energy per Si atom -5584.545719 kJ/mol
# Density = 2.336699 g / cm^3
# Si number density = 23.420296 Si / 1000 Ang^3
#
#
#
# Elastic Constant Matrix: (Units=GPa)
#
#
# Indices 1 2 3 4 5 6 
#
# 1 78.5048 23.4463 39.9154 0.0000 0.0000 0.0000
# 2 23.4463 98.3941 45.2921 0.0000 0.0000 0.0000
# 3 39.9154 45.2921 127.5982 0.0000 0.0000 0.0000
# 4 0.0000 0.0000 0.0000 24.1214 0.0000 0.0000
# 5 0.0000 0.0000 0.0000 0.0000 7.5617 0.0000
# 6 0.0000 0.0000 0.0000 0.0000 0.0000 43.5026
#
#
#
# Elastic Compliance Matrix: (Units=1/GPa)
#
#
# Indices 1 2 3 4 5 6 
#
# 1 0.015391 -0.001735 -0.004199 0.000000 0.000000 0.000000
# 2 -0.001735 0.012344 -0.003839 0.000000 0.000000 0.000000
# 3 -0.004199 -0.003839 0.010513 0.000000 0.000000 0.000000
# 4 0.000000 0.000000 0.000000 0.041457 0.000000 0.000000
# 5 0.000000 0.000000 0.000000 0.000000 0.132246 0.000000
# 6 0.000000 0.000000 0.000000 0.000000 0.000000 0.022987
#
#
# Mechanical properties :
#
#
# Convention : Reuss Voigt Hill
#
# Bulk Modulus (GPa) = 53.46725 57.97833 55.72279
# Shear Modulus (GPa) = 19.17789 28.09336 23.63563
#
# Velocity S-wave (km/s) = 2.86467 3.46718 3.18023
# Velocity P-wave (km/s) = 5.81557 6.39045 6.10977
#
# Compressibility (1/GPa) = 0.01870304
#
# Stress axis : x y z
#
# Youngs Moduli (GPa) = 64.97271 81.01340 95.11820
#
# Poissons Ratio (x) = 0.14054 0.39939
# Poissons Ratio (y) = 0.11271 0.36514
# Poissons Ratio (z) = 0.27281 0.31100
#
# Static dielectric constant tensor:
#      x y z
#    x 1.877840 0.000000 0.000000 
#    y 0.000000 2.005900 0.000000 
#    z 0.000000 0.000000 1.837960 
# 
# From -- ./inp_files/61322.got.cif
#   From: 2010.05.17/outbox.cif.g08.bks.cpg/sg66_31_cif.got.tgz:61322.got - 2010.06.03 17:51:23.
