data_PCOD9499461
_publ_section_title
;
Structure prediction by ZEFSAII (Michael W. Deem and Ramdas Pophale) SiO2 
 PCOD9499461
Probable space group: C C C M
;
_chemical_formula_sum "Si O2"
_cell_formula_units_Z 112
_cell_length_a 11.306720
_cell_length_b 29.736172
_cell_length_c 17.396821
_cell_angle_alpha 90.000000
_cell_angle_beta 90.000000
_cell_angle_gamma 90.000000
_cell_volume 5849.134291
_symmetry_space_group_name_H-M "C C C M"
_symmetry_group_IT_number 66
_symmetry_cell_setting 'orthorhombic'
loop_
_space_group_symop_operation_xyz
x,y,z
-x,-y,z
x,-y,1/2-z
-x,y,1/2-z
-x,-y,-z
x,y,-z
-x,y,1/2+z
x,-y,1/2+z
1/2+x,1/2+y,z
1/2-x,1/2-y,z
1/2+x,1/2-y,1/2-z
1/2-x,1/2+y,1/2-z
1/2-x,1/2-y,-z
1/2+x,1/2+y,-z
1/2-x,1/2+y,1/2+z
1/2+x,1/2-y,1/2+z
loop_
_atom_site_type_symbol
_atom_site_label
_atom_site_fract_x
_atom_site_fract_y
_atom_site_fract_z
Si Si1 0.013220 0.553435 0.917875
Si Si2 0.394408 0.464123 0.909003
Si Si3 0.927456 0.786163 0.589644
Si Si4 0.784073 0.398997 0.153668
Si Si5 0.175787 0.543631 0.701013
Si Si6 0.984437 0.877574 0.658132
Si Si7 0.646923 0.190696 0.090249
O O1 0.929014 0.565658 0.847798
O O2 0.000000 0.500000 0.921089
O O3 0.147320 0.566588 0.901066
O O4 0.975186 0.572570 0.000000
O O5 0.500000 0.500000 0.891778
O O6 0.280211 0.472158 0.855853
O O7 0.435556 0.413740 0.886052
O O8 0.368473 0.467175 0.000000
O O9 0.961536 0.788919 0.500000
O O10 0.995958 0.824978 0.635530
O O11 0.786464 0.796513 0.593189
O O12 0.931172 0.733776 0.613851
O O13 0.782158 0.419671 0.238080
O O14 0.648932 0.390308 0.132782
O O15 0.858789 0.353314 0.142475
O O16 0.137223 0.500000 0.750000
O O17 0.000000 0.882806 0.750000
O O18 0.621985 0.180546 0.000000
#
# Coordination Sequence:
#
# PCOD9499461 Si02
#       7
#    16  16  16  16  16  16  16
#     4  11  24  39  57  80 107 147 196 244 291 346
#     4  11  25  40  58  83 117 163 208 243 286 355
#     4   8  15  30  54  80 115 149 182 233 289 343
#     4  11  21  35  60  83 116 151 193 241 300 350
#     4  12  23  40  57  80 116 153 194 246 301 350
#     4  11  21  36  56  90 121 155 195 239 295 355
#     4   8  15  30  53  85 114 144 185 236 290 343
#
# _framework density 19.148133999999999
#
# number of rings (size 3 to 8) (size 9 to 14) (size 15 to 20)
#    0.000    1.714    2.857    3.429    0.000    1.714 
#    0.000    1.429    0.000    0.000    0.000    0.000 
#    0.000    5.714    0.000    0.000    0.000    0.000 
#
# Total GULP energy -312271.083723 kJ/mol
# GULP energy per Si atom -5576.269352 kJ/mol
# Density = 1.910455 g / cm^3
# Si number density = 19.148134 Si / 1000 Ang^3
#
#
#
# Elastic Constant Matrix: (Units=GPa)
#
#
# Indices 1 2 3 4 5 6 
#
# 1 51.3814 20.2583 20.2893 0.0000 0.0000 0.0000
# 2 20.2583 101.0267 31.3979 0.0000 0.0000 0.0000
# 3 20.2893 31.3979 82.6653 0.0000 0.0000 0.0000
# 4 0.0000 0.0000 0.0000 47.1610 0.0000 0.0000
# 5 0.0000 0.0000 0.0000 0.0000 -26.2365 0.0000
# 6 0.0000 0.0000 0.0000 0.0000 0.0000 26.3050
#
#
#
# Elastic Compliance Matrix: (Units=1/GPa)
#
#
# Indices 1 2 3 4 5 6 
#
# 1 0.022405 -0.003156 -0.004300 0.000000 0.000000 0.000000
# 2 -0.003156 0.011668 -0.003657 0.000000 0.000000 0.000000
# 3 -0.004300 -0.003657 0.014541 0.000000 0.000000 0.000000
# 4 0.000000 0.000000 0.000000 0.021204 0.000000 0.000000
# 5 0.000000 0.000000 0.000000 0.000000 -0.038115 0.000000
# 6 0.000000 0.000000 0.000000 0.000000 0.000000 0.038016
#
#
# Mechanical properties :
#
#
# Convention : Reuss Voigt Hill
#
# Bulk Modulus (GPa) = 37.89730 42.10714 40.00222
# Shear Modulus (GPa) = 49.63214 20.32111 34.97662
#
# Velocity S-wave (km/s) = 5.09670 3.26123 4.27855
# Velocity P-wave (km/s) = 7.38036 6.01820 6.73381
#
# Compressibility (1/GPa) = 0.02638711
#
# Stress axis : x y z
#
# Youngs Moduli (GPa) = 44.63339 85.70573 68.76913
#
# Poissons Ratio (x) = 0.27051 0.29572
# Poissons Ratio (y) = 0.14087 0.25149
# Poissons Ratio (z) = 0.19193 0.31343
#
# Static dielectric constant tensor:
#      x y z
#    x 1.683760 0.000000 0.000000 
#    y 0.000000 1.724770 0.000000 
#    z 0.000000 0.000000 1.676630 
# 
# From -- ./inp_files/27003.got.cif
#   From: 2010.05.17/outbox.cif.g08.bks.cpg/sg66_14_cif.got.tgz:27003.got - 2010.06.03 17:51:23.
