data_PCOD9499252
_publ_section_title
;
Structure prediction by ZEFSAII (Michael W. Deem and Ramdas Pophale) SiO2 
 PCOD9499252
Probable space group: C C C M
;
_chemical_formula_sum "Si O2"
_cell_formula_units_Z 60
_cell_length_a 25.437714
_cell_length_b 10.775335
_cell_length_c 10.503089
_cell_angle_alpha 90.000000
_cell_angle_beta 90.000000
_cell_angle_gamma 90.000000
_cell_volume 2878.895539
_symmetry_space_group_name_H-M "C C C M"
_symmetry_group_IT_number 66
_symmetry_cell_setting 'orthorhombic'
loop_
_space_group_symop_operation_xyz
x,y,z
-x,-y,z
x,-y,1/2-z
-x,y,1/2-z
-x,-y,-z
x,y,-z
-x,y,1/2+z
x,-y,1/2+z
1/2+x,1/2+y,z
1/2-x,1/2-y,z
1/2+x,1/2-y,1/2-z
1/2-x,1/2+y,1/2-z
1/2-x,1/2-y,-z
1/2+x,1/2+y,-z
1/2-x,1/2+y,1/2+z
1/2+x,1/2-y,1/2+z
loop_
_atom_site_type_symbol
_atom_site_label
_atom_site_fract_x
_atom_site_fract_y
_atom_site_fract_z
Si Si1 0.000000 0.500000 0.250000
Si Si2 0.203331 0.645113 0.000000
Si Si3 0.376708 0.500000 0.750000
Si Si4 0.186975 0.248567 0.750074
Si Si5 0.165277 0.604577 0.500000
Si Si6 0.943749 0.929947 0.000000
Si Si7 0.949388 0.371532 0.500000
O O1 0.026963 0.589130 0.359892
O O2 0.250000 0.750000 0.000000
O O3 0.172352 0.669628 0.128501
O O4 0.211972 0.497497 0.000000
O O5 0.338260 0.384066 0.728872
O O6 0.411958 0.472119 0.873807
O O7 0.250000 0.250000 0.758518
O O8 0.168177 0.309989 0.877791
O O9 0.106193 0.555373 0.500000
O O10 0.947245 0.779203 0.000000
O O11 0.000000 0.000000 0.000000
#
# Coordination Sequence:
#
# PCOD9499252 Si02
#       7
#     4   8   8  16   8   8   8
#     4  10  28  50  76 102 148 180 248 312 372 450
#     4  10  25  40  65  99 139 186 235 286 357 433
#     4  12  25  48  71 110 146 189 255 304 372 458
#     4  11  25  43  70 101 146 190 234 301 363 447
#     4  12  24  43  69 102 139 184 245 286 365 441
#     4  12  28  47  77 107 148 197 251 316 383 443
#     4  11  26  50  75 111 140 195 245 308 381 440
#
# _framework density 20.841327
#
# number of rings (size 3 to 8) (size 9 to 14) (size 15 to 20)
#    0.000    0.800    2.667    2.400   14.933    0.000 
#    4.800    0.000    0.000    0.000    0.000    0.000 
#    0.000    0.000    0.000    0.000    0.000    0.000 
#
# Total GULP energy -167123.293532 kJ/mol
# GULP energy per Si atom -5570.776451 kJ/mol
# Density = 2.079389 g / cm^3
# Si number density = 20.841327 Si / 1000 Ang^3
#
#
#
# Elastic Constant Matrix: (Units=GPa)
#
#
# Indices 1 2 3 4 5 6 
#
# 1 100.7372 42.3389 41.5487 0.0000 0.0000 0.0000
# 2 42.3389 143.1333 50.3037 0.0000 0.0000 0.0000
# 3 41.5487 50.3037 210.5552 0.0000 0.0000 0.0000
# 4 0.0000 0.0000 0.0000 34.7630 0.0000 0.0000
# 5 0.0000 0.0000 0.0000 0.0000 63.3451 0.0000
# 6 0.0000 0.0000 0.0000 0.0000 0.0000 34.1118
#
#
#
# Elastic Compliance Matrix: (Units=1/GPa)
#
#
# Indices 1 2 3 4 5 6 
#
# 1 0.011831 -0.002925 -0.001636 0.000000 0.000000 0.000000
# 2 -0.002925 0.008350 -0.001418 0.000000 0.000000 0.000000
# 3 -0.001636 -0.001418 0.005411 0.000000 0.000000 0.000000
# 4 0.000000 0.000000 0.000000 0.028766 0.000000 0.000000
# 5 0.000000 0.000000 0.000000 0.000000 0.015787 0.000000
# 6 0.000000 0.000000 0.000000 0.000000 0.000000 0.029315
#
#
# Mechanical properties :
#
#
# Convention : Reuss Voigt Hill
#
# Bulk Modulus (GPa) = 73.34051 80.31203 76.82627
# Shear Modulus (GPa) = 43.11796 47.79293 45.45544
#
# Velocity S-wave (km/s) = 4.55342 4.79391 4.67521
# Velocity P-wave (km/s) = 7.93165 8.32231 8.12933
#
# Compressibility (1/GPa) = 0.01363503
#
# Stress axis : x y z
#
# Youngs Moduli (GPa) = 84.52585 119.76246 184.81354
#
# Poissons Ratio (x) = 0.35026 0.30232
# Poissons Ratio (y) = 0.24721 0.26202
# Poissons Ratio (z) = 0.13827 0.16979
#
# Static dielectric constant tensor:
#      x y z
#    x 1.791530 0.000000 0.000000 
#    y 0.000000 1.799470 0.000000 
#    z 0.000000 0.000000 1.792280 
# 
# From -- ./inp_files/3955.got.cif
#   From: 2010.05.17/outbox.cif.g08.bks.cpg/sg66_2_cif.got.tgz:3955.got - 2010.06.03 17:51:23.
