data_PCOD9499444
_publ_section_title
;
Structure prediction by ZEFSAII (Michael W. Deem and Ramdas Pophale) SiO2 
 PCOD9499444
Probable space group: C C C M
;
_chemical_formula_sum "Si O2"
_cell_formula_units_Z 112
_cell_length_a 35.548266
_cell_length_b 23.855805
_cell_length_c 9.355472
_cell_angle_alpha 90.000000
_cell_angle_beta 90.000000
_cell_angle_gamma 90.000000
_cell_volume 7933.744326
_symmetry_space_group_name_H-M "C C C M"
_symmetry_group_IT_number 66
_symmetry_cell_setting 'orthorhombic'
loop_
_space_group_symop_operation_xyz
x,y,z
-x,-y,z
x,-y,1/2-z
-x,y,1/2-z
-x,-y,-z
x,y,-z
-x,y,1/2+z
x,-y,1/2+z
1/2+x,1/2+y,z
1/2-x,1/2-y,z
1/2+x,1/2-y,1/2-z
1/2-x,1/2+y,1/2-z
1/2-x,1/2-y,-z
1/2+x,1/2+y,-z
1/2-x,1/2+y,1/2+z
1/2+x,1/2-y,1/2+z
loop_
_atom_site_type_symbol
_atom_site_label
_atom_site_fract_x
_atom_site_fract_y
_atom_site_fract_z
Si Si1 0.962963 0.912853 0.834734
Si Si2 0.380755 0.272189 0.827299
Si Si3 0.189401 0.270175 0.668108
Si Si4 0.036232 0.223928 0.835565
Si Si5 0.880895 0.902867 0.826757
Si Si6 0.739703 0.341765 0.830857
Si Si7 0.701416 0.556233 0.171958
O O1 0.962860 0.844418 0.832491
O O2 0.921204 0.926820 0.775498
O O3 0.000000 0.931463 0.750000
O O4 0.965975 0.930619 0.000000
O O5 0.348137 0.235405 0.759370
O O6 0.423081 0.256235 0.782470
O O7 0.376076 0.337665 0.783832
O O8 0.378957 0.270504 0.000000
O O9 0.180554 0.274949 0.500000
O O10 0.218474 0.319722 0.705295
O O11 0.212616 0.212205 0.686807
O O12 0.000000 0.242837 0.750000
O O13 0.032416 0.240223 0.000000
O O14 0.842637 0.934034 0.788313
O O15 0.883796 0.902793 0.000000
O O16 0.724661 0.391435 0.733154
O O17 0.738767 0.356751 0.000000
O O18 0.714333 0.500000 0.250000
O O19 0.704026 0.552942 0.000000
#
# Coordination Sequence:
#
# PCOD9499444 Si02
#       7
#    16  16  16  16  16  16  16
#     4   8  13  23  37  53  72  94 122 158 200 243
#     4   9  15  25  40  59  81 106 137 170 203 244
#     4   9  17  28  44  64  87 109 130 166 209 246
#     4   8  14  22  33  50  76 105 133 166 198 234
#     4   8  15  27  41  56  77 102 128 162 204 248
#     4   9  18  32  45  62  86 108 132 165 207 250
#     4  11  21  33  48  63  80 106 137 170 209 251
#
# _framework density 14.116916
#
# number of rings (size 3 to 8) (size 9 to 14) (size 15 to 20)
#    0.000    3.143    1.429    3.000    0.000    1.143 
#    0.000    5.000    0.000    0.429    0.000    3.000 
#    0.000    0.000    0.000    0.000    0.000    0.714 
#
# Total GULP energy -311744.714412 kJ/mol
# GULP energy per Si atom -5566.869900 kJ/mol
# Density = 1.408479 g / cm^3
# Si number density = 14.116916 Si / 1000 Ang^3
#
#
#
# Elastic Constant Matrix: (Units=GPa)
#
#
# Indices 1 2 3 4 5 6 
#
# 1 110.2634 36.3184 47.7311 0.0000 0.0000 0.0000
# 2 36.3184 44.6889 28.5438 0.0000 0.0000 0.0000
# 3 47.7311 28.5438 40.4860 0.0000 0.0000 0.0000
# 4 0.0000 0.0000 0.0000 1.7968 0.0000 0.0000
# 5 0.0000 0.0000 0.0000 0.0000 26.8015 0.0000
# 6 0.0000 0.0000 0.0000 0.0000 0.0000 3.3008
#
#
#
# Elastic Compliance Matrix: (Units=1/GPa)
#
#
# Indices 1 2 3 4 5 6 
#
# 1 0.018622 -0.002021 -0.020529 0.000000 0.000000 0.000000
# 2 -0.002021 0.040928 -0.026472 0.000000 0.000000 0.000000
# 3 -0.020529 -0.026472 0.067566 0.000000 0.000000 0.000000
# 4 0.000000 0.000000 0.000000 0.556557 0.000000 0.000000
# 5 0.000000 0.000000 0.000000 0.000000 0.037311 0.000000
# 6 0.000000 0.000000 0.000000 0.000000 0.000000 0.302957
#
#
# Mechanical properties :
#
#
# Convention : Reuss Voigt Hill
#
# Bulk Modulus (GPa) = 34.39881 46.73610 40.56745
# Shear Modulus (GPa) = 4.41822 11.90280 8.16051
#
# Velocity S-wave (km/s) = 1.77102 2.90687 2.40691
# Velocity P-wave (km/s) = 5.34809 6.66670 6.04346
#
# Compressibility (1/GPa) = 0.02907077
#
# Stress axis : x y z
#
# Youngs Moduli (GPa) = 53.70107 24.43303 14.80029
#
# Poissons Ratio (x) = 0.04939 0.30383
# Poissons Ratio (y) = 0.10855 0.39180
# Poissons Ratio (z) = 1.10242 0.64680
#
# Static dielectric constant tensor:
#      x y z
#    x 1.490110 0.000000 0.000000 
#    y 0.000000 1.441790 0.000000 
#    z 0.000000 0.000000 1.469160 
# 
# From -- ./inp_files/20833.got.cif
#   From: 2010.05.17/outbox.cif.g08.bks.cpg/sg66_11_cif.got.tgz:20833.got - 2010.06.03 17:51:23.
