data_PCOD9499879
_publ_section_title
;
Structure prediction by ZEFSAII (Michael W. Deem and Ramdas Pophale) SiO2 
 PCOD9499879
Probable space group: C C C M
;
_chemical_formula_sum "Si O2"
_cell_formula_units_Z 72
_cell_length_a 9.546201
_cell_length_b 13.076883
_cell_length_c 26.688043
_cell_angle_alpha 90.000000
_cell_angle_beta 90.000000
_cell_angle_gamma 90.000000
_cell_volume 3331.589934
_symmetry_space_group_name_H-M "C C C M"
_symmetry_group_IT_number 66
_symmetry_cell_setting 'orthorhombic'
loop_
_space_group_symop_operation_xyz
x,y,z
-x,-y,z
x,-y,1/2-z
-x,y,1/2-z
-x,-y,-z
x,y,-z
-x,y,1/2+z
x,-y,1/2+z
1/2+x,1/2+y,z
1/2-x,1/2-y,z
1/2+x,1/2-y,1/2-z
1/2-x,1/2+y,1/2-z
1/2-x,1/2-y,-z
1/2+x,1/2+y,-z
1/2-x,1/2+y,1/2+z
1/2+x,1/2-y,1/2+z
loop_
_atom_site_type_symbol
_atom_site_label
_atom_site_fract_x
_atom_site_fract_y
_atom_site_fract_z
Si Si1 0.418442 0.250676 0.500000
Si Si2 0.318203 0.633901 0.500000
Si Si3 0.500000 0.500000 0.828674
Si Si4 0.403439 0.712387 0.794575
Si Si5 0.235324 0.463631 0.894998
Si Si6 0.456165 0.841989 0.108613
O O1 0.250000 0.250000 0.500000
O O2 0.512811 0.352849 0.500000
O O3 0.462808 0.196937 0.448295
O O4 0.250000 0.750000 0.500000
O O5 0.269913 0.572600 0.548879
O O6 0.427433 0.591260 0.798354
O O7 0.375018 0.453951 0.862547
O O8 0.500000 0.753087 0.750000
O O9 0.250000 0.750000 0.781693
O O10 0.433495 0.756479 0.849833
O O11 0.172796 0.578015 0.891144
O O12 0.103271 0.395364 0.878363
#
# Coordination Sequence:
#
# PCOD9499879 Si02
#       6
#     8   8   8  16  16  16
#     4  12  25  39  72 103 145 196 248 303 370 452
#     4  12  23  42  65 106 150 205 256 295 383 451
#     4  12  27  47  78 110 146 187 264 314 385 464
#     4  12  28  52  77 111 148 198 253 321 391 456
#     4  11  25  43  70 107 149 197 248 309 370 465
#     4  11  24  49  72 105 152 196 246 307 388 452
#
# _framework density 21.611301999999998
#
# number of rings (size 3 to 8) (size 9 to 14) (size 15 to 20)
#    0.000    0.444    4.444    3.000    6.222    2.222 
#    0.000    2.222    0.000    0.000    0.000    0.000 
#    0.000    0.000    0.000    0.000    0.000    0.000 
#
# Total GULP energy -201342.919116 kJ/mol
# GULP energy per Si atom -5592.858864 kJ/mol
# Density = 2.156211 g / cm^3
# Si number density = 21.611302 Si / 1000 Ang^3
#
#
#
# Elastic Constant Matrix: (Units=GPa)
#
#
# Indices 1 2 3 4 5 6 
#
# 1 164.1484 47.6388 48.2523 0.0000 0.0000 0.0000
# 2 47.6388 102.9891 39.9583 0.0000 0.0000 0.0000
# 3 48.2523 39.9583 101.7645 0.0000 0.0000 0.0000
# 4 0.0000 0.0000 0.0000 92.4891 0.0000 0.0000
# 5 0.0000 0.0000 0.0000 0.0000 5.0253 0.0000
# 6 0.0000 0.0000 0.0000 0.0000 0.0000 30.4592
#
#
#
# Elastic Compliance Matrix: (Units=1/GPa)
#
#
# Indices 1 2 3 4 5 6 
#
# 1 0.007585 -0.002493 -0.002618 0.000000 0.000000 0.000000
# 2 -0.002493 0.012274 -0.003637 0.000000 0.000000 0.000000
# 3 -0.002618 -0.003637 0.012496 0.000000 0.000000 0.000000
# 4 0.000000 0.000000 0.000000 0.010812 0.000000 0.000000
# 5 0.000000 0.000000 0.000000 0.000000 0.198995 0.000000
# 6 0.000000 0.000000 0.000000 0.000000 0.000000 0.032831
#
#
# Mechanical properties :
#
#
# Convention : Reuss Voigt Hill
#
# Bulk Modulus (GPa) = 67.29847 71.17789 69.23818
# Shear Modulus (GPa) = 16.80999 41.13155 28.97077
#
# Velocity S-wave (km/s) = 2.79199 4.36735 3.66531
# Velocity P-wave (km/s) = 6.44993 7.64452 7.07249
#
# Compressibility (1/GPa) = 0.01485918
#
# Stress axis : x y z
#
# Youngs Moduli (GPa) = 131.83900 81.47181 80.02535
#
# Poissons Ratio (x) = 0.20310 0.20948
# Poissons Ratio (y) = 0.32867 0.29109
# Poissons Ratio (z) = 0.34510 0.29635
#
# Static dielectric constant tensor:
#      x y z
#    x 1.809090 0.000000 0.000000 
#    y 0.000000 1.802100 0.000000 
#    z 0.000000 0.000000 1.777580 
# 
# From -- ./inp_files/62232.got.cif
#   From: 2010.05.17/outbox.cif.g08.bks.cpg/sg66_32_cif.got.tgz:62232.got - 2010.06.03 17:51:23.
