data_PCOD9499120
_publ_section_title
;
Structure prediction by ZEFSAII (Michael W. Deem and Ramdas Pophale) SiO2 
 PCOD9499120
Probable space group: C C C M
;
_chemical_formula_sum "Si O2"
_cell_formula_units_Z 108
_cell_length_a 11.492575
_cell_length_b 15.154833
_cell_length_c 25.962334
_cell_angle_alpha 90.000000
_cell_angle_beta 90.000000
_cell_angle_gamma 90.000000
_cell_volume 4521.809213
_symmetry_space_group_name_H-M "C C C M"
_symmetry_group_IT_number 66
_symmetry_cell_setting 'orthorhombic'
loop_
_space_group_symop_operation_xyz
x,y,z
-x,-y,z
x,-y,1/2-z
-x,y,1/2-z
-x,-y,-z
x,y,-z
-x,y,1/2+z
x,-y,1/2+z
1/2+x,1/2+y,z
1/2-x,1/2-y,z
1/2+x,1/2-y,1/2-z
1/2-x,1/2+y,1/2-z
1/2-x,1/2-y,-z
1/2+x,1/2+y,-z
1/2-x,1/2+y,1/2+z
1/2+x,1/2-y,1/2+z
loop_
_atom_site_type_symbol
_atom_site_label
_atom_site_fract_x
_atom_site_fract_y
_atom_site_fract_z
Si Si1 0.940321 0.717707 0.830341
Si Si2 0.712367 0.500000 0.250000
Si Si3 0.831755 0.668210 0.719122
Si Si4 0.585479 0.839317 0.056722
Si Si5 0.804861 0.656167 0.560123
Si Si6 0.500000 0.500000 0.000000
Si Si7 0.575238 0.585451 0.166513
Si Si8 0.282280 0.473182 0.078070
O O1 0.865200 0.692013 0.779419
O O2 0.888801 0.703459 0.887422
O O3 0.979953 0.819651 0.831051
O O4 0.058028 0.666250 0.818449
O O5 0.785690 0.568332 0.283016
O O6 0.629428 0.567036 0.221245
O O7 0.750000 0.750000 0.703621
O O8 0.444961 0.848616 0.059479
O O9 0.666483 0.926390 0.055739
O O10 0.607025 0.794327 0.000000
O O11 0.766965 0.643327 0.500000
O O12 0.750000 0.750000 0.575830
O O13 0.750492 0.574085 0.589791
O O14 0.600868 0.523727 0.956308
O O15 0.500000 0.500000 0.153826
O O16 0.681358 0.583034 0.127169
#
# Coordination Sequence:
#
# PCOD9499120 Si02
#       8
#    16   8  16  16  16   4  16  16
#     4  11  27  48  72 112 155 193 259 320 398 466
#     4  12  25  45  80 108 144 196 259 311 406 466
#     4  11  24  49  78 108 151 198 251 332 387 471
#     4  11  25  47  77 110 152 205 257 324 397 468
#     4  10  23  44  72 102 144 195 254 320 384 457
#     4  12  24  48  72 104 150 196 264 306 370 460
#     4  12  27  45  74 109 150 201 250 317 394 480
#     4  12  25  47  74 108 150 199 258 318 383 463
#
# _framework density 23.884246000000001
#
# number of rings (size 3 to 8) (size 9 to 14) (size 15 to 20)
#    0.000    0.741    3.704    2.444    6.222    2.963 
#    6.667    0.741    0.000    0.000    0.000    0.000 
#    0.000    0.000    0.000    0.000    0.000    0.000 
#
# Total GULP energy -300889.891501 kJ/mol
# GULP energy per Si atom -5572.035028 kJ/mol
# Density = 2.382988 g / cm^3
# Si number density = 23.884246 Si / 1000 Ang^3
#
#
#
# Elastic Constant Matrix: (Units=GPa)
#
#
# Indices 1 2 3 4 5 6 
#
# 1 114.9498 38.7789 7.3067 0.0000 0.0000 0.0000
# 2 38.7789 111.2515 8.8671 0.0000 0.0000 0.0000
# 3 7.3067 8.8671 114.0449 0.0000 0.0000 0.0000
# 4 0.0000 0.0000 0.0000 19.6013 0.0000 0.0000
# 5 0.0000 0.0000 0.0000 0.0000 69.2991 0.0000
# 6 0.0000 0.0000 0.0000 0.0000 0.0000 29.3471
#
#
#
# Elastic Compliance Matrix: (Units=1/GPa)
#
#
# Indices 1 2 3 4 5 6 
#
# 1 0.009874 -0.003413 -0.000367 0.000000 0.000000 0.000000
# 2 -0.003413 0.010224 -0.000576 0.000000 0.000000 0.000000
# 3 -0.000367 -0.000576 0.008837 0.000000 0.000000 0.000000
# 4 0.000000 0.000000 0.000000 0.051017 0.000000 0.000000
# 5 0.000000 0.000000 0.000000 0.000000 0.014430 0.000000
# 6 0.000000 0.000000 0.000000 0.000000 0.000000 0.034075
#
#
# Mechanical properties :
#
#
# Convention : Reuss Voigt Hill
#
# Bulk Modulus (GPa) = 49.44935 50.01686 49.73311
# Shear Modulus (GPa) = 34.74390 42.66907 38.70648
#
# Velocity S-wave (km/s) = 3.81816 4.23128 4.03002
# Velocity P-wave (km/s) = 6.33928 6.69765 6.52093
#
# Compressibility (1/GPa) = 0.02022271
#
# Stress axis : x y z
#
# Youngs Moduli (GPa) = 101.27583 97.80839 113.16294
#
# Poissons Ratio (x) = 0.33377 0.04156
# Poissons Ratio (y) = 0.34560 0.06522
# Poissons Ratio (z) = 0.03720 0.05637
#
# Static dielectric constant tensor:
#      x y z
#    x 1.948290 0.000000 0.000000 
#    y 0.000000 1.723220 0.000000 
#    z 0.000000 0.000000 2.053750 
# 
# From -- ./inp_files/69114.got.cif
#   From: 2010.05.17/outbox.cif.g08.bks.cpg/sg66_35_cif.got.tgz:69114.got - 2010.06.03 17:51:23.
