data_PCOD9499749
_publ_section_title
;
Structure prediction by ZEFSAII (Michael W. Deem and Ramdas Pophale) SiO2 
 PCOD9499749
Probable space group: C C C M
;
_chemical_formula_sum "Si O2"
_cell_formula_units_Z 96
_cell_length_a 24.396035
_cell_length_b 22.333192
_cell_length_c 8.824062
_cell_angle_alpha 90.000000
_cell_angle_beta 90.000000
_cell_angle_gamma 90.000000
_cell_volume 4807.713709
_symmetry_space_group_name_H-M "C C C M"
_symmetry_group_IT_number 66
_symmetry_cell_setting 'orthorhombic'
loop_
_space_group_symop_operation_xyz
x,y,z
-x,-y,z
x,-y,1/2-z
-x,y,1/2-z
-x,-y,-z
x,y,-z
-x,y,1/2+z
x,-y,1/2+z
1/2+x,1/2+y,z
1/2-x,1/2-y,z
1/2+x,1/2-y,1/2-z
1/2-x,1/2+y,1/2-z
1/2-x,1/2-y,-z
1/2+x,1/2+y,-z
1/2-x,1/2+y,1/2+z
1/2+x,1/2-y,1/2+z
loop_
_atom_site_type_symbol
_atom_site_label
_atom_site_fract_x
_atom_site_fract_y
_atom_site_fract_z
Si Si1 0.606702 0.436567 0.316732
Si Si2 0.170301 0.245646 0.176901
Si Si3 0.057840 0.566956 0.317960
Si Si4 0.335565 0.872513 0.177800
Si Si5 0.053494 0.183562 0.176325
Si Si6 0.223412 0.117909 0.818637
O O1 0.591058 0.500000 0.250000
O O2 0.604760 0.437391 0.500000
O O3 0.568633 0.382180 0.261004
O O4 0.669411 0.419507 0.274969
O O5 0.173659 0.302726 0.282986
O O6 0.108227 0.221988 0.189075
O O7 0.207859 0.187893 0.211652
O O8 0.180382 0.262592 0.000000
O O9 0.064171 0.500000 0.250000
O O10 0.054524 0.564743 0.500000
O O11 0.110805 0.604311 0.265641
O O12 0.000000 0.590377 0.250000
O O13 0.278824 0.901467 0.236512
O O14 0.342966 0.882388 0.000000
O O15 0.000000 0.210609 0.250000
O O16 0.041798 0.176229 0.000000
O O17 0.230427 0.113061 0.000000
#
# Coordination Sequence:
#
# PCOD9499749 Si02
#       6
#    16  16  16  16  16  16
#     4   9  19  35  54  77 106 142 183 226 274 326
#     4   9  19  37  57  77 108 149 188 231 285 334
#     4  11  23  43  66  87 114 146 181 223 273 324
#     4  12  24  36  56  88 117 145 184 224 268 329
#     4   9  19  35  54  77 106 142 183 226 274 326
#     4   9  19  37  57  77 108 149 188 231 285 334
#
# _framework density 19.967911000000001
#
# number of rings (size 3 to 8) (size 9 to 14) (size 15 to 20)
#    0.000    2.167    0.000    6.000    0.000    6.333 
#    0.000    8.333    0.000    0.000    0.000    0.000 
#    0.000    0.000    0.000    0.000    0.000    0.000 
#
# Total GULP energy -268023.462440 kJ/mol
# GULP energy per Si atom -5583.822134 kJ/mol
# Density = 1.992246 g / cm^3
# Si number density = 19.967911 Si / 1000 Ang^3
#
#
#
# Elastic Constant Matrix: (Units=GPa)
#
#
# Indices 1 2 3 4 5 6 
#
# 1 119.2775 -11.2940 46.4812 0.0000 0.0000 0.0000
# 2 -11.2940 7.5554 4.7239 0.0000 0.0000 0.0000
# 3 46.4812 4.7239 81.2223 0.0000 0.0000 0.0000
# 4 0.0000 0.0000 0.0000 -21.3049 0.0000 0.0000
# 5 0.0000 0.0000 0.0000 0.0000 61.9121 0.0000
# 6 0.0000 0.0000 0.0000 0.0000 0.0000 -9.5475
#
#
#
# Elastic Compliance Matrix: (Units=1/GPa)
#
#
# Indices 1 2 3 4 5 6 
#
# 1 0.015205 0.029233 -0.010402 0.000000 0.000000 0.000000
# 2 0.029233 0.193553 -0.027986 0.000000 0.000000 0.000000
# 3 -0.010402 -0.027986 0.019892 0.000000 0.000000 0.000000
# 4 0.000000 0.000000 0.000000 -0.046938 0.000000 0.000000
# 5 0.000000 0.000000 0.000000 0.000000 0.016152 0.000000
# 6 0.000000 0.000000 0.000000 0.000000 0.000000 -0.104739
#
#
# Mechanical properties :
#
#
# Convention : Reuss Voigt Hill
#
# Bulk Modulus (GPa) = 4.75421 31.98638 18.37030
# Shear Modulus (GPa) = 27.54086 17.42154 22.48120
#
# Velocity S-wave (km/s) = 3.71786 2.95698 3.35903
# Velocity P-wave (km/s) = 4.56247 5.26421 4.92585
#
# Compressibility (1/GPa) = 0.21033968
#
# Stress axis : x y z
#
# Youngs Moduli (GPa) = 65.76699 5.16656 50.27101
#
# Poissons Ratio (x) = -0.15103 0.52290
# Poissons Ratio (y) = -1.92255 1.40690
# Poissons Ratio (z) = 0.68409 0.14459
#
# Static dielectric constant tensor:
#      x y z
#    x 1.742840 0.000000 0.000000 
#    y 0.000000 1.711590 0.000000 
#    z 0.000000 0.000000 1.669750 
# 
# From -- ./inp_files/9128.got.cif
#   From: 2010.05.17/outbox.cif.g08.bks.cpg/sg66_5_cif.got.tgz:9128.got - 2010.06.03 17:51:23.
