data_PCOD9499021
_publ_section_title
;
Structure prediction by ZEFSAII (Michael W. Deem and Ramdas Pophale) SiO2 
 PCOD9499021
Probable space group: C C C M
;
_chemical_formula_sum "Si O2"
_cell_formula_units_Z 88
_cell_length_a 11.081199
_cell_length_b 11.434661
_cell_length_c 29.769450
_cell_angle_alpha 90.000000
_cell_angle_beta 90.000000
_cell_angle_gamma 90.000000
_cell_volume 3772.079687
_symmetry_space_group_name_H-M "C C C M"
_symmetry_group_IT_number 66
_symmetry_cell_setting 'orthorhombic'
loop_
_space_group_symop_operation_xyz
x,y,z
-x,-y,z
x,-y,1/2-z
-x,y,1/2-z
-x,-y,-z
x,y,-z
-x,y,1/2+z
x,-y,1/2+z
1/2+x,1/2+y,z
1/2-x,1/2-y,z
1/2+x,1/2-y,1/2-z
1/2-x,1/2+y,1/2-z
1/2-x,1/2-y,-z
1/2+x,1/2+y,-z
1/2-x,1/2+y,1/2+z
1/2+x,1/2-y,1/2+z
loop_
_atom_site_type_symbol
_atom_site_label
_atom_site_fract_x
_atom_site_fract_y
_atom_site_fract_z
Si Si1 0.879739 0.693599 0.810900
Si Si2 0.788294 0.500000 0.750000
Si Si3 0.684674 0.372298 0.902760
Si Si4 0.376453 0.569539 0.000000
Si Si5 0.921885 0.886482 0.693071
Si Si6 0.384021 0.075493 0.902929
Si Si7 0.674278 0.131803 0.500000
O O1 0.750000 0.750000 0.800194
O O2 0.869870 0.572150 0.784544
O O3 0.876715 0.671617 0.864394
O O4 0.994783 0.772948 0.798502
O O5 0.701791 0.588086 0.720550
O O6 0.750000 0.250000 0.894065
O O7 0.599175 0.387521 0.860345
O O8 0.771738 0.485774 0.901814
O O9 0.630609 0.363087 0.952846
O O10 0.500000 0.500000 0.000000
O O11 0.265373 0.478270 0.000000
O O12 0.000000 0.000000 0.703270
O O13 0.500000 0.000000 0.891950
O O14 0.396958 0.124939 0.953309
O O15 0.750000 0.250000 0.500000
#
# Coordination Sequence:
#
# PCOD9499021 Si02
#       7
#    16   8  16   8  16  16   8
#     4  12  26  48  76 106 147 191 253 305 376 454
#     4  12  27  54  77 108 152 195 266 311 396 442
#     4  11  23  43  70 102 149 186 236 301 368 441
#     4  10  23  40  68 106 136 186 239 287 358 449
#     4  12  25  49  76 106 143 197 244 313 374 442
#     4  11  23  45  66 109 143 189 238 301 367 447
#     4  10  23  40  72  98 144 184 235 291 364 445
#
# _framework density 23.329307
#
# number of rings (size 3 to 8) (size 9 to 14) (size 15 to 20)
#    0.000    0.727    3.636    3.000    0.000    6.545 
#    6.545    0.000    0.000    0.000    0.000    0.000 
#    0.000    0.000    0.000    0.000    0.000    0.000 
#
# Total GULP energy -246227.018727 kJ/mol
# GULP energy per Si atom -5596.068607 kJ/mol
# Density = 2.327621 g / cm^3
# Si number density = 23.329307 Si / 1000 Ang^3
#
#
#
# Elastic Constant Matrix: (Units=GPa)
#
#
# Indices 1 2 3 4 5 6 
#
# 1 74.6404 30.2104 40.4619 0.0000 0.0000 0.0000
# 2 30.2104 91.0999 50.7586 0.0000 0.0000 0.0000
# 3 40.4619 50.7586 195.1506 0.0000 0.0000 0.0000
# 4 0.0000 0.0000 0.0000 -101.4151 0.0000 0.0000
# 5 0.0000 0.0000 0.0000 0.0000 -5.3611 0.0000
# 6 0.0000 0.0000 0.0000 0.0000 0.0000 39.7271
#
#
#
# Elastic Compliance Matrix: (Units=1/GPa)
#
#
# Indices 1 2 3 4 5 6 
#
# 1 0.016320 -0.004124 -0.002311 0.000000 0.000000 0.000000
# 2 -0.004124 0.013880 -0.002755 0.000000 0.000000 0.000000
# 3 -0.002311 -0.002755 0.006320 0.000000 0.000000 0.000000
# 4 0.000000 0.000000 0.000000 -0.009860 0.000000 0.000000
# 5 0.000000 0.000000 0.000000 0.000000 -0.186527 0.000000
# 6 0.000000 0.000000 0.000000 0.000000 0.000000 0.025172
#
#
# Mechanical properties :
#
#
# Convention : Reuss Voigt Hill
#
# Bulk Modulus (GPa) = 55.13036 67.08363 61.10700
# Shear Modulus (GPa) = -45.34311 2.55418 -21.39447
#
# Velocity S-wave (km/s) = -4.41342 1.04748 -3.03159
# Velocity P-wave (km/s) = 1.51275 5.50277 3.74113
#
# Compressibility (1/GPa) = 0.01813882
#
# Stress axis : x y z
#
# Youngs Moduli (GPa) = 61.27608 72.04789 158.22890
#
# Poissons Ratio (x) = 0.29715 0.36566
# Poissons Ratio (y) = 0.25272 0.43592
# Poissons Ratio (z) = 0.14160 0.19849
#
# Static dielectric constant tensor:
#      x y z
#    x 1.942100 0.000000 0.000000 
#    y 0.000000 1.895030 0.000000 
#    z 0.000000 0.000000 2.180450 
# 
# From -- ./inp_files/68912.got.cif
#   From: 2010.05.17/outbox.cif.g08.bks.cpg/sg66_35_cif.got.tgz:68912.got - 2010.06.03 17:51:23.
