data_PCOD9499941
_publ_section_title
;
Structure prediction by ZEFSAII (Michael W. Deem and Ramdas Pophale) SiO2 
 PCOD9499941
Probable space group: C C C M
;
_chemical_formula_sum "Si O2"
_cell_formula_units_Z 48
_cell_length_a 16.758017
_cell_length_b 9.869729
_cell_length_c 13.718579
_cell_angle_alpha 90.000000
_cell_angle_beta 90.000000
_cell_angle_gamma 90.000000
_cell_volume 2269.012996
_symmetry_space_group_name_H-M "C C C M"
_symmetry_group_IT_number 66
_symmetry_cell_setting 'orthorhombic'
loop_
_space_group_symop_operation_xyz
x,y,z
-x,-y,z
x,-y,1/2-z
-x,y,1/2-z
-x,-y,-z
x,y,-z
-x,y,1/2+z
x,-y,1/2+z
1/2+x,1/2+y,z
1/2-x,1/2-y,z
1/2+x,1/2-y,1/2-z
1/2-x,1/2+y,1/2-z
1/2-x,1/2-y,-z
1/2+x,1/2+y,-z
1/2-x,1/2+y,1/2+z
1/2+x,1/2-y,1/2+z
loop_
_atom_site_type_symbol
_atom_site_label
_atom_site_fract_x
_atom_site_fract_y
_atom_site_fract_z
Si Si1 0.184007 0.634345 0.311723
Si Si2 0.095168 0.516819 0.500000
Si Si3 0.154437 0.213100 0.500000
Si Si4 0.589702 0.640201 0.294240
O O1 0.208562 0.500000 0.250000
O O2 0.250000 0.750000 0.338102
O O3 0.133803 0.588650 0.405742
O O4 0.128054 0.721054 0.241432
O O5 0.121120 0.362778 0.500000
O O6 0.000000 0.500000 0.500000
O O7 0.250000 0.250000 0.500000
O O8 0.116669 0.136885 0.406838
O O9 0.621317 0.500000 0.250000
O O10 0.500000 0.645998 0.250000
#
# Coordination Sequence:
#
# PCOD9499941 Si02
#       4
#    16   8   8  16
#     4  12  26  45  74 108 150 195 255 306 379 449
#     4  12  27  46  76 109 149 198 254 311 376 457
#     4  12  26  47  76 109 153 197 248 318 389 443
#     4  11  26  46  75 109 152 200 252 315 380 459
#
# _framework density 21.154571000000001
#
# number of rings (size 3 to 8) (size 9 to 14) (size 15 to 20)
#    0.000    0.333    3.333    4.500    4.667    4.000 
#    0.000    0.000    0.000    0.000    0.000    0.000 
#    0.000    0.000    0.000    0.000    0.000    0.000 
#
# Total GULP energy -133720.045631 kJ/mol
# GULP energy per Si atom -5571.668568 kJ/mol
# Density = 2.110642 g / cm^3
# Si number density = 21.154571 Si / 1000 Ang^3
#
#
#
# Elastic Constant Matrix: (Units=GPa)
#
#
# Indices 1 2 3 4 5 6 
#
# 1 190.7280 66.5854 78.1360 0.0000 0.0000 0.0000
# 2 66.5854 180.6992 77.8025 0.0000 0.0000 0.0000
# 3 78.1360 77.8025 229.8096 0.0000 0.0000 0.0000
# 4 0.0000 0.0000 0.0000 247.1915 0.0000 0.0000
# 5 0.0000 0.0000 0.0000 0.0000 8.7191 0.0000
# 6 0.0000 0.0000 0.0000 0.0000 0.0000 -360.4006
#
#
#
# Elastic Compliance Matrix: (Units=1/GPa)
#
#
# Indices 1 2 3 4 5 6 
#
# 1 0.006505 -0.001691 -0.001639 0.000000 0.000000 0.000000
# 2 -0.001691 0.006918 -0.001767 0.000000 0.000000 0.000000
# 3 -0.001639 -0.001767 0.005507 0.000000 0.000000 0.000000
# 4 0.000000 0.000000 0.000000 0.004045 0.000000 0.000000
# 5 0.000000 0.000000 0.000000 0.000000 0.114691 0.000000
# 6 0.000000 0.000000 0.000000 0.000000 0.000000 -0.002775
#
#
# Mechanical properties :
#
#
# Convention : Reuss Voigt Hill
#
# Bulk Modulus (GPa) = 114.48058 116.25385 115.36721
# Shear Modulus (GPa) = 33.78420 4.34950 19.06685
#
# Velocity S-wave (km/s) = 4.00060 1.43545 3.00544
# Velocity P-wave (km/s) = 8.69330 7.60402 8.16684
#
# Compressibility (1/GPa) = 0.00873511
#
# Stress axis : x y z
#
# Youngs Moduli (GPa) = 153.72732 144.54784 181.58696
#
# Poissons Ratio (x) = 0.24447 0.29765
# Poissons Ratio (y) = 0.25999 0.32088
# Poissons Ratio (z) = 0.25198 0.25543
#
# Static dielectric constant tensor:
#      x y z
#    x 1.679110 0.000000 0.000000 
#    y 0.000000 1.683880 0.000000 
#    z 0.000000 0.000000 0.864330 
# 
# From -- ./inp_files/29367.got.cif
#   From: 2010.05.17/outbox.cif.g08.bks.cpg/sg66_15_cif.got.tgz:29367.got - 2010.06.03 17:51:23.
