data_PCOD9499118
_publ_section_title
;
Structure prediction by ZEFSAII (Michael W. Deem and Ramdas Pophale) SiO2 
 PCOD9499118
Probable space group: C C C M
;
_chemical_formula_sum "Si O2"
_cell_formula_units_Z 60
_cell_length_a 18.580602
_cell_length_b 4.877236
_cell_length_c 30.473072
_cell_angle_alpha 90.000000
_cell_angle_beta 90.000000
_cell_angle_gamma 90.000000
_cell_volume 2761.530151
_symmetry_space_group_name_H-M "C C C M"
_symmetry_group_IT_number 66
_symmetry_cell_setting 'orthorhombic'
loop_
_space_group_symop_operation_xyz
x,y,z
-x,-y,z
x,-y,1/2-z
-x,y,1/2-z
-x,-y,-z
x,y,-z
-x,y,1/2+z
x,-y,1/2+z
1/2+x,1/2+y,z
1/2-x,1/2-y,z
1/2+x,1/2-y,1/2-z
1/2-x,1/2+y,1/2-z
1/2-x,1/2-y,-z
1/2+x,1/2+y,-z
1/2-x,1/2+y,1/2+z
1/2+x,1/2-y,1/2+z
loop_
_atom_site_type_symbol
_atom_site_label
_atom_site_fract_x
_atom_site_fract_y
_atom_site_fract_z
Si Si1 0.578397 0.363253 0.118421
Si Si2 0.801104 0.011651 0.549870
Si Si3 0.750000 0.750000 0.221641
Si Si4 0.891415 0.345716 0.676294
Si Si5 0.000000 0.500000 0.250000
O O1 0.500000 0.500000 0.110840
O O2 0.629270 0.423917 0.077130
O O3 0.610806 0.542817 0.157435
O O4 0.583138 0.055404 0.137812
O O5 0.820984 0.097052 0.500000
O O6 0.750000 0.250000 0.569546
O O7 0.750000 0.750000 0.547625
O O8 0.717068 0.500000 0.250000
O O9 0.811836 0.600358 0.193790
O O10 0.947242 0.346325 0.716470
#
# Coordination Sequence:
#
# PCOD9499118 Si02
#       5
#    16  16   8  16   4
#     4  12  25  44  65 102 132 172 226 273 333 396
#     4  10  23  44  70 100 134 175 217 269 340 406
#     4  12  26  44  64  98 129 174 237 280 342 398
#     4  12  27  42  68  95 134 177 223 282 332 393
#     4  12  24  50  64  90 138 184 220 278 332 406
#
# _framework density 21.727087000000001
#
# number of rings (size 3 to 8) (size 9 to 14) (size 15 to 20)
#    0.000    0.533    4.000    3.200    5.600    1.600 
#    0.000    0.000    0.000    8.000    0.000    0.000 
#    0.000    0.000    0.000    0.000    0.000    0.000 
#
# Total GULP energy -167582.490276 kJ/mol
# GULP energy per Si atom -5586.083009 kJ/mol
# Density = 2.167764 g / cm^3
# Si number density = 21.727087 Si / 1000 Ang^3
#
#
#
# Elastic Constant Matrix: (Units=GPa)
#
#
# Indices 1 2 3 4 5 6 
#
# 1 136.1164 6.3895 50.5780 0.0000 0.0000 0.0000
# 2 6.3895 85.2176 -5.5857 0.0000 0.0000 0.0000
# 3 50.5780 -5.5857 80.9234 0.0000 0.0000 0.0000
# 4 0.0000 0.0000 0.0000 38.8337 0.0000 0.0000
# 5 0.0000 0.0000 0.0000 0.0000-2534.8726 0.0000
# 6 0.0000 0.0000 0.0000 0.0000 0.0000 26.5529
#
#
#
# Elastic Compliance Matrix: (Units=1/GPa)
#
#
# Indices 1 2 3 4 5 6 
#
# 1 0.009676 -0.001127 -0.006125 0.000000 0.000000 0.000000
# 2 -0.001127 0.011919 0.001527 0.000000 0.000000 0.000000
# 3 -0.006125 0.001527 0.016291 0.000000 0.000000 0.000000
# 4 0.000000 0.000000 0.000000 0.025751 0.000000 0.000000
# 5 0.000000 0.000000 0.000000 0.000000 -0.000394 0.000000
# 6 0.000000 0.000000 0.000000 0.000000 0.000000 0.037661
#
#
# Mechanical properties :
#
#
# Convention : Reuss Voigt Hill
#
# Bulk Modulus (GPa) = 37.82738 45.00233 41.41485
# Shear Modulus (GPa) = 41.26615 -477.17217 -217.95301
#
# Velocity S-wave (km/s) = 4.36282 -14.83569 -10.02655
# Velocity P-wave (km/s) = 6.54423 16.51381 10.72099
#
# Compressibility (1/GPa) = 0.02643588
#
# Stress axis : x y z
#
# Youngs Moduli (GPa) = 103.35374 83.89789 61.38351
#
# Poissons Ratio (x) = 0.09455 0.37598
# Poissons Ratio (y) = 0.11647 -0.09374
# Poissons Ratio (z) = 0.63305 -0.12812
#
# Static dielectric constant tensor:
#      x y z
#    x 1.302940 0.000000 0.000000 
#    y 0.000000 1.652780 0.000000 
#    z 0.000000 0.000000 1.806290 
# 
# From -- ./inp_files/64932.got.cif
#   From: 2010.05.17/outbox.cif.g08.bks.cpg/sg66_33_cif.got.tgz:64932.got - 2010.06.03 17:51:23.
