data_PCOD9499978
_publ_section_title
;
Structure prediction by ZEFSAII (Michael W. Deem and Ramdas Pophale) SiO2 
 PCOD9499978
Probable space group: C C C M
;
_chemical_formula_sum "Si O2"
_cell_formula_units_Z 88
_cell_length_a 13.926215
_cell_length_b 11.508082
_cell_length_c 26.838948
_cell_angle_alpha 90.000000
_cell_angle_beta 90.000000
_cell_angle_gamma 90.000000
_cell_volume 4301.317811
_symmetry_space_group_name_H-M "C C C M"
_symmetry_group_IT_number 66
_symmetry_cell_setting 'orthorhombic'
loop_
_space_group_symop_operation_xyz
x,y,z
-x,-y,z
x,-y,1/2-z
-x,y,1/2-z
-x,-y,-z
x,y,-z
-x,y,1/2+z
x,-y,1/2+z
1/2+x,1/2+y,z
1/2-x,1/2-y,z
1/2+x,1/2-y,1/2-z
1/2-x,1/2+y,1/2-z
1/2-x,1/2-y,-z
1/2+x,1/2+y,-z
1/2-x,1/2+y,1/2+z
1/2+x,1/2-y,1/2+z
loop_
_atom_site_type_symbol
_atom_site_label
_atom_site_fract_x
_atom_site_fract_y
_atom_site_fract_z
Si Si1 0.590065 0.069854 0.163238
Si Si2 0.358214 0.102836 0.444943
Si Si3 0.036233 0.227900 0.193069
Si Si4 0.000000 0.000000 0.864968
Si Si5 0.250000 0.750000 0.289576
Si Si6 0.628254 0.375291 0.944983
Si Si7 0.766360 0.500000 0.750000
O O1 0.609265 0.040460 0.105546
O O2 0.549053 0.200374 0.166103
O O3 0.500000 0.000000 0.183816
O O4 0.674866 0.039960 0.200761
O O5 0.385200 0.056019 0.500000
O O6 0.391587 0.237257 0.442511
O O7 0.242784 0.108832 0.442693
O O8 0.039431 0.101154 0.169672
O O9 0.144858 0.278908 0.186649
O O10 0.000000 0.228885 0.250000
O O11 0.079494 0.945473 0.901136
O O12 0.278662 0.626770 0.263098
O O13 0.596707 0.415348 0.000000
#
# Coordination Sequence:
#
# PCOD9499978 Si02
#       7
#    16  16  16   8   8  16   8
#     4  12  22  43  67  86 128 176 220 260 322 407
#     4   9  20  38  62  92 123 165 223 275 322 397
#     4  12  26  44  59  96 132 171 222 266 331 399
#     4  12  24  36  64  98 134 168 208 288 336 390
#     4  12  28  44  68  94 140 172 224 276 324 408
#     4   9  19  38  62  91 126 165 214 269 338 398
#     4  12  27  44  71 100 128 186 223 270 335 396
#
# _framework density 20.458846999999999
#
# number of rings (size 3 to 8) (size 9 to 14) (size 15 to 20)
#    0.000    1.091    5.455    1.909    5.091    1.818 
#    0.000    0.000    0.000    0.000    0.000    5.091 
#    0.000    0.000    0.000    0.000    0.000    0.000 
#
# Total GULP energy -245071.754889 kJ/mol
# GULP energy per Si atom -5569.812611 kJ/mol
# Density = 2.041228 g / cm^3
# Si number density = 20.458847 Si / 1000 Ang^3
#
#
#
# Elastic Constant Matrix: (Units=GPa)
#
#
# Indices 1 2 3 4 5 6 
#
# 1 43.3766 10.1007 29.1928 0.0000 0.0000 0.0000
# 2 10.1007 75.1861 2.5427 0.0000 0.0000 0.0000
# 3 29.1928 2.5427 129.1119 0.0000 0.0000 0.0000
# 4 0.0000 0.0000 0.0000 44.5311 0.0000 0.0000
# 5 0.0000 0.0000 0.0000 0.0000 24.4300 0.0000
# 6 0.0000 0.0000 0.0000 0.0000 0.0000 28.2748
#
#
#
# Elastic Compliance Matrix: (Units=1/GPa)
#
#
# Indices 1 2 3 4 5 6 
#
# 1 0.028115 -0.003564 -0.006287 0.000000 0.000000 0.000000
# 2 -0.003564 0.013761 0.000535 0.000000 0.000000 0.000000
# 3 -0.006287 0.000535 0.009156 0.000000 0.000000 0.000000
# 4 0.000000 0.000000 0.000000 0.022456 0.000000 0.000000
# 5 0.000000 0.000000 0.000000 0.000000 0.040933 0.000000
# 6 0.000000 0.000000 0.000000 0.000000 0.000000 0.035367
#
#
# Mechanical properties :
#
#
# Convention : Reuss Voigt Hill
#
# Bulk Modulus (GPa) = 30.86447 36.81633 33.84040
# Shear Modulus (GPa) = 27.89848 33.16973 30.53411
#
# Velocity S-wave (km/s) = 3.69675 4.03089 3.86743
# Velocity P-wave (km/s) = 5.77410 6.30068 6.04312
#
# Compressibility (1/GPa) = 0.03239971
#
# Stress axis : x y z
#
# Youngs Moduli (GPa) = 35.56832 72.66866 109.21627
#
# Poissons Ratio (x) = 0.25902 0.68661
# Poissons Ratio (y) = 0.12678 -0.05842
# Poissons Ratio (z) = 0.22361 -0.03887
#
# Static dielectric constant tensor:
#      x y z
#    x 1.795120 0.000000 0.000000 
#    y 0.000000 1.821130 0.000000 
#    z 0.000000 0.000000 1.730960 
# 
# From -- ./inp_files/68937.got.cif
#   From: 2010.05.17/outbox.cif.g08.bks.cpg/sg66_35_cif.got.tgz:68937.got - 2010.06.03 17:51:23.
