data_PCOD9499772
_publ_section_title
;
Structure prediction by ZEFSAII (Michael W. Deem and Ramdas Pophale) SiO2 
 PCOD9499772
Probable space group: C C C M
;
_chemical_formula_sum "Si O2"
_cell_formula_units_Z 56
_cell_length_a 13.999310
_cell_length_b 5.604624
_cell_length_c 32.347557
_cell_angle_alpha 90.000000
_cell_angle_beta 90.000000
_cell_angle_gamma 90.000000
_cell_volume 2538.017426
_symmetry_space_group_name_H-M "C C C M"
_symmetry_group_IT_number 66
_symmetry_cell_setting 'orthorhombic'
loop_
_space_group_symop_operation_xyz
x,y,z
-x,-y,z
x,-y,1/2-z
-x,y,1/2-z
-x,-y,-z
x,y,-z
-x,y,1/2+z
x,-y,1/2+z
1/2+x,1/2+y,z
1/2-x,1/2-y,z
1/2+x,1/2-y,1/2-z
1/2-x,1/2+y,1/2-z
1/2-x,1/2-y,-z
1/2+x,1/2+y,-z
1/2-x,1/2+y,1/2+z
1/2+x,1/2-y,1/2+z
loop_
_atom_site_type_symbol
_atom_site_label
_atom_site_fract_x
_atom_site_fract_y
_atom_site_fract_z
Si Si1 0.855683 0.827298 0.714446
Si Si2 0.810487 0.998502 0.545483
Si Si3 0.000000 0.500000 0.172702
Si Si4 0.643507 0.637727 0.132178
O O1 0.750000 0.750000 0.727036
O O2 0.922579 0.610320 0.703405
O O3 0.892801 0.000000 0.750000
O O4 0.851702 0.959505 0.670492
O O5 0.857826 0.986483 0.500000
O O6 0.750000 0.750000 0.549138
O O7 0.750000 0.250000 0.544704
O O8 0.871119 0.019281 0.587383
O O9 0.059414 0.319648 0.143832
O O10 0.750000 0.750000 0.131181
#
# Coordination Sequence:
#
# PCOD9499772 Si02
#       4
#    16  16   8  16
#     4  12  27  49  72 101 140 186 240 300 363 438
#     4   9  19  37  69 107 144 192 245 299 365 432
#     4  12  28  47  71 102 140 190 235 300 372 439
#     4  11  23  44  72 101 144 189 238 301 361 436
#
# _framework density 22.064468000000002
#
# number of rings (size 3 to 8) (size 9 to 14) (size 15 to 20)
#    0.000    1.143    2.857    2.571    4.000    3.429 
#    0.000    0.714    0.000    3.429    0.000    0.000 
#    0.000    0.000    0.000    0.000    0.000    0.000 
#
# Total GULP energy -156441.398854 kJ/mol
# GULP energy per Si atom -5587.192816 kJ/mol
# Density = 2.201425 g / cm^3
# Si number density = 22.064468 Si / 1000 Ang^3
#
#
#
# Elastic Constant Matrix: (Units=GPa)
#
#
# Indices 1 2 3 4 5 6 
#
# 1 102.8853 27.3819 13.7525 0.0000 0.0000 0.0000
# 2 27.3819 93.3110 33.8004 0.0000 0.0000 0.0000
# 3 13.7525 33.8004 196.2821 0.0000 0.0000 0.0000
# 4 0.0000 0.0000 0.0000 33.9165 0.0000 0.0000
# 5 0.0000 0.0000 0.0000 0.0000 -38.2530 0.0000
# 6 0.0000 0.0000 0.0000 0.0000 0.0000 -6.7774
#
#
#
# Elastic Compliance Matrix: (Units=1/GPa)
#
#
# Indices 1 2 3 4 5 6 
#
# 1 0.010552 -0.003017 -0.000220 0.000000 0.000000 0.000000
# 2 -0.003017 0.012292 -0.001905 0.000000 0.000000 0.000000
# 3 -0.000220 -0.001905 0.005438 0.000000 0.000000 0.000000
# 4 0.000000 0.000000 0.000000 0.029484 0.000000 0.000000
# 5 0.000000 0.000000 0.000000 0.000000 -0.026142 0.000000
# 6 0.000000 0.000000 0.000000 0.000000 0.000000 -0.147549
#
#
# Mechanical properties :
#
#
# Convention : Reuss Voigt Hill
#
# Bulk Modulus (GPa) = 55.56061 60.26089 57.91075
# Shear Modulus (GPa) = -50.18048 18.94678 -15.61685
#
# Velocity S-wave (km/s) = -4.77410 2.93354 -2.66330
# Velocity P-wave (km/s) = 2.27017 6.23256 4.10433
#
# Compressibility (1/GPa) = 0.01799836
#
# Stress axis : x y z
#
# Youngs Moduli (GPa) = 94.77027 81.35162 183.88349
#
# Poissons Ratio (x) = 0.24542 0.04042
# Poissons Ratio (y) = 0.28590 0.35037
# Poissons Ratio (z) = 0.02083 0.15501
#
# Static dielectric constant tensor:
#      x y z
#    x 2.023510 0.000000 0.000000 
#    y 0.000000 1.990510 0.000000 
#    z 0.000000 0.000000 1.804110 
# 
# From -- ./inp_files/66777.got.cif
#   From: 2010.05.17/outbox.cif.g08.bks.cpg/sg66_34_cif.got.tgz:66777.got - 2010.06.03 17:51:23.
