data_PCOD9499250
_publ_section_title
;
Structure prediction by ZEFSAII (Michael W. Deem and Ramdas Pophale) SiO2 
 PCOD9499250
Probable space group: C C C M
;
_chemical_formula_sum "Si O2"
_cell_formula_units_Z 64
_cell_length_a 11.163302
_cell_length_b 8.743046
_cell_length_c 26.704825
_cell_angle_alpha 90.000000
_cell_angle_beta 90.000000
_cell_angle_gamma 90.000000
_cell_volume 2606.424645
_symmetry_space_group_name_H-M "C C C M"
_symmetry_group_IT_number 66
_symmetry_cell_setting 'orthorhombic'
loop_
_space_group_symop_operation_xyz
x,y,z
-x,-y,z
x,-y,1/2-z
-x,y,1/2-z
-x,-y,-z
x,y,-z
-x,y,1/2+z
x,-y,1/2+z
1/2+x,1/2+y,z
1/2-x,1/2-y,z
1/2+x,1/2-y,1/2-z
1/2-x,1/2+y,1/2-z
1/2-x,1/2-y,-z
1/2+x,1/2+y,-z
1/2-x,1/2+y,1/2+z
1/2+x,1/2-y,1/2+z
loop_
_atom_site_type_symbol
_atom_site_label
_atom_site_fract_x
_atom_site_fract_y
_atom_site_fract_z
Si Si1 0.392045 0.117487 0.885481
Si Si2 0.382354 0.683327 0.714511
Si Si3 0.972304 0.176766 0.946469
Si Si4 0.185835 0.900393 0.851920
O O1 0.406297 0.215112 0.834986
O O2 0.409260 0.228438 0.932379
O O3 0.500000 0.000000 0.889399
O O4 0.273297 0.018684 0.879986
O O5 0.500000 0.704682 0.750000
O O6 0.250000 0.750000 0.729821
O O7 0.133440 0.990965 0.692445
O O8 0.894224 0.173530 0.895891
O O9 0.921337 0.232233 0.000000
O O10 0.000000 0.000000 0.951544
O O11 0.250000 0.750000 0.830967
#
# Coordination Sequence:
#
# PCOD9499250 Si02
#       4
#    16  16  16  16
#     4  11  23  45  76 104 155 200 256 318 390 466
#     4  10  24  50  83 114 155 206 265 330 399 471
#     4  11  24  44  74 110 151 203 264 321 384 463
#     4  11  23  46  78 110 156 208 253 322 395 469
#
# _framework density 24.554708999999999
#
# number of rings (size 3 to 8) (size 9 to 14) (size 15 to 20)
#    0.000    1.250    5.000    0.000    0.000    2.500 
#    4.500   10.000   16.500    0.000    0.000    0.000 
#    0.000    0.000    0.000    0.000    0.000    0.000 
#
# Total GULP energy -178669.239729 kJ/mol
# GULP energy per Si atom -5583.413742 kJ/mol
# Density = 2.449882 g / cm^3
# Si number density = 24.554709 Si / 1000 Ang^3
#
#
#
# Elastic Constant Matrix: (Units=GPa)
#
#
# Indices 1 2 3 4 5 6 
#
# 1 141.6536 45.7759 66.0128 0.0000 0.0000 0.0000
# 2 45.7759 154.5122 40.7291 0.0000 0.0000 0.0000
# 3 66.0128 40.7291 155.2730 0.0000 0.0000 0.0000
# 4 0.0000 0.0000 0.0000 -14.3819 0.0000 0.0000
# 5 0.0000 0.0000 0.0000 0.0000 13.2524 0.0000
# 6 0.0000 0.0000 0.0000 0.0000 0.0000 34.7331
#
#
#
# Elastic Compliance Matrix: (Units=1/GPa)
#
#
# Indices 1 2 3 4 5 6 
#
# 1 0.009263 -0.001833 -0.003457 0.000000 0.000000 0.000000
# 2 -0.001833 0.007315 -0.001140 0.000000 0.000000 0.000000
# 3 -0.003457 -0.001140 0.008209 0.000000 0.000000 0.000000
# 4 0.000000 0.000000 0.000000 -0.069532 0.000000 0.000000
# 5 0.000000 0.000000 0.000000 0.000000 0.075458 0.000000
# 6 0.000000 0.000000 0.000000 0.000000 0.000000 0.028791
#
#
# Mechanical properties :
#
#
# Convention : Reuss Voigt Hill
#
# Bulk Modulus (GPa) = 83.83812 84.05269 83.94541
# Shear Modulus (GPa) = 65.49652 26.64878 46.07265
#
# Velocity S-wave (km/s) = 5.17026 3.29794 4.33636
# Velocity P-wave (km/s) = 8.35821 6.98620 7.70281
#
# Compressibility (1/GPa) = 0.01192775
#
# Stress axis : x y z
#
# Youngs Moduli (GPa) = 107.95728 136.69776 121.81725
#
# Poissons Ratio (x) = 0.25056 0.42115
# Poissons Ratio (y) = 0.19788 0.13883
# Poissons Ratio (z) = 0.37324 0.15579
#
# Static dielectric constant tensor:
#      x y z
#    x 2.048580 0.000000 0.000000 
#    y 0.000000 1.858370 0.000000 
#    z 0.000000 0.000000 2.053160 
# 
# From -- ./inp_files/68569.got.cif
#   From: 2010.05.17/outbox.cif.g08.bks.cpg/sg66_35_cif.got.tgz:68569.got - 2010.06.03 17:51:23.
