data_PCOD9499858
_publ_section_title
;
Structure prediction by ZEFSAII (Michael W. Deem and Ramdas Pophale) SiO2 
 PCOD9499858
Probable space group: C C C M
;
_chemical_formula_sum "Si O2"
_cell_formula_units_Z 72
_cell_length_a 8.628826
_cell_length_b 22.353701
_cell_length_c 15.373052
_cell_angle_alpha 90.000000
_cell_angle_beta 90.000000
_cell_angle_gamma 90.000000
_cell_volume 2965.249527
_symmetry_space_group_name_H-M "C C C M"
_symmetry_group_IT_number 66
_symmetry_cell_setting 'orthorhombic'
loop_
_space_group_symop_operation_xyz
x,y,z
-x,-y,z
x,-y,1/2-z
-x,y,1/2-z
-x,-y,-z
x,y,-z
-x,y,1/2+z
x,-y,1/2+z
1/2+x,1/2+y,z
1/2-x,1/2-y,z
1/2+x,1/2-y,1/2-z
1/2-x,1/2+y,1/2-z
1/2-x,1/2-y,-z
1/2+x,1/2+y,-z
1/2-x,1/2+y,1/2+z
1/2+x,1/2-y,1/2+z
loop_
_atom_site_type_symbol
_atom_site_label
_atom_site_fract_x
_atom_site_fract_y
_atom_site_fract_z
Si Si1 0.389225 0.413864 0.000000
Si Si2 0.670136 0.025151 0.000000
Si Si3 0.865077 0.307170 0.500000
Si Si4 0.434445 0.627015 0.165352
Si Si5 0.662169 0.938312 0.298762
Si Si6 0.564962 0.236808 0.842538
O O1 0.304840 0.476599 0.000000
O O2 0.502467 0.405963 0.918399
O O3 0.248342 0.364810 0.000000
O O4 0.500000 0.000000 0.000000
O O5 0.668201 0.052632 0.902964
O O6 0.750000 0.250000 0.500000
O O7 0.981181 0.301175 0.582334
O O8 0.500000 0.595075 0.250000
O O9 0.257439 0.623664 0.197879
O O10 0.495011 0.694023 0.152448
O O11 0.500000 0.929665 0.250000
O O12 0.721031 0.000000 0.250000
O O13 0.500000 0.216016 0.750000
O O14 0.750000 0.250000 0.852992
#
# Coordination Sequence:
#
# PCOD9499858 Si02
#       6
#     8   8   8  16  16  16
#     4  12  27  46  75 108 142 196 243 300 367 428
#     4  12  25  44  68 102 143 180 241 296 352 430
#     4  12  23  48  76  99 150 186 240 306 362 421
#     4  11  25  43  71 104 141 186 242 288 363 430
#     4  11  24  45  70 101 147 188 239 297 361 429
#     4  11  25  44  71 109 145 189 242 298 361 438
#
# _framework density 24.281262000000002
#
# number of rings (size 3 to 8) (size 9 to 14) (size 15 to 20)
#    0.000    0.667    4.444    3.000    3.111    6.667 
#    0.000    0.000    0.000    0.000    0.000    0.000 
#    0.000    0.000    0.000    0.000    0.000    0.000 
#
# Total GULP energy -200541.368764 kJ/mol
# GULP energy per Si atom -5570.593577 kJ/mol
# Density = 2.422600 g / cm^3
# Si number density = 24.281262 Si / 1000 Ang^3
#
#
#
# Elastic Constant Matrix: (Units=GPa)
#
#
# Indices 1 2 3 4 5 6 
#
# 1 146.1882 26.4983 79.1427 0.0000 0.0000 0.0000
# 2 26.4983 70.2131 23.8086 0.0000 0.0000 0.0000
# 3 79.1427 23.8086 220.2611 0.0000 0.0000 0.0000
# 4 0.0000 0.0000 0.0000 -56.4699 0.0000 0.0000
# 5 0.0000 0.0000 0.0000 0.0000 7.2353 0.0000
# 6 0.0000 0.0000 0.0000 0.0000 0.0000 51.3437
#
#
#
# Elastic Compliance Matrix: (Units=1/GPa)
#
#
# Indices 1 2 3 4 5 6 
#
# 1 0.008850 -0.002348 -0.002926 0.000000 0.000000 0.000000
# 2 -0.002348 0.015407 -0.000822 0.000000 0.000000 0.000000
# 3 -0.002926 -0.000822 0.005680 0.000000 0.000000 0.000000
# 4 0.000000 0.000000 0.000000 -0.017709 0.000000 0.000000
# 5 0.000000 0.000000 0.000000 0.000000 0.138211 0.000000
# 6 0.000000 0.000000 0.000000 0.000000 0.000000 0.019477
#
#
# Mechanical properties :
#
#
# Convention : Reuss Voigt Hill
#
# Bulk Modulus (GPa) = 56.35077 77.28463 66.81770
# Shear Modulus (GPa) = 26.59246 20.90269 23.74758
#
# Velocity S-wave (km/s) = 3.31295 2.93722 3.13073
# Velocity P-wave (km/s) = 6.15565 6.58795 6.37546
#
# Compressibility (1/GPa) = 0.01774599
#
# Stress axis : x y z
#
# Youngs Moduli (GPa) = 112.99112 64.90523 176.04614
#
# Poissons Ratio (x) = 0.15239 0.51515
# Poissons Ratio (y) = 0.26528 0.14467
# Poissons Ratio (z) = 0.33064 0.05334
#
# Static dielectric constant tensor:
#      x y z
#    x 2.461560 0.000000 0.000000 
#    y 0.000000 1.957380 0.000000 
#    z 0.000000 0.000000 1.751240 
# 
# From -- ./inp_files/24647.got.cif
#   From: 2010.05.17/outbox.cif.g08.bks.cpg/sg66_13_cif.got.tgz:24647.got - 2010.06.03 17:51:23.
