data_PCOD9499928
_publ_section_title
;
Structure prediction by ZEFSAII (Michael W. Deem and Ramdas Pophale) SiO2 
 PCOD9499928
Probable space group: C C C M
;
_chemical_formula_sum "Si O2"
_cell_formula_units_Z 80
_cell_length_a 13.502235
_cell_length_b 13.291828
_cell_length_c 18.043629
_cell_angle_alpha 90.000000
_cell_angle_beta 90.000000
_cell_angle_gamma 90.000000
_cell_volume 3238.279004
_symmetry_space_group_name_H-M "C C C M"
_symmetry_group_IT_number 66
_symmetry_cell_setting 'orthorhombic'
loop_
_space_group_symop_operation_xyz
x,y,z
-x,-y,z
x,-y,1/2-z
-x,y,1/2-z
-x,-y,-z
x,y,-z
-x,y,1/2+z
x,-y,1/2+z
1/2+x,1/2+y,z
1/2-x,1/2-y,z
1/2+x,1/2-y,1/2-z
1/2-x,1/2+y,1/2-z
1/2-x,1/2-y,-z
1/2+x,1/2+y,-z
1/2-x,1/2+y,1/2+z
1/2+x,1/2-y,1/2+z
loop_
_atom_site_type_symbol
_atom_site_label
_atom_site_fract_x
_atom_site_fract_y
_atom_site_fract_z
Si Si1 0.000000 0.500000 0.382379
Si Si2 0.811073 0.986304 0.856937
Si Si3 0.677689 0.033573 0.000000
Si Si4 0.134595 0.341763 0.817109
Si Si5 0.553474 0.319263 0.412695
Si Si6 0.351734 0.706876 0.170463
O O1 0.910187 0.535194 0.435015
O O2 0.958868 0.412696 0.330344
O O3 0.762216 0.020442 0.934755
O O4 0.728935 0.913851 0.820538
O O5 0.907048 0.919628 0.874088
O O6 0.837091 0.911357 0.685102
O O7 0.129889 0.267935 0.888047
O O8 0.132623 0.272307 0.744686
O O9 0.551287 0.330571 0.500000
O O10 0.446488 0.287558 0.382166
O O11 0.250000 0.750000 0.135624
#
# Coordination Sequence:
#
# PCOD9499928 Si02
#       6
#     8  16   8  16  16  16
#     4   9  22  44  79 124 165 205 262 346 426 488
#     4  11  25  51  85 112 169 211 274 342 416 495
#     4   9  20  42  83 122 156 208 261 340 425 479
#     4  11  27  50  81 121 162 211 272 338 420 499
#     4  12  28  49  83 121 157 214 278 339 417 500
#     4  12  30  52  75 117 164 222 276 337 413 494
#
# _framework density 24.704478999999999
#
# number of rings (size 3 to 8) (size 9 to 14) (size 15 to 20)
#    0.000    1.000    1.000    3.000   14.000    5.200 
#    3.600    4.000    0.000    0.000    0.000    0.000 
#    0.000    0.000    0.000    0.000    0.000    0.000 
#
# Total GULP energy -223240.451952 kJ/mol
# GULP energy per Si atom -5581.011299 kJ/mol
# Density = 2.464825 g / cm^3
# Si number density = 24.704479 Si / 1000 Ang^3
#
#
#
# Elastic Constant Matrix: (Units=GPa)
#
#
# Indices 1 2 3 4 5 6 
#
# 1 109.6230 48.2629 25.6512 0.0000 0.0000 0.0000
# 2 48.2629 181.5623 57.7364 0.0000 0.0000 0.0000
# 3 25.6512 57.7364 129.3898 0.0000 0.0000 0.0000
# 4 0.0000 0.0000 0.0000 0.5448 0.0000 0.0000
# 5 0.0000 0.0000 0.0000 0.0000 -636.1731 0.0000
# 6 0.0000 0.0000 0.0000 0.0000 0.0000 44.7869
#
#
#
# Elastic Compliance Matrix: (Units=1/GPa)
#
#
# Indices 1 2 3 4 5 6 
#
# 1 0.010434 -0.002466 -0.000968 0.000000 0.000000 0.000000
# 2 -0.002466 0.007001 -0.002635 0.000000 0.000000 0.000000
# 3 -0.000968 -0.002635 0.009096 0.000000 0.000000 0.000000
# 4 0.000000 0.000000 0.000000 1.835494 0.000000 0.000000
# 5 0.000000 0.000000 0.000000 0.000000 -0.001572 0.000000
# 6 0.000000 0.000000 0.000000 0.000000 0.000000 0.022328
#
#
# Mechanical properties :
#
#
# Convention : Reuss Voigt Hill
#
# Bulk Modulus (GPa) = 69.47643 75.98624 72.73133
# Shear Modulus (GPa) = 2.63197 -98.90665 -48.13734
#
# Velocity S-wave (km/s) = 1.03329 -6.33426 -4.41900
# Velocity P-wave (km/s) = 5.44129 4.76154 1.86218
#
# Compressibility (1/GPa) = 0.01439337
#
# Stress axis : x y z
#
# Youngs Moduli (GPa) = 95.83756 142.83269 109.93291
#
# Poissons Ratio (x) = 0.35219 0.10645
# Poissons Ratio (y) = 0.23631 0.28970
# Poissons Ratio (z) = 0.09280 0.37640
#
# Static dielectric constant tensor:
#      x y z
#    x 1.957210 0.000000 0.000000 
#    y 0.000000 2.021760 0.000000 
#    z 0.000000 0.000000 1.898720 
# 
# From -- ./inp_files/40265.got.cif
#   From: 2010.05.17/outbox.cif.g08.bks.cpg/sg66_21_cif.got.tgz:40265.got - 2010.06.03 17:51:23.
