data_PCOD9499672
_publ_section_title
;
Structure prediction by ZEFSAII (Michael W. Deem and Ramdas Pophale) SiO2 
 PCOD9499672
Probable space group: C C C M
;
_chemical_formula_sum "Si O2"
_cell_formula_units_Z 72
_cell_length_a 16.197212
_cell_length_b 16.466326
_cell_length_c 13.682157
_cell_angle_alpha 90.000000
_cell_angle_beta 90.000000
_cell_angle_gamma 90.000000
_cell_volume 3649.148570
_symmetry_space_group_name_H-M "C C C M"
_symmetry_group_IT_number 66
_symmetry_cell_setting 'orthorhombic'
loop_
_space_group_symop_operation_xyz
x,y,z
-x,-y,z
x,-y,1/2-z
-x,y,1/2-z
-x,-y,-z
x,y,-z
-x,y,1/2+z
x,-y,1/2+z
1/2+x,1/2+y,z
1/2-x,1/2-y,z
1/2+x,1/2-y,1/2-z
1/2-x,1/2+y,1/2-z
1/2-x,1/2-y,-z
1/2+x,1/2+y,-z
1/2-x,1/2+y,1/2+z
1/2+x,1/2-y,1/2+z
loop_
_atom_site_type_symbol
_atom_site_label
_atom_site_fract_x
_atom_site_fract_y
_atom_site_fract_z
Si Si1 0.414414 0.705715 0.217967
Si Si2 0.908544 0.613963 0.211080
Si Si3 0.071041 0.280947 0.500000
Si Si4 0.441282 0.921716 0.500000
Si Si5 0.270944 0.414374 0.293138
Si Si6 0.239631 0.650031 0.000000
O O1 0.500000 0.663656 0.250000
O O2 0.411787 0.788857 0.279506
O O3 0.332993 0.655288 0.244280
O O4 0.419114 0.731029 0.101921
O O5 0.895014 0.579679 0.102830
O O6 0.826366 0.592604 0.269953
O O7 0.000000 0.588212 0.250000
O O8 0.140984 0.350730 0.500000
O O9 0.989179 0.335056 0.500000
O O10 0.500000 0.000000 0.500000
O O11 0.298848 0.500000 0.250000
O O12 0.275106 0.396130 0.407718
O O13 0.250000 0.750000 0.000000
#
# Coordination Sequence:
#
# PCOD9499672 Si02
#       6
#    16  16   8   8  16   8
#     4  11  22  43  69  91 126 176 233 268 316 396
#     4  11  23  41  64  93 131 170 214 270 330 401
#     4  12  20  42  68  96 118 176 237 263 305 413
#     4  12  26  38  61 101 138 168 207 273 348 405
#     4  12  26  40  65 103 136 167 220 284 337 380
#     4  12  20  42  74  90 122 173 238 269 305 411
#
# _framework density 19.730630000000001
#
# number of rings (size 3 to 8) (size 9 to 14) (size 15 to 20)
#    0.000    0.444    8.889    0.667    6.222    0.444 
#    0.000    5.556    0.000    2.667    0.000    0.000 
#    0.000    0.000    0.000    0.000    0.000    0.000 
#
# Total GULP energy -200664.453281 kJ/mol
# GULP energy per Si atom -5574.012591 kJ/mol
# Density = 1.968572 g / cm^3
# Si number density = 19.730630 Si / 1000 Ang^3
#
#
#
# Elastic Constant Matrix: (Units=GPa)
#
#
# Indices 1 2 3 4 5 6 
#
# 1 82.1158 35.8976 19.7093 0.0000 0.0000 0.0000
# 2 35.8976 104.0726 47.3180 0.0000 0.0000 0.0000
# 3 19.7093 47.3180 132.1936 0.0000 0.0000 0.0000
# 4 0.0000 0.0000 0.0000 15.2924 0.0000 0.0000
# 5 0.0000 0.0000 0.0000 0.0000 19.8477 0.0000
# 6 0.0000 0.0000 0.0000 0.0000 0.0000 2.4841
#
#
#
# Elastic Compliance Matrix: (Units=1/GPa)
#
#
# Indices 1 2 3 4 5 6 
#
# 1 0.014362 -0.004754 -0.000440 0.000000 0.000000 0.000000
# 2 -0.004754 0.013050 -0.003962 0.000000 0.000000 0.000000
# 3 -0.000440 -0.003962 0.009049 0.000000 0.000000 0.000000
# 4 0.000000 0.000000 0.000000 0.065392 0.000000 0.000000
# 5 0.000000 0.000000 0.000000 0.000000 0.050384 0.000000
# 6 0.000000 0.000000 0.000000 0.000000 0.000000 0.402560
#
#
# Mechanical properties :
#
#
# Convention : Reuss Voigt Hill
#
# Bulk Modulus (GPa) = 55.10131 58.24797 56.67464
# Shear Modulus (GPa) = 8.63324 21.88865 15.26094
#
# Velocity S-wave (km/s) = 2.09405 3.33434 2.78414
# Velocity P-wave (km/s) = 5.81671 6.66404 6.25474
#
# Compressibility (1/GPa) = 0.01814839
#
# Stress axis : x y z
#
# Youngs Moduli (GPa) = 69.62997 76.62848 110.51527
#
# Poissons Ratio (x) = 0.36428 0.04858
# Poissons Ratio (y) = 0.33101 0.43790
# Poissons Ratio (z) = 0.03061 0.30363
#
# Static dielectric constant tensor:
#      x y z
#    x 1.766510 0.000000 0.000000 
#    y 0.000000 1.721220 0.000000 
#    z 0.000000 0.000000 1.819470 
# 
# From -- ./inp_files/29821.got.cif
#   From: 2010.05.17/outbox.cif.g08.bks.cpg/sg66_15_cif.got.tgz:29821.got - 2010.06.03 17:51:23.
