data_PCOD9499261
_publ_section_title
;
Structure prediction by ZEFSAII (Michael W. Deem and Ramdas Pophale) SiO2 
 PCOD9499261
Probable space group: C C C M
;
_chemical_formula_sum "Si O2"
_cell_formula_units_Z 84
_cell_length_a 12.391223
_cell_length_b 14.873840
_cell_length_c 24.422195
_cell_angle_alpha 90.000000
_cell_angle_beta 90.000000
_cell_angle_gamma 90.000000
_cell_volume 4501.134318
_symmetry_space_group_name_H-M "C C C M"
_symmetry_group_IT_number 66
_symmetry_cell_setting 'orthorhombic'
loop_
_space_group_symop_operation_xyz
x,y,z
-x,-y,z
x,-y,1/2-z
-x,y,1/2-z
-x,-y,-z
x,y,-z
-x,y,1/2+z
x,-y,1/2+z
1/2+x,1/2+y,z
1/2-x,1/2-y,z
1/2+x,1/2-y,1/2-z
1/2-x,1/2+y,1/2-z
1/2-x,1/2-y,-z
1/2+x,1/2+y,-z
1/2-x,1/2+y,1/2+z
1/2+x,1/2-y,1/2+z
loop_
_atom_site_type_symbol
_atom_site_label
_atom_site_fract_x
_atom_site_fract_y
_atom_site_fract_z
Si Si1 0.590593 0.144467 0.500000
Si Si2 0.724987 0.853398 0.610052
Si Si3 0.000000 0.000000 0.250000
Si Si4 0.878034 0.259851 0.384364
Si Si5 0.145843 0.446108 0.500000
Si Si6 0.962175 0.093709 0.142478
Si Si7 0.482163 0.893963 0.185015
O O1 0.605302 0.205731 0.446544
O O2 0.474936 0.095255 0.500000
O O3 0.662884 0.053984 0.500000
O O4 0.750000 0.750000 0.597268
O O5 0.691256 0.906393 0.556033
O O6 0.842056 0.886860 0.625847
O O7 0.632657 0.865618 0.657105
O O8 0.948870 0.931162 0.293201
O O9 0.750000 0.250000 0.374720
O O10 0.927439 0.337659 0.346539
O O11 0.950736 0.171449 0.370677
O O12 0.000000 0.000000 0.116024
O O13 0.500000 0.877709 0.250000
O O14 0.500000 0.000000 0.175360
#
# Coordination Sequence:
#
# PCOD9499261 Si02
#       7
#     8  16   4  16   8  16  16
#     4  11  23  44  68 102 139 178 227 284 355 414
#     4  12  23  44  71 101 137 177 239 288 341 414
#     4   8  24  44  68  90 144 184 224 264 370 402
#     4  12  26  45  69 100 140 178 231 284 347 413
#     4  11  23  40  76  97 135 184 227 293 350 407
#     4  10  25  44  69  98 136 184 227 279 348 416
#     4  11  26  43  68 103 135 180 232 283 349 415
#
# _framework density 18.661963
#
# number of rings (size 3 to 8) (size 9 to 14) (size 15 to 20)
#    0.571    0.381    3.810    1.714    6.667    4.571 
#    0.000    0.952    0.000    0.000    0.000    0.000 
#    0.000    0.000    0.000    0.000    0.000    0.000 
#
# Total GULP energy -233926.547012 kJ/mol
# GULP energy per Si atom -5569.679691 kJ/mol
# Density = 1.861949 g / cm^3
# Si number density = 18.661963 Si / 1000 Ang^3
#
#
#
# Elastic Constant Matrix: (Units=GPa)
#
#
# Indices 1 2 3 4 5 6 
#
# 1 153.5118 50.4910 66.6562 0.0000 0.0000 0.0000
# 2 50.4910 124.4414 79.9000 0.0000 0.0000 0.0000
# 3 66.6562 79.9000 134.4134 0.0000 0.0000 0.0000
# 4 0.0000 0.0000 0.0000 37.4281 0.0000 0.0000
# 5 0.0000 0.0000 0.0000 0.0000 16.3097 0.0000
# 6 0.0000 0.0000 0.0000 0.0000 0.0000 30.8228
#
#
#
# Elastic Compliance Matrix: (Units=1/GPa)
#
#
# Indices 1 2 3 4 5 6 
#
# 1 0.008409 -0.001188 -0.003464 0.000000 0.000000 0.000000
# 2 -0.001188 0.013164 -0.007236 0.000000 0.000000 0.000000
# 3 -0.003464 -0.007236 0.013459 0.000000 0.000000 0.000000
# 4 0.000000 0.000000 0.000000 0.026718 0.000000 0.000000
# 5 0.000000 0.000000 0.000000 0.000000 0.061313 0.000000
# 6 0.000000 0.000000 0.000000 0.000000 0.000000 0.032443
#
#
# Mechanical properties :
#
#
# Convention : Reuss Voigt Hill
#
# Bulk Modulus (GPa) = 88.84046 89.60679 89.22362
# Shear Modulus (GPa) = 27.31733 31.26675 29.29204
#
# Velocity S-wave (km/s) = 3.83011 4.09764 3.96613
# Velocity P-wave (km/s) = 8.20171 8.39687 8.29987
#
# Compressibility (1/GPa) = 0.01125613
#
# Stress axis : x y z
#
# Youngs Moduli (GPa) = 118.92165 75.96540 74.30018
#
# Poissons Ratio (x) = 0.09023 0.25737
# Poissons Ratio (y) = 0.14125 0.53764
# Poissons Ratio (z) = 0.41194 0.54969
#
# Static dielectric constant tensor:
#      x y z
#    x 1.304840 0.000000 0.000000 
#    y 0.000000 1.616040 0.000000 
#    z 0.000000 0.000000 1.595140 
# 
# From -- ./inp_files/56786.got.cif
#   From: 2010.05.17/outbox.cif.g08.bks.cpg/sg66_29_cif.got.tgz:56786.got - 2010.06.03 17:51:23.
