data_PCOD9499937
_publ_section_title
;
Structure prediction by ZEFSAII (Michael W. Deem and Ramdas Pophale) SiO2 
 PCOD9499937
Probable space group: C C C M
;
_chemical_formula_sum "Si O2"
_cell_formula_units_Z 36
_cell_length_a 7.017109
_cell_length_b 7.478132
_cell_length_c 25.173815
_cell_angle_alpha 90.000000
_cell_angle_beta 90.000000
_cell_angle_gamma 90.000000
_cell_volume 1320.992603
_symmetry_space_group_name_H-M "C C C M"
_symmetry_group_IT_number 66
_symmetry_cell_setting 'orthorhombic'
loop_
_space_group_symop_operation_xyz
x,y,z
-x,-y,z
x,-y,1/2-z
-x,y,1/2-z
-x,-y,-z
x,y,-z
-x,y,1/2+z
x,-y,1/2+z
1/2+x,1/2+y,z
1/2-x,1/2-y,z
1/2+x,1/2-y,1/2-z
1/2-x,1/2+y,1/2-z
1/2-x,1/2-y,-z
1/2+x,1/2+y,-z
1/2-x,1/2+y,1/2+z
1/2+x,1/2-y,1/2+z
loop_
_atom_site_type_symbol
_atom_site_label
_atom_site_fract_x
_atom_site_fract_y
_atom_site_fract_z
Si Si1 0.000000 0.000000 0.250000
Si Si2 0.974074 0.787195 0.443051
Si Si3 0.477177 0.798876 0.826798
O O1 0.079137 0.145318 0.207733
O O2 0.049666 0.718917 0.500000
O O3 0.750000 0.750000 0.443553
O O4 0.044729 0.706379 0.387950
O O5 0.000000 0.000000 0.440575
O O6 0.250000 0.750000 0.824812
O O7 0.500000 0.000000 0.807374
#
# Coordination Sequence:
#
# PCOD9499937 Si02
#       3
#     4  16  16
#     4  12  26  44  68  98 140 188 230 296 328 430
#     4   9  18  39  67  99 136 176 224 284 346 411
#     4  11  26  45  70 101 139 184 233 287 349 411
#
# _framework density 27.252237000000001
#
# number of rings (size 3 to 8) (size 9 to 14) (size 15 to 20)
#    0.000    1.778    2.222    0.667    6.222    0.889 
#    0.000    0.000    0.000   13.333    0.000    0.000 
#    0.000    0.000    0.000    0.000    0.000    0.000 
#
# Total GULP energy -100708.026266 kJ/mol
# GULP energy per Si atom -5594.890348 kJ/mol
# Density = 2.719021 g / cm^3
# Si number density = 27.252237 Si / 1000 Ang^3
#
#
#
# Elastic Constant Matrix: (Units=GPa)
#
#
# Indices 1 2 3 4 5 6 
#
# 1 162.8178 41.2748 -9.8186 0.0000 0.0000 0.0000
# 2 41.2748 267.3436 78.8692 0.0000 0.0000 0.0000
# 3 -9.8186 78.8692 305.9142 0.0000 0.0000 0.0000
# 4 0.0000 0.0000 0.0000 84.8310 0.0000 0.0000
# 5 0.0000 0.0000 0.0000 0.0000 -24.5790 0.0000
# 6 0.0000 0.0000 0.0000 0.0000 0.0000 52.6725
#
#
#
# Elastic Compliance Matrix: (Units=1/GPa)
#
#
# Indices 1 2 3 4 5 6 
#
# 1 0.006463 -0.001146 0.000503 0.000000 0.000000 0.000000
# 2 -0.001146 0.004252 -0.001133 0.000000 0.000000 0.000000
# 3 0.000503 -0.001133 0.003577 0.000000 0.000000 0.000000
# 4 0.000000 0.000000 0.000000 0.011788 0.000000 0.000000
# 5 0.000000 0.000000 0.000000 0.000000 -0.040685 0.000000
# 6 0.000000 0.000000 0.000000 0.000000 0.000000 0.018985
#
#
# Mechanical properties :
#
#
# Convention : Reuss Voigt Hill
#
# Bulk Modulus (GPa) = 93.11670 106.30292 99.70981
# Shear Modulus (GPa) = 434.33673 64.30158 249.31915
#
# Velocity S-wave (km/s) = 12.63814 4.86274 9.57520
# Velocity P-wave (km/s) = 15.72279 8.40357 12.60607
#
# Compressibility (1/GPa) = 0.01073921
#
# Stress axis : x y z
#
# Youngs Moduli (GPa) = 154.73382 235.20105 279.55459
#
# Poissons Ratio (x) = 0.26957 -0.14059
# Poissons Ratio (y) = 0.17735 0.31672
# Poissons Ratio (z) = -0.07782 0.26647
#
# Static dielectric constant tensor:
#      x y z
#    x 2.511750 0.000000 0.000000 
#    y 0.000000 1.868380 0.000000 
#    z 0.000000 0.000000 2.168410 
# 
# From -- ./inp_files/56065.got.cif
#   From: 2010.05.17/outbox.cif.g08.bks.cpg/sg66_29_cif.got.tgz:56065.got - 2010.06.03 17:51:23.
