data_PCOD9499986
_publ_section_title
;
Structure prediction by ZEFSAII (Michael W. Deem and Ramdas Pophale) SiO2 
 PCOD9499986
Probable space group: C C C M
;
_chemical_formula_sum "Si O2"
_cell_formula_units_Z 56
_cell_length_a 18.437511
_cell_length_b 7.936042
_cell_length_c 14.732636
_cell_angle_alpha 90.000000
_cell_angle_beta 90.000000
_cell_angle_gamma 90.000000
_cell_volume 2155.691994
_symmetry_space_group_name_H-M "C C C M"
_symmetry_group_IT_number 66
_symmetry_cell_setting 'orthorhombic'
loop_
_space_group_symop_operation_xyz
x,y,z
-x,-y,z
x,-y,1/2-z
-x,y,1/2-z
-x,-y,-z
x,y,-z
-x,y,1/2+z
x,-y,1/2+z
1/2+x,1/2+y,z
1/2-x,1/2-y,z
1/2+x,1/2-y,1/2-z
1/2-x,1/2+y,1/2-z
1/2-x,1/2-y,-z
1/2+x,1/2+y,-z
1/2-x,1/2+y,1/2+z
1/2+x,1/2-y,1/2+z
loop_
_atom_site_type_symbol
_atom_site_label
_atom_site_fract_x
_atom_site_fract_y
_atom_site_fract_z
Si Si1 0.797951 0.583823 0.152431
Si Si2 0.598090 0.352968 0.889495
Si Si3 0.442472 0.257755 0.891143
Si Si4 0.250000 0.250000 0.631195
O O1 0.782809 0.500000 0.250000
O O2 0.750000 0.750000 0.138527
O O3 0.881674 0.630845 0.142639
O O4 0.770540 0.431677 0.090034
O O5 0.526195 0.250627 0.861449
O O6 0.582936 0.550051 0.872844
O O7 0.668624 0.296187 0.834819
O O8 0.608783 0.333122 0.000000
O O9 0.444156 0.239836 0.000000
#
# Coordination Sequence:
#
# PCOD9499986 Si02
#       4
#    16  16  16   8
#     4  12  25  44  68  93 135 178 227 282 336 398
#     4   9  19  38  66 103 139 172 213 271 337 403
#     4   9  20  41  68  98 138 177 217 274 340 401
#     4  12  23  38  66  98 131 176 224 268 328 396
#
# _framework density 25.977737000000001
#
# number of rings (size 3 to 8) (size 9 to 14) (size 15 to 20)
#    0.000    1.714    4.286    2.143    0.000    4.000 
#    0.000    5.714    0.000    5.143    0.000    0.000 
#    0.000    0.000    0.000    0.000    0.000    0.000 
#
# Total GULP energy -156351.947991 kJ/mol
# GULP energy per Si atom -5583.998143 kJ/mol
# Density = 2.591861 g / cm^3
# Si number density = 25.977737 Si / 1000 Ang^3
#
#
#
# Elastic Constant Matrix: (Units=GPa)
#
#
# Indices 1 2 3 4 5 6 
#
# 1 279.0088 102.4661 26.3244 0.0000 0.0000 0.0000
# 2 102.4661 176.8173 24.1824 0.0000 0.0000 0.0000
# 3 26.3244 24.1824 82.3951 0.0000 0.0000 0.0000
# 4 0.0000 0.0000 0.0000 -23.3075 0.0000 0.0000
# 5 0.0000 0.0000 0.0000 0.0000 89.2193 0.0000
# 6 0.0000 0.0000 0.0000 0.0000 0.0000 65.2646
#
#
#
# Elastic Compliance Matrix: (Units=1/GPa)
#
#
# Indices 1 2 3 4 5 6 
#
# 1 0.004593 -0.002564 -0.000715 0.000000 0.000000 0.000000
# 2 -0.002564 0.007323 -0.001330 0.000000 0.000000 0.000000
# 3 -0.000715 -0.001330 0.012755 0.000000 0.000000 0.000000
# 4 0.000000 0.000000 0.000000 -0.042905 0.000000 0.000000
# 5 0.000000 0.000000 0.000000 0.000000 0.011208 0.000000
# 6 0.000000 0.000000 0.000000 0.000000 0.000000 0.015322
#
#
# Mechanical properties :
#
#
# Convention : Reuss Voigt Hill
#
# Bulk Modulus (GPa) = 64.70931 93.79631 79.25281
# Shear Modulus (GPa) = 220.58112 51.91852 136.24982
#
# Velocity S-wave (km/s) = 9.22475 4.47540 7.25000
# Velocity P-wave (km/s) = 11.76541 7.93034 10.03283
#
# Compressibility (1/GPa) = 0.01545373
#
# Stress axis : x y z
#
# Youngs Moduli (GPa) = 217.71323 136.55021 78.39773
#
# Poissons Ratio (x) = 0.35011 0.05605
# Poissons Ratio (y) = 0.55821 0.10428
# Poissons Ratio (z) = 0.15566 0.18164
#
# Static dielectric constant tensor:
#      x y z
#    x 1.977690 0.000000 0.000000 
#    y 0.000000 2.080460 0.000000 
#    z 0.000000 0.000000 2.271470 
# 
# From -- ./inp_files/46507.got.cif
#   From: 2010.05.17/outbox.cif.g08.bks.cpg/sg66_24_cif.got.tgz:46507.got - 2010.06.03 17:51:23.
