data_PCOD9499212
_publ_section_title
;
Structure prediction by ZEFSAII (Michael W. Deem and Ramdas Pophale) SiO2 
 PCOD9499212
Probable space group: C C C M
;
_chemical_formula_sum "Si O2"
_cell_formula_units_Z 80
_cell_length_a 21.263244
_cell_length_b 11.892100
_cell_length_c 14.633083
_cell_angle_alpha 90.000000
_cell_angle_beta 90.000000
_cell_angle_gamma 90.000000
_cell_volume 3700.189030
_symmetry_space_group_name_H-M "C C C M"
_symmetry_group_IT_number 66
_symmetry_cell_setting 'orthorhombic'
loop_
_space_group_symop_operation_xyz
x,y,z
-x,-y,z
x,-y,1/2-z
-x,y,1/2-z
-x,-y,-z
x,y,-z
-x,y,1/2+z
x,-y,1/2+z
1/2+x,1/2+y,z
1/2-x,1/2-y,z
1/2+x,1/2-y,1/2-z
1/2-x,1/2+y,1/2-z
1/2-x,1/2-y,-z
1/2+x,1/2+y,-z
1/2-x,1/2+y,1/2+z
1/2+x,1/2-y,1/2+z
loop_
_atom_site_type_symbol
_atom_site_label
_atom_site_fract_x
_atom_site_fract_y
_atom_site_fract_z
Si Si1 0.291636 0.439298 0.393338
Si Si2 0.018594 0.875778 0.356734
Si Si3 0.897501 0.237312 0.900802
Si Si4 0.818403 0.369472 0.762825
Si Si5 0.163769 0.812553 0.391867
O O1 0.272281 0.430274 0.500000
O O2 0.359357 0.379338 0.385551
O O3 0.244241 0.375524 0.326140
O O4 0.299445 0.570841 0.370192
O O5 0.090527 0.843757 0.374014
O O6 0.000000 0.875401 0.250000
O O7 0.970742 0.787217 0.399470
O O8 0.000000 0.000000 0.391526
O O9 0.874065 0.317612 0.822647
O O10 0.877557 0.280480 0.000000
O O11 0.832661 0.500000 0.750000
O O12 0.816875 0.291254 0.672676
O O13 0.172272 0.788497 0.500000
#
# Coordination Sequence:
#
# PCOD9499212 Si02
#       5
#    16  16  16  16  16
#     4  10  24  44  71 103 138 178 232 296 362 425
#     4  11  21  39  74 110 141 176 229 298 366 424
#     4  11  23  42  70 103 137 178 229 285 356 429
#     4  12  28  43  68  96 143 192 238 286 343 421
#     4  11  25  46  72 109 145 182 237 301 367 423
#
# _framework density 21.620517
#
# number of rings (size 3 to 8) (size 9 to 14) (size 15 to 20)
#    0.000    1.000    4.000    1.800    5.600    4.000 
#    0.000    4.000    0.000    2.400    0.000    0.000 
#    0.000    0.000    0.000    0.000    0.000    0.000 
#
# Total GULP energy -223825.770107 kJ/mol
# GULP energy per Si atom -5595.644253 kJ/mol
# Density = 2.157131 g / cm^3
# Si number density = 21.620517 Si / 1000 Ang^3
#
#
#
# Elastic Constant Matrix: (Units=GPa)
#
#
# Indices 1 2 3 4 5 6 
#
# 1 132.8488 53.4847 38.7299 0.0000 0.0000 0.0000
# 2 53.4847 160.2443 85.0547 0.0000 0.0000 0.0000
# 3 38.7299 85.0547 138.7689 0.0000 0.0000 0.0000
# 4 0.0000 0.0000 0.0000 25.4586 0.0000 0.0000
# 5 0.0000 0.0000 0.0000 0.0000 26.9254 0.0000
# 6 0.0000 0.0000 0.0000 0.0000 0.0000 32.7362
#
#
#
# Elastic Compliance Matrix: (Units=1/GPa)
#
#
# Indices 1 2 3 4 5 6 
#
# 1 0.008783 -0.002417 -0.000970 0.000000 0.000000 0.000000
# 2 -0.002417 0.009915 -0.005402 0.000000 0.000000 0.000000
# 3 -0.000970 -0.005402 0.010788 0.000000 0.000000 0.000000
# 4 0.000000 0.000000 0.000000 0.039280 0.000000 0.000000
# 5 0.000000 0.000000 0.000000 0.000000 0.037140 0.000000
# 6 0.000000 0.000000 0.000000 0.000000 0.000000 0.030547
#
#
# Mechanical properties :
#
#
# Convention : Reuss Voigt Hill
#
# Bulk Modulus (GPa) = 83.97986 87.37787 85.67886
# Shear Modulus (GPa) = 31.64563 33.99689 32.82126
#
# Velocity S-wave (km/s) = 3.82996 3.96970 3.90046
# Velocity P-wave (km/s) = 7.64756 7.84305 7.74592
#
# Compressibility (1/GPa) = 0.01190762
#
# Stress axis : x y z
#
# Youngs Moduli (GPa) = 113.85500 100.86187 92.69351
#
# Poissons Ratio (x) = 0.24374 0.08993
# Poissons Ratio (y) = 0.27514 0.50077
# Poissons Ratio (z) = 0.11046 0.54490
#
# Static dielectric constant tensor:
#      x y z
#    x 1.776160 0.000000 0.000000 
#    y 0.000000 1.767460 0.000000 
#    z 0.000000 0.000000 1.858110 
# 
# From -- ./inp_files/26403.got.cif
#   From: 2010.05.17/outbox.cif.g08.bks.cpg/sg66_14_cif.got.tgz:26403.got - 2010.06.03 17:51:23.
