data_PCOD9499204
_publ_section_title
;
Structure prediction by ZEFSAII (Michael W. Deem and Ramdas Pophale) SiO2 
 PCOD9499204
Probable space group: C C C M
;
_chemical_formula_sum "Si O2"
_cell_formula_units_Z 44
_cell_length_a 13.648060
_cell_length_b 6.247905
_cell_length_c 24.641812
_cell_angle_alpha 90.000000
_cell_angle_beta 90.000000
_cell_angle_gamma 90.000000
_cell_volume 2101.251229
_symmetry_space_group_name_H-M "C C C M"
_symmetry_group_IT_number 66
_symmetry_cell_setting 'orthorhombic'
loop_
_space_group_symop_operation_xyz
x,y,z
-x,-y,z
x,-y,1/2-z
-x,y,1/2-z
-x,-y,-z
x,y,-z
-x,y,1/2+z
x,-y,1/2+z
1/2+x,1/2+y,z
1/2-x,1/2-y,z
1/2+x,1/2-y,1/2-z
1/2-x,1/2+y,1/2-z
1/2-x,1/2-y,-z
1/2+x,1/2+y,-z
1/2-x,1/2+y,1/2+z
1/2+x,1/2-y,1/2+z
loop_
_atom_site_type_symbol
_atom_site_label
_atom_site_fract_x
_atom_site_fract_y
_atom_site_fract_z
Si Si1 0.356425 0.347249 0.299486
Si Si2 0.000000 0.500000 0.343389
Si Si3 0.899686 0.878347 0.905020
Si Si4 0.750000 0.750000 0.000000
O O1 0.383697 0.500000 0.250000
O O2 0.250000 0.250000 0.289042
O O3 0.433498 0.158166 0.308462
O O4 0.356863 0.484598 0.354908
O O5 0.931961 0.351287 0.381082
O O6 0.823083 0.847988 0.952589
O O7 0.000000 0.000000 0.922100
#
# Coordination Sequence:
#
# PCOD9499204 Si02
#       4
#    16   8  16   4
#     4  11  26  44  69 102 140 181 237 288 351 424
#     4  10  24  48  68  96 142 183 231 286 356 414
#     4  10  24  44  67 100 134 184 231 283 352 416
#     4  12  22  42  74  96 144 176 232 294 338 414
#
# _framework density 20.939903999999999
#
# number of rings (size 3 to 8) (size 9 to 14) (size 15 to 20)
#    0.000    1.455    0.000    2.727    7.636    8.727 
#    0.000   17.273    0.000    0.000    0.000    0.000 
#    0.000    0.000    0.000    0.000    0.000    0.000 
#
# Total GULP energy -122688.949683 kJ/mol
# GULP energy per Si atom -5576.770440 kJ/mol
# Density = 2.089224 g / cm^3
# Si number density = 20.939904 Si / 1000 Ang^3
#
#
#
# Elastic Constant Matrix: (Units=GPa)
#
#
# Indices 1 2 3 4 5 6 
#
# 1 99.7223 59.9159 97.4096 0.0000 0.0000 0.0000
# 2 59.9159 149.4500 93.8030 0.0000 0.0000 0.0000
# 3 97.4096 93.8030 183.8527 0.0000 0.0000 0.0000
# 4 0.0000 0.0000 0.0000 -10.0140 0.0000 0.0000
# 5 0.0000 0.0000 0.0000 0.0000 -52.9882 0.0000
# 6 0.0000 0.0000 0.0000 0.0000 0.0000 24.0147
#
#
#
# Elastic Compliance Matrix: (Units=1/GPa)
#
#
# Indices 1 2 3 4 5 6 
#
# 1 0.021238 -0.002136 -0.010163 0.000000 0.000000 0.000000
# 2 -0.002136 0.010058 -0.004000 0.000000 0.000000 0.000000
# 3 -0.010163 -0.004000 0.012865 0.000000 0.000000 0.000000
# 4 0.000000 0.000000 0.000000 -0.099861 0.000000 0.000000
# 5 0.000000 0.000000 0.000000 0.000000 -0.018872 0.000000
# 6 0.000000 0.000000 0.000000 0.000000 0.000000 0.041641
#
#
# Mechanical properties :
#
#
# Convention : Reuss Voigt Hill
#
# Bulk Modulus (GPa) = 86.48000 103.92022 95.20011
# Shear Modulus (GPa) = 1419.86984 4.32895 712.09939
#
# Velocity S-wave (km/s) = 26.06801 1.43938 18.46094
# Velocity P-wave (km/s) = 30.78057 7.24555 22.36002
#
# Compressibility (1/GPa) = 0.01156337
#
# Stress axis : x y z
#
# Youngs Moduli (GPa) = 47.08484 99.42148 77.73319
#
# Poissons Ratio (x) = 0.21235 0.78999
# Poissons Ratio (y) = 0.10057 0.31094
# Poissons Ratio (z) = 0.47851 0.39770
#
# Static dielectric constant tensor:
#      x y z
#    x 1.749950 0.000000 0.000000 
#    y 0.000000 1.740810 0.000000 
#    z 0.000000 0.000000 1.708710 
# 
# From -- ./inp_files/60836.got.cif
#   From: 2010.05.17/outbox.cif.g08.bks.cpg/sg66_31_cif.got.tgz:60836.got - 2010.06.03 17:51:23.
