data_PCOD9499456
_publ_section_title
;
Structure prediction by ZEFSAII (Michael W. Deem and Ramdas Pophale) SiO2 
 PCOD9499456
Probable space group: C C C M
;
_chemical_formula_sum "Si O2"
_cell_formula_units_Z 96
_cell_length_a 17.449172
_cell_length_b 17.449172
_cell_length_c 18.753860
_cell_angle_alpha 90.000000
_cell_angle_beta 90.000000
_cell_angle_gamma 90.000000
_cell_volume 5710.055333
_symmetry_space_group_name_H-M "C C C M"
_symmetry_group_IT_number 66
_symmetry_cell_setting 'orthorhombic'
loop_
_space_group_symop_operation_xyz
x,y,z
-x,-y,z
x,-y,1/2-z
-x,y,1/2-z
-x,-y,-z
x,y,-z
-x,y,1/2+z
x,-y,1/2+z
1/2+x,1/2+y,z
1/2-x,1/2-y,z
1/2+x,1/2-y,1/2-z
1/2-x,1/2+y,1/2-z
1/2-x,1/2-y,-z
1/2+x,1/2+y,-z
1/2-x,1/2+y,1/2+z
1/2+x,1/2-y,1/2+z
loop_
_atom_site_type_symbol
_atom_site_label
_atom_site_fract_x
_atom_site_fract_y
_atom_site_fract_z
Si Si1 0.445918 0.684914 0.583791
Si Si2 0.815086 0.945918 0.916209
Si Si3 0.437714 0.562286 0.086477
Si Si4 0.565555 0.065555 0.919579
Si Si5 0.169390 0.539031 0.674478
Si Si6 0.539031 0.830610 0.825522
O O1 0.450481 0.707410 0.500000
O O2 0.379898 0.620102 0.588504
O O3 0.526531 0.644170 0.605750
O O4 0.429652 0.756092 0.634361
O O5 0.743908 0.929652 0.865639
O O6 0.855830 0.026530 0.894250
O O7 0.792590 0.950481 0.000000
O O8 0.500000 0.500000 0.111922
O O9 0.439502 0.560498 0.000000
O O10 0.526611 0.133896 0.876391
O O11 0.500000 0.000000 0.923301
O O12 0.633896 0.026611 0.876391
O O13 0.586918 0.086918 0.000000
O O14 0.186461 0.500000 0.750000
O O15 0.104777 0.604777 0.683501
O O16 0.500000 0.813539 0.750000
#
# Coordination Sequence:
#
# PCOD9499456 Si02
#       6
#    16  16  16  16  16  16
#     4   9  18  34  58  85 110 138 176 222 269 321
#     4   9  18  34  58  85 110 138 176 222 269 321
#     4   7  12  28  54  79 103 133 168 210 258 308
#     4   9  18  32  54  77  95 130 183 224 257 314
#     4  11  21  35  53  74 108 146 177 223 276 318
#     4  11  21  35  53  74 108 146 177 223 276 318
#
# _framework density 16.812446999999999
#
# number of rings (size 3 to 8) (size 9 to 14) (size 15 to 20)
#    0.000    2.667    1.667    3.000    0.000    2.667 
#    3.000    1.667    0.000    1.000    0.000    4.667 
#    0.000    0.000    0.000    0.000    0.000    0.000 
#
# Total GULP energy -267228.832328 kJ/mol
# GULP energy per Si atom -5567.267340 kJ/mol
# Density = 1.677418 g / cm^3
# Si number density = 16.812447 Si / 1000 Ang^3
#
#
#
# Elastic Constant Matrix: (Units=GPa)
#
#
# Indices 1 2 3 4 5 6 
#
# 1 54.8721 15.8956 36.3112 0.0000 0.0000 0.0000
# 2 15.8956 54.8721 36.3112 0.0000 0.0000 0.0000
# 3 36.3112 36.3112 107.4009 0.0000 0.0000 0.0000
# 4 0.0000 0.0000 0.0000 -4.2493 0.0000 0.0000
# 5 0.0000 0.0000 0.0000 0.0000 -4.2497 0.0000
# 6 0.0000 0.0000 0.0000 0.0000 0.0000 12.9114
#
#
#
# Elastic Compliance Matrix: (Units=1/GPa)
#
#
# Indices 1 2 3 4 5 6 
#
# 1 0.023647 -0.002009 -0.007316 0.000000 0.000000 0.000000
# 2 -0.002009 0.023647 -0.007316 0.000000 0.000000 0.000000
# 3 -0.007316 -0.007316 0.014258 0.000000 0.000000 0.000000
# 4 0.000000 0.000000 0.000000 -0.235333 0.000000 0.000000
# 5 0.000000 0.000000 0.000000 0.000000 -0.235308 0.000000
# 6 0.000000 0.000000 0.000000 0.000000 0.000000 0.077451
#
#
# Mechanical properties :
#
#
# Convention : Reuss Voigt Hill
#
# Bulk Modulus (GPa) = 35.37157 43.79791 39.58474
# Shear Modulus (GPa) = -17.30504 9.45761 -3.92372
#
# Velocity S-wave (km/s) = -3.21175 2.37436 -1.52934
# Velocity P-wave (km/s) = 2.70755 5.79864 4.52521
#
# Compressibility (1/GPa) = 0.02827129
#
# Stress axis : x y z
#
# Youngs Moduli (GPa) = 42.28808 42.28806 70.13793
#
# Poissons Ratio (x) = 0.08496 0.51310
# Poissons Ratio (y) = 0.08496 0.51311
# Poissons Ratio (z) = 0.30936 0.30936
#
# Static dielectric constant tensor:
#      x y z
#    x 1.580130 0.000000 0.000000 
#    y 0.000000 1.580130 0.000000 
#    z 0.000000 0.000000 1.558970 
# 
# From -- ./inp_files/41733.got.cif
#   From: 2010.05.17/outbox.cif.g08.bks.cpg/sg66_21_cif.got.tgz:41733.got - 2010.06.03 17:51:23.
