data_PCOD9499484
_publ_section_title
;
Structure prediction by ZEFSAII (Michael W. Deem and Ramdas Pophale) SiO2 
 PCOD9499484
Probable space group: C C C M
;
_chemical_formula_sum "Si O2"
_cell_formula_units_Z 96
_cell_length_a 10.315090
_cell_length_b 29.005383
_cell_length_c 16.305287
_cell_angle_alpha 90.000000
_cell_angle_beta 90.000000
_cell_angle_gamma 90.000000
_cell_volume 4878.429953
_symmetry_space_group_name_H-M "C C C M"
_symmetry_group_IT_number 66
_symmetry_cell_setting 'orthorhombic'
loop_
_space_group_symop_operation_xyz
x,y,z
-x,-y,z
x,-y,1/2-z
-x,y,1/2-z
-x,-y,-z
x,y,-z
-x,y,1/2+z
x,-y,1/2+z
1/2+x,1/2+y,z
1/2-x,1/2-y,z
1/2+x,1/2-y,1/2-z
1/2-x,1/2+y,1/2-z
1/2-x,1/2-y,-z
1/2+x,1/2+y,-z
1/2-x,1/2+y,1/2+z
1/2+x,1/2-y,1/2+z
loop_
_atom_site_type_symbol
_atom_site_label
_atom_site_fract_x
_atom_site_fract_y
_atom_site_fract_z
Si Si1 0.399219 0.254045 0.399860
Si Si2 0.495773 0.647840 0.405234
Si Si3 0.755163 0.397524 0.671514
Si Si4 0.756434 0.404930 0.867653
Si Si5 0.150996 0.496836 0.849928
Si Si6 0.508487 0.156110 0.404249
O O1 0.396164 0.255372 0.500000
O O2 0.250000 0.250000 0.372499
O O3 0.465231 0.301495 0.372615
O O4 0.473732 0.207705 0.376375
O O5 0.455957 0.652943 0.500000
O O6 0.379062 0.624092 0.357742
O O7 0.625256 0.617054 0.401149
O O8 0.752262 0.401952 0.769202
O O9 0.784564 0.447681 0.632038
O O10 0.875708 0.365719 0.646712
O O11 0.777086 0.458831 0.886496
O O12 0.880011 0.375317 0.896469
O O13 0.152295 0.500000 0.750000
O O14 0.000000 0.500000 0.874628
O O15 0.545774 0.157646 0.500000
#
# Coordination Sequence:
#
# PCOD9499484 Si02
#       6
#    16  16  16  16  16  16
#     4   9  18  36  61  84 112 159 203 230 282 369
#     4  11  23  41  61  85 120 156 196 245 295 349
#     4  11  23  39  59  91 123 150 192 251 298 339
#     4  11  21  39  64  87 114 159 201 235 288 357
#     4   9  18  36  61  85 115 158 197 229 285 365
#     4  11  21  37  62  89 116 153 199 241 289 349
#
# _framework density 19.678462
#
# number of rings (size 3 to 8) (size 9 to 14) (size 15 to 20)
#    0.000    1.667    3.333    2.000    0.000    1.333 
#    0.000   15.000    0.000    0.000    0.000    0.000 
#    0.000    0.000    0.000    0.000    0.000    0.000 
#
# Total GULP energy -268226.860919 kJ/mol
# GULP energy per Si atom -5588.059602 kJ/mol
# Density = 1.963367 g / cm^3
# Si number density = 19.678462 Si / 1000 Ang^3
#
#
#
# Elastic Constant Matrix: (Units=GPa)
#
#
# Indices 1 2 3 4 5 6 
#
# 1 114.8322 67.0562 8.4402 0.0000 0.0000 0.0000
# 2 67.0562 187.7214 12.8146 0.0000 0.0000 0.0000
# 3 8.4402 12.8146 35.4236 0.0000 0.0000 0.0000
# 4 0.0000 0.0000 0.0000 25.7637 0.0000 0.0000
# 5 0.0000 0.0000 0.0000 0.0000 42.5137 0.0000
# 6 0.0000 0.0000 0.0000 0.0000 0.0000 34.2615
#
#
#
# Elastic Compliance Matrix: (Units=1/GPa)
#
#
# Indices 1 2 3 4 5 6 
#
# 1 0.011056 -0.003865 -0.001236 0.000000 0.000000 0.000000
# 2 -0.003865 0.006813 -0.001544 0.000000 0.000000 0.000000
# 3 -0.001236 -0.001544 0.029083 0.000000 0.000000 0.000000
# 4 0.000000 0.000000 0.000000 0.038814 0.000000 0.000000
# 5 0.000000 0.000000 0.000000 0.000000 0.023522 0.000000
# 6 0.000000 0.000000 0.000000 0.000000 0.000000 0.029187
#
#
# Mechanical properties :
#
#
# Convention : Reuss Voigt Hill
#
# Bulk Modulus (GPa) = 29.70691 57.17769 43.44230
# Shear Modulus (GPa) = 30.67750 37.15218 33.91484
#
# Velocity S-wave (km/s) = 3.95262 4.34978 4.15595
# Velocity P-wave (km/s) = 5.99666 7.37201 6.71961
#
# Compressibility (1/GPa) = 0.03366221
#
# Stress axis : x y z
#
# Youngs Moduli (GPa) = 90.44708 146.77711 34.38466
#
# Poissons Ratio (x) = 0.56730 0.04250
# Poissons Ratio (y) = 0.34958 0.05308
# Poissons Ratio (z) = 0.11180 0.22659
#
# Static dielectric constant tensor:
#      x y z
#    x 1.635450 0.000000 0.000000 
#    y 0.000000 1.693660 0.000000 
#    z 0.000000 0.000000 1.707270 
# 
# From -- ./inp_files/47354.got.cif
#   From: 2010.05.17/outbox.cif.g08.bks.cpg/sg66_24_cif.got.tgz:47354.got - 2010.06.03 17:51:23.
