data_PCOD9499046
_publ_section_title
;
Structure prediction by ZEFSAII (Michael W. Deem and Ramdas Pophale) SiO2 
 PCOD9499046
Probable space group: C C C M
;
_chemical_formula_sum "Si O2"
_cell_formula_units_Z 64
_cell_length_a 7.465819
_cell_length_b 13.405003
_cell_length_c 26.818968
_cell_angle_alpha 90.000000
_cell_angle_beta 90.000000
_cell_angle_gamma 90.000000
_cell_volume 2684.024244
_symmetry_space_group_name_H-M "C C C M"
_symmetry_group_IT_number 66
_symmetry_cell_setting 'orthorhombic'
loop_
_space_group_symop_operation_xyz
x,y,z
-x,-y,z
x,-y,1/2-z
-x,y,1/2-z
-x,-y,-z
x,y,-z
-x,y,1/2+z
x,-y,1/2+z
1/2+x,1/2+y,z
1/2-x,1/2-y,z
1/2+x,1/2-y,1/2-z
1/2-x,1/2+y,1/2-z
1/2-x,1/2-y,-z
1/2+x,1/2+y,-z
1/2-x,1/2+y,1/2+z
1/2+x,1/2-y,1/2+z
loop_
_atom_site_type_symbol
_atom_site_label
_atom_site_fract_x
_atom_site_fract_y
_atom_site_fract_z
Si Si1 0.250000 0.750000 0.763016
Si Si2 0.353195 0.109570 0.826225
Si Si3 0.750000 0.750000 0.915388
Si Si4 0.220432 0.093853 0.337970
Si Si5 0.071099 0.114245 0.446317
O O1 0.327738 0.828873 0.724049
O O2 0.141014 0.821994 0.801357
O O3 0.324808 0.167676 0.877572
O O4 0.566099 0.092230 0.827824
O O5 0.198676 0.023820 0.827400
O O6 0.908268 0.806669 0.944026
O O7 0.179670 0.122749 0.394825
O O8 0.166553 0.127409 0.500000
O O9 0.000000 0.000000 0.445643
#
# Coordination Sequence:
#
# PCOD9499046 Si02
#       5
#     8  16   8  16  16
#     4  11  22  38  68 102 136 182 226 281 358 422
#     4  10  23  41  68 100 140 179 228 286 351 429
#     4  11  21  44  69 102 137 180 225 295 350 420
#     4  11  22  44  67 101 138 181 233 290 347 428
#     4  11  24  44  70 102 137 184 238 296 361 425
#
# _framework density 23.844792999999999
#
# number of rings (size 3 to 8) (size 9 to 14) (size 15 to 20)
#    0.000    1.250    2.500    3.375    0.000    4.000 
#    0.000    9.375    0.000    0.000    0.000    0.000 
#    0.000    0.000    0.000    0.000    0.000    0.000 
#
# Total GULP energy -178493.072218 kJ/mol
# GULP energy per Si atom -5577.908507 kJ/mol
# Density = 2.379052 g / cm^3
# Si number density = 23.844793 Si / 1000 Ang^3
#
#
#
# Elastic Constant Matrix: (Units=GPa)
#
#
# Indices 1 2 3 4 5 6 
#
# 1 54.4913 24.0107 42.5880 0.0000 0.0000 0.0000
# 2 24.0107 125.8047 52.5096 0.0000 0.0000 0.0000
# 3 42.5880 52.5096 236.7865 0.0000 0.0000 0.0000
# 4 0.0000 0.0000 0.0000 49.2400 0.0000 0.0000
# 5 0.0000 0.0000 0.0000 0.0000 -17.9375 0.0000
# 6 0.0000 0.0000 0.0000 0.0000 0.0000 25.1881
#
#
#
# Elastic Compliance Matrix: (Units=1/GPa)
#
#
# Indices 1 2 3 4 5 6 
#
# 1 0.022236 -0.002837 -0.003370 0.000000 0.000000 0.000000
# 2 -0.002837 0.009122 -0.001513 0.000000 0.000000 0.000000
# 3 -0.003370 -0.001513 0.005165 0.000000 0.000000 0.000000
# 4 0.000000 0.000000 0.000000 0.020309 0.000000 0.000000
# 5 0.000000 0.000000 0.000000 0.000000 -0.055749 0.000000
# 6 0.000000 0.000000 0.000000 0.000000 0.000000 0.039701
#
#
# Mechanical properties :
#
#
# Convention : Reuss Voigt Hill
#
# Bulk Modulus (GPa) = 47.43286 72.81103 60.12194
# Shear Modulus (GPa) = 79.05133 31.16306 55.10719
#
# Velocity S-wave (km/s) = 5.76406 3.61905 4.81258
# Velocity P-wave (km/s) = 8.01466 6.93289 7.49332
#
# Compressibility (1/GPa) = 0.02108243
#
# Stress axis : x y z
#
# Youngs Moduli (GPa) = 44.97291 109.62943 193.61968
#
# Poissons Ratio (x) = 0.31104 0.65251
# Poissons Ratio (y) = 0.12760 0.29285
# Poissons Ratio (z) = 0.15156 0.16582
#
# Static dielectric constant tensor:
#      x y z
#    x 2.000440 0.000000 0.000000 
#    y 0.000000 2.305800 0.000000 
#    z 0.000000 0.000000 1.832450 
# 
# From -- ./inp_files/55031.got.cif
#   From: 2010.05.17/outbox.cif.g08.bks.cpg/sg66_28_cif.got.tgz:55031.got - 2010.06.03 17:51:23.
