data_PCOD9499771
_publ_section_title
;
Structure prediction by ZEFSAII (Michael W. Deem and Ramdas Pophale) SiO2 
 PCOD9499771
Probable space group: C C C M
;
_chemical_formula_sum "Si O2"
_cell_formula_units_Z 64
_cell_length_a 28.586013
_cell_length_b 11.635785
_cell_length_c 8.591316
_cell_angle_alpha 90.000000
_cell_angle_beta 90.000000
_cell_angle_gamma 90.000000
_cell_volume 2857.649553
_symmetry_space_group_name_H-M "C C C M"
_symmetry_group_IT_number 66
_symmetry_cell_setting 'orthorhombic'
loop_
_space_group_symop_operation_xyz
x,y,z
-x,-y,z
x,-y,1/2-z
-x,y,1/2-z
-x,-y,-z
x,y,-z
-x,y,1/2+z
x,-y,1/2+z
1/2+x,1/2+y,z
1/2-x,1/2-y,z
1/2+x,1/2-y,1/2-z
1/2-x,1/2+y,1/2-z
1/2-x,1/2-y,-z
1/2+x,1/2+y,-z
1/2-x,1/2+y,1/2+z
1/2+x,1/2-y,1/2+z
loop_
_atom_site_type_symbol
_atom_site_label
_atom_site_fract_x
_atom_site_fract_y
_atom_site_fract_z
Si Si1 0.946853 0.375027 0.187337
Si Si2 0.681201 0.354815 0.183630
Si Si3 0.083086 0.122515 0.818685
Si Si4 0.714059 0.105637 0.821391
O O1 0.927424 0.500000 0.250000
O O2 0.928648 0.247174 0.241047
O O3 0.000000 0.374373 0.250000
O O4 0.944527 0.378410 0.000000
O O5 0.639011 0.388878 0.292751
O O6 0.683838 0.217772 0.186942
O O7 0.733424 0.382735 0.246094
O O8 0.674707 0.387629 0.000000
O O9 0.063787 0.000000 0.750000
O O10 0.070857 0.128540 0.000000
O O11 0.688125 0.000000 0.750000
O O12 0.723649 0.083481 0.000000
#
# Coordination Sequence:
#
# PCOD9499771 Si02
#       4
#    16  16  16  16
#     4  11  23  44  71  99 129 163 201 246 299 362
#     4   9  19  36  53  76 111 153 196 247 305 363
#     4  12  25  41  62  92 126 165 208 255 308 366
#     4   9  18  32  52  75 106 147 196 249 304 360
#
# _framework density 22.396028999999999
#
# number of rings (size 3 to 8) (size 9 to 14) (size 15 to 20)
#    0.000    1.750    0.000    7.500    0.000    5.500 
#    0.000    7.500    0.000    0.000    0.000    0.000 
#    0.000    0.000    0.000    0.000    0.000    0.000 
#
# Total GULP energy -178175.699852 kJ/mol
# GULP energy per Si atom -5567.990620 kJ/mol
# Density = 2.234505 g / cm^3
# Si number density = 22.396029 Si / 1000 Ang^3
#
#
#
# Elastic Constant Matrix: (Units=GPa)
#
#
# Indices 1 2 3 4 5 6 
#
# 1 53.5882 24.0884 12.2913 0.0000 0.0000 0.0000
# 2 24.0884 205.7423 103.1068 0.0000 0.0000 0.0000
# 3 12.2913 103.1068 107.4017 0.0000 0.0000 0.0000
# 4 0.0000 0.0000 0.0000 66.2014 0.0000 0.0000
# 5 0.0000 0.0000 0.0000 0.0000 37.0819 0.0000
# 6 0.0000 0.0000 0.0000 0.0000 0.0000 -218.4881
#
#
#
# Elastic Compliance Matrix: (Units=1/GPa)
#
#
# Indices 1 2 3 4 5 6 
#
# 1 0.019698 -0.002267 -0.000078 0.000000 0.000000 0.000000
# 2 -0.002267 0.009628 -0.008983 0.000000 0.000000 0.000000
# 3 -0.000078 -0.008983 0.017944 0.000000 0.000000 0.000000
# 4 0.000000 0.000000 0.000000 0.015105 0.000000 0.000000
# 5 0.000000 0.000000 0.000000 0.000000 0.026967 0.000000
# 6 0.000000 0.000000 0.000000 0.000000 0.000000 -0.004577
#
#
# Mechanical properties :
#
#
# Convention : Reuss Voigt Hill
#
# Bulk Modulus (GPa) = 40.62907 71.74503 56.18705
# Shear Modulus (GPa) = 43.24269 -7.89125 17.67572
#
# Velocity S-wave (km/s) = 4.39888 -1.87914 2.81238
# Velocity P-wave (km/s) = 6.63180 5.23412 5.97398
#
# Compressibility (1/GPa) = 0.02461292
#
# Stress axis : x y z
#
# Youngs Moduli (GPa) = 50.76707 103.86462 55.72924
#
# Poissons Ratio (x) = 0.23550 0.00432
# Poissons Ratio (y) = 0.11511 0.50064
# Poissons Ratio (z) = 0.00394 0.93306
#
# Static dielectric constant tensor:
#      x y z
#    x 1.851280 0.000000 0.000000 
#    y 0.000000 2.000580 0.000000 
#    z 0.000000 0.000000 1.809370 
# 
# From -- ./inp_files/3990.got.cif
#   From: 2010.05.17/outbox.cif.g08.bks.cpg/sg66_2_cif.got.tgz:3990.got - 2010.06.03 17:51:23.
