data_PCOD9499593
_publ_section_title
;
Structure prediction by ZEFSAII (Michael W. Deem and Ramdas Pophale) SiO2 
 PCOD9499593
Probable space group: C C C M
;
_chemical_formula_sum "Si O2"
_cell_formula_units_Z 52
_cell_length_a 11.940592
_cell_length_b 22.611282
_cell_length_c 7.893329
_cell_angle_alpha 90.000000
_cell_angle_beta 90.000000
_cell_angle_gamma 90.000000
_cell_volume 2131.136417
_symmetry_space_group_name_H-M "C C C M"
_symmetry_group_IT_number 66
_symmetry_cell_setting 'orthorhombic'
loop_
_space_group_symop_operation_xyz
x,y,z
-x,-y,z
x,-y,1/2-z
-x,y,1/2-z
-x,-y,-z
x,y,-z
-x,y,1/2+z
x,-y,1/2+z
1/2+x,1/2+y,z
1/2-x,1/2-y,z
1/2+x,1/2-y,1/2-z
1/2-x,1/2+y,1/2-z
1/2-x,1/2-y,-z
1/2+x,1/2+y,-z
1/2-x,1/2+y,1/2+z
1/2+x,1/2-y,1/2+z
loop_
_atom_site_type_symbol
_atom_site_label
_atom_site_fract_x
_atom_site_fract_y
_atom_site_fract_z
Si Si1 0.000000 0.500000 0.750000
Si Si2 0.854451 0.605825 0.698333
Si Si3 0.878406 0.069001 0.300380
Si Si4 0.375833 0.761877 0.694981
O O1 0.091972 0.449585 0.799202
O O2 0.888785 0.601418 0.500000
O O3 0.721422 0.600840 0.706402
O O4 0.885222 0.667491 0.781820
O O5 0.862031 0.074567 0.500000
O O6 0.000000 0.091604 0.250000
O O7 0.874351 0.000000 0.250000
O O8 0.500000 0.738810 0.750000
O O9 0.366809 0.743566 0.500000
O O10 0.250000 0.750000 0.772946
#
# Coordination Sequence:
#
# PCOD9499593 Si02
#       4
#     4  16  16  16
#     4  12  26  40  70 106 146 184 230 288 354 428
#     4  12  25  42  69 103 142 185 232 290 356 428
#     4  11  22  38  60  89 130 175 225 278 341 418
#     4  11  26  48  74 105 142 187 243 306 364 431
#
# _framework density 24.400127000000001
#
# number of rings (size 3 to 8) (size 9 to 14) (size 15 to 20)
#    0.000    0.615    3.077    6.000    0.000    6.154 
#    0.000    3.077    0.000    0.000    0.000    0.000 
#    0.000    0.000    0.000    0.000    0.000    0.000 
#
# Total GULP energy -144954.145812 kJ/mol
# GULP energy per Si atom -5575.159454 kJ/mol
# Density = 2.434459 g / cm^3
# Si number density = 24.400127 Si / 1000 Ang^3
#
#
#
# Elastic Constant Matrix: (Units=GPa)
#
#
# Indices 1 2 3 4 5 6 
#
# 1 230.3621 6.2991 2.0310 0.0000 0.0000 0.0000
# 2 6.2991 74.8479 -30.1927 0.0000 0.0000 0.0000
# 3 2.0310 -30.1927 97.2666 0.0000 0.0000 0.0000
# 4 0.0000 0.0000 0.0000 -84.5360 0.0000 0.0000
# 5 0.0000 0.0000 0.0000 0.0000 42.1791 0.0000
# 6 0.0000 0.0000 0.0000 0.0000 0.0000 -44.4579
#
#
#
# Elastic Compliance Matrix: (Units=1/GPa)
#
#
# Indices 1 2 3 4 5 6 
#
# 1 0.004356 -0.000461 -0.000234 0.000000 0.000000 0.000000
# 2 -0.000461 0.015322 0.004766 0.000000 0.000000 0.000000
# 3 -0.000234 0.004766 0.011765 0.000000 0.000000 0.000000
# 4 0.000000 0.000000 0.000000 -0.011829 0.000000 0.000000
# 5 0.000000 0.000000 0.000000 0.000000 0.023708 0.000000
# 6 0.000000 0.000000 0.000000 0.000000 0.000000 -0.022493
#
#
# Mechanical properties :
#
#
# Convention : Reuss Voigt Hill
#
# Bulk Modulus (GPa) = 25.26289 39.86126 32.56208
# Shear Modulus (GPa) = 193.18610 10.92633 102.05622
#
# Velocity S-wave (km/s) = 8.90764 2.11842 6.47433
# Velocity P-wave (km/s) = 10.77826 4.72817 8.32245
#
# Compressibility (1/GPa) = 0.03958375
#
# Stress axis : x y z
#
# Youngs Moduli (GPa) = 229.58628 65.26726 84.99624
#
# Poissons Ratio (x) = 0.03009 0.01989
# Poissons Ratio (y) = 0.10583 -0.40506
# Poissons Ratio (z) = 0.05373 -0.31104
#
# Static dielectric constant tensor:
#      x y z
#    x 2.058210 0.000000 0.000000 
#    y 0.000000 1.881270 0.000000 
#    z 0.000000 0.000000 1.968710 
# 
# From -- ./inp_files/3643.got.cif
#   From: 2010.05.17/outbox.cif.g08.bks.cpg/sg66_2_cif.got.tgz:3643.got - 2010.06.03 17:51:23.
