data_PCOD9499669
_publ_section_title
;
Structure prediction by ZEFSAII (Michael W. Deem and Ramdas Pophale) SiO2 
 PCOD9499669
Probable space group: C C C M
;
_chemical_formula_sum "Si O2"
_cell_formula_units_Z 88
_cell_length_a 15.134842
_cell_length_b 22.082404
_cell_length_c 13.842304
_cell_angle_alpha 90.000000
_cell_angle_beta 90.000000
_cell_angle_gamma 90.000000
_cell_volume 4626.287574
_symmetry_space_group_name_H-M "C C C M"
_symmetry_group_IT_number 66
_symmetry_cell_setting 'orthorhombic'
loop_
_space_group_symop_operation_xyz
x,y,z
-x,-y,z
x,-y,1/2-z
-x,y,1/2-z
-x,-y,-z
x,y,-z
-x,y,1/2+z
x,-y,1/2+z
1/2+x,1/2+y,z
1/2-x,1/2-y,z
1/2+x,1/2-y,1/2-z
1/2-x,1/2+y,1/2-z
1/2-x,1/2-y,-z
1/2+x,1/2+y,-z
1/2-x,1/2+y,1/2+z
1/2+x,1/2-y,1/2+z
loop_
_atom_site_type_symbol
_atom_site_label
_atom_site_fract_x
_atom_site_fract_y
_atom_site_fract_z
Si Si1 0.590670 0.583365 0.500000
Si Si2 0.079127 0.548893 0.614198
Si Si3 0.891010 0.061441 0.500000
Si Si4 0.795743 0.153135 0.156899
Si Si5 0.500000 0.851342 0.250000
Si Si6 0.727285 0.445298 0.315693
Si Si7 0.876992 0.276418 0.888673
O O1 0.485466 0.594898 0.500000
O O2 0.597109 0.511149 0.500000
O O3 0.642950 0.611013 0.409442
O O4 0.077593 0.563984 0.500000
O O5 0.178728 0.529999 0.642969
O O6 0.000000 0.500000 0.629384
O O7 0.059606 0.604661 0.684509
O O8 0.834586 0.073144 0.404308
O O9 0.766730 0.113783 0.248341
O O10 0.849887 0.215526 0.168209
O O11 0.706681 0.178171 0.107782
O O12 0.449597 0.810571 0.172827
O O13 0.690007 0.500000 0.250000
O O14 0.900283 0.261215 0.000000
#
# Coordination Sequence:
#
# PCOD9499669 Si02
#       7
#     8  16   8  16   8  16  16
#     4  11  22  43  66  91 126 166 223 279 321 379
#     4  11  24  41  65  97 136 175 213 264 330 403
#     4  11  26  40  61  98 131 166 214 274 334 396
#     4  11  22  43  70  91 127 171 221 275 324 385
#     4  12  23  40  64 100 135 168 222 272 328 394
#     4  12  23  41  67  95 131 172 211 265 337 396
#     4  11  23  41  69  98 125 172 228 272 320 387
#
# _framework density 19.021732
#
# number of rings (size 3 to 8) (size 9 to 14) (size 15 to 20)
#    0.000    0.727    6.364    2.455    0.000    2.182 
#    0.000    0.000    2.000    2.182    0.000    0.000 
#    0.000    0.000    0.000    0.000    0.000    0.000 
#
# Total GULP energy -245515.871652 kJ/mol
# GULP energy per Si atom -5579.906174 kJ/mol
# Density = 1.897844 g / cm^3
# Si number density = 19.021732 Si / 1000 Ang^3
#
#
#
# Elastic Constant Matrix: (Units=GPa)
#
#
# Indices 1 2 3 4 5 6 
#
# 1 92.8760 15.6919 30.1886 0.0000 0.0000 0.0000
# 2 15.6919 68.2444 33.4570 0.0000 0.0000 0.0000
# 3 30.1886 33.4570 107.6611 0.0000 0.0000 0.0000
# 4 0.0000 0.0000 0.0000 59.9390 0.0000 0.0000
# 5 0.0000 0.0000 0.0000 0.0000 22.5875 0.0000
# 6 0.0000 0.0000 0.0000 0.0000 0.0000 28.6783
#
#
#
# Elastic Compliance Matrix: (Units=1/GPa)
#
#
# Indices 1 2 3 4 5 6 
#
# 1 0.011944 -0.001303 -0.002944 0.000000 0.000000 0.000000
# 2 -0.001303 0.017429 -0.005051 0.000000 0.000000 0.000000
# 3 -0.002944 -0.005051 0.011684 0.000000 0.000000 0.000000
# 4 0.000000 0.000000 0.000000 0.016684 0.000000 0.000000
# 5 0.000000 0.000000 0.000000 0.000000 0.044272 0.000000
# 6 0.000000 0.000000 0.000000 0.000000 0.000000 0.034870
#
#
# Mechanical properties :
#
#
# Convention : Reuss Voigt Hill
#
# Bulk Modulus (GPa) = 44.52258 47.49516 46.00887
# Shear Modulus (GPa) = 30.68132 34.87055 32.77593
#
# Velocity S-wave (km/s) = 4.02053 4.28623 4.15550
# Velocity P-wave (km/s) = 6.70894 7.03696 6.87490
#
# Compressibility (1/GPa) = 0.02246051
#
# Stress axis : x y z
#
# Youngs Moduli (GPa) = 83.72261 57.37554 85.58981
#
# Poissons Ratio (x) = 0.07476 0.25200
# Poissons Ratio (y) = 0.10909 0.43231
# Poissons Ratio (z) = 0.24650 0.28980
#
# Static dielectric constant tensor:
#      x y z
#    x 1.692730 0.000000 0.000000 
#    y 0.000000 1.658170 0.000000 
#    z 0.000000 0.000000 1.653490 
# 
# From -- ./inp_files/28265.got.cif
#   From: 2010.05.17/outbox.cif.g08.bks.cpg/sg66_15_cif.got.tgz:28265.got - 2010.06.03 17:51:23.
