data_PCOD9499990
_publ_section_title
;
Structure prediction by ZEFSAII (Michael W. Deem and Ramdas Pophale) SiO2 
 PCOD9499990
Probable space group: C C C M
;
_chemical_formula_sum "Si O2"
_cell_formula_units_Z 80
_cell_length_a 18.032050
_cell_length_b 27.495692
_cell_length_c 9.143259
_cell_angle_alpha 90.000000
_cell_angle_beta 90.000000
_cell_angle_gamma 90.000000
_cell_volume 4533.261578
_symmetry_space_group_name_H-M "C C C M"
_symmetry_group_IT_number 66
_symmetry_cell_setting 'orthorhombic'
loop_
_space_group_symop_operation_xyz
x,y,z
-x,-y,z
x,-y,1/2-z
-x,y,1/2-z
-x,-y,-z
x,y,-z
-x,y,1/2+z
x,-y,1/2+z
1/2+x,1/2+y,z
1/2-x,1/2-y,z
1/2+x,1/2-y,1/2-z
1/2-x,1/2+y,1/2-z
1/2-x,1/2-y,-z
1/2+x,1/2+y,-z
1/2-x,1/2+y,1/2+z
1/2+x,1/2-y,1/2+z
loop_
_atom_site_type_symbol
_atom_site_label
_atom_site_fract_x
_atom_site_fract_y
_atom_site_fract_z
Si Si1 0.125013 0.690331 0.828322
Si Si2 0.207628 0.844576 0.826471
Si Si3 0.074797 0.580406 0.173541
Si Si4 0.762725 0.548455 0.675750
Si Si5 0.576531 0.712669 0.173844
O O1 0.212908 0.681793 0.805058
O O2 0.086674 0.638273 0.802435
O O3 0.093941 0.732505 0.727324
O O4 0.114352 0.703237 0.000000
O O5 0.220495 0.901363 0.790240
O O6 0.143989 0.819965 0.732657
O O7 0.190595 0.840704 0.000000
O O8 0.151569 0.556133 0.223931
O O9 0.000000 0.563676 0.250000
O O10 0.068700 0.572904 0.000000
O O11 0.732655 0.500000 0.750000
O O12 0.762715 0.543707 0.500000
O O13 0.500000 0.697310 0.250000
O O14 0.570361 0.710599 0.000000
#
# Coordination Sequence:
#
# PCOD9499990 Si02
#       5
#    16  16  16  16  16
#     4   9  18  34  54  75 104 141 175 207 248 297
#     4   9  19  37  57  76 103 137 170 208 255 304
#     4   9  18  31  47  71 103 139 175 209 247 292
#     4   9  19  35  54  75  99 130 169 211 257 306
#     4  12  24  35  51  77 107 137 171 210 253 301
#
# _framework density 17.647338000000001
#
# number of rings (size 3 to 8) (size 9 to 14) (size 15 to 20)
#    0.000    2.400    0.000    5.400    0.000    7.600 
#    0.000    6.000    0.000    0.600    0.000    4.200 
#    0.000    0.000    0.000    0.000    0.000    0.000 
#
# Total GULP energy -223332.436419 kJ/mol
# GULP energy per Si atom -5583.310910 kJ/mol
# Density = 1.760717 g / cm^3
# Si number density = 17.647338 Si / 1000 Ang^3
#
#
#
# Elastic Constant Matrix: (Units=GPa)
#
#
# Indices 1 2 3 4 5 6 
#
# 1 55.7140 10.4508 38.6066 0.0000 0.0000 0.0000
# 2 10.4508 50.0253 30.8859 0.0000 0.0000 0.0000
# 3 38.6066 30.8859 61.4575 0.0000 0.0000 0.0000
# 4 0.0000 0.0000 0.0000 43.1521 0.0000 0.0000
# 5 0.0000 0.0000 0.0000 0.0000 -37.7852 0.0000
# 6 0.0000 0.0000 0.0000 0.0000 0.0000 -3.7137
#
#
#
# Elastic Compliance Matrix: (Units=1/GPa)
#
#
# Indices 1 2 3 4 5 6 
#
# 1 0.034317 0.008903 -0.026032 0.000000 0.000000 0.000000
# 2 0.008903 0.031292 -0.021319 0.000000 0.000000 0.000000
# 3 -0.026032 -0.021319 0.043338 0.000000 0.000000 0.000000
# 4 0.000000 0.000000 0.000000 0.023174 0.000000 0.000000
# 5 0.000000 0.000000 0.000000 0.000000 -0.026465 0.000000
# 6 0.000000 0.000000 0.000000 0.000000 0.000000 -0.269273
#
#
# Mechanical properties :
#
#
# Convention : Reuss Voigt Hill
#
# Bulk Modulus (GPa) = 31.19896 36.34260 33.77078
# Shear Modulus (GPa) = -65.75779 6.14755 -29.80512
#
# Velocity S-wave (km/s) = -6.11090 1.86845 -4.11412
# Velocity P-wave (km/s) = 5.66332 5.02925 1.84118
#
# Compressibility (1/GPa) = 0.03205235
#
# Stress axis : x y z
#
# Youngs Moduli (GPa) = 29.13970 31.95661 23.07432
#
# Poissons Ratio (x) = -0.28451 0.60067
# Poissons Ratio (y) = -0.25943 0.49192
# Poissons Ratio (z) = 0.75856 0.68128
#
# Static dielectric constant tensor:
#      x y z
#    x 1.595480 0.000000 0.000000 
#    y 0.000000 1.601410 0.000000 
#    z 0.000000 0.000000 1.582110 
# 
# From -- ./inp_files/6641.got.cif
#   From: 2010.05.17/outbox.cif.g08.bks.cpg/sg66_4_cif.got.tgz:6641.got - 2010.06.03 17:51:23.
