data_PCOD9499163
_publ_section_title
;
Structure prediction by ZEFSAII (Michael W. Deem and Ramdas Pophale) SiO2 
 PCOD9499163
Probable space group: C C C M
;
_chemical_formula_sum "Si O2"
_cell_formula_units_Z 64
_cell_length_a 18.653585
_cell_length_b 16.446312
_cell_length_c 8.834728
_cell_angle_alpha 90.000000
_cell_angle_beta 90.000000
_cell_angle_gamma 90.000000
_cell_volume 2710.341523
_symmetry_space_group_name_H-M "C C C M"
_symmetry_group_IT_number 66
_symmetry_cell_setting 'orthorhombic'
loop_
_space_group_symop_operation_xyz
x,y,z
-x,-y,z
x,-y,1/2-z
-x,y,1/2-z
-x,-y,-z
x,y,-z
-x,y,1/2+z
x,-y,1/2+z
1/2+x,1/2+y,z
1/2-x,1/2-y,z
1/2+x,1/2-y,1/2-z
1/2-x,1/2+y,1/2-z
1/2-x,1/2-y,-z
1/2+x,1/2+y,-z
1/2-x,1/2+y,1/2+z
1/2+x,1/2-y,1/2+z
loop_
_atom_site_type_symbol
_atom_site_label
_atom_site_fract_x
_atom_site_fract_y
_atom_site_fract_z
Si Si1 0.578626 0.355034 0.679079
Si Si2 0.569800 0.912237 0.676261
Si Si3 0.782010 0.083921 0.820762
Si Si4 0.821016 0.726456 0.682961
O O1 0.500000 0.359495 0.750000
O O2 0.576679 0.370574 0.500000
O O3 0.635766 0.412891 0.763104
O O4 0.617411 0.269283 0.713609
O O5 0.500000 0.871017 0.750000
O O6 0.554796 0.920449 0.500000
O O7 0.643870 0.865785 0.693380
O O8 0.576283 0.000000 0.750000
O O9 0.761270 0.182343 0.787323
O O10 0.752016 0.000000 0.750000
O O11 0.776287 0.076518 0.000000
O O12 0.831012 0.744579 0.500000
#
# Coordination Sequence:
#
# PCOD9499163 Si02
#       4
#    16  16  16  16
#     4  11  25  44  68  97 130 170 217 269 325 387
#     4  11  23  40  63  90 124 164 209 259 312 372
#     4  11  24  43  68  97 132 172 217 268 323 385
#     4  10  24  41  64  94 129 168 209 259 316 379
#
# _framework density 23.613261000000001
#
# number of rings (size 3 to 8) (size 9 to 14) (size 15 to 20)
#    0.000    1.250    0.000    5.250    0.000   21.000 
#    0.000    2.500    0.000    0.000    0.000    0.000 
#    0.000    0.000    0.000    0.000    0.000    0.000 
#
# Total GULP energy -178381.788270 kJ/mol
# GULP energy per Si atom -5574.430883 kJ/mol
# Density = 2.355952 g / cm^3
# Si number density = 23.613261 Si / 1000 Ang^3
#
#
#
# Elastic Constant Matrix: (Units=GPa)
#
#
# Indices 1 2 3 4 5 6 
#
# 1 136.6848 55.8041 18.9349 0.0000 0.0000 0.0000
# 2 55.8041 179.8701 59.2274 0.0000 0.0000 0.0000
# 3 18.9349 59.2274 69.0298 0.0000 0.0000 0.0000
# 4 0.0000 0.0000 0.0000 75.3121 0.0000 0.0000
# 5 0.0000 0.0000 0.0000 0.0000 25.9049 0.0000
# 6 0.0000 0.0000 0.0000 0.0000 0.0000 37.5809
#
#
#
# Elastic Compliance Matrix: (Units=1/GPa)
#
#
# Indices 1 2 3 4 5 6 
#
# 1 0.008378 -0.002568 -0.000095 0.000000 0.000000 0.000000
# 2 -0.002568 0.008536 -0.006619 0.000000 0.000000 0.000000
# 3 -0.000095 -0.006619 0.020192 0.000000 0.000000 0.000000
# 4 0.000000 0.000000 0.000000 0.013278 0.000000 0.000000
# 5 0.000000 0.000000 0.000000 0.000000 0.038603 0.000000
# 6 0.000000 0.000000 0.000000 0.000000 0.000000 0.026609
#
#
# Mechanical properties :
#
#
# Convention : Reuss Voigt Hill
#
# Bulk Modulus (GPa) = 53.93349 72.61304 63.27326
# Shear Modulus (GPa) = 35.62780 44.53415 40.08097
#
# Velocity S-wave (km/s) = 3.88855 4.34750 4.12441
# Velocity P-wave (km/s) = 6.56133 7.48456 7.03810
#
# Compressibility (1/GPa) = 0.01854136
#
# Stress axis : x y z
#
# Youngs Moduli (GPa) = 119.36541 117.15250 49.52490
#
# Poissons Ratio (x) = 0.30084 0.00469
# Poissons Ratio (y) = 0.30652 0.32782
# Poissons Ratio (z) = 0.01130 0.77548
#
# Static dielectric constant tensor:
#      x y z
#    x 2.207790 0.000000 0.000000 
#    y 0.000000 2.097440 0.000000 
#    z 0.000000 0.000000 1.755170 
# 
# From -- ./inp_files/6164.got.cif
#   From: 2010.05.17/outbox.cif.g08.bks.cpg/sg66_4_cif.got.tgz:6164.got - 2010.06.03 17:51:23.
