data_PCOD9499028
_publ_section_title
;
Structure prediction by ZEFSAII (Michael W. Deem and Ramdas Pophale) SiO2 
 PCOD9499028
Probable space group: C C C M
;
_chemical_formula_sum "Si O2"
_cell_formula_units_Z 72
_cell_length_a 15.648529
_cell_length_b 15.335186
_cell_length_c 13.828835
_cell_angle_alpha 90.000000
_cell_angle_beta 90.000000
_cell_angle_gamma 90.000000
_cell_volume 3318.548444
_symmetry_space_group_name_H-M "C C C M"
_symmetry_group_IT_number 66
_symmetry_cell_setting 'orthorhombic'
loop_
_space_group_symop_operation_xyz
x,y,z
-x,-y,z
x,-y,1/2-z
-x,y,1/2-z
-x,-y,-z
x,y,-z
-x,y,1/2+z
x,-y,1/2+z
1/2+x,1/2+y,z
1/2-x,1/2-y,z
1/2+x,1/2-y,1/2-z
1/2-x,1/2+y,1/2-z
1/2-x,1/2-y,-z
1/2+x,1/2+y,-z
1/2-x,1/2+y,1/2+z
1/2+x,1/2-y,1/2+z
loop_
_atom_site_type_symbol
_atom_site_label
_atom_site_fract_x
_atom_site_fract_y
_atom_site_fract_z
Si Si1 0.319486 0.871962 0.385917
Si Si2 0.271869 0.353660 0.617396
Si Si3 0.363025 0.322458 0.883039
Si Si4 0.174179 0.500000 0.750000
Si Si5 0.965139 0.904207 0.382788
O O1 0.330209 0.878871 0.500000
O O2 0.339895 0.774758 0.354026
O O3 0.217773 0.885078 0.363024
O O4 0.373274 0.940631 0.327172
O O5 0.261343 0.367745 0.500000
O O6 0.250000 0.250000 0.634714
O O7 0.219613 0.425953 0.679661
O O8 0.370787 0.373803 0.645191
O O9 0.456317 0.345682 0.848551
O O10 0.365678 0.322121 0.000000
O O11 0.962807 0.902099 0.500000
O O12 0.000000 0.000000 0.357171
#
# Coordination Sequence:
#
# PCOD9499028 Si02
#       5
#    16  16  16   8  16
#     4   9  18  32  53  82 111 147 191 236 285 340
#     4  10  23  41  60  86 124 164 198 243 308 370
#     4   8  15  30  54  80 110 142 182 236 289 341
#     4  12  22  34  61  81 116 156 202 240 286 355
#     4   9  16  31  58  88 115 145 187 242 300 358
#
# _framework density 21.696234
#
# number of rings (size 3 to 8) (size 9 to 14) (size 15 to 20)
#    0.000    2.667    0.000    3.333    3.111    3.556 
#    0.000    5.000    0.000    2.667    0.000    7.778 
#    0.000    0.000    0.000    0.000    0.000    0.000 
#
# Total GULP energy -200494.290598 kJ/mol
# GULP energy per Si atom -5569.285850 kJ/mol
# Density = 2.164685 g / cm^3
# Si number density = 21.696234 Si / 1000 Ang^3
#
#
#
# Elastic Constant Matrix: (Units=GPa)
#
#
# Indices 1 2 3 4 5 6 
#
# 1 48.4335 17.3138 -4.2826 0.0000 0.0000 0.0000
# 2 17.3138 110.1737 30.6980 0.0000 0.0000 0.0000
# 3 -4.2826 30.6980 101.0082 0.0000 0.0000 0.0000
# 4 0.0000 0.0000 0.0000 21.6044 0.0000 0.0000
# 5 0.0000 0.0000 0.0000 0.0000 1.0324 0.0000
# 6 0.0000 0.0000 0.0000 0.0000 0.0000 21.5542
#
#
#
# Elastic Compliance Matrix: (Units=1/GPa)
#
#
# Indices 1 2 3 4 5 6 
#
# 1 0.022314 -0.004119 0.002198 0.000000 0.000000 0.000000
# 2 -0.004119 0.010677 -0.003419 0.000000 0.000000 0.000000
# 3 0.002198 -0.003419 0.011033 0.000000 0.000000 0.000000
# 4 0.000000 0.000000 0.000000 0.046287 0.000000 0.000000
# 5 0.000000 0.000000 0.000000 0.000000 0.968641 0.000000
# 6 0.000000 0.000000 0.000000 0.000000 0.000000 0.046395
#
#
# Mechanical properties :
#
#
# Convention : Reuss Voigt Hill
#
# Bulk Modulus (GPa) = 29.99238 38.56376 34.27807
# Shear Modulus (GPa) = 4.43600 23.23061 13.83330
#
# Velocity S-wave (km/s) = 1.43144 3.27574 2.52779
# Velocity P-wave (km/s) = 4.07257 5.66747 4.93488
#
# Compressibility (1/GPa) = 0.03334180
#
# Stress axis : x y z
#
# Youngs Moduli (GPa) = 44.81561 93.66241 90.64051
#
# Poissons Ratio (x) = 0.38579 -0.19922
# Poissons Ratio (y) = 0.18460 0.30994
# Poissons Ratio (z) = -0.09850 0.32027
#
# Static dielectric constant tensor:
#      x y z
#    x 1.821650 0.000000 0.000000 
#    y 0.000000 1.901900 0.000000 
#    z 0.000000 0.000000 1.863080 
# 
# From -- ./inp_files/29816.got.cif
#   From: 2010.05.17/outbox.cif.g08.bks.cpg/sg66_15_cif.got.tgz:29816.got - 2010.06.03 17:51:23.
