data_PCOD9499970
_publ_section_title
;
Structure prediction by ZEFSAII (Michael W. Deem and Ramdas Pophale) SiO2 
 PCOD9499970
Probable space group: C C C M
;
_chemical_formula_sum "Si O2"
_cell_formula_units_Z 52
_cell_length_a 11.676937
_cell_length_b 14.150409
_cell_length_c 13.311643
_cell_angle_alpha 90.000000
_cell_angle_beta 90.000000
_cell_angle_gamma 90.000000
_cell_volume 2199.528491
_symmetry_space_group_name_H-M "C C C M"
_symmetry_group_IT_number 66
_symmetry_cell_setting 'orthorhombic'
loop_
_space_group_symop_operation_xyz
x,y,z
-x,-y,z
x,-y,1/2-z
-x,y,1/2-z
-x,-y,-z
x,y,-z
-x,y,1/2+z
x,-y,1/2+z
1/2+x,1/2+y,z
1/2-x,1/2-y,z
1/2+x,1/2-y,1/2-z
1/2-x,1/2+y,1/2-z
1/2-x,1/2-y,-z
1/2+x,1/2+y,-z
1/2-x,1/2+y,1/2+z
1/2+x,1/2-y,1/2+z
loop_
_atom_site_type_symbol
_atom_site_label
_atom_site_fract_x
_atom_site_fract_y
_atom_site_fract_z
Si Si1 0.946315 0.394731 0.119780
Si Si2 0.500000 0.500000 0.250000
Si Si3 0.795683 0.951523 0.380028
Si Si4 0.185975 0.658748 0.377957
O O1 0.815236 0.391014 0.155107
O O2 0.000000 0.500000 0.133774
O O3 0.054142 0.335611 0.155843
O O4 0.935609 0.381354 0.000000
O O5 0.414201 0.440727 0.321338
O O6 0.812162 0.938868 0.500000
O O7 0.751518 0.059477 0.361947
O O8 0.180910 0.663657 0.500000
O O9 0.250000 0.750000 0.339656
#
# Coordination Sequence:
#
# PCOD9499970 Si02
#       4
#    16   4  16  16
#     4   7  11  23  44  70  97 124 160 207 255 309
#     4  12  22  32  50  66  96 140 192 222 268 314
#     4   9  18  32  50  72 100 134 176 224 268 315
#     4   8  13  25  51  80 102 129 163 206 271 337
#
# _framework density 23.641428999999999
#
# number of rings (size 3 to 8) (size 9 to 14) (size 15 to 20)
#    0.000    3.692    0.000    4.154    0.000    0.000 
#    0.000    6.923    6.769    0.000    0.000   10.769 
#    0.000    0.000    0.000    0.000    0.000    0.923 
#
# Total GULP energy -145027.156338 kJ/mol
# GULP energy per Si atom -5577.967551 kJ/mol
# Density = 2.358762 g / cm^3
# Si number density = 23.641429 Si / 1000 Ang^3
#
#
#
# Elastic Constant Matrix: (Units=GPa)
#
#
# Indices 1 2 3 4 5 6 
#
# 1 260.5846 46.4737 71.5821 0.0000 0.0000 0.0000
# 2 46.4737 44.3268 2.8967 0.0000 0.0000 0.0000
# 3 71.5821 2.8967 111.6884 0.0000 0.0000 0.0000
# 4 0.0000 0.0000 0.0000 -0.6700 0.0000 0.0000
# 5 0.0000 0.0000 0.0000 0.0000 64.1599 0.0000
# 6 0.0000 0.0000 0.0000 0.0000 0.0000 38.5403
#
#
#
# Elastic Compliance Matrix: (Units=1/GPa)
#
#
# Indices 1 2 3 4 5 6 
#
# 1 0.005892 -0.005941 -0.003622 0.000000 0.000000 0.000000
# 2 -0.005941 0.028588 0.003066 0.000000 0.000000 0.000000
# 3 -0.003622 0.003066 0.011195 0.000000 0.000000 0.000000
# 4 0.000000 0.000000 0.000000 -1.492500 0.000000 0.000000
# 5 0.000000 0.000000 0.000000 0.000000 0.015586 0.000000
# 6 0.000000 0.000000 0.000000 0.000000 0.000000 0.025947
#
#
# Mechanical properties :
#
#
# Convention : Reuss Voigt Hill
#
# Bulk Modulus (GPa) = 30.59835 73.16720 51.88277
# Shear Modulus (GPa) = -3.61950 40.11584 18.24817
#
# Velocity S-wave (km/s) = -1.23868 4.12375 2.78127
# Velocity P-wave (km/s) = 3.30530 7.32732 5.68395
#
# Compressibility (1/GPa) = 0.03268150
#
# Stress axis : x y z
#
# Youngs Moduli (GPa) = 169.72137 34.98000 89.32205
#
# Poissons Ratio (x) = 0.20780 0.32354
# Poissons Ratio (y) = 1.00826 -0.27386
# Poissons Ratio (z) = 0.61476 -0.10725
#
# Static dielectric constant tensor:
#      x y z
#    x 1.982280 0.000000 0.000000 
#    y 0.000000 1.884030 0.000000 
#    z 0.000000 0.000000 2.005710 
# 
# From -- ./inp_files/29427.got.cif
#   From: 2010.05.17/outbox.cif.g08.bks.cpg/sg66_15_cif.got.tgz:29427.got - 2010.06.03 17:51:23.
