data_PCOD9499591
_publ_section_title
;
Structure prediction by ZEFSAII (Michael W. Deem and Ramdas Pophale) SiO2 
 PCOD9499591
Probable space group: C C C M
;
_chemical_formula_sum "Si O2"
_cell_formula_units_Z 64
_cell_length_a 14.422475
_cell_length_b 25.052875
_cell_length_c 8.567680
_cell_angle_alpha 90.000000
_cell_angle_beta 90.000000
_cell_angle_gamma 90.000000
_cell_volume 3095.712378
_symmetry_space_group_name_H-M "C C C M"
_symmetry_group_IT_number 66
_symmetry_cell_setting 'orthorhombic'
loop_
_space_group_symop_operation_xyz
x,y,z
-x,-y,z
x,-y,1/2-z
-x,y,1/2-z
-x,-y,-z
x,y,-z
-x,y,1/2+z
x,-y,1/2+z
1/2+x,1/2+y,z
1/2-x,1/2-y,z
1/2+x,1/2-y,1/2-z
1/2-x,1/2+y,1/2-z
1/2-x,1/2-y,-z
1/2+x,1/2+y,-z
1/2-x,1/2+y,1/2+z
1/2+x,1/2-y,1/2+z
loop_
_atom_site_type_symbol
_atom_site_label
_atom_site_fract_x
_atom_site_fract_y
_atom_site_fract_z
Si Si1 0.276191 0.943431 0.186936
Si Si2 0.104890 0.658060 0.188557
Si Si3 0.605888 0.274969 0.812157
Si Si4 0.104222 0.112249 0.185492
O O1 0.337911 0.893259 0.241987
O O2 0.172945 0.932015 0.248141
O O3 0.310452 0.000000 0.250000
O O4 0.276093 0.944046 0.000000
O O5 0.145186 0.716716 0.231560
O O6 0.000000 0.654755 0.250000
O O7 0.102691 0.657360 0.000000
O O8 0.500000 0.273021 0.750000
O O9 0.642526 0.329970 0.741850
O O10 0.607690 0.279790 0.000000
O O11 0.000000 0.106543 0.250000
O O12 0.101578 0.110932 0.000000
#
# Coordination Sequence:
#
# PCOD9499591 Si02
#       4
#    16  16  16  16
#     4  11  24  42  59  82 113 150 195 241 282 332
#     4   9  20  37  60  86 117 152 188 231 283 335
#     4   9  16  31  55  85 116 148 183 226 278 337
#     4  11  22  38  60  87 116 150 186 231 284 339
#
# _framework density 20.673756000000001
#
# number of rings (size 3 to 8) (size 9 to 14) (size 15 to 20)
#    0.000    2.000    0.000    5.250    0.000    5.000 
#    0.000   10.000    0.000    0.000    0.000    0.000 
#    0.000    0.000    0.000    0.000    0.000    0.000 
#
# Total GULP energy -178730.658211 kJ/mol
# GULP energy per Si atom -5585.333069 kJ/mol
# Density = 2.062670 g / cm^3
# Si number density = 20.673756 Si / 1000 Ang^3
#
#
#
# Elastic Constant Matrix: (Units=GPa)
#
#
# Indices 1 2 3 4 5 6 
#
# 1 42.0041 12.6345 0.2862 0.0000 0.0000 0.0000
# 2 12.6345 110.9539 21.7506 0.0000 0.0000 0.0000
# 3 0.2862 21.7506 70.4048 0.0000 0.0000 0.0000
# 4 0.0000 0.0000 0.0000 37.2828 0.0000 0.0000
# 5 0.0000 0.0000 0.0000 0.0000 -4.2548 0.0000
# 6 0.0000 0.0000 0.0000 0.0000 0.0000 35.0891
#
#
#
# Elastic Compliance Matrix: (Units=1/GPa)
#
#
# Indices 1 2 3 4 5 6 
#
# 1 0.024696 -0.002972 0.000818 0.000000 0.000000 0.000000
# 2 -0.002972 0.009952 -0.003062 0.000000 0.000000 0.000000
# 3 0.000818 -0.003062 0.015146 0.000000 0.000000 0.000000
# 4 0.000000 0.000000 0.000000 0.026822 0.000000 0.000000
# 5 0.000000 0.000000 0.000000 0.000000 -0.235027 0.000000
# 6 0.000000 0.000000 0.000000 0.000000 0.000000 0.028499
#
#
# Mechanical properties :
#
#
# Convention : Reuss Voigt Hill
#
# Bulk Modulus (GPa) = 25.40664 32.52284 28.96474
# Shear Modulus (GPa) = -47.01057 26.20285 -10.40386
#
# Velocity S-wave (km/s) = -4.77374 3.56398 -2.24573
# Velocity P-wave (km/s) = 4.25074 5.71853 2.70488
#
# Compressibility (1/GPa) = 0.03935980
#
# Stress axis : x y z
#
# Youngs Moduli (GPa) = 40.49285 100.48687 66.02269
#
# Poissons Ratio (x) = 0.29870 -0.05400
# Poissons Ratio (y) = 0.12036 0.20218
# Poissons Ratio (z) = -0.03312 0.30772
#
# Static dielectric constant tensor:
#      x y z
#    x 1.713350 0.000000 0.000000 
#    y 0.000000 1.774600 0.000000 
#    z 0.000000 0.000000 1.693770 
# 
# From -- ./inp_files/5061.got.cif
#   From: 2010.05.17/outbox.cif.g08.bks.cpg/sg66_3_cif.got.tgz:5061.got - 2010.06.03 17:51:23.
