data_PCOD9499017
_publ_section_title
;
Structure prediction by ZEFSAII (Michael W. Deem and Ramdas Pophale) SiO2 
 PCOD9499017
Probable space group: C C C M
;
_chemical_formula_sum "Si O2"
_cell_formula_units_Z 112
_cell_length_a 16.777516
_cell_length_b 10.467868
_cell_length_c 31.816531
_cell_angle_alpha 90.000000
_cell_angle_beta 90.000000
_cell_angle_gamma 90.000000
_cell_volume 5587.772621
_symmetry_space_group_name_H-M "C C C M"
_symmetry_group_IT_number 66
_symmetry_cell_setting 'orthorhombic'
loop_
_space_group_symop_operation_xyz
x,y,z
-x,-y,z
x,-y,1/2-z
-x,y,1/2-z
-x,-y,-z
x,y,-z
-x,y,1/2+z
x,-y,1/2+z
1/2+x,1/2+y,z
1/2-x,1/2-y,z
1/2+x,1/2-y,1/2-z
1/2-x,1/2+y,1/2-z
1/2-x,1/2-y,-z
1/2+x,1/2+y,-z
1/2-x,1/2+y,1/2+z
1/2+x,1/2-y,1/2+z
loop_
_atom_site_type_symbol
_atom_site_label
_atom_site_fract_x
_atom_site_fract_y
_atom_site_fract_z
Si Si1 0.434706 0.231852 0.626024
Si Si2 0.242335 0.402946 0.950124
Si Si3 0.311502 0.460980 0.370770
Si Si4 0.651432 0.940281 0.317400
Si Si5 0.160329 0.296968 0.769209
Si Si6 0.084900 0.431848 0.546465
Si Si7 0.559170 0.385162 0.679642
O O1 0.361675 0.330923 0.630016
O O2 0.420613 0.107586 0.654466
O O3 0.428267 0.181771 0.578953
O O4 0.511481 0.301665 0.645075
O O5 0.250000 0.250000 0.941623
O O6 0.296465 0.481163 0.917119
O O7 0.154063 0.464471 0.943014
O O8 0.261169 0.420157 0.000000
O O9 0.228562 0.440560 0.347014
O O10 0.363939 0.558726 0.343731
O O11 0.658990 0.840936 0.279001
O O12 0.642815 0.078861 0.297264
O O13 0.250000 0.250000 0.778576
O O14 0.093729 0.193934 0.781313
O O15 0.105369 0.382367 0.500000
O O16 0.000000 0.500000 0.544994
O O17 0.500000 0.500000 0.691965
#
# Coordination Sequence:
#
# PCOD9499017 Si02
#       7
#    16  16  16  16  16  16  16
#     4  11  24  41  62  95 132 168 213 267 327 392
#     4  10  23  40  65  98 127 165 219 272 326 398
#     4  11  22  42  66  94 130 170 215 270 329 394
#     4  11  24  40  67  97 127 164 217 275 321 378
#     4  11  23  43  67  94 126 171 221 267 325 384
#     4  10  23  41  63  93 129 172 213 262 327 391
#     4  10  25  44  66  96 131 176 218 262 333 392
#
# _framework density 20.043763999999999
#
# number of rings (size 3 to 8) (size 9 to 14) (size 15 to 20)
#    0.000    1.429    2.857    1.286    6.000    1.143 
#    0.000    6.429    0.000    2.571    0.000    0.000 
#    0.000    0.000    0.000    0.000    0.000    0.000 
#
# Total GULP energy -312760.634837 kJ/mol
# GULP energy per Si atom -5585.011336 kJ/mol
# Density = 1.999814 g / cm^3
# Si number density = 20.043764 Si / 1000 Ang^3
#
#
#
# Elastic Constant Matrix: (Units=GPa)
#
#
# Indices 1 2 3 4 5 6 
#
# 1 54.8381 42.1507 15.7226 0.0000 0.0000 0.0000
# 2 42.1507 76.3724 53.4896 0.0000 0.0000 0.0000
# 3 15.7226 53.4896 85.7452 0.0000 0.0000 0.0000
# 4 0.0000 0.0000 0.0000 36.7763 0.0000 0.0000
# 5 0.0000 0.0000 0.0000 0.0000 22.9611 0.0000
# 6 0.0000 0.0000 0.0000 0.0000 0.0000 19.7264
#
#
#
# Elastic Compliance Matrix: (Units=1/GPa)
#
#
# Indices 1 2 3 4 5 6 
#
# 1 0.036191 -0.027218 0.010343 0.000000 0.000000 0.000000
# 2 -0.027218 0.043724 -0.022285 0.000000 0.000000 0.000000
# 3 0.010343 -0.022285 0.023668 0.000000 0.000000 0.000000
# 4 0.000000 0.000000 0.000000 0.027191 0.000000 0.000000
# 5 0.000000 0.000000 0.000000 0.000000 0.043552 0.000000
# 6 0.000000 0.000000 0.000000 0.000000 0.000000 0.050694
#
#
# Mechanical properties :
#
#
# Convention : Reuss Voigt Hill
#
# Bulk Modulus (GPa) = 39.58458 48.85350 44.21904
# Shear Modulus (GPa) = 16.03798 22.93227 19.48512
#
# Velocity S-wave (km/s) = 2.83176 3.38614 3.12128
# Velocity P-wave (km/s) = 5.52121 6.30192 5.92444
#
# Compressibility (1/GPa) = 0.02526236
#
# Stress axis : x y z
#
# Youngs Moduli (GPa) = 27.63110 22.87092 42.25189
#
# Poissons Ratio (x) = 0.62251 -0.43702
# Poissons Ratio (y) = 0.75207 0.94157
# Poissons Ratio (z) = -0.28579 0.50967
#
# Static dielectric constant tensor:
#      x y z
#    x 1.677450 0.000000 0.000000 
#    y 0.000000 1.775830 0.000000 
#    z 0.000000 0.000000 1.738580 
# 
# From -- ./inp_files/69546.got.cif
#   From: 2010.05.17/outbox.cif.g08.bks.cpg/sg66_35_cif.got.tgz:69546.got - 2010.06.03 17:51:23.
