data_PCOD9499560
_publ_section_title
;
Structure prediction by ZEFSAII (Michael W. Deem and Ramdas Pophale) SiO2 
 PCOD9499560
Probable space group: C C C M
;
_chemical_formula_sum "Si O2"
_cell_formula_units_Z 64
_cell_length_a 6.846507
_cell_length_b 27.508123
_cell_length_c 15.361122
_cell_angle_alpha 90.000000
_cell_angle_beta 90.000000
_cell_angle_gamma 90.000000
_cell_volume 2893.030102
_symmetry_space_group_name_H-M "C C C M"
_symmetry_group_IT_number 66
_symmetry_cell_setting 'orthorhombic'
loop_
_space_group_symop_operation_xyz
x,y,z
-x,-y,z
x,-y,1/2-z
-x,y,1/2-z
-x,-y,-z
x,y,-z
-x,y,1/2+z
x,-y,1/2+z
1/2+x,1/2+y,z
1/2-x,1/2-y,z
1/2+x,1/2-y,1/2-z
1/2-x,1/2+y,1/2-z
1/2-x,1/2-y,-z
1/2+x,1/2+y,-z
1/2-x,1/2+y,1/2+z
1/2+x,1/2-y,1/2+z
loop_
_atom_site_type_symbol
_atom_site_label
_atom_site_fract_x
_atom_site_fract_y
_atom_site_fract_z
Si Si1 0.967016 0.891807 0.106073
Si Si2 0.855789 0.461045 0.402435
Si Si3 0.820165 0.302293 0.395397
Si Si4 0.597159 0.876937 0.341459
O O1 0.847478 0.940169 0.133723
O O2 0.836552 0.844324 0.126908
O O3 0.175230 0.885916 0.150349
O O4 0.988375 0.893529 0.000000
O O5 0.811754 0.479945 0.500000
O O6 0.000000 0.500000 0.358660
O O7 0.987718 0.412668 0.407819
O O8 0.832444 0.299872 0.500000
O O9 0.750000 0.250000 0.362814
O O10 0.027092 0.322220 0.361238
O O11 0.500000 0.890514 0.250000
#
# Coordination Sequence:
#
# PCOD9499560 Si02
#       4
#    16  16  16  16
#     4   9  18  35  60  84 111 150 194 241 292 349
#     4   9  19  36  58  84 113 148 196 245 285 343
#     4   9  19  37  57  79 107 144 197 251 291 343
#     4  11  22  35  52  82 118 155 188 241 299 361
#
# _framework density 22.122133000000002
#
# number of rings (size 3 to 8) (size 9 to 14) (size 15 to 20)
#    0.000    2.500    0.000    3.750    0.000    6.500 
#    4.500    7.500    0.000    6.000    0.000    0.000 
#    0.000    0.000    0.000    0.000    0.000    1.250 
#
# Total GULP energy -178476.229225 kJ/mol
# GULP energy per Si atom -5577.382163 kJ/mol
# Density = 2.207178 g / cm^3
# Si number density = 22.122133 Si / 1000 Ang^3
#
#
#
# Elastic Constant Matrix: (Units=GPa)
#
#
# Indices 1 2 3 4 5 6 
#
# 1 208.7414 71.5648 31.1318 0.0000 0.0000 0.0000
# 2 71.5648 116.9894 13.2023 0.0000 0.0000 0.0000
# 3 31.1318 13.2023 61.4917 0.0000 0.0000 0.0000
# 4 0.0000 0.0000 0.0000 -70.4127 0.0000 0.0000
# 5 0.0000 0.0000 0.0000 0.0000 18.4632 0.0000
# 6 0.0000 0.0000 0.0000 0.0000 0.0000 46.1540
#
#
#
# Elastic Compliance Matrix: (Units=1/GPa)
#
#
# Indices 1 2 3 4 5 6 
#
# 1 0.006406 -0.003641 -0.002461 0.000000 0.000000 0.000000
# 2 -0.003641 0.010829 -0.000482 0.000000 0.000000 0.000000
# 3 -0.002461 -0.000482 0.017612 0.000000 0.000000 0.000000
# 4 0.000000 0.000000 0.000000 -0.014202 0.000000 0.000000
# 5 0.000000 0.000000 0.000000 0.000000 0.054162 0.000000
# 6 0.000000 0.000000 0.000000 0.000000 0.000000 0.021667
#
#
# Mechanical properties :
#
#
# Convention : Reuss Voigt Hill
#
# Bulk Modulus (GPa) = 46.12759 68.78005 57.45382
# Shear Modulus (GPa) = 42.78324 16.92915 29.85620
#
# Velocity S-wave (km/s) = 4.40245 2.76933 3.67769
# Velocity P-wave (km/s) = 6.83657 6.43305 6.63788
#
# Compressibility (1/GPa) = 0.02167900
#
# Stress axis : x y z
#
# Youngs Moduli (GPa) = 156.10460 92.34168 56.77953
#
# Poissons Ratio (x) = 0.33620 0.13976
# Poissons Ratio (y) = 0.56836 0.02736
# Poissons Ratio (z) = 0.38425 0.04449
#
# Static dielectric constant tensor:
#      x y z
#    x 1.824840 0.000000 0.000000 
#    y 0.000000 1.841990 0.000000 
#    z 0.000000 0.000000 1.874630 
# 
# From -- ./inp_files/35033.got.cif
#   From: 2010.05.17/outbox.cif.g08.bks.cpg/sg66_18_cif.got.tgz:35033.got - 2010.06.03 17:51:23.
