data_PCOD9499038
_publ_section_title
;
Structure prediction by ZEFSAII (Michael W. Deem and Ramdas Pophale) SiO2 
 PCOD9499038
Probable space group: C C C M
;
_chemical_formula_sum "Si O2"
_cell_formula_units_Z 96
_cell_length_a 19.510693
_cell_length_b 15.499470
_cell_length_c 15.410562
_cell_angle_alpha 90.000000
_cell_angle_beta 90.000000
_cell_angle_gamma 90.000000
_cell_volume 4660.237179
_symmetry_space_group_name_H-M "C C C M"
_symmetry_group_IT_number 66
_symmetry_cell_setting 'orthorhombic'
loop_
_space_group_symop_operation_xyz
x,y,z
-x,-y,z
x,-y,1/2-z
-x,y,1/2-z
-x,-y,-z
x,y,-z
-x,y,1/2+z
x,-y,1/2+z
1/2+x,1/2+y,z
1/2-x,1/2-y,z
1/2+x,1/2-y,1/2-z
1/2-x,1/2+y,1/2-z
1/2-x,1/2-y,-z
1/2+x,1/2+y,-z
1/2-x,1/2+y,1/2+z
1/2+x,1/2-y,1/2+z
loop_
_atom_site_type_symbol
_atom_site_label
_atom_site_fract_x
_atom_site_fract_y
_atom_site_fract_z
Si Si1 0.305280 0.054232 0.175865
Si Si2 0.825413 0.132578 0.400270
Si Si3 0.066295 0.754885 0.900182
Si Si4 0.674721 0.236513 0.245088
Si Si5 0.065691 0.449741 0.603316
Si Si6 0.473130 0.410477 0.849481
O O1 0.247075 0.084015 0.109396
O O2 0.335791 0.138266 0.224468
O O3 0.266975 0.000000 0.250000
O O4 0.365551 0.993717 0.140094
O O5 0.836515 0.156264 0.500000
O O6 0.823159 0.212409 0.335046
O O7 0.891993 0.083793 0.364010
O O8 0.120542 0.772812 0.823515
O O9 0.053141 0.652662 0.885723
O O10 0.003565 0.821781 0.889438
O O11 0.091615 0.763496 0.000000
O O12 0.750000 0.250000 0.204866
O O13 0.069399 0.463856 0.500000
O O14 0.000000 0.500000 0.638974
O O15 0.500000 0.500000 0.888863
O O16 0.500000 0.408279 0.750000
#
# Coordination Sequence:
#
# PCOD9499038 Si02
#       6
#    16  16  16  16  16  16
#     4  11  23  41  67  97 139 177 225 276 342 411
#     4  11  25  44  70  97 131 178 228 284 341 401
#     4  11  23  43  67  98 136 174 224 280 340 410
#     4  10  23  42  64  97 133 176 224 275 339 410
#     4  10  23  41  66 100 135 175 223 279 341 411
#     4  11  25  44  70  96 129 176 227 287 343 408
#
# _framework density 20.599810000000002
#
# number of rings (size 3 to 8) (size 9 to 14) (size 15 to 20)
#    0.000    1.333    3.333    1.000    4.667    5.667 
#    0.000    0.000    0.000    0.000    0.000    0.000 
#    0.000    0.000    0.000    0.000    0.000    0.000 
#
# Total GULP energy -267666.511599 kJ/mol
# GULP energy per Si atom -5576.385658 kJ/mol
# Density = 2.055292 g / cm^3
# Si number density = 20.599810 Si / 1000 Ang^3
#
#
#
# Elastic Constant Matrix: (Units=GPa)
#
#
# Indices 1 2 3 4 5 6 
#
# 1 112.1323 47.4364 32.5289 0.0000 0.0000 0.0000
# 2 47.4364 118.0538 21.9470 0.0000 0.0000 0.0000
# 3 32.5289 21.9470 101.5884 0.0000 0.0000 0.0000
# 4 0.0000 0.0000 0.0000 11.9552 0.0000 0.0000
# 5 0.0000 0.0000 0.0000 0.0000 30.9688 0.0000
# 6 0.0000 0.0000 0.0000 0.0000 0.0000 17.7757
#
#
#
# Elastic Compliance Matrix: (Units=1/GPa)
#
#
# Indices 1 2 3 4 5 6 
#
# 1 0.011454 -0.004085 -0.002785 0.000000 0.000000 0.000000
# 2 -0.004085 0.010282 -0.000913 0.000000 0.000000 0.000000
# 3 -0.002785 -0.000913 0.010933 0.000000 0.000000 0.000000
# 4 0.000000 0.000000 0.000000 0.083646 0.000000 0.000000
# 5 0.000000 0.000000 0.000000 0.000000 0.032291 0.000000
# 6 0.000000 0.000000 0.000000 0.000000 0.000000 0.056257
#
#
# Mechanical properties :
#
#
# Convention : Reuss Voigt Hill
#
# Bulk Modulus (GPa) = 58.47187 59.51102 58.99144
# Shear Modulus (GPa) = 22.11130 27.46408 24.78769
#
# Velocity S-wave (km/s) = 3.27979 3.65529 3.47262
# Velocity P-wave (km/s) = 6.54133 6.83862 6.69162
#
# Compressibility (1/GPa) = 0.01710224
#
# Stress axis : x y z
#
# Youngs Moduli (GPa) = 87.30606 97.25919 91.46805
#
# Poissons Ratio (x) = 0.39727 0.25475
# Poissons Ratio (y) = 0.35661 0.08354
# Poissons Ratio (z) = 0.24316 0.08883
#
# Static dielectric constant tensor:
#      x y z
#    x 1.777520 0.000000 0.000000 
#    y 0.000000 1.816740 0.000000 
#    z 0.000000 0.000000 1.739180 
# 
# From -- ./inp_files/31184.got.cif
#   From: 2010.05.17/outbox.cif.g08.bks.cpg/sg66_16_cif.got.tgz:31184.got - 2010.06.03 17:51:23.
