data_PCOD9499348
_publ_section_title
;
Structure prediction by ZEFSAII (Michael W. Deem and Ramdas Pophale) SiO2 
 PCOD9499348
Probable space group: C C C M
;
_chemical_formula_sum "Si O2"
_cell_formula_units_Z 96
_cell_length_a 18.464719
_cell_length_b 8.837826
_cell_length_c 27.306369
_cell_angle_alpha 90.000000
_cell_angle_beta 90.000000
_cell_angle_gamma 90.000000
_cell_volume 4456.071025
_symmetry_space_group_name_H-M "C C C M"
_symmetry_group_IT_number 66
_symmetry_cell_setting 'orthorhombic'
loop_
_space_group_symop_operation_xyz
x,y,z
-x,-y,z
x,-y,1/2-z
-x,y,1/2-z
-x,-y,-z
x,y,-z
-x,y,1/2+z
x,-y,1/2+z
1/2+x,1/2+y,z
1/2-x,1/2-y,z
1/2+x,1/2-y,1/2-z
1/2-x,1/2+y,1/2-z
1/2-x,1/2-y,-z
1/2+x,1/2+y,-z
1/2-x,1/2+y,1/2+z
1/2+x,1/2-y,1/2+z
loop_
_atom_site_type_symbol
_atom_site_label
_atom_site_fract_x
_atom_site_fract_y
_atom_site_fract_z
Si Si1 0.922483 0.917584 0.445599
Si Si2 0.155418 0.879984 0.634703
Si Si3 0.447636 0.137431 0.615257
Si Si4 0.677616 0.151454 0.551909
Si Si5 0.472609 0.671509 0.302166
Si Si6 0.786306 0.415689 0.879179
O O1 0.890012 0.938401 0.500000
O O2 0.932948 0.743578 0.431408
O O3 0.878872 0.991329 0.400714
O O4 0.000000 0.000000 0.445770
O O5 0.144913 0.733615 0.599370
O O6 0.111932 0.843409 0.683956
O O7 0.234695 0.953190 0.644141
O O8 0.489937 0.235331 0.655128
O O9 0.369452 0.094397 0.638171
O O10 0.500000 0.000000 0.602078
O O11 0.637481 0.159376 0.500000
O O12 0.750000 0.250000 0.547131
O O13 0.701694 0.983088 0.566073
O O14 0.500000 0.500000 0.305046
O O15 0.500000 0.731714 0.250000
O O16 0.750000 0.250000 0.876815
#
# Coordination Sequence:
#
# PCOD9499348 Si02
#       6
#    16  16  16  16  16  16
#     4  11  22  38  64  94 129 179 227 266 318 398
#     4  11  19  42  65  95 127 167 222 279 327 387
#     4  12  24  43  63  96 138 174 212 274 340 402
#     4   9  20  35  56  88 127 175 220 258 316 388
#     4  11  22  42  73  94 117 167 226 271 329 410
#     4  11  22  37  64  93 134 175 212 277 331 387
#
# _framework density 21.543641000000001
#
# number of rings (size 3 to 8) (size 9 to 14) (size 15 to 20)
#    0.000    1.167    5.000    1.500    0.000    2.333 
#    0.000    0.000    0.000   29.000    0.000    0.000 
#    0.000    0.000    0.000    0.000    0.000    0.000 
#
# Total GULP energy -267578.861569 kJ/mol
# GULP energy per Si atom -5574.559616 kJ/mol
# Density = 2.149461 g / cm^3
# Si number density = 21.543641 Si / 1000 Ang^3
#
#
#
# Elastic Constant Matrix: (Units=GPa)
#
#
# Indices 1 2 3 4 5 6 
#
# 1 118.9585 25.8725 17.1778 0.0000 0.0000 0.0000
# 2 25.8725 75.1776 9.8103 0.0000 0.0000 0.0000
# 3 17.1778 9.8103 65.5345 0.0000 0.0000 0.0000
# 4 0.0000 0.0000 0.0000 22.8792 0.0000 0.0000
# 5 0.0000 0.0000 0.0000 0.0000 17.5781 0.0000
# 6 0.0000 0.0000 0.0000 0.0000 0.0000 44.1057
#
#
#
# Elastic Compliance Matrix: (Units=1/GPa)
#
#
# Indices 1 2 3 4 5 6 
#
# 1 0.009338 -0.002952 -0.002006 0.000000 0.000000 0.000000
# 2 -0.002952 0.014500 -0.001397 0.000000 0.000000 0.000000
# 3 -0.002006 -0.001397 0.015994 0.000000 0.000000 0.000000
# 4 0.000000 0.000000 0.000000 0.043708 0.000000 0.000000
# 5 0.000000 0.000000 0.000000 0.000000 0.056889 0.000000
# 6 0.000000 0.000000 0.000000 0.000000 0.000000 0.022673
#
#
# Mechanical properties :
#
#
# Convention : Reuss Voigt Hill
#
# Bulk Modulus (GPa) = 36.86922 40.59908 38.73415
# Shear Modulus (GPa) = 27.04871 30.69993 28.87432
#
# Velocity S-wave (km/s) = 3.54719 3.77903 3.66494
# Velocity P-wave (km/s) = 5.82474 6.15852 5.99395
#
# Compressibility (1/GPa) = 0.02712290
#
# Stress axis : x y z
#
# Youngs Moduli (GPa) = 107.08995 68.96534 62.52349
#
# Poissons Ratio (x) = 0.20358 0.12541
# Poissons Ratio (y) = 0.31612 0.08734
# Poissons Ratio (z) = 0.21480 0.09633
#
# Static dielectric constant tensor:
#      x y z
#    x 1.866390 0.000000 0.000000 
#    y 0.000000 1.838120 0.000000 
#    z 0.000000 0.000000 1.830990 
# 
# From -- ./inp_files/65650.got.cif
#   From: 2010.05.17/outbox.cif.g08.bks.cpg/sg66_33_cif.got.tgz:65650.got - 2010.06.03 17:51:23.
