data_PCOD9499571
_publ_section_title
;
Structure prediction by ZEFSAII (Michael W. Deem and Ramdas Pophale) SiO2 
 PCOD9499571
Probable space group: C C C M
;
_chemical_formula_sum "Si O2"
_cell_formula_units_Z 112
_cell_length_a 25.481813
_cell_length_b 16.118340
_cell_length_c 15.903138
_cell_angle_alpha 90.000000
_cell_angle_beta 90.000000
_cell_angle_gamma 90.000000
_cell_volume 6531.808813
_symmetry_space_group_name_H-M "C C C M"
_symmetry_group_IT_number 66
_symmetry_cell_setting 'orthorhombic'
loop_
_space_group_symop_operation_xyz
x,y,z
-x,-y,z
x,-y,1/2-z
-x,y,1/2-z
-x,-y,-z
x,y,-z
-x,y,1/2+z
x,-y,1/2+z
1/2+x,1/2+y,z
1/2-x,1/2-y,z
1/2+x,1/2-y,1/2-z
1/2-x,1/2+y,1/2-z
1/2-x,1/2-y,-z
1/2+x,1/2+y,-z
1/2-x,1/2+y,1/2+z
1/2+x,1/2-y,1/2+z
loop_
_atom_site_type_symbol
_atom_site_label
_atom_site_fract_x
_atom_site_fract_y
_atom_site_fract_z
Si Si1 0.198353 0.802362 0.100544
Si Si2 0.790236 0.884513 0.000000
Si Si3 0.174179 0.699815 0.500000
Si Si4 0.882860 0.678328 0.658584
Si Si5 0.833224 0.481437 0.099252
Si Si6 0.105650 0.369232 0.151187
Si Si7 0.008086 0.403170 0.601207
Si Si8 0.282704 0.492320 0.652743
O O1 0.250000 0.750000 0.130473
O O2 0.143698 0.765959 0.136874
O O3 0.205420 0.898791 0.123247
O O4 0.196582 0.794559 0.000000
O O5 0.801312 0.940639 0.917172
O O6 0.821247 0.798690 0.000000
O O7 0.730252 0.847920 0.000000
O O8 0.141993 0.672930 0.418296
O O9 0.844927 0.614469 0.610459
O O10 0.879785 0.661826 0.757376
O O11 0.941121 0.648074 0.631946
O O12 0.880287 0.533660 0.139362
O O13 0.780188 0.503727 0.146506
O O14 0.829463 0.498698 0.000000
O O15 0.044698 0.358073 0.131362
O O16 0.010518 0.405397 0.500000
O O17 0.000000 0.500000 0.629072
O O18 0.299600 0.500000 0.750000
#
# Coordination Sequence:
#
# PCOD9499571 Si02
#       8
#    16   8   8  16  16  16  16  16
#     4  11  23  39  58  84 121 161 196 238 293 349
#     4  11  24  42  61  85 119 157 201 246 293 357
#     4  11  24  40  61  81 119 157 195 242 301 347
#     4  12  25  34  57  87 119 153 205 242 281 347
#     4  12  20  36  53  81 121 161 195 234 291 348
#     4  12  22  39  56  84 117 158 195 244 292 345
#     4  11  22  37  58  83 118 161 195 232 292 353
#     4  12  23  39  60  85 117 160 200 243 297 350
#
# _framework density 17.146858999999999
#
# number of rings (size 3 to 8) (size 9 to 14) (size 15 to 20)
#    0.000    0.429    7.143    3.000    2.000    0.571 
#    0.000    0.000    0.000    0.000    0.000    2.000 
#    0.000    0.000    0.000    0.000    0.000    0.000 
#
# Total GULP energy -312529.085225 kJ/mol
# GULP energy per Si atom -5580.876522 kJ/mol
# Density = 1.710783 g / cm^3
# Si number density = 17.146859 Si / 1000 Ang^3
#
#
#
# Elastic Constant Matrix: (Units=GPa)
#
#
# Indices 1 2 3 4 5 6 
#
# 1 62.6022 26.2019 18.2351 0.0000 0.0000 0.0000
# 2 26.2019 99.8502 34.9226 0.0000 0.0000 0.0000
# 3 18.2351 34.9226 119.3921 0.0000 0.0000 0.0000
# 4 0.0000 0.0000 0.0000 21.5431 0.0000 0.0000
# 5 0.0000 0.0000 0.0000 0.0000 9.9272 0.0000
# 6 0.0000 0.0000 0.0000 0.0000 0.0000 24.5703
#
#
#
# Elastic Compliance Matrix: (Units=1/GPa)
#
#
# Indices 1 2 3 4 5 6 
#
# 1 0.018195 -0.004236 -0.001540 0.000000 0.000000 0.000000
# 2 -0.004236 0.012143 -0.002905 0.000000 0.000000 0.000000
# 3 -0.001540 -0.002905 0.009461 0.000000 0.000000 0.000000
# 4 0.000000 0.000000 0.000000 0.046418 0.000000 0.000000
# 5 0.000000 0.000000 0.000000 0.000000 0.100733 0.000000
# 6 0.000000 0.000000 0.000000 0.000000 0.000000 0.040699
#
#
# Mechanical properties :
#
#
# Convention : Reuss Voigt Hill
#
# Bulk Modulus (GPa) = 44.56929 48.95153 46.76041
# Shear Modulus (GPa) = 19.80274 24.70713 22.25494
#
# Velocity S-wave (km/s) = 3.40205 3.80005 3.60655
# Velocity P-wave (km/s) = 6.44058 6.91840 6.68376
#
# Compressibility (1/GPa) = 0.02243697
#
# Stress axis : x y z
#
# Youngs Moduli (GPa) = 54.95881 82.35504 105.70136
#
# Poissons Ratio (x) = 0.34886 0.16278
# Poissons Ratio (y) = 0.23281 0.30704
# Poissons Ratio (z) = 0.08463 0.23922
#
# Static dielectric constant tensor:
#      x y z
#    x 1.587270 0.000000 0.000000 
#    y 0.000000 1.590160 0.000000 
#    z 0.000000 0.000000 1.583870 
# 
# From -- ./inp_files/33364.got.cif
#   From: 2010.05.17/outbox.cif.g08.bks.cpg/sg66_17_cif.got.tgz:33364.got - 2010.06.03 17:51:23.
