data_PCOD9499372
_publ_section_title
;
Structure prediction by ZEFSAII (Michael W. Deem and Ramdas Pophale) SiO2 
 PCOD9499372
Probable space group: C C C M
;
_chemical_formula_sum "Si O2"
_cell_formula_units_Z 64
_cell_length_a 7.442062
_cell_length_b 22.941666
_cell_length_c 15.276463
_cell_angle_alpha 90.000000
_cell_angle_beta 90.000000
_cell_angle_gamma 90.000000
_cell_volume 2608.200952
_symmetry_space_group_name_H-M "C C C M"
_symmetry_group_IT_number 66
_symmetry_cell_setting 'orthorhombic'
loop_
_space_group_symop_operation_xyz
x,y,z
-x,-y,z
x,-y,1/2-z
-x,y,1/2-z
-x,-y,-z
x,y,-z
-x,y,1/2+z
x,-y,1/2+z
1/2+x,1/2+y,z
1/2-x,1/2-y,z
1/2+x,1/2-y,1/2-z
1/2-x,1/2+y,1/2-z
1/2-x,1/2-y,-z
1/2+x,1/2+y,-z
1/2-x,1/2+y,1/2+z
1/2+x,1/2-y,1/2+z
loop_
_atom_site_type_symbol
_atom_site_label
_atom_site_fract_x
_atom_site_fract_y
_atom_site_fract_z
Si Si1 0.154947 0.353179 0.000000
Si Si2 0.294304 0.430373 0.655241
Si Si3 0.154419 0.806002 0.818848
Si Si4 0.508460 0.264141 0.500000
Si Si5 0.280622 0.444043 0.863355
O O1 0.315022 0.305460 0.000000
O O2 0.998934 0.306214 0.000000
O O3 0.175848 0.395340 0.916859
O O4 0.236772 0.363249 0.650506
O O5 0.265890 0.439922 0.759008
O O6 0.222942 0.489901 0.611999
O O7 0.504423 0.433051 0.624430
O O8 0.250000 0.750000 0.775593
O O9 0.000000 0.825350 0.750000
O O10 0.074973 0.781705 0.908048
#
# Coordination Sequence:
#
# PCOD9499372 Si02
#       5
#     8  16  16   8  16
#     4  11  20  34  62  89 125 156 210 241 316 355
#     4   9  17  33  54  85 121 147 199 255 314 341
#     4  12  25  41  64  90 126 167 209 253 316 367
#     4  11  25  39  55  92 135 164 202 257 297 383
#     4   9  17  31  55  87 117 152 191 267 299 356
#
# _framework density 24.537986
#
# number of rings (size 3 to 8) (size 9 to 14) (size 15 to 20)
#    0.000    1.750    5.000    1.875    7.000    3.000 
#    0.000    0.000    0.000    3.000    0.000    0.000 
#    0.000    0.000    0.000    0.000    0.000    0.000 
#
# Total GULP energy -178374.349379 kJ/mol
# GULP energy per Si atom -5574.198418 kJ/mol
# Density = 2.448214 g / cm^3
# Si number density = 24.537986 Si / 1000 Ang^3
#
#
#
# Elastic Constant Matrix: (Units=GPa)
#
#
# Indices 1 2 3 4 5 6 
#
# 1 23.1399 26.1257 21.3854 0.0000 0.0000 0.0000
# 2 26.1257 285.5418 44.8660 0.0000 0.0000 0.0000
# 3 21.3854 44.8660 96.3254 0.0000 0.0000 0.0000
# 4 0.0000 0.0000 0.0000 74.7860 0.0000 0.0000
# 5 0.0000 0.0000 0.0000 0.0000 44.3613 0.0000
# 6 0.0000 0.0000 0.0000 0.0000 0.0000 21.0383
#
#
#
# Elastic Compliance Matrix: (Units=1/GPa)
#
#
# Indices 1 2 3 4 5 6 
#
# 1 0.057456 -0.003509 -0.011121 0.000000 0.000000 0.000000
# 2 -0.003509 0.003993 -0.001081 0.000000 0.000000 0.000000
# 3 -0.011121 -0.001081 0.013354 0.000000 0.000000 0.000000
# 4 0.000000 0.000000 0.000000 0.013371 0.000000 0.000000
# 5 0.000000 0.000000 0.000000 0.000000 0.022542 0.000000
# 6 0.000000 0.000000 0.000000 0.000000 0.000000 0.047532
#
#
# Mechanical properties :
#
#
# Convention : Reuss Voigt Hill
#
# Bulk Modulus (GPa) = 23.05222 65.52903 44.29063
# Shear Modulus (GPa) = 24.49402 48.87913 36.68657
#
# Velocity S-wave (km/s) = 3.16287 4.46800 3.87084
# Velocity P-wave (km/s) = 4.77004 7.30619 6.16983
#
# Compressibility (1/GPa) = 0.04337977
#
# Stress axis : x y z
#
# Youngs Moduli (GPa) = 17.40470 250.43695 74.88448
#
# Poissons Ratio (x) = 0.87890 0.83281
# Poissons Ratio (y) = 0.06108 0.08093
# Poissons Ratio (z) = 0.19356 0.27065
#
# Static dielectric constant tensor:
#      x y z
#    x 2.481470 0.000000 0.000000 
#    y 0.000000 2.008140 0.000000 
#    z 0.000000 0.000000 1.854000 
# 
# From -- ./inp_files/36360.got.cif
#   From: 2010.05.17/outbox.cif.g08.bks.cpg/sg66_19_cif.got.tgz:36360.got - 2010.06.03 17:51:23.
