data_PCOD9499566
_publ_section_title
;
Structure prediction by ZEFSAII (Michael W. Deem and Ramdas Pophale) SiO2 
 PCOD9499566
Probable space group: C C C M
;
_chemical_formula_sum "Si O2"
_cell_formula_units_Z 88
_cell_length_a 24.892722
_cell_length_b 14.602726
_cell_length_c 12.596764
_cell_angle_alpha 90.000000
_cell_angle_beta 90.000000
_cell_angle_gamma 90.000000
_cell_volume 4578.943853
_symmetry_space_group_name_H-M "C C C M"
_symmetry_group_IT_number 66
_symmetry_cell_setting 'orthorhombic'
loop_
_space_group_symop_operation_xyz
x,y,z
-x,-y,z
x,-y,1/2-z
-x,y,1/2-z
-x,-y,-z
x,y,-z
-x,y,1/2+z
x,-y,1/2+z
1/2+x,1/2+y,z
1/2-x,1/2-y,z
1/2+x,1/2-y,1/2-z
1/2-x,1/2+y,1/2-z
1/2-x,1/2-y,-z
1/2+x,1/2+y,-z
1/2-x,1/2+y,1/2+z
1/2+x,1/2-y,1/2+z
loop_
_atom_site_type_symbol
_atom_site_label
_atom_site_fract_x
_atom_site_fract_y
_atom_site_fract_z
Si Si1 0.137236 0.227189 0.873446
Si Si2 0.937462 0.893196 0.725762
Si Si3 0.334002 0.168239 0.500000
Si Si4 0.376144 0.371686 0.500000
Si Si5 0.773828 0.913704 0.194216
Si Si6 0.762355 0.034083 0.000000
Si Si7 0.340448 0.894304 0.228277
O O1 0.093659 0.167492 0.811416
O O2 0.191197 0.170231 0.844637
O O3 0.138180 0.326069 0.818199
O O4 0.130761 0.230820 0.000000
O O5 0.912790 0.877115 0.606868
O O6 0.000000 0.873638 0.750000
O O7 0.929906 0.000000 0.750000
O O8 0.343358 0.276384 0.500000
O O9 0.273999 0.124641 0.500000
O O10 0.358816 0.133008 0.389409
O O11 0.326632 0.445143 0.500000
O O12 0.724485 0.881297 0.265590
O O13 0.804361 0.000000 0.250000
O O14 0.748202 0.967677 0.096669
O O15 0.352508 0.000000 0.250000
#
# Coordination Sequence:
#
# PCOD9499566 Si02
#       7
#    16  16   8   8  16   8  16
#     4  12  25  40  64  93 129 169 222 270 327 392
#     4  11  27  46  70  99 131 168 213 275 346 399
#     4  12  23  42  60  94 137 179 223 264 312 393
#     4  12  25  43  70  97 133 180 231 270 324 402
#     4  11  22  36  58  92 133 173 213 256 318 386
#     4  12  21  36  61  94 139 181 215 264 316 392
#     4  11  25  40  61  89 132 179 222 265 322 382
#
# _framework density 19.218406000000002
#
# number of rings (size 3 to 8) (size 9 to 14) (size 15 to 20)
#    0.000    0.545    6.364    3.545    5.091    2.909 
#    0.000    0.000    0.000    0.545    0.000    2.545 
#    0.000    0.000    0.000    0.000    0.000    0.000 
#
# Total GULP energy -245433.913695 kJ/mol
# GULP energy per Si atom -5578.043493 kJ/mol
# Density = 1.917466 g / cm^3
# Si number density = 19.218406 Si / 1000 Ang^3
#
#
#
# Elastic Constant Matrix: (Units=GPa)
#
#
# Indices 1 2 3 4 5 6 
#
# 1 50.9711 29.7458 16.6562 0.0000 0.0000 0.0000
# 2 29.7458 133.2537 62.5293 0.0000 0.0000 0.0000
# 3 16.6562 62.5293 172.9620 0.0000 0.0000 0.0000
# 4 0.0000 0.0000 0.0000 24.1701 0.0000 0.0000
# 5 0.0000 0.0000 0.0000 0.0000 15.8034 0.0000
# 6 0.0000 0.0000 0.0000 0.0000 0.0000 22.3468
#
#
#
# Elastic Compliance Matrix: (Units=1/GPa)
#
#
# Indices 1 2 3 4 5 6 
#
# 1 0.022583 -0.004842 -0.000424 0.000000 0.000000 0.000000
# 2 -0.004842 0.010076 -0.003176 0.000000 0.000000 0.000000
# 3 -0.000424 -0.003176 0.006971 0.000000 0.000000 0.000000
# 4 0.000000 0.000000 0.000000 0.041373 0.000000 0.000000
# 5 0.000000 0.000000 0.000000 0.000000 0.063277 0.000000
# 6 0.000000 0.000000 0.000000 0.000000 0.000000 0.044749
#
#
# Mechanical properties :
#
#
# Convention : Reuss Voigt Hill
#
# Bulk Modulus (GPa) = 43.96648 63.89437 53.93043
# Shear Modulus (GPa) = 23.41955 29.01444 26.21700
#
# Velocity S-wave (km/s) = 3.49463 3.88973 3.69746
# Velocity P-wave (km/s) = 6.26181 7.31382 6.80816
#
# Compressibility (1/GPa) = 0.02274460
#
# Stress axis : x y z
#
# Youngs Moduli (GPa) = 44.28035 99.24702 143.45592
#
# Poissons Ratio (x) = 0.48057 0.06086
# Poissons Ratio (y) = 0.21441 0.45566
# Poissons Ratio (z) = 0.01879 0.31524
#
# Static dielectric constant tensor:
#      x y z
#    x 1.691510 0.000000 0.000000 
#    y 0.000000 1.668660 0.000000 
#    z 0.000000 0.000000 1.742700 
# 
# From -- ./inp_files/19743.got.cif
#   From: 2010.05.17/outbox.cif.g08.bks.cpg/sg66_10_cif.got.tgz:19743.got - 2010.06.03 17:51:23.
