data_PCOD9499862
_publ_section_title
;
Structure prediction by ZEFSAII (Michael W. Deem and Ramdas Pophale) SiO2 
 PCOD9499862
Probable space group: C C C M
;
_chemical_formula_sum "Si O2"
_cell_formula_units_Z 64
_cell_length_a 22.598589
_cell_length_b 4.909476
_cell_length_c 25.996040
_cell_angle_alpha 90.000000
_cell_angle_beta 90.000000
_cell_angle_gamma 90.000000
_cell_volume 2884.188638
_symmetry_space_group_name_H-M "C C C M"
_symmetry_group_IT_number 66
_symmetry_cell_setting 'orthorhombic'
loop_
_space_group_symop_operation_xyz
x,y,z
-x,-y,z
x,-y,1/2-z
-x,y,1/2-z
-x,-y,-z
x,y,-z
-x,y,1/2+z
x,-y,1/2+z
1/2+x,1/2+y,z
1/2-x,1/2-y,z
1/2+x,1/2-y,1/2-z
1/2-x,1/2+y,1/2-z
1/2-x,1/2-y,-z
1/2+x,1/2+y,-z
1/2-x,1/2+y,1/2+z
1/2+x,1/2-y,1/2+z
loop_
_atom_site_type_symbol
_atom_site_label
_atom_site_fract_x
_atom_site_fract_y
_atom_site_fract_z
Si Si1 0.412682 0.000000 0.750000
Si Si2 0.500000 0.500000 0.408912
Si Si3 0.306796 0.021871 0.500000
Si Si4 0.557851 0.788607 0.500000
Si Si5 0.250000 0.250000 0.668719
Si Si6 0.750000 0.250000 0.408594
Si Si7 0.500000 0.000000 0.337668
Si Si8 0.839383 0.000000 0.750000
O O1 0.450843 0.891518 0.797858
O O2 0.377434 0.745240 0.727220
O O3 0.548885 0.613841 0.448194
O O4 0.480255 0.751255 0.373482
O O5 0.250000 0.250000 0.500000
O O6 0.374050 0.122798 0.500000
O O7 0.300245 0.830735 0.449858
O O8 0.500000 0.000000 0.500000
O O9 0.247176 0.500211 0.630141
O O10 0.198401 0.159945 0.707596
#
# Coordination Sequence:
#
# PCOD9499862 Si02
#       8
#     8   8   8   8   8   8   8   8
#     4  11  25  44  71 104 145 192 237 307 368 442
#     4  11  24  45  72 108 142 203 242 311 370 454
#     4  11  26  52  75 111 155 198 252 316 377 451
#     4  11  26  50  75 109 155 196 248 314 377 449
#     4  12  25  47  69 106 145 189 253 296 372 446
#     4  11  25  46  73 108 141 202 245 313 368 450
#     4  11  24  47  68 108 146 183 252 297 370 450
#     4  12  25  45  71 104 145 195 237 310 368 442
#
# _framework density 22.189948999999999
#
# number of rings (size 3 to 8) (size 9 to 14) (size 15 to 20)
#    0.000    0.750    2.500    4.500    0.000   12.000 
#    9.000    0.000    0.000    0.000    0.000    0.000 
#    0.000    0.000    0.000    0.000    0.000    0.000 
#
# Total GULP energy -178368.235895 kJ/mol
# GULP energy per Si atom -5574.007372 kJ/mol
# Density = 2.213944 g / cm^3
# Si number density = 22.189949 Si / 1000 Ang^3
#
#
#
# Elastic Constant Matrix: (Units=GPa)
#
#
# Indices 1 2 3 4 5 6 
#
# 1 120.4865 50.1611 45.7859 0.0000 0.0000 0.0000
# 2 50.1611 160.5001 60.1735 0.0000 0.0000 0.0000
# 3 45.7859 60.1735 155.9188 0.0000 0.0000 0.0000
# 4 0.0000 0.0000 0.0000 77.2257 0.0000 0.0000
# 5 0.0000 0.0000 0.0000 0.0000 -15.7242 0.0000
# 6 0.0000 0.0000 0.0000 0.0000 0.0000 31.5197
#
#
#
# Elastic Compliance Matrix: (Units=1/GPa)
#
#
# Indices 1 2 3 4 5 6 
#
# 1 0.010065 -0.002382 -0.002036 0.000000 0.000000 0.000000
# 2 -0.002382 0.007848 -0.002329 0.000000 0.000000 0.000000
# 3 -0.002036 -0.002329 0.007911 0.000000 0.000000 0.000000
# 4 0.000000 0.000000 0.000000 0.012949 0.000000 0.000000
# 5 0.000000 0.000000 0.000000 0.000000 -0.063596 0.000000
# 6 0.000000 0.000000 0.000000 0.000000 0.000000 0.031726
#
#
# Mechanical properties :
#
#
# Convention : Reuss Voigt Hill
#
# Bulk Modulus (GPa) = 81.11403 83.23848 82.17626
# Shear Modulus (GPa) = 204.01247 37.32324 120.66785
#
# Velocity S-wave (km/s) = 9.59889 4.10565 7.38225
# Velocity P-wave (km/s) = 12.62875 7.75038 10.47745
#
# Compressibility (1/GPa) = 0.01232832
#
# Stress axis : x y z
#
# Youngs Moduli (GPa) = 99.35130 127.41523 126.41393
#
# Poissons Ratio (x) = 0.30354 0.25742
# Poissons Ratio (y) = 0.23668 0.29446
# Poissons Ratio (z) = 0.20231 0.29679
#
# Static dielectric constant tensor:
#      x y z
#    x 1.905290 0.000000 0.000000 
#    y 0.000000 1.847300 0.000000 
#    z 0.000000 0.000000 0.714870 
# 
# From -- ./inp_files/61310.got.cif
#   From: 2010.05.17/outbox.cif.g08.bks.cpg/sg66_31_cif.got.tgz:61310.got - 2010.06.03 17:51:23.
