data_PCOD9499549
_publ_section_title
;
Structure prediction by ZEFSAII (Michael W. Deem and Ramdas Pophale) SiO2 
 PCOD9499549
Probable space group: C C C M
;
_chemical_formula_sum "Si O2"
_cell_formula_units_Z 80
_cell_length_a 4.977150
_cell_length_b 26.872529
_cell_length_c 24.703752
_cell_angle_alpha 90.000000
_cell_angle_beta 90.000000
_cell_angle_gamma 90.000000
_cell_volume 3304.092435
_symmetry_space_group_name_H-M "C C C M"
_symmetry_group_IT_number 66
_symmetry_cell_setting 'orthorhombic'
loop_
_space_group_symop_operation_xyz
x,y,z
-x,-y,z
x,-y,1/2-z
-x,y,1/2-z
-x,-y,-z
x,y,-z
-x,y,1/2+z
x,-y,1/2+z
1/2+x,1/2+y,z
1/2-x,1/2-y,z
1/2+x,1/2-y,1/2-z
1/2-x,1/2+y,1/2-z
1/2-x,1/2-y,-z
1/2+x,1/2+y,-z
1/2-x,1/2+y,1/2+z
1/2+x,1/2-y,1/2+z
loop_
_atom_site_type_symbol
_atom_site_label
_atom_site_fract_x
_atom_site_fract_y
_atom_site_fract_z
Si Si1 0.636474 0.143175 0.804528
Si Si2 0.191659 0.072829 0.558868
Si Si3 0.252113 0.033242 0.323166
Si Si4 0.995853 0.217094 0.372375
Si Si5 0.178624 0.366222 0.913042
O O1 0.500000 0.161707 0.750000
O O2 0.755432 0.087917 0.797453
O O3 0.858352 0.179881 0.829927
O O4 0.406237 0.134850 0.849943
O O5 0.211750 0.048679 0.500000
O O6 0.267089 0.041753 0.611606
O O7 0.396890 0.119978 0.559703
O O8 0.891012 0.092058 0.569936
O O9 0.500000 0.000000 0.307237
O O10 0.000000 0.000000 0.311235
O O11 0.250000 0.250000 0.391600
O O12 0.750000 0.250000 0.348644
O O13 0.842288 0.185080 0.418424
#
# Coordination Sequence:
#
# PCOD9499549 Si02
#       5
#    16  16  16  16  16
#     4  11  26  48  72 104 148 192 232 290 354 417
#     4  11  23  42  73 101 138 187 233 293 366 414
#     4  11  24  44  70 103 142 183 238 289 341 421
#     4  12  23  45  73 104 139 186 231 291 356 416
#     4  11  21  45  65 102 141 182 227 290 345 424
#
# _framework density 24.212399999999999
#
# number of rings (size 3 to 8) (size 9 to 14) (size 15 to 20)
#    0.000    0.800    6.000    3.000    0.000    2.000 
#    3.600    3.000    0.000   12.000    0.000    0.000 
#    0.000    0.000    0.000    0.000    0.000    0.000 
#
# Total GULP energy -223655.304765 kJ/mol
# GULP energy per Si atom -5591.382619 kJ/mol
# Density = 2.415729 g / cm^3
# Si number density = 24.212400 Si / 1000 Ang^3
#
#
#
# Elastic Constant Matrix: (Units=GPa)
#
#
# Indices 1 2 3 4 5 6 
#
# 1 175.7139 35.0718 10.2543 0.0000 0.0000 0.0000
# 2 35.0718 92.4155 -14.4897 0.0000 0.0000 0.0000
# 3 10.2543 -14.4897 115.2599 0.0000 0.0000 0.0000
# 4 0.0000 0.0000 0.0000 2.1632 0.0000 0.0000
# 5 0.0000 0.0000 0.0000 0.0000 -9.5022 0.0000
# 6 0.0000 0.0000 0.0000 0.0000 0.0000 43.9806
#
#
#
# Elastic Compliance Matrix: (Units=1/GPa)
#
#
# Indices 1 2 3 4 5 6 
#
# 1 0.006242 -0.002505 -0.000870 0.000000 0.000000 0.000000
# 2 -0.002505 0.012044 0.001737 0.000000 0.000000 0.000000
# 3 -0.000870 0.001737 0.008972 0.000000 0.000000 0.000000
# 4 0.000000 0.000000 0.000000 0.462281 0.000000 0.000000
# 5 0.000000 0.000000 0.000000 0.000000 -0.105239 0.000000
# 6 0.000000 0.000000 0.000000 0.000000 0.000000 0.022737
#
#
# Mechanical properties :
#
#
# Convention : Reuss Voigt Hill
#
# Bulk Modulus (GPa) = 41.70079 49.45133 45.57606
# Shear Modulus (GPa) = 11.95292 30.83185 21.39238
#
# Velocity S-wave (km/s) = 2.22428 3.57233 2.97565
# Velocity P-wave (km/s) = 4.88435 6.12239 5.53808
#
# Compressibility (1/GPa) = 0.02398036
#
# Stress axis : x y z
#
# Youngs Moduli (GPa) = 160.20780 83.03041 111.46002
#
# Poissons Ratio (x) = 0.20801 0.09700
# Poissons Ratio (y) = 0.40136 -0.19360
# Poissons Ratio (z) = 0.13942 -0.14422
#
# Static dielectric constant tensor:
#      x y z
#    x 1.896380 0.000000 0.000000 
#    y 0.000000 2.008840 0.000000 
#    z 0.000000 0.000000 2.040020 
# 
# From -- ./inp_files/61550.got.cif
#   From: 2010.05.17/outbox.cif.g08.bks.cpg/sg66_31_cif.got.tgz:61550.got - 2010.06.03 17:51:23.
