data_PCOD9499516
_publ_section_title
;
Structure prediction by ZEFSAII (Michael W. Deem and Ramdas Pophale) SiO2 
 PCOD9499516
Probable space group: C C C M
;
_chemical_formula_sum "Si O2"
_cell_formula_units_Z 64
_cell_length_a 18.070609
_cell_length_b 11.268192
_cell_length_c 15.072272
_cell_angle_alpha 90.000000
_cell_angle_beta 90.000000
_cell_angle_gamma 90.000000
_cell_volume 3069.062625
_symmetry_space_group_name_H-M "C C C M"
_symmetry_group_IT_number 66
_symmetry_cell_setting 'orthorhombic'
loop_
_space_group_symop_operation_xyz
x,y,z
-x,-y,z
x,-y,1/2-z
-x,y,1/2-z
-x,-y,-z
x,y,-z
-x,y,1/2+z
x,-y,1/2+z
1/2+x,1/2+y,z
1/2-x,1/2-y,z
1/2+x,1/2-y,1/2-z
1/2-x,1/2+y,1/2-z
1/2-x,1/2-y,-z
1/2+x,1/2+y,-z
1/2-x,1/2+y,1/2+z
1/2+x,1/2-y,1/2+z
loop_
_atom_site_type_symbol
_atom_site_label
_atom_site_fract_x
_atom_site_fract_y
_atom_site_fract_z
Si Si1 0.073219 0.707301 0.189291
Si Si2 0.116065 0.928195 0.500000
Si Si3 0.663472 0.269234 0.659164
Si Si4 0.409992 0.018753 0.898334
Si Si5 0.549687 0.672949 0.500000
O O1 0.124444 0.793506 0.246963
O O2 0.114509 0.583250 0.169632
O O3 0.000000 0.690260 0.250000
O O4 0.055274 0.755521 0.091639
O O5 0.151905 0.871330 0.586990
O O6 0.031744 0.882378 0.500000
O O7 0.110655 0.069379 0.500000
O O8 0.750000 0.250000 0.669638
O O9 0.621951 0.148313 0.624956
O O10 0.500000 0.000000 0.895193
O O11 0.388011 0.994801 0.000000
#
# Coordination Sequence:
#
# PCOD9499516 Si02
#       5
#    16   8  16  16   8
#     4  12  23  44  72 103 137 175 235 300 344 412
#     4  11  23  45  70  97 136 182 234 281 351 431
#     4  12  26  45  68 103 145 185 226 287 365 424
#     4  11  21  39  73 104 135 171 229 303 353 404
#     4  11  24  45  71 100 132 179 241 294 339 405
#
# _framework density 20.853273000000002
#
# number of rings (size 3 to 8) (size 9 to 14) (size 15 to 20)
#    0.000    0.500    7.500    1.125    0.000    1.000 
#    9.000    0.625    0.000    0.000    0.000    0.000 
#    0.000    0.000    0.000    0.000    0.000    0.000 
#
# Total GULP energy -178711.687758 kJ/mol
# GULP energy per Si atom -5584.740242 kJ/mol
# Density = 2.080581 g / cm^3
# Si number density = 20.853273 Si / 1000 Ang^3
#
#
#
# Elastic Constant Matrix: (Units=GPa)
#
#
# Indices 1 2 3 4 5 6 
#
# 1 75.7037 4.6243 24.7355 0.0000 0.0000 0.0000
# 2 4.6243 73.9105 38.2266 0.0000 0.0000 0.0000
# 3 24.7355 38.2266 172.6630 0.0000 0.0000 0.0000
# 4 0.0000 0.0000 0.0000 4.8189 0.0000 0.0000
# 5 0.0000 0.0000 0.0000 0.0000 13.6720 0.0000
# 6 0.0000 0.0000 0.0000 0.0000 0.0000 16.5944
#
#
#
# Elastic Compliance Matrix: (Units=1/GPa)
#
#
# Indices 1 2 3 4 5 6 
#
# 1 0.013860 0.000180 -0.002026 0.000000 0.000000 0.000000
# 2 0.000180 0.015282 -0.003409 0.000000 0.000000 0.000000
# 3 -0.002026 -0.003409 0.006837 0.000000 0.000000 0.000000
# 4 0.000000 0.000000 0.000000 0.207518 0.000000 0.000000
# 5 0.000000 0.000000 0.000000 0.000000 0.073142 0.000000
# 6 0.000000 0.000000 0.000000 0.000000 0.000000 0.060261
#
#
# Mechanical properties :
#
#
# Convention : Reuss Voigt Hill
#
# Bulk Modulus (GPa) = 39.26180 50.82777 45.04479
# Shear Modulus (GPa) = 12.62949 23.99643 18.31296
#
# Velocity S-wave (km/s) = 2.46364 3.39592 2.96663
# Velocity P-wave (km/s) = 5.19242 6.30898 5.77774
#
# Compressibility (1/GPa) = 0.02547005
#
# Stress axis : x y z
#
# Youngs Moduli (GPa) = 72.14904 65.43731 146.27209
#
# Poissons Ratio (x) = -0.01181 0.29628
# Poissons Ratio (y) = -0.01302 0.49866
# Poissons Ratio (z) = 0.14614 0.22309
#
# Static dielectric constant tensor:
#      x y z
#    x 1.747970 0.000000 0.000000 
#    y 0.000000 1.819810 0.000000 
#    z 0.000000 0.000000 1.786200 
# 
# From -- ./inp_files/25843.got.cif
#   From: 2010.05.17/outbox.cif.g08.bks.cpg/sg66_13_cif.got.tgz:25843.got - 2010.06.03 17:51:23.
