data_PCOD9499275
_publ_section_title
;
Structure prediction by ZEFSAII (Michael W. Deem and Ramdas Pophale) SiO2 
 PCOD9499275
Probable space group: C C C M
;
_chemical_formula_sum "Si O2"
_cell_formula_units_Z 56
_cell_length_a 11.141303
_cell_length_b 9.666744
_cell_length_c 25.391790
_cell_angle_alpha 90.000000
_cell_angle_beta 90.000000
_cell_angle_gamma 90.000000
_cell_volume 2734.698930
_symmetry_space_group_name_H-M "C C C M"
_symmetry_group_IT_number 66
_symmetry_cell_setting 'orthorhombic'
loop_
_space_group_symop_operation_xyz
x,y,z
-x,-y,z
x,-y,1/2-z
-x,y,1/2-z
-x,-y,-z
x,y,-z
-x,y,1/2+z
x,-y,1/2+z
1/2+x,1/2+y,z
1/2-x,1/2-y,z
1/2+x,1/2-y,1/2-z
1/2-x,1/2+y,1/2-z
1/2-x,1/2-y,-z
1/2+x,1/2+y,-z
1/2-x,1/2+y,1/2+z
1/2+x,1/2-y,1/2+z
loop_
_atom_site_type_symbol
_atom_site_label
_atom_site_fract_x
_atom_site_fract_y
_atom_site_fract_z
Si Si1 0.000000 0.000000 0.411174
Si Si2 0.371098 0.848679 0.274423
Si Si3 0.185340 0.903811 0.000000
Si Si4 0.389777 0.767471 0.386933
Si Si5 0.596690 0.115464 0.500000
O O1 0.051540 0.879174 0.375390
O O2 0.897755 0.933540 0.449015
O O3 0.500000 0.798450 0.250000
O O4 0.250000 0.750000 0.269378
O O5 0.401961 0.864561 0.336679
O O6 0.345564 0.000000 0.250000
O O7 0.250000 0.750000 0.000000
O O8 0.278382 0.032615 0.000000
O O9 0.250000 0.750000 0.393373
O O10 0.427228 0.805506 0.445940
O O11 0.500000 0.000000 0.500000
#
# Coordination Sequence:
#
# PCOD9499275 Si02
#       5
#     8  16   8  16   8
#     4  11  22  40  65  94 138 172 225 269 328 412
#     4  10  25  48  73 100 137 182 239 296 351 412
#     4  11  22  40  59  98 139 182 219 266 325 414
#     4  11  23  43  68  97 136 182 217 282 349 409
#     4  12  23  38  64 101 143 171 223 272 343 416
#
# _framework density 20.477574000000001
#
# number of rings (size 3 to 8) (size 9 to 14) (size 15 to 20)
#    0.000    1.143    2.857    3.857    4.000    5.143 
#    0.000    0.000    0.000    0.000    0.000    0.000 
#    0.000    0.000    0.000    0.000    0.000    0.000 
#
# Total GULP energy -155928.737237 kJ/mol
# GULP energy per Si atom -5568.883473 kJ/mol
# Density = 2.043097 g / cm^3
# Si number density = 20.477574 Si / 1000 Ang^3
#
#
#
# Elastic Constant Matrix: (Units=GPa)
#
#
# Indices 1 2 3 4 5 6 
#
# 1 106.1902 39.4562 12.5753 0.0000 0.0000 0.0000
# 2 39.4562 127.8695 49.5457 0.0000 0.0000 0.0000
# 3 12.5753 49.5457 138.1281 0.0000 0.0000 0.0000
# 4 0.0000 0.0000 0.0000 36.5618 0.0000 0.0000
# 5 0.0000 0.0000 0.0000 0.0000 151.6615 0.0000
# 6 0.0000 0.0000 0.0000 0.0000 0.0000 44.4379
#
#
#
# Elastic Compliance Matrix: (Units=1/GPa)
#
#
# Indices 1 2 3 4 5 6 
#
# 1 0.010644 -0.003378 0.000243 0.000000 0.000000 0.000000
# 2 -0.003378 0.010155 -0.003335 0.000000 0.000000 0.000000
# 3 0.000243 -0.003335 0.008414 0.000000 0.000000 0.000000
# 4 0.000000 0.000000 0.000000 0.027351 0.000000 0.000000
# 5 0.000000 0.000000 0.000000 0.000000 0.006594 0.000000
# 6 0.000000 0.000000 0.000000 0.000000 0.000000 0.022503
#
#
# Mechanical properties :
#
#
# Convention : Reuss Voigt Hill
#
# Bulk Modulus (GPa) = 61.45752 63.92690 62.69221
# Shear Modulus (GPa) = 48.06523 64.57295 56.31909
#
# Velocity S-wave (km/s) = 4.85006 5.62156 5.25000
# Velocity P-wave (km/s) = 7.83846 8.56865 8.21167
#
# Compressibility (1/GPa) = 0.01627140
#
# Stress axis : x y z
#
# Youngs Moduli (GPa) = 93.95341 98.47236 118.85236
#
# Poissons Ratio (x) = 0.33267 -0.02886
# Poissons Ratio (y) = 0.31740 0.39637
# Poissons Ratio (z) = -0.02281 0.32841
#
# Static dielectric constant tensor:
#      x y z
#    x 1.090580 0.000000 0.000000 
#    y 0.000000 1.761670 0.000000 
#    z 0.000000 0.000000 1.592360 
# 
# From -- ./inp_files/61990.got.cif
#   From: 2010.05.17/outbox.cif.g08.bks.cpg/sg66_31_cif.got.tgz:61990.got - 2010.06.03 17:51:23.
