data_PCOD9499426
_publ_section_title
;
Structure prediction by ZEFSAII (Michael W. Deem and Ramdas Pophale) SiO2 
 PCOD9499426
Probable space group: C C C M
;
_chemical_formula_sum "Si O2"
_cell_formula_units_Z 96
_cell_length_a 11.795521
_cell_length_b 16.038417
_cell_length_c 24.028994
_cell_angle_alpha 90.000000
_cell_angle_beta 90.000000
_cell_angle_gamma 90.000000
_cell_volume 4545.840757
_symmetry_space_group_name_H-M "C C C M"
_symmetry_group_IT_number 66
_symmetry_cell_setting 'orthorhombic'
loop_
_space_group_symop_operation_xyz
x,y,z
-x,-y,z
x,-y,1/2-z
-x,y,1/2-z
-x,-y,-z
x,y,-z
-x,y,1/2+z
x,-y,1/2+z
1/2+x,1/2+y,z
1/2-x,1/2-y,z
1/2+x,1/2-y,1/2-z
1/2-x,1/2+y,1/2-z
1/2-x,1/2-y,-z
1/2+x,1/2+y,-z
1/2-x,1/2+y,1/2+z
1/2+x,1/2-y,1/2+z
loop_
_atom_site_type_symbol
_atom_site_label
_atom_site_fract_x
_atom_site_fract_y
_atom_site_fract_z
Si Si1 0.847643 0.184087 0.889601
Si Si2 0.877866 0.100077 0.500000
Si Si3 0.319856 0.534687 0.810623
Si Si4 0.208821 0.867506 0.619578
Si Si5 0.440625 0.224085 0.869033
Si Si6 0.442405 0.920827 0.809452
Si Si7 0.650928 0.590275 0.500000
O O1 0.750000 0.250000 0.873401
O O2 0.875231 0.114897 0.841600
O O3 0.806158 0.133958 0.943987
O O4 0.963441 0.231592 0.906591
O O5 0.836134 0.140558 0.556859
O O6 0.013644 0.094253 0.500000
O O7 0.824265 0.007428 0.500000
O O8 0.359729 0.500000 0.750000
O O9 0.315316 0.457034 0.853520
O O10 0.189925 0.563810 0.803554
O O11 0.340082 0.840433 0.615716
O O12 0.134989 0.800255 0.654381
O O13 0.523929 0.167985 0.832840
O O14 0.500000 0.920076 0.750000
O O15 0.500000 0.000000 0.840626
#
# Coordination Sequence:
#
# PCOD9499426 Si02
#       7
#    16   8  16  16  16  16   8
#     4  12  25  43  71 103 139 178 226 286 349 406
#     4  11  22  42  74  91 131 193 227 276 342 425
#     4  12  24  43  68 100 136 182 226 274 339 417
#     4  11  24  43  68  98 136 176 232 279 338 401
#     4  11  24  40  65 103 134 171 225 288 330 403
#     4  11  20  40  70  92 132 187 225 267 340 409
#     4  11  23  43  71  98 140 176 234 274 356 416
#
# _framework density 21.118207000000002
#
# number of rings (size 3 to 8) (size 9 to 14) (size 15 to 20)
#    0.000    0.667    8.333    0.250    0.000    4.000 
#    3.000    0.833    0.000    2.000    0.000    0.000 
#    0.000    0.000    0.000    0.000    0.000    0.000 
#
# Total GULP energy -267377.115510 kJ/mol
# GULP energy per Si atom -5570.356573 kJ/mol
# Density = 2.107014 g / cm^3
# Si number density = 21.118207 Si / 1000 Ang^3
#
#
#
# Elastic Constant Matrix: (Units=GPa)
#
#
# Indices 1 2 3 4 5 6 
#
# 1 79.7772 15.6367 0.1556 0.0000 0.0000 0.0000
# 2 15.6367 113.4856 32.7680 0.0000 0.0000 0.0000
# 3 0.1556 32.7680 80.3902 0.0000 0.0000 0.0000
# 4 0.0000 0.0000 0.0000 21.1735 0.0000 0.0000
# 5 0.0000 0.0000 0.0000 0.0000 -11.9536 0.0000
# 6 0.0000 0.0000 0.0000 0.0000 0.0000 22.4581
#
#
#
# Elastic Compliance Matrix: (Units=1/GPa)
#
#
# Indices 1 2 3 4 5 6 
#
# 1 0.012927 -0.002011 0.000795 0.000000 0.000000 0.000000
# 2 -0.002011 0.010300 -0.004194 0.000000 0.000000 0.000000
# 3 0.000795 -0.004194 0.014147 0.000000 0.000000 0.000000
# 4 0.000000 0.000000 0.000000 0.047229 0.000000 0.000000
# 5 0.000000 0.000000 0.000000 0.000000 -0.083657 0.000000
# 6 0.000000 0.000000 0.000000 0.000000 0.000000 0.044527
#
#
# Mechanical properties :
#
#
# Convention : Reuss Voigt Hill
#
# Bulk Modulus (GPa) = 37.65953 41.19706 39.42829
# Shear Modulus (GPa) = 76.75021 21.34179 49.04600
#
# Velocity S-wave (km/s) = 6.03507 3.18242 4.82441
# Velocity P-wave (km/s) = 8.15072 5.74926 7.05295
#
# Compressibility (1/GPa) = 0.02655371
#
# Stress axis : x y z
#
# Youngs Moduli (GPa) = 77.35480 97.08893 70.68388
#
# Poissons Ratio (x) = 0.19521 -0.05616
# Poissons Ratio (y) = 0.15553 0.29648
# Poissons Ratio (z) = -0.06146 0.40723
#
# Static dielectric constant tensor:
#      x y z
#    x 1.765620 0.000000 0.000000 
#    y 0.000000 1.977420 0.000000 
#    z 0.000000 0.000000 1.748740 
# 
# From -- ./inp_files/56994.got.cif
#   From: 2010.05.17/outbox.cif.g08.bks.cpg/sg66_29_cif.got.tgz:56994.got - 2010.06.03 17:51:23.
