data_PCOD9499695
_publ_section_title
;
Structure prediction by ZEFSAII (Michael W. Deem and Ramdas Pophale) SiO2 
 PCOD9499695
Probable space group: C C C M
;
_chemical_formula_sum "Si O2"
_cell_formula_units_Z 80
_cell_length_a 14.130641
_cell_length_b 19.070194
_cell_length_c 15.747251
_cell_angle_alpha 90.000000
_cell_angle_beta 90.000000
_cell_angle_gamma 90.000000
_cell_volume 4243.475743
_symmetry_space_group_name_H-M "C C C M"
_symmetry_group_IT_number 66
_symmetry_cell_setting 'orthorhombic'
loop_
_space_group_symop_operation_xyz
x,y,z
-x,-y,z
x,-y,1/2-z
-x,y,1/2-z
-x,-y,-z
x,y,-z
-x,y,1/2+z
x,-y,1/2+z
1/2+x,1/2+y,z
1/2-x,1/2-y,z
1/2+x,1/2-y,1/2-z
1/2-x,1/2+y,1/2-z
1/2-x,1/2-y,-z
1/2+x,1/2+y,-z
1/2-x,1/2+y,1/2+z
1/2+x,1/2-y,1/2+z
loop_
_atom_site_type_symbol
_atom_site_label
_atom_site_fract_x
_atom_site_fract_y
_atom_site_fract_z
Si Si1 0.393676 0.997430 0.400611
Si Si2 0.605315 0.711671 0.359036
Si Si3 0.796899 0.355613 0.861986
Si Si4 0.393944 0.713831 0.348664
Si Si5 0.296466 0.857044 0.657799
O O1 0.403031 0.982968 0.500000
O O2 0.334410 0.932996 0.364404
O O3 0.500000 0.000000 0.363251
O O4 0.341279 0.071320 0.389161
O O5 0.688500 0.659592 0.388538
O O6 0.638902 0.789043 0.387687
O O7 0.497534 0.696398 0.383172
O O8 0.604588 0.711815 0.255129
O O9 0.795149 0.353531 0.759776
O O10 0.364141 0.793351 0.371840
O O11 0.308568 0.662483 0.374268
#
# Coordination Sequence:
#
# PCOD9499695 Si02
#       5
#    16  16  16  16  16
#     4  11  23  35  46  65  96 128 155 191 238 279
#     4   8  14  27  49  76 100 119 148 194 238 273
#     4   9  17  30  51  75  95 121 157 192 229 276
#     4   8  14  27  49  76 100 119 148 194 238 273
#     4   9  17  30  51  75  95 121 157 192 229 276
#
# _framework density 18.85247
#
# number of rings (size 3 to 8) (size 9 to 14) (size 15 to 20)
#    0.000    3.000    0.000    4.200    0.000    3.200 
#    0.000    5.000    0.000    9.600    0.000    0.000 
#    0.000    0.000    0.000    0.000    0.000    0.000 
#
# Total GULP energy -222980.824416 kJ/mol
# GULP energy per Si atom -5574.520610 kJ/mol
# Density = 1.880956 g / cm^3
# Si number density = 18.852470 Si / 1000 Ang^3
#
#
#
# Elastic Constant Matrix: (Units=GPa)
#
#
# Indices 1 2 3 4 5 6 
#
# 1 155.3485 56.2972 6.8654 0.0000 0.0000 0.0000
# 2 56.2972 102.2138 -0.9888 0.0000 0.0000 0.0000
# 3 6.8654 -0.9888 17.5503 0.0000 0.0000 0.0000
# 4 0.0000 0.0000 0.0000 -580.9079 0.0000 0.0000
# 5 0.0000 0.0000 0.0000 0.0000 9.0893 0.0000
# 6 0.0000 0.0000 0.0000 0.0000 0.0000 15.6482
#
#
#
# Elastic Compliance Matrix: (Units=1/GPa)
#
#
# Indices 1 2 3 4 5 6 
#
# 1 0.008250 -0.004578 -0.003485 0.000000 0.000000 0.000000
# 2 -0.004578 0.012329 0.002485 0.000000 0.000000 0.000000
# 3 -0.003485 0.002485 0.058483 0.000000 0.000000 0.000000
# 4 0.000000 0.000000 0.000000 -0.001721 0.000000 0.000000
# 5 0.000000 0.000000 0.000000 0.000000 0.110019 0.000000
# 6 0.000000 0.000000 0.000000 0.000000 0.000000 0.063905
#
#
# Mechanical properties :
#
#
# Convention : Reuss Voigt Hill
#
# Bulk Modulus (GPa) = 14.72617 44.38446 29.55531
# Shear Modulus (GPa) = 17.54049 -97.03815 -39.74883
#
# Velocity S-wave (km/s) = 3.05357 -7.18221 -4.59673
# Velocity P-wave (km/s) = 4.50118 6.72195 3.53016
#
# Compressibility (1/GPa) = 0.06790633
#
# Stress axis : x y z
#
# Youngs Moduli (GPa) = 121.21084 81.11117 17.09910
#
# Poissons Ratio (x) = 0.37130 0.05959
# Poissons Ratio (y) = 0.55487 -0.04250
# Poissons Ratio (z) = 0.42245 -0.20159
#
# Static dielectric constant tensor:
#      x y z
#    x 1.686090 0.000000 0.000000 
#    y 0.000000 1.612480 0.000000 
#    z 0.000000 0.000000 1.681020 
# 
# From -- ./inp_files/40185.got.cif
#   From: 2010.05.17/outbox.cif.g08.bks.cpg/sg66_21_cif.got.tgz:40185.got - 2010.06.03 17:51:23.
