data_PCOD9499891
_publ_section_title
;
Structure prediction by ZEFSAII (Michael W. Deem and Ramdas Pophale) SiO2 
 PCOD9499891
Probable space group: C C C M
;
_chemical_formula_sum "Si O2"
_cell_formula_units_Z 64
_cell_length_a 9.561606
_cell_length_b 11.672833
_cell_length_c 24.653814
_cell_angle_alpha 90.000000
_cell_angle_beta 90.000000
_cell_angle_gamma 90.000000
_cell_volume 2751.637575
_symmetry_space_group_name_H-M "C C C M"
_symmetry_group_IT_number 66
_symmetry_cell_setting 'orthorhombic'
loop_
_space_group_symop_operation_xyz
x,y,z
-x,-y,z
x,-y,1/2-z
-x,y,1/2-z
-x,-y,-z
x,y,-z
-x,y,1/2+z
x,-y,1/2+z
1/2+x,1/2+y,z
1/2-x,1/2-y,z
1/2+x,1/2-y,1/2-z
1/2-x,1/2+y,1/2-z
1/2-x,1/2-y,-z
1/2+x,1/2+y,-z
1/2-x,1/2+y,1/2+z
1/2+x,1/2-y,1/2+z
loop_
_atom_site_type_symbol
_atom_site_label
_atom_site_fract_x
_atom_site_fract_y
_atom_site_fract_z
Si Si1 0.225346 0.434013 0.000000
Si Si2 0.420169 0.824063 0.883065
Si Si3 0.436561 0.819879 0.000000
Si Si4 0.774643 0.559168 0.118775
Si Si5 0.967265 0.126949 0.686437
O O1 0.296489 0.427679 0.940974
O O2 0.140896 0.555659 0.000000
O O3 0.103317 0.338812 0.000000
O O4 0.571079 0.886322 0.886470
O O5 0.441059 0.726660 0.839267
O O6 0.308962 0.924694 0.870942
O O7 0.398408 0.768014 0.942297
O O8 0.692547 0.627254 0.165396
O O9 0.000000 0.127950 0.750000
O O10 0.000000 0.000000 0.664722
#
# Coordination Sequence:
#
# PCOD9499891 Si02
#       5
#     8  16   8  16  16
#     4   7  12  27  59  96 125 149 182 250 313 379
#     4   9  18  38  67  96 119 156 200 255 316 378
#     4   7  12  27  59  98 127 141 186 252 313 377
#     4   9  18  38  66  95 122 153 203 253 316 378
#     4  11  25  43  53  79 124 171 211 257 306 357
#
# _framework density 23.258877999999999
#
# number of rings (size 3 to 8) (size 9 to 14) (size 15 to 20)
#    0.000    3.000    0.000    3.750    0.000    2.000 
#   18.000    7.500    0.000    4.500    0.000    0.000 
#    0.000    0.000    0.000    0.000    0.000    1.000 
#
# Total GULP energy -178440.553515 kJ/mol
# GULP energy per Si atom -5576.267297 kJ/mol
# Density = 2.320594 g / cm^3
# Si number density = 23.258878 Si / 1000 Ang^3
#
#
#
# Elastic Constant Matrix: (Units=GPa)
#
#
# Indices 1 2 3 4 5 6 
#
# 1 84.2287 20.3064 47.2095 0.0000 0.0000 0.0000
# 2 20.3064 114.1131 60.9456 0.0000 0.0000 0.0000
# 3 47.2095 60.9456 155.8080 0.0000 0.0000 0.0000
# 4 0.0000 0.0000 0.0000 -44.5996 0.0000 0.0000
# 5 0.0000 0.0000 0.0000 0.0000 10.7315 0.0000
# 6 0.0000 0.0000 0.0000 0.0000 0.0000 13.1413
#
#
#
# Elastic Compliance Matrix: (Units=1/GPa)
#
#
# Indices 1 2 3 4 5 6 
#
# 1 0.014309 -0.000292 -0.004221 0.000000 0.000000 0.000000
# 2 -0.000292 0.011083 -0.004247 0.000000 0.000000 0.000000
# 3 -0.004221 -0.004247 0.009358 0.000000 0.000000 0.000000
# 4 0.000000 0.000000 0.000000 -0.022422 0.000000 0.000000
# 5 0.000000 0.000000 0.000000 0.000000 0.093183 0.000000
# 6 0.000000 0.000000 0.000000 0.000000 0.000000 0.076096
#
#
# Mechanical properties :
#
#
# Convention : Reuss Voigt Hill
#
# Bulk Modulus (GPa) = 58.03657 67.89698 62.96678
# Shear Modulus (GPa) = 24.40550 10.90053 17.65301
#
# Velocity S-wave (km/s) = 3.24280 2.16721 2.75795
# Velocity P-wave (km/s) = 6.24721 5.95967 6.10513
#
# Compressibility (1/GPa) = 0.01723051
#
# Stress axis : x y z
#
# Youngs Moduli (GPa) = 69.88678 90.22527 106.85475
#
# Poissons Ratio (x) = 0.02631 0.45108
# Poissons Ratio (y) = 0.02038 0.45381
# Poissons Ratio (z) = 0.29503 0.38319
#
# Static dielectric constant tensor:
#      x y z
#    x 2.104620 0.000000 0.000000 
#    y 0.000000 1.905400 0.000000 
#    z 0.000000 0.000000 1.873110 
# 
# From -- ./inp_files/56350.got.cif
#   From: 2010.05.17/outbox.cif.g08.bks.cpg/sg66_29_cif.got.tgz:56350.got - 2010.06.03 17:51:23.
