data_PCOD9499106
_publ_section_title
;
Structure prediction by ZEFSAII (Michael W. Deem and Ramdas Pophale) SiO2 
 PCOD9499106
Probable space group: C C C M
;
_chemical_formula_sum "Si O2"
_cell_formula_units_Z 68
_cell_length_a 5.071741
_cell_length_b 28.982097
_cell_length_c 20.386609
_cell_angle_alpha 90.000000
_cell_angle_beta 90.000000
_cell_angle_gamma 90.000000
_cell_volume 2996.621329
_symmetry_space_group_name_H-M "C C C M"
_symmetry_group_IT_number 66
_symmetry_cell_setting 'orthorhombic'
loop_
_space_group_symop_operation_xyz
x,y,z
-x,-y,z
x,-y,1/2-z
-x,y,1/2-z
-x,-y,-z
x,y,-z
-x,y,1/2+z
x,-y,1/2+z
1/2+x,1/2+y,z
1/2-x,1/2-y,z
1/2+x,1/2-y,1/2-z
1/2-x,1/2+y,1/2-z
1/2-x,1/2-y,-z
1/2+x,1/2+y,-z
1/2-x,1/2+y,1/2+z
1/2+x,1/2-y,1/2+z
loop_
_atom_site_type_symbol
_atom_site_label
_atom_site_fract_x
_atom_site_fract_y
_atom_site_fract_z
Si Si1 0.963183 0.390716 0.572178
Si Si2 0.942784 0.053101 0.889785
Si Si3 0.130885 0.330953 0.187443
Si Si4 0.500000 0.408214 0.750000
Si Si5 0.750000 0.250000 0.000000
Si Si6 0.250000 0.750000 0.400517
O O1 0.964596 0.368614 0.500000
O O2 0.679294 0.413636 0.585883
O O3 0.039216 0.355494 0.630170
O O4 0.177278 0.430760 0.575828
O O5 0.910689 0.061198 0.811508
O O6 0.000000 0.000000 0.903165
O O7 0.283028 0.373505 0.221081
O O8 0.293440 0.294282 0.146170
O O9 0.000000 0.307017 0.250000
O O10 0.514003 0.245720 0.943507
#
# Coordination Sequence:
#
# PCOD9499106 Si02
#       6
#    16  16  16   8   4   8
#     4  11  25  43  66 101 139 186 231 292 356 419
#     4  11  23  42  69  98 138 182 235 292 354 426
#     4  11  25  46  73 105 146 187 244 297 363 431
#     4  10  23  44  64 106 138 184 230 294 359 424
#     4  10  28  52  64 116 144 182 244 294 368 436
#     4  11  28  47  80 105 147 194 240 300 363 439
#
# _framework density 22.692222999999998
#
# number of rings (size 3 to 8) (size 9 to 14) (size 15 to 20)
#    0.000    1.176    2.353    1.765    8.235    2.824 
#    0.000    2.353    0.000    0.000    0.000    0.000 
#    0.000    0.000    0.000    0.000    0.000    0.000 
#
# Total GULP energy -189467.967980 kJ/mol
# GULP energy per Si atom -5572.587294 kJ/mol
# Density = 2.264057 g / cm^3
# Si number density = 22.692223 Si / 1000 Ang^3
#
#
#
# Elastic Constant Matrix: (Units=GPa)
#
#
# Indices 1 2 3 4 5 6 
#
# 1 83.8320 -6.5923 33.4246 0.0000 0.0000 0.0000
# 2 -6.5923 61.3231 25.1580 0.0000 0.0000 0.0000
# 3 33.4246 25.1580 194.4596 0.0000 0.0000 0.0000
# 4 0.0000 0.0000 0.0000 -41.8342 0.0000 0.0000
# 5 0.0000 0.0000 0.0000 0.0000 22.9724 0.0000
# 6 0.0000 0.0000 0.0000 0.0000 0.0000 17.9516
#
#
#
# Elastic Compliance Matrix: (Units=1/GPa)
#
#
# Indices 1 2 3 4 5 6 
#
# 1 0.013152 0.002473 -0.002580 0.000000 0.000000 0.000000
# 2 0.002473 0.017686 -0.002713 0.000000 0.000000 0.000000
# 3 -0.002580 -0.002713 0.005937 0.000000 0.000000 0.000000
# 4 0.000000 0.000000 0.000000 -0.023904 0.000000 0.000000
# 5 0.000000 0.000000 0.000000 0.000000 0.043530 0.000000
# 6 0.000000 0.000000 0.000000 0.000000 0.000000 0.055705
#
#
# Mechanical properties :
#
#
# Convention : Reuss Voigt Hill
#
# Bulk Modulus (GPa) = 32.12054 49.28834 40.70444
# Shear Modulus (GPa) = 39.02399 18.99293 29.00846
#
# Velocity S-wave (km/s) = 4.15143 2.89620 3.57927
# Velocity P-wave (km/s) = 6.09629 5.74034 5.92099
#
# Compressibility (1/GPa) = 0.03113273
#
# Stress axis : x y z
#
# Youngs Moduli (GPa) = 76.03451 56.54215 168.43516
#
# Poissons Ratio (x) = -0.13980 0.43464
# Poissons Ratio (y) = -0.18800 0.45698
# Poissons Ratio (z) = 0.19621 0.15340
#
# Static dielectric constant tensor:
#      x y z
#    x 1.521180 0.000000 0.000000 
#    y 0.000000 1.857120 0.000000 
#    z 0.000000 0.000000 1.837450 
# 
# From -- ./inp_files/45795.got.cif
#   From: 2010.05.17/outbox.cif.g08.bks.cpg/sg66_23_cif.got.tgz:45795.got - 2010.06.03 17:51:23.
