data_PCOD9499568
_publ_section_title
;
Structure prediction by ZEFSAII (Michael W. Deem and Ramdas Pophale) SiO2 
 PCOD9499568
Probable space group: C C C M
;
_chemical_formula_sum "Si O2"
_cell_formula_units_Z 96
_cell_length_a 8.137339
_cell_length_b 22.417153
_cell_length_c 24.413423
_cell_angle_alpha 90.000000
_cell_angle_beta 90.000000
_cell_angle_gamma 90.000000
_cell_volume 4453.398320
_symmetry_space_group_name_H-M "C C C M"
_symmetry_group_IT_number 66
_symmetry_cell_setting 'orthorhombic'
loop_
_space_group_symop_operation_xyz
x,y,z
-x,-y,z
x,-y,1/2-z
-x,y,1/2-z
-x,-y,-z
x,y,-z
-x,y,1/2+z
x,-y,1/2+z
1/2+x,1/2+y,z
1/2-x,1/2-y,z
1/2+x,1/2-y,1/2-z
1/2-x,1/2+y,1/2-z
1/2-x,1/2-y,-z
1/2+x,1/2+y,-z
1/2-x,1/2+y,1/2+z
1/2+x,1/2-y,1/2+z
loop_
_atom_site_type_symbol
_atom_site_label
_atom_site_fract_x
_atom_site_fract_y
_atom_site_fract_z
Si Si1 0.178773 0.522720 0.686420
Si Si2 0.666187 0.162569 0.062847
Si Si3 0.167152 0.853307 0.343557
Si Si4 0.472632 0.274957 0.936021
Si Si5 0.190118 0.309710 0.264517
Si Si6 0.194693 0.908632 0.154160
O O1 0.190608 0.500000 0.750000
O O2 0.210383 0.590636 0.668041
O O3 0.309360 0.478969 0.659270
O O4 0.000000 0.500000 0.668925
O O5 0.525581 0.208402 0.082696
O O6 0.846976 0.193565 0.064269
O O7 0.696567 0.107376 0.101575
O O8 0.629481 0.148353 0.000000
O O9 0.198957 0.813511 0.290009
O O10 0.152459 0.811007 0.397260
O O11 0.988012 0.883128 0.344043
O O12 0.422107 0.274236 0.000000
O O13 0.250000 0.250000 0.295999
O O14 0.218269 0.370613 0.297573
O O15 0.000000 0.304847 0.250000
#
# Coordination Sequence:
#
# PCOD9499568 Si02
#       6
#    16  16  16  16  16  16
#     4  11  23  41  58  80 118 168 213 250 305 371
#     4   8  16  32  58  91 127 160 197 244 306 374
#     4  11  22  38  62  91 119 159 204 257 307 368
#     4   8  16  33  59  92 125 159 197 248 308 370
#     4  12  26  39  56  87 126 162 197 248 310 369
#     4  11  22  36  63  90 121 157 207 254 306 367
#
# _framework density 21.556571000000002
#
# number of rings (size 3 to 8) (size 9 to 14) (size 15 to 20)
#    0.000    1.833    1.667    4.000    7.000    0.667 
#    0.000    0.833    0.000    9.500    0.000    0.000 
#    0.000    0.000    0.000    0.000    0.000    0.000 
#
# Total GULP energy -267731.109513 kJ/mol
# GULP energy per Si atom -5577.731448 kJ/mol
# Density = 2.150751 g / cm^3
# Si number density = 21.556571 Si / 1000 Ang^3
#
#
#
# Elastic Constant Matrix: (Units=GPa)
#
#
# Indices 1 2 3 4 5 6 
#
# 1 100.4274 27.2161 24.6762 0.0000 0.0000 0.0000
# 2 27.2161 88.6922 15.3201 0.0000 0.0000 0.0000
# 3 24.6762 15.3201 65.1251 0.0000 0.0000 0.0000
# 4 0.0000 0.0000 0.0000 14.0737 0.0000 0.0000
# 5 0.0000 0.0000 0.0000 0.0000 199.8400 0.0000
# 6 0.0000 0.0000 0.0000 0.0000 0.0000 31.4775
#
#
#
# Elastic Compliance Matrix: (Units=1/GPa)
#
#
# Indices 1 2 3 4 5 6 
#
# 1 0.011670 -0.002937 -0.003731 0.000000 0.000000 0.000000
# 2 -0.002937 0.012491 -0.001826 0.000000 0.000000 0.000000
# 3 -0.003731 -0.001826 0.017198 0.000000 0.000000 0.000000
# 4 0.000000 0.000000 0.000000 0.071055 0.000000 0.000000
# 5 0.000000 0.000000 0.000000 0.000000 0.005004 0.000000
# 6 0.000000 0.000000 0.000000 0.000000 0.000000 0.031769
#
#
# Mechanical properties :
#
#
# Convention : Reuss Voigt Hill
#
# Bulk Modulus (GPa) = 41.02923 43.18553 42.10738
# Shear Modulus (GPa) = 28.68647 61.54706 45.11677
#
# Velocity S-wave (km/s) = 3.65191 5.34915 4.57984
# Velocity P-wave (km/s) = 6.07095 7.63075 6.89510
#
# Compressibility (1/GPa) = 0.02437287
#
# Stress axis : x y z
#
# Youngs Moduli (GPa) = 85.68962 80.05474 58.14541
#
# Poissons Ratio (x) = 0.23509 0.21694
# Poissons Ratio (y) = 0.25164 0.10616
# Poissons Ratio (z) = 0.31971 0.14617
#
# Static dielectric constant tensor:
#      x y z
#    x 1.807990 0.000000 0.000000 
#    y 0.000000 1.818570 0.000000 
#    z 0.000000 0.000000 1.817820 
# 
# From -- ./inp_files/55663.got.cif
#   From: 2010.05.17/outbox.cif.g08.bks.cpg/sg66_28_cif.got.tgz:55663.got - 2010.06.03 17:51:23.
