data_PCOD9499625
_publ_section_title
;
Structure prediction by ZEFSAII (Michael W. Deem and Ramdas Pophale) SiO2 
 PCOD9499625
Probable space group: C C C M
;
_chemical_formula_sum "Si O2"
_cell_formula_units_Z 84
_cell_length_a 8.127979
_cell_length_b 22.811672
_cell_length_c 22.542689
_cell_angle_alpha 90.000000
_cell_angle_beta 90.000000
_cell_angle_gamma 90.000000
_cell_volume 4179.702883
_symmetry_space_group_name_H-M "C C C M"
_symmetry_group_IT_number 66
_symmetry_cell_setting 'orthorhombic'
loop_
_space_group_symop_operation_xyz
x,y,z
-x,-y,z
x,-y,1/2-z
-x,y,1/2-z
-x,-y,-z
x,y,-z
-x,y,1/2+z
x,-y,1/2+z
1/2+x,1/2+y,z
1/2-x,1/2-y,z
1/2+x,1/2-y,1/2-z
1/2-x,1/2+y,1/2-z
1/2-x,1/2-y,-z
1/2+x,1/2+y,-z
1/2-x,1/2+y,1/2+z
1/2+x,1/2-y,1/2+z
loop_
_atom_site_type_symbol
_atom_site_label
_atom_site_fract_x
_atom_site_fract_y
_atom_site_fract_z
Si Si1 0.328389 0.158128 0.106459
Si Si2 0.250000 0.250000 0.000000
Si Si3 0.310131 0.182828 0.351695
Si Si4 0.643037 0.584804 0.570954
Si Si5 0.730885 0.460075 0.430112
Si Si6 0.812469 0.816016 0.228571
O O1 0.262217 0.198240 0.052683
O O2 0.503537 0.183019 0.126562
O O3 0.353983 0.090439 0.088887
O O4 0.212898 0.156599 0.164397
O O5 0.250000 0.250000 0.352497
O O6 0.201763 0.141795 0.394247
O O7 0.292193 0.160066 0.284160
O O8 0.668313 0.593425 0.500000
O O9 0.451250 0.567876 0.579081
O O10 0.736620 0.526138 0.593776
O O11 0.747964 0.467901 0.500000
O O12 0.750000 0.750000 0.220367
O O13 0.000000 0.816984 0.250000
#
# Coordination Sequence:
#
# PCOD9499625 Si02
#       6
#    16   4  16  16  16  16
#     4  12  24  40  62  93 127 166 206 252 310 367
#     4  12  28  36  62  96 136 162 200 256 308 368
#     4  11  25  39  60  94 124 162 205 256 310 362
#     4   9  20  38  61  88 124 162 211 255 303 368
#     4   9  19  38  62  86 120 171 206 249 308 369
#     4  11  22  40  64  86 120 167 207 254 306 371
#
# _framework density 20.097121999999999
#
# number of rings (size 3 to 8) (size 9 to 14) (size 15 to 20)
#    0.000    1.524    1.905    5.143    4.000    1.143 
#    0.000    2.857    0.000    5.714    0.000    0.000 
#    0.000    0.000    0.000    0.000    0.000    0.000 
#
# Total GULP energy -233900.106140 kJ/mol
# GULP energy per Si atom -5569.050146 kJ/mol
# Density = 2.005138 g / cm^3
# Si number density = 20.097122 Si / 1000 Ang^3
#
#
#
# Elastic Constant Matrix: (Units=GPa)
#
#
# Indices 1 2 3 4 5 6 
#
# 1 51.2163 12.2067 26.4029 0.0000 0.0000 0.0000
# 2 12.2067 100.4601 49.8994 0.0000 0.0000 0.0000
# 3 26.4029 49.8994 133.5881 0.0000 0.0000 0.0000
# 4 0.0000 0.0000 0.0000 59.5039 0.0000 0.0000
# 5 0.0000 0.0000 0.0000 0.0000 16.6030 0.0000
# 6 0.0000 0.0000 0.0000 0.0000 0.0000 30.0167
#
#
#
# Elastic Compliance Matrix: (Units=1/GPa)
#
#
# Indices 1 2 3 4 5 6 
#
# 1 0.021772 -0.000624 -0.004070 0.000000 0.000000 0.000000
# 2 -0.000624 0.012240 -0.004449 0.000000 0.000000 0.000000
# 3 -0.004070 -0.004449 0.009952 0.000000 0.000000 0.000000
# 4 0.000000 0.000000 0.000000 0.016806 0.000000 0.000000
# 5 0.000000 0.000000 0.000000 0.000000 0.060230 0.000000
# 6 0.000000 0.000000 0.000000 0.000000 0.000000 0.033315
#
#
# Mechanical properties :
#
#
# Convention : Reuss Voigt Hill
#
# Bulk Modulus (GPa) = 38.94328 51.36474 45.15401
# Shear Modulus (GPa) = 27.60018 34.34176 30.97097
#
# Velocity S-wave (km/s) = 3.70988 4.13824 3.92990
# Velocity P-wave (km/s) = 6.14578 6.96039 6.56573
#
# Compressibility (1/GPa) = 0.02567837
#
# Stress axis : x y z
#
# Youngs Moduli (GPa) = 45.93079 81.70163 100.48414
#
# Poissons Ratio (x) = 0.05097 0.40898
# Poissons Ratio (y) = 0.02865 0.44701
# Poissons Ratio (z) = 0.18694 0.36346
#
# Static dielectric constant tensor:
#      x y z
#    x 1.772890 0.000000 0.000000 
#    y 0.000000 1.711980 0.000000 
#    z 0.000000 0.000000 1.719060 
# 
# From -- ./inp_files/47094.got.cif
#   From: 2010.05.17/outbox.cif.g08.bks.cpg/sg66_24_cif.got.tgz:47094.got - 2010.06.03 17:51:23.
