data_PCOD9499335
_publ_section_title
;
Structure prediction by ZEFSAII (Michael W. Deem and Ramdas Pophale) SiO2 
 PCOD9499335
Probable space group: C C C M
;
_chemical_formula_sum "Si O2"
_cell_formula_units_Z 116
_cell_length_a 18.245655
_cell_length_b 11.554893
_cell_length_c 31.365451
_cell_angle_alpha 90.000000
_cell_angle_beta 90.000000
_cell_angle_gamma 90.000000
_cell_volume 6612.671117
_symmetry_space_group_name_H-M "C C C M"
_symmetry_group_IT_number 66
_symmetry_cell_setting 'orthorhombic'
loop_
_space_group_symop_operation_xyz
x,y,z
-x,-y,z
x,-y,1/2-z
-x,y,1/2-z
-x,-y,-z
x,y,-z
-x,y,1/2+z
x,-y,1/2+z
1/2+x,1/2+y,z
1/2-x,1/2-y,z
1/2+x,1/2-y,1/2-z
1/2-x,1/2+y,1/2-z
1/2-x,1/2-y,-z
1/2+x,1/2+y,-z
1/2-x,1/2+y,1/2+z
1/2+x,1/2-y,1/2+z
loop_
_atom_site_type_symbol
_atom_site_label
_atom_site_fract_x
_atom_site_fract_y
_atom_site_fract_z
Si Si1 0.573272 0.169847 0.816244
Si Si2 0.665541 0.019332 0.634733
Si Si3 0.185952 0.164319 0.281937
Si Si4 0.500000 0.000000 0.750000
Si Si5 0.129197 0.801640 0.452171
Si Si6 0.071213 0.250437 0.135989
Si Si7 0.776299 0.437124 0.547547
Si Si8 0.190598 0.089968 0.815268
O O1 0.612188 0.266717 0.788453
O O2 0.508105 0.229539 0.843117
O O3 0.630743 0.094510 0.844160
O O4 0.545217 0.079343 0.781604
O O5 0.604682 0.119972 0.634625
O O6 0.693833 0.991795 0.587260
O O7 0.733574 0.083020 0.658563
O O8 0.250000 0.250000 0.297611
O O9 0.201745 0.137500 0.232523
O O10 0.175828 0.045934 0.307746
O O11 0.098127 0.813959 0.500000
O O12 0.073999 0.796152 0.412653
O O13 0.175785 0.681607 0.451653
O O14 0.191965 0.898822 0.445858
O O15 0.126978 0.165595 0.162106
O O16 0.783846 0.486882 0.500000
#
# Coordination Sequence:
#
# PCOD9499335 Si02
#       8
#    16  16  16   4  16  16  16  16
#     4  12  25  38  56  81 116 153 187 235 292 345
#     4  11  19  35  57  86 114 148 191 233 286 344
#     4  11  24  39  56  81 110 145 197 242 282 331
#     4  12  24  40  56  82 110 152 178 228 290 340
#     4   8  14  26  49  81 114 145 179 230 284 337
#     4  11  20  36  55  85 117 150 187 229 287 350
#     4   8  14  26  49  82 115 142 180 234 284 332
#     4  11  23  37  59  81 108 153 194 239 279 331
#
# _framework density 17.542079000000001
#
# number of rings (size 3 to 8) (size 9 to 14) (size 15 to 20)
#    0.000    1.655    4.138    2.897    1.931    0.552 
#    0.000    2.069    0.000    3.310    0.000    5.793 
#    0.000    0.000    0.000    0.000    0.000    0.000 
#
# Total GULP energy -323098.107258 kJ/mol
# GULP energy per Si atom -5570.657022 kJ/mol
# Density = 1.750215 g / cm^3
# Si number density = 17.542079 Si / 1000 Ang^3
#
#
#
# Elastic Constant Matrix: (Units=GPa)
#
#
# Indices 1 2 3 4 5 6 
#
# 1 72.8363 17.8449 35.8477 0.0000 0.0000 0.0000
# 2 17.8449 60.9461 11.1954 0.0000 0.0000 0.0000
# 3 35.8477 11.1954 96.0909 0.0000 0.0000 0.0000
# 4 0.0000 0.0000 0.0000 16.9338 0.0000 0.0000
# 5 0.0000 0.0000 0.0000 0.0000 32.4767 0.0000
# 6 0.0000 0.0000 0.0000 0.0000 0.0000 34.6620
#
#
#
# Elastic Compliance Matrix: (Units=1/GPa)
#
#
# Indices 1 2 3 4 5 6 
#
# 1 0.017752 -0.004068 -0.006149 0.000000 0.000000 0.000000
# 2 -0.004068 0.017699 -0.000544 0.000000 0.000000 0.000000
# 3 -0.006149 -0.000544 0.012764 0.000000 0.000000 0.000000
# 4 0.000000 0.000000 0.000000 0.059053 0.000000 0.000000
# 5 0.000000 0.000000 0.000000 0.000000 0.030791 0.000000
# 6 0.000000 0.000000 0.000000 0.000000 0.000000 0.028850
#
#
# Mechanical properties :
#
#
# Convention : Reuss Voigt Hill
#
# Bulk Modulus (GPa) = 37.46341 39.96104 38.71223
# Shear Modulus (GPa) = 25.33815 27.81352 26.57584
#
# Velocity S-wave (km/s) = 3.80468 3.98619 3.89649
# Velocity P-wave (km/s) = 6.37992 6.63445 6.50843
#
# Compressibility (1/GPa) = 0.02669271
#
# Stress axis : x y z
#
# Youngs Moduli (GPa) = 56.33042 56.49992 78.34489
#
# Poissons Ratio (x) = 0.22986 0.48172
# Poissons Ratio (y) = 0.22917 0.04265
# Poissons Ratio (z) = 0.34636 0.03075
#
# Static dielectric constant tensor:
#      x y z
#    x 1.524010 0.000000 0.000000 
#    y 0.000000 1.733840 0.000000 
#    z 0.000000 0.000000 1.617070 
# 
# From -- ./inp_files/70009.got.cif
#   From: 2010.05.17/outbox.cif.g08.bks.cpg/sg66_36_cif.got.tgz:70009.got - 2010.06.03 17:51:23.
