data_PCOD9499136
_publ_section_title
;
Structure prediction by ZEFSAII (Michael W. Deem and Ramdas Pophale) SiO2 
 PCOD9499136
Probable space group: C C C M
;
_chemical_formula_sum "Si O2"
_cell_formula_units_Z 92
_cell_length_a 8.581374
_cell_length_b 20.670318
_cell_length_c 23.713483
_cell_angle_alpha 90.000000
_cell_angle_beta 90.000000
_cell_angle_gamma 90.000000
_cell_volume 4206.291199
_symmetry_space_group_name_H-M "C C C M"
_symmetry_group_IT_number 66
_symmetry_cell_setting 'orthorhombic'
loop_
_space_group_symop_operation_xyz
x,y,z
-x,-y,z
x,-y,1/2-z
-x,y,1/2-z
-x,-y,-z
x,y,-z
-x,y,1/2+z
x,-y,1/2+z
1/2+x,1/2+y,z
1/2-x,1/2-y,z
1/2+x,1/2-y,1/2-z
1/2-x,1/2+y,1/2-z
1/2-x,1/2-y,-z
1/2+x,1/2+y,-z
1/2-x,1/2+y,1/2+z
1/2+x,1/2-y,1/2+z
loop_
_atom_site_type_symbol
_atom_site_label
_atom_site_fract_x
_atom_site_fract_y
_atom_site_fract_z
Si Si1 0.581311 0.782094 0.621560
Si Si2 0.499279 0.820730 0.000000
Si Si3 0.418510 0.125942 0.193799
Si Si4 0.935751 0.829367 0.186803
Si Si5 0.279686 0.591793 0.500000
Si Si6 0.280493 0.943661 0.000000
Si Si7 0.529947 0.427528 0.097180
Si Si8 0.000000 0.500000 0.750000
O O1 0.750000 0.750000 0.632810
O O2 0.548468 0.781872 0.555403
O O3 0.536848 0.853817 0.644075
O O4 0.460471 0.738449 0.656066
O O5 0.412509 0.890087 0.000000
O O6 0.676890 0.844097 0.000000
O O7 0.500000 0.154800 0.250000
O O8 0.243847 0.149765 0.185640
O O9 0.410167 0.049652 0.209048
O O10 0.034870 0.879376 0.149016
O O11 0.000000 0.827381 0.250000
O O12 0.193182 0.521333 0.500000
O O13 0.387786 0.591186 0.444553
O O14 0.176993 0.929184 0.944411
O O15 0.500000 0.500000 0.117843
#
# Coordination Sequence:
#
# PCOD9499136 Si02
#       8
#    16   8  16  16   8   8  16   4
#     4  12  26  45  68  99 138 182 227 282 341 402
#     4  12  24  41  64  98 132 175 227 283 339 401
#     4  10  23  48  70  98 136 178 222 279 335 399
#     4  12  25  42  69 102 134 177 231 275 336 406
#     4   9  19  39  64  94 132 173 225 274 336 394
#     4   9  19  40  64  94 136 178 222 269 341 396
#     4   9  20  40  64  95 137 178 219 276 327 401
#     4   8  24  48  74  98 136 176 224 276 342 396
#
# _framework density 21.871998999999999
#
# number of rings (size 3 to 8) (size 9 to 14) (size 15 to 20)
#    0.522    1.043    0.000    5.739    0.000    3.130 
#    9.391    2.609    0.000    0.000    0.000    0.000 
#    0.000    0.000    0.000    0.000    0.000    0.000 
#
# Total GULP energy -256950.497430 kJ/mol
# GULP energy per Si atom -5585.880379 kJ/mol
# Density = 2.182222 g / cm^3
# Si number density = 21.871999 Si / 1000 Ang^3
#
#
#
# Elastic Constant Matrix: (Units=GPa)
#
#
# Indices 1 2 3 4 5 6 
#
# 1 91.9371 40.9401 13.1558 0.0000 0.0000 0.0000
# 2 40.9401 91.5985 45.1890 0.0000 0.0000 0.0000
# 3 13.1558 45.1890 134.5556 0.0000 0.0000 0.0000
# 4 0.0000 0.0000 0.0000 89.7266 0.0000 0.0000
# 5 0.0000 0.0000 0.0000 0.0000 -2.0050 0.0000
# 6 0.0000 0.0000 0.0000 0.0000 0.0000 25.9807
#
#
#
# Elastic Compliance Matrix: (Units=1/GPa)
#
#
# Indices 1 2 3 4 5 6 
#
# 1 0.013662 -0.006529 0.000857 0.000000 0.000000 0.000000
# 2 -0.006529 0.016205 -0.004804 0.000000 0.000000 0.000000
# 3 0.000857 -0.004804 0.008961 0.000000 0.000000 0.000000
# 4 0.000000 0.000000 0.000000 0.011145 0.000000 0.000000
# 5 0.000000 0.000000 0.000000 0.000000 -0.498763 0.000000
# 6 0.000000 0.000000 0.000000 0.000000 0.000000 0.038490
#
#
# Mechanical properties :
#
#
# Convention : Reuss Voigt Hill
#
# Bulk Modulus (GPa) = 55.93931 57.40678 56.67304
# Shear Modulus (GPa) = -13.04161 37.32756 12.14298
#
# Velocity S-wave (km/s) = -2.44451 4.13563 2.35879
# Velocity P-wave (km/s) = 4.20283 7.00773 5.77806
#
# Compressibility (1/GPa) = 0.01787652
#
# Stress axis : x y z
#
# Youngs Moduli (GPa) = 73.19718 61.70815 111.58877
#
# Poissons Ratio (x) = 0.40289 -0.09562
# Poissons Ratio (y) = 0.47790 0.53608
# Poissons Ratio (z) = -0.06272 0.29645
#
# Static dielectric constant tensor:
#      x y z
#    x 1.807630 0.000000 0.000000 
#    y 0.000000 1.858880 0.000000 
#    z 0.000000 0.000000 1.780920 
# 
# From -- ./inp_files/55548.got.cif
#   From: 2010.05.17/outbox.cif.g08.bks.cpg/sg66_28_cif.got.tgz:55548.got - 2010.06.03 17:51:23.
