data_PCOD9499457
_publ_section_title
;
Structure prediction by ZEFSAII (Michael W. Deem and Ramdas Pophale) SiO2 
 PCOD9499457
Probable space group: C C C M
;
_chemical_formula_sum "Si O2"
_cell_formula_units_Z 80
_cell_length_a 9.543297
_cell_length_b 25.757011
_cell_length_c 18.303812
_cell_angle_alpha 90.000000
_cell_angle_beta 90.000000
_cell_angle_gamma 90.000000
_cell_volume 4499.201562
_symmetry_space_group_name_H-M "C C C M"
_symmetry_group_IT_number 66
_symmetry_cell_setting 'orthorhombic'
loop_
_space_group_symop_operation_xyz
x,y,z
-x,-y,z
x,-y,1/2-z
-x,y,1/2-z
-x,-y,-z
x,y,-z
-x,y,1/2+z
x,-y,1/2+z
1/2+x,1/2+y,z
1/2-x,1/2-y,z
1/2+x,1/2-y,1/2-z
1/2-x,1/2+y,1/2-z
1/2-x,1/2-y,-z
1/2+x,1/2+y,-z
1/2-x,1/2+y,1/2+z
1/2+x,1/2-y,1/2+z
loop_
_atom_site_type_symbol
_atom_site_label
_atom_site_fract_x
_atom_site_fract_y
_atom_site_fract_z
Si Si1 0.707877 0.928401 0.086311
Si Si2 0.442108 0.113585 0.326625
Si Si3 0.988534 0.893226 0.586412
Si Si4 0.796900 0.971643 0.325405
Si Si5 0.257919 0.689979 0.912984
O O1 0.571685 0.907417 0.126594
O O2 0.845684 0.893001 0.099748
O O3 0.747957 0.984590 0.117860
O O4 0.683399 0.931271 0.000000
O O5 0.500000 0.133761 0.250000
O O6 0.333819 0.066666 0.310801
O O7 0.357237 0.156466 0.371131
O O8 0.967858 0.906570 0.500000
O O9 0.917393 0.936947 0.637222
O O10 0.906038 0.839479 0.599814
O O11 0.835551 0.000000 0.250000
O O12 0.250000 0.750000 0.891096
O O13 0.231729 0.687328 0.000000
#
# Coordination Sequence:
#
# PCOD9499457 Si02
#       5
#    16  16  16  16  16
#     4  11  22  35  55  83 116 153 190 234 282 337
#     4  11  22  38  55  82 118 147 188 239 284 342
#     4   9  20  37  56  84 116 146 192 239 277 335
#     4  11  21  35  54  81 116 158 190 224 275 339
#     4   9  19  40  66  84 106 149 196 240 293 349
#
# _framework density 17.780932
#
# number of rings (size 3 to 8) (size 9 to 14) (size 15 to 20)
#    0.000    1.800    2.000    2.400    0.000    6.400 
#    0.000    3.000    0.000    4.800    0.000    0.000 
#    0.000    0.000    0.000    0.000    0.000    0.000 
#
# Total GULP energy -223403.381004 kJ/mol
# GULP energy per Si atom -5585.084525 kJ/mol
# Density = 1.774046 g / cm^3
# Si number density = 17.780932 Si / 1000 Ang^3
#
#
#
# Elastic Constant Matrix: (Units=GPa)
#
#
# Indices 1 2 3 4 5 6 
#
# 1 82.5133 30.9426 28.5692 0.0000 0.0000 0.0000
# 2 30.9426 102.8735 29.0376 0.0000 0.0000 0.0000
# 3 28.5692 29.0376 58.5316 0.0000 0.0000 0.0000
# 4 0.0000 0.0000 0.0000 8.0631 0.0000 0.0000
# 5 0.0000 0.0000 0.0000 0.0000 2.8728 0.0000
# 6 0.0000 0.0000 0.0000 0.0000 0.0000 6.7107
#
#
#
# Elastic Compliance Matrix: (Units=1/GPa)
#
#
# Indices 1 2 3 4 5 6 
#
# 1 0.015293 -0.002899 -0.006026 0.000000 0.000000 0.000000
# 2 -0.002899 0.011853 -0.004465 0.000000 0.000000 0.000000
# 3 -0.006026 -0.004465 0.022242 0.000000 0.000000 0.000000
# 4 0.000000 0.000000 0.000000 0.124023 0.000000 0.000000
# 5 0.000000 0.000000 0.000000 0.000000 0.348092 0.000000
# 6 0.000000 0.000000 0.000000 0.000000 0.000000 0.149016
#
#
# Mechanical properties :
#
#
# Convention : Reuss Voigt Hill
#
# Bulk Modulus (GPa) = 44.23538 46.77969 45.50753
# Shear Modulus (GPa) = 7.09387 13.88724 10.49055
#
# Velocity S-wave (km/s) = 1.99956 2.79770 2.43160
# Velocity P-wave (km/s) = 5.50118 6.06648 5.79073
#
# Compressibility (1/GPa) = 0.02260634
#
# Stress axis : x y z
#
# Youngs Moduli (GPa) = 65.38999 84.36673 44.96096
#
# Poissons Ratio (x) = 0.24456 0.27095
# Poissons Ratio (y) = 0.18955 0.20077
# Poissons Ratio (z) = 0.39406 0.37673
#
# Static dielectric constant tensor:
#      x y z
#    x 1.615710 0.000000 0.000000 
#    y 0.000000 1.578820 0.000000 
#    z 0.000000 0.000000 1.604390 
# 
# From -- ./inp_files/36937.got.cif
#   From: 2010.05.17/outbox.cif.g08.bks.cpg/sg66_19_cif.got.tgz:36937.got - 2010.06.03 17:51:23.
