data_PCOD9499758
_publ_section_title
;
Structure prediction by ZEFSAII (Michael W. Deem and Ramdas Pophale) SiO2 
 PCOD9499758
Probable space group: C C C M
;
_chemical_formula_sum "Si O2"
_cell_formula_units_Z 72
_cell_length_a 9.384445
_cell_length_b 27.487922
_cell_length_c 14.711993
_cell_angle_alpha 90.000000
_cell_angle_beta 90.000000
_cell_angle_gamma 90.000000
_cell_volume 3795.089416
_symmetry_space_group_name_H-M "C C C M"
_symmetry_group_IT_number 66
_symmetry_cell_setting 'orthorhombic'
loop_
_space_group_symop_operation_xyz
x,y,z
-x,-y,z
x,-y,1/2-z
-x,y,1/2-z
-x,-y,-z
x,y,-z
-x,y,1/2+z
x,-y,1/2+z
1/2+x,1/2+y,z
1/2-x,1/2-y,z
1/2+x,1/2-y,1/2-z
1/2-x,1/2+y,1/2-z
1/2-x,1/2-y,-z
1/2+x,1/2+y,-z
1/2-x,1/2+y,1/2+z
1/2+x,1/2-y,1/2+z
loop_
_atom_site_type_symbol
_atom_site_label
_atom_site_fract_x
_atom_site_fract_y
_atom_site_fract_z
Si Si1 0.400663 0.454031 0.890362
Si Si2 0.776770 0.808079 0.500000
Si Si3 0.994965 0.371861 0.500000
Si Si4 0.219836 0.193554 0.000000
Si Si5 0.999203 0.845415 0.856053
Si Si6 0.930811 0.550052 0.151305
O O1 0.500000 0.500000 0.865529
O O2 0.480323 0.403722 0.866459
O O3 0.241558 0.454333 0.847977
O O4 0.380099 0.454925 0.000000
O O5 0.750000 0.750000 0.500000
O O6 0.634724 0.839573 0.500000
O O7 0.866142 0.824864 0.588595
O O8 0.863924 0.335675 0.500000
O O9 0.978332 0.406487 0.413225
O O10 0.250000 0.250000 0.000000
O O11 0.131791 0.177826 0.088829
O O12 0.000000 0.833166 0.750000
O O13 0.000000 0.500000 0.115794
O O14 0.000000 0.557319 0.250000
#
# Coordination Sequence:
#
# PCOD9499758 Si02
#       6
#    16   8   8   8  16  16
#     4  11  23  43  71  99 135 185 226 264 331 402
#     4  11  27  46  66 101 131 173 224 287 339 393
#     4  12  23  42  71  92 134 175 220 268 340 391
#     4  11  23  48  70  90 129 178 219 285 338 393
#     4  11  24  44  69 100 134 170 227 272 333 406
#     4  11  25  40  63 102 139 173 215 268 328 392
#
# _framework density 18.971886000000001
#
# number of rings (size 3 to 8) (size 9 to 14) (size 15 to 20)
#    0.000    0.889    5.556    1.667    6.222    3.111 
#    0.000    2.222    0.000    0.000    0.000    0.000 
#    0.000    0.000    0.000    0.000    0.000    0.000 
#
# Total GULP energy -201257.341135 kJ/mol
# GULP energy per Si atom -5590.481698 kJ/mol
# Density = 1.892870 g / cm^3
# Si number density = 18.971886 Si / 1000 Ang^3
#
#
#
# Elastic Constant Matrix: (Units=GPa)
#
#
# Indices 1 2 3 4 5 6 
#
# 1 181.4233 97.3590 84.0666 0.0000 0.0000 0.0000
# 2 97.3590 206.6174 72.4299 0.0000 0.0000 0.0000
# 3 84.0666 72.4299 165.0526 0.0000 0.0000 0.0000
# 4 0.0000 0.0000 0.0000 29.6681 0.0000 0.0000
# 5 0.0000 0.0000 0.0000 0.0000 15.5786 0.0000
# 6 0.0000 0.0000 0.0000 0.0000 0.0000 45.8893
#
#
#
# Elastic Compliance Matrix: (Units=1/GPa)
#
#
# Indices 1 2 3 4 5 6 
#
# 1 0.008497 -0.002939 -0.003038 0.000000 0.000000 0.000000
# 2 -0.002939 0.006736 -0.001459 0.000000 0.000000 0.000000
# 3 -0.003038 -0.001459 0.008246 0.000000 0.000000 0.000000
# 4 0.000000 0.000000 0.000000 0.033706 0.000000 0.000000
# 5 0.000000 0.000000 0.000000 0.000000 0.064190 0.000000
# 6 0.000000 0.000000 0.000000 0.000000 0.000000 0.021792
#
#
# Mechanical properties :
#
#
# Convention : Reuss Voigt Hill
#
# Bulk Modulus (GPa) = 116.18090 117.86715 117.02402
# Shear Modulus (GPa) = 31.07352 38.17639 34.62495
#
# Velocity S-wave (km/s) = 4.05145 4.49069 4.27671
# Velocity P-wave (km/s) = 9.12453 9.44196 9.28460
#
# Compressibility (1/GPa) = 0.00860727
#
# Stress axis : x y z
#
# Youngs Moduli (GPa) = 117.69183 148.45322 121.26470
#
# Poissons Ratio (x) = 0.43626 0.36841
# Poissons Ratio (y) = 0.34586 0.17695
# Poissons Ratio (z) = 0.35756 0.21663
#
# Static dielectric constant tensor:
#      x y z
#    x 1.653280 0.000000 0.000000 
#    y 0.000000 1.648680 0.000000 
#    z 0.000000 0.000000 1.655960 
# 
# From -- ./inp_files/24544.got.cif
#   From: 2010.05.17/outbox.cif.g08.bks.cpg/sg66_13_cif.got.tgz:24544.got - 2010.06.03 17:51:23.
