data_PCOD9499535
_publ_section_title
;
Structure prediction by ZEFSAII (Michael W. Deem and Ramdas Pophale) SiO2 
 PCOD9499535
Probable space group: C C C M
;
_chemical_formula_sum "Si O2"
_cell_formula_units_Z 112
_cell_length_a 14.816905
_cell_length_b 22.562039
_cell_length_c 17.790861
_cell_angle_alpha 90.000000
_cell_angle_beta 90.000000
_cell_angle_gamma 90.000000
_cell_volume 5947.477511
_symmetry_space_group_name_H-M "C C C M"
_symmetry_group_IT_number 66
_symmetry_cell_setting 'orthorhombic'
loop_
_space_group_symop_operation_xyz
x,y,z
-x,-y,z
x,-y,1/2-z
-x,y,1/2-z
-x,-y,-z
x,y,-z
-x,y,1/2+z
x,-y,1/2+z
1/2+x,1/2+y,z
1/2-x,1/2-y,z
1/2+x,1/2-y,1/2-z
1/2-x,1/2+y,1/2-z
1/2-x,1/2-y,-z
1/2+x,1/2+y,-z
1/2-x,1/2+y,1/2+z
1/2+x,1/2-y,1/2+z
loop_
_atom_site_type_symbol
_atom_site_label
_atom_site_fract_x
_atom_site_fract_y
_atom_site_fract_z
Si Si1 0.605286 0.484096 0.333345
Si Si2 0.092140 0.646123 0.701393
Si Si3 0.089313 0.150396 0.197527
Si Si4 0.245026 0.934594 0.911885
Si Si5 0.252642 0.681792 0.187964
Si Si6 0.899130 0.485871 0.338306
Si Si7 0.640154 0.248360 0.589708
O O1 0.500000 0.500000 0.336871
O O2 0.640528 0.500000 0.250000
O O3 0.613766 0.413636 0.336319
O O4 0.659233 0.524735 0.390671
O O5 0.164900 0.667122 0.762479
O O6 0.117673 0.584240 0.661677
O O7 0.095599 0.694166 0.635158
O O8 0.000000 0.639441 0.750000
O O9 0.164541 0.174045 0.254805
O O10 0.091694 0.195264 0.127854
O O11 0.000000 0.145508 0.250000
O O12 0.239283 0.870344 0.873002
O O13 0.328686 0.972515 0.879938
O O14 0.253170 0.927416 0.000000
O O15 0.250000 0.750000 0.160709
O O16 0.894929 0.500000 0.250000
O O17 0.000000 0.500000 0.365475
O O18 0.627516 0.245338 0.500000
O O19 0.750000 0.250000 0.603320
#
# Coordination Sequence:
#
# PCOD9499535 Si02
#       7
#    16  16  16  16  16  16  16
#     4  11  21  41  69  97 120 162 216 269 309 379
#     4  12  21  40  72  95 123 171 221 260 315 383
#     4  12  21  40  72  95 123 171 221 260 315 383
#     4  12  26  41  63  96 134 168 204 266 336 380
#     4  12  23  40  64  94 122 172 225 264 301 382
#     4  11  21  41  69  97 120 162 216 269 309 379
#     4  11  25  42  62 101 140 164 208 274 329 373
#
# _framework density 18.831513000000001
#
# number of rings (size 3 to 8) (size 9 to 14) (size 15 to 20)
#    0.000    0.429    8.571    1.714    0.000    2.000 
#    0.000    4.286    0.000    0.000    0.000    0.000 
#    0.000    0.000    0.000    0.000    0.000    0.000 
#
# Total GULP energy -312762.498598 kJ/mol
# GULP energy per Si atom -5585.044618 kJ/mol
# Density = 1.878865 g / cm^3
# Si number density = 18.831513 Si / 1000 Ang^3
#
#
#
# Elastic Constant Matrix: (Units=GPa)
#
#
# Indices 1 2 3 4 5 6 
#
# 1 66.7201 9.0189 20.0395 0.0000 0.0000 0.0000
# 2 9.0189 192.4230 48.3702 0.0000 0.0000 0.0000
# 3 20.0395 48.3702 106.4132 0.0000 0.0000 0.0000
# 4 0.0000 0.0000 0.0000 21.4655 0.0000 0.0000
# 5 0.0000 0.0000 0.0000 0.0000 57.7965 0.0000
# 6 0.0000 0.0000 0.0000 0.0000 0.0000 23.0751
#
#
#
# Elastic Compliance Matrix: (Units=1/GPa)
#
#
# Indices 1 2 3 4 5 6 
#
# 1 0.015887 0.000008 -0.002996 0.000000 0.000000 0.000000
# 2 0.000008 0.005867 -0.002669 0.000000 0.000000 0.000000
# 3 -0.002996 -0.002669 0.011174 0.000000 0.000000 0.000000
# 4 0.000000 0.000000 0.000000 0.046586 0.000000 0.000000
# 5 0.000000 0.000000 0.000000 0.000000 0.017302 0.000000
# 6 0.000000 0.000000 0.000000 0.000000 0.000000 0.043337
#
#
# Mechanical properties :
#
#
# Convention : Reuss Voigt Hill
#
# Bulk Modulus (GPa) = 46.26011 57.82372 52.04191
# Shear Modulus (GPa) = 31.51180 39.67592 35.59386
#
# Velocity S-wave (km/s) = 4.09510 4.59507 4.35227
# Velocity P-wave (km/s) = 6.85408 7.67628 7.27680
#
# Compressibility (1/GPa) = 0.02161690
#
# Stress axis : x y z
#
# Youngs Moduli (GPa) = 62.94628 170.43612 89.48988
#
# Poissons Ratio (x) = -0.00143 0.26807
# Poissons Ratio (y) = -0.00053 0.23881
# Poissons Ratio (z) = 0.18856 0.45482
#
# Static dielectric constant tensor:
#      x y z
#    x 1.681670 0.000000 0.000000 
#    y 0.000000 1.718970 0.000000 
#    z 0.000000 0.000000 1.608940 
# 
# From -- ./inp_files/28701.got.cif
#   From: 2010.05.17/outbox.cif.g08.bks.cpg/sg66_15_cif.got.tgz:28701.got - 2010.06.03 17:51:23.
