data_PCOD9499143
_publ_section_title
;
Structure prediction by ZEFSAII (Michael W. Deem and Ramdas Pophale) SiO2 
 PCOD9499143
Probable space group: C C C M
;
_chemical_formula_sum "Si O2"
_cell_formula_units_Z 60
_cell_length_a 27.079378
_cell_length_b 10.408138
_cell_length_c 9.172237
_cell_angle_alpha 90.000000
_cell_angle_beta 90.000000
_cell_angle_gamma 90.000000
_cell_volume 2585.157421
_symmetry_space_group_name_H-M "C C C M"
_symmetry_group_IT_number 66
_symmetry_cell_setting 'orthorhombic'
loop_
_space_group_symop_operation_xyz
x,y,z
-x,-y,z
x,-y,1/2-z
-x,y,1/2-z
-x,-y,-z
x,y,-z
-x,y,1/2+z
x,-y,1/2+z
1/2+x,1/2+y,z
1/2-x,1/2-y,z
1/2+x,1/2-y,1/2-z
1/2-x,1/2+y,1/2-z
1/2-x,1/2-y,-z
1/2+x,1/2+y,-z
1/2-x,1/2+y,1/2+z
1/2+x,1/2-y,1/2+z
loop_
_atom_site_type_symbol
_atom_site_label
_atom_site_fract_x
_atom_site_fract_y
_atom_site_fract_z
Si Si1 0.633634 0.324220 0.000000
Si Si2 0.750000 0.250000 0.748599
Si Si3 0.500000 0.000000 0.250000
Si Si4 0.532955 0.175566 0.000000
Si Si5 0.176030 0.301032 0.000000
Si Si6 0.289010 0.093606 0.500000
Si Si7 0.607481 0.500000 0.250000
Si Si8 0.929779 0.822315 0.000000
O O1 0.577359 0.274304 0.000000
O O2 0.667771 0.200151 0.000000
O O3 0.639029 0.412543 0.141282
O O4 0.796699 0.242912 0.641040
O O5 0.742174 0.129668 0.856746
O O6 0.533189 0.086743 0.143589
O O7 0.480230 0.245307 0.000000
O O8 0.118395 0.269456 0.000000
O O9 0.189086 0.452029 0.000000
O O10 0.575158 0.410660 0.356683
#
# Coordination Sequence:
#
# PCOD9499143 Si02
#       8
#     8   8   4   8   8   8   8   8
#     4  11  24  45  69 105 137 185 229 275 347 404
#     4  10  24  46  62 102 126 174 230 264 352 388
#     4  10  24  38  60 104 138 186 210 286 338 382
#     4  11  24  43  68 104 142 189 227 276 342 400
#     4  11  24  47  71 103 134 179 221 290 341 415
#     4  11  24  47  71 103 134 179 221 290 341 415
#     4  10  24  43  64 102 135 190 225 286 320 401
#     4  11  24  45  69 105 137 185 229 275 347 404
#
# _framework density 23.209420000000001
#
# number of rings (size 3 to 8) (size 9 to 14) (size 15 to 20)
#    0.000    1.333    0.000    4.000    3.733    3.200 
#   48.000    0.000    0.000    0.000    0.000    0.000 
#    0.000    0.000    0.000    0.000    0.000    0.000 
#
# Total GULP energy -168123.929907 kJ/mol
# GULP energy per Si atom -5604.130997 kJ/mol
# Density = 2.315659 g / cm^3
# Si number density = 23.209420 Si / 1000 Ang^3
#
#
#
# Elastic Constant Matrix: (Units=GPa)
#
#
# Indices 1 2 3 4 5 6 
#
# 1 157.4469 78.2179 52.8199 0.0000 0.0000 0.0000
# 2 78.2179 156.7274 86.5198 0.0000 0.0000 0.0000
# 3 52.8199 86.5198 198.7143 0.0000 0.0000 0.0000
# 4 0.0000 0.0000 0.0000 53.4281 0.0000 0.0000
# 5 0.0000 0.0000 0.0000 0.0000 12.3558 0.0000
# 6 0.0000 0.0000 0.0000 0.0000 0.0000 -0.1476
#
#
#
# Elastic Compliance Matrix: (Units=1/GPa)
#
#
# Indices 1 2 3 4 5 6 
#
# 1 0.008489 -0.003937 -0.000542 0.000000 0.000000 0.000000
# 2 -0.003937 0.010226 -0.003406 0.000000 0.000000 0.000000
# 3 -0.000542 -0.003406 0.006659 0.000000 0.000000 0.000000
# 4 0.000000 0.000000 0.000000 0.018717 0.000000 0.000000
# 5 0.000000 0.000000 0.000000 0.000000 0.080934 0.000000
# 6 0.000000 0.000000 0.000000 0.000000 0.000000 -6.773485
#
#
# Mechanical properties :
#
#
# Convention : Reuss Voigt Hill
#
# Bulk Modulus (GPa) = 104.12633 105.33376 104.73004
# Shear Modulus (GPa) = -0.75421 32.81599 16.03089
#
# Velocity S-wave (km/s) = -0.57067 3.76428 2.63098
# Velocity P-wave (km/s) = 6.67286 8.02344 7.37911
#
# Compressibility (1/GPa) = 0.00960372
#
# Stress axis : x y z
#
# Youngs Moduli (GPa) = 117.79503 97.79367 150.16695
#
# Poissons Ratio (x) = 0.38506 0.08141
# Poissons Ratio (y) = 0.46381 0.51141
# Poissons Ratio (z) = 0.06386 0.33305
#
# Static dielectric constant tensor:
#      x y z
#    x 1.824050 0.000000 0.000000 
#    y 0.000000 1.851680 0.000000 
#    z 0.000000 0.000000 1.869020 
# 
# From -- ./inp_files/9867.got.cif
#   From: 2010.05.17/outbox.cif.g08.bks.cpg/sg66_5_cif.got.tgz:9867.got - 2010.06.03 17:51:23.
