data_PCOD9499913
_publ_section_title
;
Structure prediction by ZEFSAII (Michael W. Deem and Ramdas Pophale) SiO2 
 PCOD9499913
Probable space group: C C C M
;
_chemical_formula_sum "Si O2"
_cell_formula_units_Z 40
_cell_length_a 14.999272
_cell_length_b 11.241483
_cell_length_c 10.110686
_cell_angle_alpha 90.000000
_cell_angle_beta 90.000000
_cell_angle_gamma 90.000000
_cell_volume 1704.803828
_symmetry_space_group_name_H-M "C C C M"
_symmetry_group_IT_number 66
_symmetry_cell_setting 'orthorhombic'
loop_
_space_group_symop_operation_xyz
x,y,z
-x,-y,z
x,-y,1/2-z
-x,y,1/2-z
-x,-y,-z
x,y,-z
-x,y,1/2+z
x,-y,1/2+z
1/2+x,1/2+y,z
1/2-x,1/2-y,z
1/2+x,1/2-y,1/2-z
1/2-x,1/2+y,1/2-z
1/2-x,1/2-y,-z
1/2+x,1/2+y,-z
1/2-x,1/2+y,1/2+z
1/2+x,1/2-y,1/2+z
loop_
_atom_site_type_symbol
_atom_site_label
_atom_site_fract_x
_atom_site_fract_y
_atom_site_fract_z
Si Si1 0.416134 0.410448 0.000000
Si Si2 0.152479 0.294935 0.500000
Si Si3 0.297452 0.064206 0.000000
Si Si4 0.092199 0.291562 0.214924
O O1 0.500000 0.500000 0.000000
O O2 0.424728 0.323497 0.874281
O O3 0.310463 0.450303 0.000000
O O4 0.250000 0.250000 0.500000
O O5 0.153709 0.437799 0.500000
O O6 0.117792 0.251248 0.360577
O O7 0.334725 0.134123 0.130361
O O8 0.000000 0.359140 0.250000
#
# Coordination Sequence:
#
# PCOD9499913 Si02
#       4
#     8   8   8  16
#     4  11  26  51  74 109 153 218 259 324 394 475
#     4  12  25  42  72 109 150 194 253 324 390 456
#     4  11  25  47  76 106 159 208 259 319 402 468
#     4  11  25  46  74 111 151 201 259 323 388 477
#
# _framework density 23.463107999999998
#
# number of rings (size 3 to 8) (size 9 to 14) (size 15 to 20)
#    0.000    0.800    0.000    8.400    5.600    5.600 
#    0.000    1.000    0.000    0.000    0.000    0.000 
#    0.000    0.000    0.000    0.000    0.000    0.000 
#
# Total GULP energy -111649.620009 kJ/mol
# GULP energy per Si atom -5582.481000 kJ/mol
# Density = 2.340971 g / cm^3
# Si number density = 23.463108 Si / 1000 Ang^3
#
#
#
# Elastic Constant Matrix: (Units=GPa)
#
#
# Indices 1 2 3 4 5 6 
#
# 1 171.7610 22.2493 71.8927 0.0000 0.0000 0.0000
# 2 22.2493 100.3481 58.6019 0.0000 0.0000 0.0000
# 3 71.8927 58.6019 258.2222 0.0000 0.0000 0.0000
# 4 0.0000 0.0000 0.0000 -13.3088 0.0000 0.0000
# 5 0.0000 0.0000 0.0000 0.0000 39.5309 0.0000
# 6 0.0000 0.0000 0.0000 0.0000 0.0000 40.8181
#
#
#
# Elastic Compliance Matrix: (Units=1/GPa)
#
#
# Indices 1 2 3 4 5 6 
#
# 1 0.006608 -0.000450 -0.001737 0.000000 0.000000 0.000000
# 2 -0.000450 0.011519 -0.002489 0.000000 0.000000 0.000000
# 3 -0.001737 -0.002489 0.004921 0.000000 0.000000 0.000000
# 4 0.000000 0.000000 0.000000 -0.075138 0.000000 0.000000
# 5 0.000000 0.000000 0.000000 0.000000 0.025297 0.000000
# 6 0.000000 0.000000 0.000000 0.000000 0.000000 0.024499
#
#
# Mechanical properties :
#
#
# Convention : Reuss Voigt Hill
#
# Bulk Modulus (GPa) = 73.02320 92.86878 82.94599
# Shear Modulus (GPa) = 430.21170 38.58054 234.39612
#
# Velocity S-wave (km/s) = 13.55562 4.05940 10.00583
# Velocity P-wave (km/s) = 16.61916 7.85101 12.99682
#
# Compressibility (1/GPa) = 0.01369428
#
# Stress axis : x y z
#
# Youngs Moduli (GPa) = 151.34056 86.81677 203.20480
#
# Poissons Ratio (x) = 0.03910 0.35306
# Poissons Ratio (y) = 0.06816 0.50571
# Poissons Ratio (z) = 0.26294 0.21606
#
# Static dielectric constant tensor:
#      x y z
#    x 1.924370 0.000000 0.000000 
#    y 0.000000 1.769510 0.000000 
#    z 0.000000 0.000000 1.804890 
# 
# From -- ./inp_files/4371.got.cif
#   From: 2010.05.17/outbox.cif.g08.bks.cpg/sg66_3_cif.got.tgz:4371.got - 2010.06.03 17:51:23.
