data_PCOD9499011
_publ_section_title
;
Structure prediction by ZEFSAII (Michael W. Deem and Ramdas Pophale) SiO2 
 PCOD9499011
Probable space group: C C C M
;
_chemical_formula_sum "Si O2"
_cell_formula_units_Z 56
_cell_length_a 5.666866
_cell_length_b 29.178889
_cell_length_c 14.597891
_cell_angle_alpha 90.000000
_cell_angle_beta 90.000000
_cell_angle_gamma 90.000000
_cell_volume 2413.802939
_symmetry_space_group_name_H-M "C C C M"
_symmetry_group_IT_number 66
_symmetry_cell_setting 'orthorhombic'
loop_
_space_group_symop_operation_xyz
x,y,z
-x,-y,z
x,-y,1/2-z
-x,y,1/2-z
-x,-y,-z
x,y,-z
-x,y,1/2+z
x,-y,1/2+z
1/2+x,1/2+y,z
1/2-x,1/2-y,z
1/2+x,1/2-y,1/2-z
1/2-x,1/2+y,1/2-z
1/2-x,1/2-y,-z
1/2+x,1/2+y,-z
1/2-x,1/2+y,1/2+z
1/2+x,1/2-y,1/2+z
loop_
_atom_site_type_symbol
_atom_site_label
_atom_site_fract_x
_atom_site_fract_y
_atom_site_fract_z
Si Si1 0.610699 0.131977 0.649290
Si Si2 0.000000 0.915112 0.750000
Si Si3 0.333204 0.043732 0.398783
Si Si4 0.503851 0.766268 0.895660
O O1 0.500000 0.135333 0.750000
O O2 0.877617 0.118098 0.674500
O O3 0.497576 0.088590 0.600532
O O4 0.539393 0.179193 0.602945
O O5 0.167008 0.947165 0.811699
O O6 0.217606 0.039645 0.500000
O O7 0.500000 0.000000 0.385199
O O8 0.750000 0.750000 0.850849
O O9 0.250000 0.750000 0.857395
O O10 0.504194 0.747561 0.000000
#
# Coordination Sequence:
#
# PCOD9499011 Si02
#       4
#    16   8  16  16
#     4  10  23  40  63  96 134 176 224 290 352 421
#     4  10  24  43  70 102 138 184 236 300 361 426
#     4  10  23  43  69 101 137 181 232 288 360 433
#     4  10  23  41  65  96 132 179 234 292 355 426
#
# _framework density 23.199905999999999
#
# number of rings (size 3 to 8) (size 9 to 14) (size 15 to 20)
#    0.000    2.000    0.000    0.857    8.000   10.857 
#    0.000    2.857    0.000    0.857    0.000    0.000 
#    0.000    0.000    0.000    0.000    0.000    0.000 
#
# Total GULP energy -156211.655006 kJ/mol
# GULP energy per Si atom -5578.987679 kJ/mol
# Density = 2.314710 g / cm^3
# Si number density = 23.199906 Si / 1000 Ang^3
#
#
#
# Elastic Constant Matrix: (Units=GPa)
#
#
# Indices 1 2 3 4 5 6 
#
# 1 146.4509 71.3685 38.0496 0.0000 0.0000 0.0000
# 2 71.3685 168.4391 14.0396 0.0000 0.0000 0.0000
# 3 38.0496 14.0396 112.6406 0.0000 0.0000 0.0000
# 4 0.0000 0.0000 0.0000 23.6368 0.0000 0.0000
# 5 0.0000 0.0000 0.0000 0.0000 -5.1322 0.0000
# 6 0.0000 0.0000 0.0000 0.0000 0.0000 26.7179
#
#
#
# Elastic Compliance Matrix: (Units=1/GPa)
#
#
# Indices 1 2 3 4 5 6 
#
# 1 0.009349 -0.003737 -0.002692 0.000000 0.000000 0.000000
# 2 -0.003737 0.007493 0.000328 0.000000 0.000000 0.000000
# 3 -0.002692 0.000328 0.009746 0.000000 0.000000 0.000000
# 4 0.000000 0.000000 0.000000 0.042307 0.000000 0.000000
# 5 0.000000 0.000000 0.000000 0.000000 -0.194849 0.000000
# 6 0.000000 0.000000 0.000000 0.000000 0.000000 0.037428
#
#
# Mechanical properties :
#
#
# Convention : Reuss Voigt Hill
#
# Bulk Modulus (GPa) = 69.50912 74.93846 72.22379
# Shear Modulus (GPa) = -69.90078 29.31604 -20.29237
#
# Velocity S-wave (km/s) = -5.49501 3.55861 -2.96070
# Velocity P-wave (km/s) = 3.19910 7.01828 4.41713
#
# Compressibility (1/GPa) = 0.01438660
#
# Stress axis : x y z
#
# Youngs Moduli (GPa) = 106.96737 133.46243 102.60321
#
# Poissons Ratio (x) = 0.49871 0.27623
# Poissons Ratio (y) = 0.39970 -0.03369
# Poissons Ratio (z) = 0.28798 -0.04382
#
# Static dielectric constant tensor:
#      x y z
#    x 2.035420 0.000000 0.000000 
#    y 0.000000 1.867940 0.000000 
#    z 0.000000 0.000000 1.903520 
# 
# From -- ./inp_files/22456.got.cif
#   From: 2010.05.17/outbox.cif.g08.bks.cpg/sg66_12_cif.got.tgz:22456.got - 2010.06.03 17:51:23.
