data_PCOD9499867
_publ_section_title
;
Structure prediction by ZEFSAII (Michael W. Deem and Ramdas Pophale) SiO2 
 PCOD9499867
Probable space group: C C C M
;
_chemical_formula_sum "Si O2"
_cell_formula_units_Z 56
_cell_length_a 18.831013
_cell_length_b 14.717779
_cell_length_c 8.607637
_cell_angle_alpha 90.000000
_cell_angle_beta 90.000000
_cell_angle_gamma 90.000000
_cell_volume 2385.612514
_symmetry_space_group_name_H-M "C C C M"
_symmetry_group_IT_number 66
_symmetry_cell_setting 'orthorhombic'
loop_
_space_group_symop_operation_xyz
x,y,z
-x,-y,z
x,-y,1/2-z
-x,y,1/2-z
-x,-y,-z
x,y,-z
-x,y,1/2+z
x,-y,1/2+z
1/2+x,1/2+y,z
1/2-x,1/2-y,z
1/2+x,1/2-y,1/2-z
1/2-x,1/2+y,1/2-z
1/2-x,1/2-y,-z
1/2+x,1/2+y,-z
1/2-x,1/2+y,1/2+z
1/2+x,1/2-y,1/2+z
loop_
_atom_site_type_symbol
_atom_site_label
_atom_site_fract_x
_atom_site_fract_y
_atom_site_fract_z
Si Si1 0.601408 0.098569 0.315280
Si Si2 0.604170 0.409928 0.326360
Si Si3 0.500000 0.250894 0.750000
Si Si4 0.248159 0.358712 0.325030
O O1 0.584511 0.109588 0.500000
O O2 0.561384 0.176088 0.213287
O O3 0.685442 0.110067 0.288021
O O4 0.581474 0.000000 0.250000
O O5 0.572934 0.500000 0.250000
O O6 0.626924 0.431169 0.500000
O O7 0.550292 0.325200 0.333639
O O8 0.674071 0.387721 0.228079
O O9 0.232427 0.391539 0.500000
O O10 0.250000 0.250000 0.325712
#
# Coordination Sequence:
#
# PCOD9499867 Si02
#       4
#    16  16   8  16
#     4  12  27  48  75 107 145 189 239 296 357 426
#     4  12  27  48  75 107 145 189 239 296 357 426
#     4  12  28  46  72 104 140 194 236 294 352 424
#     4  11  24  45  76 108 142 186 238 297 357 423
#
# _framework density 23.474055
#
# number of rings (size 3 to 8) (size 9 to 14) (size 15 to 20)
#    0.000    0.286    2.857    5.143    0.000   12.571 
#    0.000    0.000    0.000    0.000    0.000    0.000 
#    0.000    0.000    0.000    0.000    0.000    0.000 
#
# Total GULP energy -156266.565022 kJ/mol
# GULP energy per Si atom -5580.948751 kJ/mol
# Density = 2.342063 g / cm^3
# Si number density = 23.474055 Si / 1000 Ang^3
#
#
#
# Elastic Constant Matrix: (Units=GPa)
#
#
# Indices 1 2 3 4 5 6 
#
# 1 140.9573 40.9373 26.5039 0.0000 0.0000 0.0000
# 2 40.9373 180.0139 38.1123 0.0000 0.0000 0.0000
# 3 26.5039 38.1123 94.5433 0.0000 0.0000 0.0000
# 4 0.0000 0.0000 0.0000 4.5398 0.0000 0.0000
# 5 0.0000 0.0000 0.0000 0.0000 -9.2663 0.0000
# 6 0.0000 0.0000 0.0000 0.0000 0.0000 4.2277
#
#
#
# Elastic Compliance Matrix: (Units=1/GPa)
#
#
# Indices 1 2 3 4 5 6 
#
# 1 0.007814 -0.001436 -0.001612 0.000000 0.000000 0.000000
# 2 -0.001436 0.006337 -0.002152 0.000000 0.000000 0.000000
# 3 -0.001612 -0.002152 0.011897 0.000000 0.000000 0.000000
# 4 0.000000 0.000000 0.000000 0.220273 0.000000 0.000000
# 5 0.000000 0.000000 0.000000 0.000000 -0.107918 0.000000
# 6 0.000000 0.000000 0.000000 0.000000 0.000000 0.236537
#
#
# Mechanical properties :
#
#
# Convention : Reuss Voigt Hill
#
# Bulk Modulus (GPa) = 63.90343 69.62461 66.76402
# Shear Modulus (GPa) = 12.80229 20.56431 16.68330
#
# Velocity S-wave (km/s) = 2.33787 2.96302 2.66881
# Velocity P-wave (km/s) = 5.87959 6.43666 6.16442
#
# Compressibility (1/GPa) = 0.01564861
#
# Stress axis : x y z
#
# Youngs Moduli (GPa) = 127.96857 157.79564 84.05754
#
# Poissons Ratio (x) = 0.22657 0.13549
# Poissons Ratio (y) = 0.18374 0.18091
# Poissons Ratio (z) = 0.20627 0.33961
#
# Static dielectric constant tensor:
#      x y z
#    x 1.858420 0.000000 0.000000 
#    y 0.000000 1.872980 0.000000 
#    z 0.000000 0.000000 1.856600 
# 
# From -- ./inp_files/7307.got.cif
#   From: 2010.05.17/outbox.cif.g08.bks.cpg/sg66_4_cif.got.tgz:7307.got - 2010.06.03 17:51:23.
