data_PCOD9499078
_publ_section_title
;
Structure prediction by ZEFSAII (Michael W. Deem and Ramdas Pophale) SiO2 
 PCOD9499078
Probable space group: C C C M
;
_chemical_formula_sum "Si O2"
_cell_formula_units_Z 64
_cell_length_a 8.453918
_cell_length_b 23.330890
_cell_length_c 13.654462
_cell_angle_alpha 90.000000
_cell_angle_beta 90.000000
_cell_angle_gamma 90.000000
_cell_volume 2693.171006
_symmetry_space_group_name_H-M "C C C M"
_symmetry_group_IT_number 66
_symmetry_cell_setting 'orthorhombic'
loop_
_space_group_symop_operation_xyz
x,y,z
-x,-y,z
x,-y,1/2-z
-x,y,1/2-z
-x,-y,-z
x,y,-z
-x,y,1/2+z
x,-y,1/2+z
1/2+x,1/2+y,z
1/2-x,1/2-y,z
1/2+x,1/2-y,1/2-z
1/2-x,1/2+y,1/2-z
1/2-x,1/2-y,-z
1/2+x,1/2+y,-z
1/2-x,1/2+y,1/2+z
1/2+x,1/2-y,1/2+z
loop_
_atom_site_type_symbol
_atom_site_label
_atom_site_fract_x
_atom_site_fract_y
_atom_site_fract_z
Si Si1 0.418382 0.587242 0.616978
Si Si2 0.259707 0.817437 0.707750
Si Si3 0.576497 0.868239 0.383927
Si Si4 0.251204 0.023255 0.382714
O O1 0.400020 0.593423 0.500000
O O2 0.387889 0.647408 0.667104
O O3 0.290525 0.540000 0.655363
O O4 0.590348 0.559902 0.633110
O O5 0.250000 0.750000 0.693125
O O6 0.407260 0.844083 0.647289
O O7 0.298709 0.832195 0.820166
O O8 0.600187 0.863260 0.500000
O O9 0.605120 0.935074 0.355921
O O10 0.266147 0.015087 0.500000
#
# Coordination Sequence:
#
# PCOD9499078 Si02
#       4
#    16  16  16  16
#     4   9  18  36  63  94 128 159 196 251 303 359
#     4  11  25  41  60  90 122 160 207 245 297 370
#     4  10  23  43  63  86 120 159 202 255 307 358
#     4   8  17  36  63  94 122 156 201 248 309 364
#
# _framework density 23.763808999999998
#
# number of rings (size 3 to 8) (size 9 to 14) (size 15 to 20)
#    0.000    2.500    0.000    2.250    0.000    9.500 
#    0.000   11.250    0.000    0.000    0.000    0.000 
#    0.000    0.000    0.000    0.000    0.000    0.000 
#
# Total GULP energy -179062.187094 kJ/mol
# GULP energy per Si atom -5595.693347 kJ/mol
# Density = 2.370972 g / cm^3
# Si number density = 23.763809 Si / 1000 Ang^3
#
#
#
# Elastic Constant Matrix: (Units=GPa)
#
#
# Indices 1 2 3 4 5 6 
#
# 1 49.9265 23.7766 37.0441 0.0000 0.0000 0.0000
# 2 23.7766 175.1425 55.0616 0.0000 0.0000 0.0000
# 3 37.0441 55.0616 145.5684 0.0000 0.0000 0.0000
# 4 0.0000 0.0000 0.0000 14.2309 0.0000 0.0000
# 5 0.0000 0.0000 0.0000 0.0000 20.8046 0.0000
# 6 0.0000 0.0000 0.0000 0.0000 0.0000 24.6276
#
#
#
# Elastic Compliance Matrix: (Units=1/GPa)
#
#
# Indices 1 2 3 4 5 6 
#
# 1 0.025074 -0.001587 -0.005781 0.000000 0.000000 0.000000
# 2 -0.001587 0.006581 -0.002085 0.000000 0.000000 0.000000
# 3 -0.005781 -0.002085 0.009129 0.000000 0.000000 0.000000
# 4 0.000000 0.000000 0.000000 0.070270 0.000000 0.000000
# 5 0.000000 0.000000 0.000000 0.000000 0.048066 0.000000
# 6 0.000000 0.000000 0.000000 0.000000 0.000000 0.040605
#
#
# Mechanical properties :
#
#
# Convention : Reuss Voigt Hill
#
# Bulk Modulus (GPa) = 45.70618 66.93357 56.31987
# Shear Modulus (GPa) = 22.13140 28.91630 25.52385
#
# Velocity S-wave (km/s) = 3.05504 3.49208 3.28085
# Velocity P-wave (km/s) = 5.63202 6.66984 6.17278
#
# Compressibility (1/GPa) = 0.02187888
#
# Stress axis : x y z
#
# Youngs Moduli (GPa) = 39.88172 151.96105 109.53512
#
# Poissons Ratio (x) = 0.24110 0.63319
# Poissons Ratio (y) = 0.06328 0.22842
# Poissons Ratio (z) = 0.23054 0.31690
#
# Static dielectric constant tensor:
#      x y z
#    x 1.964130 0.000000 0.000000 
#    y 0.000000 1.863210 0.000000 
#    z 0.000000 0.000000 1.923810 
# 
# From -- ./inp_files/24143.got.cif
#   From: 2010.05.17/outbox.cif.g08.bks.cpg/sg66_13_cif.got.tgz:24143.got - 2010.06.03 17:51:23.
