data_PCOD9499127
_publ_section_title
;
Structure prediction by ZEFSAII (Michael W. Deem and Ramdas Pophale) SiO2 
 PCOD9499127
Probable space group: C C C M
;
_chemical_formula_sum "Si O2"
_cell_formula_units_Z 60
_cell_length_a 4.892462
_cell_length_b 18.110251
_cell_length_c 29.951294
_cell_angle_alpha 90.000000
_cell_angle_beta 90.000000
_cell_angle_gamma 90.000000
_cell_volume 2653.795912
_symmetry_space_group_name_H-M "C C C M"
_symmetry_group_IT_number 66
_symmetry_cell_setting 'orthorhombic'
loop_
_space_group_symop_operation_xyz
x,y,z
-x,-y,z
x,-y,1/2-z
-x,y,1/2-z
-x,-y,-z
x,y,-z
-x,y,1/2+z
x,-y,1/2+z
1/2+x,1/2+y,z
1/2-x,1/2-y,z
1/2+x,1/2-y,1/2-z
1/2-x,1/2+y,1/2-z
1/2-x,1/2-y,-z
1/2+x,1/2+y,-z
1/2-x,1/2+y,1/2+z
1/2+x,1/2-y,1/2+z
loop_
_atom_site_type_symbol
_atom_site_label
_atom_site_fract_x
_atom_site_fract_y
_atom_site_fract_z
Si Si1 0.739615 0.552916 0.551296
Si Si2 0.000000 0.000000 0.250000
Si Si3 0.773932 0.837607 0.630557
Si Si4 0.723923 0.120504 0.688809
Si Si5 0.500000 0.749619 0.750000
O O1 0.500000 0.500000 0.568668
O O2 0.677953 0.574526 0.500000
O O3 0.773793 0.621512 0.583698
O O4 0.000000 0.500000 0.551169
O O5 0.814675 0.949528 0.217613
O O6 0.750000 0.750000 0.623161
O O7 0.568048 0.877317 0.665948
O O8 0.069313 0.858695 0.649903
O O9 0.744771 0.187162 0.725486
O O10 0.750000 0.750000 0.711574
#
# Coordination Sequence:
#
# PCOD9499127 Si02
#       5
#    16   4  16  16   8
#     4  10  23  45  72 105 140 179 223 274 341 414
#     4  12  30  46  64 102 132 198 234 298 348 412
#     4  12  26  44  71 105 139 180 229 285 347 409
#     4  12  27  43  65  95 136 175 238 282 337 405
#     4  12  23  43  66  87 127 180 226 284 346 397
#
# _framework density 22.609124999999999
#
# number of rings (size 3 to 8) (size 9 to 14) (size 15 to 20)
#    0.000    0.533    0.000    8.800    5.600    4.267 
#    0.000    0.000    0.000    8.000    0.000    0.000 
#    0.000    0.000    0.000    0.000    0.000    0.000 
#
# Total GULP energy -167532.661757 kJ/mol
# GULP energy per Si atom -5584.422059 kJ/mol
# Density = 2.255767 g / cm^3
# Si number density = 22.609125 Si / 1000 Ang^3
#
#
#
# Elastic Constant Matrix: (Units=GPa)
#
#
# Indices 1 2 3 4 5 6 
#
# 1 133.6608 6.2276 -14.9482 0.0000 0.0000 0.0000
# 2 6.2276 167.6340 76.8304 0.0000 0.0000 0.0000
# 3 -14.9482 76.8304 111.1204 0.0000 0.0000 0.0000
# 4 0.0000 0.0000 0.0000 38.8461 0.0000 0.0000
# 5 0.0000 0.0000 0.0000 0.0000 41.1757 0.0000
# 6 0.0000 0.0000 0.0000 0.0000 0.0000 25.0286
#
#
#
# Elastic Compliance Matrix: (Units=1/GPa)
#
#
# Indices 1 2 3 4 5 6 
#
# 1 0.007737 -0.001119 0.001814 0.000000 0.000000 0.000000
# 2 -0.001119 0.008895 -0.006300 0.000000 0.000000 0.000000
# 3 0.001814 -0.006300 0.013600 0.000000 0.000000 0.000000
# 4 0.000000 0.000000 0.000000 0.025743 0.000000 0.000000
# 5 0.000000 0.000000 0.000000 0.000000 0.024286 0.000000
# 6 0.000000 0.000000 0.000000 0.000000 0.000000 0.039954
#
#
# Mechanical properties :
#
#
# Convention : Reuss Voigt Hill
#
# Bulk Modulus (GPa) = 52.57373 60.95942 56.76657
# Shear Modulus (GPa) = 36.29395 43.96377 40.12886
#
# Velocity S-wave (km/s) = 4.01094 4.41445 4.21752
# Velocity P-wave (km/s) = 6.68984 7.28038 6.99135
#
# Compressibility (1/GPa) = 0.01902091
#
# Stress axis : x y z
#
# Youngs Moduli (GPa) = 129.25421 112.42841 73.53204
#
# Poissons Ratio (x) = 0.12581 -0.13342
# Poissons Ratio (y) = 0.14464 0.46328
# Poissons Ratio (z) = -0.23453 0.70834
#
# Static dielectric constant tensor:
#      x y z
#    x 1.947640 0.000000 0.000000 
#    y 0.000000 1.889120 0.000000 
#    z 0.000000 0.000000 1.802680 
# 
# From -- ./inp_files/61111.got.cif
#   From: 2010.05.17/outbox.cif.g08.bks.cpg/sg66_31_cif.got.tgz:61111.got - 2010.06.03 17:51:23.
