data_PCOD9499997
_publ_section_title
;
Structure prediction by ZEFSAII (Michael W. Deem and Ramdas Pophale) SiO2 
 PCOD9499997
Probable space group: C C C M
;
_chemical_formula_sum "Si O2"
_cell_formula_units_Z 40
_cell_length_a 13.652152
_cell_length_b 15.912319
_cell_length_c 8.333773
_cell_angle_alpha 90.000000
_cell_angle_beta 90.000000
_cell_angle_gamma 90.000000
_cell_volume 1810.407159
_symmetry_space_group_name_H-M "C C C M"
_symmetry_group_IT_number 66
_symmetry_cell_setting 'orthorhombic'
loop_
_space_group_symop_operation_xyz
x,y,z
-x,-y,z
x,-y,1/2-z
-x,y,1/2-z
-x,-y,-z
x,y,-z
-x,y,1/2+z
x,-y,1/2+z
1/2+x,1/2+y,z
1/2-x,1/2-y,z
1/2+x,1/2-y,1/2-z
1/2-x,1/2+y,1/2-z
1/2-x,1/2-y,-z
1/2+x,1/2+y,-z
1/2-x,1/2+y,1/2+z
1/2+x,1/2-y,1/2+z
loop_
_atom_site_type_symbol
_atom_site_label
_atom_site_fract_x
_atom_site_fract_y
_atom_site_fract_z
Si Si1 0.901457 0.866844 0.816458
Si Si2 0.262265 0.000000 0.750000
Si Si3 0.867848 0.754807 0.500000
Si Si4 0.588026 0.068942 0.000000
O O1 0.811174 0.931140 0.821950
O O2 0.886733 0.800686 0.671251
O O3 0.000000 0.910076 0.750000
O O4 0.914903 0.834931 0.000000
O O5 0.338120 0.051535 0.644239
O O6 0.750000 0.750000 0.500000
O O7 0.930571 0.668330 0.500000
O O8 0.500000 0.000000 0.000000
#
# Coordination Sequence:
#
# PCOD9499997 Si02
#       4
#    16   8   8   8
#     4  12  26  47  81 116 150 200 262 333 404 470
#     4  12  24  48  78 112 150 202 264 328 398 478
#     4  12  26  53  77 109 163 207 264 330 398 482
#     4  12  28  51  75 111 157 212 264 326 396 483
#
# _framework density 22.094477999999999
#
# number of rings (size 3 to 8) (size 9 to 14) (size 15 to 20)
#    0.000    0.000    8.000    1.200    0.000    5.600 
#    3.600    0.000    0.000    0.000    0.000    0.000 
#    0.000    0.000    0.000    0.000    0.000    0.000 
#
# Total GULP energy -111400.779026 kJ/mol
# GULP energy per Si atom -5570.038951 kJ/mol
# Density = 2.204419 g / cm^3
# Si number density = 22.094478 Si / 1000 Ang^3
#
#
#
# Elastic Constant Matrix: (Units=GPa)
#
#
# Indices 1 2 3 4 5 6 
#
# 1 144.5924 46.7656 45.8766 0.0000 0.0000 0.0000
# 2 46.7656 149.2224 78.2944 0.0000 0.0000 0.0000
# 3 45.8766 78.2944 205.7957 0.0000 0.0000 0.0000
# 4 0.0000 0.0000 0.0000 12.3213 0.0000 0.0000
# 5 0.0000 0.0000 0.0000 0.0000 34.2975 0.0000
# 6 0.0000 0.0000 0.0000 0.0000 0.0000 38.6380
#
#
#
# Elastic Compliance Matrix: (Units=1/GPa)
#
#
# Indices 1 2 3 4 5 6 
#
# 1 0.007863 -0.001930 -0.001019 0.000000 0.000000 0.000000
# 2 -0.001930 0.008846 -0.002935 0.000000 0.000000 0.000000
# 3 -0.001019 -0.002935 0.006203 0.000000 0.000000 0.000000
# 4 0.000000 0.000000 0.000000 0.081160 0.000000 0.000000
# 5 0.000000 0.000000 0.000000 0.000000 0.029157 0.000000
# 6 0.000000 0.000000 0.000000 0.000000 0.000000 0.025881
#
#
# Mechanical properties :
#
#
# Convention : Reuss Voigt Hill
#
# Bulk Modulus (GPa) = 89.72706 93.49818 91.61262
# Shear Modulus (GPa) = 28.63795 38.96296 33.80046
#
# Velocity S-wave (km/s) = 3.60413 4.20393 3.91553
# Velocity P-wave (km/s) = 7.61698 8.12239 7.87374
#
# Compressibility (1/GPa) = 0.01114491
#
# Stress axis : x y z
#
# Youngs Moduli (GPa) = 127.17166 113.04113 161.21147
#
# Poissons Ratio (x) = 0.21815 0.16423
# Poissons Ratio (y) = 0.24542 0.47321
# Poissons Ratio (z) = 0.12955 0.33182
#
# Static dielectric constant tensor:
#      x y z
#    x 1.830200 0.000000 0.000000 
#    y 0.000000 1.869220 0.000000 
#    z 0.000000 0.000000 1.716790 
# 
# From -- ./inp_files/3195.got.cif
#   From: 2010.05.17/outbox.cif.g08.bks.cpg/sg66_2_cif.got.tgz:3195.got - 2010.06.03 17:51:23.
