data_PCOD9499228
_publ_section_title
;
Structure prediction by ZEFSAII (Michael W. Deem and Ramdas Pophale) SiO2 
 PCOD9499228
Probable space group: C C C M
;
_chemical_formula_sum "Si O2"
_cell_formula_units_Z 56
_cell_length_a 14.306569
_cell_length_b 5.782250
_cell_length_c 29.285698
_cell_angle_alpha 90.000000
_cell_angle_beta 90.000000
_cell_angle_gamma 90.000000
_cell_volume 2422.634726
_symmetry_space_group_name_H-M "C C C M"
_symmetry_group_IT_number 66
_symmetry_cell_setting 'orthorhombic'
loop_
_space_group_symop_operation_xyz
x,y,z
-x,-y,z
x,-y,1/2-z
-x,y,1/2-z
-x,-y,-z
x,y,-z
-x,y,1/2+z
x,-y,1/2+z
1/2+x,1/2+y,z
1/2-x,1/2-y,z
1/2+x,1/2-y,1/2-z
1/2-x,1/2+y,1/2-z
1/2-x,1/2-y,-z
1/2+x,1/2+y,-z
1/2-x,1/2+y,1/2+z
1/2+x,1/2-y,1/2+z
loop_
_atom_site_type_symbol
_atom_site_label
_atom_site_fract_x
_atom_site_fract_y
_atom_site_fract_z
Si Si1 0.750000 0.750000 0.607688
Si Si2 0.390922 0.072634 0.053079
Si Si3 0.104203 0.094512 0.865877
Si Si4 0.638354 0.753905 0.769898
O O1 0.822448 0.614604 0.575349
O O2 0.685214 0.593062 0.639443
O O3 0.378145 0.294853 0.084763
O O4 0.500000 0.000000 0.056947
O O5 0.370088 0.111355 0.000000
O O6 0.114235 0.264171 0.823543
O O7 0.000000 0.000000 0.865439
O O8 0.605700 0.500000 0.750000
O O9 0.750000 0.750000 0.764202
O O10 0.604918 0.000000 0.750000
#
# Coordination Sequence:
#
# PCOD9499228 Si02
#       4
#     8  16  16  16
#     4  12  25  46  78 108 146 206 246 320 385 458
#     4  11  25  46  74 110 151 199 257 315 384 464
#     4  12  27  47  75 110 152 199 255 319 384 467
#     4  10  24  45  78 109 147 198 253 315 387 460
#
# _framework density 23.115331000000001
#
# number of rings (size 3 to 8) (size 9 to 14) (size 15 to 20)
#    0.000    0.857    2.857    3.000   10.000    4.571 
#    0.000    1.429    0.000    0.000    0.000    0.000 
#    0.000    0.000    0.000    0.000    0.000    0.000 
#
# Total GULP energy -156727.081284 kJ/mol
# GULP energy per Si atom -5597.395760 kJ/mol
# Density = 2.306272 g / cm^3
# Si number density = 23.115331 Si / 1000 Ang^3
#
#
#
# Elastic Constant Matrix: (Units=GPa)
#
#
# Indices 1 2 3 4 5 6 
#
# 1 136.4640 45.0374 25.4613 0.0000 0.0000 0.0000
# 2 45.0374 114.2964 45.4978 0.0000 0.0000 0.0000
# 3 25.4613 45.4978 105.6738 0.0000 0.0000 0.0000
# 4 0.0000 0.0000 0.0000 -17.7584 0.0000 0.0000
# 5 0.0000 0.0000 0.0000 0.0000 -1.0393 0.0000
# 6 0.0000 0.0000 0.0000 0.0000 0.0000 16.2125
#
#
#
# Elastic Compliance Matrix: (Units=1/GPa)
#
#
# Indices 1 2 3 4 5 6 
#
# 1 0.008470 -0.003047 -0.000729 0.000000 0.000000 0.000000
# 2 -0.003047 0.011655 -0.004284 0.000000 0.000000 0.000000
# 3 -0.000729 -0.004284 0.011483 0.000000 0.000000 0.000000
# 4 0.000000 0.000000 0.000000 -0.056311 0.000000 0.000000
# 5 0.000000 0.000000 0.000000 0.000000 -0.962194 0.000000
# 6 0.000000 0.000000 0.000000 0.000000 0.000000 0.061681
#
#
# Mechanical properties :
#
#
# Convention : Reuss Voigt Hill
#
# Bulk Modulus (GPa) = 64.56560 65.38080 64.97320
# Shear Modulus (GPa) = -5.53138 15.51215 4.99039
#
# Velocity S-wave (km/s) = -1.54859 2.59332 1.47092
# Velocity P-wave (km/s) = 4.97946 6.10845 5.57262
#
# Compressibility (1/GPa) = 0.01548812
#
# Stress axis : x y z
#
# Youngs Moduli (GPa) = 118.06935 85.79833 87.08454
#
# Poissons Ratio (x) = 0.26145 0.06346
# Poissons Ratio (y) = 0.35979 0.37306
# Poissons Ratio (z) = 0.08603 0.36755
#
# Static dielectric constant tensor:
#      x y z
#    x 1.948370 0.000000 0.000000 
#    y 0.000000 1.949080 0.000000 
#    z 0.000000 0.000000 1.800520 
# 
# From -- ./inp_files/66756.got.cif
#   From: 2010.05.17/outbox.cif.g08.bks.cpg/sg66_34_cif.got.tgz:66756.got - 2010.06.03 17:51:23.
