data_PCOD9499885
_publ_section_title
;
Structure prediction by ZEFSAII (Michael W. Deem and Ramdas Pophale) SiO2 
 PCOD9499885
Probable space group: C C C M
;
_chemical_formula_sum "Si O2"
_cell_formula_units_Z 68
_cell_length_a 9.060026
_cell_length_b 22.934279
_cell_length_c 15.368939
_cell_angle_alpha 90.000000
_cell_angle_beta 90.000000
_cell_angle_gamma 90.000000
_cell_volume 3193.437511
_symmetry_space_group_name_H-M "C C C M"
_symmetry_group_IT_number 66
_symmetry_cell_setting 'orthorhombic'
loop_
_space_group_symop_operation_xyz
x,y,z
-x,-y,z
x,-y,1/2-z
-x,y,1/2-z
-x,-y,-z
x,y,-z
-x,y,1/2+z
x,-y,1/2+z
1/2+x,1/2+y,z
1/2-x,1/2-y,z
1/2+x,1/2-y,1/2-z
1/2-x,1/2+y,1/2-z
1/2-x,1/2-y,-z
1/2+x,1/2+y,-z
1/2-x,1/2+y,1/2+z
1/2+x,1/2-y,1/2+z
loop_
_atom_site_type_symbol
_atom_site_label
_atom_site_fract_x
_atom_site_fract_y
_atom_site_fract_z
Si Si1 0.871383 0.423311 0.895177
Si Si2 0.812921 0.811810 0.344061
Si Si3 0.643835 0.335323 0.643080
Si Si4 0.206754 0.549336 0.605553
Si Si5 0.750000 0.750000 0.000000
O O1 0.796451 0.364343 0.865331
O O2 0.784891 0.481838 0.866527
O O3 0.042079 0.429668 0.868365
O O4 0.871748 0.424137 0.000000
O O5 0.750000 0.750000 0.373960
O O6 0.832522 0.811920 0.240010
O O7 0.974615 0.823274 0.383283
O O8 0.678715 0.403992 0.641442
O O9 0.745874 0.300994 0.575877
O O10 0.216322 0.550641 0.500000
#
# Coordination Sequence:
#
# PCOD9499885 Si02
#       5
#    16  16  16  16   4
#     4   9  21  39  64  94 128 165 208 260 312 368
#     4  11  26  42  58  95 134 159 204 269 319 365
#     4  11  25  41  66  92 121 169 211 260 314 375
#     4   9  19  40  66  92 121 167 218 253 299 378
#     4  12  24  44  70  92 118 178 214 244 316 392
#
# _framework density 21.293669999999999
#
# number of rings (size 3 to 8) (size 9 to 14) (size 15 to 20)
#    0.000    1.882    2.353    1.412    4.941    3.294 
#    0.000    7.059    0.000    0.000    0.000    0.000 
#    0.000    0.000    0.000    0.000    0.000    0.000 
#
# Total GULP energy -189524.262457 kJ/mol
# GULP energy per Si atom -5574.243013 kJ/mol
# Density = 2.124520 g / cm^3
# Si number density = 21.293670 Si / 1000 Ang^3
#
#
#
# Elastic Constant Matrix: (Units=GPa)
#
#
# Indices 1 2 3 4 5 6 
#
# 1 62.7237 72.2803 -8.1583 0.0000 0.0000 0.0000
# 2 72.2803 197.9285 -5.0700 0.0000 0.0000 0.0000
# 3 -8.1583 -5.0700 27.3608 0.0000 0.0000 0.0000
# 4 0.0000 0.0000 0.0000 56.7710 0.0000 0.0000
# 5 0.0000 0.0000 0.0000 0.0000 13.3095 0.0000
# 6 0.0000 0.0000 0.0000 0.0000 0.0000 33.8917
#
#
#
# Elastic Compliance Matrix: (Units=1/GPa)
#
#
# Indices 1 2 3 4 5 6 
#
# 1 0.028680 -0.010303 0.006642 0.000000 0.000000 0.000000
# 2 -0.010303 0.008778 -0.001446 0.000000 0.000000 0.000000
# 3 0.006642 -0.001446 0.038261 0.000000 0.000000 0.000000
# 4 0.000000 0.000000 0.000000 0.017615 0.000000 0.000000
# 5 0.000000 0.000000 0.000000 0.000000 0.075134 0.000000
# 6 0.000000 0.000000 0.000000 0.000000 0.000000 0.029506
#
#
# Mechanical properties :
#
#
# Convention : Reuss Voigt Hill
#
# Bulk Modulus (GPa) = 15.26575 45.12411 30.19493
# Shear Modulus (GPa) = 21.73700 36.05851 28.89776
#
# Velocity S-wave (km/s) = 3.19849 4.11955 3.68789
# Velocity P-wave (km/s) = 4.56346 6.62306 5.68727
#
# Compressibility (1/GPa) = 0.06550611
#
# Stress axis : x y z
#
# Youngs Moduli (GPa) = 34.86744 113.92224 26.13607
#
# Poissons Ratio (x) = 1.17378 -0.17361
# Poissons Ratio (y) = 0.35925 0.03778
# Poissons Ratio (z) = -0.23160 0.16469
#
# Static dielectric constant tensor:
#      x y z
#    x 1.785440 0.000000 0.000000 
#    y 0.000000 1.763270 0.000000 
#    z 0.000000 0.000000 1.771640 
# 
# From -- ./inp_files/36468.got.cif
#   From: 2010.05.17/outbox.cif.g08.bks.cpg/sg66_19_cif.got.tgz:36468.got - 2010.06.03 17:51:23.
