data_PCOD9499386
_publ_section_title
;
Structure prediction by ZEFSAII (Michael W. Deem and Ramdas Pophale) SiO2 
 PCOD9499386
Probable space group: C C C M
;
_chemical_formula_sum "Si O2"
_cell_formula_units_Z 64
_cell_length_a 7.523923
_cell_length_b 19.303486
_cell_length_c 23.262241
_cell_angle_alpha 90.000000
_cell_angle_beta 90.000000
_cell_angle_gamma 90.000000
_cell_volume 3378.560016
_symmetry_space_group_name_H-M "C C C M"
_symmetry_group_IT_number 66
_symmetry_cell_setting 'orthorhombic'
loop_
_space_group_symop_operation_xyz
x,y,z
-x,-y,z
x,-y,1/2-z
-x,y,1/2-z
-x,-y,-z
x,y,-z
-x,y,1/2+z
x,-y,1/2+z
1/2+x,1/2+y,z
1/2-x,1/2-y,z
1/2+x,1/2-y,1/2-z
1/2-x,1/2+y,1/2-z
1/2-x,1/2-y,-z
1/2+x,1/2+y,-z
1/2-x,1/2+y,1/2+z
1/2+x,1/2-y,1/2+z
loop_
_atom_site_type_symbol
_atom_site_label
_atom_site_fract_x
_atom_site_fract_y
_atom_site_fract_z
Si Si1 0.242934 0.331984 0.879467
Si Si2 0.954784 0.576760 0.317251
Si Si3 0.260758 0.441956 0.500000
Si Si4 0.849082 0.398403 0.500000
Si Si5 0.580078 0.576720 0.374069
O O1 0.250000 0.250000 0.873625
O O2 0.081563 0.366313 0.844840
O O3 0.208593 0.356051 0.944545
O O4 0.427189 0.368019 0.861701
O O5 0.000000 0.500000 0.341891
O O6 0.000000 0.575314 0.250000
O O7 0.750863 0.588367 0.333955
O O8 0.758970 0.474470 0.500000
O O9 0.357178 0.420190 0.440947
O O10 0.061006 0.411632 0.500000
O O11 0.500000 0.500000 0.364501
#
# Coordination Sequence:
#
# PCOD9499386 Si02
#       5
#    16  16   8   8  16
#     4  12  26  44  65 101 138 173 215 275 340 396
#     4  11  24  46  70  97 128 171 231 278 316 390
#     4  11  20  36  72  99 130 173 224 270 331 388
#     4  11  20  39  68  96 139 172 208 283 329 390
#     4  12  22  41  72  99 129 176 222 268 332 395
#
# _framework density 18.942981
#
# number of rings (size 3 to 8) (size 9 to 14) (size 15 to 20)
#    0.000    0.500    7.500    1.500    0.000    2.000 
#    4.500    1.250    0.000    0.000    0.000    0.000 
#    0.000    0.000    0.000    0.000    0.000    0.000 
#
# Total GULP energy -179015.019779 kJ/mol
# GULP energy per Si atom -5594.219368 kJ/mol
# Density = 1.889987 g / cm^3
# Si number density = 18.942981 Si / 1000 Ang^3
#
#
#
# Elastic Constant Matrix: (Units=GPa)
#
#
# Indices 1 2 3 4 5 6 
#
# 1 180.9808 77.6984 50.9708 0.0000 0.0000 0.0000
# 2 77.6984 159.5487 29.2339 0.0000 0.0000 0.0000
# 3 50.9708 29.2339 80.7916 0.0000 0.0000 0.0000
# 4 0.0000 0.0000 0.0000 25.4750 0.0000 0.0000
# 5 0.0000 0.0000 0.0000 0.0000 -20.2208 0.0000
# 6 0.0000 0.0000 0.0000 0.0000 0.0000 27.2521
#
#
#
# Elastic Compliance Matrix: (Units=1/GPa)
#
#
# Indices 1 2 3 4 5 6 
#
# 1 0.007984 -0.003176 -0.003888 0.000000 0.000000 0.000000
# 2 -0.003176 0.007976 -0.000883 0.000000 0.000000 0.000000
# 3 -0.003888 -0.000883 0.015150 0.000000 0.000000 0.000000
# 4 0.000000 0.000000 0.000000 0.039254 0.000000 0.000000
# 5 0.000000 0.000000 0.000000 0.000000 -0.049454 0.000000
# 6 0.000000 0.000000 0.000000 0.000000 0.000000 0.036694
#
#
# Mechanical properties :
#
#
# Convention : Reuss Voigt Hill
#
# Bulk Modulus (GPa) = 65.71451 81.90301 73.80876
# Shear Modulus (GPa) = 63.63887 24.06245 43.85066
#
# Velocity S-wave (km/s) = 5.80240 3.56793 4.81654
# Velocity P-wave (km/s) = 8.92505 7.76556 8.36542
#
# Compressibility (1/GPa) = 0.01521734
#
# Stress axis : x y z
#
# Youngs Moduli (GPa) = 125.25426 125.37789 66.00809
#
# Poissons Ratio (x) = 0.39816 0.25663
# Poissons Ratio (y) = 0.39776 0.05825
# Poissons Ratio (z) = 0.48696 0.11065
#
# Static dielectric constant tensor:
#      x y z
#    x 1.659410 0.000000 0.000000 
#    y 0.000000 1.616520 0.000000 
#    z 0.000000 0.000000 1.564400 
# 
# From -- ./inp_files/54134.got.cif
#   From: 2010.05.17/outbox.cif.g08.bks.cpg/sg66_28_cif.got.tgz:54134.got - 2010.06.03 17:51:23.
