data_PCOD9499403
_publ_section_title
;
Structure prediction by ZEFSAII (Michael W. Deem and Ramdas Pophale) SiO2 
 PCOD9499403
Probable space group: C C C M
;
_chemical_formula_sum "Si O2"
_cell_formula_units_Z 48
_cell_length_a 19.311458
_cell_length_b 8.836689
_cell_length_c 15.350797
_cell_angle_alpha 90.000000
_cell_angle_beta 90.000000
_cell_angle_gamma 90.000000
_cell_volume 2619.603507
_symmetry_space_group_name_H-M "C C C M"
_symmetry_group_IT_number 66
_symmetry_cell_setting 'orthorhombic'
loop_
_space_group_symop_operation_xyz
x,y,z
-x,-y,z
x,-y,1/2-z
-x,y,1/2-z
-x,-y,-z
x,y,-z
-x,y,1/2+z
x,-y,1/2+z
1/2+x,1/2+y,z
1/2-x,1/2-y,z
1/2+x,1/2-y,1/2-z
1/2-x,1/2+y,1/2-z
1/2-x,1/2-y,-z
1/2+x,1/2+y,-z
1/2-x,1/2+y,1/2+z
1/2+x,1/2-y,1/2+z
loop_
_atom_site_type_symbol
_atom_site_label
_atom_site_fract_x
_atom_site_fract_y
_atom_site_fract_z
Si Si1 0.332630 0.931192 0.000000
Si Si2 0.669400 0.429460 0.000000
Si Si3 0.061400 0.894616 0.599968
Si Si4 0.923308 0.438138 0.654707
O O1 0.369370 0.003121 0.916261
O O2 0.342327 0.749951 0.000000
O O3 0.250608 0.961481 0.000000
O O4 0.629912 0.506250 0.081846
O O5 0.040070 0.847176 0.500000
O O6 0.073841 0.743467 0.652914
O O7 0.000000 0.000000 0.634144
O O8 0.906141 0.500000 0.750000
O O9 0.000000 0.500000 0.632164
#
# Coordination Sequence:
#
# PCOD9499403 Si02
#       4
#     8   8  16  16
#     4  11  20  39  60  81 123 155 196 241 288 355
#     4   9  20  35  60  89 111 159 196 237 296 343
#     4   9  18  36  63  90 111 151 196 242 293 341
#     4  11  23  37  58  88 117 155 198 241 291 348
#
# _framework density 18.323381999999999
#
# number of rings (size 3 to 8) (size 9 to 14) (size 15 to 20)
#    1.000    1.000    1.667    2.500    0.000    2.667 
#    0.000   18.333    0.000    0.000    0.000    0.000 
#    0.000    0.000    0.000    0.000    0.000    0.000 
#
# Total GULP energy -133881.752802 kJ/mol
# GULP energy per Si atom -5578.406367 kJ/mol
# Density = 1.828168 g / cm^3
# Si number density = 18.323382 Si / 1000 Ang^3
#
#
#
# Elastic Constant Matrix: (Units=GPa)
#
#
# Indices 1 2 3 4 5 6 
#
# 1 150.9416 94.1443 61.2888 0.0000 0.0000 0.0000
# 2 94.1443 170.6555 71.3247 0.0000 0.0000 0.0000
# 3 61.2888 71.3247 85.2958 0.0000 0.0000 0.0000
# 4 0.0000 0.0000 0.0000 18.4778 0.0000 0.0000
# 5 0.0000 0.0000 0.0000 0.0000 -6.3304 0.0000
# 6 0.0000 0.0000 0.0000 0.0000 0.0000 30.8294
#
#
#
# Elastic Compliance Matrix: (Units=1/GPa)
#
#
# Indices 1 2 3 4 5 6 
#
# 1 0.011071 -0.004278 -0.004378 0.000000 0.000000 0.000000
# 2 -0.004278 0.010661 -0.005841 0.000000 0.000000 0.000000
# 3 -0.004378 -0.005841 0.019754 0.000000 0.000000 0.000000
# 4 0.000000 0.000000 0.000000 0.054119 0.000000 0.000000
# 5 0.000000 0.000000 0.000000 0.000000 -0.157967 0.000000
# 6 0.000000 0.000000 0.000000 0.000000 0.000000 0.032437
#
#
# Mechanical properties :
#
#
# Convention : Reuss Voigt Hill
#
# Bulk Modulus (GPa) = 80.04798 95.60093 87.82446
# Shear Modulus (GPa) = 1547.74471 20.60436 784.17454
#
# Velocity S-wave (km/s) = 29.09496 3.35697 20.70973
# Velocity P-wave (km/s) = 34.24135 8.20446 24.89762
#
# Compressibility (1/GPa) = 0.01249251
#
# Stress axis : x y z
#
# Youngs Moduli (GPa) = 90.32901 93.80234 50.62329
#
# Poissons Ratio (x) = 0.40125 0.22162
# Poissons Ratio (y) = 0.38639 0.29569
# Poissons Ratio (z) = 0.39544 0.54789
#
# Static dielectric constant tensor:
#      x y z
#    x 1.614440 0.000000 0.000000 
#    y 0.000000 1.621270 0.000000 
#    z 0.000000 0.000000 1.635680 
# 
# From -- ./inp_files/30607.got.cif
#   From: 2010.05.17/outbox.cif.g08.bks.cpg/sg66_16_cif.got.tgz:30607.got - 2010.06.03 17:51:23.
