data_PCOD9499787
_publ_section_title
;
Structure prediction by ZEFSAII (Michael W. Deem and Ramdas Pophale) SiO2 
 PCOD9499787
Probable space group: C C C M
;
_chemical_formula_sum "Si O2"
_cell_formula_units_Z 52
_cell_length_a 8.601200
_cell_length_b 11.474561
_cell_length_c 21.077514
_cell_angle_alpha 90.000000
_cell_angle_beta 90.000000
_cell_angle_gamma 90.000000
_cell_volume 2080.245119
_symmetry_space_group_name_H-M "C C C M"
_symmetry_group_IT_number 66
_symmetry_cell_setting 'orthorhombic'
loop_
_space_group_symop_operation_xyz
x,y,z
-x,-y,z
x,-y,1/2-z
-x,y,1/2-z
-x,-y,-z
x,y,-z
-x,y,1/2+z
x,-y,1/2+z
1/2+x,1/2+y,z
1/2-x,1/2-y,z
1/2+x,1/2-y,1/2-z
1/2-x,1/2+y,1/2-z
1/2-x,1/2-y,-z
1/2+x,1/2+y,-z
1/2-x,1/2+y,1/2+z
1/2+x,1/2-y,1/2+z
loop_
_atom_site_type_symbol
_atom_site_label
_atom_site_fract_x
_atom_site_fract_y
_atom_site_fract_z
Si Si1 0.380875 0.342090 0.692028
Si Si2 0.340997 0.045626 0.864925
Si Si3 0.000000 0.500000 0.750000
Si Si4 0.561208 0.364785 0.569787
O O1 0.500000 0.366252 0.750000
O O2 0.250000 0.250000 0.709366
O O3 0.280520 0.451059 0.664537
O O4 0.475861 0.304509 0.628813
O O5 0.241129 0.122979 0.911134
O O6 0.500000 0.000000 0.897068
O O7 0.410376 0.085663 0.797533
O O8 0.500000 0.500000 0.567084
O O9 0.534256 0.314616 0.500000
#
# Coordination Sequence:
#
# PCOD9499787 Si02
#       4
#    16  16   4  16
#     4  11  24  37  57  87 122 157 196 246 301 352
#     4   9  19  35  60  84 114 153 195 247 290 350
#     4   8  16  28  56  80 108 144 192 238 284 328
#     4   9  19  38  61  87 118 157 202 243 291 351
#
# _framework density 24.997053000000001
#
# number of rings (size 3 to 8) (size 9 to 14) (size 15 to 20)
#    0.923    1.538    0.000    1.846    2.154    5.538 
#    0.000    0.000    0.000    6.462    0.000    0.000 
#    0.000    0.000    0.000    0.000    0.000    0.000 
#
# Total GULP energy -145004.910642 kJ/mol
# GULP energy per Si atom -5577.111948 kJ/mol
# Density = 2.494016 g / cm^3
# Si number density = 24.997053 Si / 1000 Ang^3
#
#
#
# Elastic Constant Matrix: (Units=GPa)
#
#
# Indices 1 2 3 4 5 6 
#
# 1 190.2918 31.4846 81.8782 0.0000 0.0000 0.0000
# 2 31.4846 72.7578 36.1652 0.0000 0.0000 0.0000
# 3 81.8782 36.1652 169.7308 0.0000 0.0000 0.0000
# 4 0.0000 0.0000 0.0000 22.6919 0.0000 0.0000
# 5 0.0000 0.0000 0.0000 0.0000 33.4588 0.0000
# 6 0.0000 0.0000 0.0000 0.0000 0.0000 17.6227
#
#
#
# Elastic Compliance Matrix: (Units=1/GPa)
#
#
# Indices 1 2 3 4 5 6 
#
# 1 0.006768 -0.001460 -0.002953 0.000000 0.000000 0.000000
# 2 -0.001460 0.015687 -0.002638 0.000000 0.000000 0.000000
# 3 -0.002953 -0.002638 0.007879 0.000000 0.000000 0.000000
# 4 0.000000 0.000000 0.000000 0.044069 0.000000 0.000000
# 5 0.000000 0.000000 0.000000 0.000000 0.029887 0.000000
# 6 0.000000 0.000000 0.000000 0.000000 0.000000 0.056745
#
#
# Mechanical properties :
#
#
# Convention : Reuss Voigt Hill
#
# Bulk Modulus (GPa) = 61.61595 81.31515 71.46555
# Shear Modulus (GPa) = 27.69337 33.63817 30.66577
#
# Velocity S-wave (km/s) = 3.33207 3.67234 3.50634
# Velocity P-wave (km/s) = 6.28541 7.11210 6.71150
#
# Compressibility (1/GPa) = 0.01622957
#
# Stress axis : x y z
#
# Youngs Moduli (GPa) = 147.76418 63.74503 126.92697
#
# Poissons Ratio (x) = 0.09310 0.37488
# Poissons Ratio (y) = 0.21580 0.33484
# Poissons Ratio (z) = 0.43642 0.16816
#
# Static dielectric constant tensor:
#      x y z
#    x 1.928740 0.000000 0.000000 
#    y 0.000000 2.099820 0.000000 
#    z 0.000000 0.000000 1.947200 
# 
# From -- ./inp_files/46292.got.cif
#   From: 2010.05.17/outbox.cif.g08.bks.cpg/sg66_24_cif.got.tgz:46292.got - 2010.06.03 17:51:23.
