data_PCOD9499293
_publ_section_title
;
Structure prediction by ZEFSAII (Michael W. Deem and Ramdas Pophale) SiO2 
 PCOD9499293
Probable space group: C C C M
;
_chemical_formula_sum "Si O2"
_cell_formula_units_Z 48
_cell_length_a 5.267592
_cell_length_b 21.496358
_cell_length_c 18.293386
_cell_angle_alpha 90.000000
_cell_angle_beta 90.000000
_cell_angle_gamma 90.000000
_cell_volume 2071.434065
_symmetry_space_group_name_H-M "C C C M"
_symmetry_group_IT_number 66
_symmetry_cell_setting 'orthorhombic'
loop_
_space_group_symop_operation_xyz
x,y,z
-x,-y,z
x,-y,1/2-z
-x,y,1/2-z
-x,-y,-z
x,y,-z
-x,y,1/2+z
x,-y,1/2+z
1/2+x,1/2+y,z
1/2-x,1/2-y,z
1/2+x,1/2-y,1/2-z
1/2-x,1/2+y,1/2-z
1/2-x,1/2-y,-z
1/2+x,1/2+y,-z
1/2-x,1/2+y,1/2+z
1/2+x,1/2-y,1/2+z
loop_
_atom_site_type_symbol
_atom_site_label
_atom_site_fract_x
_atom_site_fract_y
_atom_site_fract_z
Si Si1 0.500000 0.000000 0.867318
Si Si2 0.000000 0.177091 0.750000
Si Si3 0.795129 0.944277 0.000000
Si Si4 0.925918 0.309980 0.500000
Si Si5 0.000000 0.597724 0.250000
Si Si6 0.750000 0.750000 0.377938
O O1 0.331446 0.038725 0.922974
O O2 0.605626 0.052402 0.813506
O O3 0.745399 0.138507 0.731750
O O4 0.942212 0.217056 0.822236
O O5 0.761186 0.869373 0.000000
O O6 0.000000 0.000000 0.000000
O O7 0.750000 0.250000 0.500000
O O8 0.110459 0.300786 0.429662
#
# Coordination Sequence:
#
# PCOD9499293 Si02
#       6
#     8   8   8   8   8   8
#     4  10  26  48  70 112 146 204 256 322 388 482
#     4  12  27  47  79 112 155 204 260 334 402 480
#     4  11  26  46  76 108 155 203 266 323 399 480
#     4  11  28  50  78 115 160 217 276 341 414 493
#     4  11  27  46  79 108 157 197 263 320 403 472
#     4  11  28  48  76 115 158 212 274 341 414 500
#
# _framework density 23.172353000000001
#
# number of rings (size 3 to 8) (size 9 to 14) (size 15 to 20)
#    0.000    1.000    0.000    3.000   16.333    6.667 
#    0.000    0.000    0.000    0.000    0.000    0.000 
#    0.000    0.000    0.000    0.000    0.000    0.000 
#
# Total GULP energy -133834.502935 kJ/mol
# GULP energy per Si atom -5576.437622 kJ/mol
# Density = 2.311961 g / cm^3
# Si number density = 23.172353 Si / 1000 Ang^3
#
#
#
# Elastic Constant Matrix: (Units=GPa)
#
#
# Indices 1 2 3 4 5 6 
#
# 1 89.3842 74.2101 30.7189 0.0000 0.0000 0.0000
# 2 74.2101 192.4278 65.4212 0.0000 0.0000 0.0000
# 3 30.7189 65.4212 154.3118 0.0000 0.0000 0.0000
# 4 0.0000 0.0000 0.0000 33.9413 0.0000 0.0000
# 5 0.0000 0.0000 0.0000 0.0000 39.8909 0.0000
# 6 0.0000 0.0000 0.0000 0.0000 0.0000 42.5462
#
#
#
# Elastic Compliance Matrix: (Units=1/GPa)
#
#
# Indices 1 2 3 4 5 6 
#
# 1 0.016519 -0.006137 -0.000687 0.000000 0.000000 0.000000
# 2 -0.006137 0.008352 -0.002319 0.000000 0.000000 0.000000
# 3 -0.000687 -0.002319 0.007600 0.000000 0.000000 0.000000
# 4 0.000000 0.000000 0.000000 0.029463 0.000000 0.000000
# 5 0.000000 0.000000 0.000000 0.000000 0.025068 0.000000
# 6 0.000000 0.000000 0.000000 0.000000 0.000000 0.023504
#
#
# Mechanical properties :
#
#
# Convention : Reuss Voigt Hill
#
# Bulk Modulus (GPa) = 70.49451 86.31378 78.40415
# Shear Modulus (GPa) = 37.44754 40.99393 39.22074
#
# Velocity S-wave (km/s) = 4.02437 4.21062 4.11854
# Velocity P-wave (km/s) = 7.21678 7.80823 7.51832
#
# Compressibility (1/GPa) = 0.01418550
#
# Stress axis : x y z
#
# Youngs Moduli (GPa) = 60.53683 119.73175 131.57419
#
# Poissons Ratio (x) = 0.73481 0.09033
# Poissons Ratio (y) = 0.37152 0.30514
# Poissons Ratio (z) = 0.04156 0.27768
#
# Static dielectric constant tensor:
#      x y z
#    x 1.873660 0.000000 0.000000 
#    y 0.000000 1.700510 0.000000 
#    z 0.000000 0.000000 1.708090 
# 
# From -- ./inp_files/43321.got.cif
#   From: 2010.05.17/outbox.cif.g08.bks.cpg/sg66_22_cif.got.tgz:43321.got - 2010.06.03 17:51:23.
