data_PCOD9499092
_publ_section_title
;
Structure prediction by ZEFSAII (Michael W. Deem and Ramdas Pophale) SiO2 
 PCOD9499092
Probable space group: C C C M
;
_chemical_formula_sum "Si O2"
_cell_formula_units_Z 64
_cell_length_a 28.381206
_cell_length_b 11.411363
_cell_length_c 9.303278
_cell_angle_alpha 90.000000
_cell_angle_beta 90.000000
_cell_angle_gamma 90.000000
_cell_volume 3013.036310
_symmetry_space_group_name_H-M "C C C M"
_symmetry_group_IT_number 66
_symmetry_cell_setting 'orthorhombic'
loop_
_space_group_symop_operation_xyz
x,y,z
-x,-y,z
x,-y,1/2-z
-x,y,1/2-z
-x,-y,-z
x,y,-z
-x,y,1/2+z
x,-y,1/2+z
1/2+x,1/2+y,z
1/2-x,1/2-y,z
1/2+x,1/2-y,1/2-z
1/2-x,1/2+y,1/2-z
1/2-x,1/2-y,-z
1/2+x,1/2+y,-z
1/2-x,1/2+y,1/2+z
1/2+x,1/2-y,1/2+z
loop_
_atom_site_type_symbol
_atom_site_label
_atom_site_fract_x
_atom_site_fract_y
_atom_site_fract_z
Si Si1 0.242556 0.615882 0.166202
Si Si2 0.047121 0.659070 0.664520
Si Si3 0.136731 0.322214 0.664813
Si Si4 0.104106 0.117811 0.164855
O O1 0.260029 0.500000 0.250000
O O2 0.250000 0.750000 0.221413
O O3 0.185524 0.610012 0.164477
O O4 0.259681 0.613716 0.000000
O O5 0.045926 0.617876 0.500000
O O6 0.093707 0.620364 0.749472
O O7 0.057567 0.799611 0.662748
O O8 0.000000 0.632885 0.750000
O O9 0.122598 0.301033 0.500000
O O10 0.141375 0.197943 0.747986
O O11 0.096250 0.000000 0.250000
O O12 0.118490 0.099118 0.000000
#
# Coordination Sequence:
#
# PCOD9499092 Si02
#       4
#    16  16  16  16
#     4  10  23  43  67  97 129 166 210 260 318 379
#     4   9  18  30  48  75 110 153 202 250 304 364
#     4   9  18  34  54  77 112 152 195 246 300 361
#     4   9  18  29  45  71 106 149 198 249 302 361
#
# _framework density 21.241031
#
# number of rings (size 3 to 8) (size 9 to 14) (size 15 to 20)
#    1.500    1.250    0.000    1.500    0.000    4.000 
#    0.000    5.000    0.000    0.750    0.000    5.250 
#    0.000    0.000    0.000    0.000    0.000    0.000 
#
# Total GULP energy -178141.679776 kJ/mol
# GULP energy per Si atom -5566.927493 kJ/mol
# Density = 2.119269 g / cm^3
# Si number density = 21.241031 Si / 1000 Ang^3
#
#
#
# Elastic Constant Matrix: (Units=GPa)
#
#
# Indices 1 2 3 4 5 6 
#
# 1 36.7122 -3.3818 13.1488 0.0000 0.0000 0.0000
# 2 -3.3818 152.3474 60.8105 0.0000 0.0000 0.0000
# 3 13.1488 60.8105 160.4502 0.0000 0.0000 0.0000
# 4 0.0000 0.0000 0.0000 149.4765 0.0000 0.0000
# 5 0.0000 0.0000 0.0000 0.0000 16.3594 0.0000
# 6 0.0000 0.0000 0.0000 0.0000 0.0000 -8.6021
#
#
#
# Elastic Compliance Matrix: (Units=1/GPa)
#
#
# Indices 1 2 3 4 5 6 
#
# 1 0.028495 0.001844 -0.003034 0.000000 0.000000 0.000000
# 2 0.001844 0.007853 -0.003127 0.000000 0.000000 0.000000
# 3 -0.003034 -0.003127 0.007666 0.000000 0.000000 0.000000
# 4 0.000000 0.000000 0.000000 0.006690 0.000000 0.000000
# 5 0.000000 0.000000 0.000000 0.000000 0.061127 0.000000
# 6 0.000000 0.000000 0.000000 0.000000 0.000000 -0.116251
#
#
# Mechanical properties :
#
#
# Convention : Reuss Voigt Hill
#
# Bulk Modulus (GPa) = 28.26509 54.51830 41.39170
# Shear Modulus (GPa) = 312.30485 50.04224 181.17355
#
# Velocity S-wave (km/s) = 12.13871 4.85905 9.24550
# Velocity P-wave (km/s) = 14.48448 7.56325 11.55428
#
# Compressibility (1/GPa) = 0.03537934
#
# Stress axis : x y z
#
# Youngs Moduli (GPa) = 35.09351 127.33655 130.43960
#
# Poissons Ratio (x) = -0.23475 0.39574
# Poissons Ratio (y) = -0.06470 0.40794
# Poissons Ratio (z) = 0.10647 0.39824
#
# Static dielectric constant tensor:
#      x y z
#    x 1.786330 0.000000 0.000000 
#    y 0.000000 1.819430 0.000000 
#    z 0.000000 0.000000 1.741730 
# 
# From -- ./inp_files/11187.got.cif
#   From: 2010.05.17/outbox.cif.g08.bks.cpg/sg66_6_cif.got.tgz:11187.got - 2010.06.03 17:51:23.
