data_PCOD9499953
_publ_section_title
;
Structure prediction by ZEFSAII (Michael W. Deem and Ramdas Pophale) SiO2 
 PCOD9499953
Probable space group: C C C M
;
_chemical_formula_sum "Si O2"
_cell_formula_units_Z 36
_cell_length_a 5.270178
_cell_length_b 20.827714
_cell_length_c 14.766219
_cell_angle_alpha 90.000000
_cell_angle_beta 90.000000
_cell_angle_gamma 90.000000
_cell_volume 1620.825253
_symmetry_space_group_name_H-M "C C C M"
_symmetry_group_IT_number 66
_symmetry_cell_setting 'orthorhombic'
loop_
_space_group_symop_operation_xyz
x,y,z
-x,-y,z
x,-y,1/2-z
-x,y,1/2-z
-x,-y,-z
x,y,-z
-x,y,1/2+z
x,-y,1/2+z
1/2+x,1/2+y,z
1/2-x,1/2-y,z
1/2+x,1/2-y,1/2-z
1/2-x,1/2+y,1/2-z
1/2-x,1/2-y,-z
1/2+x,1/2+y,-z
1/2-x,1/2+y,1/2+z
1/2+x,1/2-y,1/2+z
loop_
_atom_site_type_symbol
_atom_site_label
_atom_site_fract_x
_atom_site_fract_y
_atom_site_fract_z
Si Si1 0.500000 0.000000 0.250000
Si Si2 0.319391 0.175404 0.000000
Si Si3 0.597637 0.592073 0.845898
Si Si4 0.702675 0.939341 0.500000
O O1 0.320586 0.044511 0.187844
O O2 0.250000 0.250000 0.000000
O O3 0.198855 0.147863 0.908611
O O4 0.578226 0.132241 0.000000
O O5 0.500000 0.616741 0.750000
O O6 0.382401 0.560677 0.910870
O O7 0.500000 0.000000 0.500000
#
# Coordination Sequence:
#
# PCOD9499953 Si02
#       4
#     4   8  16   8
#     4  12  26  46  78 128 152 200 264 338 416 464
#     4  11  28  52  72 113 159 211 266 325 400 490
#     4  11  27  46  79 112 159 202 260 331 400 485
#     4  11  28  49  79 116 158 202 261 330 404 474
#
# _framework density 22.210906999999999
#
# number of rings (size 3 to 8) (size 9 to 14) (size 15 to 20)
#    0.000    0.889    0.000    3.333   18.667    8.000 
#   12.000    0.000    0.000    0.000    0.000    0.000 
#    0.000    0.000    0.000    0.000    0.000    0.000 
#
# Total GULP energy -100441.177545 kJ/mol
# GULP energy per Si atom -5580.065419 kJ/mol
# Density = 2.216035 g / cm^3
# Si number density = 22.210907 Si / 1000 Ang^3
#
#
#
# Elastic Constant Matrix: (Units=GPa)
#
#
# Indices 1 2 3 4 5 6 
#
# 1 144.1060 94.3656 91.2046 0.0000 0.0000 0.0000
# 2 94.3656 219.1579 96.9953 0.0000 0.0000 0.0000
# 3 91.2046 96.9953 260.6848 0.0000 0.0000 0.0000
# 4 0.0000 0.0000 0.0000 -38.4876 0.0000 0.0000
# 5 0.0000 0.0000 0.0000 0.0000 70.4308 0.0000
# 6 0.0000 0.0000 0.0000 0.0000 0.0000 21.6643
#
#
#
# Elastic Compliance Matrix: (Units=1/GPa)
#
#
# Indices 1 2 3 4 5 6 
#
# 1 0.010840 -0.003578 -0.002461 0.000000 0.000000 0.000000
# 2 -0.003578 0.006644 -0.001220 0.000000 0.000000 0.000000
# 3 -0.002461 -0.001220 0.005151 0.000000 0.000000 0.000000
# 4 0.000000 0.000000 0.000000 -0.025982 0.000000 0.000000
# 5 0.000000 0.000000 0.000000 0.000000 0.014198 0.000000
# 6 0.000000 0.000000 0.000000 0.000000 0.000000 0.046159
#
#
# Mechanical properties :
#
#
# Convention : Reuss Voigt Hill
#
# Bulk Modulus (GPa) = 123.21567 132.11996 127.66781
# Shear Modulus (GPa) = 67.35436 33.48039 50.41738
#
# Velocity S-wave (km/s) = 5.51278 3.88672 4.76956
# Velocity P-wave (km/s) = 9.80391 8.93059 9.37743
#
# Compressibility (1/GPa) = 0.00811585
#
# Stress axis : x y z
#
# Youngs Moduli (GPa) = 92.24879 150.51968 194.13384
#
# Poissons Ratio (x) = 0.53861 0.47780
# Poissons Ratio (y) = 0.33010 0.23685
# Poissons Ratio (z) = 0.22704 0.18364
#
# Static dielectric constant tensor:
#      x y z
#    x 2.007490 0.000000 0.000000 
#    y 0.000000 1.758560 0.000000 
#    z 0.000000 0.000000 7.516300 
# 
# From -- ./inp_files/22030.got.cif
#   From: 2010.05.17/outbox.cif.g08.bks.cpg/sg66_12_cif.got.tgz:22030.got - 2010.06.03 17:51:23.
