data_PCOD9499666
_publ_section_title
;
Structure prediction by ZEFSAII (Michael W. Deem and Ramdas Pophale) SiO2 
 PCOD9499666
Probable space group: C C C M
;
_chemical_formula_sum "Si O2"
_cell_formula_units_Z 64
_cell_length_a 10.378466
_cell_length_b 15.668099
_cell_length_c 19.676923
_cell_angle_alpha 90.000000
_cell_angle_beta 90.000000
_cell_angle_gamma 90.000000
_cell_volume 3199.680835
_symmetry_space_group_name_H-M "C C C M"
_symmetry_group_IT_number 66
_symmetry_cell_setting 'orthorhombic'
loop_
_space_group_symop_operation_xyz
x,y,z
-x,-y,z
x,-y,1/2-z
-x,y,1/2-z
-x,-y,-z
x,y,-z
-x,y,1/2+z
x,-y,1/2+z
1/2+x,1/2+y,z
1/2-x,1/2-y,z
1/2+x,1/2-y,1/2-z
1/2-x,1/2+y,1/2-z
1/2-x,1/2-y,-z
1/2+x,1/2+y,-z
1/2-x,1/2+y,1/2+z
1/2+x,1/2-y,1/2+z
loop_
_atom_site_type_symbol
_atom_site_label
_atom_site_fract_x
_atom_site_fract_y
_atom_site_fract_z
Si Si1 0.122683 0.054882 0.132831
Si Si2 0.280884 0.001454 0.000000
Si Si3 0.690151 0.000000 0.750000
Si Si4 0.903213 0.749533 0.877772
Si Si5 0.010289 0.358856 0.500000
Si Si6 0.000000 0.643746 0.750000
O O1 0.070401 0.150351 0.124204
O O2 0.192673 0.019541 0.065473
O O3 0.225657 0.045335 0.192794
O O4 0.000000 0.000000 0.151045
O O5 0.355039 0.910466 0.000000
O O6 0.395688 0.071097 0.000000
O O7 0.602941 0.076254 0.780902
O O8 0.750000 0.750000 0.893210
O O9 0.984121 0.699880 0.934587
O O10 0.934560 0.702338 0.807006
#
# Coordination Sequence:
#
# PCOD9499666 Si02
#       6
#    16   8   8  16   8   8
#     4  12  26  42  65  95 138 176 216 277 341 396
#     4  11  22  43  68 101 132 177 224 270 342 388
#     4  11  23  44  62  92 131 175 222 268 338 401
#     4  12  23  42  67 101 131 172 225 274 333 395
#     4  11  22  42  74  98 132 176 227 282 317 403
#     4  11  24  40  67  96 128 170 225 280 322 407
#
# _framework density 20.001995999999998
#
# number of rings (size 3 to 8) (size 9 to 14) (size 15 to 20)
#    0.000    0.500    5.000    3.375    3.500    4.000 
#    0.000    5.000    0.000    0.000    0.000    0.000 
#    0.000    0.000    0.000    0.000    0.000    0.000 
#
# Total GULP energy -178820.218934 kJ/mol
# GULP energy per Si atom -5588.131842 kJ/mol
# Density = 1.995647 g / cm^3
# Si number density = 20.001996 Si / 1000 Ang^3
#
#
#
# Elastic Constant Matrix: (Units=GPa)
#
#
# Indices 1 2 3 4 5 6 
#
# 1 64.8408 47.4782 7.8821 0.0000 0.0000 0.0000
# 2 47.4782 161.6245 32.2664 0.0000 0.0000 0.0000
# 3 7.8821 32.2664 81.4212 0.0000 0.0000 0.0000
# 4 0.0000 0.0000 0.0000 27.6452 0.0000 0.0000
# 5 0.0000 0.0000 0.0000 0.0000 37.9719 0.0000
# 6 0.0000 0.0000 0.0000 0.0000 0.0000 101.5672
#
#
#
# Elastic Compliance Matrix: (Units=1/GPa)
#
#
# Indices 1 2 3 4 5 6 
#
# 1 0.019662 -0.005859 0.000419 0.000000 0.000000 0.000000
# 2 -0.005859 0.008465 -0.002787 0.000000 0.000000 0.000000
# 3 0.000419 -0.002787 0.013346 0.000000 0.000000 0.000000
# 4 0.000000 0.000000 0.000000 0.036173 0.000000 0.000000
# 5 0.000000 0.000000 0.000000 0.000000 0.026335 0.000000
# 6 0.000000 0.000000 0.000000 0.000000 0.000000 0.009846
#
#
# Mechanical properties :
#
#
# Convention : Reuss Voigt Hill
#
# Bulk Modulus (GPa) = 39.97365 53.68220 46.82792
# Shear Modulus (GPa) = 36.06950 48.12084 42.09517
#
# Velocity S-wave (km/s) = 4.25113 4.91022 4.59251
# Velocity P-wave (km/s) = 6.64262 7.68399 7.18220
#
# Compressibility (1/GPa) = 0.02501648
#
# Stress axis : x y z
#
# Youngs Moduli (GPa) = 50.85981 118.13540 74.92953
#
# Poissons Ratio (x) = 0.69220 -0.03137
# Poissons Ratio (y) = 0.29801 0.20885
# Poissons Ratio (z) = -0.02129 0.32928
#
# Static dielectric constant tensor:
#      x y z
#    x 1.691770 0.000000 0.000000 
#    y 0.000000 1.764410 0.000000 
#    z 0.000000 0.000000 1.693620 
# 
# From -- ./inp_files/38101.got.cif
#   From: 2010.05.17/outbox.cif.g08.bks.cpg/sg66_20_cif.got.tgz:38101.got - 2010.06.03 17:51:23.
