data_PCOD9499655
_publ_section_title
;
Structure prediction by ZEFSAII (Michael W. Deem and Ramdas Pophale) SiO2 
 PCOD9499655
Probable space group: C C C M
;
_chemical_formula_sum "Si O2"
_cell_formula_units_Z 68
_cell_length_a 7.293883
_cell_length_b 19.014007
_cell_length_c 24.325030
_cell_angle_alpha 90.000000
_cell_angle_beta 90.000000
_cell_angle_gamma 90.000000
_cell_volume 3373.539710
_symmetry_space_group_name_H-M "C C C M"
_symmetry_group_IT_number 66
_symmetry_cell_setting 'orthorhombic'
loop_
_space_group_symop_operation_xyz
x,y,z
-x,-y,z
x,-y,1/2-z
-x,y,1/2-z
-x,-y,-z
x,y,-z
-x,y,1/2+z
x,-y,1/2+z
1/2+x,1/2+y,z
1/2-x,1/2-y,z
1/2+x,1/2-y,1/2-z
1/2-x,1/2+y,1/2-z
1/2-x,1/2-y,-z
1/2+x,1/2+y,-z
1/2-x,1/2+y,1/2+z
1/2+x,1/2-y,1/2+z
loop_
_atom_site_type_symbol
_atom_site_label
_atom_site_fract_x
_atom_site_fract_y
_atom_site_fract_z
Si Si1 0.000000 0.500000 0.750000
Si Si2 0.498934 0.417922 0.065202
Si Si3 0.275402 0.833801 0.858307
Si Si4 0.706129 0.171819 0.378736
Si Si5 0.695562 0.135747 0.737040
O O1 0.866390 0.443957 0.720862
O O2 0.500000 0.500000 0.080284
O O3 0.652831 0.374086 0.097588
O O4 0.307189 0.383874 0.083491
O O5 0.525725 0.411787 0.000000
O O6 0.250000 0.750000 0.859262
O O7 0.491082 0.844220 0.871494
O O8 0.220121 0.862318 0.797438
O O9 0.750000 0.250000 0.399553
O O10 0.786454 0.167995 0.316206
O O11 0.500000 0.174073 0.750000
#
# Coordination Sequence:
#
# PCOD9499655 Si02
#       5
#     4  16  16  16  16
#     4   8  16  32  52  98 122 164 208 248 300 404
#     4  11  28  46  63  94 128 166 225 274 314 376
#     4  11  22  42  67  96 128 169 208 264 323 380
#     4  11  22  42  67  96 128 169 208 264 323 380
#     4   8  19  32  60  95 131 155 207 254 314 390
#
# _framework density 20.156869
#
# number of rings (size 3 to 8) (size 9 to 14) (size 15 to 20)
#    0.706    1.176    2.353    0.706    3.294    3.765 
#    0.000    3.529    0.000    0.000    0.000    0.000 
#    0.000    0.000    0.000    0.000    0.000    0.000 
#
# Total GULP energy -189470.553511 kJ/mol
# GULP energy per Si atom -5572.663339 kJ/mol
# Density = 2.011099 g / cm^3
# Si number density = 20.156869 Si / 1000 Ang^3
#
#
#
# Elastic Constant Matrix: (Units=GPa)
#
#
# Indices 1 2 3 4 5 6 
#
# 1 83.0575 23.9553 18.7572 0.0000 0.0000 0.0000
# 2 23.9553 150.6841 47.8991 0.0000 0.0000 0.0000
# 3 18.7572 47.8991 73.9588 0.0000 0.0000 0.0000
# 4 0.0000 0.0000 0.0000 2.5326 0.0000 0.0000
# 5 0.0000 0.0000 0.0000 0.0000 30.7344 0.0000
# 6 0.0000 0.0000 0.0000 0.0000 0.0000 17.0707
#
#
#
# Elastic Compliance Matrix: (Units=1/GPa)
#
#
# Indices 1 2 3 4 5 6 
#
# 1 0.012964 -0.001279 -0.002459 0.000000 0.000000 0.000000
# 2 -0.001279 0.008483 -0.005170 0.000000 0.000000 0.000000
# 3 -0.002459 -0.005170 0.017493 0.000000 0.000000 0.000000
# 4 0.000000 0.000000 0.000000 0.394845 0.000000 0.000000
# 5 0.000000 0.000000 0.000000 0.000000 0.032537 0.000000
# 6 0.000000 0.000000 0.000000 0.000000 0.000000 0.058580
#
#
# Mechanical properties :
#
#
# Convention : Reuss Voigt Hill
#
# Bulk Modulus (GPa) = 47.34036 54.32485 50.83261
# Shear Modulus (GPa) = 9.09488 24.54013 16.81751
#
# Velocity S-wave (km/s) = 2.12646 3.49299 2.89161
# Velocity P-wave (km/s) = 5.43747 6.57857 6.03505
#
# Compressibility (1/GPa) = 0.02112362
#
# Stress axis : x y z
#
# Youngs Moduli (GPa) = 77.13534 117.88201 57.16615
#
# Poissons Ratio (x) = 0.15080 0.14060
# Poissons Ratio (y) = 0.09867 0.29553
# Poissons Ratio (z) = 0.18971 0.60940
#
# Static dielectric constant tensor:
#      x y z
#    x 1.766310 0.000000 0.000000 
#    y 0.000000 1.723150 0.000000 
#    z 0.000000 0.000000 1.713940 
# 
# From -- ./inp_files/46752.got.cif
#   From: 2010.05.17/outbox.cif.g08.bks.cpg/sg66_24_cif.got.tgz:46752.got - 2010.06.03 17:51:23.
