data_PCOD9499415
_publ_section_title
;
Structure prediction by ZEFSAII (Michael W. Deem and Ramdas Pophale) SiO2 
 PCOD9499415
Probable space group: C C C M
;
_chemical_formula_sum "Si O2"
_cell_formula_units_Z 68
_cell_length_a 15.016439
_cell_length_b 13.192145
_cell_length_c 17.992887
_cell_angle_alpha 90.000000
_cell_angle_beta 90.000000
_cell_angle_gamma 90.000000
_cell_volume 3564.373654
_symmetry_space_group_name_H-M "C C C M"
_symmetry_group_IT_number 66
_symmetry_cell_setting 'orthorhombic'
loop_
_space_group_symop_operation_xyz
x,y,z
-x,-y,z
x,-y,1/2-z
-x,y,1/2-z
-x,-y,-z
x,y,-z
-x,y,1/2+z
x,-y,1/2+z
1/2+x,1/2+y,z
1/2-x,1/2-y,z
1/2+x,1/2-y,1/2-z
1/2-x,1/2+y,1/2-z
1/2-x,1/2-y,-z
1/2+x,1/2+y,-z
1/2-x,1/2+y,1/2+z
1/2+x,1/2-y,1/2+z
loop_
_atom_site_type_symbol
_atom_site_label
_atom_site_fract_x
_atom_site_fract_y
_atom_site_fract_z
Si Si1 0.643099 0.392958 0.155746
Si Si2 0.099727 0.443383 0.000000
Si Si3 0.750000 0.750000 0.240425
Si Si4 0.362631 0.301128 0.000000
Si Si5 0.947111 0.107389 0.000000
Si Si6 0.500000 0.500000 0.250000
Si Si7 0.761841 0.416949 0.378477
O O1 0.680631 0.301584 0.203914
O O2 0.614503 0.375229 0.071202
O O3 0.556272 0.429801 0.197219
O O4 0.709358 0.488627 0.155698
O O5 0.157302 0.466539 0.925839
O O6 0.000000 0.500000 0.000000
O O7 0.125274 0.320671 0.000000
O O8 0.787972 0.662413 0.185829
O O9 0.466185 0.324892 0.000000
O O10 0.308587 0.353167 0.068839
O O11 0.000000 0.000000 0.000000
#
# Coordination Sequence:
#
# PCOD9499415 Si02
#       7
#    16   8   8   8   8   4  16
#     4  12  25  40  67 102 136 175 224 287 343 407
#     4  11  24  39  71  97 130 174 237 285 330 423
#     4  12  24  40  64  94 138 184 222 274 340 414
#     4  11  20  39  72  95 122 177 224 278 338 421
#     4  12  22  39  68 101 132 163 225 292 335 385
#     4  12  20  38  68 104 124 170 236 280 324 410
#     4  11  20  43  67  94 131 181 231 270 346 413
#
# _framework density 19.077686
#
# number of rings (size 3 to 8) (size 9 to 14) (size 15 to 20)
#    0.000    0.471    8.235    1.412    0.000    2.353 
#    0.000    0.000    0.000    1.412    0.000    0.000 
#    0.000    0.000    0.000    0.000    0.000    0.000 
#
# Total GULP energy -189282.134119 kJ/mol
# GULP energy per Si atom -5567.121592 kJ/mol
# Density = 1.903426 g / cm^3
# Si number density = 19.077686 Si / 1000 Ang^3
#
#
#
# Elastic Constant Matrix: (Units=GPa)
#
#
# Indices 1 2 3 4 5 6 
#
# 1 103.6771 54.7565 61.4192 0.0000 0.0000 0.0000
# 2 54.7565 65.1309 44.5855 0.0000 0.0000 0.0000
# 3 61.4192 44.5855 166.3436 0.0000 0.0000 0.0000
# 4 0.0000 0.0000 0.0000 27.5972 0.0000 0.0000
# 5 0.0000 0.0000 0.0000 0.0000 25.0729 0.0000
# 6 0.0000 0.0000 0.0000 0.0000 0.0000 44.5388
#
#
#
# Elastic Compliance Matrix: (Units=1/GPa)
#
#
# Indices 1 2 3 4 5 6 
#
# 1 0.018718 -0.013478 -0.003299 0.000000 0.000000 0.000000
# 2 -0.013478 0.028509 -0.002665 0.000000 0.000000 0.000000
# 3 -0.003299 -0.002665 0.007944 0.000000 0.000000 0.000000
# 4 0.000000 0.000000 0.000000 0.036236 0.000000 0.000000
# 5 0.000000 0.000000 0.000000 0.000000 0.039884 0.000000
# 6 0.000000 0.000000 0.000000 0.000000 0.000000 0.022452
#
#
# Mechanical properties :
#
#
# Convention : Reuss Voigt Hill
#
# Bulk Modulus (GPa) = 61.39645 72.96379 67.18012
# Shear Modulus (GPa) = 25.24540 31.06780 28.15660
#
# Velocity S-wave (km/s) = 3.64166 4.03983 3.84590
# Velocity P-wave (km/s) = 7.06643 7.75171 7.41699
#
# Compressibility (1/GPa) = 0.01628759
#
# Stress axis : x y z
#
# Youngs Moduli (GPa) = 53.42440 35.07615 125.88351
#
# Poissons Ratio (x) = 0.47277 0.41524
# Poissons Ratio (y) = 0.72008 0.33545
# Poissons Ratio (z) = 0.17623 0.09347
#
# Static dielectric constant tensor:
#      x y z
#    x 1.710870 0.000000 0.000000 
#    y 0.000000 1.745470 0.000000 
#    z 0.000000 0.000000 2.115960 
# 
# From -- ./inp_files/49703.got.cif
#   From: 2010.05.17/outbox.cif.g08.bks.cpg/sg66_25_cif.got.tgz:49703.got - 2010.06.03 17:51:23.
