data_PCOD9499044
_publ_section_title
;
Structure prediction by ZEFSAII (Michael W. Deem and Ramdas Pophale) SiO2 
 PCOD9499044
Probable space group: C C C M
;
_chemical_formula_sum "Si O2"
_cell_formula_units_Z 56
_cell_length_a 5.637724
_cell_length_b 29.593644
_cell_length_c 14.390121
_cell_angle_alpha 90.000000
_cell_angle_beta 90.000000
_cell_angle_gamma 90.000000
_cell_volume 2400.859257
_symmetry_space_group_name_H-M "C C C M"
_symmetry_group_IT_number 66
_symmetry_cell_setting 'orthorhombic'
loop_
_space_group_symop_operation_xyz
x,y,z
-x,-y,z
x,-y,1/2-z
-x,y,1/2-z
-x,-y,-z
x,y,-z
-x,y,1/2+z
x,-y,1/2+z
1/2+x,1/2+y,z
1/2-x,1/2-y,z
1/2+x,1/2-y,1/2-z
1/2-x,1/2+y,1/2-z
1/2-x,1/2-y,-z
1/2+x,1/2+y,-z
1/2-x,1/2+y,1/2+z
1/2+x,1/2-y,1/2+z
loop_
_atom_site_type_symbol
_atom_site_label
_atom_site_fract_x
_atom_site_fract_y
_atom_site_fract_z
Si Si1 0.836976 0.369403 0.895367
Si Si2 0.667696 0.042772 0.603072
Si Si3 0.998302 0.271149 0.388132
Si Si4 0.500000 0.414663 0.750000
O O1 0.646122 0.382404 0.818795
O O2 0.007024 0.412492 0.899434
O O3 0.982179 0.324564 0.870418
O O4 0.734279 0.362406 0.000000
O O5 0.778024 0.037373 0.500000
O O6 0.848570 0.052750 0.684233
O O7 0.500000 0.000000 0.619861
O O8 0.995268 0.264959 0.500000
O O9 0.750000 0.250000 0.353925
O O10 0.250000 0.250000 0.356375
#
# Coordination Sequence:
#
# PCOD9499044 Si02
#       4
#    16  16  16   8
#     4  10  23  41  67 103 141 185 236 294 359 435
#     4  10  24  46  70  99 137 183 235 290 358 437
#     4   9  19  37  67 101 135 184 240 291 356 433
#     4  12  24  41  72 102 142 184 238 302 363 430
#
# _framework density 23.324981000000001
#
# number of rings (size 3 to 8) (size 9 to 14) (size 15 to 20)
#    0.000    2.000    0.000    1.714    4.000    4.571 
#    0.000    4.286    6.286    2.571    0.000    0.000 
#    0.000    1.143    0.000    0.000    0.000    0.000 
#
# Total GULP energy -156722.355062 kJ/mol
# GULP energy per Si atom -5597.226967 kJ/mol
# Density = 2.327189 g / cm^3
# Si number density = 23.324981 Si / 1000 Ang^3
#
#
#
# Elastic Constant Matrix: (Units=GPa)
#
#
# Indices 1 2 3 4 5 6 
#
# 1 141.9022 95.4556 95.5702 0.0000 0.0000 0.0000
# 2 95.4556 201.6942 52.2638 0.0000 0.0000 0.0000
# 3 95.5702 52.2638 194.3018 0.0000 0.0000 0.0000
# 4 0.0000 0.0000 0.0000 4.8664 0.0000 0.0000
# 5 0.0000 0.0000 0.0000 0.0000 62.3561 0.0000
# 6 0.0000 0.0000 0.0000 0.0000 0.0000 23.4488
#
#
#
# Elastic Compliance Matrix: (Units=1/GPa)
#
#
# Indices 1 2 3 4 5 6 
#
# 1 0.014500 -0.005390 -0.005682 0.000000 0.000000 0.000000
# 2 -0.005390 0.007333 0.000679 0.000000 0.000000 0.000000
# 3 -0.005682 0.000679 0.007759 0.000000 0.000000 0.000000
# 4 0.000000 0.000000 0.000000 0.205492 0.000000 0.000000
# 5 0.000000 0.000000 0.000000 0.000000 0.016037 0.000000
# 6 0.000000 0.000000 0.000000 0.000000 0.000000 0.042646
#
#
# Mechanical properties :
#
#
# Convention : Reuss Voigt Hill
#
# Bulk Modulus (GPa) = 113.57277 113.83081 113.70179
# Shear Modulus (GPa) = 15.74861 37.77482 26.76171
#
# Velocity S-wave (km/s) = 2.60125 4.02867 3.39092
# Velocity P-wave (km/s) = 7.60389 8.39930 8.01147
#
# Compressibility (1/GPa) = 0.00880493
#
# Stress axis : x y z
#
# Youngs Moduli (GPa) = 68.96728 136.36973 128.88415
#
# Poissons Ratio (x) = 0.73501 0.73233
# Poissons Ratio (y) = 0.37172 -0.08747
# Poissons Ratio (z) = 0.39188 -0.09254
#
# Static dielectric constant tensor:
#      x y z
#    x 1.871440 0.000000 0.000000 
#    y 0.000000 1.822130 0.000000 
#    z 0.000000 0.000000 1.918320 
# 
# From -- ./inp_files/22482.got.cif
#   From: 2010.05.17/outbox.cif.g08.bks.cpg/sg66_12_cif.got.tgz:22482.got - 2010.06.03 17:51:23.
