data_PCOD9499282
_publ_section_title
;
Structure prediction by ZEFSAII (Michael W. Deem and Ramdas Pophale) SiO2 
 PCOD9499282
Probable space group: C C C M
;
_chemical_formula_sum "Si O2"
_cell_formula_units_Z 108
_cell_length_a 28.553052
_cell_length_b 5.354682
_cell_length_c 31.566367
_cell_angle_alpha 90.000000
_cell_angle_beta 90.000000
_cell_angle_gamma 90.000000
_cell_volume 4826.261196
_symmetry_space_group_name_H-M "C C C M"
_symmetry_group_IT_number 66
_symmetry_cell_setting 'orthorhombic'
loop_
_space_group_symop_operation_xyz
x,y,z
-x,-y,z
x,-y,1/2-z
-x,y,1/2-z
-x,-y,-z
x,y,-z
-x,y,1/2+z
x,-y,1/2+z
1/2+x,1/2+y,z
1/2-x,1/2-y,z
1/2+x,1/2-y,1/2-z
1/2-x,1/2+y,1/2-z
1/2-x,1/2-y,-z
1/2+x,1/2+y,-z
1/2-x,1/2+y,1/2+z
1/2+x,1/2-y,1/2+z
loop_
_atom_site_type_symbol
_atom_site_label
_atom_site_fract_x
_atom_site_fract_y
_atom_site_fract_z
Si Si1 0.880091 0.870618 0.092562
Si Si2 0.952795 0.169972 0.953004
Si Si3 0.329780 0.552317 0.679456
Si Si4 0.250000 0.750000 0.150398
Si Si5 0.792493 0.454415 0.424738
Si Si6 0.448680 0.002199 0.130919
Si Si7 0.622674 0.067431 0.204708
Si Si8 0.250000 0.750000 0.000000
O O1 0.843389 0.669846 0.074522
O O2 0.925729 0.760898 0.116363
O O3 0.903767 0.025698 0.055107
O O4 0.850014 0.982731 0.131319
O O5 0.953212 0.351166 0.912819
O O6 0.952466 0.286847 0.000000
O O7 0.000000 0.000000 0.951296
O O8 0.276401 0.463166 0.676443
O O9 0.343245 0.832145 0.693293
O O10 0.352570 0.334361 0.707411
O O11 0.215484 0.598828 0.119104
O O12 0.750000 0.250000 0.428760
O O13 0.784866 0.642701 0.462906
O O14 0.500000 0.000000 0.149960
O O15 0.413423 0.905918 0.166285
O O16 0.600848 0.000000 0.250000
#
# Coordination Sequence:
#
# PCOD9499282 Si02
#       8
#    16  16  16   8  16  16  16   4
#     4  11  23  41  67  98 133 191 242 297 368 434
#     4  11  24  42  66 101 141 188 247 305 362 435
#     4  11  23  43  74 101 143 188 240 301 369 446
#     4  11  22  41  68  98 134 182 244 296 369 432
#     4  11  23  42  63  92 137 183 246 303 363 436
#     4  11  23  43  69  97 142 189 238 299 371 438
#     4  11  25  45  72 109 144 187 242 306 370 450
#     4  10  26  40  60  94 144 186 242 320 368 434
#
# _framework density 22.377569000000001
#
# number of rings (size 3 to 8) (size 9 to 14) (size 15 to 20)
#    0.000    1.037    4.444    2.444    1.037    1.185 
#    2.667    1.481    0.000    1.778    0.000    0.000 
#    0.000    0.000    0.000    0.000    0.000    0.000 
#
# Total GULP energy -301008.211636 kJ/mol
# GULP energy per Si atom -5574.226141 kJ/mol
# Density = 2.232664 g / cm^3
# Si number density = 22.377569 Si / 1000 Ang^3
#
#
#
# Elastic Constant Matrix: (Units=GPa)
#
#
# Indices 1 2 3 4 5 6 
#
# 1 82.6291 34.8141 -2.5381 0.0000 0.0000 0.0000
# 2 34.8141 64.4262 11.0764 0.0000 0.0000 0.0000
# 3 -2.5381 11.0764 102.2572 0.0000 0.0000 0.0000
# 4 0.0000 0.0000 0.0000 24.7883 0.0000 0.0000
# 5 0.0000 0.0000 0.0000 0.0000 12.5854 0.0000
# 6 0.0000 0.0000 0.0000 0.0000 0.0000 40.8495
#
#
#
# Elastic Compliance Matrix: (Units=1/GPa)
#
#
# Indices 1 2 3 4 5 6 
#
# 1 0.015850 -0.008796 0.001346 0.000000 0.000000 0.000000
# 2 -0.008796 0.020698 -0.002460 0.000000 0.000000 0.000000
# 3 0.001346 -0.002460 0.010079 0.000000 0.000000 0.000000
# 4 0.000000 0.000000 0.000000 0.040342 0.000000 0.000000
# 5 0.000000 0.000000 0.000000 0.000000 0.079457 0.000000
# 6 0.000000 0.000000 0.000000 0.000000 0.000000 0.024480
#
#
# Mechanical properties :
#
#
# Convention : Reuss Voigt Hill
#
# Bulk Modulus (GPa) = 37.30487 37.33526 37.32006
# Shear Modulus (GPa) = 22.76231 29.37531 26.06881
#
# Velocity S-wave (km/s) = 3.19281 3.62707 3.41684
# Velocity P-wave (km/s) = 5.50444 5.85331 5.68156
#
# Compressibility (1/GPa) = 0.02680615
#
# Stress axis : x y z
#
# Youngs Moduli (GPa) = 63.09253 48.31418 99.21450
#
# Poissons Ratio (x) = 0.42498 -0.13356
# Poissons Ratio (y) = 0.55498 0.24410
# Poissons Ratio (z) = -0.08494 0.11887
#
# Static dielectric constant tensor:
#      x y z
#    x 1.692920 0.000000 0.000000 
#    y 0.000000 1.967150 0.000000 
#    z 0.000000 0.000000 1.788320 
# 
# From -- ./inp_files/70721.got.cif
#   From: 2010.05.17/outbox.cif.g08.bks.cpg/sg66_36_cif.got.tgz:70721.got - 2010.06.03 17:51:23.
