data_PCOD9499291
_publ_section_title
;
Structure prediction by ZEFSAII (Michael W. Deem and Ramdas Pophale) SiO2 
 PCOD9499291
Probable space group: C C C M
;
_chemical_formula_sum "Si O2"
_cell_formula_units_Z 120
_cell_length_a 26.146656
_cell_length_b 11.666473
_cell_length_c 19.809479
_cell_angle_alpha 90.000000
_cell_angle_beta 90.000000
_cell_angle_gamma 90.000000
_cell_volume 6042.668741
_symmetry_space_group_name_H-M "C C C M"
_symmetry_group_IT_number 66
_symmetry_cell_setting 'orthorhombic'
loop_
_space_group_symop_operation_xyz
x,y,z
-x,-y,z
x,-y,1/2-z
-x,y,1/2-z
-x,-y,-z
x,y,-z
-x,y,1/2+z
x,-y,1/2+z
1/2+x,1/2+y,z
1/2-x,1/2-y,z
1/2+x,1/2-y,1/2-z
1/2-x,1/2+y,1/2-z
1/2-x,1/2-y,-z
1/2+x,1/2+y,-z
1/2-x,1/2+y,1/2+z
1/2+x,1/2-y,1/2+z
loop_
_atom_site_type_symbol
_atom_site_label
_atom_site_fract_x
_atom_site_fract_y
_atom_site_fract_z
Si Si1 0.293062 0.841335 0.077997
Si Si2 0.624478 0.708367 0.357957
Si Si3 0.991219 0.863174 0.329992
Si Si4 0.355614 0.131168 0.230081
Si Si5 0.832180 0.966888 0.827055
Si Si6 0.406139 0.275469 0.872762
Si Si7 0.775185 0.594308 0.875261
Si Si8 0.165307 0.287219 0.000000
O O1 0.250000 0.750000 0.101769
O O2 0.349045 0.785042 0.084541
O O3 0.290581 0.960189 0.117908
O O4 0.281367 0.867613 0.000000
O O5 0.564652 0.679143 0.352920
O O6 0.639286 0.781017 0.291361
O O7 0.652463 0.586192 0.360803
O O8 0.000000 0.836200 0.250000
O O9 0.034400 0.803056 0.375153
O O10 0.000000 0.000000 0.336473
O O11 0.396911 0.164943 0.173694
O O12 0.301610 0.143198 0.191792
O O13 0.362146 0.000000 0.250000
O O14 0.879835 0.881075 0.831996
O O15 0.785329 0.908179 0.865586
O O16 0.819267 0.000000 0.750000
O O17 0.375024 0.257670 0.941005
O O18 0.796773 0.659048 0.940315
#
# Coordination Sequence:
#
# PCOD9499291 Si02
#       8
#    16  16  16  16  16  16  16   8
#     4  11  23  41  63  92 131 176 220 267 322 399
#     4  12  23  41  67 100 133 165 222 276 344 398
#     4  11  21  41  72 100 129 168 215 285 354 394
#     4  11  22  38  62  95 132 173 218 274 333 400
#     4  12  23  39  65 104 133 168 220 286 343 400
#     4  11  24  45  67  94 137 176 230 284 335 406
#     4  11  23  39  66  92 136 183 223 266 333 403
#     4  10  26  47  64  91 138 192 232 262 333 419
#
# _framework density 19.858775000000001
#
# number of rings (size 3 to 8) (size 9 to 14) (size 15 to 20)
#    0.000    0.800    7.333    0.400    0.000    3.200 
#    4.800    1.667    0.000    0.800    0.000    0.000 
#    0.000    0.000    0.000    0.000    0.000    0.000 
#
# Total GULP energy -334145.849004 kJ/mol
# GULP energy per Si atom -5569.097483 kJ/mol
# Density = 1.981358 g / cm^3
# Si number density = 19.858775 Si / 1000 Ang^3
#
#
#
# Elastic Constant Matrix: (Units=GPa)
#
#
# Indices 1 2 3 4 5 6 
#
# 1 147.7913 41.8654 25.3281 0.0000 0.0000 0.0000
# 2 41.8654 88.0218 26.9173 0.0000 0.0000 0.0000
# 3 25.3281 26.9173 76.7233 0.0000 0.0000 0.0000
# 4 0.0000 0.0000 0.0000 4.4350 0.0000 0.0000
# 5 0.0000 0.0000 0.0000 0.0000 6.4219 0.0000
# 6 0.0000 0.0000 0.0000 0.0000 0.0000 31.9401
#
#
#
# Elastic Compliance Matrix: (Units=1/GPa)
#
#
# Indices 1 2 3 4 5 6 
#
# 1 0.007963 -0.003342 -0.001456 0.000000 0.000000 0.000000
# 2 -0.003342 0.014129 -0.003854 0.000000 0.000000 0.000000
# 3 -0.001456 -0.003854 0.014867 0.000000 0.000000 0.000000
# 4 0.000000 0.000000 0.000000 0.225479 0.000000 0.000000
# 5 0.000000 0.000000 0.000000 0.000000 0.155717 0.000000
# 6 0.000000 0.000000 0.000000 0.000000 0.000000 0.031309
#
#
# Mechanical properties :
#
#
# Convention : Reuss Voigt Hill
#
# Bulk Modulus (GPa) = 50.87900 55.63977 53.25939
# Shear Modulus (GPa) = 10.56374 23.12111 16.84243
#
# Velocity S-wave (km/s) = 2.30889 3.41585 2.91539
# Velocity P-wave (km/s) = 5.72573 6.60575 6.18142
#
# Compressibility (1/GPa) = 0.01965447
#
# Stress axis : x y z
#
# Youngs Moduli (GPa) = 125.58839 70.77767 67.26508
#
# Poissons Ratio (x) = 0.23653 0.09795
# Poissons Ratio (y) = 0.41970 0.25922
# Poissons Ratio (z) = 0.18288 0.27275
#
# Static dielectric constant tensor:
#      x y z
#    x 1.702390 0.000000 0.000000 
#    y 0.000000 1.721850 0.000000 
#    z 0.000000 0.000000 1.687610 
# 
# From -- ./inp_files/53175.got.cif
#   From: 2010.05.17/outbox.cif.g08.bks.cpg/sg66_27_cif.got.tgz:53175.got - 2010.06.03 17:51:23.
