data_PCOD9499189
_publ_section_title
;
Structure prediction by ZEFSAII (Michael W. Deem and Ramdas Pophale) SiO2 
 PCOD9499189
Probable space group: C C C M
;
_chemical_formula_sum "Si O2"
_cell_formula_units_Z 88
_cell_length_a 28.169064
_cell_length_b 6.074957
_cell_length_c 25.098048
_cell_angle_alpha 90.000000
_cell_angle_beta 90.000000
_cell_angle_gamma 90.000000
_cell_volume 4294.924861
_symmetry_space_group_name_H-M "C C C M"
_symmetry_group_IT_number 66
_symmetry_cell_setting 'orthorhombic'
loop_
_space_group_symop_operation_xyz
x,y,z
-x,-y,z
x,-y,1/2-z
-x,y,1/2-z
-x,-y,-z
x,y,-z
-x,y,1/2+z
x,-y,1/2+z
1/2+x,1/2+y,z
1/2-x,1/2-y,z
1/2+x,1/2-y,1/2-z
1/2-x,1/2+y,1/2-z
1/2-x,1/2-y,-z
1/2+x,1/2+y,-z
1/2-x,1/2+y,1/2+z
1/2+x,1/2-y,1/2+z
loop_
_atom_site_type_symbol
_atom_site_label
_atom_site_fract_x
_atom_site_fract_y
_atom_site_fract_z
Si Si1 0.358868 0.611287 0.500000
Si Si2 0.415743 0.500000 0.250000
Si Si3 0.303474 0.164753 0.908232
Si Si4 0.500000 0.500000 0.091697
Si Si5 0.455833 0.163922 0.328212
Si Si6 0.306298 0.186048 0.500000
Si Si7 0.539135 0.199758 0.500000
Si Si8 0.134294 0.621649 0.693426
O O1 0.331828 0.663097 0.555058
O O2 0.352507 0.346829 0.500000
O O3 0.403576 0.780215 0.500000
O O4 0.447231 0.310510 0.276057
O O5 0.383673 0.632571 0.292154
O O6 0.250000 0.250000 0.905492
O O7 0.324523 0.131490 0.849762
O O8 0.308689 0.951184 0.945321
O O9 0.466292 0.654917 0.126819
O O10 0.527640 0.663327 0.053035
O O11 0.500000 0.000000 0.324927
O O12 0.409021 0.015118 0.333085
O O13 0.250000 0.250000 0.500000
O O14 0.500000 0.000000 0.500000
O O15 0.145344 0.500000 0.750000
#
# Coordination Sequence:
#
# PCOD9499189 Si02
#       8
#     8   8  16   8  16   8   8  16
#     4  11  25  40  76 100 133 177 227 289 352 416
#     4  10  24  43  64  96 130 178 230 280 341 402
#     4  11  24  44  70 101 135 176 229 294 346 416
#     4  11  26  41  62  94 138 179 222 263 352 410
#     4  11  24  41  67  96 131 175 226 280 333 414
#     4  11  21  45  70 105 132 168 233 289 359 425
#     4  11  28  44  62 100 140 180 225 281 340 436
#     4  10  25  44  65  98 140 179 233 287 346 421
#
# _framework density 20.489297000000001
#
# number of rings (size 3 to 8) (size 9 to 14) (size 15 to 20)
#    0.000    1.273    1.818    2.182   10.182   11.636 
#    1.636    0.000    0.000    0.000    0.000    0.000 
#    0.000    0.000    0.000    0.000    0.000    0.000 
#
# Total GULP energy -245332.437586 kJ/mol
# GULP energy per Si atom -5575.737218 kJ/mol
# Density = 2.044266 g / cm^3
# Si number density = 20.489297 Si / 1000 Ang^3
#
#
#
# Elastic Constant Matrix: (Units=GPa)
#
#
# Indices 1 2 3 4 5 6 
#
# 1 127.3272 49.8577 63.0401 0.0000 0.0000 0.0000
# 2 49.8577 115.4770 37.6729 0.0000 0.0000 0.0000
# 3 63.0401 37.6729 124.3821 0.0000 0.0000 0.0000
# 4 0.0000 0.0000 0.0000 69.9882 0.0000 0.0000
# 5 0.0000 0.0000 0.0000 0.0000 46.5205 0.0000
# 6 0.0000 0.0000 0.0000 0.0000 0.0000 23.7323
#
#
#
# Elastic Compliance Matrix: (Units=1/GPa)
#
#
# Indices 1 2 3 4 5 6 
#
# 1 0.011590 -0.003426 -0.004836 0.000000 0.000000 0.000000
# 2 -0.003426 0.010622 -0.001481 0.000000 0.000000 0.000000
# 3 -0.004836 -0.001481 0.010939 0.000000 0.000000 0.000000
# 4 0.000000 0.000000 0.000000 0.014288 0.000000 0.000000
# 5 0.000000 0.000000 0.000000 0.000000 0.021496 0.000000
# 6 0.000000 0.000000 0.000000 0.000000 0.000000 0.042137
#
#
# Mechanical properties :
#
#
# Convention : Reuss Voigt Hill
#
# Bulk Modulus (GPa) = 73.18047 74.25864 73.71955
# Shear Modulus (GPa) = 37.00594 42.48925 39.74759
#
# Velocity S-wave (km/s) = 4.25445 4.55876 4.40923
# Velocity P-wave (km/s) = 7.74130 8.00194 7.87270
#
# Compressibility (1/GPa) = 0.01366485
#
# Stress axis : x y z
#
# Youngs Moduli (GPa) = 86.28238 94.14353 91.41272
#
# Poissons Ratio (x) = 0.32255 0.44210
# Poissons Ratio (y) = 0.29562 0.13536
# Poissons Ratio (z) = 0.41729 0.13940
#
# Static dielectric constant tensor:
#      x y z
#    x 1.589060 0.000000 0.000000 
#    y 0.000000 1.649800 0.000000 
#    z 0.000000 0.000000 1.724960 
# 
# From -- ./inp_files/60454.got.cif
#   From: 2010.05.17/outbox.cif.g08.bks.cpg/sg66_31_cif.got.tgz:60454.got - 2010.06.03 17:51:23.
