data_PCOD9499544
_publ_section_title
;
Structure prediction by ZEFSAII (Michael W. Deem and Ramdas Pophale) SiO2 
 PCOD9499544
Probable space group: C C C M
;
_chemical_formula_sum "Si O2"
_cell_formula_units_Z 64
_cell_length_a 8.453716
_cell_length_b 14.780261
_cell_length_c 22.318240
_cell_angle_alpha 90.000000
_cell_angle_beta 90.000000
_cell_angle_gamma 90.000000
_cell_volume 2788.622328
_symmetry_space_group_name_H-M "C C C M"
_symmetry_group_IT_number 66
_symmetry_cell_setting 'orthorhombic'
loop_
_space_group_symop_operation_xyz
x,y,z
-x,-y,z
x,-y,1/2-z
-x,y,1/2-z
-x,-y,-z
x,y,-z
-x,y,1/2+z
x,-y,1/2+z
1/2+x,1/2+y,z
1/2-x,1/2-y,z
1/2+x,1/2-y,1/2-z
1/2-x,1/2+y,1/2-z
1/2-x,1/2-y,-z
1/2+x,1/2+y,-z
1/2-x,1/2+y,1/2+z
1/2+x,1/2-y,1/2+z
loop_
_atom_site_type_symbol
_atom_site_label
_atom_site_fract_x
_atom_site_fract_y
_atom_site_fract_z
Si Si1 0.321643 0.522816 0.106648
Si Si2 0.619670 0.828977 0.435108
Si Si3 0.329074 0.605954 0.767827
Si Si4 0.659274 0.159237 0.343890
O O1 0.500000 0.500000 0.087759
O O2 0.208997 0.575140 0.062262
O O3 0.327290 0.596098 0.161250
O O4 0.242677 0.430305 0.129433
O O5 0.535645 0.814991 0.500000
O O6 0.750000 0.750000 0.430355
O O7 0.507696 0.832580 0.376893
O O8 0.331349 0.500000 0.750000
O O9 0.500000 0.646356 0.750000
O O10 0.188461 0.647947 0.728126
O O11 0.750000 0.250000 0.360804
#
# Coordination Sequence:
#
# PCOD9499544 Si02
#       4
#    16  16  16  16
#     4  11  21  42  73  99 139 179 222 280 347 409
#     4  11  27  47  66  96 137 181 239 292 333 394
#     4   9  17  37  66  96 134 165 211 270 337 410
#     4  11  23  41  70 102 136 182 225 280 342 411
#
# _framework density 22.950402
#
# number of rings (size 3 to 8) (size 9 to 14) (size 15 to 20)
#    0.000    1.500    5.000    2.250    0.000    5.000 
#    0.000    3.750    0.000    0.000    0.000    0.000 
#    0.000    0.000    0.000    0.000    0.000    0.000 
#
# Total GULP energy -178494.820159 kJ/mol
# GULP energy per Si atom -5577.963130 kJ/mol
# Density = 2.289817 g / cm^3
# Si number density = 22.950402 Si / 1000 Ang^3
#
#
#
# Elastic Constant Matrix: (Units=GPa)
#
#
# Indices 1 2 3 4 5 6 
#
# 1 121.4102 27.0806 38.8869 0.0000 0.0000 0.0000
# 2 27.0806 109.4822 10.2824 0.0000 0.0000 0.0000
# 3 38.8869 10.2824 99.3128 0.0000 0.0000 0.0000
# 4 0.0000 0.0000 0.0000 14.8126 0.0000 0.0000
# 5 0.0000 0.0000 0.0000 0.0000 44.0403 0.0000
# 6 0.0000 0.0000 0.0000 0.0000 0.0000 39.2333
#
#
#
# Elastic Compliance Matrix: (Units=1/GPa)
#
#
# Indices 1 2 3 4 5 6 
#
# 1 0.009873 -0.002100 -0.003649 0.000000 0.000000 0.000000
# 2 -0.002100 0.009670 -0.000179 0.000000 0.000000 0.000000
# 3 -0.003649 -0.000179 0.011516 0.000000 0.000000 0.000000
# 4 0.000000 0.000000 0.000000 0.067510 0.000000 0.000000
# 5 0.000000 0.000000 0.000000 0.000000 0.022706 0.000000
# 6 0.000000 0.000000 0.000000 0.000000 0.000000 0.025489
#
#
# Mechanical properties :
#
#
# Convention : Reuss Voigt Hill
#
# Bulk Modulus (GPa) = 52.06894 53.63389 52.85142
# Shear Modulus (GPa) = 30.29910 36.54761 33.42336
#
# Velocity S-wave (km/s) = 3.63740 3.99489 3.82033
# Velocity P-wave (km/s) = 6.35435 6.68574 6.52215
#
# Compressibility (1/GPa) = 0.01920531
#
# Stress axis : x y z
#
# Youngs Moduli (GPa) = 101.28126 103.41210 86.83260
#
# Poissons Ratio (x) = 0.21712 0.31682
# Poissons Ratio (y) = 0.21264 0.01555
# Poissons Ratio (z) = 0.36954 0.01852
#
# Static dielectric constant tensor:
#      x y z
#    x 1.898140 0.000000 0.000000 
#    y 0.000000 1.810890 0.000000 
#    z 0.000000 0.000000 1.973420 
# 
# From -- ./inp_files/54955.got.cif
#   From: 2010.05.17/outbox.cif.g08.bks.cpg/sg66_28_cif.got.tgz:54955.got - 2010.06.03 17:51:23.
