data_PCOD9499241
_publ_section_title
;
Structure prediction by ZEFSAII (Michael W. Deem and Ramdas Pophale) SiO2 
 PCOD9499241
Probable space group: C C C M
;
_chemical_formula_sum "Si O2"
_cell_formula_units_Z 116
_cell_length_a 7.791790
_cell_length_b 26.201453
_cell_length_c 23.417135
_cell_angle_alpha 90.000000
_cell_angle_beta 90.000000
_cell_angle_gamma 90.000000
_cell_volume 4780.753752
_symmetry_space_group_name_H-M "C C C M"
_symmetry_group_IT_number 66
_symmetry_cell_setting 'orthorhombic'
loop_
_space_group_symop_operation_xyz
x,y,z
-x,-y,z
x,-y,1/2-z
-x,y,1/2-z
-x,-y,-z
x,y,-z
-x,y,1/2+z
x,-y,1/2+z
1/2+x,1/2+y,z
1/2-x,1/2-y,z
1/2+x,1/2-y,1/2-z
1/2-x,1/2+y,1/2-z
1/2-x,1/2-y,-z
1/2+x,1/2+y,-z
1/2-x,1/2+y,1/2+z
1/2+x,1/2-y,1/2+z
loop_
_atom_site_type_symbol
_atom_site_label
_atom_site_fract_x
_atom_site_fract_y
_atom_site_fract_z
Si Si1 0.202939 0.058406 0.239473
Si Si2 0.174631 0.529499 0.378212
Si Si3 0.680373 0.386299 0.560972
Si Si4 0.808810 0.066489 0.935711
Si Si5 0.191586 0.664603 0.771139
Si Si6 0.151605 0.672688 0.894452
Si Si7 0.750000 0.250000 0.000000
Si Si8 0.738467 0.190545 0.648093
O O1 0.252745 0.063177 0.173504
O O2 0.295599 0.102880 0.274264
O O3 0.000000 0.062679 0.250000
O O4 0.255676 0.000000 0.250000
O O5 0.171968 0.572028 0.427275
O O6 0.293552 0.482386 0.395510
O O7 0.000000 0.500000 0.365620
O O8 0.710976 0.361101 0.500000
O O9 0.506902 0.418577 0.560211
O O10 0.646361 0.342494 0.606462
O O11 0.709900 0.115910 0.912125
O O12 0.747803 0.053652 0.000000
O O13 0.240699 0.686000 0.832879
O O14 0.291650 0.680053 0.713782
O O15 0.000000 0.679123 0.750000
O O16 0.952653 0.673798 0.873392
O O17 0.190284 0.709102 0.948254
O O18 0.750000 0.250000 0.637796
#
# Coordination Sequence:
#
# PCOD9499241 Si02
#       8
#    16  16  16  16  16  16   4  16
#     4  11  26  41  67 106 142 192 241 300 367 446
#     4  12  26  43  72 108 149 197 243 307 379 456
#     4  11  26  45  71 106 145 196 254 316 374 450
#     4  11  25  46  72 105 148 194 250 310 378 453
#     4  10  24  47  71 104 144 190 241 310 372 452
#     4  11  26  46  73 106 144 190 246 315 371 460
#     4  12  28  48  78 112 144 192 264 304 396 438
#     4  11  26  47  73 104 148 192 250 310 386 449
#
# _framework density 24.263957000000001
#
# number of rings (size 3 to 8) (size 9 to 14) (size 15 to 20)
#    0.000    0.966    2.069    2.483   13.517    3.586 
#    0.000    0.000    0.000    0.000    0.000    0.000 
#    0.000    0.000    0.000    0.000    0.000    0.000 
#
# Total GULP energy -323715.922900 kJ/mol
# GULP energy per Si atom -5581.309016 kJ/mol
# Density = 2.420873 g / cm^3
# Si number density = 24.263957 Si / 1000 Ang^3
#
#
#
# Elastic Constant Matrix: (Units=GPa)
#
#
# Indices 1 2 3 4 5 6 
#
# 1 53.7907 8.3212 27.8020 0.0000 0.0000 0.0000
# 2 8.3212 101.1091 40.3742 0.0000 0.0000 0.0000
# 3 27.8020 40.3742 196.0669 0.0000 0.0000 0.0000
# 4 0.0000 0.0000 0.0000 17.4160 0.0000 0.0000
# 5 0.0000 0.0000 0.0000 0.0000 25.1973 0.0000
# 6 0.0000 0.0000 0.0000 0.0000 0.0000 18.1392
#
#
#
# Elastic Compliance Matrix: (Units=1/GPa)
#
#
# Indices 1 2 3 4 5 6 
#
# 1 0.020090 -0.000562 -0.002733 0.000000 0.000000 0.000000
# 2 -0.000562 0.010792 -0.002143 0.000000 0.000000 0.000000
# 3 -0.002733 -0.002143 0.005929 0.000000 0.000000 0.000000
# 4 0.000000 0.000000 0.000000 0.057418 0.000000 0.000000
# 5 0.000000 0.000000 0.000000 0.000000 0.039687 0.000000
# 6 0.000000 0.000000 0.000000 0.000000 0.000000 0.055129
#
#
# Mechanical properties :
#
#
# Convention : Reuss Voigt Hill
#
# Bulk Modulus (GPa) = 38.55663 55.99572 47.27617
# Shear Modulus (GPa) = 23.97321 30.44847 27.21084
#
# Velocity S-wave (km/s) = 3.14668 3.54628 3.35244
# Velocity P-wave (km/s) = 5.39696 6.31632 5.87465
#
# Compressibility (1/GPa) = 0.02593588
#
# Stress axis : x y z
#
# Youngs Moduli (GPa) = 49.77583 92.65999 168.66122
#
# Poissons Ratio (x) = 0.05208 0.46095
# Poissons Ratio (y) = 0.02798 0.36138
# Poissons Ratio (z) = 0.13604 0.19854
#
# Static dielectric constant tensor:
#      x y z
#    x 1.996660 0.000000 0.000000 
#    y 0.000000 1.883000 0.000000 
#    z 0.000000 0.000000 2.082920 
# 
# From -- ./inp_files/55926.got.cif
#   From: 2010.05.17/outbox.cif.g08.bks.cpg/sg66_28_cif.got.tgz:55926.got - 2010.06.03 17:51:23.
