data_PCOD9499145
_publ_section_title
;
Structure prediction by ZEFSAII (Michael W. Deem and Ramdas Pophale) SiO2 
 PCOD9499145
Probable space group: C C C M
;
_chemical_formula_sum "Si O2"
_cell_formula_units_Z 64
_cell_length_a 26.576452
_cell_length_b 5.095596
_cell_length_c 23.018034
_cell_angle_alpha 90.000000
_cell_angle_beta 90.000000
_cell_angle_gamma 90.000000
_cell_volume 3117.168054
_symmetry_space_group_name_H-M "C C C M"
_symmetry_group_IT_number 66
_symmetry_cell_setting 'orthorhombic'
loop_
_space_group_symop_operation_xyz
x,y,z
-x,-y,z
x,-y,1/2-z
-x,y,1/2-z
-x,-y,-z
x,y,-z
-x,y,1/2+z
x,-y,1/2+z
1/2+x,1/2+y,z
1/2-x,1/2-y,z
1/2+x,1/2-y,1/2-z
1/2-x,1/2+y,1/2-z
1/2-x,1/2-y,-z
1/2+x,1/2+y,-z
1/2-x,1/2+y,1/2+z
1/2+x,1/2-y,1/2+z
loop_
_atom_site_type_symbol
_atom_site_label
_atom_site_fract_x
_atom_site_fract_y
_atom_site_fract_z
Si Si1 0.610412 0.648875 0.932385
Si Si2 0.942916 0.253062 0.210082
Si Si3 0.650827 0.839683 0.633838
Si Si4 0.500000 0.500000 0.888723
Si Si5 0.750000 0.750000 0.707843
O O1 0.640466 0.386498 0.913868
O O2 0.550229 0.599221 0.921492
O O3 0.632220 0.884771 0.893161
O O4 0.617434 0.708699 0.000000
O O5 0.950522 0.500000 0.250000
O O6 0.887354 0.267192 0.185054
O O7 0.947505 0.000000 0.250000
O O8 0.978805 0.221943 0.154605
O O9 0.704767 0.832167 0.664462
O O10 0.738328 0.500000 0.750000
#
# Coordination Sequence:
#
# PCOD9499145 Si02
#       5
#    16  16  16   8   8
#     4  11  24  44  64  89 125 168 215 269 316 367
#     4  11  22  37  56  87 125 161 196 249 313 379
#     4  11  24  42  64  94 125 163 214 261 316 389
#     4  10  24  38  62  90 124 168 218 258 312 388
#     4  12  24  44  71 100 131 168 206 260 328 398
#
# _framework density 20.531458000000001
#
# number of rings (size 3 to 8) (size 9 to 14) (size 15 to 20)
#    0.000    1.000    0.000    7.500    0.000   12.000 
#    0.000   10.000    0.000    0.000    0.000    0.000 
#    0.000    0.000    0.000    0.000    0.000    0.000 
#
# Total GULP energy -178849.290735 kJ/mol
# GULP energy per Si atom -5589.040335 kJ/mol
# Density = 2.048473 g / cm^3
# Si number density = 20.531458 Si / 1000 Ang^3
#
#
#
# Elastic Constant Matrix: (Units=GPa)
#
#
# Indices 1 2 3 4 5 6 
#
# 1 128.6793 15.9644 50.9430 0.0000 0.0000 0.0000
# 2 15.9644 136.1727 30.9367 0.0000 0.0000 0.0000
# 3 50.9430 30.9367 101.7787 0.0000 0.0000 0.0000
# 4 0.0000 0.0000 0.0000 99.2217 0.0000 0.0000
# 5 0.0000 0.0000 0.0000 0.0000 16.4405 0.0000
# 6 0.0000 0.0000 0.0000 0.0000 0.0000 19.9332
#
#
#
# Elastic Compliance Matrix: (Units=1/GPa)
#
#
# Indices 1 2 3 4 5 6 
#
# 1 0.009692 -0.000037 -0.004840 0.000000 0.000000 0.000000
# 2 -0.000037 0.007888 -0.002379 0.000000 0.000000 0.000000
# 3 -0.004840 -0.002379 0.012971 0.000000 0.000000 0.000000
# 4 0.000000 0.000000 0.000000 0.010078 0.000000 0.000000
# 5 0.000000 0.000000 0.000000 0.000000 0.060825 0.000000
# 6 0.000000 0.000000 0.000000 0.000000 0.000000 0.050168
#
#
# Mechanical properties :
#
#
# Convention : Reuss Voigt Hill
#
# Bulk Modulus (GPa) = 62.34667 62.47987 62.41327
# Shear Modulus (GPa) = 29.15772 45.03819 37.09795
#
# Velocity S-wave (km/s) = 3.77257 4.68869 4.25536
# Velocity P-wave (km/s) = 7.02914 7.73363 7.38979
#
# Compressibility (1/GPa) = 0.01603935
#
# Stress axis : x y z
#
# Youngs Moduli (GPa) = 103.17915 126.76692 77.09508
#
# Poissons Ratio (x) = 0.00465 0.37313
# Poissons Ratio (y) = 0.00378 0.18344
# Poissons Ratio (z) = 0.49938 0.30163
#
# Static dielectric constant tensor:
#      x y z
#    x 1.757370 0.000000 0.000000 
#    y 0.000000 1.738210 0.000000 
#    z 0.000000 0.000000 1.702270 
# 
# From -- ./inp_files/52769.got.cif
#   From: 2010.05.17/outbox.cif.g08.bks.cpg/sg66_27_cif.got.tgz:52769.got - 2010.06.03 17:51:23.
