data_PCOD9499058
_publ_section_title
;
Structure prediction by ZEFSAII (Michael W. Deem and Ramdas Pophale) SiO2 
 PCOD9499058
Probable space group: C C C M
;
_chemical_formula_sum "Si O2"
_cell_formula_units_Z 112
_cell_length_a 21.379833
_cell_length_b 17.172919
_cell_length_c 15.332626
_cell_angle_alpha 90.000000
_cell_angle_beta 90.000000
_cell_angle_gamma 90.000000
_cell_volume 5629.437118
_symmetry_space_group_name_H-M "C C C M"
_symmetry_group_IT_number 66
_symmetry_cell_setting 'orthorhombic'
loop_
_space_group_symop_operation_xyz
x,y,z
-x,-y,z
x,-y,1/2-z
-x,y,1/2-z
-x,-y,-z
x,y,-z
-x,y,1/2+z
x,-y,1/2+z
1/2+x,1/2+y,z
1/2-x,1/2-y,z
1/2+x,1/2-y,1/2-z
1/2-x,1/2+y,1/2-z
1/2-x,1/2-y,-z
1/2+x,1/2+y,-z
1/2-x,1/2+y,1/2+z
1/2+x,1/2-y,1/2+z
loop_
_atom_site_type_symbol
_atom_site_label
_atom_site_fract_x
_atom_site_fract_y
_atom_site_fract_z
Si Si1 0.929311 0.292142 0.102102
Si Si2 0.342102 0.647089 0.100749
Si Si3 0.427488 0.500000 0.144538
Si Si4 0.657898 0.647089 0.899251
Si Si5 0.104362 0.409385 0.250000
Si Si6 0.929311 0.707858 0.102102
Si Si7 0.253761 0.407888 0.750000
O O1 0.879229 0.225609 0.124084
O O2 0.920606 0.364904 0.165141
O O3 0.000000 0.260900 0.113560
O O4 0.921873 0.312341 0.000000
O O5 0.390808 0.575907 0.111710
O O6 0.285233 0.630641 0.165533
O O7 0.322156 0.651275 0.000000
O O8 0.500000 0.500000 0.117298
O O9 0.425606 0.500000 0.250000
O O10 0.390808 0.424093 0.111710
O O11 0.620771 0.725609 0.875916
O O12 0.714767 0.630641 0.834467
O O13 0.677844 0.651275 0.000000
O O14 0.087742 0.500000 0.250000
O O15 0.079394 0.364904 0.165141
O O16 0.179520 0.401728 0.250000
O O17 0.921873 0.687659 0.000000
O O18 0.270047 0.500000 0.750000
#
# Coordination Sequence:
#
# PCOD9499058 Si02
#       7
#    16  16  16  16  16  16  16
#     4  10  23  42  64  94 125 151 194 255 311 366
#     4  11  21  37  62  89 124 168 201 239 296 353
#     4  11  21  33  55  90 129 169 208 241 282 348
#     4  11  21  37  62  89 124 168 201 239 296 353
#     4  11  26  44  66  86 116 160 206 255 315 364
#     4  10  23  42  64  94 125 151 194 255 311 366
#     4  11  23  41  57  88 126 161 211 256 285 343
#
# _framework density 19.895416999999998
#
# number of rings (size 3 to 8) (size 9 to 14) (size 15 to 20)
#    0.000    1.286    2.857    2.571    0.000    7.429 
#    0.000    7.143    0.000    0.000    0.000    0.000 
#    0.000    0.000    0.000    0.000    0.000    0.000 
#
# Total GULP energy -313277.213614 kJ/mol
# GULP energy per Si atom -5594.235957 kJ/mol
# Density = 1.985013 g / cm^3
# Si number density = 19.895417 Si / 1000 Ang^3
#
#
#
# Elastic Constant Matrix: (Units=GPa)
#
#
# Indices 1 2 3 4 5 6 
#
# 1 49.4918 2.1247 18.3729 0.0000 0.0000 0.0000
# 2 2.1247 101.1588 38.6780 0.0000 0.0000 0.0000
# 3 18.3729 38.6780 81.9383 0.0000 0.0000 0.0000
# 4 0.0000 0.0000 0.0000 8.2678 0.0000 0.0000
# 5 0.0000 0.0000 0.0000 0.0000 -6.2368 0.0000
# 6 0.0000 0.0000 0.0000 0.0000 0.0000 25.4169
#
#
#
# Elastic Compliance Matrix: (Units=1/GPa)
#
#
# Indices 1 2 3 4 5 6 
#
# 1 0.022294 0.001761 -0.005830 0.000000 0.000000 0.000000
# 2 0.001761 0.012202 -0.006154 0.000000 0.000000 0.000000
# 3 -0.005830 -0.006154 0.016417 0.000000 0.000000 0.000000
# 4 0.000000 0.000000 0.000000 0.120952 0.000000 0.000000
# 5 0.000000 0.000000 0.000000 0.000000 -0.160339 0.000000
# 6 0.000000 0.000000 0.000000 0.000000 0.000000 0.039344
#
#
# Mechanical properties :
#
#
# Convention : Reuss Voigt Hill
#
# Bulk Modulus (GPa) = 32.82457 38.99334 35.90895
# Shear Modulus (GPa) = 61.37140 17.05047 39.21094
#
# Velocity S-wave (km/s) = 5.56003 2.93064 4.44424
# Velocity P-wave (km/s) = 7.59954 5.57613 6.66507
#
# Compressibility (1/GPa) = 0.03046498
#
# Stress axis : x y z
#
# Youngs Moduli (GPa) = 44.85487 81.95635 60.91337
#
# Poissons Ratio (x) = -0.14432 0.35514
# Poissons Ratio (y) = -0.07899 0.37489
# Poissons Ratio (z) = 0.26151 0.50440
#
# Static dielectric constant tensor:
#      x y z
#    x 1.687450 0.000000 0.000000 
#    y 0.000000 1.668600 0.000000 
#    z 0.000000 0.000000 1.687490 
# 
# From -- ./inp_files/32438.got.cif
#   From: 2010.05.17/outbox.cif.g08.bks.cpg/sg66_17_cif.got.tgz:32438.got - 2010.06.03 17:51:23.
