data_PCOD9499422
_publ_section_title
;
Structure prediction by ZEFSAII (Michael W. Deem and Ramdas Pophale) SiO2 
 PCOD9499422
Probable space group: C C C M
;
_chemical_formula_sum "Si O2"
_cell_formula_units_Z 68
_cell_length_a 16.299877
_cell_length_b 10.133170
_cell_length_c 18.488964
_cell_angle_alpha 90.000000
_cell_angle_beta 90.000000
_cell_angle_gamma 90.000000
_cell_volume 3053.811546
_symmetry_space_group_name_H-M "C C C M"
_symmetry_group_IT_number 66
_symmetry_cell_setting 'orthorhombic'
loop_
_space_group_symop_operation_xyz
x,y,z
-x,-y,z
x,-y,1/2-z
-x,y,1/2-z
-x,-y,-z
x,y,-z
-x,y,1/2+z
x,-y,1/2+z
1/2+x,1/2+y,z
1/2-x,1/2-y,z
1/2+x,1/2-y,1/2-z
1/2-x,1/2+y,1/2-z
1/2-x,1/2-y,-z
1/2+x,1/2+y,-z
1/2-x,1/2+y,1/2+z
1/2+x,1/2-y,1/2+z
loop_
_atom_site_type_symbol
_atom_site_label
_atom_site_fract_x
_atom_site_fract_y
_atom_site_fract_z
Si Si1 0.100183 0.206924 0.159028
Si Si2 0.000000 0.000000 0.250000
Si Si3 0.915136 0.179706 0.000000
Si Si4 0.889876 0.883356 0.000000
Si Si5 0.800350 0.365767 0.775980
Si Si6 0.447327 0.879577 0.120669
O O1 0.133713 0.178458 0.077906
O O2 0.164223 0.282026 0.208947
O O3 0.061720 0.078867 0.197285
O O4 0.019946 0.298815 0.157422
O O5 0.904652 0.276540 0.932855
O O6 0.011639 0.140153 0.000000
O O7 0.870119 0.039550 0.000000
O O8 0.755845 0.500000 0.750000
O O9 0.750000 0.250000 0.816392
O O10 0.876859 0.418118 0.823393
O O11 0.500000 0.000000 0.086778
#
# Coordination Sequence:
#
# PCOD9499422 Si02
#       6
#    16   4   8   8  16  16
#     4  11  22  38  65  95 132 172 223 272 329 401
#     4  12  20  30  66 100 124 166 216 264 328 382
#     4   9  19  34  61 100 132 161 215 282 328 393
#     4   9  20  36  57  98 138 165 212 278 330 392
#     4  12  27  43  63  96 135 177 228 284 342 402
#     4  11  20  40  67  96 128 171 220 274 337 400
#
# _framework density 22.267254000000001
#
# number of rings (size 3 to 8) (size 9 to 14) (size 15 to 20)
#    0.000    1.176    4.706    3.176    1.647    0.000 
#    0.000    1.176    0.000    0.000    0.000    0.000 
#    0.000    0.000    0.000    0.000    0.000    0.000 
#
# Total GULP energy -189578.331786 kJ/mol
# GULP energy per Si atom -5575.833288 kJ/mol
# Density = 2.221657 g / cm^3
# Si number density = 22.267254 Si / 1000 Ang^3
#
#
#
# Elastic Constant Matrix: (Units=GPa)
#
#
# Indices 1 2 3 4 5 6 
#
# 1 52.6472 21.2120 15.4485 0.0000 0.0000 0.0000
# 2 21.2120 117.1674 10.9353 0.0000 0.0000 0.0000
# 3 15.4485 10.9353 78.9855 0.0000 0.0000 0.0000
# 4 0.0000 0.0000 0.0000 73.7909 0.0000 0.0000
# 5 0.0000 0.0000 0.0000 0.0000 0.6953 0.0000
# 6 0.0000 0.0000 0.0000 0.0000 0.0000 30.1169
#
#
#
# Elastic Compliance Matrix: (Units=1/GPa)
#
#
# Indices 1 2 3 4 5 6 
#
# 1 0.021515 -0.003548 -0.003717 0.000000 0.000000 0.000000
# 2 -0.003548 0.009232 -0.000584 0.000000 0.000000 0.000000
# 3 -0.003717 -0.000584 0.013468 0.000000 0.000000 0.000000
# 4 0.000000 0.000000 0.000000 0.013552 0.000000 0.000000
# 5 0.000000 0.000000 0.000000 0.000000 1.438175 0.000000
# 6 0.000000 0.000000 0.000000 0.000000 0.000000 0.033204
#
#
# Mechanical properties :
#
#
# Convention : Reuss Voigt Hill
#
# Bulk Modulus (GPa) = 35.06727 38.22130 36.64428
# Shear Modulus (GPa) = 3.21678 34.33424 18.77551
#
# Velocity S-wave (km/s) = 1.20323 3.93098 2.90692
# Velocity P-wave (km/s) = 4.20867 6.14862 5.26870
#
# Compressibility (1/GPa) = 0.02851662
#
# Stress axis : x y z
#
# Youngs Moduli (GPa) = 46.48023 108.32288 74.24802
#
# Poissons Ratio (x) = 0.38434 0.27596
# Poissons Ratio (y) = 0.16492 0.04337
# Poissons Ratio (z) = 0.17275 0.06327
#
# Static dielectric constant tensor:
#      x y z
#    x 1.805320 0.000000 0.000000 
#    y 0.000000 1.916790 0.000000 
#    z 0.000000 0.000000 1.886820 
# 
# From -- ./inp_files/50641.got.cif
#   From: 2010.05.17/outbox.cif.g08.bks.cpg/sg66_26_cif.got.tgz:50641.got - 2010.06.03 17:51:23.
