data_PCOD9499244
_publ_section_title
;
Structure prediction by ZEFSAII (Michael W. Deem and Ramdas Pophale) SiO2 
 PCOD9499244
Probable space group: C C C M
;
_chemical_formula_sum "Si O2"
_cell_formula_units_Z 96
_cell_length_a 11.326888
_cell_length_b 21.076954
_cell_length_c 18.286772
_cell_angle_alpha 90.000000
_cell_angle_beta 90.000000
_cell_angle_gamma 90.000000
_cell_volume 4365.716238
_symmetry_space_group_name_H-M "C C C M"
_symmetry_group_IT_number 66
_symmetry_cell_setting 'orthorhombic'
loop_
_space_group_symop_operation_xyz
x,y,z
-x,-y,z
x,-y,1/2-z
-x,y,1/2-z
-x,-y,-z
x,y,-z
-x,y,1/2+z
x,-y,1/2+z
1/2+x,1/2+y,z
1/2-x,1/2-y,z
1/2+x,1/2-y,1/2-z
1/2-x,1/2+y,1/2-z
1/2-x,1/2-y,-z
1/2+x,1/2+y,-z
1/2-x,1/2+y,1/2+z
1/2+x,1/2-y,1/2+z
loop_
_atom_site_type_symbol
_atom_site_label
_atom_site_fract_x
_atom_site_fract_y
_atom_site_fract_z
Si Si1 0.501459 0.398144 0.916360
Si Si2 0.784592 0.043878 0.854129
Si Si3 0.617849 0.737896 0.415748
Si Si4 0.443543 0.176074 0.173046
Si Si5 0.047612 0.570992 0.920633
Si Si6 0.783600 0.098667 0.692422
O O1 0.590633 0.453872 0.893949
O O2 0.584085 0.335711 0.913605
O O3 0.401242 0.389917 0.854891
O O4 0.456071 0.404391 0.000000
O O5 0.686695 0.071525 0.907828
O O6 0.796553 0.084475 0.779103
O O7 0.745719 0.971765 0.835953
O O8 0.625036 0.758852 0.500000
O O9 0.750000 0.750000 0.383311
O O10 0.505635 0.774071 0.380842
O O11 0.500000 0.192893 0.250000
O O12 0.494922 0.109235 0.145929
O O13 0.305627 0.157605 0.179398
O O14 0.000000 0.500000 0.919479
O O15 0.015193 0.598287 0.000000
#
# Coordination Sequence:
#
# PCOD9499244 Si02
#       6
#    16  16  16  16  16  16
#     4  11  25  44  67  96 134 180 232 283 338 411
#     4  11  22  43  66  95 140 184 220 276 339 413
#     4  10  24  48  72  94 129 177 229 287 348 409
#     4  12  24  42  67 101 135 173 219 283 338 402
#     4  11  22  37  64  98 131 171 223 276 330 398
#     4  11  25  40  66  99 139 177 223 277 343 406
#
# _framework density 21.989519000000001
#
# number of rings (size 3 to 8) (size 9 to 14) (size 15 to 20)
#    0.000    1.000    3.333    3.000    0.000    8.333 
#    0.000    1.667    0.000    0.000    0.000    0.000 
#    0.000    0.000    0.000    0.000    0.000    0.000 
#
# Total GULP energy -267908.229299 kJ/mol
# GULP energy per Si atom -5581.421444 kJ/mol
# Density = 2.193947 g / cm^3
# Si number density = 21.989519 Si / 1000 Ang^3
#
#
#
# Elastic Constant Matrix: (Units=GPa)
#
#
# Indices 1 2 3 4 5 6 
#
# 1 111.7080 2.7062 26.8494 0.0000 0.0000 0.0000
# 2 2.7062 44.8482 7.7864 0.0000 0.0000 0.0000
# 3 26.8494 7.7864 76.9048 0.0000 0.0000 0.0000
# 4 0.0000 0.0000 0.0000 22.0976 0.0000 0.0000
# 5 0.0000 0.0000 0.0000 0.0000 20.7845 0.0000
# 6 0.0000 0.0000 0.0000 0.0000 0.0000 36.7340
#
#
#
# Elastic Compliance Matrix: (Units=1/GPa)
#
#
# Indices 1 2 3 4 5 6 
#
# 1 0.009772 0.000003 -0.003412 0.000000 0.000000 0.000000
# 2 0.000003 0.022696 -0.002299 0.000000 0.000000 0.000000
# 3 -0.003412 -0.002299 0.014427 0.000000 0.000000 0.000000
# 4 0.000000 0.000000 0.000000 0.045254 0.000000 0.000000
# 5 0.000000 0.000000 0.000000 0.000000 0.048113 0.000000
# 6 0.000000 0.000000 0.000000 0.000000 0.000000 0.027223
#
#
# Mechanical properties :
#
#
# Convention : Reuss Voigt Hill
#
# Bulk Modulus (GPa) = 28.18553 34.23833 31.21193
# Shear Modulus (GPa) = 26.21547 28.99783 27.60665
#
# Velocity S-wave (km/s) = 3.45654 3.63535 3.54707
# Velocity P-wave (km/s) = 5.36431 5.76412 5.56780
#
# Compressibility (1/GPa) = 0.03547919
#
# Stress axis : x y z
#
# Youngs Moduli (GPa) = 102.33418 44.05985 69.31435
#
# Poissons Ratio (x) = -0.00012 0.23649
# Poissons Ratio (y) = -0.00028 0.15935
# Poissons Ratio (z) = 0.34915 0.10129
#
# Static dielectric constant tensor:
#      x y z
#    x 1.830450 0.000000 0.000000 
#    y 0.000000 1.842920 0.000000 
#    z 0.000000 0.000000 1.778790 
# 
# From -- ./inp_files/38820.got.cif
#   From: 2010.05.17/outbox.cif.g08.bks.cpg/sg66_20_cif.got.tgz:38820.got - 2010.06.03 17:51:23.
