data_PCOD9499314
_publ_section_title
;
Structure prediction by ZEFSAII (Michael W. Deem and Ramdas Pophale) SiO2 
 PCOD9499314
Probable space group: C C C M
;
_chemical_formula_sum "Si O2"
_cell_formula_units_Z 104
_cell_length_a 19.214540
_cell_length_b 21.160362
_cell_length_c 15.604327
_cell_angle_alpha 90.000000
_cell_angle_beta 90.000000
_cell_angle_gamma 90.000000
_cell_volume 6344.510605
_symmetry_space_group_name_H-M "C C C M"
_symmetry_group_IT_number 66
_symmetry_cell_setting 'orthorhombic'
loop_
_space_group_symop_operation_xyz
x,y,z
-x,-y,z
x,-y,1/2-z
-x,y,1/2-z
-x,-y,-z
x,y,-z
-x,y,1/2+z
x,-y,1/2+z
1/2+x,1/2+y,z
1/2-x,1/2-y,z
1/2+x,1/2-y,1/2-z
1/2-x,1/2+y,1/2-z
1/2-x,1/2-y,-z
1/2+x,1/2+y,-z
1/2-x,1/2+y,1/2+z
1/2+x,1/2-y,1/2+z
loop_
_atom_site_type_symbol
_atom_site_label
_atom_site_fract_x
_atom_site_fract_y
_atom_site_fract_z
Si Si1 0.850920 0.283676 0.103016
Si Si2 0.714304 0.648443 0.652319
Si Si3 0.855937 0.074913 0.500000
Si Si4 0.500000 0.651025 0.500000
Si Si5 0.214304 0.148443 0.847681
Si Si6 0.144063 0.925087 0.000000
Si Si7 0.000000 0.746407 0.151760
Si Si8 0.149080 0.716324 0.603016
O O1 0.794977 0.334063 0.136023
O O2 0.825730 0.214973 0.136203
O O3 0.929516 0.292214 0.134081
O O4 0.848261 0.281974 0.000000
O O5 0.703430 0.628562 0.750000
O O6 0.685479 0.599698 0.583195
O O7 0.814521 0.099698 0.583195
O O8 0.930904 0.108974 0.500000
O O9 0.863098 1.000000 0.500000
O O10 0.569096 0.608974 0.500000
O O11 0.500000 0.696444 0.416750
O O12 0.174270 0.214973 0.863797
O O13 0.294977 0.165937 0.863977
O O14 0.929516 0.707786 0.134081
O O15 0.000000 0.768716 0.250000
O O16 0.151739 0.718026 0.500000
#
# Coordination Sequence:
#
# PCOD9499314 Si02
#       8
#    16  16   8   8  16   8  16  16
#     4  11  18  33  55  83 112 141 172 219 280 338
#     4  11  20  35  56  79 106 140 181 229 276 322
#     4  12  25  40  55  74 106 150 198 233 261 306
#     4  12  23  38  52  76 108 150 191 224 262 310
#     4  11  20  35  56  79 106 140 181 229 276 322
#     4  12  25  40  55  74 106 150 198 233 261 306
#     4  12  20  31  53  85 118 146 172 212 275 341
#     4  11  18  33  55  83 112 141 172 219 280 338
#
# _framework density 16.392123999999999
#
# number of rings (size 3 to 8) (size 9 to 14) (size 15 to 20)
#    0.000    0.615    7.692    4.846    0.000    0.615 
#    0.000    0.000    0.000    2.769    0.000    2.154 
#    0.000    3.692    0.000    0.000    0.000    0.000 
#
# Total GULP energy -290520.629869 kJ/mol
# GULP energy per Si atom -5586.935190 kJ/mol
# Density = 1.635481 g / cm^3
# Si number density = 16.392124 Si / 1000 Ang^3
#
#
#
# Elastic Constant Matrix: (Units=GPa)
#
#
# Indices 1 2 3 4 5 6 
#
# 1 142.5814 29.7157 41.2378 0.0000 0.0000 0.0000
# 2 29.7157 48.5691 35.6873 0.0000 0.0000 0.0000
# 3 41.2378 35.6873 179.0583 0.0000 0.0000 0.0000
# 4 0.0000 0.0000 0.0000 -0.2897 0.0000 0.0000
# 5 0.0000 0.0000 0.0000 0.0000 -61.4360 0.0000
# 6 0.0000 0.0000 0.0000 0.0000 0.0000 8.3025
#
#
#
# Elastic Compliance Matrix: (Units=1/GPa)
#
#
# Indices 1 2 3 4 5 6 
#
# 1 0.008201 -0.004253 -0.001041 0.000000 0.000000 0.000000
# 2 -0.004253 0.026327 -0.004268 0.000000 0.000000 0.000000
# 3 -0.001041 -0.004268 0.006675 0.000000 0.000000 0.000000
# 4 0.000000 0.000000 0.000000 -3.452189 0.000000 0.000000
# 5 0.000000 0.000000 0.000000 0.000000 -0.016277 0.000000
# 6 0.000000 0.000000 0.000000 0.000000 0.000000 0.120446
#
#
# Mechanical properties :
#
#
# Convention : Reuss Voigt Hill
#
# Bulk Modulus (GPa) = 45.28962 64.83227 55.06094
# Shear Modulus (GPa) = -1.52423 6.88655 2.68116
#
# Velocity S-wave (km/s) = -0.96534 2.05189 1.28031
# Velocity P-wave (km/s) = 5.14260 6.72684 5.98735
#
# Compressibility (1/GPa) = 0.02208011
#
# Stress axis : x y z
#
# Youngs Moduli (GPa) = 121.93721 37.98415 149.80978
#
# Poissons Ratio (x) = 0.16153 0.15598
# Poissons Ratio (y) = 0.51854 0.63934
# Poissons Ratio (z) = 0.12696 0.16210
#
# Static dielectric constant tensor:
#      x y z
#    x 1.581330 0.000000 0.000000 
#    y 0.000000 1.496720 0.000000 
#    z 0.000000 0.000000 1.563570 
# 
# From -- ./inp_files/30232.got.cif
#   From: 2010.05.17/outbox.cif.g08.bks.cpg/sg66_16_cif.got.tgz:30232.got - 2010.06.03 17:51:23.
