data_PCOD9499211
_publ_section_title
;
Structure prediction by ZEFSAII (Michael W. Deem and Ramdas Pophale) SiO2 
 PCOD9499211
Probable space group: C C C M
;
_chemical_formula_sum "Si O2"
_cell_formula_units_Z 40
_cell_length_a 12.777967
_cell_length_b 14.645736
_cell_length_c 10.118083
_cell_angle_alpha 90.000000
_cell_angle_beta 90.000000
_cell_angle_gamma 90.000000
_cell_volume 1893.525688
_symmetry_space_group_name_H-M "C C C M"
_symmetry_group_IT_number 66
_symmetry_cell_setting 'orthorhombic'
loop_
_space_group_symop_operation_xyz
x,y,z
-x,-y,z
x,-y,1/2-z
-x,y,1/2-z
-x,-y,-z
x,y,-z
-x,y,1/2+z
x,-y,1/2+z
1/2+x,1/2+y,z
1/2-x,1/2-y,z
1/2+x,1/2-y,1/2-z
1/2-x,1/2+y,1/2-z
1/2-x,1/2-y,-z
1/2+x,1/2+y,-z
1/2-x,1/2+y,1/2+z
1/2+x,1/2-y,1/2+z
loop_
_atom_site_type_symbol
_atom_site_label
_atom_site_fract_x
_atom_site_fract_y
_atom_site_fract_z
Si Si1 0.500000 0.259953 0.750000
Si Si2 0.359984 0.579203 0.352158
Si Si3 0.665232 0.044423 0.500000
Si Si4 0.057635 0.641615 0.000000
O O1 0.589242 0.326415 0.691146
O O2 0.447899 0.201519 0.632727
O O3 0.385076 0.500000 0.250000
O O4 0.399077 0.557271 0.500000
O O5 0.234585 0.578329 0.375958
O O6 0.648476 0.935083 0.500000
O O7 0.552800 0.088702 0.500000
#
# Coordination Sequence:
#
# PCOD9499211 Si02
#       4
#     8  16   8   8
#     4  12  25  43  68 110 136 180 232 299 329 416
#     4  10  24  44  69  97 143 185 226 284 348 415
#     4   9  25  48  67 104 138 193 222 290 351 415
#     4  11  25  42  77  96 146 177 240 281 351 402
#
# _framework density 21.124614999999999
#
# number of rings (size 3 to 8) (size 9 to 14) (size 15 to 20)
#    1.200    0.400    2.000    0.600    8.400    6.400 
#    0.000    2.000    0.000    0.000    0.000    0.000 
#    0.000    0.000    0.000    0.000    0.000    0.000 
#
# Total GULP energy -111606.525107 kJ/mol
# GULP energy per Si atom -5580.326255 kJ/mol
# Density = 2.107653 g / cm^3
# Si number density = 21.124615 Si / 1000 Ang^3
#
#
#
# Elastic Constant Matrix: (Units=GPa)
#
#
# Indices 1 2 3 4 5 6 
#
# 1 100.6225 36.3650 15.4521 0.0000 0.0000 0.0000
# 2 36.3650 99.9414 58.3504 0.0000 0.0000 0.0000
# 3 15.4521 58.3504 148.6483 0.0000 0.0000 0.0000
# 4 0.0000 0.0000 0.0000 -26.0501 0.0000 0.0000
# 5 0.0000 0.0000 0.0000 0.0000 32.9555 0.0000
# 6 0.0000 0.0000 0.0000 0.0000 0.0000 40.5059
#
#
#
# Elastic Compliance Matrix: (Units=1/GPa)
#
#
# Indices 1 2 3 4 5 6 
#
# 1 0.011481 -0.004516 0.000579 0.000000 0.000000 0.000000
# 2 -0.004516 0.014757 -0.005323 0.000000 0.000000 0.000000
# 3 0.000579 -0.005323 0.008757 0.000000 0.000000 0.000000
# 4 0.000000 0.000000 0.000000 -0.038388 0.000000 0.000000
# 5 0.000000 0.000000 0.000000 0.000000 0.030344 0.000000
# 6 0.000000 0.000000 0.000000 0.000000 0.000000 0.024688
#
#
# Mechanical properties :
#
#
# Convention : Reuss Voigt Hill
#
# Bulk Modulus (GPa) = 60.69770 63.28301 61.99035
# Shear Modulus (GPa) = 66.09360 25.41858 45.75609
#
# Velocity S-wave (km/s) = 5.59959 3.47258 4.65909
# Velocity P-wave (km/s) = 8.40254 6.78973 7.63882
#
# Compressibility (1/GPa) = 0.01647509
#
# Stress axis : x y z
#
# Youngs Moduli (GPa) = 87.09916 67.76478 114.19841
#
# Poissons Ratio (x) = 0.30600 -0.06613
# Poissons Ratio (y) = 0.39331 0.60791
# Poissons Ratio (z) = -0.05044 0.36073
#
# Static dielectric constant tensor:
#      x y z
#    x 1.818470 0.000000 0.000000 
#    y 0.000000 1.736620 0.000000 
#    z 0.000000 0.000000 1.757790 
# 
# From -- ./inp_files/4367.got.cif
#   From: 2010.05.17/outbox.cif.g08.bks.cpg/sg66_3_cif.got.tgz:4367.got - 2010.06.03 17:51:23.
