data_PCOD9499243
_publ_section_title
;
Structure prediction by ZEFSAII (Michael W. Deem and Ramdas Pophale) SiO2 
 PCOD9499243
Probable space group: C C C M
;
_chemical_formula_sum "Si O2"
_cell_formula_units_Z 112
_cell_length_a 14.528644
_cell_length_b 21.226258
_cell_length_c 16.303189
_cell_angle_alpha 90.000000
_cell_angle_beta 90.000000
_cell_angle_gamma 90.000000
_cell_volume 5027.720010
_symmetry_space_group_name_H-M "C C C M"
_symmetry_group_IT_number 66
_symmetry_cell_setting 'orthorhombic'
loop_
_space_group_symop_operation_xyz
x,y,z
-x,-y,z
x,-y,1/2-z
-x,y,1/2-z
-x,-y,-z
x,y,-z
-x,y,1/2+z
x,-y,1/2+z
1/2+x,1/2+y,z
1/2-x,1/2-y,z
1/2+x,1/2-y,1/2-z
1/2-x,1/2+y,1/2-z
1/2-x,1/2-y,-z
1/2+x,1/2+y,-z
1/2-x,1/2+y,1/2+z
1/2+x,1/2-y,1/2+z
loop_
_atom_site_type_symbol
_atom_site_label
_atom_site_fract_x
_atom_site_fract_y
_atom_site_fract_z
Si Si1 0.787703 0.574615 0.255120
Si Si2 0.881959 0.626391 0.907085
Si Si3 0.996363 0.854562 0.906891
Si Si4 0.639555 0.752427 0.360877
Si Si5 0.140012 0.757079 0.333314
Si Si6 0.413728 0.568965 0.207579
Si Si7 0.909669 0.610009 0.409914
O O1 0.782237 0.500000 0.250000
O O2 0.820289 0.601818 0.168156
O O3 0.685824 0.598602 0.279168
O O4 0.855362 0.587640 0.330274
O O5 0.897888 0.700101 0.888517
O O6 0.982412 0.594669 0.902312
O O7 0.845862 0.617816 0.000000
O O8 0.081227 0.806084 0.893784
O O9 0.044644 0.921550 0.882246
O O10 0.908459 0.821293 0.862396
O O11 0.967715 0.858618 0.000000
O O12 0.750000 0.750000 0.371780
O O13 0.620706 0.755783 0.262775
O O14 0.604588 0.815049 0.405050
O O15 0.250000 0.750000 0.343132
O O16 0.409467 0.500000 0.250000
O O17 0.500000 0.603983 0.250000
O O18 0.877395 0.587289 0.500000
#
# Coordination Sequence:
#
# PCOD9499243 Si02
#       7
#    16  16  16  16  16  16  16
#     4  11  25  45  70  97 130 184 240 283 344 411
#     4  11  24  42  64  98 140 178 225 286 345 412
#     4  12  25  40  66 105 139 175 224 284 351 418
#     4  11  22  37  62  95 132 179 222 268 340 413
#     4  11  24  41  66  98 138 181 224 276 342 420
#     4  10  24  48  71  93 129 178 236 289 333 398
#     4  11  23  40  65  99 139 177 223 287 349 417
#
# _framework density 22.276498
#
# number of rings (size 3 to 8) (size 9 to 14) (size 15 to 20)
#    0.000    1.000    2.857    3.429    4.000    5.714 
#    0.000    5.000    0.000    0.000    0.000    0.000 
#    0.000    0.000    0.000    0.000    0.000    0.000 
#
# Total GULP energy -312499.629680 kJ/mol
# GULP energy per Si atom -5580.350530 kJ/mol
# Density = 2.222580 g / cm^3
# Si number density = 22.276498 Si / 1000 Ang^3
#
#
#
# Elastic Constant Matrix: (Units=GPa)
#
#
# Indices 1 2 3 4 5 6 
#
# 1 110.9599 13.3153 50.8410 0.0000 0.0000 0.0000
# 2 13.3153 66.9754 25.2960 0.0000 0.0000 0.0000
# 3 50.8410 25.2960 154.1593 0.0000 0.0000 0.0000
# 4 0.0000 0.0000 0.0000 5.5051 0.0000 0.0000
# 5 0.0000 0.0000 0.0000 0.0000 -42.3661 0.0000
# 6 0.0000 0.0000 0.0000 0.0000 0.0000 29.7622
#
#
#
# Elastic Compliance Matrix: (Units=1/GPa)
#
#
# Indices 1 2 3 4 5 6 
#
# 1 0.010661 -0.000844 -0.003377 0.000000 0.000000 0.000000
# 2 -0.000844 0.015984 -0.002345 0.000000 0.000000 0.000000
# 3 -0.003377 -0.002345 0.007985 0.000000 0.000000 0.000000
# 4 0.000000 0.000000 0.000000 0.181651 0.000000 0.000000
# 5 0.000000 0.000000 0.000000 0.000000 -0.023604 0.000000
# 6 0.000000 0.000000 0.000000 0.000000 0.000000 0.033600
#
#
# Mechanical properties :
#
#
# Convention : Reuss Voigt Hill
#
# Bulk Modulus (GPa) = 46.51424 56.77768 51.64596
# Shear Modulus (GPa) = 20.27776 14.75638 17.51707
#
# Velocity S-wave (km/s) = 3.02035 2.57654 2.80723
# Velocity P-wave (km/s) = 5.75231 5.86468 5.80877
#
# Compressibility (1/GPa) = 0.02149879
#
# Stress axis : x y z
#
# Youngs Moduli (GPa) = 93.79918 62.56210 125.22870
#
# Poissons Ratio (x) = 0.05279 0.42296
# Poissons Ratio (y) = 0.07915 0.29360
# Poissons Ratio (z) = 0.31681 0.14668
#
# Static dielectric constant tensor:
#      x y z
#    x 1.866800 0.000000 0.000000 
#    y 0.000000 1.885400 0.000000 
#    z 0.000000 0.000000 2.203810 
# 
# From -- ./inp_files/28704.got.cif
#   From: 2010.05.17/outbox.cif.g08.bks.cpg/sg66_15_cif.got.tgz:28704.got - 2010.06.03 17:51:23.
