data_PCOD9499639
_publ_section_title
;
Structure prediction by ZEFSAII (Michael W. Deem and Ramdas Pophale) SiO2 
 PCOD9499639
Probable space group: C C C M
;
_chemical_formula_sum "Si O2"
_cell_formula_units_Z 64
_cell_length_a 17.406818
_cell_length_b 5.372403
_cell_length_c 33.559691
_cell_angle_alpha 90.000000
_cell_angle_beta 90.000000
_cell_angle_gamma 90.000000
_cell_volume 3138.382872
_symmetry_space_group_name_H-M "C C C M"
_symmetry_group_IT_number 66
_symmetry_cell_setting 'orthorhombic'
loop_
_space_group_symop_operation_xyz
x,y,z
-x,-y,z
x,-y,1/2-z
-x,y,1/2-z
-x,-y,-z
x,y,-z
-x,y,1/2+z
x,-y,1/2+z
1/2+x,1/2+y,z
1/2-x,1/2-y,z
1/2+x,1/2-y,1/2-z
1/2-x,1/2+y,1/2-z
1/2-x,1/2-y,-z
1/2+x,1/2+y,-z
1/2-x,1/2+y,1/2+z
1/2+x,1/2-y,1/2+z
loop_
_atom_site_type_symbol
_atom_site_label
_atom_site_fract_x
_atom_site_fract_y
_atom_site_fract_z
Si Si1 0.344028 0.500000 0.250000
Si Si2 0.332654 0.891783 0.870923
Si Si3 0.750000 0.750000 0.816903
Si Si4 0.450158 0.750170 0.806382
Si Si5 0.301862 0.999502 0.543911
O O1 0.290386 0.439139 0.212893
O O2 0.397358 0.719923 0.233062
O O3 0.250000 0.750000 0.871355
O O4 0.397215 0.752319 0.845959
O O5 0.351772 0.963011 0.916335
O O6 0.314442 0.134655 0.844900
O O7 0.500000 0.500000 0.807006
O O8 0.500000 0.000000 0.805790
O O9 0.339070 0.976115 0.500000
O O10 0.250000 0.250000 0.542300
O O11 0.250000 0.750000 0.549472
#
# Coordination Sequence:
#
# PCOD9499639 Si02
#       5
#     8  16   8  16  16
#     4  12  25  42  64  88 125 168 218 270 313 368
#     4  11  22  41  65  91 124 161 210 259 310 373
#     4  12  22  40  63  96 118 160 215 276 308 364
#     4  12  28  45  62  89 127 170 212 260 316 372
#     4   9  18  33  60  95 125 152 193 254 312 364
#
# _framework density 20.392668
#
# number of rings (size 3 to 8) (size 9 to 14) (size 15 to 20)
#    0.000    1.000    3.750    3.375    0.000    6.000 
#    0.000    0.000    0.000    1.500    0.000    0.000 
#    0.000    0.000    0.000    0.000    0.000    0.000 
#
# Total GULP energy -178713.635272 kJ/mol
# GULP energy per Si atom -5584.801102 kJ/mol
# Density = 2.034625 g / cm^3
# Si number density = 20.392668 Si / 1000 Ang^3
#
#
#
# Elastic Constant Matrix: (Units=GPa)
#
#
# Indices 1 2 3 4 5 6 
#
# 1 53.1031 25.1230 27.7126 0.0000 0.0000 0.0000
# 2 25.1230 106.9201 19.8726 0.0000 0.0000 0.0000
# 3 27.7126 19.8726 184.9822 0.0000 0.0000 0.0000
# 4 0.0000 0.0000 0.0000 26.2789 0.0000 0.0000
# 5 0.0000 0.0000 0.0000 0.0000 18.5244 0.0000
# 6 0.0000 0.0000 0.0000 0.0000 0.0000 26.2958
#
#
#
# Elastic Compliance Matrix: (Units=1/GPa)
#
#
# Indices 1 2 3 4 5 6 
#
# 1 0.022588 -0.004774 -0.002871 0.000000 0.000000 0.000000
# 2 -0.004774 0.010552 -0.000418 0.000000 0.000000 0.000000
# 3 -0.002871 -0.000418 0.005881 0.000000 0.000000 0.000000
# 4 0.000000 0.000000 0.000000 0.038053 0.000000 0.000000
# 5 0.000000 0.000000 0.000000 0.000000 0.053983 0.000000
# 6 0.000000 0.000000 0.000000 0.000000 0.000000 0.038029
#
#
# Mechanical properties :
#
#
# Convention : Reuss Voigt Hill
#
# Bulk Modulus (GPa) = 43.67857 54.49131 49.08494
# Shear Modulus (GPa) = 25.92754 32.37295 29.15024
#
# Velocity S-wave (km/s) = 3.56956 3.98864 3.78490
# Velocity P-wave (km/s) = 6.20115 6.92758 6.57441
#
# Compressibility (1/GPa) = 0.02289452
#
# Stress axis : x y z
#
# Youngs Moduli (GPa) = 44.27095 94.76626 170.03890
#
# Poissons Ratio (x) = 0.45241 0.48820
# Poissons Ratio (y) = 0.21135 0.07115
# Poissons Ratio (z) = 0.12711 0.03965
#
# Static dielectric constant tensor:
#      x y z
#    x 1.748470 0.000000 0.000000 
#    y 0.000000 1.787080 0.000000 
#    z 0.000000 0.000000 1.743320 
# 
# From -- ./inp_files/69800.got.cif
#   From: 2010.05.17/outbox.cif.g08.bks.cpg/sg66_35_cif.got.tgz:69800.got - 2010.06.03 17:51:23.
