data_PCOD9499512
_publ_section_title
;
Structure prediction by ZEFSAII (Michael W. Deem and Ramdas Pophale) SiO2 
 PCOD9499512
Probable space group: C C C M
;
_chemical_formula_sum "Si O2"
_cell_formula_units_Z 68
_cell_length_a 26.118152
_cell_length_b 6.601488
_cell_length_c 18.571256
_cell_angle_alpha 90.000000
_cell_angle_beta 90.000000
_cell_angle_gamma 90.000000
_cell_volume 3202.031204
_symmetry_space_group_name_H-M "C C C M"
_symmetry_group_IT_number 66
_symmetry_cell_setting 'orthorhombic'
loop_
_space_group_symop_operation_xyz
x,y,z
-x,-y,z
x,-y,1/2-z
-x,y,1/2-z
-x,-y,-z
x,y,-z
-x,y,1/2+z
x,-y,1/2+z
1/2+x,1/2+y,z
1/2-x,1/2-y,z
1/2+x,1/2-y,1/2-z
1/2-x,1/2+y,1/2-z
1/2-x,1/2-y,-z
1/2+x,1/2+y,-z
1/2-x,1/2+y,1/2+z
1/2+x,1/2-y,1/2+z
loop_
_atom_site_type_symbol
_atom_site_label
_atom_site_fract_x
_atom_site_fract_y
_atom_site_fract_z
Si Si1 0.144547 0.667300 0.918512
Si Si2 0.197793 0.372319 0.823184
Si Si3 0.000000 0.500000 0.750000
Si Si4 0.450643 0.121725 0.109741
Si Si5 0.894681 0.049321 0.668788
O O1 0.190641 0.534094 0.887055
O O2 0.096534 0.512816 0.915140
O O3 0.129775 0.849055 0.865558
O O4 0.152923 0.735912 0.000000
O O5 0.196620 0.500000 0.750000
O O6 0.250000 0.250000 0.828989
O O7 0.150335 0.215719 0.823215
O O8 0.037487 0.387800 0.804475
O O9 0.434528 0.357492 0.109134
O O10 0.500000 0.000000 0.080079
O O11 0.914098 0.000000 0.750000
#
# Coordination Sequence:
#
# PCOD9499512 Si02
#       5
#    16  16   4  16  16
#     4  11  25  43  64  98 136 175 217 270 339 405
#     4  11  24  42  71 101 128 167 220 275 333 398
#     4   8  16  36  60  92 124 162 226 284 310 376
#     4   9  21  38  61  91 130 172 221 275 328 379
#     4  11  21  39  66  93 133 174 222 274 328 389
#
# _framework density 21.236521
#
# number of rings (size 3 to 8) (size 9 to 14) (size 15 to 20)
#    0.706    0.941    2.353    2.118    3.294    5.647 
#    0.000    2.353    0.000    0.000    0.000    0.000 
#    0.000    0.000    0.000    0.000    0.000    0.000 
#
# Total GULP energy -189352.903742 kJ/mol
# GULP energy per Si atom -5569.203051 kJ/mol
# Density = 2.118819 g / cm^3
# Si number density = 21.236521 Si / 1000 Ang^3
#
#
#
# Elastic Constant Matrix: (Units=GPa)
#
#
# Indices 1 2 3 4 5 6 
#
# 1 60.8646 17.2574 7.1735 0.0000 0.0000 0.0000
# 2 17.2574 105.3189 34.7200 0.0000 0.0000 0.0000
# 3 7.1735 34.7200 114.7773 0.0000 0.0000 0.0000
# 4 0.0000 0.0000 0.0000 43.8120 0.0000 0.0000
# 5 0.0000 0.0000 0.0000 0.0000 -1.7737 0.0000
# 6 0.0000 0.0000 0.0000 0.0000 0.0000 2.5649
#
#
#
# Elastic Compliance Matrix: (Units=1/GPa)
#
#
# Indices 1 2 3 4 5 6 
#
# 1 0.017237 -0.002743 -0.000248 0.000000 0.000000 0.000000
# 2 -0.002743 0.010983 -0.003151 0.000000 0.000000 0.000000
# 3 -0.000248 -0.003151 0.009681 0.000000 0.000000 0.000000
# 4 0.000000 0.000000 0.000000 0.022825 0.000000 0.000000
# 5 0.000000 0.000000 0.000000 0.000000 -0.563777 0.000000
# 6 0.000000 0.000000 0.000000 0.000000 0.000000 0.389885
#
#
# Mechanical properties :
#
#
# Convention : Reuss Voigt Hill
#
# Bulk Modulus (GPa) = 39.03441 44.36251 41.69846
# Shear Modulus (GPa) = -54.14492 23.70794 -15.21849
#
# Velocity S-wave (km/s) = -5.05485 3.34485 -2.67988
# Velocity P-wave (km/s) = 3.95575 5.98769 3.17840
#
# Compressibility (1/GPa) = 0.02561842
#
# Stress axis : x y z
#
# Youngs Moduli (GPa) = 58.01546 91.04843 103.29336
#
# Poissons Ratio (x) = 0.24973 0.02558
# Poissons Ratio (y) = 0.15912 0.32547
# Poissons Ratio (z) = 0.01436 0.28689
#
# Static dielectric constant tensor:
#      x y z
#    x 1.799700 0.000000 0.000000 
#    y 0.000000 1.792090 0.000000 
#    z 0.000000 0.000000 1.727710 
# 
# From -- ./inp_files/53253.got.cif
#   From: 2010.05.17/outbox.cif.g08.bks.cpg/sg66_27_cif.got.tgz:53253.got - 2010.06.03 17:51:23.
