data_PCOD9499303
_publ_section_title
;
Structure prediction by ZEFSAII (Michael W. Deem and Ramdas Pophale) SiO2 
 PCOD9499303
Probable space group: C C C M
;
_chemical_formula_sum "Si O2"
_cell_formula_units_Z 72
_cell_length_a 18.520809
_cell_length_b 17.102165
_cell_length_c 14.807965
_cell_angle_alpha 90.000000
_cell_angle_beta 90.000000
_cell_angle_gamma 90.000000
_cell_volume 4690.362667
_symmetry_space_group_name_H-M "C C C M"
_symmetry_group_IT_number 66
_symmetry_cell_setting 'orthorhombic'
loop_
_space_group_symop_operation_xyz
x,y,z
-x,-y,z
x,-y,1/2-z
-x,y,1/2-z
-x,-y,-z
x,y,-z
-x,y,1/2+z
x,-y,1/2+z
1/2+x,1/2+y,z
1/2-x,1/2-y,z
1/2+x,1/2-y,1/2-z
1/2-x,1/2+y,1/2-z
1/2-x,1/2-y,-z
1/2+x,1/2+y,-z
1/2-x,1/2+y,1/2+z
1/2+x,1/2-y,1/2+z
loop_
_atom_site_type_symbol
_atom_site_label
_atom_site_fract_x
_atom_site_fract_y
_atom_site_fract_z
Si Si1 0.725198 0.000000 0.750000
Si Si2 0.977056 0.608125 0.650145
Si Si3 0.381679 0.041122 0.901400
Si Si4 0.133366 0.729666 0.893897
Si Si5 0.223233 0.877305 0.107501
O O1 0.672399 0.048725 0.682593
O O2 0.769642 0.053482 0.820060
O O3 0.922865 0.542455 0.610674
O O4 0.934568 0.689164 0.652359
O O5 0.000000 0.584936 0.750000
O O6 0.053353 0.603454 0.599732
O O7 0.345886 0.041321 0.000000
O O8 0.159603 0.816223 0.868832
O O9 0.202588 0.672627 0.883794
O O10 0.116475 0.731053 0.000000
O O11 0.217090 0.898410 0.000000
#
# Coordination Sequence:
#
# PCOD9499303 Si02
#       5
#     8  16  16  16  16
#     4  12  18  29  42  68  99 118 156 190 232 280
#     4  11  17  27  40  64  95 123 148 181 222 274
#     4  11  19  26  39  64  99 127 147 180 227 278
#     4   9  16  29  44  61  89 124 160 191 224 271
#     4   9  18  29  44  64  88 122 159 196 230 264
#
# _framework density 15.350625000000001
#
# number of rings (size 3 to 8) (size 9 to 14) (size 15 to 20)
#    0.000    1.778    4.444    5.333    0.000    0.000 
#    0.000    0.000    0.000    0.000    0.000   36.556 
#    0.000    3.556    0.000    0.000    0.000    0.000 
#
# Total GULP energy -200401.905037 kJ/mol
# GULP energy per Si atom -5566.719584 kJ/mol
# Density = 1.531569 g / cm^3
# Si number density = 15.350625 Si / 1000 Ang^3
#
#
#
# Elastic Constant Matrix: (Units=GPa)
#
#
# Indices 1 2 3 4 5 6 
#
# 1 49.2302 42.4873 22.3755 0.0000 0.0000 0.0000
# 2 42.4873 74.6456 39.1833 0.0000 0.0000 0.0000
# 3 22.3755 39.1833 105.3317 0.0000 0.0000 0.0000
# 4 0.0000 0.0000 0.0000 13.7845 0.0000 0.0000
# 5 0.0000 0.0000 0.0000 0.0000 1.8956 0.0000
# 6 0.0000 0.0000 0.0000 0.0000 0.0000 31.6935
#
#
#
# Elastic Compliance Matrix: (Units=1/GPa)
#
#
# Indices 1 2 3 4 5 6 
#
# 1 0.039925 -0.022707 -0.000034 0.000000 0.000000 0.000000
# 2 -0.022707 0.029562 -0.006173 0.000000 0.000000 0.000000
# 3 -0.000034 -0.006173 0.011798 0.000000 0.000000 0.000000
# 4 0.000000 0.000000 0.000000 0.072545 0.000000 0.000000
# 5 0.000000 0.000000 0.000000 0.000000 0.527546 0.000000
# 6 0.000000 0.000000 0.000000 0.000000 0.000000 0.031552
#
#
# Mechanical properties :
#
#
# Convention : Reuss Voigt Hill
#
# Bulk Modulus (GPa) = 42.63422 48.58887 45.61154
# Shear Modulus (GPa) = 6.42199 17.81882 12.12040
#
# Velocity S-wave (km/s) = 2.04759 3.41073 2.81298
# Velocity P-wave (km/s) = 5.78135 6.87257 6.35044
#
# Compressibility (1/GPa) = 0.02345534
#
# Stress axis : x y z
#
# Youngs Moduli (GPa) = 25.04695 33.82771 84.76320
#
# Poissons Ratio (x) = 0.76812 0.00291
# Poissons Ratio (y) = 0.56874 0.52327
# Poissons Ratio (z) = 0.00086 0.20883
#
# Static dielectric constant tensor:
#      x y z
#    x 1.527300 0.000000 0.000000 
#    y 0.000000 1.535980 0.000000 
#    z 0.000000 0.000000 1.566480 
# 
# From -- ./inp_files/28082.got.cif
#   From: 2010.05.17/outbox.cif.g08.bks.cpg/sg66_15_cif.got.tgz:28082.got - 2010.06.03 17:51:23.
