data_PCOD9499924
_publ_section_title
;
Structure prediction by ZEFSAII (Michael W. Deem and Ramdas Pophale) SiO2 
 PCOD9499924
Probable space group: C C C M
;
_chemical_formula_sum "Si O2"
_cell_formula_units_Z 68
_cell_length_a 17.157509
_cell_length_b 8.022750
_cell_length_c 20.273684
_cell_angle_alpha 90.000000
_cell_angle_beta 90.000000
_cell_angle_gamma 90.000000
_cell_volume 2790.680820
_symmetry_space_group_name_H-M "C C C M"
_symmetry_group_IT_number 66
_symmetry_cell_setting 'orthorhombic'
loop_
_space_group_symop_operation_xyz
x,y,z
-x,-y,z
x,-y,1/2-z
-x,y,1/2-z
-x,-y,-z
x,y,-z
-x,y,1/2+z
x,-y,1/2+z
1/2+x,1/2+y,z
1/2-x,1/2-y,z
1/2+x,1/2-y,1/2-z
1/2-x,1/2+y,1/2-z
1/2-x,1/2-y,-z
1/2+x,1/2+y,-z
1/2-x,1/2+y,1/2+z
1/2+x,1/2-y,1/2+z
loop_
_atom_site_type_symbol
_atom_site_label
_atom_site_fract_x
_atom_site_fract_y
_atom_site_fract_z
Si Si1 0.750000 0.250000 0.000000
Si Si2 0.121853 0.000000 0.250000
Si Si3 0.676816 0.881432 0.000000
Si Si4 0.385272 0.909619 0.641477
Si Si5 0.750000 0.750000 0.205205
Si Si6 0.540216 0.738634 0.650764
Si Si7 0.064719 0.148732 0.500000
O O1 0.839599 0.148787 0.000000
O O2 0.792523 0.429113 0.000000
O O3 0.182058 0.151648 0.239872
O O4 0.072929 0.078688 0.310779
O O5 0.750000 0.750000 0.000000
O O6 0.622185 0.868934 0.064111
O O7 0.296958 0.884421 0.663347
O O8 0.451403 0.785525 0.669336
O O9 0.411072 0.092603 0.663274
O O10 0.546956 0.724396 0.571927
O O11 0.000000 0.000000 0.500000
#
# Coordination Sequence:
#
# PCOD9499924 Si02
#       7
#     4   8   8  16   8  16   8
#     4  12  28  46  82 130 184 220 286 362 434 518
#     4  12  30  53  78 113 160 216 280 347 426 516
#     4  12  25  45  81 129 172 223 277 354 439 522
#     4  11  25  48  79 116 162 213 271 343 422 512
#     4  12  28  46  78 111 152 211 280 342 412 511
#     4  11  27  52  80 114 166 213 274 345 428 511
#     4  12  29  47  85 123 162 221 276 346 432 518
#
# _framework density 24.366814999999999
#
# number of rings (size 3 to 8) (size 9 to 14) (size 15 to 20)
#    0.000    0.471    3.529    2.118    9.882    4.706 
#    0.000    2.353    0.000    0.000    0.000    0.000 
#    0.000    0.000    0.000    0.000    0.000    0.000 
#
# Total GULP energy -189293.935210 kJ/mol
# GULP energy per Si atom -5567.468683 kJ/mol
# Density = 2.431135 g / cm^3
# Si number density = 24.366815 Si / 1000 Ang^3
#
#
#
# Elastic Constant Matrix: (Units=GPa)
#
#
# Indices 1 2 3 4 5 6 
#
# 1 198.3701 65.1016 45.8988 0.0000 0.0000 0.0000
# 2 65.1016 153.7674 34.9241 0.0000 0.0000 0.0000
# 3 45.8988 34.9241 80.1161 0.0000 0.0000 0.0000
# 4 0.0000 0.0000 0.0000 -7.5641 0.0000 0.0000
# 5 0.0000 0.0000 0.0000 0.0000 -6.8360 0.0000
# 6 0.0000 0.0000 0.0000 0.0000 0.0000 52.1904
#
#
#
# Elastic Compliance Matrix: (Units=1/GPa)
#
#
# Indices 1 2 3 4 5 6 
#
# 1 0.006353 -0.002068 -0.002738 0.000000 0.000000 0.000000
# 2 -0.002068 0.007891 -0.002255 0.000000 0.000000 0.000000
# 3 -0.002738 -0.002255 0.015034 0.000000 0.000000 0.000000
# 4 0.000000 0.000000 0.000000 -0.132203 0.000000 0.000000
# 5 0.000000 0.000000 0.000000 0.000000 -0.146284 0.000000
# 6 0.000000 0.000000 0.000000 0.000000 0.000000 0.019161
#
#
# Mechanical properties :
#
#
# Convention : Reuss Voigt Hill
#
# Bulk Modulus (GPa) = 65.98373 80.45584 73.21979
# Shear Modulus (GPa) = -23.71090 26.64665 1.46788
#
# Velocity S-wave (km/s) = -3.12281 3.31049 0.77699
# Velocity P-wave (km/s) = 3.75973 6.90672 5.56050
#
# Compressibility (1/GPa) = 0.01515525
#
# Stress axis : x y z
#
# Youngs Moduli (GPa) = 157.39732 126.72624 66.51679
#
# Poissons Ratio (x) = 0.26206 0.18215
# Poissons Ratio (y) = 0.32548 0.15000
# Poissons Ratio (z) = 0.43102 0.28578
#
# Static dielectric constant tensor:
#      x y z
#    x 1.909510 0.000000 0.000000 
#    y 0.000000 1.829450 0.000000 
#    z 0.000000 0.000000 2.078250 
# 
# From -- ./inp_files/50689.got.cif
#   From: 2010.05.17/outbox.cif.g08.bks.cpg/sg66_26_cif.got.tgz:50689.got - 2010.06.03 17:51:23.
