data_PCOD9499434
_publ_section_title
;
Structure prediction by ZEFSAII (Michael W. Deem and Ramdas Pophale) SiO2 
 PCOD9499434
Probable space group: C C C M
;
_chemical_formula_sum "Si O2"
_cell_formula_units_Z 80
_cell_length_a 9.230255
_cell_length_b 25.098098
_cell_length_c 17.037049
_cell_angle_alpha 90.000000
_cell_angle_beta 90.000000
_cell_angle_gamma 90.000000
_cell_volume 3946.834197
_symmetry_space_group_name_H-M "C C C M"
_symmetry_group_IT_number 66
_symmetry_cell_setting 'orthorhombic'
loop_
_space_group_symop_operation_xyz
x,y,z
-x,-y,z
x,-y,1/2-z
-x,y,1/2-z
-x,-y,-z
x,y,-z
-x,y,1/2+z
x,-y,1/2+z
1/2+x,1/2+y,z
1/2-x,1/2-y,z
1/2+x,1/2-y,1/2-z
1/2-x,1/2+y,1/2-z
1/2-x,1/2-y,-z
1/2+x,1/2+y,-z
1/2-x,1/2+y,1/2+z
1/2+x,1/2-y,1/2+z
loop_
_atom_site_type_symbol
_atom_site_label
_atom_site_fract_x
_atom_site_fract_y
_atom_site_fract_z
Si Si1 0.297108 0.835090 0.000000
Si Si2 0.132190 0.359432 0.000000
Si Si3 0.750000 0.750000 0.365055
Si Si4 0.000000 0.222292 0.250000
Si Si5 0.775184 0.974054 0.000000
Si Si6 0.667562 0.480196 0.667956
Si Si7 0.843353 0.855776 0.863999
Si Si8 0.534163 0.606697 0.500000
O O1 0.466108 0.846181 0.000000
O O2 0.255360 0.800390 0.076344
O O3 0.204659 0.889465 0.000000
O O4 0.211482 0.339074 0.079176
O O5 0.169203 0.422682 0.000000
O O6 0.894808 0.748128 0.311357
O O7 0.111481 0.184950 0.202025
O O8 0.763678 0.999857 0.914318
O O9 0.062166 0.053248 0.000000
O O10 0.500000 0.500000 0.666558
O O11 0.731643 0.500000 0.750000
O O12 0.678081 0.415927 0.667549
O O13 0.976657 0.862475 0.924041
#
# Coordination Sequence:
#
# PCOD9499434 Si02
#       8
#     8   8   8   8   8  16  16   8
#     4  11  20  43  54  83 103 152 199 239 276 358
#     4   8  19  34  60  76 107 147 196 223 282 353
#     4  11  28  34  60  79 116 146 194 245 294 338
#     4  12  22  40  49  84 120 140 189 240 286 346
#     4   8  17  30  50  85 109 149 186 231 292 344
#     4   9  15  26  49  85 113 138 179 238 284 330
#     4   9  19  35  56  80 112 150 179 232 294 335
#     4   8  15  35  54  72 103 143 189 226 275 339
#
# _framework density 20.269410000000001
#
# number of rings (size 3 to 8) (size 9 to 14) (size 15 to 20)
#    0.000    3.200    2.000    1.500    2.800    0.000 
#    0.000    1.000    0.000    0.000    0.000   67.200 
#    0.000    0.000    0.000    0.000    0.000    0.000 
#
# Total GULP energy -222847.676572 kJ/mol
# GULP energy per Si atom -5571.191914 kJ/mol
# Density = 2.022328 g / cm^3
# Si number density = 20.269410 Si / 1000 Ang^3
#
#
#
# Elastic Constant Matrix: (Units=GPa)
#
#
# Indices 1 2 3 4 5 6 
#
# 1 107.2183 19.1301 22.4561 0.0000 0.0000 0.0000
# 2 19.1301 41.3440 27.3472 0.0000 0.0000 0.0000
# 3 22.4561 27.3472 157.9780 0.0000 0.0000 0.0000
# 4 0.0000 0.0000 0.0000 6.1172 0.0000 0.0000
# 5 0.0000 0.0000 0.0000 0.0000 -214.1110 0.0000
# 6 0.0000 0.0000 0.0000 0.0000 0.0000 4.4886
#
#
#
# Elastic Compliance Matrix: (Units=1/GPa)
#
#
# Indices 1 2 3 4 5 6 
#
# 1 0.010238 -0.004262 -0.000717 0.000000 0.000000 0.000000
# 2 -0.004262 0.029090 -0.004430 0.000000 0.000000 0.000000
# 3 -0.000717 -0.004430 0.007199 0.000000 0.000000 0.000000
# 4 0.000000 0.000000 0.000000 0.163472 0.000000 0.000000
# 5 0.000000 0.000000 0.000000 0.000000 -0.004670 0.000000
# 6 0.000000 0.000000 0.000000 0.000000 0.000000 0.222787
#
#
# Mechanical properties :
#
#
# Convention : Reuss Voigt Hill
#
# Bulk Modulus (GPa) = 36.09219 49.37856 42.73537
# Shear Modulus (GPa) = 10.96083 -24.86058 -6.94987
#
# Velocity S-wave (km/s) = 2.32794 -3.50595 -1.85370
# Velocity P-wave (km/s) = 5.00706 2.83286 4.06791
#
# Compressibility (1/GPa) = 0.02770683
#
# Stress axis : x y z
#
# Youngs Moduli (GPa) = 97.67990 34.37651 138.91218
#
# Poissons Ratio (x) = 0.14653 0.09965
# Poissons Ratio (y) = 0.41635 0.61535
# Poissons Ratio (z) = 0.07007 0.15228
#
# Static dielectric constant tensor:
#      x y z
#    x 1.701020 0.000000 0.000000 
#    y 0.000000 1.743300 0.000000 
#    z 0.000000 0.000000 1.774870 
# 
# From -- ./inp_files/37093.got.cif
#   From: 2010.05.17/outbox.cif.g08.bks.cpg/sg66_19_cif.got.tgz:37093.got - 2010.06.03 17:51:23.
