data_PCOD9499331
_publ_section_title
;
Structure prediction by ZEFSAII (Michael W. Deem and Ramdas Pophale) SiO2 
 PCOD9499331
Probable space group: C C C M
;
_chemical_formula_sum "Si O2"
_cell_formula_units_Z 80
_cell_length_a 29.380504
_cell_length_b 16.489898
_cell_length_c 9.777843
_cell_angle_alpha 90.000000
_cell_angle_beta 90.000000
_cell_angle_gamma 90.000000
_cell_volume 4737.184182
_symmetry_space_group_name_H-M "C C C M"
_symmetry_group_IT_number 66
_symmetry_cell_setting 'orthorhombic'
loop_
_space_group_symop_operation_xyz
x,y,z
-x,-y,z
x,-y,1/2-z
-x,y,1/2-z
-x,-y,-z
x,y,-z
-x,y,1/2+z
x,-y,1/2+z
1/2+x,1/2+y,z
1/2-x,1/2-y,z
1/2+x,1/2-y,1/2-z
1/2-x,1/2+y,1/2-z
1/2-x,1/2-y,-z
1/2+x,1/2+y,-z
1/2-x,1/2+y,1/2+z
1/2+x,1/2-y,1/2+z
loop_
_atom_site_type_symbol
_atom_site_label
_atom_site_fract_x
_atom_site_fract_y
_atom_site_fract_z
Si Si1 0.205274 0.304945 0.201929
Si Si2 0.046450 0.920653 0.665211
Si Si3 0.673408 0.552350 0.000000
Si Si4 0.724074 0.134143 0.000000
Si Si5 0.334634 0.630701 0.000000
Si Si6 0.281172 0.051934 0.000000
Si Si7 0.133184 0.175883 0.208314
O O1 0.250000 0.250000 0.164684
O O2 0.208561 0.321125 0.363195
O O3 0.206330 0.391817 0.128552
O O4 0.159661 0.256470 0.162318
O O5 0.040648 0.936207 0.500000
O O6 0.080916 0.845003 0.678677
O O7 0.000000 0.904136 0.750000
O O8 0.064901 0.000000 0.750000
O O9 0.652476 0.463928 0.000000
O O10 0.726949 0.545994 0.000000
O O11 0.658445 0.602477 0.131389
O O12 0.779511 0.134351 0.000000
O O13 0.704824 0.041925 0.000000
O O14 0.355736 0.669510 0.133303
#
# Coordination Sequence:
#
# PCOD9499331 Si02
#       7
#    16  16   8   8   8   8  16
#     4  12  21  36  51  79 110 145 186 236 278 317
#     4  11  24  41  59  82 112 147 186 228 276 333
#     4  11  19  33  46  78 103 145 189 223 264 320
#     4  11  22  38  50  76 109 156 190 231 268 330
#     4  11  21  31  50  74 109 147 191 227 264 320
#     4  11  22  34  56  70 111 150 192 221 274 326
#     4  12  23  33  54  76 108 144 185 234 274 322
#
# _framework density 16.88767
#
# number of rings (size 3 to 8) (size 9 to 14) (size 15 to 20)
#    0.000    0.600    5.000    5.400    2.800    3.200 
#    0.000    0.000    0.000    0.000    0.000    0.000 
#    0.000    4.800    0.000    0.000    0.000    0.000 
#
# Total GULP energy -223230.423751 kJ/mol
# GULP energy per Si atom -5580.760594 kJ/mol
# Density = 1.684923 g / cm^3
# Si number density = 16.887670 Si / 1000 Ang^3
#
#
#
# Elastic Constant Matrix: (Units=GPa)
#
#
# Indices 1 2 3 4 5 6 
#
# 1 76.8431 32.6565 22.5181 0.0000 0.0000 0.0000
# 2 32.6565 83.8124 18.1275 0.0000 0.0000 0.0000
# 3 22.5181 18.1275 134.0339 0.0000 0.0000 0.0000
# 4 0.0000 0.0000 0.0000 49.9006 0.0000 0.0000
# 5 0.0000 0.0000 0.0000 0.0000 14.4957 0.0000
# 6 0.0000 0.0000 0.0000 0.0000 0.0000 29.8965
#
#
#
# Elastic Compliance Matrix: (Units=1/GPa)
#
#
# Indices 1 2 3 4 5 6 
#
# 1 0.016056 -0.005843 -0.001907 0.000000 0.000000 0.000000
# 2 -0.005843 0.014418 -0.000968 0.000000 0.000000 0.000000
# 3 -0.001907 -0.000968 0.007912 0.000000 0.000000 0.000000
# 4 0.000000 0.000000 0.000000 0.020040 0.000000 0.000000
# 5 0.000000 0.000000 0.000000 0.000000 0.068986 0.000000
# 6 0.000000 0.000000 0.000000 0.000000 0.000000 0.033449
#
#
# Mechanical properties :
#
#
# Convention : Reuss Voigt Hill
#
# Bulk Modulus (GPa) = 47.73728 49.03263 48.38495
# Shear Modulus (GPa) = 26.98615 33.61771 30.30193
#
# Velocity S-wave (km/s) = 4.00181 4.46653 4.24054
# Velocity P-wave (km/s) = 7.04851 7.46307 7.25875
#
# Compressibility (1/GPa) = 0.02094799
#
# Stress axis : x y z
#
# Youngs Moduli (GPa) = 62.28310 69.35945 126.38797
#
# Poissons Ratio (x) = 0.40530 0.24104
# Poissons Ratio (y) = 0.36395 0.12237
# Poissons Ratio (z) = 0.11878 0.06715
#
# Static dielectric constant tensor:
#      x y z
#    x 1.590150 0.000000 0.000000 
#    y 0.000000 1.585560 0.000000 
#    z 0.000000 0.000000 1.629220 
# 
# From -- ./inp_files/10118.got.cif
#   From: 2010.05.17/outbox.cif.g08.bks.cpg/sg66_6_cif.got.tgz:10118.got - 2010.06.03 17:51:23.
