data_PCOD9499337
_publ_section_title
;
Structure prediction by ZEFSAII (Michael W. Deem and Ramdas Pophale) SiO2 
 PCOD9499337
Probable space group: C C C M
;
_chemical_formula_sum "Si O2"
_cell_formula_units_Z 64
_cell_length_a 11.836550
_cell_length_b 20.262433
_cell_length_c 14.995148
_cell_angle_alpha 90.000000
_cell_angle_beta 90.000000
_cell_angle_gamma 90.000000
_cell_volume 3596.395829
_symmetry_space_group_name_H-M "C C C M"
_symmetry_group_IT_number 66
_symmetry_cell_setting 'orthorhombic'
loop_
_space_group_symop_operation_xyz
x,y,z
-x,-y,z
x,-y,1/2-z
-x,y,1/2-z
-x,-y,-z
x,y,-z
-x,y,1/2+z
x,-y,1/2+z
1/2+x,1/2+y,z
1/2-x,1/2-y,z
1/2+x,1/2-y,1/2-z
1/2-x,1/2+y,1/2-z
1/2-x,1/2-y,-z
1/2+x,1/2+y,-z
1/2-x,1/2+y,1/2+z
1/2+x,1/2-y,1/2+z
loop_
_atom_site_type_symbol
_atom_site_label
_atom_site_fract_x
_atom_site_fract_y
_atom_site_fract_z
Si Si1 0.064441 0.736526 0.898327
Si Si2 0.156654 0.194023 0.159182
Si Si3 0.840351 0.943746 0.500000
Si Si4 0.105692 0.094761 0.000000
Si Si5 0.735140 0.349354 0.148055
O O1 0.136082 0.676207 0.857858
O O2 0.155529 0.795563 0.900457
O O3 0.959403 0.764254 0.843262
O O4 0.028731 0.721839 0.000000
O O5 0.250000 0.250000 0.140597
O O6 0.140769 0.138561 0.084465
O O7 0.190350 0.157261 0.250955
O O8 0.783231 0.914532 0.410364
O O9 0.970791 0.918741 0.500000
O O10 0.839607 0.022590 0.500000
#
# Coordination Sequence:
#
# PCOD9499337 Si02
#       5
#    16  16   8   8  16
#     4  11  19  35  58  88 116 153 195 242 300 345
#     4  12  23  36  59  91 126 147 192 253 306 349
#     4  11  22  40  58  81 119 162 202 235 286 374
#     4  11  25  37  53  84 126 163 190 235 305 360
#     4  11  20  34  62  85 115 151 197 249 286 348
#
# _framework density 17.795594000000001
#
# number of rings (size 3 to 8) (size 9 to 14) (size 15 to 20)
#    0.000    0.750    8.750    1.875    0.000    1.000 
#    0.000    2.500    0.000    3.000    0.000    3.500 
#    0.000    0.000    0.000    0.000    0.000    0.000 
#
# Total GULP energy -178429.092208 kJ/mol
# GULP energy per Si atom -5575.909132 kJ/mol
# Density = 1.775509 g / cm^3
# Si number density = 17.795594 Si / 1000 Ang^3
#
#
#
# Elastic Constant Matrix: (Units=GPa)
#
#
# Indices 1 2 3 4 5 6 
#
# 1 95.2426 64.1296 54.8512 0.0000 0.0000 0.0000
# 2 64.1296 128.9614 75.0026 0.0000 0.0000 0.0000
# 3 54.8512 75.0026 178.2637 0.0000 0.0000 0.0000
# 4 0.0000 0.0000 0.0000 15.5847 0.0000 0.0000
# 5 0.0000 0.0000 0.0000 0.0000 21.2009 0.0000
# 6 0.0000 0.0000 0.0000 0.0000 0.0000 28.3000
#
#
#
# Elastic Compliance Matrix: (Units=1/GPa)
#
#
# Indices 1 2 3 4 5 6 
#
# 1 0.016376 -0.006902 -0.002135 0.000000 0.000000 0.000000
# 2 -0.006902 0.013175 -0.003420 0.000000 0.000000 0.000000
# 3 -0.002135 -0.003420 0.007705 0.000000 0.000000 0.000000
# 4 0.000000 0.000000 0.000000 0.064165 0.000000 0.000000
# 5 0.000000 0.000000 0.000000 0.000000 0.047168 0.000000
# 6 0.000000 0.000000 0.000000 0.000000 0.000000 0.035336
#
#
# Mechanical properties :
#
#
# Convention : Reuss Voigt Hill
#
# Bulk Modulus (GPa) = 81.01225 87.82604 84.41915
# Shear Modulus (GPa) = 23.47930 26.91609 25.19769
#
# Velocity S-wave (km/s) = 3.63628 3.89332 3.76700
# Velocity P-wave (km/s) = 7.95315 8.34688 8.15240
#
# Compressibility (1/GPa) = 0.01234381
#
# Stress axis : x y z
#
# Youngs Moduli (GPa) = 61.06380 75.89994 129.77899
#
# Poissons Ratio (x) = 0.52385 0.27709
# Poissons Ratio (y) = 0.42145 0.44380
# Poissons Ratio (z) = 0.13037 0.25955
#
# Static dielectric constant tensor:
#      x y z
#    x 1.642220 0.000000 0.000000 
#    y 0.000000 1.589130 0.000000 
#    z 0.000000 0.000000 1.684050 
# 
# From -- ./inp_files/25873.got.cif
#   From: 2010.05.17/outbox.cif.g08.bks.cpg/sg66_13_cif.got.tgz:25873.got - 2010.06.03 17:51:23.
