data_PCOD9499714
_publ_section_title
;
Structure prediction by ZEFSAII (Michael W. Deem and Ramdas Pophale) SiO2 
 PCOD9499714
Probable space group: C C C M
;
_chemical_formula_sum "Si O2"
_cell_formula_units_Z 48
_cell_length_a 4.987335
_cell_length_b 26.800808
_cell_length_c 14.716333
_cell_angle_alpha 90.000000
_cell_angle_beta 90.000000
_cell_angle_gamma 90.000000
_cell_volume 1967.052878
_symmetry_space_group_name_H-M "C C C M"
_symmetry_group_IT_number 66
_symmetry_cell_setting 'orthorhombic'
loop_
_space_group_symop_operation_xyz
x,y,z
-x,-y,z
x,-y,1/2-z
-x,y,1/2-z
-x,-y,-z
x,y,-z
-x,y,1/2+z
x,-y,1/2+z
1/2+x,1/2+y,z
1/2-x,1/2-y,z
1/2+x,1/2-y,1/2-z
1/2-x,1/2+y,1/2-z
1/2-x,1/2-y,-z
1/2+x,1/2+y,-z
1/2-x,1/2+y,1/2+z
1/2+x,1/2-y,1/2+z
loop_
_atom_site_type_symbol
_atom_site_label
_atom_site_fract_x
_atom_site_fract_y
_atom_site_fract_z
Si Si1 0.263632 0.966499 0.607060
Si Si2 0.600041 0.797495 0.650387
Si Si3 0.592853 0.640269 0.104965
O O1 0.331747 0.957693 0.500000
O O2 0.204528 0.911631 0.644317
O O3 0.500000 0.000000 0.646344
O O4 0.000000 0.000000 0.611643
O O5 0.500000 0.782291 0.750000
O O6 0.750000 0.750000 0.607331
O O7 0.335968 0.820228 0.605143
O O8 0.831560 0.839109 0.655115
O O9 0.506856 0.631815 0.000000
#
# Coordination Sequence:
#
# PCOD9499714 Si02
#       3
#    16  16  16
#     4   9  17  32  56  88 125 159 193 239 298 361
#     4  12  25  43  63  86 123 170 210 248 312 384
#     4  11  23  39  65  98 125 157 208 264 306 351
#
# _framework density 24.401986999999998
#
# number of rings (size 3 to 8) (size 9 to 14) (size 15 to 20)
#    0.000    1.333    0.000    7.000    0.000    9.333 
#    0.000    0.000    0.000   15.000    0.000    0.000 
#    0.000    0.000    0.000    0.000    0.000    0.333 
#
# Total GULP energy -134341.492271 kJ/mol
# GULP energy per Si atom -5597.562178 kJ/mol
# Density = 2.434645 g / cm^3
# Si number density = 24.401987 Si / 1000 Ang^3
#
#
#
# Elastic Constant Matrix: (Units=GPa)
#
#
# Indices 1 2 3 4 5 6 
#
# 1 130.7313 27.6791 17.2471 0.0000 0.0000 0.0000
# 2 27.6791 105.3920 10.2051 0.0000 0.0000 0.0000
# 3 17.2471 10.2051 54.6931 0.0000 0.0000 0.0000
# 4 0.0000 0.0000 0.0000 31.2183 0.0000 0.0000
# 5 0.0000 0.0000 0.0000 0.0000 33.1053 0.0000
# 6 0.0000 0.0000 0.0000 0.0000 0.0000 49.1183
#
#
#
# Elastic Compliance Matrix: (Units=1/GPa)
#
#
# Indices 1 2 3 4 5 6 
#
# 1 0.008367 -0.001978 -0.002270 0.000000 0.000000 0.000000
# 2 -0.001978 0.010130 -0.001267 0.000000 0.000000 0.000000
# 3 -0.002270 -0.001267 0.019236 0.000000 0.000000 0.000000
# 4 0.000000 0.000000 0.000000 0.032032 0.000000 0.000000
# 5 0.000000 0.000000 0.000000 0.000000 0.030207 0.000000
# 6 0.000000 0.000000 0.000000 0.000000 0.000000 0.020359
#
#
# Mechanical properties :
#
#
# Convention : Reuss Voigt Hill
#
# Bulk Modulus (GPa) = 37.44485 44.56433 41.00459
# Shear Modulus (GPa) = 35.64766 38.40073 37.02420
#
# Velocity S-wave (km/s) = 3.82625 3.97126 3.89943
# Velocity P-wave (km/s) = 5.90750 6.27137 6.09215
#
# Compressibility (1/GPa) = 0.02670594
#
# Stress axis : x y z
#
# Youngs Moduli (GPa) = 119.51085 98.71230 51.98624
#
# Poissons Ratio (x) = 0.19523 0.11799
# Poissons Ratio (y) = 0.23637 0.06584
# Poissons Ratio (z) = 0.27124 0.12502
#
# Static dielectric constant tensor:
#      x y z
#    x 1.866470 0.000000 0.000000 
#    y 0.000000 1.952560 0.000000 
#    z 0.000000 0.000000 1.939100 
# 
# From -- ./inp_files/32791.got.cif
#   From: 2010.05.17/outbox.cif.g08.bks.cpg/sg66_17_cif.got.tgz:32791.got - 2010.06.03 17:51:23.
