data_PCOD9499667
_publ_section_title
;
Structure prediction by ZEFSAII (Michael W. Deem and Ramdas Pophale) SiO2 
 PCOD9499667
Probable space group: C C C M
;
_chemical_formula_sum "Si O2"
_cell_formula_units_Z 60
_cell_length_a 11.732282
_cell_length_b 9.239519
_cell_length_c 25.023927
_cell_angle_alpha 90.000000
_cell_angle_beta 90.000000
_cell_angle_gamma 90.000000
_cell_volume 2712.609763
_symmetry_space_group_name_H-M "C C C M"
_symmetry_group_IT_number 66
_symmetry_cell_setting 'orthorhombic'
loop_
_space_group_symop_operation_xyz
x,y,z
-x,-y,z
x,-y,1/2-z
-x,y,1/2-z
-x,-y,-z
x,y,-z
-x,y,1/2+z
x,-y,1/2+z
1/2+x,1/2+y,z
1/2-x,1/2-y,z
1/2+x,1/2-y,1/2-z
1/2-x,1/2+y,1/2-z
1/2-x,1/2-y,-z
1/2+x,1/2+y,-z
1/2-x,1/2+y,1/2+z
1/2+x,1/2-y,1/2+z
loop_
_atom_site_type_symbol
_atom_site_label
_atom_site_fract_x
_atom_site_fract_y
_atom_site_fract_z
Si Si1 0.766519 0.917628 0.303862
Si Si2 0.829020 0.459865 0.918597
Si Si3 0.750000 0.250000 0.000000
Si Si4 0.950389 0.743621 0.940068
Si Si5 0.500000 0.500000 0.358892
O O1 0.750000 0.750000 0.293426
O O2 0.691524 0.955205 0.355770
O O3 0.736664 0.000000 0.250000
O O4 0.895185 0.950009 0.322415
O O5 0.734549 0.376502 0.953001
O O6 0.850021 0.625524 0.934265
O O7 0.938092 0.360610 0.934393
O O8 0.951427 0.803061 0.000000
O O9 0.957012 0.867804 0.896099
#
# Coordination Sequence:
#
# PCOD9499667 Si02
#       5
#    16  16   4  16   8
#     4  12  28  51  74 105 144 198 247 308 361 440
#     4  11  22  42  75 103 147 190 243 292 376 431
#     4  12  16  38  72 106 140 196 234 300 362 446
#     4  11  22  43  68 115 147 190 235 304 367 457
#     4  12  26  48  74 106 150 183 251 306 372 432
#
# _framework density 22.118921
#
# number of rings (size 3 to 8) (size 9 to 14) (size 15 to 20)
#    0.000    0.533    6.667    1.600    3.733    0.000 
#    2.400    4.000    0.000    0.000    0.000    0.000 
#    0.000    0.000    0.000    0.000    0.000    0.000 
#
# Total GULP energy -167399.331303 kJ/mol
# GULP energy per Si atom -5579.977710 kJ/mol
# Density = 2.206858 g / cm^3
# Si number density = 22.118921 Si / 1000 Ang^3
#
#
#
# Elastic Constant Matrix: (Units=GPa)
#
#
# Indices 1 2 3 4 5 6 
#
# 1 16.1696 21.4372 4.1203 0.0000 0.0000 0.0000
# 2 21.4372 124.9477 45.7608 0.0000 0.0000 0.0000
# 3 4.1203 45.7608 191.5174 0.0000 0.0000 0.0000
# 4 0.0000 0.0000 0.0000 118.0286 0.0000 0.0000
# 5 0.0000 0.0000 0.0000 0.0000 193.9956 0.0000
# 6 0.0000 0.0000 0.0000 0.0000 0.0000 29.3088
#
#
#
# Elastic Compliance Matrix: (Units=1/GPa)
#
#
# Indices 1 2 3 4 5 6 
#
# 1 0.080567 -0.014453 0.001720 0.000000 0.000000 0.000000
# 2 -0.014453 0.011364 -0.002404 0.000000 0.000000 0.000000
# 3 0.001720 -0.002404 0.005759 0.000000 0.000000 0.000000
# 4 0.000000 0.000000 0.000000 0.008473 0.000000 0.000000
# 5 0.000000 0.000000 0.000000 0.000000 0.005155 0.000000
# 6 0.000000 0.000000 0.000000 0.000000 0.000000 0.034119
#
#
# Mechanical properties :
#
#
# Convention : Reuss Voigt Hill
#
# Bulk Modulus (GPa) = 14.83339 52.80791 33.82065
# Shear Modulus (GPa) = 25.22935 85.68770 55.45852
#
# Velocity S-wave (km/s) = 3.38097 6.23086 5.01272
# Velocity P-wave (km/s) = 4.68637 8.70007 6.98761
#
# Compressibility (1/GPa) = 0.06741547
#
# Stress axis : x y z
#
# Youngs Moduli (GPa) = 12.41203 88.00093 173.64368
#
# Poissons Ratio (x) = 1.27185 -0.29867
# Poissons Ratio (y) = 0.17939 0.41748
# Poissons Ratio (z) = -0.02135 0.21158
#
# Static dielectric constant tensor:
#      x y z
#    x 2.055790 0.000000 0.000000 
#    y 0.000000 1.828450 0.000000 
#    z 0.000000 0.000000 1.731060 
# 
# From -- ./inp_files/63249.got.cif
#   From: 2010.05.17/outbox.cif.g08.bks.cpg/sg66_32_cif.got.tgz:63249.got - 2010.06.03 17:51:23.
