data_PCOD9499840
_publ_section_title
;
Structure prediction by ZEFSAII (Michael W. Deem and Ramdas Pophale) SiO2 
 PCOD9499840
Probable space group: C C C M
;
_chemical_formula_sum "Si O2"
_cell_formula_units_Z 36
_cell_length_a 8.009831
_cell_length_b 6.773949
_cell_length_c 30.934883
_cell_angle_alpha 90.000000
_cell_angle_beta 90.000000
_cell_angle_gamma 90.000000
_cell_volume 1678.470657
_symmetry_space_group_name_H-M "C C C M"
_symmetry_group_IT_number 66
_symmetry_cell_setting 'orthorhombic'
loop_
_space_group_symop_operation_xyz
x,y,z
-x,-y,z
x,-y,1/2-z
-x,y,1/2-z
-x,-y,-z
x,y,-z
-x,y,1/2+z
x,-y,1/2+z
1/2+x,1/2+y,z
1/2-x,1/2-y,z
1/2+x,1/2-y,1/2-z
1/2-x,1/2+y,1/2-z
1/2-x,1/2-y,-z
1/2+x,1/2+y,-z
1/2-x,1/2+y,1/2+z
1/2+x,1/2-y,1/2+z
loop_
_atom_site_type_symbol
_atom_site_label
_atom_site_fract_x
_atom_site_fract_y
_atom_site_fract_z
Si Si1 0.805464 0.471395 0.000000
Si Si2 0.500000 0.500000 0.867039
Si Si3 0.250000 0.750000 0.578957
Si Si4 0.750000 0.250000 0.190598
Si Si5 0.500000 0.000000 0.750000
O O1 0.750000 0.250000 0.000000
O O2 0.752246 0.570479 0.955247
O O3 0.000000 0.500000 0.000000
O O4 0.409840 0.317623 0.892713
O O5 0.353400 0.597099 0.838751
O O6 0.618155 0.134492 0.220268
#
# Coordination Sequence:
#
# PCOD9499840 Si02
#       5
#     8   8   8   8   4
#     4  11  24  43  70  95 135 198 236 289 348 411
#     4  12  26  44  70 106 142 180 232 294 352 410
#     4  11  26  43  66 103 142 184 242 291 346 415
#     4  12  26  45  74 104 138 184 226 284 358 413
#     4  12  24  48  72 100 140 178 232 276 342 450
#
# _framework density 21.448097000000001
#
# number of rings (size 3 to 8) (size 9 to 14) (size 15 to 20)
#    0.000    0.444    0.000    8.000    9.333    3.556 
#    0.000    0.000    0.000    0.000    0.000    0.000 
#    0.000    0.000    0.000    0.000    0.000    0.000 
#
# Total GULP energy -100564.446326 kJ/mol
# GULP energy per Si atom -5586.913685 kJ/mol
# Density = 2.139928 g / cm^3
# Si number density = 21.448097 Si / 1000 Ang^3
#
#
#
# Elastic Constant Matrix: (Units=GPa)
#
#
# Indices 1 2 3 4 5 6 
#
# 1 137.9310 61.4629 75.1719 0.0000 0.0000 0.0000
# 2 61.4629 161.5550 64.8952 0.0000 0.0000 0.0000
# 3 75.1719 64.8952 124.4476 0.0000 0.0000 0.0000
# 4 0.0000 0.0000 0.0000 30.5190 0.0000 0.0000
# 5 0.0000 0.0000 0.0000 0.0000 54.2582 0.0000
# 6 0.0000 0.0000 0.0000 0.0000 0.0000 65.2309
#
#
#
# Elastic Compliance Matrix: (Units=1/GPa)
#
#
# Indices 1 2 3 4 5 6 
#
# 1 0.011281 -0.001967 -0.005789 0.000000 0.000000 0.000000
# 2 -0.001967 0.008173 -0.003074 0.000000 0.000000 0.000000
# 3 -0.005789 -0.003074 0.013135 0.000000 0.000000 0.000000
# 4 0.000000 0.000000 0.000000 0.032766 0.000000 0.000000
# 5 0.000000 0.000000 0.000000 0.000000 0.018430 0.000000
# 6 0.000000 0.000000 0.000000 0.000000 0.000000 0.015330
#
#
# Mechanical properties :
#
#
# Convention : Reuss Voigt Hill
#
# Bulk Modulus (GPa) = 91.48734 91.88819 91.68777
# Shear Modulus (GPa) = 40.18695 44.82852 42.50773
#
# Velocity S-wave (km/s) = 4.33330 4.57671 4.45667
# Velocity P-wave (km/s) = 8.23313 8.41805 8.32610
#
# Compressibility (1/GPa) = 0.01093047
#
# Stress axis : x y z
#
# Youngs Moduli (GPa) = 88.64275 122.35724 76.13122
#
# Poissons Ratio (x) = 0.24062 0.44071
# Poissons Ratio (y) = 0.17432 0.23402
# Poissons Ratio (z) = 0.51314 0.37612
#
# Static dielectric constant tensor:
#      x y z
#    x 1.770810 0.000000 0.000000 
#    y 0.000000 1.786620 0.000000 
#    z 0.000000 0.000000 0.887550 
# 
# From -- ./inp_files/67650.got.cif
#   From: 2010.05.17/outbox.cif.g08.bks.cpg/sg66_34_cif.got.tgz:67650.got - 2010.06.03 17:51:23.
