data_PCOD9499330
_publ_section_title
;
Structure prediction by ZEFSAII (Michael W. Deem and Ramdas Pophale) SiO2 
 PCOD9499330
Probable space group: C C C M
;
_chemical_formula_sum "Si O2"
_cell_formula_units_Z 72
_cell_length_a 12.204441
_cell_length_b 25.981723
_cell_length_c 13.373623
_cell_angle_alpha 90.000000
_cell_angle_beta 90.000000
_cell_angle_gamma 90.000000
_cell_volume 4240.674286
_symmetry_space_group_name_H-M "C C C M"
_symmetry_group_IT_number 66
_symmetry_cell_setting 'orthorhombic'
loop_
_space_group_symop_operation_xyz
x,y,z
-x,-y,z
x,-y,1/2-z
-x,y,1/2-z
-x,-y,-z
x,y,-z
-x,y,1/2+z
x,-y,1/2+z
1/2+x,1/2+y,z
1/2-x,1/2-y,z
1/2+x,1/2-y,1/2-z
1/2-x,1/2+y,1/2-z
1/2-x,1/2-y,-z
1/2+x,1/2+y,-z
1/2-x,1/2+y,1/2+z
1/2+x,1/2-y,1/2+z
loop_
_atom_site_type_symbol
_atom_site_label
_atom_site_fract_x
_atom_site_fract_y
_atom_site_fract_z
Si Si1 0.129766 0.942281 0.278746
Si Si2 0.163211 0.701757 0.000000
Si Si3 0.431137 0.447096 0.000000
Si Si4 0.916447 0.256307 0.500000
Si Si5 0.537529 0.340801 0.000000
Si Si6 0.293561 0.660200 0.174968
Si Si7 0.750000 0.750000 0.170514
O O1 0.136063 0.940260 0.398519
O O2 0.191985 0.895991 0.223493
O O3 0.000000 0.937397 0.250000
O O4 0.164345 0.000000 0.250000
O O5 0.250000 0.750000 0.000000
O O6 0.191939 0.669112 0.900744
O O7 0.039065 0.721467 0.000000
O O8 0.500000 0.500000 0.000000
O O9 0.517265 0.400978 0.000000
O O10 0.846844 0.269384 0.402049
O O11 0.930653 0.194210 0.500000
O O12 0.604221 0.329623 0.100870
O O13 0.289277 0.703507 0.259559
#
# Coordination Sequence:
#
# PCOD9499330 Si02
#       7
#    16   8   8   8   8  16   8
#     4  11  21  34  54  85 120 159 194 236 299 353
#     4  11  21  39  58  83 110 153 205 240 295 360
#     4  12  19  30  49  81 118 158 196 232 286 363
#     4  11  23  38  52  80 115 147 195 245 286 363
#     4  11  19  32  56  74 111 154 189 226 283 353
#     4  11  21  35  54  84 113 156 193 233 293 360
#     4  11  24  35  54  82 114 153 192 239 310 340
#
# _framework density 16.978432999999999
#
# number of rings (size 3 to 8) (size 9 to 14) (size 15 to 20)
#    0.000    0.889    7.778    1.333    0.000    4.444 
#    0.000    0.000    0.000    0.000    0.000    4.667 
#    0.000    0.000    0.000    0.000    0.000    0.000 
#
# Total GULP energy -200860.681902 kJ/mol
# GULP energy per Si atom -5579.463386 kJ/mol
# Density = 1.693979 g / cm^3
# Si number density = 16.978433 Si / 1000 Ang^3
#
#
#
# Elastic Constant Matrix: (Units=GPa)
#
#
# Indices 1 2 3 4 5 6 
#
# 1 66.8849 37.2007 43.8894 0.0000 0.0000 0.0000
# 2 37.2007 134.6407 64.4043 0.0000 0.0000 0.0000
# 3 43.8894 64.4043 165.2243 0.0000 0.0000 0.0000
# 4 0.0000 0.0000 0.0000 29.6851 0.0000 0.0000
# 5 0.0000 0.0000 0.0000 0.0000 1.2488 0.0000
# 6 0.0000 0.0000 0.0000 0.0000 0.0000 23.0495
#
#
#
# Elastic Compliance Matrix: (Units=1/GPa)
#
#
# Indices 1 2 3 4 5 6 
#
# 1 0.019402 -0.003559 -0.003767 0.000000 0.000000 0.000000
# 2 -0.003559 0.009782 -0.002868 0.000000 0.000000 0.000000
# 3 -0.003767 -0.002868 0.008171 0.000000 0.000000 0.000000
# 4 0.000000 0.000000 0.000000 0.033687 0.000000 0.000000
# 5 0.000000 0.000000 0.000000 0.000000 0.800797 0.000000
# 6 0.000000 0.000000 0.000000 0.000000 0.000000 0.043385
#
#
# Mechanical properties :
#
#
# Convention : Reuss Voigt Hill
#
# Bulk Modulus (GPa) = 58.93272 73.08211 66.00741
# Shear Modulus (GPa) = 5.31199 25.54702 15.42950
#
# Velocity S-wave (km/s) = 1.77072 3.88322 3.01785
# Velocity P-wave (km/s) = 6.24230 7.95257 7.14877
#
# Compressibility (1/GPa) = 0.01696850
#
# Stress axis : x y z
#
# Youngs Moduli (GPa) = 51.54066 102.22574 122.38767
#
# Poissons Ratio (x) = 0.36382 0.46099
# Poissons Ratio (y) = 0.18343 0.35097
# Poissons Ratio (z) = 0.19413 0.29315
#
# Static dielectric constant tensor:
#      x y z
#    x 1.573250 0.000000 0.000000 
#    y 0.000000 1.594200 0.000000 
#    z 0.000000 0.000000 1.610830 
# 
# From -- ./inp_files/14864.got.cif
#   From: 2010.05.17/outbox.cif.g08.bks.cpg/sg66_8_cif.got.tgz:14864.got - 2010.06.03 17:51:23.
