data_PCOD9499384
_publ_section_title
;
Structure prediction by ZEFSAII (Michael W. Deem and Ramdas Pophale) SiO2 
 PCOD9499384
Probable space group: C C C M
;
_chemical_formula_sum "Si O2"
_cell_formula_units_Z 96
_cell_length_a 11.261493
_cell_length_b 20.691589
_cell_length_c 21.262435
_cell_angle_alpha 90.000000
_cell_angle_beta 90.000000
_cell_angle_gamma 90.000000
_cell_volume 4954.534006
_symmetry_space_group_name_H-M "C C C M"
_symmetry_group_IT_number 66
_symmetry_cell_setting 'orthorhombic'
loop_
_space_group_symop_operation_xyz
x,y,z
-x,-y,z
x,-y,1/2-z
-x,y,1/2-z
-x,-y,-z
x,y,-z
-x,y,1/2+z
x,-y,1/2+z
1/2+x,1/2+y,z
1/2-x,1/2-y,z
1/2+x,1/2-y,1/2-z
1/2-x,1/2+y,1/2-z
1/2-x,1/2-y,-z
1/2+x,1/2+y,-z
1/2-x,1/2+y,1/2+z
1/2+x,1/2-y,1/2+z
loop_
_atom_site_type_symbol
_atom_site_label
_atom_site_fract_x
_atom_site_fract_y
_atom_site_fract_z
Si Si1 0.521229 0.684397 0.322664
Si Si2 0.773368 0.180100 0.607874
Si Si3 0.364197 0.590618 0.500000
Si Si4 0.234991 0.500000 0.750000
Si Si5 0.136243 0.936446 0.000000
Si Si6 0.890517 0.952705 0.364239
Si Si7 0.364998 0.858351 0.270787
Si Si8 0.250000 0.750000 0.185076
O O1 0.500000 0.700508 0.250000
O O2 0.395749 0.691865 0.355249
O O3 0.557082 0.609776 0.329854
O O4 0.629167 0.728000 0.348960
O O5 0.750000 0.250000 0.577412
O O6 0.802370 0.123469 0.559481
O O7 0.672296 0.159749 0.657936
O O8 0.507226 0.599017 0.500000
O O9 0.354276 0.514123 0.500000
O O10 0.312752 0.490353 0.686843
O O11 0.163888 0.566536 0.741442
O O12 0.176087 0.926106 0.927133
O O13 0.000000 0.000000 0.383451
O O14 0.500000 0.846934 0.250000
O O15 0.283930 0.811692 0.227799
#
# Coordination Sequence:
#
# PCOD9499384 Si02
#       8
#    16  16   8   8   8  16  16   8
#     4  12  21  36  59  92 124 164 207 256 323 386
#     4  12  22  39  61  90 125 165 213 261 317 390
#     4  11  21  36  58  89 123 164 213 260 321 373
#     4  12  24  38  62  94 120 165 209 262 314 382
#     4  11  20  36  58  89 128 167 191 264 326 380
#     4  12  20  36  60  93 127 152 204 258 317 373
#     4  12  24  41  60  88 126 162 206 261 322 379
#     4  12  22  38  58  90 126 164 200 250 324 386
#
# _framework density 19.376193000000001
#
# number of rings (size 3 to 8) (size 9 to 14) (size 15 to 20)
#    0.000    0.167    7.500    5.250    0.000    0.000 
#    0.000    0.000    0.000    3.000    0.000    3.500 
#    0.000    0.000    0.000    0.000    0.000    0.000 
#
# Total GULP energy -267783.456462 kJ/mol
# GULP energy per Si atom -5578.822010 kJ/mol
# Density = 1.933209 g / cm^3
# Si number density = 19.376193 Si / 1000 Ang^3
#
#
#
# Elastic Constant Matrix: (Units=GPa)
#
#
# Indices 1 2 3 4 5 6 
#
# 1 94.4157 29.0439 39.7323 0.0000 0.0000 0.0000
# 2 29.0439 121.1513 8.5267 0.0000 0.0000 0.0000
# 3 39.7323 8.5267 97.1644 0.0000 0.0000 0.0000
# 4 0.0000 0.0000 0.0000 383.6052 0.0000 0.0000
# 5 0.0000 0.0000 0.0000 0.0000 -5.5377 0.0000
# 6 0.0000 0.0000 0.0000 0.0000 0.0000 39.3892
#
#
#
# Elastic Compliance Matrix: (Units=1/GPa)
#
#
# Indices 1 2 3 4 5 6 
#
# 1 0.013747 -0.002918 -0.005365 0.000000 0.000000 0.000000
# 2 -0.002918 0.008925 0.000410 0.000000 0.000000 0.000000
# 3 -0.005365 0.000410 0.012450 0.000000 0.000000 0.000000
# 4 0.000000 0.000000 0.000000 0.002607 0.000000 0.000000
# 5 0.000000 0.000000 0.000000 0.000000 -0.180581 0.000000
# 6 0.000000 0.000000 0.000000 0.000000 0.000000 0.025388
#
#
# Mechanical properties :
#
#
# Convention : Reuss Voigt Hill
#
# Bulk Modulus (GPa) = 51.61278 51.92634 51.76956
# Shear Modulus (GPa) = -52.48789 99.18657 23.34934
#
# Velocity S-wave (km/s) = -5.21034 7.16248 3.47515
# Velocity P-wave (km/s) = 3.08251 9.76005 6.54816
#
# Compressibility (1/GPa) = 0.01937505
#
# Stress axis : x y z
#
# Youngs Moduli (GPa) = 72.74360 112.04717 80.32240
#
# Poissons Ratio (x) = 0.32695 0.43095
# Poissons Ratio (y) = 0.21226 -0.03293
# Poissons Ratio (z) = 0.39029 -0.04594
#
# Static dielectric constant tensor:
#      x y z
#    x 1.702290 0.000000 0.000000 
#    y 0.000000 1.690120 0.000000 
#    z 0.000000 0.000000 1.720090 
# 
# From -- ./inp_files/48861.got.cif
#   From: 2010.05.17/outbox.cif.g08.bks.cpg/sg66_25_cif.got.tgz:48861.got - 2010.06.03 17:51:23.
