data_PCOD9499830
_publ_section_title
;
Structure prediction by ZEFSAII (Michael W. Deem and Ramdas Pophale) SiO2 
 PCOD9499830
Probable space group: C C C M
;
_chemical_formula_sum "Si O2"
_cell_formula_units_Z 56
_cell_length_a 17.647247
_cell_length_b 13.559348
_cell_length_c 10.978222
_cell_angle_alpha 90.000000
_cell_angle_beta 90.000000
_cell_angle_gamma 90.000000
_cell_volume 2626.925644
_symmetry_space_group_name_H-M "C C C M"
_symmetry_group_IT_number 66
_symmetry_cell_setting 'orthorhombic'
loop_
_space_group_symop_operation_xyz
x,y,z
-x,-y,z
x,-y,1/2-z
-x,y,1/2-z
-x,-y,-z
x,y,-z
-x,y,1/2+z
x,-y,1/2+z
1/2+x,1/2+y,z
1/2-x,1/2-y,z
1/2+x,1/2-y,1/2-z
1/2-x,1/2+y,1/2-z
1/2-x,1/2-y,-z
1/2+x,1/2+y,-z
1/2-x,1/2+y,1/2+z
1/2+x,1/2-y,1/2+z
loop_
_atom_site_type_symbol
_atom_site_label
_atom_site_fract_x
_atom_site_fract_y
_atom_site_fract_z
Si Si1 0.585085 0.547436 0.000000
Si Si2 0.156692 0.730271 0.500000
Si Si3 0.169196 0.000000 0.750000
Si Si4 0.585491 0.119032 0.265239
Si Si5 0.275357 0.860165 0.127541
O O1 0.500000 0.500000 0.000000
O O2 0.620936 0.509662 0.127464
O O3 0.609220 0.665276 0.000000
O O4 0.250000 0.750000 0.500000
O O5 0.127519 0.665877 0.382996
O O6 0.227097 0.909830 0.766895
O O7 0.500000 0.154770 0.250000
O O8 0.636569 0.147283 0.151903
O O9 0.585191 0.000000 0.250000
O O10 0.250000 0.750000 0.119445
O O11 0.261272 0.914837 0.000000
#
# Coordination Sequence:
#
# PCOD9499830 Si02
#       5
#     8   8   8  16  16
#     4  12  28  46  77 108 159 203 263 322 397 465
#     4  12  28  51  78 112 154 214 268 323 405 498
#     4  12  23  48  71 108 146 202 256 314 385 474
#     4  11  26  43  74 108 148 193 251 325 386 464
#     4  11  24  42  71 104 142 193 251 309 381 463
#
# _framework density 21.317692999999998
#
# number of rings (size 3 to 8) (size 9 to 14) (size 15 to 20)
#    0.000    0.571    2.857    4.714    4.000    5.714 
#    0.000    0.000    0.000    0.000    0.000    0.000 
#    0.000    0.000    0.000    0.000    0.000    0.000 
#
# Total GULP energy -155998.579698 kJ/mol
# GULP energy per Si atom -5571.377846 kJ/mol
# Density = 2.126917 g / cm^3
# Si number density = 21.317693 Si / 1000 Ang^3
#
#
#
# Elastic Constant Matrix: (Units=GPa)
#
#
# Indices 1 2 3 4 5 6 
#
# 1 212.7698 58.7076 84.9427 0.0000 0.0000 0.0000
# 2 58.7076 88.7826 34.8632 0.0000 0.0000 0.0000
# 3 84.9427 34.8632 141.1659 0.0000 0.0000 0.0000
# 4 0.0000 0.0000 0.0000 56.2023 0.0000 0.0000
# 5 0.0000 0.0000 0.0000 0.0000 42.8218 0.0000
# 6 0.0000 0.0000 0.0000 0.0000 0.0000 443.4845
#
#
#
# Elastic Compliance Matrix: (Units=1/GPa)
#
#
# Indices 1 2 3 4 5 6 
#
# 1 0.006949 -0.003270 -0.003374 0.000000 0.000000 0.000000
# 2 -0.003270 0.014012 -0.001493 0.000000 0.000000 0.000000
# 3 -0.003374 -0.001493 0.009483 0.000000 0.000000 0.000000
# 4 0.000000 0.000000 0.000000 0.017793 0.000000 0.000000
# 5 0.000000 0.000000 0.000000 0.000000 0.023353 0.000000
# 6 0.000000 0.000000 0.000000 0.000000 0.000000 0.002255
#
#
# Mechanical properties :
#
#
# Convention : Reuss Voigt Hill
#
# Bulk Modulus (GPa) = 70.57042 88.86059 79.71550
# Shear Modulus (GPa) = 52.71965 126.11536 89.41751
#
# Velocity S-wave (km/s) = 4.97837 7.69989 6.48354
# Velocity P-wave (km/s) = 8.13766 10.99207 9.67076
#
# Compressibility (1/GPa) = 0.01417024
#
# Stress axis : x y z
#
# Youngs Moduli (GPa) = 143.90204 71.36683 105.45618
#
# Poissons Ratio (x) = 0.23339 0.35579
# Poissons Ratio (y) = 0.47060 0.15741
# Poissons Ratio (z) = 0.48550 0.10653
#
# Static dielectric constant tensor:
#      x y z
#    x 1.767250 0.000000 0.000000 
#    y 0.000000 1.675450 0.000000 
#    z 0.000000 0.000000 1.699520 
# 
# From -- ./inp_files/15668.got.cif
#   From: 2010.05.17/outbox.cif.g08.bks.cpg/sg66_8_cif.got.tgz:15668.got - 2010.06.03 17:51:23.
