data_PCOD9499009
_publ_section_title
;
Structure prediction by ZEFSAII (Michael W. Deem and Ramdas Pophale) SiO2 
 PCOD9499009
Probable space group: C C C M
;
_chemical_formula_sum "Si O2"
_cell_formula_units_Z 112
_cell_length_a 20.311005
_cell_length_b 15.254490
_cell_length_c 16.521579
_cell_angle_alpha 90.000000
_cell_angle_beta 90.000000
_cell_angle_gamma 90.000000
_cell_volume 5118.947282
_symmetry_space_group_name_H-M "C C C M"
_symmetry_group_IT_number 66
_symmetry_cell_setting 'orthorhombic'
loop_
_space_group_symop_operation_xyz
x,y,z
-x,-y,z
x,-y,1/2-z
-x,y,1/2-z
-x,-y,-z
x,y,-z
-x,y,1/2+z
x,-y,1/2+z
1/2+x,1/2+y,z
1/2-x,1/2-y,z
1/2+x,1/2-y,1/2-z
1/2-x,1/2+y,1/2-z
1/2-x,1/2-y,-z
1/2+x,1/2+y,-z
1/2-x,1/2+y,1/2+z
1/2+x,1/2-y,1/2+z
loop_
_atom_site_type_symbol
_atom_site_label
_atom_site_fract_x
_atom_site_fract_y
_atom_site_fract_z
Si Si1 0.221011 0.989762 0.905354
Si Si2 0.929174 0.367631 0.707115
Si Si3 0.386840 0.190696 0.374866
Si Si4 0.972555 0.218429 0.405290
Si Si5 0.129750 0.492729 0.913060
Si Si6 0.800446 0.817097 0.690725
Si Si7 0.103669 0.919071 0.692711
O O1 0.293598 0.032591 0.902588
O O2 0.228677 0.904906 0.848052
O O3 0.160279 0.044877 0.868540
O O4 0.208458 0.969182 0.000000
O O5 0.884059 0.336651 0.780230
O O6 0.929978 0.294331 0.637306
O O7 0.910072 0.455826 0.662085
O O8 0.000000 0.373397 0.750000
O O9 0.453699 0.242973 0.394726
O O10 0.378642 0.097525 0.416281
O O11 0.329460 0.260565 0.383703
O O12 0.959173 0.206205 0.500000
O O13 0.954387 0.130734 0.355100
O O14 0.105833 0.457716 0.000000
O O15 0.750000 0.750000 0.732229
O O16 0.858662 0.850875 0.748595
O O17 0.082660 0.000000 0.750000
#
# Coordination Sequence:
#
# PCOD9499009 Si02
#       7
#    16  16  16  16  16  16  16
#     4  10  23  40  63  94 133 170 212 272 334 395
#     4  10  23  41  63  94 127 171 214 263 326 388
#     4  11  23  40  65  93 128 173 221 271 324 392
#     4  11  23  42  67  96 131 171 218 272 327 396
#     4  11  23  40  62  97 135 172 216 271 335 397
#     4  11  22  40  65  94 125 167 220 271 324 387
#     4  10  23  42  67  97 130 175 219 272 332 400
#
# _framework density 21.879497000000001
#
# number of rings (size 3 to 8) (size 9 to 14) (size 15 to 20)
#    0.000    1.429    2.857    1.714    2.000    6.571 
#    0.000    8.571    0.000    7.714    0.000    0.000 
#    0.000    0.000    0.000    0.000    0.000    0.000 
#
# Total GULP energy -312668.605130 kJ/mol
# GULP energy per Si atom -5583.367949 kJ/mol
# Density = 2.182970 g / cm^3
# Si number density = 21.879497 Si / 1000 Ang^3
#
#
#
# Elastic Constant Matrix: (Units=GPa)
#
#
# Indices 1 2 3 4 5 6 
#
# 1 47.9319 25.1016 23.2153 0.0000 0.0000 0.0000
# 2 25.1016 84.3479 32.2028 0.0000 0.0000 0.0000
# 3 23.2153 32.2028 134.4341 0.0000 0.0000 0.0000
# 4 0.0000 0.0000 0.0000 26.8134 0.0000 0.0000
# 5 0.0000 0.0000 0.0000 0.0000 14.0519 0.0000
# 6 0.0000 0.0000 0.0000 0.0000 0.0000 29.7447
#
#
#
# Elastic Compliance Matrix: (Units=1/GPa)
#
#
# Indices 1 2 3 4 5 6 
#
# 1 0.025680 -0.006548 -0.002866 0.000000 0.000000 0.000000
# 2 -0.006548 0.014719 -0.002395 0.000000 0.000000 0.000000
# 3 -0.002866 -0.002395 0.008507 0.000000 0.000000 0.000000
# 4 0.000000 0.000000 0.000000 0.037295 0.000000 0.000000
# 5 0.000000 0.000000 0.000000 0.000000 0.071165 0.000000
# 6 0.000000 0.000000 0.000000 0.000000 0.000000 0.033619
#
#
# Mechanical properties :
#
#
# Convention : Reuss Voigt Hill
#
# Bulk Modulus (GPa) = 39.54477 47.52816 43.53647
# Shear Modulus (GPa) = 22.41820 26.53494 24.47657
#
# Velocity S-wave (km/s) = 3.20444 3.48627 3.34832
# Velocity P-wave (km/s) = 5.63954 6.16241 5.90676
#
# Compressibility (1/GPa) = 0.02528779
#
# Stress axis : x y z
#
# Youngs Moduli (GPa) = 38.94031 67.94068 117.54678
#
# Poissons Ratio (x) = 0.44488 0.33691
# Poissons Ratio (y) = 0.25499 0.28152
# Poissons Ratio (z) = 0.11161 0.16272
#
# Static dielectric constant tensor:
#      x y z
#    x 1.863370 0.000000 0.000000 
#    y 0.000000 1.826100 0.000000 
#    z 0.000000 0.000000 1.799080 
# 
# From -- ./inp_files/32447.got.cif
#   From: 2010.05.17/outbox.cif.g08.bks.cpg/sg66_17_cif.got.tgz:32447.got - 2010.06.03 17:51:23.
