data_PCOD9499294
_publ_section_title
;
Structure prediction by ZEFSAII (Michael W. Deem and Ramdas Pophale) SiO2 
 PCOD9499294
Probable space group: C C C M
;
_chemical_formula_sum "Si O2"
_cell_formula_units_Z 28
_cell_length_a 8.766771
_cell_length_b 4.919661
_cell_length_c 27.183584
_cell_angle_alpha 90.000000
_cell_angle_beta 90.000000
_cell_angle_gamma 90.000000
_cell_volume 1172.415511
_symmetry_space_group_name_H-M "C C C M"
_symmetry_group_IT_number 66
_symmetry_cell_setting 'orthorhombic'
loop_
_space_group_symop_operation_xyz
x,y,z
-x,-y,z
x,-y,1/2-z
-x,y,1/2-z
-x,-y,-z
x,y,-z
-x,y,1/2+z
x,-y,1/2+z
1/2+x,1/2+y,z
1/2-x,1/2-y,z
1/2+x,1/2-y,1/2-z
1/2-x,1/2+y,1/2-z
1/2-x,1/2-y,-z
1/2+x,1/2+y,-z
1/2-x,1/2+y,1/2+z
1/2+x,1/2-y,1/2+z
loop_
_atom_site_type_symbol
_atom_site_label
_atom_site_fract_x
_atom_site_fract_y
_atom_site_fract_z
Si Si1 0.500000 0.500000 0.644930
Si Si2 0.250000 0.750000 0.076738
Si Si3 0.250000 0.250000 0.785315
Si Si4 0.750000 0.250000 0.500000
O O1 0.604633 0.688649 0.610628
O O2 0.389353 0.670589 0.679815
O O3 0.228553 0.486583 0.042596
O O4 0.211926 0.500000 0.750000
#
# Coordination Sequence:
#
# PCOD9499294 Si02
#       4
#     8   8   8   4
#     4  12  29  51  80 114 154 204 256 315 383 456
#     4  11  27  48  77 111 154 199 253 312 381 451
#     4  12  30  52  79 115 156 203 257 318 382 454
#     4  10  26  48  76 112 152 198 252 314 378 452
#
# _framework density 23.882318999999999
#
# number of rings (size 3 to 8) (size 9 to 14) (size 15 to 20)
#    0.000    0.571    0.000    4.286    0.000   34.286 
#    0.000    0.000    0.000    0.000    0.000    0.000 
#    0.000    0.000    0.000    0.000    0.000    0.000 
#
# Total GULP energy -78128.662486 kJ/mol
# GULP energy per Si atom -5580.618749 kJ/mol
# Density = 2.382796 g / cm^3
# Si number density = 23.882319 Si / 1000 Ang^3
#
#
#
# Elastic Constant Matrix: (Units=GPa)
#
#
# Indices 1 2 3 4 5 6 
#
# 1 190.5482 98.0749 139.0645 0.0000 0.0000 0.0000
# 2 98.0749 268.5820 152.5813 0.0000 0.0000 0.0000
# 3 139.0645 152.5813 259.2261 0.0000 0.0000 0.0000
# 4 0.0000 0.0000 0.0000 26.5633 0.0000 0.0000
# 5 0.0000 0.0000 0.0000 0.0000 -31.9175 0.0000
# 6 0.0000 0.0000 0.0000 0.0000 0.0000 38.9420
#
#
#
# Elastic Compliance Matrix: (Units=1/GPa)
#
#
# Indices 1 2 3 4 5 6 
#
# 1 0.008736 -0.000793 -0.004220 0.000000 0.000000 0.000000
# 2 -0.000793 0.005666 -0.002910 0.000000 0.000000 0.000000
# 3 -0.004220 -0.002910 0.007834 0.000000 0.000000 0.000000
# 4 0.000000 0.000000 0.000000 0.037646 0.000000 0.000000
# 5 0.000000 0.000000 0.000000 0.000000 -0.031331 0.000000
# 6 0.000000 0.000000 0.000000 0.000000 0.000000 0.025679
#
#
# Mechanical properties :
#
#
# Convention : Reuss Voigt Hill
#
# Bulk Modulus (GPa) = 156.46425 166.42196 161.44310
# Shear Modulus (GPa) = 69.24825 28.62660 48.93742
#
# Velocity S-wave (km/s) = 5.39060 3.46591 4.53162
# Velocity P-wave (km/s) = 10.21771 9.26564 9.75330
#
# Compressibility (1/GPa) = 0.00639124
#
# Stress axis : x y z
#
# Youngs Moduli (GPa) = 114.47373 176.50283 127.64928
#
# Poissons Ratio (x) = 0.13990 0.53865
# Poissons Ratio (y) = 0.09074 0.37141
# Poissons Ratio (z) = 0.48305 0.51355
#
# Static dielectric constant tensor:
#      x y z
#    x 1.958660 0.000000 0.000000 
#    y 0.000000 1.864070 0.000000 
#    z 0.000000 0.000000 1.845670 
# 
# From -- ./inp_files/60601.got.cif
#   From: 2010.05.17/outbox.cif.g08.bks.cpg/sg66_31_cif.got.tgz:60601.got - 2010.06.03 17:51:23.
