data_PCOD9499531
_publ_section_title
;
Structure prediction by ZEFSAII (Michael W. Deem and Ramdas Pophale) SiO2 
 PCOD9499531
Probable space group: C C C M
;
_chemical_formula_sum "Si O2"
_cell_formula_units_Z 60
_cell_length_a 7.842683
_cell_length_b 23.865527
_cell_length_c 16.284142
_cell_angle_alpha 90.000000
_cell_angle_beta 90.000000
_cell_angle_gamma 90.000000
_cell_volume 3047.898997
_symmetry_space_group_name_H-M "C C C M"
_symmetry_group_IT_number 66
_symmetry_cell_setting 'orthorhombic'
loop_
_space_group_symop_operation_xyz
x,y,z
-x,-y,z
x,-y,1/2-z
-x,y,1/2-z
-x,-y,-z
x,y,-z
-x,y,1/2+z
x,-y,1/2+z
1/2+x,1/2+y,z
1/2-x,1/2-y,z
1/2+x,1/2-y,1/2-z
1/2-x,1/2+y,1/2-z
1/2-x,1/2-y,-z
1/2+x,1/2+y,-z
1/2-x,1/2+y,1/2+z
1/2+x,1/2-y,1/2+z
loop_
_atom_site_type_symbol
_atom_site_label
_atom_site_fract_x
_atom_site_fract_y
_atom_site_fract_z
Si Si1 0.809925 0.017853 0.000000
Si Si2 0.118557 0.399786 0.000000
Si Si3 0.500000 0.000000 0.250000
Si Si4 0.115646 0.800531 0.832163
Si Si5 0.336589 0.091855 0.363562
Si Si6 0.888243 0.199038 0.500000
O O1 0.782530 0.058145 0.075683
O O2 0.683311 0.964341 0.000000
O O3 0.000000 0.000000 0.000000
O O4 0.276948 0.357861 0.000000
O O5 0.999826 0.390399 0.080419
O O6 0.609542 0.956314 0.301474
O O7 0.250000 0.750000 0.834848
O O8 0.232670 0.856205 0.828582
O O9 0.000000 0.796981 0.750000
O O10 0.003446 0.799384 0.916697
O O11 0.750000 0.250000 0.500000
#
# Coordination Sequence:
#
# PCOD9499531 Si02
#       6
#     8   8   4  16  16   8
#     4  11  21  41  65  97 133 178 223 278 341 412
#     4  11  21  43  69  97 133 182 225 284 347 407
#     4  12  24  38  70  96 136 182 218 286 340 402
#     4  12  28  47  70 104 138 183 233 290 345 413
#     4  11  24  42  66  99 136 178 233 279 347 408
#     4  12  25  46  73 101 134 185 229 288 351 410
#
# _framework density 19.685692
#
# number of rings (size 3 to 8) (size 9 to 14) (size 15 to 20)
#    0.000    0.533    2.667    6.800    5.600    2.133 
#    0.000    0.000    0.000    0.000    0.000    0.000 
#    0.000    0.000    0.000    0.000    0.000    0.000 
#
# Total GULP energy -167568.936216 kJ/mol
# GULP energy per Si atom -5585.631207 kJ/mol
# Density = 1.964089 g / cm^3
# Si number density = 19.685692 Si / 1000 Ang^3
#
#
#
# Elastic Constant Matrix: (Units=GPa)
#
#
# Indices 1 2 3 4 5 6 
#
# 1 144.4120 82.2450 81.4717 0.0000 0.0000 0.0000
# 2 82.2450 168.7812 64.0783 0.0000 0.0000 0.0000
# 3 81.4717 64.0783 149.9127 0.0000 0.0000 0.0000
# 4 0.0000 0.0000 0.0000 30.1664 0.0000 0.0000
# 5 0.0000 0.0000 0.0000 0.0000 140.0758 0.0000
# 6 0.0000 0.0000 0.0000 0.0000 0.0000 57.0829
#
#
#
# Elastic Compliance Matrix: (Units=1/GPa)
#
#
# Indices 1 2 3 4 5 6 
#
# 1 0.011872 -0.003982 -0.004750 0.000000 0.000000 0.000000
# 2 -0.003982 0.008408 -0.001430 0.000000 0.000000 0.000000
# 3 -0.004750 -0.001430 0.009863 0.000000 0.000000 0.000000
# 4 0.000000 0.000000 0.000000 0.033149 0.000000 0.000000
# 5 0.000000 0.000000 0.000000 0.000000 0.007139 0.000000
# 6 0.000000 0.000000 0.000000 0.000000 0.000000 0.017518
#
#
# Mechanical properties :
#
#
# Convention : Reuss Voigt Hill
#
# Bulk Modulus (GPa) = 101.83548 102.07733 101.95641
# Shear Modulus (GPa) = 44.82415 61.15243 52.98829
#
# Velocity S-wave (km/s) = 4.77696 5.57959 5.19380
# Velocity P-wave (km/s) = 9.07022 9.66826 9.37401
#
# Compressibility (1/GPa) = 0.00981976
#
# Stress axis : x y z
#
# Youngs Moduli (GPa) = 84.23100 118.93468 101.38652
#
# Poissons Ratio (x) = 0.47357 0.48159
# Poissons Ratio (y) = 0.33539 0.14498
# Poissons Ratio (z) = 0.40010 0.17007
#
# Static dielectric constant tensor:
#      x y z
#    x 1.550180 0.000000 0.000000 
#    y 0.000000 1.676790 0.000000 
#    z 0.000000 0.000000 1.651070 
# 
# From -- ./inp_files/36438.got.cif
#   From: 2010.05.17/outbox.cif.g08.bks.cpg/sg66_19_cif.got.tgz:36438.got - 2010.06.03 17:51:23.
