data_PCOD9499906
_publ_section_title
;
Structure prediction by ZEFSAII (Michael W. Deem and Ramdas Pophale) SiO2 
 PCOD9499906
Probable space group: C C C M
;
_chemical_formula_sum "Si O2"
_cell_formula_units_Z 64
_cell_length_a 10.444570
_cell_length_b 15.815431
_cell_length_c 16.836403
_cell_angle_alpha 90.000000
_cell_angle_beta 90.000000
_cell_angle_gamma 90.000000
_cell_volume 2781.127563
_symmetry_space_group_name_H-M "C C C M"
_symmetry_group_IT_number 66
_symmetry_cell_setting 'orthorhombic'
loop_
_space_group_symop_operation_xyz
x,y,z
-x,-y,z
x,-y,1/2-z
-x,y,1/2-z
-x,-y,-z
x,y,-z
-x,y,1/2+z
x,-y,1/2+z
1/2+x,1/2+y,z
1/2-x,1/2-y,z
1/2+x,1/2-y,1/2-z
1/2-x,1/2+y,1/2-z
1/2-x,1/2-y,-z
1/2+x,1/2+y,-z
1/2-x,1/2+y,1/2+z
1/2+x,1/2-y,1/2+z
loop_
_atom_site_type_symbol
_atom_site_label
_atom_site_fract_x
_atom_site_fract_y
_atom_site_fract_z
Si Si1 0.791544 0.038109 0.591161
Si Si2 0.876942 0.880464 0.691681
Si Si3 0.872860 0.368118 0.300074
Si Si4 0.549441 0.285663 0.590762
O O1 0.778215 0.011220 0.500000
O O2 0.660296 0.059571 0.636087
O O3 0.871098 0.126224 0.591053
O O4 0.859302 0.966995 0.643471
O O5 0.749275 0.864272 0.741734
O O6 0.000000 0.883603 0.750000
O O7 0.912036 0.809040 0.627535
O O8 0.890632 0.283063 0.350995
O O9 0.000000 0.383024 0.250000
O O10 0.546429 0.255433 0.500000
#
# Coordination Sequence:
#
# PCOD9499906 Si02
#       4
#    16  16  16  16
#     4  11  25  46  74 109 144 189 244 308 364 425
#     4  12  26  45  75 111 141 191 252 308 350 419
#     4  12  28  45  71 107 153 197 238 294 369 441
#     4  11  25  45  73 109 144 190 243 306 364 426
#
# _framework density 23.012249000000001
#
# number of rings (size 3 to 8) (size 9 to 14) (size 15 to 20)
#    0.000    0.500    2.500    4.500    7.000    6.000 
#    0.000    7.500    0.000    0.000    0.000    0.000 
#    0.000    0.000    0.000    0.000    0.000    0.000 
#
# Total GULP energy -179338.226405 kJ/mol
# GULP energy per Si atom -5604.319575 kJ/mol
# Density = 2.295987 g / cm^3
# Si number density = 23.012249 Si / 1000 Ang^3
#
#
#
# Elastic Constant Matrix: (Units=GPa)
#
#
# Indices 1 2 3 4 5 6 
#
# 1 160.0724 42.7017 96.6378 0.0000 0.0000 0.0000
# 2 42.7017 84.5079 51.9347 0.0000 0.0000 0.0000
# 3 96.6378 51.9347 196.5672 0.0000 0.0000 0.0000
# 4 0.0000 0.0000 0.0000 28.7300 0.0000 0.0000
# 5 0.0000 0.0000 0.0000 0.0000 10.7668 0.0000
# 6 0.0000 0.0000 0.0000 0.0000 0.0000 34.4061
#
#
#
# Elastic Compliance Matrix: (Units=1/GPa)
#
#
# Indices 1 2 3 4 5 6 
#
# 1 0.009225 -0.002238 -0.003944 0.000000 0.000000 0.000000
# 2 -0.002238 0.014670 -0.002776 0.000000 0.000000 0.000000
# 3 -0.003944 -0.002776 0.007760 0.000000 0.000000 0.000000
# 4 0.000000 0.000000 0.000000 0.034807 0.000000 0.000000
# 5 0.000000 0.000000 0.000000 0.000000 0.092878 0.000000
# 6 0.000000 0.000000 0.000000 0.000000 0.000000 0.029065
#
#
# Mechanical properties :
#
#
# Convention : Reuss Voigt Hill
#
# Bulk Modulus (GPa) = 72.78233 91.52177 82.15205
# Shear Modulus (GPa) = 23.70800 31.43880 27.57340
#
# Velocity S-wave (km/s) = 3.21321 3.70019 3.46527
# Velocity P-wave (km/s) = 6.74259 7.62315 7.19635
#
# Compressibility (1/GPa) = 0.01373960
#
# Stress axis : x y z
#
# Youngs Moduli (GPa) = 108.39832 68.16754 128.86962
#
# Poissons Ratio (x) = 0.15253 0.50829
# Poissons Ratio (y) = 0.24255 0.35772
# Poissons Ratio (z) = 0.42754 0.18922
#
# Static dielectric constant tensor:
#      x y z
#    x 1.887570 0.000000 0.000000 
#    y 0.000000 1.916020 0.000000 
#    z 0.000000 0.000000 1.868970 
# 
# From -- ./inp_files/37999.got.cif
#   From: 2010.05.17/outbox.cif.g08.bks.cpg/sg66_19_cif.got.tgz:37999.got - 2010.06.03 17:51:23.
