data_PCOD9499176
_publ_section_title
;
Structure prediction by ZEFSAII (Michael W. Deem and Ramdas Pophale) SiO2 
 PCOD9499176
Probable space group: C C C M
;
_chemical_formula_sum "Si O2"
_cell_formula_units_Z 56
_cell_length_a 19.801269
_cell_length_b 5.089038
_cell_length_c 23.666818
_cell_angle_alpha 90.000000
_cell_angle_beta 90.000000
_cell_angle_gamma 90.000000
_cell_volume 2384.891296
_symmetry_space_group_name_H-M "C C C M"
_symmetry_group_IT_number 66
_symmetry_cell_setting 'orthorhombic'
loop_
_space_group_symop_operation_xyz
x,y,z
-x,-y,z
x,-y,1/2-z
-x,y,1/2-z
-x,-y,-z
x,y,-z
-x,y,1/2+z
x,-y,1/2+z
1/2+x,1/2+y,z
1/2-x,1/2-y,z
1/2+x,1/2-y,1/2-z
1/2-x,1/2+y,1/2-z
1/2-x,1/2-y,-z
1/2+x,1/2+y,-z
1/2-x,1/2+y,1/2+z
1/2+x,1/2-y,1/2+z
loop_
_atom_site_type_symbol
_atom_site_label
_atom_site_fract_x
_atom_site_fract_y
_atom_site_fract_z
Si Si1 0.500000 0.000000 0.845224
Si Si2 0.914463 0.228219 0.937863
Si Si3 0.630865 0.237883 0.287076
Si Si4 0.326430 0.770359 0.412512
O O1 0.534244 0.212356 0.887079
O O2 0.442839 0.139236 0.808155
O O3 0.857305 0.449710 0.928793
O O4 0.877495 0.950424 0.934636
O O5 0.945775 0.258219 0.000000
O O6 0.626657 0.500000 0.250000
O O7 0.671568 0.270513 0.344843
O O8 0.660072 0.000000 0.250000
O O9 0.250000 0.750000 0.432703
#
# Coordination Sequence:
#
# PCOD9499176 Si02
#       4
#     8  16  16  16
#     4  10  24  42  64  96 130 162 212 264 316 388
#     4  11  24  42  66  93 126 167 207 260 321 376
#     4  11  24  41  64  91 124 165 205 255 315 372
#     4  11  25  43  63  93 127 163 214 262 308 377
#
# _framework density 23.481155999999999
#
# number of rings (size 3 to 8) (size 9 to 14) (size 15 to 20)
#    0.000    1.143    0.000    6.000    0.000   18.286 
#    0.000    7.143    0.000    0.000    0.000    0.000 
#    0.000    0.000    0.000    0.000    0.000    0.000 
#
# Total GULP energy -156952.903993 kJ/mol
# GULP energy per Si atom -5605.460857 kJ/mol
# Density = 2.342771 g / cm^3
# Si number density = 23.481156 Si / 1000 Ang^3
#
#
#
# Elastic Constant Matrix: (Units=GPa)
#
#
# Indices 1 2 3 4 5 6 
#
# 1 67.1549 -3.1730 -6.5620 0.0000 0.0000 0.0000
# 2 -3.1730 52.2507 25.0692 0.0000 0.0000 0.0000
# 3 -6.5620 25.0692 153.9871 0.0000 0.0000 0.0000
# 4 0.0000 0.0000 0.0000 60.4024 0.0000 0.0000
# 5 0.0000 0.0000 0.0000 0.0000 8.6859 0.0000
# 6 0.0000 0.0000 0.0000 0.0000 0.0000 20.1412
#
#
#
# Elastic Compliance Matrix: (Units=1/GPa)
#
#
# Indices 1 2 3 4 5 6 
#
# 1 0.014974 0.000654 0.000532 0.000000 0.000000 0.000000
# 2 0.000654 0.020789 -0.003357 0.000000 0.000000 0.000000
# 3 0.000532 -0.003357 0.007063 0.000000 0.000000 0.000000
# 4 0.000000 0.000000 0.000000 0.016556 0.000000 0.000000
# 5 0.000000 0.000000 0.000000 0.000000 0.115130 0.000000
# 6 0.000000 0.000000 0.000000 0.000000 0.000000 0.049650
#
#
# Mechanical properties :
#
#
# Convention : Reuss Voigt Hill
#
# Bulk Modulus (GPa) = 25.98467 33.78457 29.88462
# Shear Modulus (GPa) = 20.71852 35.04977 27.88414
#
# Velocity S-wave (km/s) = 2.97365 3.86771 3.44977
# Velocity P-wave (km/s) = 4.78334 5.86215 5.35001
#
# Compressibility (1/GPa) = 0.03848423
#
# Stress axis : x y z
#
# Youngs Moduli (GPa) = 66.78326 48.10313 141.57985
#
# Poissons Ratio (x) = -0.03147 -0.07526
# Poissons Ratio (y) = -0.04369 0.47522
# Poissons Ratio (z) = -0.03550 0.16146
#
# Static dielectric constant tensor:
#      x y z
#    x 1.855900 0.000000 0.000000 
#    y 0.000000 1.832150 0.000000 
#    z 0.000000 0.000000 1.913780 
# 
# From -- ./inp_files/53876.got.cif
#   From: 2010.05.17/outbox.cif.g08.bks.cpg/sg66_27_cif.got.tgz:53876.got - 2010.06.03 17:51:23.
