data_PCOD9499475
_publ_section_title
;
Structure prediction by ZEFSAII (Michael W. Deem and Ramdas Pophale) SiO2 
 PCOD9499475
Probable space group: C C C M
;
_chemical_formula_sum "Si O2"
_cell_formula_units_Z 112
_cell_length_a 10.856724
_cell_length_b 30.693144
_cell_length_c 14.568720
_cell_angle_alpha 90.000000
_cell_angle_beta 90.000000
_cell_angle_gamma 90.000000
_cell_volume 4854.690759
_symmetry_space_group_name_H-M "C C C M"
_symmetry_group_IT_number 66
_symmetry_cell_setting 'orthorhombic'
loop_
_space_group_symop_operation_xyz
x,y,z
-x,-y,z
x,-y,1/2-z
-x,y,1/2-z
-x,-y,-z
x,y,-z
-x,y,1/2+z
x,-y,1/2+z
1/2+x,1/2+y,z
1/2-x,1/2-y,z
1/2+x,1/2-y,1/2-z
1/2-x,1/2+y,1/2-z
1/2-x,1/2-y,-z
1/2+x,1/2+y,-z
1/2-x,1/2+y,1/2+z
1/2+x,1/2-y,1/2+z
loop_
_atom_site_type_symbol
_atom_site_label
_atom_site_fract_x
_atom_site_fract_y
_atom_site_fract_z
Si Si1 0.526421 0.333661 0.897736
Si Si2 0.785759 0.469293 0.893987
Si Si3 0.360474 0.886469 0.221661
Si Si4 0.017947 0.065197 0.358455
Si Si5 0.748606 0.300852 0.197491
Si Si6 0.754604 0.698106 0.097104
Si Si7 0.262365 0.065752 0.104277
O O1 0.543583 0.384754 0.883073
O O2 0.605625 0.311127 0.819283
O O3 0.383078 0.321275 0.896951
O O4 0.572791 0.321171 0.000000
O O5 0.845400 0.430741 0.836160
O O6 0.637455 0.461923 0.886347
O O7 0.816812 0.518878 0.866068
O O8 0.820601 0.465058 0.000000
O O9 0.500000 0.879340 0.250000
O O10 0.312567 0.845310 0.160764
O O11 0.287667 0.898238 0.317418
O O12 0.000000 0.060042 0.250000
O O13 0.884100 0.057427 0.400134
O O14 0.750000 0.250000 0.168712
O O15 0.804874 0.305250 0.300134
O O16 0.750000 0.750000 0.088205
O O17 0.810551 0.681747 0.000000
O O18 0.303017 0.076662 0.000000
#
# Coordination Sequence:
#
# PCOD9499475 Si02
#       7
#    16  16  16  16  16  16  16
#     4  11  21  36  61  91 130 174 215 272 341 403
#     4  11  24  43  68  99 140 180 219 275 347 417
#     4  12  27  46  67  95 133 182 233 286 337 402
#     4  12  21  36  66 103 137 173 217 274 343 410
#     4  11  24  42  65  91 123 169 228 283 337 402
#     4   9  19  35  58  89 123 158 205 267 335 399
#     4  11  24  42  68 103 136 174 224 279 341 416
#
# _framework density 23.070471000000001
#
# number of rings (size 3 to 8) (size 9 to 14) (size 15 to 20)
#    0.000    1.000    2.857    4.286    0.000    7.714 
#    0.000    1.429    0.000    0.000    0.000    0.000 
#    0.000    0.000    0.000    0.000    0.000    0.000 
#
# Total GULP energy -312299.671479 kJ/mol
# GULP energy per Si atom -5576.779848 kJ/mol
# Density = 2.301796 g / cm^3
# Si number density = 23.070471 Si / 1000 Ang^3
#
#
#
# Elastic Constant Matrix: (Units=GPa)
#
#
# Indices 1 2 3 4 5 6 
#
# 1 55.2727 24.0074 -15.1518 0.0000 0.0000 0.0000
# 2 24.0074 169.7718 4.4296 0.0000 0.0000 0.0000
# 3 -15.1518 4.4296 73.1063 0.0000 0.0000 0.0000
# 4 0.0000 0.0000 0.0000 29.2360 0.0000 0.0000
# 5 0.0000 0.0000 0.0000 0.0000 13.5407 0.0000
# 6 0.0000 0.0000 0.0000 0.0000 0.0000 14.1478
#
#
#
# Elastic Compliance Matrix: (Units=1/GPa)
#
#
# Indices 1 2 3 4 5 6 
#
# 1 0.020633 -0.003034 0.004460 0.000000 0.000000 0.000000
# 2 -0.003034 0.006346 -0.001013 0.000000 0.000000 0.000000
# 3 0.004460 -0.001013 0.014664 0.000000 0.000000 0.000000
# 4 0.000000 0.000000 0.000000 0.034204 0.000000 0.000000
# 5 0.000000 0.000000 0.000000 0.000000 0.073851 0.000000
# 6 0.000000 0.000000 0.000000 0.000000 0.000000 0.070682
#
#
# Mechanical properties :
#
#
# Convention : Reuss Voigt Hill
#
# Bulk Modulus (GPa) = 23.54701 36.08015 29.81358
# Shear Modulus (GPa) = 21.39392 30.37595 25.88493
#
# Velocity S-wave (km/s) = 3.04851 3.63252 3.35325
# Velocity P-wave (km/s) = 4.75604 5.76772 5.28614
#
# Compressibility (1/GPa) = 0.04246824
#
# Stress axis : x y z
#
# Youngs Moduli (GPa) = 48.46712 157.58604 68.19197
#
# Poissons Ratio (x) = 0.47812 -0.30414
# Poissons Ratio (y) = 0.14705 0.06910
# Poissons Ratio (z) = -0.21617 0.15968
#
# Static dielectric constant tensor:
#      x y z
#    x 1.861400 0.000000 0.000000 
#    y 0.000000 1.876320 0.000000 
#    z 0.000000 0.000000 1.992730 
# 
# From -- ./inp_files/26960.got.cif
#   From: 2010.05.17/outbox.cif.g08.bks.cpg/sg66_14_cif.got.tgz:26960.got - 2010.06.03 17:51:23.
