data_PCOD9499934
_publ_section_title
;
Structure prediction by ZEFSAII (Michael W. Deem and Ramdas Pophale) SiO2 
 PCOD9499934
Probable space group: C C C M
;
_chemical_formula_sum "Si O2"
_cell_formula_units_Z 88
_cell_length_a 12.741371
_cell_length_b 23.292481
_cell_length_c 14.823078
_cell_angle_alpha 90.000000
_cell_angle_beta 90.000000
_cell_angle_gamma 90.000000
_cell_volume 4399.165547
_symmetry_space_group_name_H-M "C C C M"
_symmetry_group_IT_number 66
_symmetry_cell_setting 'orthorhombic'
loop_
_space_group_symop_operation_xyz
x,y,z
-x,-y,z
x,-y,1/2-z
-x,y,1/2-z
-x,-y,-z
x,y,-z
-x,y,1/2+z
x,-y,1/2+z
1/2+x,1/2+y,z
1/2-x,1/2-y,z
1/2+x,1/2-y,1/2-z
1/2-x,1/2+y,1/2-z
1/2-x,1/2-y,-z
1/2+x,1/2+y,-z
1/2-x,1/2+y,1/2+z
1/2+x,1/2-y,1/2+z
loop_
_atom_site_type_symbol
_atom_site_label
_atom_site_fract_x
_atom_site_fract_y
_atom_site_fract_z
Si Si1 0.344297 0.296269 0.000000
Si Si2 0.977444 0.224686 0.144109
Si Si3 0.123668 0.992328 0.143378
Si Si4 0.431139 0.855741 0.840125
Si Si5 0.267645 0.573541 0.500000
Si Si6 0.018600 0.432408 0.000000
Si Si7 0.793934 0.134372 0.103393
O O1 0.250000 0.250000 0.000000
O O2 0.419585 0.288703 0.913716
O O3 0.304587 0.361140 0.000000
O O4 0.949570 0.290899 0.125833
O O5 0.882201 0.182388 0.119461
O O6 0.000000 0.218367 0.250000
O O7 0.156608 0.928447 0.114973
O O8 0.141330 0.000000 0.250000
O O9 0.000000 0.000000 0.125201
O O10 0.188028 0.038630 0.085852
O O11 0.500000 0.862834 0.750000
O O12 0.468916 0.901985 0.912832
O O13 0.305631 0.860981 0.830452
O O14 0.142899 0.575394 0.500000
O O15 0.000000 0.500000 0.000000
O O16 0.755655 0.140422 0.000000
#
# Coordination Sequence:
#
# PCOD9499934 Si02
#       7
#     8  16  16  16   8   8  16
#     4  12  26  44  72 104 147 190 236 292 364 426
#     4  11  26  44  71 105 142 185 236 289 353 425
#     4  11  26  44  68  99 139 176 228 288 348 418
#     4  11  26  47  69 102 140 180 233 291 348 418
#     4  12  25  44  68  98 137 182 228 284 349 420
#     4  12  26  46  70  98 137 180 234 286 348 420
#     4  12  24  44  74 101 136 185 238 287 353 418
#
# _framework density 20.003793999999999
#
# number of rings (size 3 to 8) (size 9 to 14) (size 15 to 20)
#    0.000    0.545    2.727    4.636    7.636    4.000 
#    0.000    0.000    0.000    0.000    0.000    0.000 
#    0.000    0.000    0.000    0.000    0.000    0.000 
#
# Total GULP energy -246272.193057 kJ/mol
# GULP energy per Si atom -5597.095297 kJ/mol
# Density = 1.995826 g / cm^3
# Si number density = 20.003794 Si / 1000 Ang^3
#
#
#
# Elastic Constant Matrix: (Units=GPa)
#
#
# Indices 1 2 3 4 5 6 
#
# 1 163.3692 79.8092 49.1692 0.0000 0.0000 0.0000
# 2 79.8092 202.2693 53.6936 0.0000 0.0000 0.0000
# 3 49.1692 53.6936 92.8634 0.0000 0.0000 0.0000
# 4 0.0000 0.0000 0.0000 27.5398 0.0000 0.0000
# 5 0.0000 0.0000 0.0000 0.0000 34.3179 0.0000
# 6 0.0000 0.0000 0.0000 0.0000 0.0000 42.1415
#
#
#
# Elastic Compliance Matrix: (Units=1/GPa)
#
#
# Indices 1 2 3 4 5 6 
#
# 1 0.008202 -0.002461 -0.002920 0.000000 0.000000 0.000000
# 2 -0.002461 0.006579 -0.002501 0.000000 0.000000 0.000000
# 3 -0.002920 -0.002501 0.013760 0.000000 0.000000 0.000000
# 4 0.000000 0.000000 0.000000 0.036311 0.000000 0.000000
# 5 0.000000 0.000000 0.000000 0.000000 0.029139 0.000000
# 6 0.000000 0.000000 0.000000 0.000000 0.000000 0.023730
#
#
# Mechanical properties :
#
#
# Convention : Reuss Voigt Hill
#
# Bulk Modulus (GPa) = 78.25995 91.53843 84.89919
# Shear Modulus (GPa) = 36.29909 39.18848 37.74378
#
# Velocity S-wave (km/s) = 4.26445 4.43092 4.34848
# Velocity P-wave (km/s) = 7.96585 8.48748 8.23080
#
# Compressibility (1/GPa) = 0.01277793
#
# Stress axis : x y z
#
# Youngs Moduli (GPa) = 121.91749 152.00162 72.67236
#
# Poissons Ratio (x) = 0.37412 0.21219
# Poissons Ratio (y) = 0.30007 0.18173
# Poissons Ratio (z) = 0.35598 0.38011
#
# Static dielectric constant tensor:
#      x y z
#    x 1.659240 0.000000 0.000000 
#    y 0.000000 3.039870 0.000000 
#    z 0.000000 0.000000 1.715330 
# 
# From -- ./inp_files/26581.got.cif
#   From: 2010.05.17/outbox.cif.g08.bks.cpg/sg66_14_cif.got.tgz:26581.got - 2010.06.03 17:51:23.
