data_PCOD9499320
_publ_section_title
;
Structure prediction by ZEFSAII (Michael W. Deem and Ramdas Pophale) SiO2 
 PCOD9499320
Probable space group: C C C M
;
_chemical_formula_sum "Si O2"
_cell_formula_units_Z 64
_cell_length_a 8.480900
_cell_length_b 18.499538
_cell_length_c 21.498006
_cell_angle_alpha 90.000000
_cell_angle_beta 90.000000
_cell_angle_gamma 90.000000
_cell_volume 3372.880890
_symmetry_space_group_name_H-M "C C C M"
_symmetry_group_IT_number 66
_symmetry_cell_setting 'orthorhombic'
loop_
_space_group_symop_operation_xyz
x,y,z
-x,-y,z
x,-y,1/2-z
-x,y,1/2-z
-x,-y,-z
x,y,-z
-x,y,1/2+z
x,-y,1/2+z
1/2+x,1/2+y,z
1/2-x,1/2-y,z
1/2+x,1/2-y,1/2-z
1/2-x,1/2+y,1/2-z
1/2-x,1/2-y,-z
1/2+x,1/2+y,-z
1/2-x,1/2+y,1/2+z
1/2+x,1/2-y,1/2+z
loop_
_atom_site_type_symbol
_atom_site_label
_atom_site_fract_x
_atom_site_fract_y
_atom_site_fract_z
Si Si1 0.888886 0.611013 0.000000
Si Si2 0.270988 0.946036 0.000000
Si Si3 0.235955 0.164991 0.128420
Si Si4 0.580810 0.578770 0.376093
Si Si5 0.807017 0.084124 0.247392
O O1 0.824750 0.529143 0.000000
O O2 0.830031 0.645266 0.065247
O O3 0.076770 0.604755 0.000000
O O4 0.167047 0.933214 0.060004
O O5 0.250000 0.250000 0.138312
O O6 0.272131 0.125325 0.194950
O O7 0.058436 0.136366 0.117032
O O8 0.500000 0.500000 0.359451
O O9 0.709795 0.603989 0.324960
O O10 0.000000 0.092397 0.250000
O O11 0.764152 0.000000 0.250000
#
# Coordination Sequence:
#
# PCOD9499320 Si02
#       5
#     8   8  16  16  16
#     4  11  22  39  56  89 136 157 202 258 326 368
#     4  11  22  36  62  94 118 164 211 264 299 375
#     4  11  22  37  61  92 125 161 204 261 318 366
#     4  11  18  37  66  91 112 158 223 258 293 373
#     4   9  15  32  60  89 107 145 209 258 291 358
#
# _framework density 18.974876999999999
#
# number of rings (size 3 to 8) (size 9 to 14) (size 15 to 20)
#    0.000    1.500    7.500    1.500    0.000    0.000 
#    0.000   11.250    0.000    4.500    0.000    0.000 
#    0.000    0.000    0.000    0.000    0.000    0.000 
#
# Total GULP energy -178171.286623 kJ/mol
# GULP energy per Si atom -5567.852707 kJ/mol
# Density = 1.893169 g / cm^3
# Si number density = 18.974877 Si / 1000 Ang^3
#
#
#
# Elastic Constant Matrix: (Units=GPa)
#
#
# Indices 1 2 3 4 5 6 
#
# 1 36.7228 35.1384 33.9372 0.0000 0.0000 0.0000
# 2 35.1384 125.7616 55.3609 0.0000 0.0000 0.0000
# 3 33.9372 55.3609 192.1979 0.0000 0.0000 0.0000
# 4 0.0000 0.0000 0.0000 44.2229 0.0000 0.0000
# 5 0.0000 0.0000 0.0000 0.0000 -7.6114 0.0000
# 6 0.0000 0.0000 0.0000 0.0000 0.0000 15.6591
#
#
#
# Elastic Compliance Matrix: (Units=1/GPa)
#
#
# Indices 1 2 3 4 5 6 
#
# 1 0.040205 -0.009286 -0.004424 0.000000 0.000000 0.000000
# 2 -0.009286 0.011251 -0.001601 0.000000 0.000000 0.000000
# 3 -0.004424 -0.001601 0.006445 0.000000 0.000000 0.000000
# 4 0.000000 0.000000 0.000000 0.022613 0.000000 0.000000
# 5 0.000000 0.000000 0.000000 0.000000 -0.131382 0.000000
# 6 0.000000 0.000000 0.000000 0.000000 0.000000 0.063861
#
#
# Mechanical properties :
#
#
# Convention : Reuss Voigt Hill
#
# Bulk Modulus (GPa) = 36.65879 67.06172 51.86025
# Shear Modulus (GPa) = 94.86240 25.80384 60.33312
#
# Velocity S-wave (km/s) = 7.07829 3.69168 5.64494
# Velocity P-wave (km/s) = 9.28249 7.32055 8.35927
#
# Compressibility (1/GPa) = 0.02727859
#
# Stress axis : x y z
#
# Youngs Moduli (GPa) = 24.87246 88.88216 155.14940
#
# Poissons Ratio (x) = 0.82534 0.68646
# Poissons Ratio (y) = 0.23096 0.24841
# Poissons Ratio (z) = 0.11005 0.14231
#
# Static dielectric constant tensor:
#      x y z
#    x 1.664170 0.000000 0.000000 
#    y 0.000000 1.648460 0.000000 
#    z 0.000000 0.000000 1.771230 
# 
# From -- ./inp_files/46646.got.cif
#   From: 2010.05.17/outbox.cif.g08.bks.cpg/sg66_24_cif.got.tgz:46646.got - 2010.06.03 17:51:23.
