data_PCOD9499077
_publ_section_title
;
Structure prediction by ZEFSAII (Michael W. Deem and Ramdas Pophale) SiO2 
 PCOD9499077
Probable space group: C C C M
;
_chemical_formula_sum "Si O2"
_cell_formula_units_Z 80
_cell_length_a 12.878804
_cell_length_b 12.608901
_cell_length_c 22.450565
_cell_angle_alpha 90.000000
_cell_angle_beta 90.000000
_cell_angle_gamma 90.000000
_cell_volume 3645.692575
_symmetry_space_group_name_H-M "C C C M"
_symmetry_group_IT_number 66
_symmetry_cell_setting 'orthorhombic'
loop_
_space_group_symop_operation_xyz
x,y,z
-x,-y,z
x,-y,1/2-z
-x,y,1/2-z
-x,-y,-z
x,y,-z
-x,y,1/2+z
x,-y,1/2+z
1/2+x,1/2+y,z
1/2-x,1/2-y,z
1/2+x,1/2-y,1/2-z
1/2-x,1/2+y,1/2-z
1/2-x,1/2-y,-z
1/2+x,1/2+y,-z
1/2-x,1/2+y,1/2+z
1/2+x,1/2-y,1/2+z
loop_
_atom_site_type_symbol
_atom_site_label
_atom_site_fract_x
_atom_site_fract_y
_atom_site_fract_z
Si Si1 0.391018 0.040914 0.681386
Si Si2 0.661836 0.482930 0.179728
Si Si3 0.421612 0.736525 0.872006
Si Si4 0.102003 0.152994 0.500000
Si Si5 0.651271 0.691274 0.121941
Si Si6 0.355882 0.590752 0.500000
O O1 0.280540 0.003337 0.657036
O O2 0.385044 0.166566 0.669223
O O3 0.500000 0.000000 0.655324
O O4 0.391578 0.000000 0.750000
O O5 0.660002 0.500000 0.250000
O O6 0.614711 0.371899 0.159877
O O7 0.608143 0.585207 0.152957
O O8 0.379759 0.719741 0.939670
O O9 0.545373 0.757274 0.879716
O O10 0.979745 0.118402 0.500000
O O11 0.157141 0.036948 0.500000
O O12 0.750000 0.750000 0.150828
O O13 0.686879 0.647880 0.058127
#
# Coordination Sequence:
#
# PCOD9499077 Si02
#       6
#    16  16  16   8  16   8
#     4  10  23  43  63  85 123 168 204 259 331 394
#     4  11  24  39  60  92 125 164 216 264 313 384
#     4  11  22  41  65  91 125 168 216 263 322 389
#     4   9  18  36  65  91 122 166 212 270 323 381
#     4  11  22  37  62  96 128 166 211 266 320 382
#     4   9  17  36  61  90 129 163 210 268 326 371
#
# _framework density 21.943704
#
# number of rings (size 3 to 8) (size 9 to 14) (size 15 to 20)
#    0.000    1.600    2.000    2.700    0.000    8.000 
#    0.000    3.500    0.000    0.000    0.000    0.000 
#    0.000    0.000    0.000    0.000    0.000    0.000 
#
# Total GULP energy -222940.460957 kJ/mol
# GULP energy per Si atom -5573.511524 kJ/mol
# Density = 2.189376 g / cm^3
# Si number density = 21.943704 Si / 1000 Ang^3
#
#
#
# Elastic Constant Matrix: (Units=GPa)
#
#
# Indices 1 2 3 4 5 6 
#
# 1 97.3857 17.3223 6.2504 0.0000 0.0000 0.0000
# 2 17.3223 131.0685 47.4216 0.0000 0.0000 0.0000
# 3 6.2504 47.4216 98.8917 0.0000 0.0000 0.0000
# 4 0.0000 0.0000 0.0000 33.6405 0.0000 0.0000
# 5 0.0000 0.0000 0.0000 0.0000 28.0263 0.0000
# 6 0.0000 0.0000 0.0000 0.0000 0.0000 19.3956
#
#
#
# Elastic Compliance Matrix: (Units=1/GPa)
#
#
# Indices 1 2 3 4 5 6 
#
# 1 0.010516 -0.001391 0.000002 0.000000 0.000000 0.000000
# 2 -0.001391 0.009415 -0.004427 0.000000 0.000000 0.000000
# 3 0.000002 -0.004427 0.012235 0.000000 0.000000 0.000000
# 4 0.000000 0.000000 0.000000 0.029726 0.000000 0.000000
# 5 0.000000 0.000000 0.000000 0.000000 0.035681 0.000000
# 6 0.000000 0.000000 0.000000 0.000000 0.000000 0.051558
#
#
# Mechanical properties :
#
#
# Convention : Reuss Voigt Hill
#
# Bulk Modulus (GPa) = 48.69761 52.14829 50.42295
# Shear Modulus (GPa) = 29.83184 33.30257 31.56720
#
# Velocity S-wave (km/s) = 3.69110 3.89991 3.79694
# Velocity P-wave (km/s) = 6.35656 6.64043 6.50004
#
# Compressibility (1/GPa) = 0.02053489
#
# Stress axis : x y z
#
# Youngs Moduli (GPa) = 95.09630 106.21268 81.73419
#
# Poissons Ratio (x) = 0.14770 -0.00018
# Poissons Ratio (y) = 0.13224 0.36183
# Poissons Ratio (z) = -0.00021 0.47020
#
# Static dielectric constant tensor:
#      x y z
#    x 1.880560 0.000000 0.000000 
#    y 0.000000 1.885320 0.000000 
#    z 0.000000 0.000000 1.726890 
# 
# From -- ./inp_files/57954.got.cif
#   From: 2010.05.17/outbox.cif.g08.bks.cpg/sg66_29_cif.got.tgz:57954.got - 2010.06.03 17:51:23.
