data_PCOD9499690
_publ_section_title
;
Structure prediction by ZEFSAII (Michael W. Deem and Ramdas Pophale) SiO2 
 PCOD9499690
Probable space group: C C C M
;
_chemical_formula_sum "Si O2"
_cell_formula_units_Z 48
_cell_length_a 9.351435
_cell_length_b 18.138837
_cell_length_c 14.149726
_cell_angle_alpha 90.000000
_cell_angle_beta 90.000000
_cell_angle_gamma 90.000000
_cell_volume 2400.135319
_symmetry_space_group_name_H-M "C C C M"
_symmetry_group_IT_number 66
_symmetry_cell_setting 'orthorhombic'
loop_
_space_group_symop_operation_xyz
x,y,z
-x,-y,z
x,-y,1/2-z
-x,y,1/2-z
-x,-y,-z
x,y,-z
-x,y,1/2+z
x,-y,1/2+z
1/2+x,1/2+y,z
1/2-x,1/2-y,z
1/2+x,1/2-y,1/2-z
1/2-x,1/2+y,1/2-z
1/2-x,1/2-y,-z
1/2+x,1/2+y,-z
1/2-x,1/2+y,1/2+z
1/2+x,1/2-y,1/2+z
loop_
_atom_site_type_symbol
_atom_site_label
_atom_site_fract_x
_atom_site_fract_y
_atom_site_fract_z
Si Si1 0.368001 0.688911 0.811397
Si Si2 0.150546 0.417394 0.209694
Si Si3 0.650892 0.860893 0.000000
Si Si4 0.526030 0.301062 0.500000
O O1 0.500000 0.717899 0.750000
O O2 0.250000 0.750000 0.830309
O O3 0.284946 0.627158 0.751496
O O4 0.440727 0.669220 0.909899
O O5 0.163136 0.500000 0.250000
O O6 0.000000 0.388103 0.250000
O O7 0.138277 0.407415 0.096633
O O8 0.544791 0.789040 0.000000
O O9 0.811997 0.829313 0.000000
#
# Coordination Sequence:
#
# PCOD9499690 Si02
#       4
#    16  16   8   8
#     4  12  23  40  66 100 134 177 232 279 339 400
#     4  11  26  45  69  98 137 185 226 283 339 406
#     4  11  22  46  67 101 139 176 226 287 341 389
#     4  11  23  39  69 102 134 177 225 288 336 402
#
# _framework density 19.998871999999999
#
# number of rings (size 3 to 8) (size 9 to 14) (size 15 to 20)
#    0.000    0.667    3.333    5.500    0.000    6.000 
#    0.000    1.667    0.000    0.000    0.000    0.000 
#    0.000    0.000    0.000    0.000    0.000    0.000 
#
# Total GULP energy -134014.434016 kJ/mol
# GULP energy per Si atom -5583.934751 kJ/mol
# Density = 1.995335 g / cm^3
# Si number density = 19.998872 Si / 1000 Ang^3
#
#
#
# Elastic Constant Matrix: (Units=GPa)
#
#
# Indices 1 2 3 4 5 6 
#
# 1 117.7472 14.7924 39.7249 0.0000 0.0000 0.0000
# 2 14.7924 76.1229 34.3000 0.0000 0.0000 0.0000
# 3 39.7249 34.3000 203.5160 0.0000 0.0000 0.0000
# 4 0.0000 0.0000 0.0000 11.9612 0.0000 0.0000
# 5 0.0000 0.0000 0.0000 0.0000 37.6960 0.0000
# 6 0.0000 0.0000 0.0000 0.0000 0.0000 9.7232
#
#
#
# Elastic Compliance Matrix: (Units=1/GPa)
#
#
# Indices 1 2 3 4 5 6 
#
# 1 0.009169 -0.001055 -0.001612 0.000000 0.000000 0.000000
# 2 -0.001055 0.014338 -0.002210 0.000000 0.000000 0.000000
# 3 -0.001612 -0.002210 0.005601 0.000000 0.000000 0.000000
# 4 0.000000 0.000000 0.000000 0.083603 0.000000 0.000000
# 5 0.000000 0.000000 0.000000 0.000000 0.026528 0.000000
# 6 0.000000 0.000000 0.000000 0.000000 0.000000 0.102846
#
#
# Mechanical properties :
#
#
# Convention : Reuss Voigt Hill
#
# Bulk Modulus (GPa) = 51.67387 63.89120 57.78254
# Shear Modulus (GPa) = 19.35795 32.44734 25.90265
#
# Velocity S-wave (km/s) = 3.11457 4.03235 3.60280
# Velocity P-wave (km/s) = 6.23125 7.32779 6.80166
#
# Compressibility (1/GPa) = 0.01935214
#
# Stress axis : x y z
#
# Youngs Moduli (GPa) = 109.06108 69.74594 178.54648
#
# Poissons Ratio (x) = 0.07362 0.28779
# Poissons Ratio (y) = 0.11511 0.39466
# Poissons Ratio (z) = 0.17579 0.15417
#
# Static dielectric constant tensor:
#      x y z
#    x 1.685350 0.000000 0.000000 
#    y 0.000000 1.724720 0.000000 
#    z 0.000000 0.000000 1.952670 
# 
# From -- ./inp_files/13161.got.cif
#   From: 2010.05.17/outbox.cif.g08.bks.cpg/sg66_7_cif.got.tgz:13161.got - 2010.06.03 17:51:23.
