data_PCOD9499918
_publ_section_title
;
Structure prediction by ZEFSAII (Michael W. Deem and Ramdas Pophale) SiO2 
 PCOD9499918
Probable space group: C C C M
;
_chemical_formula_sum "Si O2"
_cell_formula_units_Z 68
_cell_length_a 29.447256
_cell_length_b 5.216110
_cell_length_c 18.837816
_cell_angle_alpha 90.000000
_cell_angle_beta 90.000000
_cell_angle_gamma 90.000000
_cell_volume 2893.490920
_symmetry_space_group_name_H-M "C C C M"
_symmetry_group_IT_number 66
_symmetry_cell_setting 'orthorhombic'
loop_
_space_group_symop_operation_xyz
x,y,z
-x,-y,z
x,-y,1/2-z
-x,y,1/2-z
-x,-y,-z
x,y,-z
-x,y,1/2+z
x,-y,1/2+z
1/2+x,1/2+y,z
1/2-x,1/2-y,z
1/2+x,1/2-y,1/2-z
1/2-x,1/2+y,1/2-z
1/2-x,1/2-y,-z
1/2+x,1/2+y,-z
1/2-x,1/2+y,1/2+z
1/2+x,1/2-y,1/2+z
loop_
_atom_site_type_symbol
_atom_site_label
_atom_site_fract_x
_atom_site_fract_y
_atom_site_fract_z
Si Si1 0.289912 0.076823 0.631530
Si Si2 0.860601 0.262796 0.294577
Si Si3 0.474829 0.247393 0.414148
Si Si4 0.875551 0.921354 0.416340
Si Si5 0.250000 0.250000 0.000000
O O1 0.250000 0.250000 0.662360
O O2 0.331490 0.265000 0.608967
O O3 0.311060 0.865438 0.683267
O O4 0.271144 0.937422 0.562044
O O5 0.881265 0.500000 0.250000
O O6 0.860733 0.000000 0.250000
O O7 0.880892 0.179305 0.370408
O O8 0.500000 0.500000 0.386922
O O9 0.480295 0.246915 0.500000
O O10 0.421216 0.262620 0.402812
O O11 0.500000 0.000000 0.385228
O O12 0.870945 0.978836 0.500000
#
# Coordination Sequence:
#
# PCOD9499918 Si02
#       5
#    16  16  16  16   4
#     4  12  27  48  71 107 150 196 251 310 378 448
#     4  12  28  53  73 107 152 208 256 311 379 461
#     4   9  20  39  67 110 150 183 236 307 373 439
#     4  11  25  47  77 111 153 202 254 315 388 446
#     4  12  26  44  72 114 156 180 250 316 376 450
#
# _framework density 23.501024000000001
#
# number of rings (size 3 to 8) (size 9 to 14) (size 15 to 20)
#    0.000    0.941    3.529    1.765    8.235    0.000 
#    6.353    0.000    0.000    0.706    6.118    0.000 
#    0.000    0.000    0.000    0.000    0.000    0.471 
#
# Total GULP energy -189746.067976 kJ/mol
# GULP energy per Si atom -5580.766705 kJ/mol
# Density = 2.344753 g / cm^3
# Si number density = 23.501024 Si / 1000 Ang^3
#
#
#
# Elastic Constant Matrix: (Units=GPa)
#
#
# Indices 1 2 3 4 5 6 
#
# 1 105.3202 67.5236 15.0164 0.0000 0.0000 0.0000
# 2 67.5236 183.7115 53.0796 0.0000 0.0000 0.0000
# 3 15.0164 53.0796 80.9265 0.0000 0.0000 0.0000
# 4 0.0000 0.0000 0.0000 42.2842 0.0000 0.0000
# 5 0.0000 0.0000 0.0000 0.0000 8.0293 0.0000
# 6 0.0000 0.0000 0.0000 0.0000 0.0000 36.8145
#
#
#
# Elastic Compliance Matrix: (Units=1/GPa)
#
#
# Indices 1 2 3 4 5 6 
#
# 1 0.012470 -0.004830 0.000854 0.000000 0.000000 0.000000
# 2 -0.004830 0.008587 -0.004736 0.000000 0.000000 0.000000
# 3 0.000854 -0.004736 0.015305 0.000000 0.000000 0.000000
# 4 0.000000 0.000000 0.000000 0.023650 0.000000 0.000000
# 5 0.000000 0.000000 0.000000 0.000000 0.124544 0.000000
# 6 0.000000 0.000000 0.000000 0.000000 0.000000 0.027163
#
#
# Mechanical properties :
#
#
# Convention : Reuss Voigt Hill
#
# Bulk Modulus (GPa) = 52.80445 71.24415 62.02430
# Shear Modulus (GPa) = 21.23550 33.04815 27.14183
#
# Velocity S-wave (km/s) = 3.00925 3.75406 3.40210
# Velocity P-wave (km/s) = 5.88149 7.01226 6.47162
#
# Compressibility (1/GPa) = 0.01893780
#
# Stress axis : x y z
#
# Youngs Moduli (GPa) = 80.19395 116.45535 65.33947
#
# Poissons Ratio (x) = 0.56249 -0.05581
# Poissons Ratio (y) = 0.38734 0.30944
# Poissons Ratio (z) = -0.06850 0.55153
#
# Static dielectric constant tensor:
#      x y z
#    x 1.890010 0.000000 0.000000 
#    y 0.000000 1.905870 0.000000 
#    z 0.000000 0.000000 1.911260 
# 
# From -- ./inp_files/52828.got.cif
#   From: 2010.05.17/outbox.cif.g08.bks.cpg/sg66_27_cif.got.tgz:52828.got - 2010.06.03 17:51:23.
