data_PCOD9499488
_publ_section_title
;
Structure prediction by ZEFSAII (Michael W. Deem and Ramdas Pophale) SiO2 
 PCOD9499488
Probable space group: C C C M
;
_chemical_formula_sum "Si O2"
_cell_formula_units_Z 96
_cell_length_a 11.926771
_cell_length_b 22.517614
_cell_length_c 16.477346
_cell_angle_alpha 90.000000
_cell_angle_beta 90.000000
_cell_angle_gamma 90.000000
_cell_volume 4425.196010
_symmetry_space_group_name_H-M "C C C M"
_symmetry_group_IT_number 66
_symmetry_cell_setting 'orthorhombic'
loop_
_space_group_symop_operation_xyz
x,y,z
-x,-y,z
x,-y,1/2-z
-x,y,1/2-z
-x,-y,-z
x,y,-z
-x,y,1/2+z
x,-y,1/2+z
1/2+x,1/2+y,z
1/2-x,1/2-y,z
1/2+x,1/2-y,1/2-z
1/2-x,1/2+y,1/2-z
1/2-x,1/2-y,-z
1/2+x,1/2+y,-z
1/2-x,1/2+y,1/2+z
1/2+x,1/2-y,1/2+z
loop_
_atom_site_type_symbol
_atom_site_label
_atom_site_fract_x
_atom_site_fract_y
_atom_site_fract_z
Si Si1 0.148759 0.169592 0.344614
Si Si2 0.112023 0.706157 0.092623
Si Si3 0.205500 0.181281 0.834068
Si Si4 0.553989 0.129626 0.670280
Si Si5 0.647332 0.378434 0.500000
Si Si6 0.599418 0.587346 0.500000
Si Si7 0.298026 0.992119 0.500000
Si Si8 0.000000 0.500000 0.876457
O O1 0.086273 0.229527 0.371820
O O2 0.282197 0.181217 0.357827
O O3 0.136077 0.164509 0.247346
O O4 0.121130 0.121757 0.414241
O O5 0.006332 0.663464 0.097444
O O6 0.148332 0.711869 0.000000
O O7 0.250000 0.250000 0.831800
O O8 0.315635 0.140159 0.829952
O O9 0.150064 0.162842 0.919590
O O10 0.500000 0.158630 0.750000
O O11 0.517183 0.061868 0.667619
O O12 0.535124 0.418811 0.500000
O O13 0.752043 0.424540 0.500000
O O14 0.689734 0.534380 0.500000
O O15 0.383807 0.004805 0.573410
#
# Coordination Sequence:
#
# PCOD9499488 Si02
#       8
#    16  16  16  16   8   8   8   8
#     4  11  21  43  66 105 138 182 236 291 351 424
#     4  11  21  37  67 100 142 179 231 289 354 420
#     4  12  26  46  69 103 152 191 232 295 364 440
#     4  12  24  41  69 106 144 188 233 296 369 431
#     4  12  29  51  68 103 142 192 247 292 360 433
#     4  12  26  45  79  99 136 189 243 302 356 430
#     4  11  25  49  73 102 138 184 243 304 365 430
#     4  11  25  44  76 102 140 188 236 305 365 428
#
# _framework density 21.693954999999999
#
# number of rings (size 3 to 8) (size 9 to 14) (size 15 to 20)
#    0.000    0.500    6.667    2.250    5.833    0.667 
#    0.000    0.833    0.000    2.000    0.000    0.000 
#    0.000    0.000    0.000    0.000    0.000    0.000 
#
# Total GULP energy -268004.342603 kJ/mol
# GULP energy per Si atom -5583.423804 kJ/mol
# Density = 2.164458 g / cm^3
# Si number density = 21.693955 Si / 1000 Ang^3
#
#
#
# Elastic Constant Matrix: (Units=GPa)
#
#
# Indices 1 2 3 4 5 6 
#
# 1 97.6516 28.8593 37.3717 0.0000 0.0000 0.0000
# 2 28.8593 87.6633 37.2984 0.0000 0.0000 0.0000
# 3 37.3717 37.2984 170.2181 0.0000 0.0000 0.0000
# 4 0.0000 0.0000 0.0000 -110.2355 0.0000 0.0000
# 5 0.0000 0.0000 0.0000 0.0000 16.3227 0.0000
# 6 0.0000 0.0000 0.0000 0.0000 0.0000 34.3032
#
#
#
# Elastic Compliance Matrix: (Units=1/GPa)
#
#
# Indices 1 2 3 4 5 6 
#
# 1 0.011895 -0.003093 -0.001934 0.000000 0.000000 0.000000
# 2 -0.003093 0.013384 -0.002254 0.000000 0.000000 0.000000
# 3 -0.001934 -0.002254 0.006793 0.000000 0.000000 0.000000
# 4 0.000000 0.000000 0.000000 -0.009071 0.000000 0.000000
# 5 0.000000 0.000000 0.000000 0.000000 0.061264 0.000000
# 6 0.000000 0.000000 0.000000 0.000000 0.000000 0.029152
#
#
# Mechanical properties :
#
#
# Convention : Reuss Voigt Hill
#
# Bulk Modulus (GPa) = 57.10609 62.51020 59.80814
# Shear Modulus (GPa) = 37.36499 4.87830 21.12164
#
# Velocity S-wave (km/s) = 4.15465 1.50119 3.12367
# Velocity P-wave (km/s) = 7.02819 5.64640 6.37485
#
# Compressibility (1/GPa) = 0.01751127
#
# Stress axis : x y z
#
# Youngs Moduli (GPa) = 84.07150 74.71367 147.20571
#
# Poissons Ratio (x) = 0.23109 0.28466
# Poissons Ratio (y) = 0.26004 0.33176
# Poissons Ratio (z) = 0.16257 0.16838
#
# Static dielectric constant tensor:
#      x y z
#    x 1.840850 0.000000 0.000000 
#    y 0.000000 1.776400 0.000000 
#    z 0.000000 0.000000 1.837300 
# 
# From -- ./inp_files/38937.got.cif
#   From: 2010.05.17/outbox.cif.g08.bks.cpg/sg66_20_cif.got.tgz:38937.got - 2010.06.03 17:51:23.
