data_PCOD9499842
_publ_section_title
;
Structure prediction by ZEFSAII (Michael W. Deem and Ramdas Pophale) SiO2 
 PCOD9499842
Probable space group: C C C M
;
_chemical_formula_sum "Si O2"
_cell_formula_units_Z 56
_cell_length_a 13.057865
_cell_length_b 8.479780
_cell_length_c 19.878338
_cell_angle_alpha 90.000000
_cell_angle_beta 90.000000
_cell_angle_gamma 90.000000
_cell_volume 2201.085081
_symmetry_space_group_name_H-M "C C C M"
_symmetry_group_IT_number 66
_symmetry_cell_setting 'orthorhombic'
loop_
_space_group_symop_operation_xyz
x,y,z
-x,-y,z
x,-y,1/2-z
-x,y,1/2-z
-x,-y,-z
x,y,-z
-x,y,1/2+z
x,-y,1/2+z
1/2+x,1/2+y,z
1/2-x,1/2-y,z
1/2+x,1/2-y,1/2-z
1/2-x,1/2+y,1/2-z
1/2-x,1/2-y,-z
1/2+x,1/2+y,-z
1/2-x,1/2+y,1/2+z
1/2+x,1/2-y,1/2+z
loop_
_atom_site_type_symbol
_atom_site_label
_atom_site_fract_x
_atom_site_fract_y
_atom_site_fract_z
Si Si1 0.438544 0.756069 0.183360
Si Si2 0.802868 0.527931 0.118644
Si Si3 0.707208 0.500000 0.750000
Si Si4 0.097373 0.845329 0.574540
O O1 0.500000 0.818257 0.250000
O O2 0.359589 0.631058 0.213690
O O3 0.517563 0.664921 0.135170
O O4 0.376510 0.879686 0.135415
O O5 0.777326 0.580030 0.194403
O O6 0.856538 0.668378 0.079508
O O7 0.689181 0.527372 0.085283
O O8 0.054211 0.861428 0.500000
#
# Coordination Sequence:
#
# PCOD9499842 Si02
#       4
#    16  16   8  16
#     4  12  25  46  76 114 154 204 270 340 400 477
#     4  11  24  43  71 108 151 204 262 324 401 478
#     4  12  25  46  71 112 152 194 265 348 407 462
#     4  11  26  48  73 110 161 210 265 331 401 484
#
# _framework density 25.441996
#
# number of rings (size 3 to 8) (size 9 to 14) (size 15 to 20)
#    0.000    0.571    2.857    5.571    4.000    4.571 
#    0.000    4.286    0.000    8.571    0.000    0.000 
#    0.000    0.000    0.000    0.000    0.000    0.000 
#
# Total GULP energy -156543.662789 kJ/mol
# GULP energy per Si atom -5590.845100 kJ/mol
# Density = 2.538409 g / cm^3
# Si number density = 25.441996 Si / 1000 Ang^3
#
#
#
# Elastic Constant Matrix: (Units=GPa)
#
#
# Indices 1 2 3 4 5 6 
#
# 1 130.0830 65.3050 42.9547 0.0000 0.0000 0.0000
# 2 65.3050 139.2580 31.3686 0.0000 0.0000 0.0000
# 3 42.9547 31.3686 173.5252 0.0000 0.0000 0.0000
# 4 0.0000 0.0000 0.0000 47.9607 0.0000 0.0000
# 5 0.0000 0.0000 0.0000 0.0000 31.2183 0.0000
# 6 0.0000 0.0000 0.0000 0.0000 0.0000 51.6645
#
#
#
# Elastic Compliance Matrix: (Units=1/GPa)
#
#
# Indices 1 2 3 4 5 6 
#
# 1 0.010563 -0.004550 -0.001792 0.000000 0.000000 0.000000
# 2 -0.004550 0.009446 -0.000581 0.000000 0.000000 0.000000
# 3 -0.001792 -0.000581 0.006312 0.000000 0.000000 0.000000
# 4 0.000000 0.000000 0.000000 0.020850 0.000000 0.000000
# 5 0.000000 0.000000 0.000000 0.000000 0.032032 0.000000
# 6 0.000000 0.000000 0.000000 0.000000 0.000000 0.019356
#
#
# Mechanical properties :
#
#
# Convention : Reuss Voigt Hill
#
# Bulk Modulus (GPa) = 80.16991 80.23584 80.20287
# Shear Modulus (GPa) = 42.89484 46.38455 44.63970
#
# Velocity S-wave (km/s) = 4.11053 4.27447 4.19330
# Velocity P-wave (km/s) = 7.35581 7.48109 7.41871
#
# Compressibility (1/GPa) = 0.01247351
#
# Stress axis : x y z
#
# Youngs Moduli (GPa) = 94.66582 105.86996 158.43834
#
# Poissons Ratio (x) = 0.48171 0.28398
# Poissons Ratio (y) = 0.43073 0.09208
# Poissons Ratio (z) = 0.16968 0.06153
#
# Static dielectric constant tensor:
#      x y z
#    x 2.161470 0.000000 0.000000 
#    y 0.000000 2.111050 0.000000 
#    z 0.000000 0.000000 1.942950 
# 
# From -- ./inp_files/49381.got.cif
#   From: 2010.05.17/outbox.cif.g08.bks.cpg/sg66_25_cif.got.tgz:49381.got - 2010.06.03 17:51:23.
