data_PCOD9499757
_publ_section_title
;
Structure prediction by ZEFSAII (Michael W. Deem and Ramdas Pophale) SiO2 
 PCOD9499757
Probable space group: C C C M
;
_chemical_formula_sum "Si O2"
_cell_formula_units_Z 108
_cell_length_a 11.575684
_cell_length_b 31.342960
_cell_length_c 15.129692
_cell_angle_alpha 90.000000
_cell_angle_beta 90.000000
_cell_angle_gamma 90.000000
_cell_volume 5489.297367
_symmetry_space_group_name_H-M "C C C M"
_symmetry_group_IT_number 66
_symmetry_cell_setting 'orthorhombic'
loop_
_space_group_symop_operation_xyz
x,y,z
-x,-y,z
x,-y,1/2-z
-x,y,1/2-z
-x,-y,-z
x,y,-z
-x,y,1/2+z
x,-y,1/2+z
1/2+x,1/2+y,z
1/2-x,1/2-y,z
1/2+x,1/2-y,1/2-z
1/2-x,1/2+y,1/2-z
1/2-x,1/2-y,-z
1/2+x,1/2+y,-z
1/2-x,1/2+y,1/2+z
1/2+x,1/2-y,1/2+z
loop_
_atom_site_type_symbol
_atom_site_label
_atom_site_fract_x
_atom_site_fract_y
_atom_site_fract_z
Si Si1 0.749014 0.050052 0.241652
Si Si2 0.663637 0.111034 0.399579
Si Si3 0.726749 0.297544 0.645583
Si Si4 0.500000 0.414692 0.250000
Si Si5 0.759950 0.688080 0.649762
Si Si6 0.750000 0.750000 0.500000
Si Si7 0.003319 0.843261 0.897682
Si Si8 0.388126 0.896777 0.103540
O O1 0.716786 0.079648 0.326128
O O2 0.885463 0.058670 0.229842
O O3 0.672042 0.066352 0.159902
O O4 0.728073 0.000000 0.250000
O O5 0.696105 0.098658 0.500000
O O6 0.702888 0.160587 0.387861
O O7 0.525892 0.105843 0.389859
O O8 0.750000 0.250000 0.609802
O O9 0.751025 0.296862 0.750280
O O10 0.593696 0.308936 0.626932
O O11 0.483521 0.383039 0.166771
O O12 0.808519 0.720960 0.578640
O O13 0.630811 0.675783 0.616982
O O14 0.835474 0.645881 0.644944
O O15 0.991183 0.855090 0.000000
O O16 0.356798 0.899316 0.000000
#
# Coordination Sequence:
#
# PCOD9499757 Si02
#       8
#    16  16  16   8  16   4  16  16
#     4  12  26  45  73 103 133 172 221 280 348 414
#     4  11  25  45  68  98 140 180 222 278 337 404
#     4  12  25  42  65  97 138 181 228 277 337 395
#     4  12  23  44  72 100 134 170 224 282 341 404
#     4  12  22  41  64  96 130 175 225 279 331 391
#     4  12  24  36  64 100 140 168 236 292 332 386
#     4  12  22  40  69  92 129 181 223 275 339 397
#     4  11  23  43  71  97 131 178 224 273 336 402
#
# _framework density 19.67465
#
# number of rings (size 3 to 8) (size 9 to 14) (size 15 to 20)
#    0.000    0.296    8.148    1.111    0.000    4.148 
#    2.667    1.481    0.000    2.667    0.000    0.000 
#    0.000    0.000    0.000    0.000    0.000    0.000 
#
# Total GULP energy -301248.725136 kJ/mol
# GULP energy per Si atom -5578.680095 kJ/mol
# Density = 1.962987 g / cm^3
# Si number density = 19.674650 Si / 1000 Ang^3
#
#
#
# Elastic Constant Matrix: (Units=GPa)
#
#
# Indices 1 2 3 4 5 6 
#
# 1 67.1462 7.1737 3.0361 0.0000 0.0000 0.0000
# 2 7.1737 114.4651 16.5675 0.0000 0.0000 0.0000
# 3 3.0361 16.5675 107.6373 0.0000 0.0000 0.0000
# 4 0.0000 0.0000 0.0000 -107.6323 0.0000 0.0000
# 5 0.0000 0.0000 0.0000 0.0000 17.2717 0.0000
# 6 0.0000 0.0000 0.0000 0.0000 0.0000 15.3890
#
#
#
# Elastic Compliance Matrix: (Units=1/GPa)
#
#
# Indices 1 2 3 4 5 6 
#
# 1 0.015002 -0.000899 -0.000285 0.000000 0.000000 0.000000
# 2 -0.000899 0.008989 -0.001358 0.000000 0.000000 0.000000
# 3 -0.000285 -0.001358 0.009508 0.000000 0.000000 0.000000
# 4 0.000000 0.000000 0.000000 -0.009291 0.000000 0.000000
# 5 0.000000 0.000000 0.000000 0.000000 0.057898 0.000000
# 6 0.000000 0.000000 0.000000 0.000000 0.000000 0.064981
#
#
# Mechanical properties :
#
#
# Convention : Reuss Voigt Hill
#
# Bulk Modulus (GPa) = 35.19325 38.08924 36.64125
# Shear Modulus (GPa) = 30.93238 2.50377 16.71808
#
# Velocity S-wave (km/s) = 3.96939 1.12931 2.91817
# Velocity P-wave (km/s) = 6.23976 4.59370 5.47890
#
# Compressibility (1/GPa) = 0.02841454
#
# Stress axis : x y z
#
# Youngs Moduli (GPa) = 66.65872 111.24434 105.17954
#
# Poissons Ratio (x) = 0.10000 0.02995
# Poissons Ratio (y) = 0.05992 0.14286
# Poissons Ratio (z) = 0.01898 0.15110
#
# Static dielectric constant tensor:
#      x y z
#    x 1.696010 0.000000 0.000000 
#    y 0.000000 2.661140 0.000000 
#    z 0.000000 0.000000 1.687460 
# 
# From -- ./inp_files/27050.got.cif
#   From: 2010.05.17/outbox.cif.g08.bks.cpg/sg66_14_cif.got.tgz:27050.got - 2010.06.03 17:51:23.
