data_PCOD9499002
_publ_section_title
;
Structure prediction by ZEFSAII (Michael W. Deem and Ramdas Pophale) SiO2 
 PCOD9499002
Probable space group: C C C M
;
_chemical_formula_sum "Si O2"
_cell_formula_units_Z 84
_cell_length_a 14.476579
_cell_length_b 20.042509
_cell_length_c 15.140940
_cell_angle_alpha 90.000000
_cell_angle_beta 90.000000
_cell_angle_gamma 90.000000
_cell_volume 4393.097787
_symmetry_space_group_name_H-M "C C C M"
_symmetry_group_IT_number 66
_symmetry_cell_setting 'orthorhombic'
loop_
_space_group_symop_operation_xyz
x,y,z
-x,-y,z
x,-y,1/2-z
-x,y,1/2-z
-x,-y,-z
x,y,-z
-x,y,1/2+z
x,-y,1/2+z
1/2+x,1/2+y,z
1/2-x,1/2-y,z
1/2+x,1/2-y,1/2-z
1/2-x,1/2+y,1/2-z
1/2-x,1/2-y,-z
1/2+x,1/2+y,-z
1/2-x,1/2+y,1/2+z
1/2+x,1/2-y,1/2+z
loop_
_atom_site_type_symbol
_atom_site_label
_atom_site_fract_x
_atom_site_fract_y
_atom_site_fract_z
Si Si1 0.775771 0.633510 0.500000
Si Si2 0.500000 0.000000 0.250000
Si Si3 0.393067 0.728464 0.000000
Si Si4 0.090534 0.746721 0.193301
Si Si5 0.850725 0.881830 0.751390
Si Si6 0.998225 0.079885 0.603354
Si Si7 0.160293 0.595329 0.185373
O O1 0.674610 0.665141 0.500000
O O2 0.834734 0.702079 0.500000
O O3 0.799507 0.592292 0.413396
O O4 0.427859 0.952091 0.198515
O O5 0.440112 0.733187 0.094205
O O6 0.159817 0.802837 0.230225
O O7 0.127715 0.671945 0.196774
O O8 0.000000 0.752078 0.250000
O O9 0.908533 0.895923 0.840400
O O10 0.749606 0.914988 0.748007
O O11 0.915560 0.904167 0.668866
O O12 0.998515 0.103453 0.500000
O O13 0.000000 0.000000 0.598861
#
# Coordination Sequence:
#
# PCOD9499002 Si02
#       7
#     8   4   8  16  16  16  16
#     4   9  18  37  64  86 113 149 215 264 293 353
#     4  12  28  42  60  86 132 178 202 244 310 394
#     4   9  18  32  60  98 114 149 200 261 316 354
#     4  11  20  37  61  95 126 154 205 269 315 356
#     4  11  21  36  68  92 119 161 207 257 315 375
#     4  10  23  40  59  92 127 155 199 258 314 376
#     4  11  24  41  62  90 125 167 208 255 309 369
#
# _framework density 19.120902999999998
#
# number of rings (size 3 to 8) (size 9 to 14) (size 15 to 20)
#    0.000    1.524    4.762    1.714    5.333    0.381 
#    0.000    0.000    4.190    1.143    0.000    0.000 
#    0.000    0.000    0.000    0.000    0.000    0.000 
#
# Total GULP energy -234152.562253 kJ/mol
# GULP energy per Si atom -5575.061006 kJ/mol
# Density = 1.907738 g / cm^3
# Si number density = 19.120903 Si / 1000 Ang^3
#
#
#
# Elastic Constant Matrix: (Units=GPa)
#
#
# Indices 1 2 3 4 5 6 
#
# 1 129.4164 31.0053 68.5268 0.0000 0.0000 0.0000
# 2 31.0053 89.6257 34.8174 0.0000 0.0000 0.0000
# 3 68.5268 34.8174 156.7200 0.0000 0.0000 0.0000
# 4 0.0000 0.0000 0.0000 20.6877 0.0000 0.0000
# 5 0.0000 0.0000 0.0000 0.0000 25.9792 0.0000
# 6 0.0000 0.0000 0.0000 0.0000 0.0000 29.7644
#
#
#
# Elastic Compliance Matrix: (Units=1/GPa)
#
#
# Indices 1 2 3 4 5 6 
#
# 1 0.010372 -0.001999 -0.004091 0.000000 0.000000 0.000000
# 2 -0.001999 0.012597 -0.001924 0.000000 0.000000 0.000000
# 3 -0.004091 -0.001924 0.008597 0.000000 0.000000 0.000000
# 4 0.000000 0.000000 0.000000 0.048338 0.000000 0.000000
# 5 0.000000 0.000000 0.000000 0.000000 0.038492 0.000000
# 6 0.000000 0.000000 0.000000 0.000000 0.000000 0.033597
#
#
# Mechanical properties :
#
#
# Convention : Reuss Voigt Hill
#
# Bulk Modulus (GPa) = 64.36272 71.60679 67.98476
# Shear Modulus (GPa) = 28.86810 31.38045 30.12427
#
# Velocity S-wave (km/s) = 3.88979 4.05552 3.97352
# Velocity P-wave (km/s) = 7.34220 7.71106 7.52889
#
# Compressibility (1/GPa) = 0.01553694
#
# Stress axis : x y z
#
# Youngs Moduli (GPa) = 96.41145 79.38640 116.31591
#
# Poissons Ratio (x) = 0.15868 0.47588
# Poissons Ratio (y) = 0.19271 0.22385
# Poissons Ratio (z) = 0.39444 0.15278
#
# Static dielectric constant tensor:
#      x y z
#    x 1.696460 0.000000 0.000000 
#    y 0.000000 1.737240 0.000000 
#    z 0.000000 0.000000 1.680360 
# 
# From -- ./inp_files/28274.got.cif
#   From: 2010.05.17/outbox.cif.g08.bks.cpg/sg66_15_cif.got.tgz:28274.got - 2010.06.03 17:51:23.
