data_PCOD9499101
_publ_section_title
;
Structure prediction by ZEFSAII (Michael W. Deem and Ramdas Pophale) SiO2 
 PCOD9499101
Probable space group: C C C M
;
_chemical_formula_sum "Si O2"
_cell_formula_units_Z 64
_cell_length_a 6.814560
_cell_length_b 28.160897
_cell_length_c 16.808221
_cell_angle_alpha 90.000000
_cell_angle_beta 90.000000
_cell_angle_gamma 90.000000
_cell_volume 3225.566898
_symmetry_space_group_name_H-M "C C C M"
_symmetry_group_IT_number 66
_symmetry_cell_setting 'orthorhombic'
loop_
_space_group_symop_operation_xyz
x,y,z
-x,-y,z
x,-y,1/2-z
-x,y,1/2-z
-x,-y,-z
x,y,-z
-x,y,1/2+z
x,-y,1/2+z
1/2+x,1/2+y,z
1/2-x,1/2-y,z
1/2+x,1/2-y,1/2-z
1/2-x,1/2+y,1/2-z
1/2-x,1/2-y,-z
1/2+x,1/2+y,-z
1/2-x,1/2+y,1/2+z
1/2+x,1/2-y,1/2+z
loop_
_atom_site_type_symbol
_atom_site_label
_atom_site_fract_x
_atom_site_fract_y
_atom_site_fract_z
Si Si1 0.000000 0.130675 0.750000
Si Si2 0.606914 0.950264 0.000000
Si Si3 0.327043 0.803951 0.000000
Si Si4 0.291817 0.402545 0.500000
Si Si5 0.436399 0.552579 0.630765
Si Si6 0.337971 0.196929 0.680894
O O1 0.109468 0.093239 0.806334
O O2 0.156269 0.162181 0.701779
O O3 0.441635 0.909941 0.000000
O O4 0.748098 0.949923 0.924828
O O5 0.500000 0.000000 0.000000
O O6 0.250000 0.750000 0.000000
O O7 0.166391 0.846376 0.000000
O O8 0.417189 0.809884 0.910307
O O9 0.385962 0.428011 0.575950
O O10 0.500000 0.500000 0.658523
O O11 0.500000 0.191084 0.750000
O O12 0.250000 0.250000 0.685269
#
# Coordination Sequence:
#
# PCOD9499101 Si02
#       6
#     8   8   8   8  16  16
#     4  12  25  40  64  96 136 176 219 276 342 388
#     4  11  21  39  69  91 121 176 224 273 336 401
#     4  10  23  43  70  98 134 174 219 276 334 393
#     4  11  20  41  65  94 132 165 225 274 334 401
#     4  11  23  40  63  92 129 175 219 278 336 394
#     4  11  24  46  70  98 137 178 222 279 334 401
#
# _framework density 19.841472
#
# number of rings (size 3 to 8) (size 9 to 14) (size 15 to 20)
#    0.000    1.000    6.250    1.125    3.500    0.000 
#    0.000    1.875    0.000    0.000    0.000    0.000 
#    0.000    0.000    0.000    0.000    0.000    0.000 
#
# Total GULP energy -178357.403220 kJ/mol
# GULP energy per Si atom -5573.668851 kJ/mol
# Density = 1.979631 g / cm^3
# Si number density = 19.841472 Si / 1000 Ang^3
#
#
#
# Elastic Constant Matrix: (Units=GPa)
#
#
# Indices 1 2 3 4 5 6 
#
# 1 82.3890 26.0561 38.2204 0.0000 0.0000 0.0000
# 2 26.0561 157.9523 42.7004 0.0000 0.0000 0.0000
# 3 38.2204 42.7004 151.1160 0.0000 0.0000 0.0000
# 4 0.0000 0.0000 0.0000 16.0844 0.0000 0.0000
# 5 0.0000 0.0000 0.0000 0.0000 -13.5282 0.0000
# 6 0.0000 0.0000 0.0000 0.0000 0.0000 24.2613
#
#
#
# Elastic Compliance Matrix: (Units=1/GPa)
#
#
# Indices 1 2 3 4 5 6 
#
# 1 0.014059 -0.001470 -0.003140 0.000000 0.000000 0.000000
# 2 -0.001470 0.007008 -0.001608 0.000000 0.000000 0.000000
# 3 -0.003140 -0.001608 0.007866 0.000000 0.000000 0.000000
# 4 0.000000 0.000000 0.000000 0.062172 0.000000 0.000000
# 5 0.000000 0.000000 0.000000 0.000000 -0.073920 0.000000
# 6 0.000000 0.000000 0.000000 0.000000 0.000000 0.041218
#
#
# Mechanical properties :
#
#
# Convention : Reuss Voigt Hill
#
# Bulk Modulus (GPa) = 60.62230 67.26790 63.94510
# Shear Modulus (GPa) = 65.49549 24.32886 44.91217
#
# Velocity S-wave (km/s) = 5.75161 3.50546 4.76284
# Velocity P-wave (km/s) = 8.64452 7.09652 7.90849
#
# Compressibility (1/GPa) = 0.01649558
#
# Stress axis : x y z
#
# Youngs Moduli (GPa) = 71.12679 142.68593 127.12576
#
# Poissons Ratio (x) = 0.20979 0.39923
# Poissons Ratio (y) = 0.10458 0.20448
# Poissons Ratio (z) = 0.22337 0.22951
#
# Static dielectric constant tensor:
#      x y z
#    x 1.600060 0.000000 0.000000 
#    y 0.000000 1.759480 0.000000 
#    z 0.000000 0.000000 1.822460 
# 
# From -- ./inp_files/35099.got.cif
#   From: 2010.05.17/outbox.cif.g08.bks.cpg/sg66_18_cif.got.tgz:35099.got - 2010.06.03 17:51:23.
