data_PCOD9499072
_publ_section_title
;
Structure prediction by ZEFSAII (Michael W. Deem and Ramdas Pophale) SiO2 
 PCOD9499072
Probable space group: C C C M
;
_chemical_formula_sum "Si O2"
_cell_formula_units_Z 48
_cell_length_a 13.983361
_cell_length_b 12.793175
_cell_length_c 10.595836
_cell_angle_alpha 90.000000
_cell_angle_beta 90.000000
_cell_angle_gamma 90.000000
_cell_volume 1895.505890
_symmetry_space_group_name_H-M "C C C M"
_symmetry_group_IT_number 66
_symmetry_cell_setting 'orthorhombic'
loop_
_space_group_symop_operation_xyz
x,y,z
-x,-y,z
x,-y,1/2-z
-x,y,1/2-z
-x,-y,-z
x,y,-z
-x,y,1/2+z
x,-y,1/2+z
1/2+x,1/2+y,z
1/2-x,1/2-y,z
1/2+x,1/2-y,1/2-z
1/2-x,1/2+y,1/2-z
1/2-x,1/2-y,-z
1/2+x,1/2+y,-z
1/2-x,1/2+y,1/2+z
1/2+x,1/2-y,1/2+z
loop_
_atom_site_type_symbol
_atom_site_label
_atom_site_fract_x
_atom_site_fract_y
_atom_site_fract_z
Si Si1 0.637669 0.282107 0.781603
Si Si2 0.893745 0.950101 0.500000
Si Si3 0.897641 0.442585 0.135951
Si Si4 0.156475 0.176590 0.000000
O O1 0.750000 0.250000 0.782822
O O2 0.588704 0.178060 0.834188
O O3 0.608385 0.301145 0.636075
O O4 0.621582 0.378263 0.876211
O O5 0.828154 0.052936 0.500000
O O6 0.000000 0.000000 0.500000
O O7 0.843775 0.500000 0.250000
O O8 0.000000 0.500000 0.127833
O O9 0.851322 0.450999 0.000000
O O10 0.250000 0.250000 0.000000
#
# Coordination Sequence:
#
# PCOD9499072 Si02
#       4
#    16   8  16   8
#     4  11  25  50  73 106 147 196 246 311 381 448
#     4  12  27  47  75 108 152 204 248 304 385 463
#     4  10  23  42  70 106 143 186 242 308 368 432
#     4  10  26  47  77 108 145 192 259 310 373 455
#
# _framework density 25.323055
#
# number of rings (size 3 to 8) (size 9 to 14) (size 15 to 20)
#    0.000    1.333    1.667    1.500    2.333   13.333 
#    0.000    0.000    0.000    0.000    0.000    0.000 
#    0.000    0.000    0.000    0.000    0.000    0.000 
#
# Total GULP energy -134392.125088 kJ/mol
# GULP energy per Si atom -5599.671879 kJ/mol
# Density = 2.526542 g / cm^3
# Si number density = 25.323055 Si / 1000 Ang^3
#
#
#
# Elastic Constant Matrix: (Units=GPa)
#
#
# Indices 1 2 3 4 5 6 
#
# 1 92.7182 61.8679 25.4832 0.0000 0.0000 0.0000
# 2 61.8679 243.2149 112.4327 0.0000 0.0000 0.0000
# 3 25.4832 112.4327 308.9288 0.0000 0.0000 0.0000
# 4 0.0000 0.0000 0.0000 59.9819 0.0000 0.0000
# 5 0.0000 0.0000 0.0000 0.0000 -2.2751 0.0000
# 6 0.0000 0.0000 0.0000 0.0000 0.0000 44.5490
#
#
#
# Elastic Compliance Matrix: (Units=1/GPa)
#
#
# Indices 1 2 3 4 5 6 
#
# 1 0.012997 -0.003379 0.000158 0.000000 0.000000 0.000000
# 2 -0.003379 0.005822 -0.001840 0.000000 0.000000 0.000000
# 3 0.000158 -0.001840 0.003894 0.000000 0.000000 0.000000
# 4 0.000000 0.000000 0.000000 0.016672 0.000000 0.000000
# 5 0.000000 0.000000 0.000000 0.000000 -0.439544 0.000000
# 6 0.000000 0.000000 0.000000 0.000000 0.000000 0.022447
#
#
# Mechanical properties :
#
#
# Convention : Reuss Voigt Hill
#
# Bulk Modulus (GPa) = 79.43172 116.04773 97.73973
# Shear Modulus (GPa) = -13.75919 50.12303 18.18192
#
# Velocity S-wave (km/s) = -2.33351 4.45381 2.68246
# Velocity P-wave (km/s) = 4.91682 8.50735 6.94802
#
# Compressibility (1/GPa) = 0.01258943
#
# Stress axis : x y z
#
# Youngs Moduli (GPa) = 76.94272 171.77064 256.82746
#
# Poissons Ratio (x) = 0.58040 -0.04049
# Poissons Ratio (y) = 0.25998 0.47258
# Poissons Ratio (z) = -0.01213 0.31607
#
# Static dielectric constant tensor:
#      x y z
#    x 2.063590 0.000000 0.000000 
#    y 0.000000 1.921360 0.000000 
#    z 0.000000 0.000000 2.059770 
# 
# From -- ./inp_files/17096.got.cif
#   From: 2010.05.17/outbox.cif.g08.bks.cpg/sg66_9_cif.got.tgz:17096.got - 2010.06.03 17:51:23.
