data_PCOD9499235
_publ_section_title
;
Structure prediction by ZEFSAII (Michael W. Deem and Ramdas Pophale) SiO2 
 PCOD9499235
Probable space group: C C C M
;
_chemical_formula_sum "Si O2"
_cell_formula_units_Z 64
_cell_length_a 6.661956
_cell_length_b 26.532688
_cell_length_c 15.971490
_cell_angle_alpha 90.000000
_cell_angle_beta 90.000000
_cell_angle_gamma 90.000000
_cell_volume 2823.114184
_symmetry_space_group_name_H-M "C C C M"
_symmetry_group_IT_number 66
_symmetry_cell_setting 'orthorhombic'
loop_
_space_group_symop_operation_xyz
x,y,z
-x,-y,z
x,-y,1/2-z
-x,y,1/2-z
-x,-y,-z
x,y,-z
-x,y,1/2+z
x,-y,1/2+z
1/2+x,1/2+y,z
1/2-x,1/2-y,z
1/2+x,1/2-y,1/2-z
1/2-x,1/2+y,1/2-z
1/2-x,1/2-y,-z
1/2+x,1/2+y,-z
1/2-x,1/2+y,1/2+z
1/2+x,1/2-y,1/2+z
loop_
_atom_site_type_symbol
_atom_site_label
_atom_site_fract_x
_atom_site_fract_y
_atom_site_fract_z
Si Si1 0.500000 0.411904 0.750000
Si Si2 0.430960 0.289016 0.500000
Si Si3 0.873597 0.380437 0.000000
Si Si4 0.230336 0.494298 0.500000
Si Si5 0.129009 0.641685 0.329104
Si Si6 0.750000 0.250000 0.632435
Si Si7 0.500000 0.500000 0.641658
O O1 0.650629 0.380559 0.692437
O O2 0.397561 0.454138 0.690780
O O3 0.250000 0.250000 0.500000
O O4 0.310654 0.340979 0.500000
O O5 0.577651 0.277118 0.577193
O O6 0.016461 0.372003 0.082888
O O7 0.757498 0.433779 0.000000
O O8 0.330107 0.519754 0.579908
O O9 0.000000 0.500000 0.500000
O O10 0.149745 0.702375 0.323295
O O11 0.000000 0.623390 0.250000
#
# Coordination Sequence:
#
# PCOD9499235 Si02
#       7
#     8   8   8   8  16   8   8
#     4  11  26  46  70  98 150 184 244 309 364 450
#     4  11  22  46  70 107 146 195 241 312 374 438
#     4  12  25  47  78 106 152 194 255 317 383 461
#     4  11  23  42  72 103 135 180 244 304 371 457
#     4  12  28  45  69 111 142 200 250 307 385 444
#     4  11  26  42  70 105 150 200 248 309 370 459
#     4  10  24  46  68 102 134 190 234 304 386 427
#
# _framework density 22.670000999999999
#
# number of rings (size 3 to 8) (size 9 to 14) (size 15 to 20)
#    0.000    0.750    2.500    3.750    8.750    1.000 
#    0.000    2.500    0.000    0.000    0.000    0.000 
#    0.000    0.000    0.000    0.000    0.000    0.000 
#
# Total GULP energy -178397.682437 kJ/mol
# GULP energy per Si atom -5574.927576 kJ/mol
# Density = 2.261840 g / cm^3
# Si number density = 22.670001 Si / 1000 Ang^3
#
#
#
# Elastic Constant Matrix: (Units=GPa)
#
#
# Indices 1 2 3 4 5 6 
#
# 1 115.7663 22.8264 44.2229 0.0000 0.0000 0.0000
# 2 22.8264 128.9987 27.5420 0.0000 0.0000 0.0000
# 3 44.2229 27.5420 131.2472 0.0000 0.0000 0.0000
# 4 0.0000 0.0000 0.0000 14.9917 0.0000 0.0000
# 5 0.0000 0.0000 0.0000 0.0000 -7.1258 0.0000
# 6 0.0000 0.0000 0.0000 0.0000 0.0000 47.0855
#
#
#
# Elastic Compliance Matrix: (Units=1/GPa)
#
#
# Indices 1 2 3 4 5 6 
#
# 1 0.010063 -0.001106 -0.003158 0.000000 0.000000 0.000000
# 2 -0.001106 0.008237 -0.001356 0.000000 0.000000 0.000000
# 3 -0.003158 -0.001356 0.008968 0.000000 0.000000 0.000000
# 4 0.000000 0.000000 0.000000 0.066704 0.000000 0.000000
# 5 0.000000 0.000000 0.000000 0.000000 -0.140336 0.000000
# 6 0.000000 0.000000 0.000000 0.000000 0.000000 0.021238
#
#
# Mechanical properties :
#
#
# Convention : Reuss Voigt Hill
#
# Bulk Modulus (GPa) = 62.39509 62.79940 62.59725
# Shear Modulus (GPa) = -585.29400 29.75168 -277.77116
#
# Velocity S-wave (km/s) = -16.08541 3.62661 -11.08125
# Velocity P-wave (km/s) = 17.81584 6.73039 11.66418
#
# Compressibility (1/GPa) = 0.01602690
#
# Stress axis : x y z
#
# Youngs Moduli (GPa) = 99.37645 121.39976 111.50831
#
# Poissons Ratio (x) = 0.13430 0.35219
# Poissons Ratio (y) = 0.10994 0.15119
# Poissons Ratio (z) = 0.31387 0.16460
#
# Static dielectric constant tensor:
#      x y z
#    x 1.697120 0.000000 0.000000 
#    y 0.000000 1.685540 0.000000 
#    z 0.000000 0.000000 2.019480 
# 
# From -- ./inp_files/35111.got.cif
#   From: 2010.05.17/outbox.cif.g08.bks.cpg/sg66_18_cif.got.tgz:35111.got - 2010.06.03 17:51:23.
