data_PCOD9499507
_publ_section_title
;
Structure prediction by ZEFSAII (Michael W. Deem and Ramdas Pophale) SiO2 
 PCOD9499507
Probable space group: C C C M
;
_chemical_formula_sum "Si O2"
_cell_formula_units_Z 96
_cell_length_a 19.635262
_cell_length_b 9.208328
_cell_length_c 29.764158
_cell_angle_alpha 90.000000
_cell_angle_beta 90.000000
_cell_angle_gamma 90.000000
_cell_volume 5381.595881
_symmetry_space_group_name_H-M "C C C M"
_symmetry_group_IT_number 66
_symmetry_cell_setting 'orthorhombic'
loop_
_space_group_symop_operation_xyz
x,y,z
-x,-y,z
x,-y,1/2-z
-x,y,1/2-z
-x,-y,-z
x,y,-z
-x,y,1/2+z
x,-y,1/2+z
1/2+x,1/2+y,z
1/2-x,1/2-y,z
1/2+x,1/2-y,1/2-z
1/2-x,1/2+y,1/2-z
1/2-x,1/2-y,-z
1/2+x,1/2+y,-z
1/2-x,1/2+y,1/2+z
1/2+x,1/2-y,1/2+z
loop_
_atom_site_type_symbol
_atom_site_label
_atom_site_fract_x
_atom_site_fract_y
_atom_site_fract_z
Si Si1 0.168183 0.738869 0.866434
Si Si2 0.819615 0.840224 0.268040
Si Si3 0.071942 0.647291 0.274010
Si Si4 0.424032 0.050524 0.124350
Si Si5 0.562404 0.717690 0.051132
Si Si6 0.593889 0.621241 0.449036
O O1 0.250000 0.750000 0.868588
O O2 0.151647 0.816542 0.818703
O O3 0.130944 0.580140 0.869333
O O4 0.140100 0.821368 0.909538
O O5 0.750000 0.750000 0.266139
O O6 0.875307 0.772426 0.235367
O O7 0.805542 0.000000 0.250000
O O8 0.098095 0.500000 0.250000
O O9 0.065107 0.619295 0.326533
O O10 0.000000 0.677200 0.250000
O O11 0.406459 0.172723 0.087468
O O12 0.500000 0.000000 0.110275
O O13 0.589632 0.553125 0.054264
O O14 0.481087 0.692267 0.057202
O O15 0.573461 0.770410 0.000000
O O16 0.615925 0.657425 0.500000
#
# Coordination Sequence:
#
# PCOD9499507 Si02
#       6
#    16  16  16  16  16  16
#     4  11  24  39  58  91 124 155 202 247 300 361
#     4  11  25  42  62  85 120 164 203 241 293 368
#     4  11  21  39  59  88 124 154 194 251 306 341
#     4  12  21  37  63  90 118 158 200 251 300 357
#     4   9  20  37  62  90 116 156 204 248 299 364
#     4   9  19  39  61  87 123 156 196 250 305 358
#
# _framework density 17.838574000000001
#
# number of rings (size 3 to 8) (size 9 to 14) (size 15 to 20)
#    0.000    1.500    5.000    1.500    4.667    1.667 
#    0.000    0.833    0.000    2.000    0.000    0.000 
#    0.000    0.000    0.000    0.000    0.000    0.000 
#
# Total GULP energy -267599.695724 kJ/mol
# GULP energy per Si atom -5574.993661 kJ/mol
# Density = 1.779797 g / cm^3
# Si number density = 17.838574 Si / 1000 Ang^3
#
#
#
# Elastic Constant Matrix: (Units=GPa)
#
#
# Indices 1 2 3 4 5 6 
#
# 1 63.4219 41.4798 27.1401 0.0000 0.0000 0.0000
# 2 41.4798 102.7114 68.3884 0.0000 0.0000 0.0000
# 3 27.1401 68.3884 120.6327 0.0000 0.0000 0.0000
# 4 0.0000 0.0000 0.0000 30.0561 0.0000 0.0000
# 5 0.0000 0.0000 0.0000 0.0000 -4.4996 0.0000
# 6 0.0000 0.0000 0.0000 0.0000 0.0000 31.7641
#
#
#
# Elastic Compliance Matrix: (Units=1/GPa)
#
#
# Indices 1 2 3 4 5 6 
#
# 1 0.021428 -0.008745 0.000137 0.000000 0.000000 0.000000
# 2 -0.008745 0.019208 -0.008922 0.000000 0.000000 0.000000
# 3 0.000137 -0.008922 0.013317 0.000000 0.000000 0.000000
# 4 0.000000 0.000000 0.000000 0.033271 0.000000 0.000000
# 5 0.000000 0.000000 0.000000 0.000000 -0.222241 0.000000
# 6 0.000000 0.000000 0.000000 0.000000 0.000000 0.031482
#
#
# Mechanical properties :
#
#
# Convention : Reuss Voigt Hill
#
# Bulk Modulus (GPa) = 52.92955 62.30918 57.61936
# Shear Modulus (GPa) = -80.41649 21.44795 -29.48427
#
# Velocity S-wave (km/s) = -6.72146 3.47123 -4.06992
# Velocity P-wave (km/s) = 5.52282 7.14641 3.20700
#
# Compressibility (1/GPa) = 0.01889304
#
# Stress axis : x y z
#
# Youngs Moduli (GPa) = 46.66726 52.06161 75.09276
#
# Poissons Ratio (x) = 0.45526 -0.01025
# Poissons Ratio (y) = 0.40809 0.66997
# Poissons Ratio (z) = -0.00637 0.46449
#
# Static dielectric constant tensor:
#      x y z
#    x 1.626070 0.000000 0.000000 
#    y 0.000000 1.640520 0.000000 
#    z 0.000000 0.000000 1.604170 
# 
# From -- ./inp_files/62571.got.cif
#   From: 2010.05.17/outbox.cif.g08.bks.cpg/sg66_32_cif.got.tgz:62571.got - 2010.06.03 17:51:23.
