data_PCOD9499342
_publ_section_title
;
Structure prediction by ZEFSAII (Michael W. Deem and Ramdas Pophale) SiO2 
 PCOD9499342
Probable space group: C C C M
;
_chemical_formula_sum "Si O2"
_cell_formula_units_Z 84
_cell_length_a 10.882210
_cell_length_b 22.636460
_cell_length_c 14.718111
_cell_angle_alpha 90.000000
_cell_angle_beta 90.000000
_cell_angle_gamma 90.000000
_cell_volume 3625.581625
_symmetry_space_group_name_H-M "C C C M"
_symmetry_group_IT_number 66
_symmetry_cell_setting 'orthorhombic'
loop_
_space_group_symop_operation_xyz
x,y,z
-x,-y,z
x,-y,1/2-z
-x,y,1/2-z
-x,-y,-z
x,y,-z
-x,y,1/2+z
x,-y,1/2+z
1/2+x,1/2+y,z
1/2-x,1/2-y,z
1/2+x,1/2-y,1/2-z
1/2-x,1/2+y,1/2-z
1/2-x,1/2-y,-z
1/2+x,1/2+y,-z
1/2-x,1/2+y,1/2+z
1/2+x,1/2-y,1/2+z
loop_
_atom_site_type_symbol
_atom_site_label
_atom_site_fract_x
_atom_site_fract_y
_atom_site_fract_z
Si Si1 0.235846 0.318641 0.896436
Si Si2 0.633843 0.900144 0.741128
Si Si3 0.646756 0.205228 0.898029
Si Si4 0.890570 0.067763 0.171588
Si Si5 0.000000 0.000000 0.000000
Si Si6 0.003852 0.812047 0.856396
O O1 0.250000 0.250000 0.866751
O O2 0.162712 0.361326 0.830657
O O3 0.377535 0.339492 0.891376
O O4 0.192969 0.320680 0.000000
O O5 0.500000 0.929522 0.750000
O O6 0.622027 0.850557 0.662855
O O7 0.756195 0.937161 0.716892
O O8 0.750000 0.250000 0.858722
O O9 0.532170 0.250112 0.902153
O O10 0.682954 0.188939 0.000000
O O11 0.000000 0.063259 0.250000
O O12 0.898703 0.135561 0.135623
O O13 0.913483 0.028203 0.083096
O O14 0.000000 0.798409 0.750000
#
# Coordination Sequence:
#
# PCOD9499342 Si02
#       6
#    16  16  16  16   4  16
#     4  11  22  36  57  94 145 200 244 275 322 405
#     4  12  24  40  66 101 151 192 231 288 356 436
#     4  11  21  31  55  97 149 203 244 282 327 405
#     4  11  25  48  74 106 133 176 236 301 373 442
#     4  12  30  48  88 106 126 164 244 334 394 436
#     4  11  19  36  63  90 137 187 236 274 328 410
#
# _framework density 23.168695
#
# number of rings (size 3 to 8) (size 9 to 14) (size 15 to 20)
#    0.000    0.762    5.714    4.286    4.000    2.286 
#    0.000    0.000    0.000    3.429    0.000    0.000 
#    0.000    0.000    0.000    0.000    0.000    0.000 
#
# Total GULP energy -234229.349187 kJ/mol
# GULP energy per Si atom -5576.889266 kJ/mol
# Density = 2.311596 g / cm^3
# Si number density = 23.168695 Si / 1000 Ang^3
#
#
#
# Elastic Constant Matrix: (Units=GPa)
#
#
# Indices 1 2 3 4 5 6 
#
# 1 182.6959 33.4510 51.2971 0.0000 0.0000 0.0000
# 2 33.4510 72.4292 35.8499 0.0000 0.0000 0.0000
# 3 51.2971 35.8499 169.1843 0.0000 0.0000 0.0000
# 4 0.0000 0.0000 0.0000 -82.3843 0.0000 0.0000
# 5 0.0000 0.0000 0.0000 0.0000 6.4504 0.0000
# 6 0.0000 0.0000 0.0000 0.0000 0.0000 3.5637
#
#
#
# Elastic Compliance Matrix: (Units=1/GPa)
#
#
# Indices 1 2 3 4 5 6 
#
# 1 0.006278 -0.002187 -0.001440 0.000000 0.000000 0.000000
# 2 -0.002187 0.016186 -0.002767 0.000000 0.000000 0.000000
# 3 -0.001440 -0.002767 0.006934 0.000000 0.000000 0.000000
# 4 0.000000 0.000000 0.000000 -0.012138 0.000000 0.000000
# 5 0.000000 0.000000 0.000000 0.000000 0.155028 0.000000
# 6 0.000000 0.000000 0.000000 0.000000 0.000000 0.280605
#
#
# Mechanical properties :
#
#
# Convention : Reuss Voigt Hill
#
# Bulk Modulus (GPa) = 60.20288 73.94504 67.07396
# Shear Modulus (GPa) = 10.61081 5.77340 8.19210
#
# Velocity S-wave (km/s) = 2.14237 1.58029 1.88243
# Velocity P-wave (km/s) = 5.67104 5.94264 5.80843
#
# Compressibility (1/GPa) = 0.01661050
#
# Stress axis : x y z
#
# Youngs Moduli (GPa) = 159.27741 61.78186 144.22374
#
# Poissons Ratio (x) = 0.13510 0.20772
# Poissons Ratio (y) = 0.34830 0.39903
# Poissons Ratio (z) = 0.22940 0.17094
#
# Static dielectric constant tensor:
#      x y z
#    x 2.127960 0.000000 0.000000 
#    y 0.000000 1.866950 0.000000 
#    z 0.000000 0.000000 1.848920 
# 
# From -- ./inp_files/26560.got.cif
#   From: 2010.05.17/outbox.cif.g08.bks.cpg/sg66_14_cif.got.tgz:26560.got - 2010.06.03 17:51:23.
