data_PCOD9499172
_publ_section_title
;
Structure prediction by ZEFSAII (Michael W. Deem and Ramdas Pophale) SiO2 
 PCOD9499172
Probable space group: C C C M
;
_chemical_formula_sum "Si O2"
_cell_formula_units_Z 104
_cell_length_a 9.784938
_cell_length_b 19.611534
_cell_length_c 26.144662
_cell_angle_alpha 90.000000
_cell_angle_beta 90.000000
_cell_angle_gamma 90.000000
_cell_volume 5017.099048
_symmetry_space_group_name_H-M "C C C M"
_symmetry_group_IT_number 66
_symmetry_cell_setting 'orthorhombic'
loop_
_space_group_symop_operation_xyz
x,y,z
-x,-y,z
x,-y,1/2-z
-x,y,1/2-z
-x,-y,-z
x,y,-z
-x,y,1/2+z
x,-y,1/2+z
1/2+x,1/2+y,z
1/2-x,1/2-y,z
1/2+x,1/2-y,1/2-z
1/2-x,1/2+y,1/2-z
1/2-x,1/2-y,-z
1/2+x,1/2+y,-z
1/2-x,1/2+y,1/2+z
1/2+x,1/2-y,1/2+z
loop_
_atom_site_type_symbol
_atom_site_label
_atom_site_fract_x
_atom_site_fract_y
_atom_site_fract_z
Si Si1 0.079918 0.336528 0.800025
Si Si2 0.350850 0.534510 0.557116
Si Si3 0.245560 0.000000 0.250000
Si Si4 0.847437 0.850311 0.739252
Si Si5 0.861619 0.471312 0.356925
Si Si6 0.107021 0.773586 0.140436
Si Si7 0.625462 0.698330 0.941078
O O1 0.227112 0.319333 0.774331
O O2 0.115565 0.392206 0.842915
O O3 0.000000 0.365253 0.750000
O O4 0.978879 0.281594 0.825628
O O5 0.500000 0.500000 0.562365
O O6 0.301267 0.514964 0.500000
O O7 0.259460 0.512869 0.604653
O O8 0.344962 0.617221 0.559174
O O9 0.161040 0.069588 0.248662
O O10 0.332548 0.995912 0.198349
O O11 0.837262 0.831139 0.679875
O O12 0.000000 0.825655 0.750000
O O13 0.000000 0.500000 0.379534
O O14 0.250000 0.750000 0.116358
O O15 0.999644 0.794361 0.097678
O O16 0.750000 0.750000 0.926161
O O17 0.591116 0.716440 0.000000
#
# Coordination Sequence:
#
# PCOD9499172 Si02
#       7
#    16  16   8  16  16  16  16
#     4  11  23  44  58  92 140 175 212 267 327 397
#     4  10  24  45  68  96 129 167 218 284 340 391
#     4  10  24  42  60  96 136 172 216 262 328 396
#     4  11  25  39  62  92 130 175 218 265 313 390
#     4  11  23  39  67  92 130 177 216 264 326 396
#     4  12  26  39  66  96 129 173 219 273 327 392
#     4  10  24  47  71  95 127 170 221 279 347 408
#
# _framework density 20.729109999999999
#
# number of rings (size 3 to 8) (size 9 to 14) (size 15 to 20)
#    0.000    1.231    1.538    3.692    8.615    0.615 
#    0.000    0.000    0.000    5.538    0.000    0.000 
#    0.000    0.000    0.000    0.000    0.000    0.000 
#
# Total GULP energy -290051.011919 kJ/mol
# GULP energy per Si atom -5577.904075 kJ/mol
# Density = 2.068193 g / cm^3
# Si number density = 20.729110 Si / 1000 Ang^3
#
#
#
# Elastic Constant Matrix: (Units=GPa)
#
#
# Indices 1 2 3 4 5 6 
#
# 1 122.8008 22.3151 48.0125 0.0000 0.0000 0.0000
# 2 22.3151 59.7299 15.7602 0.0000 0.0000 0.0000
# 3 48.0125 15.7602 98.7800 0.0000 0.0000 0.0000
# 4 0.0000 0.0000 0.0000 -13.1491 0.0000 0.0000
# 5 0.0000 0.0000 0.0000 0.0000 -653.5597 0.0000
# 6 0.0000 0.0000 0.0000 0.0000 0.0000 17.0017
#
#
#
# Elastic Compliance Matrix: (Units=1/GPa)
#
#
# Indices 1 2 3 4 5 6 
#
# 1 0.010448 -0.002676 -0.004651 0.000000 0.000000 0.000000
# 2 -0.002676 0.018163 -0.001597 0.000000 0.000000 0.000000
# 3 -0.004651 -0.001597 0.012639 0.000000 0.000000 0.000000
# 4 0.000000 0.000000 0.000000 -0.076051 0.000000 0.000000
# 5 0.000000 0.000000 0.000000 0.000000 -0.001530 0.000000
# 6 0.000000 0.000000 0.000000 0.000000 0.000000 0.058818
#
#
# Mechanical properties :
#
#
# Convention : Reuss Voigt Hill
#
# Bulk Modulus (GPa) = 42.73289 50.38737 46.56013
# Shear Modulus (GPa) = 103.86997 -116.92655 -6.52829
#
# Velocity S-wave (km/s) = 7.08640 -7.51860 -1.77656
# Velocity P-wave (km/s) = 9.36033 7.14228 4.27806
#
# Compressibility (1/GPa) = 0.02340118
#
# Stress axis : x y z
#
# Youngs Moduli (GPa) = 95.71057 55.05618 79.11914
#
# Poissons Ratio (x) = 0.14734 0.36802
# Poissons Ratio (y) = 0.25613 0.12637
# Poissons Ratio (z) = 0.44519 0.08793
#
# Static dielectric constant tensor:
#      x y z
#    x 1.707000 0.000000 0.000000 
#    y 0.000000 1.853680 0.000000 
#    z 0.000000 0.000000 1.744830 
# 
# From -- ./inp_files/62684.got.cif
#   From: 2010.05.17/outbox.cif.g08.bks.cpg/sg66_32_cif.got.tgz:62684.got - 2010.06.03 17:51:23.
