data_PCOD9499664
_publ_section_title
;
Structure prediction by ZEFSAII (Michael W. Deem and Ramdas Pophale) SiO2 
 PCOD9499664
Probable space group: C C C M
;
_chemical_formula_sum "Si O2"
_cell_formula_units_Z 40
_cell_length_a 24.385560
_cell_length_b 4.912032
_cell_length_c 14.657733
_cell_angle_alpha 90.000000
_cell_angle_beta 90.000000
_cell_angle_gamma 90.000000
_cell_volume 1755.742117
_symmetry_space_group_name_H-M "C C C M"
_symmetry_group_IT_number 66
_symmetry_cell_setting 'orthorhombic'
loop_
_space_group_symop_operation_xyz
x,y,z
-x,-y,z
x,-y,1/2-z
-x,y,1/2-z
-x,-y,-z
x,y,-z
-x,y,1/2+z
x,-y,1/2+z
1/2+x,1/2+y,z
1/2-x,1/2-y,z
1/2+x,1/2-y,1/2-z
1/2-x,1/2+y,1/2-z
1/2-x,1/2-y,-z
1/2+x,1/2+y,-z
1/2-x,1/2+y,1/2+z
1/2+x,1/2-y,1/2+z
loop_
_atom_site_type_symbol
_atom_site_label
_atom_site_fract_x
_atom_site_fract_y
_atom_site_fract_z
Si Si1 0.626237 0.900243 0.848864
Si Si2 0.196216 0.094070 0.605303
Si Si3 0.459250 0.749893 0.500000
O O1 0.674198 0.327795 0.656777
O O2 0.607163 0.000000 0.750000
O O3 0.650126 0.172258 0.894418
O O4 0.579964 0.768678 0.912007
O O5 0.206998 0.010786 0.500000
O O6 0.250000 0.250000 0.641065
O O7 0.500000 0.500000 0.500000
O O8 0.500000 0.000000 0.500000
#
# Coordination Sequence:
#
# PCOD9499664 Si02
#       3
#    16  16   8
#     4  12  25  45  72 108 145 187 241 298 359 431
#     4  11  22  42  72 106 149 194 233 282 354 437
#     4  12  26  48  75 100 143 188 244 312 370 422
#
# _framework density 22.782389999999999
#
# number of rings (size 3 to 8) (size 9 to 14) (size 15 to 20)
#    0.000    0.400    4.000    4.800    0.000    7.200 
#    0.000    2.000    0.000    0.000    0.000    0.000 
#    0.000    0.000    0.000    0.000    0.000    0.000 
#
# Total GULP energy -111999.699921 kJ/mol
# GULP energy per Si atom -5599.984996 kJ/mol
# Density = 2.273054 g / cm^3
# Si number density = 22.782390 Si / 1000 Ang^3
#
#
#
# Elastic Constant Matrix: (Units=GPa)
#
#
# Indices 1 2 3 4 5 6 
#
# 1 111.2375 48.7637 62.8908 0.0000 0.0000 0.0000
# 2 48.7637 168.0724 43.2184 0.0000 0.0000 0.0000
# 3 62.8908 43.2184 153.1743 0.0000 0.0000 0.0000
# 4 0.0000 0.0000 0.0000 12.2305 0.0000 0.0000
# 5 0.0000 0.0000 0.0000 0.0000 2.8671 0.0000
# 6 0.0000 0.0000 0.0000 0.0000 0.0000 64.5763
#
#
#
# Elastic Compliance Matrix: (Units=1/GPa)
#
#
# Indices 1 2 3 4 5 6 
#
# 1 0.012619 -0.002511 -0.004473 0.000000 0.000000 0.000000
# 2 -0.002511 0.006915 -0.000920 0.000000 0.000000 0.000000
# 3 -0.004473 -0.000920 0.008625 0.000000 0.000000 0.000000
# 4 0.000000 0.000000 0.000000 0.081763 0.000000 0.000000
# 5 0.000000 0.000000 0.000000 0.000000 0.348781 0.000000
# 6 0.000000 0.000000 0.000000 0.000000 0.000000 0.015486
#
#
# Mechanical properties :
#
#
# Convention : Reuss Voigt Hill
#
# Bulk Modulus (GPa) = 80.96547 82.46999 81.71773
# Shear Modulus (GPa) = 10.11914 34.44220 22.28067
#
# Velocity S-wave (km/s) = 2.10981 3.89239 3.13066
# Velocity P-wave (km/s) = 6.44599 7.51522 7.00105
#
# Compressibility (1/GPa) = 0.01235094
#
# Stress axis : x y z
#
# Youngs Moduli (GPa) = 79.24304 144.61367 115.94815
#
# Poissons Ratio (x) = 0.36315 0.51861
# Poissons Ratio (y) = 0.19899 0.10667
# Poissons Ratio (z) = 0.35444 0.13305
#
# Static dielectric constant tensor:
#      x y z
#    x 1.842430 0.000000 0.000000 
#    y 0.000000 1.799290 0.000000 
#    z 0.000000 0.000000 2.052330 
# 
# From -- ./inp_files/31692.got.cif
#   From: 2010.05.17/outbox.cif.g08.bks.cpg/sg66_16_cif.got.tgz:31692.got - 2010.06.03 17:51:23.
