data_PCOD9499750
_publ_section_title
;
Structure prediction by ZEFSAII (Michael W. Deem and Ramdas Pophale) SiO2 
 PCOD9499750
Probable space group: C C C M
;
_chemical_formula_sum "Si O2"
_cell_formula_units_Z 44
_cell_length_a 4.753782
_cell_length_b 17.372667
_cell_length_c 21.782974
_cell_angle_alpha 90.000000
_cell_angle_beta 90.000000
_cell_angle_gamma 90.000000
_cell_volume 1798.965895
_symmetry_space_group_name_H-M "C C C M"
_symmetry_group_IT_number 66
_symmetry_cell_setting 'orthorhombic'
loop_
_space_group_symop_operation_xyz
x,y,z
-x,-y,z
x,-y,1/2-z
-x,y,1/2-z
-x,-y,-z
x,y,-z
-x,y,1/2+z
x,-y,1/2+z
1/2+x,1/2+y,z
1/2-x,1/2-y,z
1/2+x,1/2-y,1/2-z
1/2-x,1/2+y,1/2-z
1/2-x,1/2-y,-z
1/2+x,1/2+y,-z
1/2-x,1/2+y,1/2+z
1/2+x,1/2-y,1/2+z
loop_
_atom_site_type_symbol
_atom_site_label
_atom_site_fract_x
_atom_site_fract_y
_atom_site_fract_z
Si Si1 0.630089 0.619421 0.350228
Si Si2 0.383806 0.087012 0.070035
Si Si3 0.000000 0.000000 0.750000
Si Si4 0.750000 0.750000 0.789043
O O1 0.428566 0.587439 0.403865
O O2 0.665878 0.556276 0.296354
O O3 0.448170 0.689452 0.323557
O O4 0.921116 0.636218 0.384033
O O5 0.500000 0.000000 0.072509
O O6 0.395470 0.114256 0.000000
O O7 0.500000 0.792118 0.750000
#
# Coordination Sequence:
#
# PCOD9499750 Si02
#       4
#    16  16   4   8
#     4  12  25  42  68 101 134 177 225 286 340 413
#     4  11  23  43  68  97 131 175 231 288 339 395
#     4  12  24  42  70 102 136 168 240 276 340 410
#     4  12  26  44  65 100 149 182 220 276 362 420
#
# _framework density 24.458499
#
# number of rings (size 3 to 8) (size 9 to 14) (size 15 to 20)
#    0.000    0.364    5.455    3.273    0.000    4.364 
#    0.000    5.455    0.000    0.000    0.000    0.000 
#    0.000    0.000    0.000    0.000    0.000    0.000 
#
# Total GULP energy -123139.489587 kJ/mol
# GULP energy per Si atom -5597.249527 kJ/mol
# Density = 2.440283 g / cm^3
# Si number density = 24.458499 Si / 1000 Ang^3
#
#
#
# Elastic Constant Matrix: (Units=GPa)
#
#
# Indices 1 2 3 4 5 6 
#
# 1 152.7995 18.0120 44.1894 0.0000 0.0000 0.0000
# 2 18.0120 91.4527 38.2589 0.0000 0.0000 0.0000
# 3 44.1894 38.2589 169.3736 0.0000 0.0000 0.0000
# 4 0.0000 0.0000 0.0000 19.8581 0.0000 0.0000
# 5 0.0000 0.0000 0.0000 0.0000 16.3209 0.0000
# 6 0.0000 0.0000 0.0000 0.0000 0.0000 39.4042
#
#
#
# Elastic Compliance Matrix: (Units=1/GPa)
#
#
# Indices 1 2 3 4 5 6 
#
# 1 0.007118 -0.000690 -0.001701 0.000000 0.000000 0.000000
# 2 -0.000690 0.012143 -0.002563 0.000000 0.000000 0.000000
# 3 -0.001701 -0.002563 0.006927 0.000000 0.000000 0.000000
# 4 0.000000 0.000000 0.000000 0.050357 0.000000 0.000000
# 5 0.000000 0.000000 0.000000 0.000000 0.061271 0.000000
# 6 0.000000 0.000000 0.000000 0.000000 0.000000 0.025378
#
#
# Mechanical properties :
#
#
# Convention : Reuss Voigt Hill
#
# Bulk Modulus (GPa) = 61.42843 68.28293 64.85568
# Shear Modulus (GPa) = 28.00679 35.99436 32.00057
#
# Velocity S-wave (km/s) = 3.38757 3.84037 3.62105
# Velocity P-wave (km/s) = 6.36166 6.90240 6.63754
#
# Compressibility (1/GPa) = 0.01627911
#
# Stress axis : x y z
#
# Youngs Moduli (GPa) = 140.49179 82.35413 144.36640
#
# Poissons Ratio (x) = 0.05684 0.24559
# Poissons Ratio (y) = 0.09697 0.36998
# Poissons Ratio (z) = 0.23899 0.21105
#
# Static dielectric constant tensor:
#      x y z
#    x 1.916900 0.000000 0.000000 
#    y 0.000000 1.988910 0.000000 
#    z 0.000000 0.000000 2.021100 
# 
# From -- ./inp_files/53721.got.cif
#   From: 2010.05.17/outbox.cif.g08.bks.cpg/sg66_27_cif.got.tgz:53721.got - 2010.06.03 17:51:23.
