data_PCOD9499168
_publ_section_title
;
Structure prediction by ZEFSAII (Michael W. Deem and Ramdas Pophale) SiO2 
 PCOD9499168
Probable space group: C C C M
;
_chemical_formula_sum "Si O2"
_cell_formula_units_Z 88
_cell_length_a 23.068006
_cell_length_b 8.058635
_cell_length_c 23.406319
_cell_angle_alpha 90.000000
_cell_angle_beta 90.000000
_cell_angle_gamma 90.000000
_cell_volume 4351.156069
_symmetry_space_group_name_H-M "C C C M"
_symmetry_group_IT_number 66
_symmetry_cell_setting 'orthorhombic'
loop_
_space_group_symop_operation_xyz
x,y,z
-x,-y,z
x,-y,1/2-z
-x,y,1/2-z
-x,-y,-z
x,y,-z
-x,y,1/2+z
x,-y,1/2+z
1/2+x,1/2+y,z
1/2-x,1/2-y,z
1/2+x,1/2-y,1/2-z
1/2-x,1/2+y,1/2-z
1/2-x,1/2-y,-z
1/2+x,1/2+y,-z
1/2-x,1/2+y,1/2+z
1/2+x,1/2-y,1/2+z
loop_
_atom_site_type_symbol
_atom_site_label
_atom_site_fract_x
_atom_site_fract_y
_atom_site_fract_z
Si Si1 0.750000 0.250000 0.898986
Si Si2 0.313817 0.678013 0.280288
Si Si3 0.008839 0.298915 0.684721
Si Si4 0.257683 0.502466 0.000000
Si Si5 0.892060 0.719277 0.126547
Si Si6 0.350505 0.790358 0.500000
Si Si7 0.363270 0.848317 0.172006
O O1 0.693860 0.209865 0.861318
O O2 0.733592 0.396630 0.942115
O O3 0.310275 0.500000 0.250000
O O4 0.250000 0.750000 0.289738
O O5 0.347269 0.663328 0.340002
O O6 0.347878 0.803724 0.237727
O O7 0.073732 0.263790 0.663248
O O8 0.000000 0.500000 0.685813
O O9 0.000000 0.241177 0.750000
O O10 0.956731 0.235910 0.645868
O O11 0.302885 0.354342 0.000000
O O12 0.190143 0.452146 0.000000
O O13 0.874558 0.537258 0.151753
O O14 0.885421 0.717651 0.058762
#
# Coordination Sequence:
#
# PCOD9499168 Si02
#       7
#     8  16  16   8  16   8  16
#     4  11  22  40  64  92 128 159 216 264 324 383
#     4  12  26  38  61  97 131 164 207 270 330 382
#     4   9  18  37  63  92 125 167 210 260 316 379
#     4  10  24  42  60  87 127 175 207 259 315 390
#     4  11  23  42  65  92 129 169 218 259 313 380
#     4  11  24  40  63  92 125 168 216 256 315 380
#     4  11  21  39  66  97 123 162 213 267 325 376
#
# _framework density 20.224511
#
# number of rings (size 3 to 8) (size 9 to 14) (size 15 to 20)
#    0.000    1.273    4.545    1.636    5.091    0.000 
#    0.000    7.727    0.000    1.091    0.000    0.000 
#    0.000    0.000    0.000    0.000    0.000    0.000 
#
# Total GULP energy -245759.874958 kJ/mol
# GULP energy per Si atom -5585.451704 kJ/mol
# Density = 2.017848 g / cm^3
# Si number density = 20.224511 Si / 1000 Ang^3
#
#
#
# Elastic Constant Matrix: (Units=GPa)
#
#
# Indices 1 2 3 4 5 6 
#
# 1 183.0362 18.4963 68.8946 0.0000 0.0000 0.0000
# 2 18.4963 33.7295 18.3221 0.0000 0.0000 0.0000
# 3 68.8946 18.3221 153.7120 0.0000 0.0000 0.0000
# 4 0.0000 0.0000 0.0000 22.1502 0.0000 0.0000
# 5 0.0000 0.0000 0.0000 0.0000 28.8962 0.0000
# 6 0.0000 0.0000 0.0000 0.0000 0.0000 14.3103
#
#
#
# Elastic Compliance Matrix: (Units=1/GPa)
#
#
# Indices 1 2 3 4 5 6 
#
# 1 0.006720 -0.002191 -0.002751 0.000000 0.000000 0.000000
# 2 -0.002191 0.032414 -0.002882 0.000000 0.000000 0.000000
# 3 -0.002751 -0.002882 0.008082 0.000000 0.000000 0.000000
# 4 0.000000 0.000000 0.000000 0.045146 0.000000 0.000000
# 5 0.000000 0.000000 0.000000 0.000000 0.034607 0.000000
# 6 0.000000 0.000000 0.000000 0.000000 0.000000 0.069880
#
#
# Mechanical properties :
#
#
# Convention : Reuss Voigt Hill
#
# Bulk Modulus (GPa) = 31.67587 64.65594 48.16590
# Shear Modulus (GPa) = 22.41951 30.72231 26.57091
#
# Velocity S-wave (km/s) = 3.33307 3.90174 3.62857
# Velocity P-wave (km/s) = 5.52346 7.23441 6.43604
#
# Compressibility (1/GPa) = 0.03156977
#
# Stress axis : x y z
#
# Youngs Moduli (GPa) = 148.80449 30.85042 123.72960
#
# Poissons Ratio (x) = 0.06759 0.34037
# Poissons Ratio (y) = 0.32601 0.35656
# Poissons Ratio (z) = 0.40935 0.08890
#
# Static dielectric constant tensor:
#      x y z
#    x 1.700900 0.000000 0.000000 
#    y 0.000000 1.790340 0.000000 
#    z 0.000000 0.000000 1.699130 
# 
# From -- ./inp_files/59412.got.cif
#   From: 2010.05.17/outbox.cif.g08.bks.cpg/sg66_30_cif.got.tgz:59412.got - 2010.06.03 17:51:23.
