data_PCOD9499576
_publ_section_title
;
Structure prediction by ZEFSAII (Michael W. Deem and Ramdas Pophale) SiO2 
 PCOD9499576
Probable space group: C C C M
;
_chemical_formula_sum "Si O2"
_cell_formula_units_Z 80
_cell_length_a 23.002665
_cell_length_b 11.417296
_cell_length_c 16.053943
_cell_angle_alpha 90.000000
_cell_angle_beta 90.000000
_cell_angle_gamma 90.000000
_cell_volume 4216.218716
_symmetry_space_group_name_H-M "C C C M"
_symmetry_group_IT_number 66
_symmetry_cell_setting 'orthorhombic'
loop_
_space_group_symop_operation_xyz
x,y,z
-x,-y,z
x,-y,1/2-z
-x,y,1/2-z
-x,-y,-z
x,y,-z
-x,y,1/2+z
x,-y,1/2+z
1/2+x,1/2+y,z
1/2-x,1/2-y,z
1/2+x,1/2-y,1/2-z
1/2-x,1/2+y,1/2-z
1/2-x,1/2-y,-z
1/2+x,1/2+y,-z
1/2-x,1/2+y,1/2+z
1/2+x,1/2-y,1/2+z
loop_
_atom_site_type_symbol
_atom_site_label
_atom_site_fract_x
_atom_site_fract_y
_atom_site_fract_z
Si Si1 0.557661 0.643689 0.854072
Si Si2 0.168030 0.730284 0.402034
Si Si3 0.302894 0.322296 0.404898
Si Si4 0.428009 0.375026 0.654162
Si Si5 0.255916 0.443376 0.841366
O O1 0.600839 0.740429 0.889037
O O2 0.564761 0.634807 0.753912
O O3 0.490798 0.667784 0.877878
O O4 0.574908 0.510043 0.877957
O O5 0.182139 0.739214 0.500000
O O6 0.193635 0.608440 0.368092
O O7 0.200915 0.833454 0.351598
O O8 0.308350 0.282537 0.500000
O O9 0.250000 0.250000 0.363528
O O10 0.367097 0.314922 0.366958
O O11 0.280900 0.455498 0.400161
O O12 0.256328 0.500000 0.750000
#
# Coordination Sequence:
#
# PCOD9499576 Si02
#       5
#    16  16  16  16  16
#     4   9  18  33  57  83 113 150 184 244 287 343
#     4  11  22  37  59  88 120 152 194 252 300 344
#     4  11  23  36  54  82 118 150 183 234 288 347
#     4   9  18  34  54  83 118 147 191 231 290 350
#     4  11  23  36  56  81 116 154 194 233 286 352
#
# _framework density 18.974347999999999
#
# number of rings (size 3 to 8) (size 9 to 14) (size 15 to 20)
#    0.000    1.800    2.000    4.800    5.600    0.800 
#    0.000    2.000    0.000    1.200    0.000    4.200 
#    0.000    0.000    0.000    0.000    0.000    0.000 
#
# Total GULP energy -222994.676312 kJ/mol
# GULP energy per Si atom -5574.866908 kJ/mol
# Density = 1.893116 g / cm^3
# Si number density = 18.974348 Si / 1000 Ang^3
#
#
#
# Elastic Constant Matrix: (Units=GPa)
#
#
# Indices 1 2 3 4 5 6 
#
# 1 187.5620 38.0248 33.2309 0.0000 0.0000 0.0000
# 2 38.0248 36.7872 15.9273 0.0000 0.0000 0.0000
# 3 33.2309 15.9273 73.5347 0.0000 0.0000 0.0000
# 4 0.0000 0.0000 0.0000 32.3400 0.0000 0.0000
# 5 0.0000 0.0000 0.0000 0.0000 -246.9013 0.0000
# 6 0.0000 0.0000 0.0000 0.0000 0.0000 37.2063
#
#
#
# Elastic Compliance Matrix: (Units=1/GPa)
#
#
# Indices 1 2 3 4 5 6 
#
# 1 0.006943 -0.006420 -0.001747 0.000000 0.000000 0.000000
# 2 -0.006420 0.035933 -0.004882 0.000000 0.000000 0.000000
# 3 -0.001747 -0.004882 0.015446 0.000000 0.000000 0.000000
# 4 0.000000 0.000000 0.000000 0.030921 0.000000 0.000000
# 5 0.000000 0.000000 0.000000 0.000000 -0.004050 0.000000
# 6 0.000000 0.000000 0.000000 0.000000 0.000000 0.026877
#
#
# Mechanical properties :
#
#
# Convention : Reuss Voigt Hill
#
# Bulk Modulus (GPa) = 31.03247 52.47220 41.75233
# Shear Modulus (GPa) = 33.57781 -21.42428 6.07677
#
# Velocity S-wave (km/s) = 4.21128 -3.36388 1.79153
# Velocity P-wave (km/s) = 6.32747 3.55341 5.13145
#
# Compressibility (1/GPa) = 0.03222431
#
# Stress axis : x y z
#
# Youngs Moduli (GPa) = 144.03882 27.82976 64.74243
#
# Poissons Ratio (x) = 0.17866 0.11310
# Poissons Ratio (y) = 0.92470 0.31605
# Poissons Ratio (z) = 0.25162 0.13586
#
# Static dielectric constant tensor:
#      x y z
#    x 1.711150 0.000000 0.000000 
#    y 0.000000 1.652300 0.000000 
#    z 0.000000 0.000000 1.698550 
# 
# From -- ./inp_files/32106.got.cif
#   From: 2010.05.17/outbox.cif.g08.bks.cpg/sg66_17_cif.got.tgz:32106.got - 2010.06.03 17:51:23.
