data_PCOD9499194
_publ_section_title
;
Structure prediction by ZEFSAII (Michael W. Deem and Ramdas Pophale) SiO2 
 PCOD9499194
Probable space group: C C C M
;
_chemical_formula_sum "Si O2"
_cell_formula_units_Z 64
_cell_length_a 13.198740
_cell_length_b 11.774632
_cell_length_c 18.129751
_cell_angle_alpha 90.000000
_cell_angle_beta 90.000000
_cell_angle_gamma 90.000000
_cell_volume 2817.550157
_symmetry_space_group_name_H-M "C C C M"
_symmetry_group_IT_number 66
_symmetry_cell_setting 'orthorhombic'
loop_
_space_group_symop_operation_xyz
x,y,z
-x,-y,z
x,-y,1/2-z
-x,y,1/2-z
-x,-y,-z
x,y,-z
-x,y,1/2+z
x,-y,1/2+z
1/2+x,1/2+y,z
1/2-x,1/2-y,z
1/2+x,1/2-y,1/2-z
1/2-x,1/2+y,1/2-z
1/2-x,1/2-y,-z
1/2+x,1/2+y,-z
1/2-x,1/2+y,1/2+z
1/2+x,1/2-y,1/2+z
loop_
_atom_site_type_symbol
_atom_site_label
_atom_site_fract_x
_atom_site_fract_y
_atom_site_fract_z
Si Si1 0.687840 0.645401 0.913843
Si Si2 0.186535 0.071982 0.318865
Si Si3 0.909182 0.619696 0.293282
Si Si4 0.041907 0.233406 0.586134
O O1 0.750000 0.750000 0.880854
O O2 0.714355 0.528486 0.875254
O O3 0.570362 0.680917 0.908958
O O4 0.713691 0.634809 0.000000
O O5 0.288524 0.136918 0.294663
O O6 0.111900 0.155011 0.362010
O O7 0.142511 0.000000 0.250000
O O8 0.908319 0.500000 0.250000
O O9 0.946006 0.642003 0.377083
O O10 0.000000 0.686177 0.250000
O O11 0.071678 0.232147 0.500000
#
# Coordination Sequence:
#
# PCOD9499194 Si02
#       4
#    16  16  16  16
#     4  10  24  43  67 101 143 187 233 291 362 433
#     4  11  25  41  70 105 138 187 236 299 358 432
#     4  10  25  44  68 100 139 179 234 297 366 439
#     4  11  25  46  74 104 141 189 242 301 363 435
#
# _framework density 22.714769
#
# number of rings (size 3 to 8) (size 9 to 14) (size 15 to 20)
#    0.000    1.500    0.000    2.250   14.000    6.000 
#    0.000    2.500    0.000    0.000    0.000    0.000 
#    0.000    0.000    0.000    0.000    0.000    0.000 
#
# Total GULP energy -178303.818720 kJ/mol
# GULP energy per Si atom -5571.994335 kJ/mol
# Density = 2.266307 g / cm^3
# Si number density = 22.714769 Si / 1000 Ang^3
#
#
#
# Elastic Constant Matrix: (Units=GPa)
#
#
# Indices 1 2 3 4 5 6 
#
# 1 111.3921 37.5669 54.5848 0.0000 0.0000 0.0000
# 2 37.5669 110.9229 50.5459 0.0000 0.0000 0.0000
# 3 54.5848 50.5459 151.7624 0.0000 0.0000 0.0000
# 4 0.0000 0.0000 0.0000 45.6040 0.0000 0.0000
# 5 0.0000 0.0000 0.0000 0.0000 21.5971 0.0000
# 6 0.0000 0.0000 0.0000 0.0000 0.0000 20.7017
#
#
#
# Elastic Compliance Matrix: (Units=1/GPa)
#
#
# Indices 1 2 3 4 5 6 
#
# 1 0.011394 -0.002348 -0.003316 0.000000 0.000000 0.000000
# 2 -0.002348 0.011112 -0.002857 0.000000 0.000000 0.000000
# 3 -0.003316 -0.002857 0.008733 0.000000 0.000000 0.000000
# 4 0.000000 0.000000 0.000000 0.021928 0.000000 0.000000
# 5 0.000000 0.000000 0.000000 0.000000 0.046303 0.000000
# 6 0.000000 0.000000 0.000000 0.000000 0.000000 0.048305
#
#
# Mechanical properties :
#
#
# Convention : Reuss Voigt Hill
#
# Bulk Modulus (GPa) = 70.42976 73.27472 71.85224
# Shear Modulus (GPa) = 29.48996 33.00588 31.24792
#
# Velocity S-wave (km/s) = 3.60706 3.81604 3.71302
# Velocity P-wave (km/s) = 6.95854 7.19339 7.07694
#
# Compressibility (1/GPa) = 0.01419854
#
# Stress axis : x y z
#
# Youngs Moduli (GPa) = 87.76479 89.99204 114.50294
#
# Poissons Ratio (x) = 0.21128 0.37971
# Poissons Ratio (y) = 0.20605 0.32708
# Poissons Ratio (z) = 0.29105 0.25707
#
# Static dielectric constant tensor:
#      x y z
#    x 1.888970 0.000000 0.000000 
#    y 0.000000 2.006640 0.000000 
#    z 0.000000 0.000000 1.858930 
# 
# From -- ./inp_files/39791.got.cif
#   From: 2010.05.17/outbox.cif.g08.bks.cpg/sg66_20_cif.got.tgz:39791.got - 2010.06.03 17:51:23.
