data_PCOD9499888
_publ_section_title
;
Structure prediction by ZEFSAII (Michael W. Deem and Ramdas Pophale) SiO2 
 PCOD9499888
Probable space group: C C C M
;
_chemical_formula_sum "Si O2"
_cell_formula_units_Z 72
_cell_length_a 28.047664
_cell_length_b 5.130046
_cell_length_c 22.753129
_cell_angle_alpha 90.000000
_cell_angle_beta 90.000000
_cell_angle_gamma 90.000000
_cell_volume 3273.852317
_symmetry_space_group_name_H-M "C C C M"
_symmetry_group_IT_number 66
_symmetry_cell_setting 'orthorhombic'
loop_
_space_group_symop_operation_xyz
x,y,z
-x,-y,z
x,-y,1/2-z
-x,y,1/2-z
-x,-y,-z
x,y,-z
-x,y,1/2+z
x,-y,1/2+z
1/2+x,1/2+y,z
1/2-x,1/2-y,z
1/2+x,1/2-y,1/2-z
1/2-x,1/2+y,1/2-z
1/2-x,1/2-y,-z
1/2+x,1/2+y,-z
1/2-x,1/2+y,1/2+z
1/2+x,1/2-y,1/2+z
loop_
_atom_site_type_symbol
_atom_site_label
_atom_site_fract_x
_atom_site_fract_y
_atom_site_fract_z
Si Si1 0.301674 0.500000 0.750000
Si Si2 0.554190 0.393142 0.432983
Si Si3 0.630807 0.000000 0.250000
Si Si4 0.750000 0.250000 0.650882
Si Si5 0.402121 0.124829 0.377968
Si Si6 0.299573 0.085496 0.568757
O O1 0.334861 0.249541 0.752048
O O2 0.267925 0.524834 0.693698
O O3 0.500000 0.500000 0.436221
O O4 0.573516 0.425856 0.500000
O O5 0.567786 0.098137 0.413188
O O6 0.575338 0.591959 0.385576
O O7 0.602274 0.030834 0.189268
O O8 0.791690 0.329519 0.607574
O O9 0.349714 0.177773 0.405862
O O10 0.304257 0.032161 0.500000
O O11 0.250000 0.250000 0.575563
#
# Coordination Sequence:
#
# PCOD9499888 Si02
#       6
#     8  16   8   8  16  16
#     4  12  25  42  66  92 140 190 250 286 334 397
#     4  11  25  48  77 106 135 175 232 296 357 422
#     4  12  25  46  65 104 137 188 233 290 341 427
#     4  12  25  40  64  94 133 192 240 290 330 406
#     4  12  25  46  72 103 142 185 233 285 354 423
#     4  11  25  42  65 100 144 187 232 288 347 414
#
# _framework density 21.992438
#
# number of rings (size 3 to 8) (size 9 to 14) (size 15 to 20)
#    0.000    0.444    2.222    6.333    4.667    1.778 
#    0.000    3.333    0.000    0.000    0.000    0.000 
#    0.000    0.000    0.000    0.000    0.000    0.000 
#
# Total GULP energy -201061.887989 kJ/mol
# GULP energy per Si atom -5585.052444 kJ/mol
# Density = 2.194238 g / cm^3
# Si number density = 21.992438 Si / 1000 Ang^3
#
#
#
# Elastic Constant Matrix: (Units=GPa)
#
#
# Indices 1 2 3 4 5 6 
#
# 1 50.1137 -8.1624 7.4122 0.0000 0.0000 0.0000
# 2 -8.1624 91.4160 0.8936 0.0000 0.0000 0.0000
# 3 7.4122 0.8936 163.6321 0.0000 0.0000 0.0000
# 4 0.0000 0.0000 0.0000 55.0599 0.0000 0.0000
# 5 0.0000 0.0000 0.0000 0.0000 19.0670 0.0000
# 6 0.0000 0.0000 0.0000 0.0000 0.0000 41.8702
#
#
#
# Elastic Compliance Matrix: (Units=1/GPa)
#
#
# Indices 1 2 3 4 5 6 
#
# 1 0.020391 0.001830 -0.000934 0.000000 0.000000 0.000000
# 2 0.001830 0.011104 -0.000144 0.000000 0.000000 0.000000
# 3 -0.000934 -0.000144 0.006154 0.000000 0.000000 0.000000
# 4 0.000000 0.000000 0.000000 0.018162 0.000000 0.000000
# 5 0.000000 0.000000 0.000000 0.000000 0.052447 0.000000
# 6 0.000000 0.000000 0.000000 0.000000 0.000000 0.023883
#
#
# Mechanical properties :
#
#
# Convention : Reuss Voigt Hill
#
# Bulk Modulus (GPa) = 25.54009 33.93873 29.73941
# Shear Modulus (GPa) = 34.79786 43.53398 39.16592
#
# Velocity S-wave (km/s) = 3.98208 4.45398 4.22463
# Velocity P-wave (km/s) = 5.72547 6.47426 6.11135
#
# Compressibility (1/GPa) = 0.03915412
#
# Stress axis : x y z
#
# Youngs Moduli (GPa) = 49.04184 90.05932 162.48681
#
# Poissons Ratio (x) = -0.16479 0.15171
# Poissons Ratio (y) = -0.08974 0.02332
# Poissons Ratio (z) = 0.04579 0.01293
#
# Static dielectric constant tensor:
#      x y z
#    x 1.762620 0.000000 0.000000 
#    y 0.000000 1.826070 0.000000 
#    z 0.000000 0.000000 1.664360 
# 
# From -- ./inp_files/60053.got.cif
#   From: 2010.05.17/outbox.cif.g08.bks.cpg/sg66_31_cif.got.tgz:60053.got - 2010.06.03 17:51:23.
