data_PCOD9499785
_publ_section_title
;
Structure prediction by ZEFSAII (Michael W. Deem and Ramdas Pophale) SiO2 
 PCOD9499785
Probable space group: C C C M
;
_chemical_formula_sum "Si O2"
_cell_formula_units_Z 36
_cell_length_a 11.380203
_cell_length_b 11.177424
_cell_length_c 10.331979
_cell_angle_alpha 90.000000
_cell_angle_beta 90.000000
_cell_angle_gamma 90.000000
_cell_volume 1314.241720
_symmetry_space_group_name_H-M "C C C M"
_symmetry_group_IT_number 66
_symmetry_cell_setting 'orthorhombic'
loop_
_space_group_symop_operation_xyz
x,y,z
-x,-y,z
x,-y,1/2-z
-x,y,1/2-z
-x,-y,-z
x,y,-z
-x,y,1/2+z
x,-y,1/2+z
1/2+x,1/2+y,z
1/2-x,1/2-y,z
1/2+x,1/2-y,1/2-z
1/2-x,1/2+y,1/2-z
1/2-x,1/2-y,-z
1/2+x,1/2+y,-z
1/2-x,1/2+y,1/2+z
1/2+x,1/2-y,1/2+z
loop_
_atom_site_type_symbol
_atom_site_label
_atom_site_fract_x
_atom_site_fract_y
_atom_site_fract_z
Si Si1 0.862047 0.520727 0.500000
Si Si2 0.484894 0.357118 0.500000
Si Si3 0.202896 0.132371 0.710195
Si Si4 0.750000 0.250000 0.500000
O O1 0.813769 0.594331 0.622494
O O2 0.794280 0.395425 0.500000
O O3 0.000000 0.500000 0.500000
O O4 0.500000 0.500000 0.500000
O O5 0.405382 0.325181 0.623489
O O6 0.609054 0.295788 0.500000
O O7 0.250000 0.250000 0.792983
O O8 0.162714 0.000000 0.750000
#
# Coordination Sequence:
#
# PCOD9499785 Si02
#       4
#     8   8  16   4
#     4  11  24  46  75 107 149 194 258 316 378 463
#     4  11  23  47  74 108 151 201 255 319 385 470
#     4  11  25  46  73 109 153 199 253 320 388 461
#     4  12  22  44  82 108 140 198 254 308 398 450
#
# _framework density 27.392219999999998
#
# number of rings (size 3 to 8) (size 9 to 14) (size 15 to 20)
#    0.000    0.889    4.444    5.333    3.111    1.778 
#    0.000    4.444    0.000    2.667    0.000    0.000 
#    0.000    0.000    0.000    0.000    0.000    0.000 
#
# Total GULP energy -100453.105838 kJ/mol
# GULP energy per Si atom -5580.728102 kJ/mol
# Density = 2.732987 g / cm^3
# Si number density = 27.392220 Si / 1000 Ang^3
#
#
#
# Elastic Constant Matrix: (Units=GPa)
#
#
# Indices 1 2 3 4 5 6 
#
# 1 285.0813 86.0509 60.8696 0.0000 0.0000 0.0000
# 2 86.0509 316.0566 63.7196 0.0000 0.0000 0.0000
# 3 60.8696 63.7196 46.3616 0.0000 0.0000 0.0000
# 4 0.0000 0.0000 0.0000 33.8486 0.0000 0.0000
# 5 0.0000 0.0000 0.0000 0.0000 160.1663 0.0000
# 6 0.0000 0.0000 0.0000 0.0000 0.0000 69.2114
#
#
#
# Elastic Compliance Matrix: (Units=1/GPa)
#
#
# Indices 1 2 3 4 5 6 
#
# 1 0.004875 -0.000051 -0.006330 0.000000 0.000000 0.000000
# 2 -0.000051 0.004377 -0.005949 0.000000 0.000000 0.000000
# 3 -0.006330 -0.005949 0.038057 0.000000 0.000000 0.000000
# 4 0.000000 0.000000 0.000000 0.029543 0.000000 0.000000
# 5 0.000000 0.000000 0.000000 0.000000 0.006244 0.000000
# 6 0.000000 0.000000 0.000000 0.000000 0.000000 0.014448
#
#
# Mechanical properties :
#
#
# Convention : Reuss Voigt Hill
#
# Bulk Modulus (GPa) = 44.15290 118.75330 81.45310
# Shear Modulus (GPa) = 38.53431 81.76923 60.15177
#
# Velocity S-wave (km/s) = 3.75475 5.46956 4.69117
# Velocity P-wave (km/s) = 5.91196 9.12881 7.69046
#
# Compressibility (1/GPa) = 0.02264857
#
# Stress axis : x y z
#
# Youngs Moduli (GPa) = 205.13870 228.45216 26.27631
#
# Poissons Ratio (x) = 0.01166 0.16633
# Poissons Ratio (y) = 0.01047 0.15632
# Poissons Ratio (z) = 1.29855 1.35910
#
# Static dielectric constant tensor:
#      x y z
#    x 1.944520 0.000000 0.000000 
#    y 0.000000 2.147790 0.000000 
#    z 0.000000 0.000000 1.019080 
# 
# From -- ./inp_files/13846.got.cif
#   From: 2010.05.17/outbox.cif.g08.bks.cpg/sg66_7_cif.got.tgz:13846.got - 2010.06.03 17:51:23.
