data_PCOD9499110
_publ_section_title
;
Structure prediction by ZEFSAII (Michael W. Deem and Ramdas Pophale) SiO2 
 PCOD9499110
Probable space group: C C C M
;
_chemical_formula_sum "Si O2"
_cell_formula_units_Z 84
_cell_length_a 11.350407
_cell_length_b 23.970617
_cell_length_c 14.449536
_cell_angle_alpha 90.000000
_cell_angle_beta 90.000000
_cell_angle_gamma 90.000000
_cell_volume 3931.375699
_symmetry_space_group_name_H-M "C C C M"
_symmetry_group_IT_number 66
_symmetry_cell_setting 'orthorhombic'
loop_
_space_group_symop_operation_xyz
x,y,z
-x,-y,z
x,-y,1/2-z
-x,y,1/2-z
-x,-y,-z
x,y,-z
-x,y,1/2+z
x,-y,1/2+z
1/2+x,1/2+y,z
1/2-x,1/2-y,z
1/2+x,1/2-y,1/2-z
1/2-x,1/2+y,1/2-z
1/2-x,1/2-y,-z
1/2+x,1/2+y,-z
1/2-x,1/2+y,1/2+z
1/2+x,1/2-y,1/2+z
loop_
_atom_site_type_symbol
_atom_site_label
_atom_site_fract_x
_atom_site_fract_y
_atom_site_fract_z
Si Si1 0.832200 0.173764 0.715067
Si Si2 0.638969 0.453365 0.324098
Si Si3 0.436512 0.161687 0.845504
Si Si4 0.046906 0.223508 0.605615
Si Si5 0.399224 0.038679 0.896335
Si Si6 0.000000 0.000000 0.500000
O O1 0.862877 0.108176 0.720281
O O2 0.697886 0.180136 0.679540
O O3 0.862642 0.203869 0.813228
O O4 0.923526 0.196358 0.638615
O O5 0.611226 0.500000 0.250000
O O6 0.775055 0.463823 0.348046
O O7 0.563331 0.461647 0.417276
O O8 0.500000 0.148199 0.750000
O O9 0.514031 0.211014 0.889158
O O10 0.433446 0.103645 0.898888
O O11 0.080152 0.208708 0.500000
O O12 0.500000 0.000000 0.854574
O O13 0.379953 0.017069 0.000000
#
# Coordination Sequence:
#
# PCOD9499110 Si02
#       6
#    16  16  16  16  16   4
#     4  10  25  44  66  99 136 172 228 277 336 401
#     4  11  26  43  68  99 137 178 223 278 340 398
#     4  11  23  42  70  96 137 175 217 281 340 400
#     4  11  24  43  71  98 131 180 226 279 330 400
#     4  10  23  44  68 101 133 171 228 281 335 407
#     4  12  26  44  70  98 138 182 226 276 332 410
#
# _framework density 21.366565999999999
#
# number of rings (size 3 to 8) (size 9 to 14) (size 15 to 20)
#    0.000    1.333    2.857    1.429   12.000    2.286 
#    0.000    2.857    0.000    0.000    0.000    0.000 
#    0.000    0.000    0.000    0.000    0.000    0.000 
#
# Total GULP energy -233976.148282 kJ/mol
# GULP energy per Si atom -5570.860673 kJ/mol
# Density = 2.131793 g / cm^3
# Si number density = 21.366566 Si / 1000 Ang^3
#
#
#
# Elastic Constant Matrix: (Units=GPa)
#
#
# Indices 1 2 3 4 5 6 
#
# 1 83.6913 42.9260 14.7929 0.0000 0.0000 0.0000
# 2 42.9260 120.8112 48.2334 0.0000 0.0000 0.0000
# 3 14.7929 48.2334 149.1223 0.0000 0.0000 0.0000
# 4 0.0000 0.0000 0.0000 26.6862 0.0000 0.0000
# 5 0.0000 0.0000 0.0000 0.0000 -4.9478 0.0000
# 6 0.0000 0.0000 0.0000 0.0000 0.0000 -11.7897
#
#
#
# Elastic Compliance Matrix: (Units=1/GPa)
#
#
# Indices 1 2 3 4 5 6 
#
# 1 0.014621 -0.005300 0.000264 0.000000 0.000000 0.000000
# 2 -0.005300 0.011426 -0.003170 0.000000 0.000000 0.000000
# 3 0.000264 -0.003170 0.007705 0.000000 0.000000 0.000000
# 4 0.000000 0.000000 0.000000 0.037472 0.000000 0.000000
# 5 0.000000 0.000000 0.000000 0.000000 -0.202112 0.000000
# 6 0.000000 0.000000 0.000000 0.000000 0.000000 -0.084820
#
#
# Mechanical properties :
#
#
# Convention : Reuss Voigt Hill
#
# Bulk Modulus (GPa) = 57.67251 62.83658 60.25455
# Shear Modulus (GPa) = -25.83786 18.50125 -3.66831
#
# Velocity S-wave (km/s) = -3.48122 2.94581 -1.31171
# Velocity P-wave (km/s) = 3.30030 6.40648 5.09583
#
# Compressibility (1/GPa) = 0.01733928
#
# Stress axis : x y z
#
# Youngs Moduli (GPa) = 68.39668 87.51757 129.78496
#
# Poissons Ratio (x) = 0.46387 -0.03427
# Poissons Ratio (y) = 0.36252 0.41142
# Poissons Ratio (z) = -0.01806 0.27743
#
# Static dielectric constant tensor:
#      x y z
#    x 1.811150 0.000000 0.000000 
#    y 0.000000 1.825190 0.000000 
#    z 0.000000 0.000000 1.698000 
# 
# From -- ./inp_files/26514.got.cif
#   From: 2010.05.17/outbox.cif.g08.bks.cpg/sg66_14_cif.got.tgz:26514.got - 2010.06.03 17:51:23.
