data_PCOD9499762
_publ_section_title
;
Structure prediction by ZEFSAII (Michael W. Deem and Ramdas Pophale) SiO2 
 PCOD9499762
Probable space group: C C C M
;
_chemical_formula_sum "Si O2"
_cell_formula_units_Z 92
_cell_length_a 21.943663
_cell_length_b 8.821129
_cell_length_c 19.434603
_cell_angle_alpha 90.000000
_cell_angle_beta 90.000000
_cell_angle_gamma 90.000000
_cell_volume 3761.914941
_symmetry_space_group_name_H-M "C C C M"
_symmetry_group_IT_number 66
_symmetry_cell_setting 'orthorhombic'
loop_
_space_group_symop_operation_xyz
x,y,z
-x,-y,z
x,-y,1/2-z
-x,y,1/2-z
-x,-y,-z
x,y,-z
-x,y,1/2+z
x,-y,1/2+z
1/2+x,1/2+y,z
1/2-x,1/2-y,z
1/2+x,1/2-y,1/2-z
1/2-x,1/2+y,1/2-z
1/2-x,1/2-y,-z
1/2+x,1/2+y,-z
1/2-x,1/2+y,1/2+z
1/2+x,1/2-y,1/2+z
loop_
_atom_site_type_symbol
_atom_site_label
_atom_site_fract_x
_atom_site_fract_y
_atom_site_fract_z
Si Si1 0.762117 0.430211 0.826192
Si Si2 0.000000 0.000000 0.750000
Si Si3 0.657405 0.626962 0.886764
Si Si4 0.917560 0.253046 0.278494
Si Si5 0.188837 0.352691 0.000000
Si Si6 0.093547 0.440464 0.350202
Si Si7 0.895246 0.379976 0.000000
Si Si8 0.426272 0.471717 0.500000
O O1 0.753857 0.500000 0.750000
O O2 0.750000 0.250000 0.828084
O O3 0.717050 0.520974 0.878380
O O4 0.833123 0.450491 0.843684
O O5 0.960446 0.886762 0.794234
O O6 0.644495 0.688261 0.809883
O O7 0.660769 0.780034 0.931428
O O8 0.605658 0.540475 0.931017
O O9 0.933271 0.408030 0.316623
O O10 0.919690 0.295649 0.198488
O O11 0.250000 0.250000 0.000000
O O12 0.170692 0.530462 0.000000
O O13 0.074581 0.427584 0.428506
O O14 0.901489 0.200170 0.000000
O O15 0.500000 0.500000 0.500000
#
# Coordination Sequence:
#
# PCOD9499762 Si02
#       8
#    16   4  16  16   8  16   8   8
#     4  12  25  40  72 117 159 212 252 329 409 482
#     4  12  32  46  84 106 152 206 268 346 390 434
#     4  11  26  45  72 109 157 200 268 322 396 482
#     4  11  26  49  75 111 149 201 270 327 388 465
#     4  11  23  43  74 114 154 201 244 312 401 496
#     4  11  25  47  76 113 162 196 261 319 406 499
#     4  12  24  46  78 109 156 210 261 328 400 488
#     4  11  29  51  74 106 163 222 278 338 393 473
#
# _framework density 24.455629999999999
#
# number of rings (size 3 to 8) (size 9 to 14) (size 15 to 20)
#    0.000    0.696    3.478    3.130    7.304    2.087 
#    0.000    4.783    0.000    0.000    0.000    0.000 
#    0.000    0.000    0.000    0.000    0.000    0.000 
#
# Total GULP energy -256830.087207 kJ/mol
# GULP energy per Si atom -5583.262765 kJ/mol
# Density = 2.439997 g / cm^3
# Si number density = 24.455630 Si / 1000 Ang^3
#
#
#
# Elastic Constant Matrix: (Units=GPa)
#
#
# Indices 1 2 3 4 5 6 
#
# 1 88.7880 59.2118 27.1450 0.0000 0.0000 0.0000
# 2 59.2118 189.6522 44.5371 0.0000 0.0000 0.0000
# 3 27.1450 44.5371 158.8947 0.0000 0.0000 0.0000
# 4 0.0000 0.0000 0.0000 31.3164 0.0000 0.0000
# 5 0.0000 0.0000 0.0000 0.0000 10.6048 0.0000
# 6 0.0000 0.0000 0.0000 0.0000 0.0000 40.6063
#
#
#
# Elastic Compliance Matrix: (Units=1/GPa)
#
#
# Indices 1 2 3 4 5 6 
#
# 1 0.014468 -0.004214 -0.001290 0.000000 0.000000 0.000000
# 2 -0.004214 0.006872 -0.001206 0.000000 0.000000 0.000000
# 3 -0.001290 -0.001206 0.006852 0.000000 0.000000 0.000000
# 4 0.000000 0.000000 0.000000 0.031932 0.000000 0.000000
# 5 0.000000 0.000000 0.000000 0.000000 0.094297 0.000000
# 6 0.000000 0.000000 0.000000 0.000000 0.000000 0.024627
#
#
# Mechanical properties :
#
#
# Convention : Reuss Voigt Hill
#
# Bulk Modulus (GPa) = 67.70419 77.68031 72.69225
# Shear Modulus (GPa) = 25.33040 36.93492 31.13266
#
# Velocity S-wave (km/s) = 3.22183 3.89045 3.57182
# Velocity P-wave (km/s) = 6.44863 7.21204 6.84099
#
# Compressibility (1/GPa) = 0.01477013
#
# Stress axis : x y z
#
# Youngs Moduli (GPa) = 69.12040 145.52446 145.94228
#
# Poissons Ratio (x) = 0.61322 0.18833
# Poissons Ratio (y) = 0.29127 0.17604
# Poissons Ratio (z) = 0.08920 0.17553
#
# Static dielectric constant tensor:
#      x y z
#    x 2.129690 0.000000 0.000000 
#    y 0.000000 1.930860 0.000000 
#    z 0.000000 0.000000 1.995450 
# 
# From -- ./inp_files/52478.got.cif
#   From: 2010.05.17/outbox.cif.g08.bks.cpg/sg66_27_cif.got.tgz:52478.got - 2010.06.03 17:51:23.
