data_PCOD9499600
_publ_section_title
;
Structure prediction by ZEFSAII (Michael W. Deem and Ramdas Pophale) SiO2 
 PCOD9499600
Probable space group: C C C M
;
_chemical_formula_sum "Si O2"
_cell_formula_units_Z 112
_cell_length_a 11.762675
_cell_length_b 26.772982
_cell_length_c 17.288703
_cell_angle_alpha 90.000000
_cell_angle_beta 90.000000
_cell_angle_gamma 90.000000
_cell_volume 5444.590956
_symmetry_space_group_name_H-M "C C C M"
_symmetry_group_IT_number 66
_symmetry_cell_setting 'orthorhombic'
loop_
_space_group_symop_operation_xyz
x,y,z
-x,-y,z
x,-y,1/2-z
-x,y,1/2-z
-x,-y,-z
x,y,-z
-x,y,1/2+z
x,-y,1/2+z
1/2+x,1/2+y,z
1/2-x,1/2-y,z
1/2+x,1/2-y,1/2-z
1/2-x,1/2+y,1/2-z
1/2-x,1/2-y,-z
1/2+x,1/2+y,-z
1/2-x,1/2+y,1/2+z
1/2+x,1/2-y,1/2+z
loop_
_atom_site_type_symbol
_atom_site_label
_atom_site_fract_x
_atom_site_fract_y
_atom_site_fract_z
Si Si1 0.955319 0.665494 0.666335
Si Si2 0.451954 0.267068 0.586242
Si Si3 0.643865 0.107837 0.589759
Si Si4 0.922216 0.074809 0.093731
Si Si5 0.308651 0.695381 0.637518
Si Si6 0.831204 0.033091 0.406688
Si Si7 0.811070 0.164024 0.812564
O O1 0.974602 0.709460 0.604899
O O2 0.822191 0.655893 0.673102
O O3 0.000000 0.683218 0.750000
O O4 0.032720 0.619537 0.639593
O O5 0.408907 0.274305 0.500000
O O6 0.570579 0.296248 0.596871
O O7 0.360070 0.286681 0.646634
O O8 0.614139 0.099421 0.500000
O O9 0.725281 0.156706 0.595201
O O10 0.719917 0.061990 0.621011
O O11 0.877493 0.119710 0.145055
O O12 0.053260 0.062556 0.113133
O O13 0.851008 0.024634 0.113073
O O14 0.914224 0.083710 0.000000
O O15 0.250000 0.750000 0.645011
O O16 0.329691 0.671915 0.721908
O O17 0.826078 0.034716 0.500000
#
# Coordination Sequence:
#
# PCOD9499600 Si02
#       7
#    16  16  16  16  16  16  16
#     4  12  24  43  60  84 129 174 211 259 323 379
#     4  12  25  39  61  93 125 164 220 269 314 378
#     4  11  22  38  66  94 120 161 216 262 309 376
#     4   9  18  37  65  96 130 163 205 261 328 387
#     4  12  23  41  63  87 128 170 208 256 316 375
#     4   8  17  37  65  97 128 159 201 268 329 379
#     4  12  24  39  62  89 127 172 211 259 321 383
#
# _framework density 20.570875000000001
#
# number of rings (size 3 to 8) (size 9 to 14) (size 15 to 20)
#    0.000    1.143    2.857    5.571    0.000    4.571 
#    0.000    1.429    0.000    5.143    0.000    0.000 
#    0.000    0.000    0.000    0.000    0.000    0.000 
#
# Total GULP energy -313176.869985 kJ/mol
# GULP energy per Si atom -5592.444107 kJ/mol
# Density = 2.052406 g / cm^3
# Si number density = 20.570875 Si / 1000 Ang^3
#
#
#
# Elastic Constant Matrix: (Units=GPa)
#
#
# Indices 1 2 3 4 5 6 
#
# 1 54.6114 20.2341 8.5945 0.0000 0.0000 0.0000
# 2 20.2341 55.9480 -4.3359 0.0000 0.0000 0.0000
# 3 8.5945 -4.3359 59.2283 0.0000 0.0000 0.0000
# 4 0.0000 0.0000 0.0000 22.4873 0.0000 0.0000
# 5 0.0000 0.0000 0.0000 0.0000 -26.8041 0.0000
# 6 0.0000 0.0000 0.0000 0.0000 0.0000 40.2023
#
#
#
# Elastic Compliance Matrix: (Units=1/GPa)
#
#
# Indices 1 2 3 4 5 6 
#
# 1 0.021959 -0.008235 -0.003789 0.000000 0.000000 0.000000
# 2 -0.008235 0.021064 0.002737 0.000000 0.000000 0.000000
# 3 -0.003789 0.002737 0.017634 0.000000 0.000000 0.000000
# 4 0.000000 0.000000 0.000000 0.044470 0.000000 0.000000
# 5 0.000000 0.000000 0.000000 0.000000 -0.037308 0.000000
# 6 0.000000 0.000000 0.000000 0.000000 0.000000 0.024874
#
#
# Mechanical properties :
#
#
# Convention : Reuss Voigt Hill
#
# Bulk Modulus (GPa) = 23.76312 24.30815 24.03563
# Shear Modulus (GPa) = 39.90566 16.86342 28.38454
#
# Velocity S-wave (km/s) = 4.40922 2.86627 3.71865
# Velocity P-wave (km/s) = 6.12360 4.77456 5.49067
#
# Compressibility (1/GPa) = 0.04208202
#
# Stress axis : x y z
#
# Youngs Moduli (GPa) = 45.53981 47.47389 56.70850
#
# Poissons Ratio (x) = 0.39096 0.21488
# Poissons Ratio (y) = 0.37503 -0.15521
# Poissons Ratio (z) = 0.17256 -0.12994
#
# Static dielectric constant tensor:
#      x y z
#    x 1.728080 0.000000 0.000000 
#    y 0.000000 1.752010 0.000000 
#    z 0.000000 0.000000 1.694230 
# 
# From -- ./inp_files/27018.got.cif
#   From: 2010.05.17/outbox.cif.g08.bks.cpg/sg66_14_cif.got.tgz:27018.got - 2010.06.03 17:51:23.
