data_PCOD9499156
_publ_section_title
;
Structure prediction by ZEFSAII (Michael W. Deem and Ramdas Pophale) SiO2 
 PCOD9499156
Probable space group: C C C M
;
_chemical_formula_sum "Si O2"
_cell_formula_units_Z 108
_cell_length_a 13.636912
_cell_length_b 12.723191
_cell_length_c 27.094320
_cell_angle_alpha 90.000000
_cell_angle_beta 90.000000
_cell_angle_gamma 90.000000
_cell_volume 4701.000968
_symmetry_space_group_name_H-M "C C C M"
_symmetry_group_IT_number 66
_symmetry_cell_setting 'orthorhombic'
loop_
_space_group_symop_operation_xyz
x,y,z
-x,-y,z
x,-y,1/2-z
-x,y,1/2-z
-x,-y,-z
x,y,-z
-x,y,1/2+z
x,-y,1/2+z
1/2+x,1/2+y,z
1/2-x,1/2-y,z
1/2+x,1/2-y,1/2-z
1/2-x,1/2+y,1/2-z
1/2-x,1/2-y,-z
1/2+x,1/2+y,-z
1/2-x,1/2+y,1/2+z
1/2+x,1/2-y,1/2+z
loop_
_atom_site_type_symbol
_atom_site_label
_atom_site_fract_x
_atom_site_fract_y
_atom_site_fract_z
Si Si1 0.500000 0.000000 0.250000
Si Si2 0.785259 0.983925 0.500000
Si Si3 0.137166 0.344370 0.306671
Si Si4 0.316072 0.511377 0.171320
Si Si5 0.291203 0.129455 0.910186
Si Si6 0.571293 0.409009 0.078987
Si Si7 0.142575 0.798659 0.286462
Si Si8 0.985005 0.714105 0.878691
O O1 0.569009 0.933437 0.284397
O O2 0.743528 0.064330 0.542906
O O3 0.835971 0.909203 0.456491
O O4 0.244325 0.396477 0.309739
O O5 0.122047 0.250262 0.267381
O O6 0.091857 0.320696 0.359912
O O7 0.252464 0.434084 0.136141
O O8 0.395925 0.561528 0.134753
O O9 0.357317 0.424721 0.209419
O O10 0.250000 0.250000 0.911799
O O11 0.408418 0.134510 0.902735
O O12 0.500000 0.500000 0.059516
O O13 0.505621 0.306283 0.082889
O O14 0.250000 0.750000 0.296934
O O15 0.070544 0.755587 0.329156
#
# Coordination Sequence:
#
# PCOD9499156 Si02
#       8
#     4   8  16  16  16  16  16  16
#     4  12  20  40  64  96 132 174 244 320 296 408
#     4  10  24  40  70 116 134 174 234 292 372 436
#     4  12  27  41  67 101 138 194 251 281 345 420
#     4  11  23  44  67  93 140 188 227 291 357 409
#     4  11  20  42  72  98 138 178 227 291 359 427
#     4  11  23  42  69 101 145 175 228 294 364 439
#     4  12  22  44  65  93 139 184 239 293 337 403
#     4  12  22  43  67  97 143 180 227 298 350 416
#
# _framework density 22.97383
#
# number of rings (size 3 to 8) (size 9 to 14) (size 15 to 20)
#    0.000    0.593    5.926    3.111    2.074    0.593 
#    0.000    0.000    0.000   14.222    0.000    2.074 
#    0.000    0.000    0.000    0.000    0.000    0.000 
#
# Total GULP energy -300963.827620 kJ/mol
# GULP energy per Si atom -5573.404215 kJ/mol
# Density = 2.292154 g / cm^3
# Si number density = 22.973830 Si / 1000 Ang^3
#
#
#
# Elastic Constant Matrix: (Units=GPa)
#
#
# Indices 1 2 3 4 5 6 
#
# 1 64.2252 14.1712 12.2470 0.0000 0.0000 0.0000
# 2 14.1712 42.4949 26.8148 0.0000 0.0000 0.0000
# 3 12.2470 26.8148 86.6053 0.0000 0.0000 0.0000
# 4 0.0000 0.0000 0.0000 -55.7475 0.0000 0.0000
# 5 0.0000 0.0000 0.0000 0.0000 -20.1687 0.0000
# 6 0.0000 0.0000 0.0000 0.0000 0.0000 66.5388
#
#
#
# Elastic Compliance Matrix: (Units=1/GPa)
#
#
# Indices 1 2 3 4 5 6 
#
# 1 0.016851 -0.005115 -0.000799 0.000000 0.000000 0.000000
# 2 -0.005115 0.030799 -0.008813 0.000000 0.000000 0.000000
# 3 -0.000799 -0.008813 0.014388 0.000000 0.000000 0.000000
# 4 0.000000 0.000000 0.000000 -0.017938 0.000000 0.000000
# 5 0.000000 0.000000 0.000000 0.000000 -0.049582 0.000000
# 6 0.000000 0.000000 0.000000 0.000000 0.000000 0.015029
#
#
# Mechanical properties :
#
#
# Convention : Reuss Voigt Hill
#
# Bulk Modulus (GPa) = 30.68963 33.31016 31.99990
# Shear Modulus (GPa) = 100.27439 7.46400 53.86920
#
# Velocity S-wave (km/s) = 6.61377 1.80443 4.84757
# Velocity P-wave (km/s) = 8.46818 4.34419 6.72986
#
# Compressibility (1/GPa) = 0.03258429
#
# Stress axis : x y z
#
# Youngs Moduli (GPa) = 59.34269 32.46861 69.50128
#
# Poissons Ratio (x) = 0.16609 0.05554
# Poissons Ratio (y) = 0.30355 0.61249
# Poissons Ratio (z) = 0.04743 0.28613
#
# Static dielectric constant tensor:
#      x y z
#    x 1.769440 0.000000 0.000000 
#    y 0.000000 1.876000 0.000000 
#    z 0.000000 0.000000 1.833180 
# 
# From -- ./inp_files/69582.got.cif
#   From: 2010.05.17/outbox.cif.g08.bks.cpg/sg66_35_cif.got.tgz:69582.got - 2010.06.03 17:51:23.
