data_PCOD9499107
_publ_section_title
;
Structure prediction by ZEFSAII (Michael W. Deem and Ramdas Pophale) SiO2 
 PCOD9499107
Probable space group: C C C M
;
_chemical_formula_sum "Si O2"
_cell_formula_units_Z 104
_cell_length_a 20.724609
_cell_length_b 8.565498
_cell_length_c 25.197472
_cell_angle_alpha 90.000000
_cell_angle_beta 90.000000
_cell_angle_gamma 90.000000
_cell_volume 4472.969481
_symmetry_space_group_name_H-M "C C C M"
_symmetry_group_IT_number 66
_symmetry_cell_setting 'orthorhombic'
loop_
_space_group_symop_operation_xyz
x,y,z
-x,-y,z
x,-y,1/2-z
-x,y,1/2-z
-x,-y,-z
x,y,-z
-x,y,1/2+z
x,-y,1/2+z
1/2+x,1/2+y,z
1/2-x,1/2-y,z
1/2+x,1/2-y,1/2-z
1/2-x,1/2+y,1/2-z
1/2-x,1/2-y,-z
1/2+x,1/2+y,-z
1/2-x,1/2+y,1/2+z
1/2+x,1/2-y,1/2+z
loop_
_atom_site_type_symbol
_atom_site_label
_atom_site_fract_x
_atom_site_fract_y
_atom_site_fract_z
Si Si1 0.185676 0.907318 0.408378
Si Si2 0.645225 0.187853 0.321242
Si Si3 0.463740 0.159305 0.094142
Si Si4 0.135395 0.696737 0.500000
Si Si5 0.704245 0.889769 0.372683
Si Si6 0.089308 0.178622 0.394934
Si Si7 0.070852 0.820832 0.768592
O O1 0.185395 0.824382 0.350701
O O2 0.178745 0.780577 0.453335
O O3 0.247992 0.016689 0.411686
O O4 0.122386 0.017774 0.412082
O O5 0.578279 0.200198 0.354399
O O6 0.626446 0.224923 0.261305
O O7 0.676199 0.019677 0.332885
O O8 0.414888 0.137856 0.046312
O O9 0.520048 0.282993 0.080809
O O10 0.500000 0.000000 0.106402
O O11 0.750000 0.750000 0.350165
O O12 0.644234 0.810380 0.402740
O O13 0.078093 0.180703 0.331540
O O14 0.000000 0.765123 0.750000
O O15 0.076562 0.000000 0.750000
#
# Coordination Sequence:
#
# PCOD9499107 Si02
#       7
#    16  16  16   8  16  16  16
#     4  10  23  44  66  97 130 182 232 280 342 405
#     4  11  21  40  70  98 135 178 225 278 337 406
#     4  11  22  41  65 102 139 174 216 292 359 402
#     4  10  25  41  72 100 131 173 240 289 347 434
#     4  10  23  44  65  90 134 186 223 276 337 401
#     4  11  22  41  67  98 145 176 221 282 345 417
#     4  11  22  37  65 110 141 180 227 275 344 421
#
# _framework density 23.250772999999999
#
# number of rings (size 3 to 8) (size 9 to 14) (size 15 to 20)
#    0.000    1.385    4.615    0.692    0.000    4.308 
#    0.000   19.615    0.000    0.000    0.000    0.000 
#    0.000    0.000    0.000    0.000    0.000    0.000 
#
# Total GULP energy -289833.237212 kJ/mol
# GULP energy per Si atom -5573.716100 kJ/mol
# Density = 2.319785 g / cm^3
# Si number density = 23.250773 Si / 1000 Ang^3
#
#
#
# Elastic Constant Matrix: (Units=GPa)
#
#
# Indices 1 2 3 4 5 6 
#
# 1 115.6905 37.3080 -11.5496 0.0000 0.0000 0.0000
# 2 37.3080 78.2461 -28.5379 0.0000 0.0000 0.0000
# 3 -11.5496 -28.5379 32.0161 0.0000 0.0000 0.0000
# 4 0.0000 0.0000 0.0000 -36.8879 0.0000 0.0000
# 5 0.0000 0.0000 0.0000 0.0000 94.7921 0.0000
# 6 0.0000 0.0000 0.0000 0.0000 0.0000 48.6332
#
#
#
# Elastic Compliance Matrix: (Units=1/GPa)
#
#
# Indices 1 2 3 4 5 6 
#
# 1 0.010235 -0.005235 -0.000975 0.000000 0.000000 0.000000
# 2 -0.005235 0.021614 0.017378 0.000000 0.000000 0.000000
# 3 -0.000975 0.017378 0.046372 0.000000 0.000000 0.000000
# 4 0.000000 0.000000 0.000000 -0.027109 0.000000 0.000000
# 5 0.000000 0.000000 0.000000 0.000000 0.010549 0.000000
# 6 0.000000 0.000000 0.000000 0.000000 0.000000 0.020562
#
#
# Mechanical properties :
#
#
# Convention : Reuss Voigt Hill
#
# Bulk Modulus (GPa) = 9.94460 24.48818 17.21639
# Shear Modulus (GPa) = 53.52886 36.55631 45.04258
#
# Velocity S-wave (km/s) = 4.80337 3.96948 4.40620
# Velocity P-wave (km/s) = 5.92027 5.61819 5.77121
#
# Compressibility (1/GPa) = 0.10055710
#
# Stress axis : x y z
#
# Youngs Moduli (GPa) = 97.70603 46.26544 21.56451
#
# Poissons Ratio (x) = 0.24222 0.02101
# Poissons Ratio (y) = 0.51153 -0.37474
# Poissons Ratio (z) = 0.09522 -0.80398
#
# Static dielectric constant tensor:
#      x y z
#    x 1.964670 0.000000 0.000000 
#    y 0.000000 1.916630 0.000000 
#    z 0.000000 0.000000 1.842750 
# 
# From -- ./inp_files/65735.got.cif
#   From: 2010.05.17/outbox.cif.g08.bks.cpg/sg66_33_cif.got.tgz:65735.got - 2010.06.03 17:51:23.
