data_PCOD9499263
_publ_section_title
;
Structure prediction by ZEFSAII (Michael W. Deem and Ramdas Pophale) SiO2 
 PCOD9499263
Probable space group: C C C M
;
_chemical_formula_sum "Si O2"
_cell_formula_units_Z 56
_cell_length_a 7.974532
_cell_length_b 10.993125
_cell_length_c 25.955088
_cell_angle_alpha 90.000000
_cell_angle_beta 90.000000
_cell_angle_gamma 90.000000
_cell_volume 2275.353493
_symmetry_space_group_name_H-M "C C C M"
_symmetry_group_IT_number 66
_symmetry_cell_setting 'orthorhombic'
loop_
_space_group_symop_operation_xyz
x,y,z
-x,-y,z
x,-y,1/2-z
-x,y,1/2-z
-x,-y,-z
x,y,-z
-x,y,1/2+z
x,-y,1/2+z
1/2+x,1/2+y,z
1/2-x,1/2-y,z
1/2+x,1/2-y,1/2-z
1/2-x,1/2+y,1/2-z
1/2-x,1/2-y,-z
1/2+x,1/2+y,-z
1/2-x,1/2+y,1/2+z
1/2+x,1/2-y,1/2+z
loop_
_atom_site_type_symbol
_atom_site_label
_atom_site_fract_x
_atom_site_fract_y
_atom_site_fract_z
Si Si1 0.000000 0.500000 0.117679
Si Si2 0.074942 0.238148 0.123045
Si Si3 0.334686 0.586153 0.940669
Si Si4 0.319730 0.380081 0.225872
O O1 0.031503 0.371688 0.146567
O O2 0.168260 0.527534 0.084441
O O3 0.250000 0.250000 0.091264
O O4 0.129812 0.139255 0.165735
O O5 0.915239 0.197519 0.091054
O O6 0.500000 0.500000 0.940060
O O7 0.297577 0.614415 0.000000
O O8 0.231563 0.500000 0.250000
O O9 0.500000 0.384095 0.250000
O O10 0.250000 0.250000 0.242380
#
# Coordination Sequence:
#
# PCOD9499263 Si02
#       4
#     8  16  16  16
#     4  12  25  44  73 108 148 200 249 300 369 442
#     4  11  25  45  71 104 149 193 248 303 374 440
#     4  11  25  45  74 107 149 200 249 303 361 434
#     4  10  25  44  72 105 143 187 239 302 370 446
#
# _framework density 24.611561999999999
#
# number of rings (size 3 to 8) (size 9 to 14) (size 15 to 20)
#    0.000    1.143    2.857    1.286    4.000   11.429 
#    0.000    0.000    0.000    0.000    0.000    0.000 
#    0.000    0.000    0.000    0.000    0.000    0.000 
#
# Total GULP energy -156037.285920 kJ/mol
# GULP energy per Si atom -5572.760211 kJ/mol
# Density = 2.455555 g / cm^3
# Si number density = 24.611562 Si / 1000 Ang^3
#
#
#
# Elastic Constant Matrix: (Units=GPa)
#
#
# Indices 1 2 3 4 5 6 
#
# 1 171.9164 31.1030 39.5698 0.0000 0.0000 0.0000
# 2 31.1030 171.3407 57.5845 0.0000 0.0000 0.0000
# 3 39.5698 57.5845 92.7767 0.0000 0.0000 0.0000
# 4 0.0000 0.0000 0.0000 16.6052 0.0000 0.0000
# 5 0.0000 0.0000 0.0000 0.0000 43.7016 0.0000
# 6 0.0000 0.0000 0.0000 0.0000 0.0000 49.3583
#
#
#
# Elastic Compliance Matrix: (Units=1/GPa)
#
#
# Indices 1 2 3 4 5 6 
#
# 1 0.006463 -0.000312 -0.002563 0.000000 0.000000 0.000000
# 2 -0.000312 0.007390 -0.004454 0.000000 0.000000 0.000000
# 3 -0.002563 -0.004454 0.014636 0.000000 0.000000 0.000000
# 4 0.000000 0.000000 0.000000 0.060222 0.000000 0.000000
# 5 0.000000 0.000000 0.000000 0.000000 0.022882 0.000000
# 6 0.000000 0.000000 0.000000 0.000000 0.000000 0.020260
#
#
# Mechanical properties :
#
#
# Convention : Reuss Voigt Hill
#
# Bulk Modulus (GPa) = 72.29691 76.94982 74.62337
# Shear Modulus (GPa) = 33.08612 42.45147 37.76879
#
# Velocity S-wave (km/s) = 3.67049 4.15765 3.92164
# Velocity P-wave (km/s) = 6.88493 7.37439 7.13386
#
# Compressibility (1/GPa) = 0.01383185
#
# Stress axis : x y z
#
# Youngs Moduli (GPa) = 154.72400 135.32318 68.32486
#
# Poissons Ratio (x) = 0.04220 0.17512
# Poissons Ratio (y) = 0.04825 0.30429
# Poissons Ratio (z) = 0.39656 0.60268
#
# Static dielectric constant tensor:
#      x y z
#    x 1.970940 0.000000 0.000000 
#    y 0.000000 2.037820 0.000000 
#    z 0.000000 0.000000 1.971090 
# 
# From -- ./inp_files/61942.got.cif
#   From: 2010.05.17/outbox.cif.g08.bks.cpg/sg66_31_cif.got.tgz:61942.got - 2010.06.03 17:51:23.
