data_PCOD9499998
_publ_section_title
;
Structure prediction by ZEFSAII (Michael W. Deem and Ramdas Pophale) SiO2 
 PCOD9499998
Probable space group: C C C M
;
_chemical_formula_sum "Si O2"
_cell_formula_units_Z 56
_cell_length_a 5.000107
_cell_length_b 27.030887
_cell_length_c 16.993753
_cell_angle_alpha 90.000000
_cell_angle_beta 90.000000
_cell_angle_gamma 90.000000
_cell_volume 2296.830236
_symmetry_space_group_name_H-M "C C C M"
_symmetry_group_IT_number 66
_symmetry_cell_setting 'orthorhombic'
loop_
_space_group_symop_operation_xyz
x,y,z
-x,-y,z
x,-y,1/2-z
-x,y,1/2-z
-x,-y,-z
x,y,-z
-x,y,1/2+z
x,-y,1/2+z
1/2+x,1/2+y,z
1/2-x,1/2-y,z
1/2+x,1/2-y,1/2-z
1/2-x,1/2+y,1/2-z
1/2-x,1/2-y,-z
1/2+x,1/2+y,-z
1/2-x,1/2+y,1/2+z
1/2+x,1/2-y,1/2+z
loop_
_atom_site_type_symbol
_atom_site_label
_atom_site_fract_x
_atom_site_fract_y
_atom_site_fract_z
Si Si1 0.500000 0.616072 0.750000
Si Si2 0.668057 0.807077 0.330984
Si Si3 0.258774 0.535468 0.346565
Si Si4 0.004183 0.654736 0.000000
Si Si5 0.023342 0.091046 0.000000
O O1 0.599873 0.652323 0.681479
O O2 0.269799 0.580408 0.715554
O O3 0.500000 0.814111 0.250000
O O4 0.750000 0.750000 0.329438
O O5 0.551407 0.817840 0.417209
O O6 0.500000 0.500000 0.326482
O O7 0.363450 0.560339 0.426587
O O8 0.000000 0.500000 0.351625
O O9 0.210708 0.606908 0.000000
O O10 0.694282 0.640793 0.000000
#
# Coordination Sequence:
#
# PCOD9499998 Si02
#       5
#     8  16  16   8   8
#     4  12  27  48  74 110 164 204 273 334 398 476
#     4  12  27  51  82 120 160 216 266 336 407 487
#     4  12  27  47  75 110 153 209 269 328 401 473
#     4  12  27  49  84 116 161 211 265 332 403 479
#     4  12  24  51  77 110 155 209 262 337 402 466
#
# _framework density 24.381426000000001
#
# number of rings (size 3 to 8) (size 9 to 14) (size 15 to 20)
#    0.000    0.000    4.286    5.143    4.000    1.143 
#    0.000    2.143    0.000    0.000    0.000    0.000 
#    0.000    0.000    0.000    0.000    0.000    0.000 
#
# Total GULP energy -156587.507228 kJ/mol
# GULP energy per Si atom -5592.410972 kJ/mol
# Density = 2.432593 g / cm^3
# Si number density = 24.381426 Si / 1000 Ang^3
#
#
#
# Elastic Constant Matrix: (Units=GPa)
#
#
# Indices 1 2 3 4 5 6 
#
# 1 85.7081 26.6820 18.3121 0.0000 0.0000 0.0000
# 2 26.6820 145.1828 52.4745 0.0000 0.0000 0.0000
# 3 18.3121 52.4745 184.2663 0.0000 0.0000 0.0000
# 4 0.0000 0.0000 0.0000 38.5276 0.0000 0.0000
# 5 0.0000 0.0000 0.0000 0.0000 32.2433 0.0000
# 6 0.0000 0.0000 0.0000 0.0000 0.0000 -38.6766
#
#
#
# Elastic Compliance Matrix: (Units=1/GPa)
#
#
# Indices 1 2 3 4 5 6 
#
# 1 0.012446 -0.002051 -0.000653 0.000000 0.000000 0.000000
# 2 -0.002051 0.008016 -0.002079 0.000000 0.000000 0.000000
# 3 -0.000653 -0.002079 0.006084 0.000000 0.000000 0.000000
# 4 0.000000 0.000000 0.000000 0.025955 0.000000 0.000000
# 5 0.000000 0.000000 0.000000 0.000000 0.031014 0.000000
# 6 0.000000 0.000000 0.000000 0.000000 0.000000 -0.025855
#
#
# Mechanical properties :
#
#
# Convention : Reuss Voigt Hill
#
# Bulk Modulus (GPa) = 58.89391 67.78829 63.34110
# Shear Modulus (GPa) = 68.60048 27.59810 48.09929
#
# Velocity S-wave (km/s) = 5.31013 3.36807 4.44642
# Velocity P-wave (km/s) = 7.86157 6.55658 7.23854
#
# Compressibility (1/GPa) = 0.01697969
#
# Stress axis : x y z
#
# Youngs Moduli (GPa) = 80.34990 124.74587 164.37018
#
# Poissons Ratio (x) = 0.25590 0.10727
# Poissons Ratio (y) = 0.16483 0.34172
# Poissons Ratio (z) = 0.05244 0.25934
#
# Static dielectric constant tensor:
#      x y z
#    x 1.940100 0.000000 0.000000 
#    y 0.000000 1.847100 0.000000 
#    z 0.000000 0.000000 2.182790 
# 
# From -- ./inp_files/34879.got.cif
#   From: 2010.05.17/outbox.cif.g08.bks.cpg/sg66_18_cif.got.tgz:34879.got - 2010.06.03 17:51:23.
