data_PCOD9499844
_publ_section_title
;
Structure prediction by ZEFSAII (Michael W. Deem and Ramdas Pophale) SiO2 
 PCOD9499844
Probable space group: C C C M
;
_chemical_formula_sum "Si O2"
_cell_formula_units_Z 56
_cell_length_a 17.021044
_cell_length_b 5.544445
_cell_length_c 27.670826
_cell_angle_alpha 90.000000
_cell_angle_beta 90.000000
_cell_angle_gamma 90.000000
_cell_volume 2611.357896
_symmetry_space_group_name_H-M "C C C M"
_symmetry_group_IT_number 66
_symmetry_cell_setting 'orthorhombic'
loop_
_space_group_symop_operation_xyz
x,y,z
-x,-y,z
x,-y,1/2-z
-x,y,1/2-z
-x,-y,-z
x,y,-z
-x,y,1/2+z
x,-y,1/2+z
1/2+x,1/2+y,z
1/2-x,1/2-y,z
1/2+x,1/2-y,1/2-z
1/2-x,1/2+y,1/2-z
1/2-x,1/2-y,-z
1/2+x,1/2+y,-z
1/2-x,1/2+y,1/2+z
1/2+x,1/2-y,1/2+z
loop_
_atom_site_type_symbol
_atom_site_label
_atom_site_fract_x
_atom_site_fract_y
_atom_site_fract_z
Si Si1 0.250000 0.250000 0.126460
Si Si2 0.452080 0.749041 0.872480
Si Si3 0.170681 0.613017 0.798565
Si Si4 0.330707 0.598956 0.945386
O O1 0.201503 0.424973 0.161427
O O2 0.310940 0.384145 0.091360
O O3 0.500000 0.500000 0.874328
O O4 0.392863 0.731078 0.826946
O O5 0.399362 0.753305 0.921012
O O6 0.500000 0.000000 0.868025
O O7 0.136461 0.500000 0.750000
O O8 0.250000 0.750000 0.783315
O O9 0.250000 0.750000 0.946383
O O10 0.348993 0.521709 0.000000
#
# Coordination Sequence:
#
# PCOD9499844 Si02
#       4
#     8  16  16  16
#     4  12  19  44  72 104 142 170 247 308 356 402
#     4  12  27  48  71 103 154 193 230 294 365 438
#     4  12  25  44  75 107 133 191 248 301 355 423
#     4  11  24  43  73 104 137 189 248 301 353 419
#
# _framework density 21.444783000000001
#
# number of rings (size 3 to 8) (size 9 to 14) (size 15 to 20)
#    0.000    0.286    7.143    2.143    0.000    1.714 
#    0.000    4.286    0.000    0.000    0.000    0.000 
#    0.000    0.000    0.000    0.000    0.000    0.000 
#
# Total GULP energy -156596.150865 kJ/mol
# GULP energy per Si atom -5592.719674 kJ/mol
# Density = 2.139597 g / cm^3
# Si number density = 21.444783 Si / 1000 Ang^3
#
#
#
# Elastic Constant Matrix: (Units=GPa)
#
#
# Indices 1 2 3 4 5 6 
#
# 1 89.5573 26.4887 24.7067 0.0000 0.0000 0.0000
# 2 26.4887 74.4838 21.4361 0.0000 0.0000 0.0000
# 3 24.7067 21.4361 157.5077 0.0000 0.0000 0.0000
# 4 0.0000 0.0000 0.0000 5.2312 0.0000 0.0000
# 5 0.0000 0.0000 0.0000 0.0000 -25.2939 0.0000
# 6 0.0000 0.0000 0.0000 0.0000 0.0000 45.3967
#
#
#
# Elastic Compliance Matrix: (Units=1/GPa)
#
#
# Indices 1 2 3 4 5 6 
#
# 1 0.012786 -0.004132 -0.001443 0.000000 0.000000 0.000000
# 2 -0.004132 0.015308 -0.001435 0.000000 0.000000 0.000000
# 3 -0.001443 -0.001435 0.006771 0.000000 0.000000 0.000000
# 4 0.000000 0.000000 0.000000 0.191162 0.000000 0.000000
# 5 0.000000 0.000000 0.000000 0.000000 -0.039535 0.000000
# 6 0.000000 0.000000 0.000000 0.000000 0.000000 0.022028
#
#
# Mechanical properties :
#
#
# Convention : Reuss Voigt Hill
#
# Bulk Modulus (GPa) = 47.97473 51.86798 49.92135
# Shear Modulus (GPa) = 21.78752 21.66127 21.72440
#
# Velocity S-wave (km/s) = 3.19091 3.18165 3.18628
# Velocity P-wave (km/s) = 5.99964 6.14300 6.07174
#
# Compressibility (1/GPa) = 0.02084431
#
# Stress axis : x y z
#
# Youngs Moduli (GPa) = 78.20867 65.32441 147.69675
#
# Poissons Ratio (x) = 0.26991 0.21318
# Poissons Ratio (y) = 0.32314 0.21198
# Poissons Ratio (z) = 0.11288 0.09376
#
# Static dielectric constant tensor:
#      x y z
#    x 1.819980 0.000000 0.000000 
#    y 0.000000 1.904940 0.000000 
#    z 0.000000 0.000000 1.736430 
# 
# From -- ./inp_files/61073.got.cif
#   From: 2010.05.17/outbox.cif.g08.bks.cpg/sg66_31_cif.got.tgz:61073.got - 2010.06.03 17:51:23.
