data_PCOD9499323
_publ_section_title
;
Structure prediction by ZEFSAII (Michael W. Deem and Ramdas Pophale) SiO2 
 PCOD9499323
Probable space group: C C C M
;
_chemical_formula_sum "Si O2"
_cell_formula_units_Z 40
_cell_length_a 7.097202
_cell_length_b 28.709678
_cell_length_c 7.509582
_cell_angle_alpha 90.000000
_cell_angle_beta 90.000000
_cell_angle_gamma 90.000000
_cell_volume 1530.140294
_symmetry_space_group_name_H-M "C C C M"
_symmetry_group_IT_number 66
_symmetry_cell_setting 'orthorhombic'
loop_
_space_group_symop_operation_xyz
x,y,z
-x,-y,z
x,-y,1/2-z
-x,y,1/2-z
-x,-y,-z
x,y,-z
-x,y,1/2+z
x,-y,1/2+z
1/2+x,1/2+y,z
1/2-x,1/2-y,z
1/2+x,1/2-y,1/2-z
1/2-x,1/2+y,1/2-z
1/2-x,1/2-y,-z
1/2+x,1/2+y,-z
1/2-x,1/2+y,1/2+z
1/2+x,1/2-y,1/2+z
loop_
_atom_site_type_symbol
_atom_site_label
_atom_site_fract_x
_atom_site_fract_y
_atom_site_fract_z
Si Si1 0.718100 0.694678 0.201807
Si Si2 0.223709 0.053714 0.209067
Si Si3 0.645103 0.872577 0.500000
O O1 0.500000 0.685247 0.250000
O O2 0.750000 0.750000 0.208282
O O3 0.835242 0.668088 0.347091
O O4 0.753814 0.677931 0.000000
O O5 0.326465 0.087543 0.344034
O O6 0.000000 0.059478 0.250000
O O7 0.269479 0.000000 0.250000
O O8 0.256242 0.064059 0.000000
#
# Coordination Sequence:
#
# PCOD9499323 Si02
#       3
#    16  16   8
#     4  11  24  39  58  84 113 152 191 237 285 336
#     4  11  19  29  43  70 106 149 184 218 272 337
#     4  12  21  33  53  76 111 147 194 223 282 332
#
# _framework density 26.141394999999999
#
# number of rings (size 3 to 8) (size 9 to 14) (size 15 to 20)
#    0.000    0.800    6.000    4.200    0.000    0.000 
#    0.000    0.000    0.000    0.000    0.000    0.000 
#    0.000    4.800    0.000    0.400    0.000    0.000 
#
# Total GULP energy -111398.670707 kJ/mol
# GULP energy per Si atom -5569.933535 kJ/mol
# Density = 2.608190 g / cm^3
# Si number density = 26.141395 Si / 1000 Ang^3
#
#
#
# Elastic Constant Matrix: (Units=GPa)
#
#
# Indices 1 2 3 4 5 6 
#
# 1 115.0207 -10.1264 66.6127 0.0000 0.0000 0.0000
# 2 -10.1264 174.1487 123.6758 0.0000 0.0000 0.0000
# 3 66.6127 123.6758 394.1180 0.0000 0.0000 0.0000
# 4 0.0000 0.0000 0.0000 72.1505 0.0000 0.0000
# 5 0.0000 0.0000 0.0000 0.0000 270.2320 0.0000
# 6 0.0000 0.0000 0.0000 0.0000 0.0000 -15.1002
#
#
#
# Elastic Compliance Matrix: (Units=1/GPa)
#
#
# Indices 1 2 3 4 5 6 
#
# 1 0.010347 0.002372 -0.002493 0.000000 0.000000 0.000000
# 2 0.002372 0.007933 -0.002890 0.000000 0.000000 0.000000
# 3 -0.002493 -0.002890 0.003866 0.000000 0.000000 0.000000
# 4 0.000000 0.000000 0.000000 0.013860 0.000000 0.000000
# 5 0.000000 0.000000 0.000000 0.000000 0.003701 0.000000
# 6 0.000000 0.000000 0.000000 0.000000 0.000000 -0.066224
#
#
# Mechanical properties :
#
#
# Convention : Reuss Voigt Hill
#
# Bulk Modulus (GPa) = 62.02383 115.95686 88.99034
# Shear Modulus (GPa) = -330.64519 98.99814 -115.82352
#
# Velocity S-wave (km/s) = -11.25868 6.16056 -6.66354
# Velocity P-wave (km/s) = 12.05126 9.74973 5.00878
#
# Compressibility (1/GPa) = 0.01612283
#
# Stress axis : x y z
#
# Youngs Moduli (GPa) = 96.64768 126.05939 258.68580
#
# Poissons Ratio (x) = -0.29905 0.64496
# Poissons Ratio (y) = -0.22927 0.74768
# Poissons Ratio (z) = 0.24096 0.36435
#
# Static dielectric constant tensor:
#      x y z
#    x 2.191360 0.000000 0.000000 
#    y 0.000000 1.933570 0.000000 
#    z 0.000000 0.000000 1.925830 
# 
# From -- ./inp_files/2584.got.cif
#   From: 2010.05.17/outbox.cif.g08.bks.cpg/sg66_2_cif.got.tgz:2584.got - 2010.06.03 17:51:23.
