data_PCOD9499753
_publ_section_title
;
Structure prediction by ZEFSAII (Michael W. Deem and Ramdas Pophale) SiO2 
 PCOD9499753
Probable space group: C C C M
;
_chemical_formula_sum "Si O2"
_cell_formula_units_Z 48
_cell_length_a 13.835137
_cell_length_b 8.689720
_cell_length_c 19.068453
_cell_angle_alpha 90.000000
_cell_angle_beta 90.000000
_cell_angle_gamma 90.000000
_cell_volume 2292.475524
_symmetry_space_group_name_H-M "C C C M"
_symmetry_group_IT_number 66
_symmetry_cell_setting 'orthorhombic'
loop_
_space_group_symop_operation_xyz
x,y,z
-x,-y,z
x,-y,1/2-z
-x,y,1/2-z
-x,-y,-z
x,y,-z
-x,y,1/2+z
x,-y,1/2+z
1/2+x,1/2+y,z
1/2-x,1/2-y,z
1/2+x,1/2-y,1/2-z
1/2-x,1/2+y,1/2-z
1/2-x,1/2-y,-z
1/2+x,1/2+y,-z
1/2-x,1/2+y,1/2+z
1/2+x,1/2-y,1/2+z
loop_
_atom_site_type_symbol
_atom_site_label
_atom_site_fract_x
_atom_site_fract_y
_atom_site_fract_z
Si Si1 0.064943 0.874407 0.822170
Si Si2 0.264198 0.066586 0.817507
Si Si3 0.898886 0.412513 0.078572
O O1 0.085685 0.725854 0.867263
O O2 0.000000 0.843698 0.750000
O O3 0.167168 0.962615 0.815457
O O4 0.000000 0.000000 0.861923
O O5 0.250000 0.250000 0.810413
O O6 0.321780 0.000000 0.750000
O O7 0.320232 0.026113 0.887989
O O8 0.000000 0.500000 0.074981
O O9 0.871908 0.361674 0.000000
#
# Coordination Sequence:
#
# PCOD9499753 Si02
#       3
#    16  16  16
#     4  11  23  43  70 105 136 179 233 283 341 404
#     4  12  25  43  72 104 135 180 232 289 344 404
#     4  11  27  46  69 104 142 186 227 278 348 409
#
# _framework density 20.938065000000002
#
# number of rings (size 3 to 8) (size 9 to 14) (size 15 to 20)
#    0.000    0.667    3.333    5.000    4.667    4.000 
#    0.000    0.000    0.000    0.000    0.000    0.000 
#    0.000    0.000    0.000    0.000    0.000    0.000 
#
# Total GULP energy -133837.075666 kJ/mol
# GULP energy per Si atom -5576.544819 kJ/mol
# Density = 2.089041 g / cm^3
# Si number density = 20.938065 Si / 1000 Ang^3
#
#
#
# Elastic Constant Matrix: (Units=GPa)
#
#
# Indices 1 2 3 4 5 6 
#
# 1 81.0811 24.1691 57.2283 0.0000 0.0000 0.0000
# 2 24.1691 176.8466 86.9173 0.0000 0.0000 0.0000
# 3 57.2283 86.9173 137.3698 0.0000 0.0000 0.0000
# 4 0.0000 0.0000 0.0000 10.9842 0.0000 0.0000
# 5 0.0000 0.0000 0.0000 0.0000 171.0042 0.0000
# 6 0.0000 0.0000 0.0000 0.0000 0.0000 27.3898
#
#
#
# Elastic Compliance Matrix: (Units=1/GPa)
#
#
# Indices 1 2 3 4 5 6 
#
# 1 0.017841 0.001763 -0.008548 0.000000 0.000000 0.000000
# 2 0.001763 0.008381 -0.006037 0.000000 0.000000 0.000000
# 3 -0.008548 -0.006037 0.014661 0.000000 0.000000 0.000000
# 4 0.000000 0.000000 0.000000 0.091040 0.000000 0.000000
# 5 0.000000 0.000000 0.000000 0.000000 0.005848 0.000000
# 6 0.000000 0.000000 0.000000 0.000000 0.000000 0.036510
#
#
# Mechanical properties :
#
#
# Convention : Reuss Voigt Hill
#
# Bulk Modulus (GPa) = 65.62552 81.32522 73.47537
# Shear Modulus (GPa) = 24.38970 57.00783 40.69876
#
# Velocity S-wave (km/s) = 3.41669 5.22360 4.41360
# Velocity P-wave (km/s) = 6.85389 8.67793 7.81928
#
# Compressibility (1/GPa) = 0.01523798
#
# Stress axis : x y z
#
# Youngs Moduli (GPa) = 56.04994 119.31908 68.20962
#
# Poissons Ratio (x) = -0.21035 0.58306
# Poissons Ratio (y) = -0.09881 0.41180
# Poissons Ratio (z) = 0.47912 0.72036
#
# Static dielectric constant tensor:
#      x y z
#    x 1.908620 0.000000 0.000000 
#    y 0.000000 1.740220 0.000000 
#    z 0.000000 0.000000 1.827800 
# 
# From -- ./inp_files/39443.got.cif
#   From: 2010.05.17/outbox.cif.g08.bks.cpg/sg66_20_cif.got.tgz:39443.got - 2010.06.03 17:51:23.
