data_PCOD9499619
_publ_section_title
;
Structure prediction by ZEFSAII (Michael W. Deem and Ramdas Pophale) SiO2 
 PCOD9499619
Probable space group: C C C M
;
_chemical_formula_sum "Si O2"
_cell_formula_units_Z 64
_cell_length_a 13.199352
_cell_length_b 13.583271
_cell_length_c 17.770600
_cell_angle_alpha 90.000000
_cell_angle_beta 90.000000
_cell_angle_gamma 90.000000
_cell_volume 3186.097542
_symmetry_space_group_name_H-M "C C C M"
_symmetry_group_IT_number 66
_symmetry_cell_setting 'orthorhombic'
loop_
_space_group_symop_operation_xyz
x,y,z
-x,-y,z
x,-y,1/2-z
-x,y,1/2-z
-x,-y,-z
x,y,-z
-x,y,1/2+z
x,-y,1/2+z
1/2+x,1/2+y,z
1/2-x,1/2-y,z
1/2+x,1/2-y,1/2-z
1/2-x,1/2+y,1/2-z
1/2-x,1/2-y,-z
1/2+x,1/2+y,-z
1/2-x,1/2+y,1/2+z
1/2+x,1/2-y,1/2+z
loop_
_atom_site_type_symbol
_atom_site_label
_atom_site_fract_x
_atom_site_fract_y
_atom_site_fract_z
Si Si1 0.579626 0.910902 0.912042
Si Si2 0.092524 0.923404 0.081391
Si Si3 0.532719 0.721743 0.169564
Si Si4 0.716571 0.436297 0.326486
O O1 0.533879 0.803751 0.894824
O O2 0.670480 0.909323 0.850998
O O3 0.500000 0.000000 0.899337
O O4 0.612091 0.916442 0.000000
O O5 0.057729 0.851097 0.146295
O O6 0.184791 0.989088 0.107319
O O7 0.107956 0.876535 0.000000
O O8 0.000000 0.000000 0.075800
O O9 0.500000 0.764540 0.250000
O O10 0.636089 0.655121 0.173948
O O11 0.710966 0.500000 0.250000
#
# Coordination Sequence:
#
# PCOD9499619 Si02
#       4
#    16  16  16  16
#     4  11  27  47  65  91 132 179 224 265 316 385
#     4   9  18  34  61  93 126 161 207 265 323 377
#     4  11  22  39  66  98 131 168 214 268 326 387
#     4  11  22  39  66  98 131 168 214 268 326 387
#
# _framework density 20.087268999999999
#
# number of rings (size 3 to 8) (size 9 to 14) (size 15 to 20)
#    0.000    1.500    2.500    2.250    3.500    4.000 
#    0.000    1.250    0.000    4.500    0.000    0.000 
#    0.000    0.000    0.000    0.000    0.000    0.000 
#
# Total GULP energy -178257.315754 kJ/mol
# GULP energy per Si atom -5570.541117 kJ/mol
# Density = 2.004155 g / cm^3
# Si number density = 20.087269 Si / 1000 Ang^3
#
#
#
# Elastic Constant Matrix: (Units=GPa)
#
#
# Indices 1 2 3 4 5 6 
#
# 1 43.6941 16.2778 4.0179 0.0000 0.0000 0.0000
# 2 16.2778 73.4598 12.2863 0.0000 0.0000 0.0000
# 3 4.0179 12.2863 88.4150 0.0000 0.0000 0.0000
# 4 0.0000 0.0000 0.0000 39.5382 0.0000 0.0000
# 5 0.0000 0.0000 0.0000 0.0000 84.2055 0.0000
# 6 0.0000 0.0000 0.0000 0.0000 0.0000 20.3121
#
#
#
# Elastic Compliance Matrix: (Units=1/GPa)
#
#
# Indices 1 2 3 4 5 6 
#
# 1 0.024958 -0.005468 -0.000374 0.000000 0.000000 0.000000
# 2 -0.005468 0.015135 -0.001855 0.000000 0.000000 0.000000
# 3 -0.000374 -0.001855 0.011585 0.000000 0.000000 0.000000
# 4 0.000000 0.000000 0.000000 0.025292 0.000000 0.000000
# 5 0.000000 0.000000 0.000000 0.000000 0.011876 0.000000
# 6 0.000000 0.000000 0.000000 0.000000 0.000000 0.049232
#
#
# Mechanical properties :
#
#
# Convention : Reuss Voigt Hill
#
# Bulk Modulus (GPa) = 27.56042 30.08146 28.82094
# Shear Modulus (GPa) = 30.19961 40.34362 35.27162
#
# Velocity S-wave (km/s) = 3.88160 4.48640 4.19491
# Velocity P-wave (km/s) = 5.81715 6.46877 6.15159
#
# Compressibility (1/GPa) = 0.03628392
#
# Stress axis : x y z
#
# Youngs Moduli (GPa) = 40.06773 66.07349 86.31825
#
# Poissons Ratio (x) = 0.36127 0.03231
# Poissons Ratio (y) = 0.21908 0.16009
# Poissons Ratio (z) = 0.01500 0.12254
#
# Static dielectric constant tensor:
#      x y z
#    x 1.745040 0.000000 0.000000 
#    y 0.000000 1.791910 0.000000 
#    z 0.000000 0.000000 1.706220 
# 
# From -- ./inp_files/27724.got.cif
#   From: 2010.05.17/outbox.cif.g08.bks.cpg/sg66_14_cif.got.tgz:27724.got - 2010.06.03 17:51:23.
