data_PCOD9499464
_publ_section_title
;
Structure prediction by ZEFSAII (Michael W. Deem and Ramdas Pophale) SiO2 
 PCOD9499464
Probable space group: C C C M
;
_chemical_formula_sum "Si O2"
_cell_formula_units_Z 88
_cell_length_a 16.374150
_cell_length_b 11.489376
_cell_length_c 23.877535
_cell_angle_alpha 90.000000
_cell_angle_beta 90.000000
_cell_angle_gamma 90.000000
_cell_volume 4492.051195
_symmetry_space_group_name_H-M "C C C M"
_symmetry_group_IT_number 66
_symmetry_cell_setting 'orthorhombic'
loop_
_space_group_symop_operation_xyz
x,y,z
-x,-y,z
x,-y,1/2-z
-x,y,1/2-z
-x,-y,-z
x,y,-z
-x,y,1/2+z
x,-y,1/2+z
1/2+x,1/2+y,z
1/2-x,1/2-y,z
1/2+x,1/2-y,1/2-z
1/2-x,1/2+y,1/2-z
1/2-x,1/2-y,-z
1/2+x,1/2+y,-z
1/2-x,1/2+y,1/2+z
1/2+x,1/2-y,1/2+z
loop_
_atom_site_type_symbol
_atom_site_label
_atom_site_fract_x
_atom_site_fract_y
_atom_site_fract_z
Si Si1 0.568224 0.898693 0.907353
Si Si2 0.154444 0.240881 0.824100
Si Si3 0.906322 0.877066 0.726304
Si Si4 0.473205 0.226619 0.500000
Si Si5 0.904921 0.995179 0.115855
Si Si6 0.842486 0.066808 0.000000
Si Si7 0.839162 0.526981 0.500000
O O1 0.603926 0.846279 0.850767
O O2 0.528165 0.795216 0.945012
O O3 0.642127 0.949420 0.945235
O O4 0.500000 0.000000 0.899557
O O5 0.250000 0.250000 0.836260
O O6 0.139974 0.225665 0.757634
O O7 0.119190 0.123195 0.852513
O O8 0.896807 0.896423 0.659973
O O9 0.000000 0.870202 0.750000
O O10 0.873661 0.000000 0.750000
O O11 0.413515 0.335909 0.500000
O O12 0.412384 0.117874 0.500000
O O13 0.856190 0.001323 0.058376
O O14 0.000000 0.000000 0.101473
O O15 0.746221 0.093627 0.000000
#
# Coordination Sequence:
#
# PCOD9499464 Si02
#       7
#    16  16  16   8  16   8   8
#     4   9  19  38  60  80 116 166 200 228 292 367
#     4  11  21  35  63  92 114 148 200 249 296 338
#     4   9  17  37  62  76 110 162 195 220 290 366
#     4   9  19  34  55  79 114 169 205 220 287 380
#     4  11  21  37  58  87 121 157 191 239 301 362
#     4  12  22  31  56  96 123 136 200 267 289 328
#     4   9  19  37  52  79 125 167 188 235 307 354
#
# _framework density 19.590157999999999
#
# number of rings (size 3 to 8) (size 9 to 14) (size 15 to 20)
#    0.000    2.000    3.636    3.818    0.000    1.455 
#    0.000    5.000   12.000    0.000    0.000    0.000 
#    0.000    0.000    0.000    0.000    0.000    0.000 
#
# Total GULP energy -245085.406222 kJ/mol
# GULP energy per Si atom -5570.122869 kJ/mol
# Density = 1.954557 g / cm^3
# Si number density = 19.590158 Si / 1000 Ang^3
#
#
#
# Elastic Constant Matrix: (Units=GPa)
#
#
# Indices 1 2 3 4 5 6 
#
# 1 90.4457 13.5042 15.7871 0.0000 0.0000 0.0000
# 2 13.5042 49.1687 19.5588 0.0000 0.0000 0.0000
# 3 15.7871 19.5588 108.6424 0.0000 0.0000 0.0000
# 4 0.0000 0.0000 0.0000 17.7250 0.0000 0.0000
# 5 0.0000 0.0000 0.0000 0.0000 15.4324 0.0000
# 6 0.0000 0.0000 0.0000 0.0000 0.0000 13.7286
#
#
#
# Elastic Compliance Matrix: (Units=1/GPa)
#
#
# Indices 1 2 3 4 5 6 
#
# 1 0.011674 -0.002727 -0.001205 0.000000 0.000000 0.000000
# 2 -0.002727 0.022544 -0.003662 0.000000 0.000000 0.000000
# 3 -0.001205 -0.003662 0.010039 0.000000 0.000000 0.000000
# 4 0.000000 0.000000 0.000000 0.056417 0.000000 0.000000
# 5 0.000000 0.000000 0.000000 0.000000 0.064799 0.000000
# 6 0.000000 0.000000 0.000000 0.000000 0.000000 0.072841
#
#
# Mechanical properties :
#
#
# Convention : Reuss Voigt Hill
#
# Bulk Modulus (GPa) = 34.40242 38.43968 36.42105
# Shear Modulus (GPa) = 18.99756 22.67099 20.83427
#
# Velocity S-wave (km/s) = 3.11746 3.40555 3.26468
# Velocity P-wave (km/s) = 5.52786 5.92691 5.73086
#
# Compressibility (1/GPa) = 0.02906773
#
# Stress axis : x y z
#
# Youngs Moduli (GPa) = 85.66128 44.35794 99.61142
#
# Poissons Ratio (x) = 0.12095 0.12008
# Poissons Ratio (y) = 0.23357 0.36481
# Poissons Ratio (z) = 0.10326 0.16245
#
# Static dielectric constant tensor:
#      x y z
#    x 1.708900 0.000000 0.000000 
#    y 0.000000 1.709510 0.000000 
#    z 0.000000 0.000000 1.794880 
# 
# From -- ./inp_files/56799.got.cif
#   From: 2010.05.17/outbox.cif.g08.bks.cpg/sg66_29_cif.got.tgz:56799.got - 2010.06.03 17:51:23.
