data_PCOD9499793
_publ_section_title
;
Structure prediction by ZEFSAII (Michael W. Deem and Ramdas Pophale) SiO2 
 PCOD9499793
Probable space group: C C C M
;
_chemical_formula_sum "Si O2"
_cell_formula_units_Z 48
_cell_length_a 9.806747
_cell_length_b 12.112676
_cell_length_c 17.384191
_cell_angle_alpha 90.000000
_cell_angle_beta 90.000000
_cell_angle_gamma 90.000000
_cell_volume 2064.997626
_symmetry_space_group_name_H-M "C C C M"
_symmetry_group_IT_number 66
_symmetry_cell_setting 'orthorhombic'
loop_
_space_group_symop_operation_xyz
x,y,z
-x,-y,z
x,-y,1/2-z
-x,y,1/2-z
-x,-y,-z
x,y,-z
-x,y,1/2+z
x,-y,1/2+z
1/2+x,1/2+y,z
1/2-x,1/2-y,z
1/2+x,1/2-y,1/2-z
1/2-x,1/2+y,1/2-z
1/2-x,1/2-y,-z
1/2+x,1/2+y,-z
1/2-x,1/2+y,1/2+z
1/2+x,1/2-y,1/2+z
loop_
_atom_site_type_symbol
_atom_site_label
_atom_site_fract_x
_atom_site_fract_y
_atom_site_fract_z
Si Si1 0.906575 0.339516 0.909902
Si Si2 0.519159 0.624754 0.841051
Si Si3 0.211805 0.435131 0.090933
O O1 0.920020 0.218869 0.873766
O O2 0.061471 0.383957 0.903718
O O3 0.810928 0.438737 0.879236
O O4 0.874948 0.328986 0.000000
O O5 0.500000 0.500000 0.872023
O O6 0.500000 0.624437 0.750000
O O7 0.677296 0.636657 0.864579
O O8 0.247996 0.437760 0.000000
#
# Coordination Sequence:
#
# PCOD9499793 Si02
#       3
#    16  16  16
#     4   9  19  40  70  97 116 158 218 267 323 378
#     4  11  24  40  52  89 137 172 205 252 317 389
#     4   9  19  40  69  95 121 157 213 273 319 373
#
# _framework density 23.244578000000001
#
# number of rings (size 3 to 8) (size 9 to 14) (size 15 to 20)
#    0.000    2.333    0.000    4.000    0.000    6.667 
#   24.000    5.000    0.000    0.000    0.000    0.000 
#    0.000    0.000    0.000    0.000    0.000    0.000 
#
# Total GULP energy -133997.883285 kJ/mol
# GULP energy per Si atom -5583.245137 kJ/mol
# Density = 2.319167 g / cm^3
# Si number density = 23.244578 Si / 1000 Ang^3
#
#
#
# Elastic Constant Matrix: (Units=GPa)
#
#
# Indices 1 2 3 4 5 6 
#
# 1 73.1369 18.0514 10.7435 0.0000 0.0000 0.0000
# 2 18.0514 168.0025 25.3567 0.0000 0.0000 0.0000
# 3 10.7435 25.3567 32.8651 0.0000 0.0000 0.0000
# 4 0.0000 0.0000 0.0000 241.7306 0.0000 0.0000
# 5 0.0000 0.0000 0.0000 0.0000 119.1854 0.0000
# 6 0.0000 0.0000 0.0000 0.0000 0.0000 48.0450
#
#
#
# Elastic Compliance Matrix: (Units=1/GPa)
#
#
# Indices 1 2 3 4 5 6 
#
# 1 0.014496 -0.000953 -0.004003 0.000000 0.000000 0.000000
# 2 -0.000953 0.006799 -0.004934 0.000000 0.000000 0.000000
# 3 -0.004003 -0.004934 0.035543 0.000000 0.000000 0.000000
# 4 0.000000 0.000000 0.000000 0.004137 0.000000 0.000000
# 5 0.000000 0.000000 0.000000 0.000000 0.008390 0.000000
# 6 0.000000 0.000000 0.000000 0.000000 0.000000 0.020814
#
#
# Mechanical properties :
#
#
# Convention : Reuss Voigt Hill
#
# Bulk Modulus (GPa) = 26.98550 42.47862 34.73206
# Shear Modulus (GPa) = 40.87828 96.44906 68.66367
#
# Velocity S-wave (km/s) = 4.19813 6.44851 5.44094
# Velocity P-wave (km/s) = 5.92737 8.58828 7.37876
#
# Compressibility (1/GPa) = 0.03705693
#
# Stress axis : x y z
#
# Youngs Moduli (GPa) = 68.98284 147.07003 28.13481
#
# Poissons Ratio (x) = 0.14021 0.11263
# Poissons Ratio (y) = 0.06577 0.13883
# Poissons Ratio (z) = 0.27616 0.72570
#
# Static dielectric constant tensor:
#      x y z
#    x 2.005140 0.000000 0.000000 
#    y 0.000000 1.982450 0.000000 
#    z 0.000000 0.000000 1.784850 
# 
# From -- ./inp_files/37607.got.cif
#   From: 2010.05.17/outbox.cif.g08.bks.cpg/sg66_19_cif.got.tgz:37607.got - 2010.06.03 17:51:23.
