data_PCOD9499693
_publ_section_title
;
Structure prediction by ZEFSAII (Michael W. Deem and Ramdas Pophale) SiO2 
 PCOD9499693
Probable space group: C C C M
;
_chemical_formula_sum "Si O2"
_cell_formula_units_Z 88
_cell_length_a 10.581274
_cell_length_b 26.217123
_cell_length_c 15.315396
_cell_angle_alpha 90.000000
_cell_angle_beta 90.000000
_cell_angle_gamma 90.000000
_cell_volume 4248.652611
_symmetry_space_group_name_H-M "C C C M"
_symmetry_group_IT_number 66
_symmetry_cell_setting 'orthorhombic'
loop_
_space_group_symop_operation_xyz
x,y,z
-x,-y,z
x,-y,1/2-z
-x,y,1/2-z
-x,-y,-z
x,y,-z
-x,y,1/2+z
x,-y,1/2+z
1/2+x,1/2+y,z
1/2-x,1/2-y,z
1/2+x,1/2-y,1/2-z
1/2-x,1/2+y,1/2-z
1/2-x,1/2-y,-z
1/2+x,1/2+y,-z
1/2-x,1/2+y,1/2+z
1/2+x,1/2-y,1/2+z
loop_
_atom_site_type_symbol
_atom_site_label
_atom_site_fract_x
_atom_site_fract_y
_atom_site_fract_z
Si Si1 0.804347 0.976792 0.599396
Si Si2 0.558918 0.211242 0.654898
Si Si3 0.993725 0.638496 0.500000
Si Si4 0.544863 0.941584 0.345709
Si Si5 0.554798 0.425978 0.347072
Si Si6 0.165214 0.182478 0.103271
O O1 0.761860 0.985686 0.500000
O O2 0.696837 0.945305 0.648273
O O3 0.934985 0.945642 0.598129
O O4 0.838228 0.030612 0.643810
O O5 0.500000 0.205353 0.750000
O O6 0.486843 0.182373 0.577618
O O7 0.701579 0.188946 0.651826
O O8 0.576001 0.271013 0.631382
O O9 0.002345 0.594315 0.422852
O O10 0.500000 0.924549 0.250000
O O11 0.500000 0.000000 0.357661
O O12 0.500000 0.423805 0.250000
O O13 0.605235 0.371975 0.377732
O O14 0.194778 0.186690 0.000000
#
# Coordination Sequence:
#
# PCOD9499693 Si02
#       6
#    16  16   8  16  16  16
#     4  11  23  45  64  98 143 184 236 288 356 431
#     4  11  24  43  74 106 140 182 245 302 352 422
#     4  12  23  45  64 104 137 195 231 288 367 416
#     4  11  27  42  68 101 143 189 239 290 351 426
#     4  11  25  39  72 104 135 189 233 292 357 425
#     4  11  22  47  73 104 138 191 245 292 364 432
#
# _framework density 20.712447999999998
#
# number of rings (size 3 to 8) (size 9 to 14) (size 15 to 20)
#    0.000    0.909    2.727    5.182    7.636    1.455 
#    0.000    0.000    0.000    3.273    0.000    0.000 
#    0.000    0.000    0.000    0.000    0.000    0.000 
#
# Total GULP energy -245098.143789 kJ/mol
# GULP energy per Si atom -5570.412359 kJ/mol
# Density = 2.066531 g / cm^3
# Si number density = 20.712448 Si / 1000 Ang^3
#
#
#
# Elastic Constant Matrix: (Units=GPa)
#
#
# Indices 1 2 3 4 5 6 
#
# 1 37.9372 25.9215 56.3035 0.0000 0.0000 0.0000
# 2 25.9215 148.8390 71.0934 0.0000 0.0000 0.0000
# 3 56.3035 71.0934 225.4005 0.0000 0.0000 0.0000
# 4 0.0000 0.0000 0.0000 60.8982 0.0000 0.0000
# 5 0.0000 0.0000 0.0000 0.0000 1.9713 0.0000
# 6 0.0000 0.0000 0.0000 0.0000 0.0000 12.8366
#
#
#
# Elastic Compliance Matrix: (Units=1/GPa)
#
#
# Indices 1 2 3 4 5 6 
#
# 1 0.042834 -0.002766 -0.009827 0.000000 0.000000 0.000000
# 2 -0.002766 0.008089 -0.001860 0.000000 0.000000 0.000000
# 3 -0.009827 -0.001860 0.007478 0.000000 0.000000 0.000000
# 4 0.000000 0.000000 0.000000 0.016421 0.000000 0.000000
# 5 0.000000 0.000000 0.000000 0.000000 0.507284 0.000000
# 6 0.000000 0.000000 0.000000 0.000000 0.000000 0.077902
#
#
# Mechanical properties :
#
#
# Convention : Reuss Voigt Hill
#
# Bulk Modulus (GPa) = 33.90510 79.86815 56.88663
# Shear Modulus (GPa) = 7.15567 32.39845 19.77706
#
# Velocity S-wave (km/s) = 1.86072 3.95929 3.09340
# Velocity P-wave (km/s) = 4.58490 7.71657 6.34692
#
# Compressibility (1/GPa) = 0.02949409
#
# Stress axis : x y z
#
# Youngs Moduli (GPa) = 23.34584 123.62442 133.72302
#
# Poissons Ratio (x) = 0.34193 1.31414
# Poissons Ratio (y) = 0.06457 0.24879
# Poissons Ratio (z) = 0.22943 0.23000
#
# Static dielectric constant tensor:
#      x y z
#    x 1.780600 0.000000 0.000000 
#    y 0.000000 1.727900 0.000000 
#    z 0.000000 0.000000 1.747620 
# 
# From -- ./inp_files/26539.got.cif
#   From: 2010.05.17/outbox.cif.g08.bks.cpg/sg66_14_cif.got.tgz:26539.got - 2010.06.03 17:51:23.
