data_PCOD9499363
_publ_section_title
;
Structure prediction by ZEFSAII (Michael W. Deem and Ramdas Pophale) SiO2 
 PCOD9499363
Probable space group: C C C M
;
_chemical_formula_sum "Si O2"
_cell_formula_units_Z 116
_cell_length_a 23.607893
_cell_length_b 16.577126
_cell_length_c 14.312326
_cell_angle_alpha 90.000000
_cell_angle_beta 90.000000
_cell_angle_gamma 90.000000
_cell_volume 5601.143334
_symmetry_space_group_name_H-M "C C C M"
_symmetry_group_IT_number 66
_symmetry_cell_setting 'orthorhombic'
loop_
_space_group_symop_operation_xyz
x,y,z
-x,-y,z
x,-y,1/2-z
-x,y,1/2-z
-x,-y,-z
x,y,-z
-x,y,1/2+z
x,-y,1/2+z
1/2+x,1/2+y,z
1/2-x,1/2-y,z
1/2+x,1/2-y,1/2-z
1/2-x,1/2+y,1/2-z
1/2-x,1/2-y,-z
1/2+x,1/2+y,-z
1/2-x,1/2+y,1/2+z
1/2+x,1/2-y,1/2+z
loop_
_atom_site_type_symbol
_atom_site_label
_atom_site_fract_x
_atom_site_fract_y
_atom_site_fract_z
Si Si1 0.094502 0.507345 0.141152
Si Si2 0.465771 0.747844 0.611937
Si Si3 0.092407 0.697563 0.892919
Si Si4 0.794017 0.405810 0.391822
Si Si5 0.669039 0.406199 0.611873
Si Si6 0.000000 0.500000 0.000000
Si Si7 0.047912 0.060475 0.887063
Si Si8 0.648413 0.235680 0.291046
O O1 0.082716 0.500000 0.250000
O O2 0.096267 0.600952 0.111437
O O3 0.155319 0.468410 0.121011
O O4 0.044595 0.469262 0.080643
O O5 0.457671 0.753965 0.500000
O O6 0.527792 0.780847 0.633737
O O7 0.464325 0.653091 0.638876
O O8 0.412282 0.787637 0.662291
O O9 0.135773 0.734900 0.818876
O O10 0.101184 0.724264 0.000000
O O11 0.794650 0.377276 0.500000
O O12 0.731547 0.440918 0.372845
O O13 0.807305 0.331327 0.323873
O O14 0.663882 0.389477 0.500000
O O15 0.613260 0.456955 0.638624
O O16 0.664848 0.321708 0.666429
O O17 0.045324 0.057694 0.000000
O O18 0.000000 0.000000 0.852497
#
# Coordination Sequence:
#
# PCOD9499363 Si02
#       8
#    16  16  16  16  16   4  16  16
#     4  12  25  41  59  90 124 171 214 266 317 376
#     4   9  19  32  54  88 123 159 199 251 317 380
#     4  11  23  39  56  81 123 168 215 260 306 377
#     4  11  21  36  62  88 122 162 198 253 320 373
#     4   9  19  35  59  98 124 149 202 254 314 388
#     4  12  26  40  60  90 134 154 230 264 316 374
#     4   8  14  30  58  91 126 155 186 244 314 376
#     4  11  20  33  59  85 121 159 200 255 311 368
#
# _framework density 20.710056000000002
#
# number of rings (size 3 to 8) (size 9 to 14) (size 15 to 20)
#    0.000    1.793    2.759    3.103    1.931    2.207 
#    0.000    0.000    3.034    7.448    0.000    0.000 
#    0.000    0.000    0.000    0.000    0.000    0.000 
#
# Total GULP energy -323534.977560 kJ/mol
# GULP energy per Si atom -5578.189268 kJ/mol
# Density = 2.066292 g / cm^3
# Si number density = 20.710056 Si / 1000 Ang^3
#
#
#
# Elastic Constant Matrix: (Units=GPa)
#
#
# Indices 1 2 3 4 5 6 
#
# 1 158.9100 36.2607 43.1252 0.0000 0.0000 0.0000
# 2 36.2607 30.2194 -5.7600 0.0000 0.0000 0.0000
# 3 43.1252 -5.7600 104.8117 0.0000 0.0000 0.0000
# 4 0.0000 0.0000 0.0000 -1.3390 0.0000 0.0000
# 5 0.0000 0.0000 0.0000 0.0000 21.2634 0.0000
# 6 0.0000 0.0000 0.0000 0.0000 0.0000 31.0290
#
#
#
# Elastic Compliance Matrix: (Units=1/GPa)
#
#
# Indices 1 2 3 4 5 6 
#
# 1 0.010958 -0.014156 -0.005287 0.000000 0.000000 0.000000
# 2 -0.014156 0.051729 0.008667 0.000000 0.000000 0.000000
# 3 -0.005287 0.008667 0.012192 0.000000 0.000000 0.000000
# 4 0.000000 0.000000 0.000000 -0.746798 0.000000 0.000000
# 5 0.000000 0.000000 0.000000 0.000000 0.047029 0.000000
# 6 0.000000 0.000000 0.000000 0.000000 0.000000 0.032228
#
#
# Mechanical properties :
#
#
# Convention : Reuss Voigt Hill
#
# Bulk Modulus (GPa) = 18.75153 49.02144 33.88649
# Shear Modulus (GPa) = -9.03611 24.87835 7.92112
#
# Velocity S-wave (km/s) = -2.09108 3.46969 1.95782
# Velocity P-wave (km/s) = 1.80106 6.30662 4.63774
#
# Compressibility (1/GPa) = 0.05332897
#
# Stress axis : x y z
#
# Youngs Moduli (GPa) = 91.26028 19.33147 82.01837
#
# Poissons Ratio (x) = 0.27365 0.43359
# Poissons Ratio (y) = 1.29187 -0.71088
# Poissons Ratio (z) = 0.48245 -0.16755
#
# Static dielectric constant tensor:
#      x y z
#    x 1.763130 0.000000 0.000000 
#    y 0.000000 1.747560 0.000000 
#    z 0.000000 0.000000 1.752770 
# 
# From -- ./inp_files/32675.got.cif
#   From: 2010.05.17/outbox.cif.g08.bks.cpg/sg66_17_cif.got.tgz:32675.got - 2010.06.03 17:51:23.
