data_PCOD9499552
_publ_section_title
;
Structure prediction by ZEFSAII (Michael W. Deem and Ramdas Pophale) SiO2 
 PCOD9499552
Probable space group: C C C M
;
_chemical_formula_sum "Si O2"
_cell_formula_units_Z 56
_cell_length_a 10.885943
_cell_length_b 15.682824
_cell_length_c 18.342786
_cell_angle_alpha 90.000000
_cell_angle_beta 90.000000
_cell_angle_gamma 90.000000
_cell_volume 3131.523131
_symmetry_space_group_name_H-M "C C C M"
_symmetry_group_IT_number 66
_symmetry_cell_setting 'orthorhombic'
loop_
_space_group_symop_operation_xyz
x,y,z
-x,-y,z
x,-y,1/2-z
-x,y,1/2-z
-x,-y,-z
x,y,-z
-x,y,1/2+z
x,-y,1/2+z
1/2+x,1/2+y,z
1/2-x,1/2-y,z
1/2+x,1/2-y,1/2-z
1/2-x,1/2+y,1/2-z
1/2-x,1/2-y,-z
1/2+x,1/2+y,-z
1/2-x,1/2+y,1/2+z
1/2+x,1/2-y,1/2+z
loop_
_atom_site_type_symbol
_atom_site_label
_atom_site_fract_x
_atom_site_fract_y
_atom_site_fract_z
Si Si1 0.431434 0.089685 0.581150
Si Si2 0.000000 0.845176 0.250000
Si Si3 0.738200 0.853091 0.288799
Si Si4 0.623644 0.790862 0.145789
O O1 0.376602 0.094579 0.500000
O O2 0.334487 0.104942 0.645458
O O3 0.536957 0.160758 0.590714
O O4 0.500000 0.000000 0.589122
O O5 0.124889 0.889373 0.223364
O O6 0.046780 0.783936 0.315115
O O7 0.750000 0.750000 0.302821
O O8 0.663620 0.853901 0.212488
O O9 0.750000 0.750000 0.117044
#
# Coordination Sequence:
#
# PCOD9499552 Si02
#       4
#    16   8  16  16
#     4  11  22  33  48  78 114 144 174 212 261 318
#     4   8  14  30  53  81  96 120 176 232 262 300
#     4   9  16  31  55  78 100 133 175 228 265 307
#     4   9  16  31  53  74 100 135 175 225 261 307
#
# _framework density 17.882673
#
# number of rings (size 3 to 8) (size 9 to 14) (size 15 to 20)
#    0.000    3.143    5.714    0.000    0.000    3.429 
#    0.000    0.000    0.000   13.714    0.000   16.000 
#    0.000    0.000    0.000    0.000    0.000    0.000 
#
# Total GULP energy -155924.329115 kJ/mol
# GULP energy per Si atom -5568.726040 kJ/mol
# Density = 1.784197 g / cm^3
# Si number density = 17.882673 Si / 1000 Ang^3
#
#
#
# Elastic Constant Matrix: (Units=GPa)
#
#
# Indices 1 2 3 4 5 6 
#
# 1 101.4583 0.9241 34.4143 0.0000 0.0000 0.0000
# 2 0.9241 23.7777 13.5686 0.0000 0.0000 0.0000
# 3 34.4143 13.5686 70.8502 0.0000 0.0000 0.0000
# 4 0.0000 0.0000 0.0000 11.7002 0.0000 0.0000
# 5 0.0000 0.0000 0.0000 0.0000 14.1490 0.0000
# 6 0.0000 0.0000 0.0000 0.0000 0.0000 7.0233
#
#
#
# Elastic Compliance Matrix: (Units=1/GPa)
#
#
# Indices 1 2 3 4 5 6 
#
# 1 0.012015 0.003215 -0.006452 0.000000 0.000000 0.000000
# 2 0.003215 0.048076 -0.010769 0.000000 0.000000 0.000000
# 3 -0.006452 -0.010769 0.019311 0.000000 0.000000 0.000000
# 4 0.000000 0.000000 0.000000 0.085468 0.000000 0.000000
# 5 0.000000 0.000000 0.000000 0.000000 0.070676 0.000000
# 6 0.000000 0.000000 0.000000 0.000000 0.000000 0.142384
#
#
# Mechanical properties :
#
#
# Convention : Reuss Voigt Hill
#
# Bulk Modulus (GPa) = 19.45880 32.65559 26.05719
# Shear Modulus (GPa) = 11.81830 16.38645 14.10237
#
# Velocity S-wave (km/s) = 2.57355 3.03038 2.81126
# Velocity P-wave (km/s) = 4.44251 5.52675 5.01402
#
# Compressibility (1/GPa) = 0.05139064
#
# Stress axis : x y z
#
# Youngs Moduli (GPa) = 83.22599 20.80023 51.78511
#
# Poissons Ratio (x) = -0.06687 0.33412
# Poissons Ratio (y) = -0.26756 0.55766
# Poissons Ratio (z) = 0.53697 0.22399
#
# Static dielectric constant tensor:
#      x y z
#    x 1.655420 0.000000 0.000000 
#    y 0.000000 1.634130 0.000000 
#    z 0.000000 0.000000 1.596070 
# 
# From -- ./inp_files/25601.got.cif
#   From: 2010.05.17/outbox.cif.g08.bks.cpg/sg66_13_cif.got.tgz:25601.got - 2010.06.03 17:51:23.
