data_PCOD9499140
_publ_section_title
;
Structure prediction by ZEFSAII (Michael W. Deem and Ramdas Pophale) SiO2 
 PCOD9499140
Probable space group: C C C M
;
_chemical_formula_sum "Si O2"
_cell_formula_units_Z 56
_cell_length_a 15.556255
_cell_length_b 10.767386
_cell_length_c 17.526700
_cell_angle_alpha 90.000000
_cell_angle_beta 90.000000
_cell_angle_gamma 90.000000
_cell_volume 2935.725796
_symmetry_space_group_name_H-M "C C C M"
_symmetry_group_IT_number 66
_symmetry_cell_setting 'orthorhombic'
loop_
_space_group_symop_operation_xyz
x,y,z
-x,-y,z
x,-y,1/2-z
-x,y,1/2-z
-x,-y,-z
x,y,-z
-x,y,1/2+z
x,-y,1/2+z
1/2+x,1/2+y,z
1/2-x,1/2-y,z
1/2+x,1/2-y,1/2-z
1/2-x,1/2+y,1/2-z
1/2-x,1/2-y,-z
1/2+x,1/2+y,-z
1/2-x,1/2+y,1/2+z
1/2+x,1/2-y,1/2+z
loop_
_atom_site_type_symbol
_atom_site_label
_atom_site_fract_x
_atom_site_fract_y
_atom_site_fract_z
Si Si1 0.626973 0.008523 0.000000
Si Si2 0.500000 0.000000 0.131210
Si Si3 0.324678 0.539355 0.000000
Si Si4 0.047433 0.871808 0.872456
Si Si5 0.000000 0.301300 0.250000
Si Si6 0.416304 0.280642 0.000000
O O1 0.723260 0.055842 0.000000
O O2 0.621066 0.857621 0.000000
O O3 0.573804 0.049179 0.074698
O O4 0.462316 0.105401 0.186748
O O5 0.371447 0.596839 0.074327
O O6 0.347536 0.392213 0.000000
O O7 0.062348 0.787881 0.798267
O O8 0.000000 0.000000 0.850334
O O9 0.978003 0.805032 0.927699
#
# Coordination Sequence:
#
# PCOD9499140 Si02
#       6
#     8   8   8  16   8   8
#     4  11  19  39  59  87 119 149 214 243 280 345
#     4  10  24  34  62  82 108 176 202 232 286 370
#     4   9  20  33  63  92 115 141 204 254 298 331
#     4   9  18  34  61  89 109 153 197 244 294 356
#     4  11  19  38  58  76 119 155 204 232 302 361
#     4   9  16  34  60  86 112 152 199 236 292 356
#
# _framework density 19.075351000000001
#
# number of rings (size 3 to 8) (size 9 to 14) (size 15 to 20)
#    0.000    2.286    2.857    2.571    0.000    0.000 
#    0.000    2.857   37.714    0.000    0.000    0.000 
#    0.000    0.000    0.000    0.000    0.000    0.000 
#
# Total GULP energy -156059.522434 kJ/mol
# GULP energy per Si atom -5573.554373 kJ/mol
# Density = 1.903193 g / cm^3
# Si number density = 19.075351 Si / 1000 Ang^3
#
#
#
# Elastic Constant Matrix: (Units=GPa)
#
#
# Indices 1 2 3 4 5 6 
#
# 1 116.7718 14.2516 42.2228 0.0000 0.0000 0.0000
# 2 14.2516 84.6104 54.7408 0.0000 0.0000 0.0000
# 3 42.2228 54.7408 124.9619 0.0000 0.0000 0.0000
# 4 0.0000 0.0000 0.0000 41.6431 0.0000 0.0000
# 5 0.0000 0.0000 0.0000 0.0000 5.4626 0.0000
# 6 0.0000 0.0000 0.0000 0.0000 0.0000 16.6589
#
#
#
# Elastic Compliance Matrix: (Units=1/GPa)
#
#
# Indices 1 2 3 4 5 6 
#
# 1 0.009784 0.000685 -0.003606 0.000000 0.000000 0.000000
# 2 0.000685 0.016541 -0.007477 0.000000 0.000000 0.000000
# 3 -0.003606 -0.007477 0.012496 0.000000 0.000000 0.000000
# 4 0.000000 0.000000 0.000000 0.024014 0.000000 0.000000
# 5 0.000000 0.000000 0.000000 0.000000 0.183063 0.000000
# 6 0.000000 0.000000 0.000000 0.000000 0.000000 0.060028
#
#
# Mechanical properties :
#
#
# Convention : Reuss Voigt Hill
#
# Bulk Modulus (GPa) = 55.47938 60.97496 58.22717
# Shear Modulus (GPa) = 15.02714 27.09485 21.06100
#
# Velocity S-wave (km/s) = 2.80978 3.77292 3.32640
# Velocity P-wave (km/s) = 6.29873 7.14245 6.73382
#
# Compressibility (1/GPa) = 0.01802471
#
# Stress axis : x y z
#
# Youngs Moduli (GPa) = 102.20812 60.45489 80.02301
#
# Poissons Ratio (x) = -0.04141 0.28856
# Poissons Ratio (y) = -0.07001 0.59837
# Poissons Ratio (z) = 0.36855 0.45205
#
# Static dielectric constant tensor:
#      x y z
#    x 1.604970 0.000000 0.000000 
#    y 0.000000 1.763550 0.000000 
#    z 0.000000 0.000000 1.685180 
# 
# From -- ./inp_files/38182.got.cif
#   From: 2010.05.17/outbox.cif.g08.bks.cpg/sg66_20_cif.got.tgz:38182.got - 2010.06.03 17:51:23.
