data_PCOD9499198
_publ_section_title
;
Structure prediction by ZEFSAII (Michael W. Deem and Ramdas Pophale) SiO2 
 PCOD9499198
Probable space group: C C C M
;
_chemical_formula_sum "Si O2"
_cell_formula_units_Z 40
_cell_length_a 13.058366
_cell_length_b 5.189227
_cell_length_c 26.355527
_cell_angle_alpha 90.000000
_cell_angle_beta 90.000000
_cell_angle_gamma 90.000000
_cell_volume 1785.924975
_symmetry_space_group_name_H-M "C C C M"
_symmetry_group_IT_number 66
_symmetry_cell_setting 'orthorhombic'
loop_
_space_group_symop_operation_xyz
x,y,z
-x,-y,z
x,-y,1/2-z
-x,y,1/2-z
-x,-y,-z
x,y,-z
-x,y,1/2+z
x,-y,1/2+z
1/2+x,1/2+y,z
1/2-x,1/2-y,z
1/2+x,1/2-y,1/2-z
1/2-x,1/2+y,1/2-z
1/2-x,1/2-y,-z
1/2+x,1/2+y,-z
1/2-x,1/2+y,1/2+z
1/2+x,1/2-y,1/2+z
loop_
_atom_site_type_symbol
_atom_site_label
_atom_site_fract_x
_atom_site_fract_y
_atom_site_fract_z
Si Si1 0.819640 0.001161 0.557114
Si Si2 0.633024 0.248108 0.285468
Si Si3 0.000000 0.000000 0.865227
O O1 0.861713 0.049060 0.500000
O O2 0.750000 0.750000 0.555024
O O3 0.906373 0.938286 0.597855
O O4 0.750000 0.250000 0.569870
O O5 0.625624 0.500000 0.250000
O O6 0.750000 0.250000 0.306193
O O7 0.547992 0.282719 0.328531
O O8 0.621234 0.000000 0.250000
#
# Coordination Sequence:
#
# PCOD9499198 Si02
#       3
#    16  16   8
#     4  10  24  45  68 101 140 173 216 275 335 399
#     4  10  24  44  63  91 132 172 217 274 328 384
#     4  12  24  42  74 100 128 180 230 270 330 398
#
# _framework density 22.397357
#
# number of rings (size 3 to 8) (size 9 to 14) (size 15 to 20)
#    0.000    1.600    0.000    2.400    0.000   16.000 
#    0.000   10.000    0.000    0.000    0.000    0.000 
#    0.000    0.000    0.000    0.000    0.000    0.000 
#
# Total GULP energy -111851.966941 kJ/mol
# GULP energy per Si atom -5592.598347 kJ/mol
# Density = 2.234638 g / cm^3
# Si number density = 22.397357 Si / 1000 Ang^3
#
#
#
# Elastic Constant Matrix: (Units=GPa)
#
#
# Indices 1 2 3 4 5 6 
#
# 1 164.7372 57.2791 99.8857 0.0000 0.0000 0.0000
# 2 57.2791 154.9125 60.9270 0.0000 0.0000 0.0000
# 3 99.8857 60.9270 162.8161 0.0000 0.0000 0.0000
# 4 0.0000 0.0000 0.0000 91.8076 0.0000 0.0000
# 5 0.0000 0.0000 0.0000 0.0000 83.2465 0.0000
# 6 0.0000 0.0000 0.0000 0.0000 0.0000 26.7940
#
#
#
# Elastic Compliance Matrix: (Units=1/GPa)
#
#
# Indices 1 2 3 4 5 6 
#
# 1 0.009954 -0.001499 -0.005546 0.000000 0.000000 0.000000
# 2 -0.001499 0.007795 -0.001997 0.000000 0.000000 0.000000
# 3 -0.005546 -0.001997 0.010291 0.000000 0.000000 0.000000
# 4 0.000000 0.000000 0.000000 0.010892 0.000000 0.000000
# 5 0.000000 0.000000 0.000000 0.000000 0.012013 0.000000
# 6 0.000000 0.000000 0.000000 0.000000 0.000000 0.037322
#
#
# Mechanical properties :
#
#
# Convention : Reuss Voigt Hill
#
# Bulk Modulus (GPa) = 100.43893 102.07218 101.25556
# Shear Modulus (GPa) = 45.59112 57.99455 51.79283
#
# Velocity S-wave (km/s) = 4.51661 5.09408 4.81401
# Velocity P-wave (km/s) = 8.49359 8.95946 8.72963
#
# Compressibility (1/GPa) = 0.00995630
#
# Stress axis : x y z
#
# Youngs Moduli (GPa) = 100.46068 128.28501 97.16838
#
# Poissons Ratio (x) = 0.19236 0.53886
# Poissons Ratio (y) = 0.15064 0.19406
# Poissons Ratio (z) = 0.55712 0.25620
#
# Static dielectric constant tensor:
#      x y z
#    x 1.854140 0.000000 0.000000 
#    y 0.000000 1.775060 0.000000 
#    z 0.000000 0.000000 1.893660 
# 
# From -- ./inp_files/64047.got.cif
#   From: 2010.05.17/outbox.cif.g08.bks.cpg/sg66_33_cif.got.tgz:64047.got - 2010.06.03 17:51:23.
