data_PCOD9499594
_publ_section_title
;
Structure prediction by ZEFSAII (Michael W. Deem and Ramdas Pophale) SiO2 
 PCOD9499594
Probable space group: C C C M
;
_chemical_formula_sum "Si O2"
_cell_formula_units_Z 88
_cell_length_a 14.476671
_cell_length_b 12.258496
_cell_length_c 23.391673
_cell_angle_alpha 90.000000
_cell_angle_beta 90.000000
_cell_angle_gamma 90.000000
_cell_volume 4151.138069
_symmetry_space_group_name_H-M "C C C M"
_symmetry_group_IT_number 66
_symmetry_cell_setting 'orthorhombic'
loop_
_space_group_symop_operation_xyz
x,y,z
-x,-y,z
x,-y,1/2-z
-x,y,1/2-z
-x,-y,-z
x,y,-z
-x,y,1/2+z
x,-y,1/2+z
1/2+x,1/2+y,z
1/2-x,1/2-y,z
1/2+x,1/2-y,1/2-z
1/2-x,1/2+y,1/2-z
1/2-x,1/2-y,-z
1/2+x,1/2+y,-z
1/2-x,1/2+y,1/2+z
1/2+x,1/2-y,1/2+z
loop_
_atom_site_type_symbol
_atom_site_label
_atom_site_fract_x
_atom_site_fract_y
_atom_site_fract_z
Si Si1 0.395580 0.980096 0.145802
Si Si2 0.354483 0.785152 0.357292
Si Si3 0.358762 0.772584 0.934423
Si Si4 0.020853 0.872156 0.863285
Si Si5 0.242293 0.500000 0.750000
Si Si6 0.653982 0.291088 0.764376
O O1 0.371457 0.095962 0.116755
O O2 0.322189 0.969473 0.196877
O O3 0.500000 0.000000 0.167017
O O4 0.388209 0.874238 0.105796
O O5 0.250000 0.750000 0.367504
O O6 0.427927 0.695079 0.375308
O O7 0.368892 0.789888 0.287622
O O8 0.250000 0.750000 0.930332
O O9 0.409536 0.663024 0.913222
O O10 0.382196 0.797276 0.000000
O O11 0.072636 0.822350 0.807058
O O12 0.000000 0.000000 0.857228
O O13 0.311399 0.597903 0.734311
O O14 0.750000 0.250000 0.793085
#
# Coordination Sequence:
#
# PCOD9499594 Si02
#       6
#    16  16  16  16   8  16
#     4  12  24  42  70 101 137 178 227 284 342 409
#     4  11  24  42  61 102 142 179 224 275 342 411
#     4  11  27  50  74  98 130 179 235 289 347 411
#     4  12  25  42  70  98 136 185 234 283 339 411
#     4  12  21  36  65 102 140 180 214 275 335 412
#     4  11  22  38  61  98 143 182 220 264 334 420
#
# _framework density 21.199006000000001
#
# number of rings (size 3 to 8) (size 9 to 14) (size 15 to 20)
#    0.000    0.545    5.455    4.636    2.545    2.909 
#    0.000    0.000    0.000    1.091    0.000    0.000 
#    0.000    0.000    0.000    0.000    0.000    0.000 
#
# Total GULP energy -245864.927107 kJ/mol
# GULP energy per Si atom -5587.839252 kJ/mol
# Density = 2.115076 g / cm^3
# Si number density = 21.199006 Si / 1000 Ang^3
#
#
#
# Elastic Constant Matrix: (Units=GPa)
#
#
# Indices 1 2 3 4 5 6 
#
# 1 116.3464 26.6820 3.4086 0.0000 0.0000 0.0000
# 2 26.6820 118.1033 5.5646 0.0000 0.0000 0.0000
# 3 3.4086 5.5646 66.8696 0.0000 0.0000 0.0000
# 4 0.0000 0.0000 0.0000 10.0113 0.0000 0.0000
# 5 0.0000 0.0000 0.0000 0.0000 6.9264 0.0000
# 6 0.0000 0.0000 0.0000 0.0000 0.0000 37.1239
#
#
#
# Elastic Compliance Matrix: (Units=1/GPa)
#
#
# Indices 1 2 3 4 5 6 
#
# 1 0.009070 -0.002035 -0.000293 0.000000 0.000000 0.000000
# 2 -0.002035 0.008957 -0.000642 0.000000 0.000000 0.000000
# 3 -0.000293 -0.000642 0.015023 0.000000 0.000000 0.000000
# 4 0.000000 0.000000 0.000000 0.099887 0.000000 0.000000
# 5 0.000000 0.000000 0.000000 0.000000 0.144376 0.000000
# 6 0.000000 0.000000 0.000000 0.000000 0.000000 0.026937
#
#
# Mechanical properties :
#
#
# Convention : Reuss Voigt Hill
#
# Bulk Modulus (GPa) = 36.88615 41.40329 39.14472
# Shear Modulus (GPa) = 15.66281 28.52325 22.09303
#
# Velocity S-wave (km/s) = 2.72112 3.67208 3.23177
# Velocity P-wave (km/s) = 5.22593 6.12798 5.69484
#
# Compressibility (1/GPa) = 0.02711045
#
# Stress axis : x y z
#
# Youngs Moduli (GPa) = 110.24885 111.64164 66.56542
#
# Poissons Ratio (x) = 0.22723 0.01950
# Poissons Ratio (y) = 0.22440 0.04271
# Poissons Ratio (z) = 0.03230 0.07163
#
# Static dielectric constant tensor:
#      x y z
#    x 1.781990 0.000000 0.000000 
#    y 0.000000 1.840230 0.000000 
#    z 0.000000 0.000000 1.771010 
# 
# From -- ./inp_files/57998.got.cif
#   From: 2010.05.17/outbox.cif.g08.bks.cpg/sg66_29_cif.got.tgz:57998.got - 2010.06.03 17:51:23.
