data_PCOD9499265
_publ_section_title
;
Structure prediction by ZEFSAII (Michael W. Deem and Ramdas Pophale) SiO2 
 PCOD9499265
Probable space group: C C C M
;
_chemical_formula_sum "Si O2"
_cell_formula_units_Z 56
_cell_length_a 11.266103
_cell_length_b 10.411527
_cell_length_c 19.590040
_cell_angle_alpha 90.000000
_cell_angle_beta 90.000000
_cell_angle_gamma 90.000000
_cell_volume 2297.859496
_symmetry_space_group_name_H-M "C C C M"
_symmetry_group_IT_number 66
_symmetry_cell_setting 'orthorhombic'
loop_
_space_group_symop_operation_xyz
x,y,z
-x,-y,z
x,-y,1/2-z
-x,y,1/2-z
-x,-y,-z
x,y,-z
-x,y,1/2+z
x,-y,1/2+z
1/2+x,1/2+y,z
1/2-x,1/2-y,z
1/2+x,1/2-y,1/2-z
1/2-x,1/2+y,1/2-z
1/2-x,1/2-y,-z
1/2+x,1/2+y,-z
1/2-x,1/2+y,1/2+z
1/2+x,1/2-y,1/2+z
loop_
_atom_site_type_symbol
_atom_site_label
_atom_site_fract_x
_atom_site_fract_y
_atom_site_fract_z
Si Si1 0.892451 0.405851 0.651911
Si Si2 0.873601 0.928239 0.500000
Si Si3 0.313328 0.616841 0.850711
Si Si4 0.500000 0.697229 0.750000
Si Si5 0.837408 0.631164 0.000000
O O1 0.772424 0.492328 0.656400
O O2 0.905434 0.367321 0.571835
O O3 0.000000 0.500000 0.668278
O O4 0.913335 0.287055 0.702662
O O5 0.862067 0.861110 0.572611
O O6 0.753307 0.012776 0.500000
O O7 0.000000 0.000000 0.500000
O O8 0.250000 0.750000 0.833054
O O9 0.422290 0.613810 0.800462
O O10 0.750000 0.750000 0.000000
#
# Coordination Sequence:
#
# PCOD9499265 Si02
#       5
#    16   8  16   8   8
#     4  11  24  48  72 108 141 187 255 301 363 454
#     4  10  25  48  68 107 139 185 257 314 353 450
#     4  11  25  47  75 103 145 195 246 304 379 433
#     4  12  27  48  77 106 160 199 230 313 374 456
#     4  10  25  44  76 101 137 191 243 314 367 428
#
# _framework density 24.370505999999999
#
# number of rings (size 3 to 8) (size 9 to 14) (size 15 to 20)
#    0.000    1.143    2.857    1.286    4.000    1.143 
#   10.286    0.000    0.000    0.000    0.000    0.000 
#    0.000    0.000    0.000    0.000    0.000    0.000 
#
# Total GULP energy -156718.340531 kJ/mol
# GULP energy per Si atom -5597.083590 kJ/mol
# Density = 2.431504 g / cm^3
# Si number density = 24.370506 Si / 1000 Ang^3
#
#
#
# Elastic Constant Matrix: (Units=GPa)
#
#
# Indices 1 2 3 4 5 6 
#
# 1 116.7494 42.3065 80.3985 0.0000 0.0000 0.0000
# 2 42.3065 68.0068 53.3843 0.0000 0.0000 0.0000
# 3 80.3985 53.3843 214.7512 0.0000 0.0000 0.0000
# 4 0.0000 0.0000 0.0000 82.6842 0.0000 0.0000
# 5 0.0000 0.0000 0.0000 0.0000 53.8252 0.0000
# 6 0.0000 0.0000 0.0000 0.0000 0.0000 38.0583
#
#
#
# Elastic Compliance Matrix: (Units=1/GPa)
#
#
# Indices 1 2 3 4 5 6 
#
# 1 0.012895 -0.005258 -0.003521 0.000000 0.000000 0.000000
# 2 -0.005258 0.020414 -0.003106 0.000000 0.000000 0.000000
# 3 -0.003521 -0.003106 0.006747 0.000000 0.000000 0.000000
# 4 0.000000 0.000000 0.000000 0.012094 0.000000 0.000000
# 5 0.000000 0.000000 0.000000 0.000000 0.018579 0.000000
# 6 0.000000 0.000000 0.000000 0.000000 0.000000 0.026275
#
#
# Mechanical properties :
#
#
# Convention : Reuss Voigt Hill
#
# Bulk Modulus (GPa) = 61.40312 83.52067 72.46190
# Shear Modulus (GPa) = 39.61886 49.80808 44.71347
#
# Velocity S-wave (km/s) = 4.03636 4.52573 4.28803
# Velocity P-wave (km/s) = 6.85371 7.85209 7.36982
#
# Compressibility (1/GPa) = 0.01628582
#
# Stress axis : x y z
#
# Youngs Moduli (GPa) = 77.54786 48.98649 148.22145
#
# Poissons Ratio (x) = 0.25759 0.52182
# Poissons Ratio (y) = 0.40778 0.46037
# Poissons Ratio (z) = 0.27301 0.15215
#
# Static dielectric constant tensor:
#      x y z
#    x 4.499200 0.000000 0.000000 
#    y 0.000000 1.948040 0.000000 
#    z 0.000000 0.000000 1.726130 
# 
# From -- ./inp_files/47939.got.cif
#   From: 2010.05.17/outbox.cif.g08.bks.cpg/sg66_24_cif.got.tgz:47939.got - 2010.06.03 17:51:23.
