data_PCOD9499650
_publ_section_title
;
Structure prediction by ZEFSAII (Michael W. Deem and Ramdas Pophale) SiO2 
 PCOD9499650
Probable space group: C C C M
;
_chemical_formula_sum "Si O2"
_cell_formula_units_Z 52
_cell_length_a 22.642738
_cell_length_b 10.451434
_cell_length_c 9.923889
_cell_angle_alpha 90.000000
_cell_angle_beta 90.000000
_cell_angle_gamma 90.000000
_cell_volume 2348.479220
_symmetry_space_group_name_H-M "C C C M"
_symmetry_group_IT_number 66
_symmetry_cell_setting 'orthorhombic'
loop_
_space_group_symop_operation_xyz
x,y,z
-x,-y,z
x,-y,1/2-z
-x,y,1/2-z
-x,-y,-z
x,y,-z
-x,y,1/2+z
x,-y,1/2+z
1/2+x,1/2+y,z
1/2-x,1/2-y,z
1/2+x,1/2-y,1/2-z
1/2-x,1/2+y,1/2-z
1/2-x,1/2-y,-z
1/2+x,1/2+y,-z
1/2-x,1/2+y,1/2+z
1/2+x,1/2-y,1/2+z
loop_
_atom_site_type_symbol
_atom_site_label
_atom_site_fract_x
_atom_site_fract_y
_atom_site_fract_z
Si Si1 0.054248 0.165802 0.000000
Si Si2 0.500000 0.000000 0.750000
Si Si3 0.720623 0.889780 0.158129
Si Si4 0.904610 0.694503 0.732875
Si Si5 0.414489 0.615148 0.000000
O O1 0.067669 0.245080 0.866938
O O2 0.985485 0.131503 0.000000
O O3 0.093909 0.036839 0.000000
O O4 0.453145 0.093781 0.675955
O O5 0.750000 0.750000 0.165975
O O6 0.655638 0.869460 0.219949
O O7 0.749896 0.000000 0.250000
O O8 0.718188 0.926867 0.000000
O O9 0.892209 0.808299 0.629261
#
# Coordination Sequence:
#
# PCOD9499650 Si02
#       5
#     8   4  16  16   8
#     4  11  22  42  61  96 143 182 229 284 347 426
#     4  12  24  38  70 102 140 174 228 278 356 406
#     4  11  27  50  74 103 141 186 241 295 350 420
#     4  12  24  42  68 102 140 180 228 289 351 420
#     4  11  24  38  65 100 137 186 227 278 359 424
#
# _framework density 22.141988999999999
#
# number of rings (size 3 to 8) (size 9 to 14) (size 15 to 20)
#    0.000    0.615    6.154    0.923    2.154    8.000 
#    0.000    0.000    0.000    0.000    0.000    0.000 
#    0.000    0.000    0.000    0.000    0.000    0.000 
#
# Total GULP energy -145299.136149 kJ/mol
# GULP energy per Si atom -5588.428313 kJ/mol
# Density = 2.209159 g / cm^3
# Si number density = 22.141989 Si / 1000 Ang^3
#
#
#
# Elastic Constant Matrix: (Units=GPa)
#
#
# Indices 1 2 3 4 5 6 
#
# 1 54.9529 22.9323 16.4295 0.0000 0.0000 0.0000
# 2 22.9323 129.1956 59.0852 0.0000 0.0000 0.0000
# 3 16.4295 59.0852 142.6901 0.0000 0.0000 0.0000
# 4 0.0000 0.0000 0.0000 32.2599 0.0000 0.0000
# 5 0.0000 0.0000 0.0000 0.0000 31.6988 0.0000
# 6 0.0000 0.0000 0.0000 0.0000 0.0000 19.9364
#
#
#
# Elastic Compliance Matrix: (Units=1/GPa)
#
#
# Indices 1 2 3 4 5 6 
#
# 1 0.019772 -0.003045 -0.001016 0.000000 0.000000 0.000000
# 2 -0.003045 0.010017 -0.003797 0.000000 0.000000 0.000000
# 3 -0.001016 -0.003797 0.008698 0.000000 0.000000 0.000000
# 4 0.000000 0.000000 0.000000 0.030998 0.000000 0.000000
# 5 0.000000 0.000000 0.000000 0.000000 0.031547 0.000000
# 6 0.000000 0.000000 0.000000 0.000000 0.000000 0.050159
#
#
# Mechanical properties :
#
#
# Convention : Reuss Voigt Hill
#
# Bulk Modulus (GPa) = 43.91633 58.19250 51.05442
# Shear Modulus (GPa) = 28.65369 32.00513 30.32941
#
# Velocity S-wave (km/s) = 3.60125 3.80603 3.70505
# Velocity P-wave (km/s) = 6.09664 6.75671 6.43514
#
# Compressibility (1/GPa) = 0.02277057
#
# Stress axis : x y z
#
# Youngs Moduli (GPa) = 50.57717 99.82676 114.97474
#
# Poissons Ratio (x) = 0.30397 0.11678
# Poissons Ratio (y) = 0.15401 0.43660
# Poissons Ratio (z) = 0.05137 0.37908
#
# Static dielectric constant tensor:
#      x y z
#    x 1.814640 0.000000 0.000000 
#    y 0.000000 1.875650 0.000000 
#    z 0.000000 0.000000 1.768430 
# 
# From -- ./inp_files/20302.got.cif
#   From: 2010.05.17/outbox.cif.g08.bks.cpg/sg66_11_cif.got.tgz:20302.got - 2010.06.03 17:51:23.
