data_PCOD9499989
_publ_section_title
;
Structure prediction by ZEFSAII (Michael W. Deem and Ramdas Pophale) SiO2 
 PCOD9499989
Probable space group: C C C M
;
_chemical_formula_sum "Si O2"
_cell_formula_units_Z 48
_cell_length_a 14.694279
_cell_length_b 4.910539
_cell_length_c 29.670448
_cell_angle_alpha 90.000000
_cell_angle_beta 90.000000
_cell_angle_gamma 90.000000
_cell_volume 2140.925476
_symmetry_space_group_name_H-M "C C C M"
_symmetry_group_IT_number 66
_symmetry_cell_setting 'orthorhombic'
loop_
_space_group_symop_operation_xyz
x,y,z
-x,-y,z
x,-y,1/2-z
-x,y,1/2-z
-x,-y,-z
x,y,-z
-x,y,1/2+z
x,-y,1/2+z
1/2+x,1/2+y,z
1/2-x,1/2-y,z
1/2+x,1/2-y,1/2-z
1/2-x,1/2+y,1/2-z
1/2-x,1/2-y,-z
1/2+x,1/2+y,-z
1/2-x,1/2+y,1/2+z
1/2+x,1/2-y,1/2+z
loop_
_atom_site_type_symbol
_atom_site_label
_atom_site_fract_x
_atom_site_fract_y
_atom_site_fract_z
Si Si1 0.069211 0.758470 0.000000
Si Si2 0.144064 0.770065 0.097759
Si Si3 0.750000 0.250000 0.282230
Si Si4 0.418536 0.201465 0.150992
O O1 0.128646 0.803653 0.044944
O O2 0.000000 0.500000 0.000000
O O3 0.000000 0.000000 0.000000
O O4 0.250000 0.750000 0.109858
O O5 0.105362 0.472221 0.107199
O O6 0.092195 0.987429 0.130645
O O7 0.727234 0.500000 0.250000
O O8 0.662747 0.186808 0.312988
O O9 0.500000 0.000000 0.169974
#
# Coordination Sequence:
#
# PCOD9499989 Si02
#       4
#     8  16   8  16
#     4  12  25  40  63 102 145 188 245 293 344 421
#     4  12  23  44  69 102 143 191 239 293 353 424
#     4  12  26  48  76 105 146 181 236 314 376 442
#     4  12  25  46  74 104 141 190 237 290 368 442
#
# _framework density 22.420210000000001
#
# number of rings (size 3 to 8) (size 9 to 14) (size 15 to 20)
#    0.000    0.000    3.333    8.500    0.000    0.667 
#    0.000    6.667    0.000    0.000    0.000    0.000 
#    0.000    0.000    0.000    0.000    0.000    0.000 
#
# Total GULP energy -133621.506500 kJ/mol
# GULP energy per Si atom -5567.562771 kJ/mol
# Density = 2.236918 g / cm^3
# Si number density = 22.420210 Si / 1000 Ang^3
#
#
#
# Elastic Constant Matrix: (Units=GPa)
#
#
# Indices 1 2 3 4 5 6 
#
# 1 147.1035 19.8608 35.3253 0.0000 0.0000 0.0000
# 2 19.8608 140.2134 11.1232 0.0000 0.0000 0.0000
# 3 35.3253 11.1232 112.6112 0.0000 0.0000 0.0000
# 4 0.0000 0.0000 0.0000 65.3375 0.0000 0.0000
# 5 0.0000 0.0000 0.0000 0.0000 -49.2601 0.0000
# 6 0.0000 0.0000 0.0000 0.0000 0.0000 32.4283
#
#
#
# Elastic Compliance Matrix: (Units=1/GPa)
#
#
# Indices 1 2 3 4 5 6 
#
# 1 0.007457 -0.000878 -0.002253 0.000000 0.000000 0.000000
# 2 -0.000878 0.007292 -0.000445 0.000000 0.000000 0.000000
# 3 -0.002253 -0.000445 0.009631 0.000000 0.000000 0.000000
# 4 0.000000 0.000000 0.000000 0.015305 0.000000 0.000000
# 5 0.000000 0.000000 0.000000 0.000000 -0.020300 0.000000
# 6 0.000000 0.000000 0.000000 0.000000 0.000000 0.030837
#
#
# Mechanical properties :
#
#
# Convention : Reuss Voigt Hill
#
# Bulk Modulus (GPa) = 58.04061 59.17183 58.60622
# Shear Modulus (GPa) = 79.22036 31.94239 55.58138
#
# Velocity S-wave (km/s) = 5.95072 3.77863 4.98443
# Velocity P-wave (km/s) = 8.55328 6.74440 7.70213
#
# Compressibility (1/GPa) = 0.01722932
#
# Stress axis : x y z
#
# Youngs Moduli (GPa) = 134.09553 137.14423 103.83465
#
# Poissons Ratio (x) = 0.12036 0.23390
# Poissons Ratio (y) = 0.11768 0.04620
# Poissons Ratio (z) = 0.30207 0.06102
#
# Static dielectric constant tensor:
#      x y z
#    x 1.949030 0.000000 0.000000 
#    y 0.000000 1.685320 0.000000 
#    z 0.000000 0.000000 1.709290 
# 
# From -- ./inp_files/64129.got.cif
#   From: 2010.05.17/outbox.cif.g08.bks.cpg/sg66_33_cif.got.tgz:64129.got - 2010.06.03 17:51:23.
