data_PCOD9499665
_publ_section_title
;
Structure prediction by ZEFSAII (Michael W. Deem and Ramdas Pophale) SiO2 
 PCOD9499665
Probable space group: C C C M
;
_chemical_formula_sum "Si O2"
_cell_formula_units_Z 104
_cell_length_a 15.669455
_cell_length_b 12.319944
_cell_length_c 27.134764
_cell_angle_alpha 90.000000
_cell_angle_beta 90.000000
_cell_angle_gamma 90.000000
_cell_volume 5238.279579
_symmetry_space_group_name_H-M "C C C M"
_symmetry_group_IT_number 66
_symmetry_cell_setting 'orthorhombic'
loop_
_space_group_symop_operation_xyz
x,y,z
-x,-y,z
x,-y,1/2-z
-x,y,1/2-z
-x,-y,-z
x,y,-z
-x,y,1/2+z
x,-y,1/2+z
1/2+x,1/2+y,z
1/2-x,1/2-y,z
1/2+x,1/2-y,1/2-z
1/2-x,1/2+y,1/2-z
1/2-x,1/2-y,-z
1/2+x,1/2+y,-z
1/2-x,1/2+y,1/2+z
1/2+x,1/2-y,1/2+z
loop_
_atom_site_type_symbol
_atom_site_label
_atom_site_fract_x
_atom_site_fract_y
_atom_site_fract_z
Si Si1 0.822046 0.666841 0.772981
Si Si2 0.988023 0.160416 0.358869
Si Si3 0.119322 0.321213 0.500000
Si Si4 0.193680 0.921915 0.000000
Si Si5 0.638873 0.514196 0.605545
Si Si6 0.041906 0.381949 0.395389
Si Si7 0.000000 0.212152 0.250000
Si Si8 0.197420 0.553200 0.828225
O O1 0.750000 0.750000 0.791913
O O2 0.913772 0.718560 0.759566
O O3 0.832069 0.565667 0.809775
O O4 0.786304 0.620210 0.721410
O O5 0.984486 0.286711 0.372364
O O6 0.007427 0.146464 0.300858
O O7 0.904373 0.096072 0.375350
O O8 0.066604 0.106037 0.387740
O O9 0.145889 0.194743 0.500000
O O10 0.206430 0.391535 0.500000
O O11 0.068161 0.349352 0.450582
O O12 0.167983 0.985843 0.049097
O O13 0.718489 0.543021 0.639466
O O14 0.125185 0.389915 0.360833
O O15 0.000000 0.500000 0.395265
#
# Coordination Sequence:
#
# PCOD9499665 Si02
#       8
#    16  16   8   8  16  16   8  16
#     4  11  24  40  64  95 136 180 225 274 329 411
#     4  11  25  41  68  99 134 175 217 276 336 399
#     4  11  23  41  73  98 126 173 224 282 331 398
#     4  11  22  42  72  99 128 167 224 279 342 398
#     4  11  24  43  67  97 134 169 219 283 340 401
#     4  12  24  43  65  98 131 174 224 278 324 397
#     4  12  22  42  66  94 138 180 223 265 336 404
#     4  11  24  39  65  95 132 175 226 268 338 392
#
# _framework density 19.853846000000001
#
# number of rings (size 3 to 8) (size 9 to 14) (size 15 to 20)
#    0.000    0.769    4.615    3.000    0.000    4.923 
#    0.000    0.000    0.000    0.923    0.000    0.000 
#    0.000    0.000    0.000    0.000    0.000    0.000 
#
# Total GULP energy -290814.696296 kJ/mol
# GULP energy per Si atom -5592.590313 kJ/mol
# Density = 1.980866 g / cm^3
# Si number density = 19.853846 Si / 1000 Ang^3
#
#
#
# Elastic Constant Matrix: (Units=GPa)
#
#
# Indices 1 2 3 4 5 6 
#
# 1 38.2032 3.9953 -10.2232 0.0000 0.0000 0.0000
# 2 3.9953 79.3653 -2.0308 0.0000 0.0000 0.0000
# 3 -10.2232 -2.0308 108.0322 0.0000 0.0000 0.0000
# 4 0.0000 0.0000 0.0000 31.0586 0.0000 0.0000
# 5 0.0000 0.0000 0.0000 0.0000 43.6644 0.0000
# 6 0.0000 0.0000 0.0000 0.0000 0.0000 25.3497
#
#
#
# Elastic Compliance Matrix: (Units=1/GPa)
#
#
# Indices 1 2 3 4 5 6 
#
# 1 0.026988 -0.001294 0.002530 0.000000 0.000000 0.000000
# 2 -0.001294 0.012668 0.000116 0.000000 0.000000 0.000000
# 3 0.002530 0.000116 0.009498 0.000000 0.000000 0.000000
# 4 0.000000 0.000000 0.000000 0.032197 0.000000 0.000000
# 5 0.000000 0.000000 0.000000 0.000000 0.022902 0.000000
# 6 0.000000 0.000000 0.000000 0.000000 0.000000 0.039448
#
#
# Mechanical properties :
#
#
# Convention : Reuss Voigt Hill
#
# Bulk Modulus (GPa) = 19.28380 23.23147 21.25764
# Shear Modulus (GPa) = 31.58872 35.60517 33.59694
#
# Velocity S-wave (km/s) = 3.99314 4.23941 4.11811
# Velocity P-wave (km/s) = 5.56724 5.97412 5.77426
#
# Compressibility (1/GPa) = 0.05185700
#
# Stress axis : x y z
#
# Youngs Moduli (GPa) = 37.05345 78.93873 105.28477
#
# Poissons Ratio (x) = 0.10214 -0.26633
# Poissons Ratio (y) = 0.04794 -0.01218
# Poissons Ratio (z) = -0.09373 -0.00913
#
# Static dielectric constant tensor:
#      x y z
#    x 1.681040 0.000000 0.000000 
#    y 0.000000 1.707590 0.000000 
#    z 0.000000 0.000000 1.674370 
# 
# From -- ./inp_files/65313.got.cif
#   From: 2010.05.17/outbox.cif.g08.bks.cpg/sg66_33_cif.got.tgz:65313.got - 2010.06.03 17:51:23.
