data_PCOD9499550
_publ_section_title
;
Structure prediction by ZEFSAII (Michael W. Deem and Ramdas Pophale) SiO2 
 PCOD9499550
Probable space group: C C C M
;
_chemical_formula_sum "Si O2"
_cell_formula_units_Z 60
_cell_length_a 6.128869
_cell_length_b 17.044593
_cell_length_c 27.498338
_cell_angle_alpha 90.000000
_cell_angle_beta 90.000000
_cell_angle_gamma 90.000000
_cell_volume 2872.588516
_symmetry_space_group_name_H-M "C C C M"
_symmetry_group_IT_number 66
_symmetry_cell_setting 'orthorhombic'
loop_
_space_group_symop_operation_xyz
x,y,z
-x,-y,z
x,-y,1/2-z
-x,y,1/2-z
-x,-y,-z
x,y,-z
-x,y,1/2+z
x,-y,1/2+z
1/2+x,1/2+y,z
1/2-x,1/2-y,z
1/2+x,1/2-y,1/2-z
1/2-x,1/2+y,1/2-z
1/2-x,1/2-y,-z
1/2+x,1/2+y,-z
1/2-x,1/2+y,1/2+z
1/2+x,1/2-y,1/2+z
loop_
_atom_site_type_symbol
_atom_site_label
_atom_site_fract_x
_atom_site_fract_y
_atom_site_fract_z
Si Si1 0.500000 0.500000 0.750000
Si Si2 0.966017 0.408500 0.000000
Si Si3 0.500000 0.792103 0.250000
Si Si4 0.745731 0.164248 0.585971
Si Si5 0.419664 0.678851 0.000000
Si Si6 0.152938 0.576370 0.680239
O O1 0.346057 0.553488 0.716762
O O2 0.059298 0.364880 0.048035
O O3 0.000000 0.500000 0.000000
O O4 0.709709 0.400806 0.000000
O O5 0.750000 0.750000 0.252247
O O6 0.479110 0.850699 0.296375
O O7 0.750000 0.250000 0.610760
O O8 0.750318 0.101371 0.628501
O O9 0.940668 0.177737 0.548287
O O10 0.250000 0.750000 0.000000
O O11 0.000000 0.500000 0.675963
#
# Coordination Sequence:
#
# PCOD9499550 Si02
#       6
#     4   8   8  16   8  16
#     4  12  24  52  76 102 156 198 262 334 402 452
#     4  11  23  43  69 101 145 183 235 307 368 445
#     4  12  26  50  79 111 154 206 262 332 400 474
#     4  11  24  43  70 108 140 188 251 300 378 463
#     4  11  21  47  73  98 149 197 233 318 380 447
#     4  12  26  48  73 105 147 200 251 324 393 471
#
# _framework density 20.887084999999999
#
# number of rings (size 3 to 8) (size 9 to 14) (size 15 to 20)
#    0.000    0.533    5.333    3.200    0.000    6.400 
#    4.800    0.000    0.000    0.000    0.000    0.000 
#    0.000    0.000    0.000    0.000    0.000    0.000 
#
# Total GULP energy -167134.220146 kJ/mol
# GULP energy per Si atom -5571.140672 kJ/mol
# Density = 2.083955 g / cm^3
# Si number density = 20.887085 Si / 1000 Ang^3
#
#
#
# Elastic Constant Matrix: (Units=GPa)
#
#
# Indices 1 2 3 4 5 6 
#
# 1 101.8859 58.7626 45.3422 0.0000 0.0000 0.0000
# 2 58.7626 131.8663 43.9567 0.0000 0.0000 0.0000
# 3 45.3422 43.9567 147.4056 0.0000 0.0000 0.0000
# 4 0.0000 0.0000 0.0000 42.4593 0.0000 0.0000
# 5 0.0000 0.0000 0.0000 0.0000 1041.6919 0.0000
# 6 0.0000 0.0000 0.0000 0.0000 0.0000 36.2722
#
#
#
# Elastic Compliance Matrix: (Units=1/GPa)
#
#
# Indices 1 2 3 4 5 6 
#
# 1 0.014144 -0.005388 -0.002744 0.000000 0.000000 0.000000
# 2 -0.005388 0.010473 -0.001466 0.000000 0.000000 0.000000
# 3 -0.002744 -0.001466 0.008065 0.000000 0.000000 0.000000
# 4 0.000000 0.000000 0.000000 0.023552 0.000000 0.000000
# 5 0.000000 0.000000 0.000000 0.000000 0.000960 0.000000
# 6 0.000000 0.000000 0.000000 0.000000 0.000000 0.027569
#
#
# Mechanical properties :
#
#
# Convention : Reuss Voigt Hill
#
# Bulk Modulus (GPa) = 74.14834 75.25341 74.70087
# Shear Modulus (GPa) = 46.10264 239.62443 142.86353
#
# Velocity S-wave (km/s) = 4.70322 10.72254 8.27928
# Velocity P-wave (km/s) = 8.06662 13.76241 11.27994
#
# Compressibility (1/GPa) = 0.01348648
#
# Stress axis : x y z
#
# Youngs Moduli (GPa) = 70.70370 95.48313 123.99107
#
# Poissons Ratio (x) = 0.51447 0.34021
# Poissons Ratio (y) = 0.38095 0.18174
# Poissons Ratio (z) = 0.19400 0.13995
#
# Static dielectric constant tensor:
#      x y z
#    x 1.788500 0.000000 0.000000 
#    y 0.000000 1.714060 0.000000 
#    z 0.000000 0.000000 1.667640 
# 
# From -- ./inp_files/61127.got.cif
#   From: 2010.05.17/outbox.cif.g08.bks.cpg/sg66_31_cif.got.tgz:61127.got - 2010.06.03 17:51:23.
