data_PCOD9499317
_publ_section_title
;
Structure prediction by ZEFSAII (Michael W. Deem and Ramdas Pophale) SiO2 
 PCOD9499317
Probable space group: C C C M
;
_chemical_formula_sum "Si O2"
_cell_formula_units_Z 80
_cell_length_a 15.603195
_cell_length_b 11.805879
_cell_length_c 22.930896
_cell_angle_alpha 90.000000
_cell_angle_beta 90.000000
_cell_angle_gamma 90.000000
_cell_volume 4224.087332
_symmetry_space_group_name_H-M "C C C M"
_symmetry_group_IT_number 66
_symmetry_cell_setting 'orthorhombic'
loop_
_space_group_symop_operation_xyz
x,y,z
-x,-y,z
x,-y,1/2-z
-x,y,1/2-z
-x,-y,-z
x,y,-z
-x,y,1/2+z
x,-y,1/2+z
1/2+x,1/2+y,z
1/2-x,1/2-y,z
1/2+x,1/2-y,1/2-z
1/2-x,1/2+y,1/2-z
1/2-x,1/2-y,-z
1/2+x,1/2+y,-z
1/2-x,1/2+y,1/2+z
1/2+x,1/2-y,1/2+z
loop_
_atom_site_type_symbol
_atom_site_label
_atom_site_fract_x
_atom_site_fract_y
_atom_site_fract_z
Si Si1 0.122046 0.964675 0.818920
Si Si2 0.953397 0.377615 0.068595
Si Si3 0.819371 0.422973 0.834989
Si Si4 0.467019 0.679212 0.357804
Si Si5 0.096798 0.358409 0.226751
O O1 0.218553 0.938296 0.837061
O O2 0.055470 0.863043 0.828793
O O3 0.118872 0.000000 0.750000
O O4 0.086939 0.063631 0.862358
O O5 0.867115 0.384251 0.106897
O O6 0.000000 0.500000 0.078051
O O7 0.008251 0.269879 0.092144
O O8 0.937947 0.365707 0.000000
O O9 0.865357 0.538585 0.811559
O O10 0.842486 0.340652 0.781680
O O11 0.410933 0.750527 0.312978
O O12 0.000000 0.380464 0.250000
#
# Coordination Sequence:
#
# PCOD9499317 Si02
#       5
#    16  16  16  16  16
#     4  11  24  40  58  96 134 166 202 254 326 390
#     4  11  23  43  68  92 122 168 220 266 309 364
#     4  11  21  37  59  97 125 153 209 263 312 369
#     4  11  23  41  61  88 129 170 204 251 318 388
#     4  11  18  35  61  87 124 155 199 249 316 375
#
# _framework density 18.939001000000001
#
# number of rings (size 3 to 8) (size 9 to 14) (size 15 to 20)
#    0.000    1.000    6.000    3.600    0.000    1.600 
#    3.600    5.000    0.000    2.400    0.000    0.000 
#    0.000    0.000    0.000    0.000    0.000    0.000 
#
# Total GULP energy -223156.702556 kJ/mol
# GULP energy per Si atom -5578.917564 kJ/mol
# Density = 1.889590 g / cm^3
# Si number density = 18.939001 Si / 1000 Ang^3
#
#
#
# Elastic Constant Matrix: (Units=GPa)
#
#
# Indices 1 2 3 4 5 6 
#
# 1 131.7141 18.5930 48.0108 0.0000 0.0000 0.0000
# 2 18.5930 71.1303 35.9573 0.0000 0.0000 0.0000
# 3 48.0108 35.9573 128.2839 0.0000 0.0000 0.0000
# 4 0.0000 0.0000 0.0000 17.3093 0.0000 0.0000
# 5 0.0000 0.0000 0.0000 0.0000 8.1852 0.0000
# 6 0.0000 0.0000 0.0000 0.0000 0.0000 25.7704
#
#
#
# Elastic Compliance Matrix: (Units=1/GPa)
#
#
# Indices 1 2 3 4 5 6 
#
# 1 0.008825 -0.000742 -0.003095 0.000000 0.000000 0.000000
# 2 -0.000742 0.016442 -0.004331 0.000000 0.000000 0.000000
# 3 -0.003095 -0.004331 0.010167 0.000000 0.000000 0.000000
# 4 0.000000 0.000000 0.000000 0.057772 0.000000 0.000000
# 5 0.000000 0.000000 0.000000 0.000000 0.122171 0.000000
# 6 0.000000 0.000000 0.000000 0.000000 0.000000 0.038804
#
#
# Mechanical properties :
#
#
# Convention : Reuss Voigt Hill
#
# Bulk Modulus (GPa) = 52.35977 59.58336 55.97157
# Shear Modulus (GPa) = 18.05808 25.49080 21.77444
#
# Velocity S-wave (km/s) = 3.09121 3.67269 3.39442
# Velocity P-wave (km/s) = 6.35982 7.03661 6.70675
#
# Compressibility (1/GPa) = 0.01909863
#
# Stress axis : x y z
#
# Youngs Moduli (GPa) = 113.31381 60.81974 98.35441
#
# Poissons Ratio (x) = 0.04515 0.30438
# Poissons Ratio (y) = 0.08412 0.42595
# Poissons Ratio (z) = 0.35067 0.26340
#
# Static dielectric constant tensor:
#      x y z
#    x 1.652370 0.000000 0.000000 
#    y 0.000000 1.769590 0.000000 
#    z 0.000000 0.000000 1.635560 
# 
# From -- ./inp_files/57883.got.cif
#   From: 2010.05.17/outbox.cif.g08.bks.cpg/sg66_29_cif.got.tgz:57883.got - 2010.06.03 17:51:23.
