data_PCOD9499935
_publ_section_title
;
Structure prediction by ZEFSAII (Michael W. Deem and Ramdas Pophale) SiO2 
 PCOD9499935
Probable space group: C C C M
;
_chemical_formula_sum "Si O2"
_cell_formula_units_Z 48
_cell_length_a 7.846869
_cell_length_b 18.811038
_cell_length_c 16.114378
_cell_angle_alpha 90.000000
_cell_angle_beta 90.000000
_cell_angle_gamma 90.000000
_cell_volume 2378.607094
_symmetry_space_group_name_H-M "C C C M"
_symmetry_group_IT_number 66
_symmetry_cell_setting 'orthorhombic'
loop_
_space_group_symop_operation_xyz
x,y,z
-x,-y,z
x,-y,1/2-z
-x,y,1/2-z
-x,-y,-z
x,y,-z
-x,y,1/2+z
x,-y,1/2+z
1/2+x,1/2+y,z
1/2-x,1/2-y,z
1/2+x,1/2-y,1/2-z
1/2-x,1/2+y,1/2-z
1/2-x,1/2-y,-z
1/2+x,1/2+y,-z
1/2-x,1/2+y,1/2+z
1/2+x,1/2-y,1/2+z
loop_
_atom_site_type_symbol
_atom_site_label
_atom_site_fract_x
_atom_site_fract_y
_atom_site_fract_z
Si Si1 0.182031 0.465454 0.000000
Si Si2 0.691636 0.530671 0.667920
Si Si3 0.371241 0.182586 0.328725
Si Si4 0.408950 0.804847 0.500000
O O1 0.258429 0.494618 0.916763
O O2 0.000000 0.500000 0.000000
O O3 0.177326 0.381642 0.000000
O O4 0.500000 0.500000 0.673883
O O5 0.781712 0.500000 0.750000
O O6 0.747921 0.613207 0.663512
O O7 0.500000 0.173792 0.250000
O O8 0.250000 0.250000 0.313166
O O9 0.475567 0.196576 0.415390
O O10 0.250000 0.750000 0.500000
#
# Coordination Sequence:
#
# PCOD9499935 Si02
#       4
#     8  16  16   8
#     4  12  23  44  70 100 135 184 236 295 345 415
#     4  11  26  44  72 101 137 181 239 294 352 415
#     4  12  27  46  71 103 145 188 236 293 357 425
#     4  12  27  44  70 102 143 188 237 292 357 420
#
# _framework density 20.179877000000001
#
# number of rings (size 3 to 8) (size 9 to 14) (size 15 to 20)
#    0.000    0.333    3.333    4.000    9.333    0.000 
#    0.000    0.000    0.000    0.000    0.000    0.000 
#    0.000    0.000    0.000    0.000    0.000    0.000 
#
# Total GULP energy -133744.254424 kJ/mol
# GULP energy per Si atom -5572.677268 kJ/mol
# Density = 2.013395 g / cm^3
# Si number density = 20.179877 Si / 1000 Ang^3
#
#
#
# Elastic Constant Matrix: (Units=GPa)
#
#
# Indices 1 2 3 4 5 6 
#
# 1 136.5310 86.9793 79.1071 0.0000 0.0000 0.0000
# 2 86.9793 209.7429 45.6209 0.0000 0.0000 0.0000
# 3 79.1071 45.6209 187.3406 0.0000 0.0000 0.0000
# 4 0.0000 0.0000 0.0000 33.5159 0.0000 0.0000
# 5 0.0000 0.0000 0.0000 0.0000 44.2234 0.0000
# 6 0.0000 0.0000 0.0000 0.0000 0.0000 47.0164
#
#
#
# Elastic Compliance Matrix: (Units=1/GPa)
#
#
# Indices 1 2 3 4 5 6 
#
# 1 0.012493 -0.004259 -0.004238 0.000000 0.000000 0.000000
# 2 -0.004259 0.006486 0.000219 0.000000 0.000000 0.000000
# 3 -0.004238 0.000219 0.007074 0.000000 0.000000 0.000000
# 4 0.000000 0.000000 0.000000 0.029837 0.000000 0.000000
# 5 0.000000 0.000000 0.000000 0.000000 0.022612 0.000000
# 6 0.000000 0.000000 0.000000 0.000000 0.000000 0.021269
#
#
# Mechanical properties :
#
#
# Convention : Reuss Voigt Hill
#
# Bulk Modulus (GPa) = 105.29659 106.33655 105.81657
# Shear Modulus (GPa) = 41.84282 46.41162 44.12722
#
# Velocity S-wave (km/s) = 4.55850 4.80093 4.68128
# Velocity P-wave (km/s) = 8.94421 9.14005 9.04266
#
# Compressibility (1/GPa) = 0.00949698
#
# Stress axis : x y z
#
# Youngs Moduli (GPa) = 80.04243 154.17020 141.35753
#
# Poissons Ratio (x) = 0.65662 0.59912
# Poissons Ratio (y) = 0.34091 -0.03094
# Poissons Ratio (z) = 0.33925 -0.03375
#
# Static dielectric constant tensor:
#      x y z
#    x 1.668470 0.000000 0.000000 
#    y 0.000000 1.585240 0.000000 
#    z 0.000000 0.000000 1.606160 
# 
# From -- ./inp_files/23522.got.cif
#   From: 2010.05.17/outbox.cif.g08.bks.cpg/sg66_12_cif.got.tgz:23522.got - 2010.06.03 17:51:23.
