data_PCOD9499489
_publ_section_title
;
Structure prediction by ZEFSAII (Michael W. Deem and Ramdas Pophale) SiO2 
 PCOD9499489
Probable space group: C C C M
;
_chemical_formula_sum "Si O2"
_cell_formula_units_Z 80
_cell_length_a 10.587288
_cell_length_b 23.396226
_cell_length_c 14.617420
_cell_angle_alpha 90.000000
_cell_angle_beta 90.000000
_cell_angle_gamma 90.000000
_cell_volume 3620.772688
_symmetry_space_group_name_H-M "C C C M"
_symmetry_group_IT_number 66
_symmetry_cell_setting 'orthorhombic'
loop_
_space_group_symop_operation_xyz
x,y,z
-x,-y,z
x,-y,1/2-z
-x,y,1/2-z
-x,-y,-z
x,y,-z
-x,y,1/2+z
x,-y,1/2+z
1/2+x,1/2+y,z
1/2-x,1/2-y,z
1/2+x,1/2-y,1/2-z
1/2-x,1/2+y,1/2-z
1/2-x,1/2-y,-z
1/2+x,1/2+y,-z
1/2-x,1/2+y,1/2+z
1/2+x,1/2-y,1/2+z
loop_
_atom_site_type_symbol
_atom_site_label
_atom_site_fract_x
_atom_site_fract_y
_atom_site_fract_z
Si Si1 0.227912 0.898900 0.606065
Si Si2 0.739625 0.367621 0.895164
Si Si3 0.643697 0.483160 0.895906
Si Si4 0.851657 0.203645 0.268050
Si Si5 0.500532 0.067369 0.859842
O O1 0.183636 0.898955 0.500000
O O2 0.158836 0.850013 0.662539
O O3 0.379186 0.896834 0.607940
O O4 0.208517 0.962412 0.648701
O O5 0.654209 0.420099 0.858665
O O6 0.711669 0.316612 0.827135
O O7 0.876952 0.396998 0.889510
O O8 0.710180 0.352900 0.000000
O O9 0.500000 0.500000 0.900543
O O10 0.695977 0.478801 0.000000
O O11 0.750000 0.250000 0.304685
O O12 0.000000 0.219444 0.250000
O O13 0.500000 0.066073 0.750000
O O14 0.500000 0.000000 0.890421
#
# Coordination Sequence:
#
# PCOD9499489 Si02
#       5
#    16  16  16  16  16
#     4  11  23  42  70 101 139 180 223 279 343 413
#     4  11  23  42  70 101 139 180 223 279 343 413
#     4   9  18  34  61  98 135 170 210 263 334 413
#     4  12  30  51  72  97 133 178 236 298 347 408
#     4  11  21  37  67 110 151 187 224 269 337 415
#
# _framework density 22.094732
#
# number of rings (size 3 to 8) (size 9 to 14) (size 15 to 20)
#    0.000    1.200    4.000    1.800    2.800    4.800 
#    0.000    2.000    0.000    0.000    0.000    0.000 
#    0.000    0.000    0.000    0.000    0.000    0.000 
#
# Total GULP energy -223283.597856 kJ/mol
# GULP energy per Si atom -5582.089946 kJ/mol
# Density = 2.204444 g / cm^3
# Si number density = 22.094732 Si / 1000 Ang^3
#
#
#
# Elastic Constant Matrix: (Units=GPa)
#
#
# Indices 1 2 3 4 5 6 
#
# 1 107.8955 6.4652 -14.9224 0.0000 0.0000 0.0000
# 2 6.4652 62.6286 8.1872 0.0000 0.0000 0.0000
# 3 -14.9224 8.1872 94.8513 0.0000 0.0000 0.0000
# 4 0.0000 0.0000 0.0000 27.4146 0.0000 0.0000
# 5 0.0000 0.0000 0.0000 0.0000 11.4639 0.0000
# 6 0.0000 0.0000 0.0000 0.0000 0.0000 33.5973
#
#
#
# Elastic Compliance Matrix: (Units=1/GPa)
#
#
# Indices 1 2 3 4 5 6 
#
# 1 0.009562 -0.001197 0.001608 0.000000 0.000000 0.000000
# 2 -0.001197 0.016299 -0.001595 0.000000 0.000000 0.000000
# 3 0.001608 -0.001595 0.010933 0.000000 0.000000 0.000000
# 4 0.000000 0.000000 0.000000 0.036477 0.000000 0.000000
# 5 0.000000 0.000000 0.000000 0.000000 0.087230 0.000000
# 6 0.000000 0.000000 0.000000 0.000000 0.000000 0.029764
#
#
# Mechanical properties :
#
#
# Convention : Reuss Voigt Hill
#
# Bulk Modulus (GPa) = 29.04830 29.42615 29.23723
# Shear Modulus (GPa) = 24.49647 32.20487 28.35067
#
# Velocity S-wave (km/s) = 3.33333 3.82197 3.58598
# Velocity P-wave (km/s) = 5.29060 5.72920 5.51426
#
# Compressibility (1/GPa) = 0.03442542
#
# Stress axis : x y z
#
# Youngs Moduli (GPa) = 104.57702 61.35243 91.46242
#
# Poissons Ratio (x) = 0.07346 -0.14705
# Poissons Ratio (y) = 0.12521 0.14591
# Poissons Ratio (z) = -0.16813 0.09787
#
# Static dielectric constant tensor:
#      x y z
#    x 1.895360 0.000000 0.000000 
#    y 0.000000 1.849760 0.000000 
#    z 0.000000 0.000000 1.835510 
# 
# From -- ./inp_files/26420.got.cif
#   From: 2010.05.17/outbox.cif.g08.bks.cpg/sg66_14_cif.got.tgz:26420.got - 2010.06.03 17:51:23.
