data_PCOD9499897
_publ_section_title
;
Structure prediction by ZEFSAII (Michael W. Deem and Ramdas Pophale) SiO2 
 PCOD9499897
Probable space group: C C C M
;
_chemical_formula_sum "Si O2"
_cell_formula_units_Z 80
_cell_length_a 11.355892
_cell_length_b 18.274223
_cell_length_c 16.232226
_cell_angle_alpha 90.000000
_cell_angle_beta 90.000000
_cell_angle_gamma 90.000000
_cell_volume 3368.513208
_symmetry_space_group_name_H-M "C C C M"
_symmetry_group_IT_number 66
_symmetry_cell_setting 'orthorhombic'
loop_
_space_group_symop_operation_xyz
x,y,z
-x,-y,z
x,-y,1/2-z
-x,y,1/2-z
-x,-y,-z
x,y,-z
-x,y,1/2+z
x,-y,1/2+z
1/2+x,1/2+y,z
1/2-x,1/2-y,z
1/2+x,1/2-y,1/2-z
1/2-x,1/2+y,1/2-z
1/2-x,1/2-y,-z
1/2+x,1/2+y,-z
1/2-x,1/2+y,1/2+z
1/2+x,1/2-y,1/2+z
loop_
_atom_site_type_symbol
_atom_site_label
_atom_site_fract_x
_atom_site_fract_y
_atom_site_fract_z
Si Si1 0.402123 0.574935 0.697031
Si Si2 0.375033 0.780920 0.634143
Si Si3 0.286638 0.846984 0.785408
Si Si4 0.469816 0.085248 0.592341
Si Si5 0.438165 0.655250 0.905274
O O1 0.388882 0.500000 0.750000
O O2 0.500000 0.618910 0.750000
O O3 0.278648 0.612603 0.708917
O O4 0.473801 0.584889 0.613115
O O5 0.250000 0.750000 0.602034
O O6 0.357468 0.786122 0.733779
O O7 0.420846 0.859099 0.601917
O O8 0.476470 0.724118 0.609734
O O9 0.380453 0.893935 0.835376
O O10 0.181558 0.836449 0.851621
O O11 0.420056 0.096853 0.500000
O O12 0.500000 0.000000 0.599539
O O13 0.402351 0.652255 0.000000
#
# Coordination Sequence:
#
# PCOD9499897 Si02
#       5
#    16  16  16  16  16
#     4   9  20  40  66 104 141 191 248 291 361 452
#     4  12  27  45  73 107 146 201 257 309 381 463
#     4  11  25  43  76 101 142 193 250 307 370 464
#     4  11  28  50  73 111 154 195 250 317 395 467
#     4  11  25  46  73 111 152 193 252 326 387 439
#
# _framework density 23.74935
#
# number of rings (size 3 to 8) (size 9 to 14) (size 15 to 20)
#    0.000    1.200    2.000    1.800    8.400    2.400 
#    0.000   11.000    0.000    0.000    0.000    0.000 
#    0.000    0.000    0.000    0.000    0.000    0.000 
#
# Total GULP energy -222872.869794 kJ/mol
# GULP energy per Si atom -5571.821745 kJ/mol
# Density = 2.369530 g / cm^3
# Si number density = 23.749350 Si / 1000 Ang^3
#
#
#
# Elastic Constant Matrix: (Units=GPa)
#
#
# Indices 1 2 3 4 5 6 
#
# 1 105.0102 30.2847 20.3696 0.0000 0.0000 0.0000
# 2 30.2847 130.4823 20.1249 0.0000 0.0000 0.0000
# 3 20.3696 20.1249 116.1233 0.0000 0.0000 0.0000
# 4 0.0000 0.0000 0.0000 29.4753 0.0000 0.0000
# 5 0.0000 0.0000 0.0000 0.0000 34.4336 0.0000
# 6 0.0000 0.0000 0.0000 0.0000 0.0000 28.1065
#
#
#
# Elastic Compliance Matrix: (Units=1/GPa)
#
#
# Indices 1 2 3 4 5 6 
#
# 1 0.010438 -0.002199 -0.001450 0.000000 0.000000 0.000000
# 2 -0.002199 0.008338 -0.001059 0.000000 0.000000 0.000000
# 3 -0.001450 -0.001059 0.009049 0.000000 0.000000 0.000000
# 4 0.000000 0.000000 0.000000 0.033927 0.000000 0.000000
# 5 0.000000 0.000000 0.000000 0.000000 0.029041 0.000000
# 6 0.000000 0.000000 0.000000 0.000000 0.000000 0.035579
#
#
# Mechanical properties :
#
#
# Convention : Reuss Voigt Hill
#
# Bulk Modulus (GPa) = 54.32124 54.79710 54.55917
# Shear Modulus (GPa) = 35.22980 37.12552 36.17766
#
# Velocity S-wave (km/s) = 3.85567 3.95805 3.90720
# Velocity P-wave (km/s) = 6.53789 6.63411 6.58617
#
# Compressibility (1/GPa) = 0.01840900
#
# Stress axis : x y z
#
# Youngs Moduli (GPa) = 95.80059 119.93790 110.50408
#
# Poissons Ratio (x) = 0.26375 0.16022
# Poissons Ratio (y) = 0.21067 0.11705
# Poissons Ratio (z) = 0.13890 0.12704
#
# Static dielectric constant tensor:
#      x y z
#    x 1.962600 0.000000 0.000000 
#    y 0.000000 2.080210 0.000000 
#    z 0.000000 0.000000 2.114030 
# 
# From -- ./inp_files/26413.got.cif
#   From: 2010.05.17/outbox.cif.g08.bks.cpg/sg66_14_cif.got.tgz:26413.got - 2010.06.03 17:51:23.
