data_PCOD9499203
_publ_section_title
;
Structure prediction by ZEFSAII (Michael W. Deem and Ramdas Pophale) SiO2 
 PCOD9499203
Probable space group: C C C M
;
_chemical_formula_sum "Si O2"
_cell_formula_units_Z 104
_cell_length_a 28.809672
_cell_length_b 19.767580
_cell_length_c 9.121884
_cell_angle_alpha 90.000000
_cell_angle_beta 90.000000
_cell_angle_gamma 90.000000
_cell_volume 5194.890097
_symmetry_space_group_name_H-M "C C C M"
_symmetry_group_IT_number 66
_symmetry_cell_setting 'orthorhombic'
loop_
_space_group_symop_operation_xyz
x,y,z
-x,-y,z
x,-y,1/2-z
-x,y,1/2-z
-x,-y,-z
x,y,-z
-x,y,1/2+z
x,-y,1/2+z
1/2+x,1/2+y,z
1/2-x,1/2-y,z
1/2+x,1/2-y,1/2-z
1/2-x,1/2+y,1/2-z
1/2-x,1/2-y,-z
1/2+x,1/2+y,-z
1/2-x,1/2+y,1/2+z
1/2+x,1/2-y,1/2+z
loop_
_atom_site_type_symbol
_atom_site_label
_atom_site_fract_x
_atom_site_fract_y
_atom_site_fract_z
Si Si1 0.634833 0.937233 0.329918
Si Si2 0.727581 0.395842 0.761298
Si Si3 0.255765 0.487462 0.000000
Si Si4 0.048358 0.773103 0.178103
Si Si5 0.952444 0.623930 0.177206
Si Si6 0.140735 0.816228 0.325737
Si Si7 0.805854 0.699967 0.665541
O O1 0.624528 0.953737 0.500000
O O2 0.589642 0.921142 0.234017
O O3 0.665657 0.870438 0.331985
O O4 0.658857 0.000000 0.250000
O O5 0.732397 0.453906 0.879001
O O6 0.751448 0.428793 0.622982
O O7 0.674717 0.377154 0.720036
O O8 0.753924 0.326573 0.805818
O O9 0.054448 0.698073 0.248914
O O10 0.092928 0.814199 0.234625
O O11 0.000000 0.798274 0.250000
O O12 0.046008 0.769343 0.000000
O O13 0.000000 0.598045 0.250000
O O14 0.955005 0.628413 0.000000
O O15 0.131941 0.817168 0.500000
O O16 0.169587 0.749092 0.280490
O O17 0.810596 0.728073 0.500000
#
# Coordination Sequence:
#
# PCOD9499203 Si02
#       7
#    16  16   8  16  16  16  16
#     4  11  24  39  56  83 116 162 214 263 318 374
#     4  11  24  43  67  93 132 171 220 264 323 381
#     4  10  24  44  66  94 125 174 219 266 318 390
#     4  11  22  39  65  94 129 166 208 260 321 386
#     4  11  21  38  60  83 114 156 204 261 318 377
#     4  12  25  41  64  99 133 169 215 269 324 376
#     4  11  25  40  62  91 130 171 218 268 318 375
#
# _framework density 20.019670999999999
#
# number of rings (size 3 to 8) (size 9 to 14) (size 15 to 20)
#    0.000    0.923    3.077    5.077    5.385    2.154 
#    0.000    1.538    0.000    0.000    0.000    3.231 
#    0.000    0.000    0.000    0.000    0.000    0.000 
#
# Total GULP energy -289476.558232 kJ/mol
# GULP energy per Si atom -5566.856889 kJ/mol
# Density = 1.997411 g / cm^3
# Si number density = 20.019671 Si / 1000 Ang^3
#
#
#
# Elastic Constant Matrix: (Units=GPa)
#
#
# Indices 1 2 3 4 5 6 
#
# 1 108.7679 2.1387 27.6425 0.0000 0.0000 0.0000
# 2 2.1387 26.9187 7.5513 0.0000 0.0000 0.0000
# 3 27.6425 7.5513 185.8689 0.0000 0.0000 0.0000
# 4 0.0000 0.0000 0.0000 39.6307 0.0000 0.0000
# 5 0.0000 0.0000 0.0000 0.0000 53.3147 0.0000
# 6 0.0000 0.0000 0.0000 0.0000 0.0000 19.5489
#
#
#
# Elastic Compliance Matrix: (Units=1/GPa)
#
#
# Indices 1 2 3 4 5 6 
#
# 1 0.009559 -0.000365 -0.001407 0.000000 0.000000 0.000000
# 2 -0.000365 0.037591 -0.001473 0.000000 0.000000 0.000000
# 3 -0.001407 -0.001473 0.005649 0.000000 0.000000 0.000000
# 4 0.000000 0.000000 0.000000 0.025233 0.000000 0.000000
# 5 0.000000 0.000000 0.000000 0.000000 0.018757 0.000000
# 6 0.000000 0.000000 0.000000 0.000000 0.000000 0.051154
#
#
# Mechanical properties :
#
#
# Convention : Reuss Voigt Hill
#
# Bulk Modulus (GPa) = 21.59367 44.02451 32.80909
# Shear Modulus (GPa) = 29.43466 41.44705 35.44086
#
# Velocity S-wave (km/s) = 3.83859 4.55501 4.21206
# Velocity P-wave (km/s) = 5.51870 7.05000 6.33082
#
# Compressibility (1/GPa) = 0.04630987
#
# Stress axis : x y z
#
# Youngs Moduli (GPa) = 104.61813 26.60202 177.01656
#
# Poissons Ratio (x) = 0.00970 0.24902
# Poissons Ratio (y) = 0.03817 0.26074
# Poissons Ratio (z) = 0.14717 0.03918
#
# Static dielectric constant tensor:
#      x y z
#    x 1.782720 0.000000 0.000000 
#    y 0.000000 1.723220 0.000000 
#    z 0.000000 0.000000 1.661480 
# 
# From -- ./inp_files/10355.got.cif
#   From: 2010.05.17/outbox.cif.g08.bks.cpg/sg66_6_cif.got.tgz:10355.got - 2010.06.03 17:51:23.
