data_PCOD9499345
_publ_section_title
;
Structure prediction by ZEFSAII (Michael W. Deem and Ramdas Pophale) SiO2 
 PCOD9499345
Probable space group: C C C M
;
_chemical_formula_sum "Si O2"
_cell_formula_units_Z 80
_cell_length_a 8.471368
_cell_length_b 16.398197
_cell_length_c 29.598179
_cell_angle_alpha 90.000000
_cell_angle_beta 90.000000
_cell_angle_gamma 90.000000
_cell_volume 4111.635811
_symmetry_space_group_name_H-M "C C C M"
_symmetry_group_IT_number 66
_symmetry_cell_setting 'orthorhombic'
loop_
_space_group_symop_operation_xyz
x,y,z
-x,-y,z
x,-y,1/2-z
-x,y,1/2-z
-x,-y,-z
x,y,-z
-x,y,1/2+z
x,-y,1/2+z
1/2+x,1/2+y,z
1/2-x,1/2-y,z
1/2+x,1/2-y,1/2-z
1/2-x,1/2+y,1/2-z
1/2-x,1/2-y,-z
1/2+x,1/2+y,-z
1/2-x,1/2+y,1/2+z
1/2+x,1/2-y,1/2+z
loop_
_atom_site_type_symbol
_atom_site_label
_atom_site_fract_x
_atom_site_fract_y
_atom_site_fract_z
Si Si1 0.134837 0.325235 0.618944
Si Si2 0.668880 0.044824 0.709660
Si Si3 0.685600 0.500636 0.882066
Si Si4 0.578903 0.779803 0.793921
Si Si5 0.594450 0.086116 0.448652
O O1 0.250000 0.250000 0.606883
O O2 0.236980 0.409631 0.621769
O O3 0.043845 0.298989 0.665382
O O4 0.003433 0.349484 0.581494
O O5 0.634387 0.134243 0.726028
O O6 0.500000 0.000000 0.701751
O O7 0.756407 0.000000 0.750000
O O8 0.759786 0.044612 0.663437
O O9 0.500000 0.500000 0.884702
O O10 0.750676 0.555878 0.922782
O O11 0.500000 0.735353 0.750000
O O12 0.750000 0.750000 0.811600
O O13 0.618027 0.113982 0.500000
O O14 0.500000 0.000000 0.449957
#
# Coordination Sequence:
#
# PCOD9499345 Si02
#       5
#    16  16  16  16  16
#     4  11  23  39  61  92 127 163 204 257 316 370
#     4  11  19  40  64  82 119 168 210 252 302 366
#     4  11  22  38  63  92 122 162 213 257 310 373
#     4  12  24  40  62  90 129 168 206 254 312 372
#     4   9  19  40  66  89 121 165 210 259 315 373
#
# _framework density 19.456977999999999
#
# number of rings (size 3 to 8) (size 9 to 14) (size 15 to 20)
#    0.000    1.200    6.000    1.200    2.800    1.200 
#    0.000    0.000    0.000    4.200    0.000    0.000 
#    0.000    0.000    0.000    0.000    0.000    0.000 
#
# Total GULP energy -222796.441852 kJ/mol
# GULP energy per Si atom -5569.911046 kJ/mol
# Density = 1.941269 g / cm^3
# Si number density = 19.456978 Si / 1000 Ang^3
#
#
#
# Elastic Constant Matrix: (Units=GPa)
#
#
# Indices 1 2 3 4 5 6 
#
# 1 120.1555 13.7657 53.9156 0.0000 0.0000 0.0000
# 2 13.7657 56.0713 7.6567 0.0000 0.0000 0.0000
# 3 53.9156 7.6567 141.8395 0.0000 0.0000 0.0000
# 4 0.0000 0.0000 0.0000 7.9875 0.0000 0.0000
# 5 0.0000 0.0000 0.0000 0.0000 192.8868 0.0000
# 6 0.0000 0.0000 0.0000 0.0000 0.0000 20.9439
#
#
#
# Elastic Compliance Matrix: (Units=1/GPa)
#
#
# Indices 1 2 3 4 5 6 
#
# 1 0.010252 -0.001999 -0.003789 0.000000 0.000000 0.000000
# 2 -0.001999 0.018357 -0.000231 0.000000 0.000000 0.000000
# 3 -0.003789 -0.000231 0.008503 0.000000 0.000000 0.000000
# 4 0.000000 0.000000 0.000000 0.125196 0.000000 0.000000
# 5 0.000000 0.000000 0.000000 0.000000 0.005184 0.000000
# 6 0.000000 0.000000 0.000000 0.000000 0.000000 0.047747
#
#
# Mechanical properties :
#
#
# Convention : Reuss Voigt Hill
#
# Bulk Modulus (GPa) = 39.88364 52.08248 45.98306
# Shear Modulus (GPa) = 21.21927 60.54551 40.88239
#
# Velocity S-wave (km/s) = 3.30597 5.58437 4.58882
# Velocity P-wave (km/s) = 5.92583 8.27082 7.19451
#
# Compressibility (1/GPa) = 0.02507294
#
# Stress axis : x y z
#
# Youngs Moduli (GPa) = 97.54406 54.47566 117.60651
#
# Poissons Ratio (x) = 0.10892 0.44560
# Poissons Ratio (y) = 0.19503 0.02716
# Poissons Ratio (z) = 0.36959 0.01258
#
# Static dielectric constant tensor:
#      x y z
#    x 1.815720 0.000000 0.000000 
#    y 0.000000 1.703750 0.000000 
#    z 0.000000 0.000000 1.706040 
# 
# From -- ./inp_files/62353.got.cif
#   From: 2010.05.17/outbox.cif.g08.bks.cpg/sg66_32_cif.got.tgz:62353.got - 2010.06.03 17:51:23.
