data_PCOD9499715
_publ_section_title
;
Structure prediction by ZEFSAII (Michael W. Deem and Ramdas Pophale) SiO2 
 PCOD9499715
Probable space group: C C C M
;
_chemical_formula_sum "Si O2"
_cell_formula_units_Z 80
_cell_length_a 8.247591
_cell_length_b 16.726277
_cell_length_c 30.827044
_cell_angle_alpha 90.000000
_cell_angle_beta 90.000000
_cell_angle_gamma 90.000000
_cell_volume 4252.636703
_symmetry_space_group_name_H-M "C C C M"
_symmetry_group_IT_number 66
_symmetry_cell_setting 'orthorhombic'
loop_
_space_group_symop_operation_xyz
x,y,z
-x,-y,z
x,-y,1/2-z
-x,y,1/2-z
-x,-y,-z
x,y,-z
-x,y,1/2+z
x,-y,1/2+z
1/2+x,1/2+y,z
1/2-x,1/2-y,z
1/2+x,1/2-y,1/2-z
1/2-x,1/2+y,1/2-z
1/2-x,1/2-y,-z
1/2+x,1/2+y,-z
1/2-x,1/2+y,1/2+z
1/2+x,1/2-y,1/2+z
loop_
_atom_site_type_symbol
_atom_site_label
_atom_site_fract_x
_atom_site_fract_y
_atom_site_fract_z
Si Si1 0.558178 0.091145 0.951833
Si Si2 0.938241 0.768407 0.200960
Si Si3 0.953485 0.907878 0.641302
Si Si4 0.132379 0.324140 0.629092
Si Si5 0.549632 0.592905 0.546206
O O1 0.521289 0.146803 0.910719
O O2 0.754655 0.094624 0.953282
O O3 0.500000 0.000000 0.944869
O O4 0.498993 0.115484 0.000000
O O5 0.750000 0.750000 0.200092
O O6 0.000000 0.766267 0.250000
O O7 0.972551 0.853690 0.178640
O O8 0.034281 0.706056 0.170452
O O9 0.759238 0.893903 0.641682
O O10 0.008595 0.877330 0.593123
O O11 0.000000 0.000000 0.645233
O O12 0.250000 0.250000 0.615671
O O13 0.500000 0.500000 0.545332
O O14 0.495363 0.629460 0.500000
#
# Coordination Sequence:
#
# PCOD9499715 Si02
#       5
#    16  16  16  16  16
#     4   9  17  29  49  78 110 143 178 219 261 301
#     4  11  23  40  59  77 104 140 178 225 283 335
#     4   9  18  34  57  83 109 141 181 222 264 316
#     4   9  19  35  54  78 110 144 180 216 264 328
#     4   8  14  26  46  73 106 141 173 206 250 306
#
# _framework density 18.811858999999998
#
# number of rings (size 3 to 8) (size 9 to 14) (size 15 to 20)
#    0.000    2.800    0.000    1.800    0.000    5.600 
#    0.000    3.000    0.000    5.400    0.000    0.000 
#    0.000    0.000    0.000    0.000    0.000    0.000 
#
# Total GULP energy -222753.094790 kJ/mol
# GULP energy per Si atom -5568.827370 kJ/mol
# Density = 1.876904 g / cm^3
# Si number density = 18.811859 Si / 1000 Ang^3
#
#
#
# Elastic Constant Matrix: (Units=GPa)
#
#
# Indices 1 2 3 4 5 6 
#
# 1 43.8045 35.3647 45.3739 0.0000 0.0000 0.0000
# 2 35.3647 72.6524 78.1278 0.0000 0.0000 0.0000
# 3 45.3739 78.1278 217.0978 0.0000 0.0000 0.0000
# 4 0.0000 0.0000 0.0000 20.8521 0.0000 0.0000
# 5 0.0000 0.0000 0.0000 0.0000 108.6812 0.0000
# 6 0.0000 0.0000 0.0000 0.0000 0.0000 28.6887
#
#
#
# Elastic Compliance Matrix: (Units=1/GPa)
#
#
# Indices 1 2 3 4 5 6 
#
# 1 0.038190 -0.016323 -0.002107 0.000000 0.000000 0.000000
# 2 -0.016323 0.029431 -0.007180 0.000000 0.000000 0.000000
# 3 -0.002107 -0.007180 0.007630 0.000000 0.000000 0.000000
# 4 0.000000 0.000000 0.000000 0.047957 0.000000 0.000000
# 5 0.000000 0.000000 0.000000 0.000000 0.009201 0.000000
# 6 0.000000 0.000000 0.000000 0.000000 0.000000 0.034857
#
#
# Mechanical properties :
#
#
# Convention : Reuss Voigt Hill
#
# Bulk Modulus (GPa) = 41.61444 72.36529 56.98987
# Shear Modulus (GPa) = 22.07537 43.29030 32.68283
#
# Velocity S-wave (km/s) = 3.42933 4.80231 4.17268
# Velocity P-wave (km/s) = 6.15222 8.32472 7.31952
#
# Compressibility (1/GPa) = 0.02403012
#
# Stress axis : x y z
#
# Youngs Moduli (GPa) = 26.18494 33.97827 131.05351
#
# Poissons Ratio (x) = 0.55464 0.27619
# Poissons Ratio (y) = 0.42742 0.94092
# Poissons Ratio (z) = 0.05518 0.24395
#
# Static dielectric constant tensor:
#      x y z
#    x 1.867100 0.000000 0.000000 
#    y 0.000000 1.656190 0.000000 
#    z 0.000000 0.000000 1.718070 
# 
# From -- ./inp_files/62413.got.cif
#   From: 2010.05.17/outbox.cif.g08.bks.cpg/sg66_32_cif.got.tgz:62413.got - 2010.06.03 17:51:23.
