data_PCOD9499368
_publ_section_title
;
Structure prediction by ZEFSAII (Michael W. Deem and Ramdas Pophale) SiO2 
 PCOD9499368
Probable space group: C C C M
;
_chemical_formula_sum "Si O2"
_cell_formula_units_Z 96
_cell_length_a 10.042113
_cell_length_b 21.248948
_cell_length_c 24.632649
_cell_angle_alpha 90.000000
_cell_angle_beta 90.000000
_cell_angle_gamma 90.000000
_cell_volume 5256.221474
_symmetry_space_group_name_H-M "C C C M"
_symmetry_group_IT_number 66
_symmetry_cell_setting 'orthorhombic'
loop_
_space_group_symop_operation_xyz
x,y,z
-x,-y,z
x,-y,1/2-z
-x,y,1/2-z
-x,-y,-z
x,y,-z
-x,y,1/2+z
x,-y,1/2+z
1/2+x,1/2+y,z
1/2-x,1/2-y,z
1/2+x,1/2-y,1/2-z
1/2-x,1/2+y,1/2-z
1/2-x,1/2-y,-z
1/2+x,1/2+y,-z
1/2-x,1/2+y,1/2+z
1/2+x,1/2-y,1/2+z
loop_
_atom_site_type_symbol
_atom_site_label
_atom_site_fract_x
_atom_site_fract_y
_atom_site_fract_z
Si Si1 0.724520 0.508085 0.814410
Si Si2 0.600659 0.684889 0.404606
Si Si3 0.020343 0.898706 0.813928
Si Si4 0.782457 0.032544 0.500000
Si Si5 0.588657 0.942478 0.094333
Si Si6 0.570239 0.411313 0.000000
Si Si7 0.408239 0.175734 0.434429
O O1 0.752125 0.500000 0.750000
O O2 0.649913 0.442117 0.827688
O O3 0.609540 0.559511 0.826699
O O4 0.850229 0.531770 0.848918
O O5 0.539606 0.664319 0.347540
O O6 0.564456 0.631887 0.447608
O O7 0.546707 0.752394 0.423964
O O8 0.761735 0.679395 0.407151
O O9 0.000000 0.887571 0.750000
O O10 0.709945 0.059916 0.447571
O O11 0.932996 0.052832 0.500000
O O12 0.799786 0.956532 0.500000
O O13 0.501433 0.878700 0.091157
O O14 0.500000 0.000000 0.072848
O O15 0.396891 0.166246 0.500000
#
# Coordination Sequence:
#
# PCOD9499368 Si02
#       7
#    16  16  16   8  16   8  16
#     4   9  19  37  60  89 114 148 196 246 303 355
#     4  11  20  37  62  82 113 159 205 240 291 359
#     4   9  18  36  64  86 113 150 198 253 296 341
#     4  11  23  33  51  86 118 140 194 241 294 353
#     4  12  23  36  57  82 119 155 184 244 303 355
#     4  11  20  34  57  83 110 152 192 245 287 354
#     4  11  22  39  58  86 120 162 201 235 294 369
#
# _framework density 18.26407
#
# number of rings (size 3 to 8) (size 9 to 14) (size 15 to 20)
#    0.000    1.500    2.500    5.750    0.000    3.000 
#    0.000    4.167   18.333    0.000    0.000    0.000 
#    0.000    0.000    0.000    0.000    0.000    0.000 
#
# Total GULP energy -267373.630420 kJ/mol
# GULP energy per Si atom -5570.283967 kJ/mol
# Density = 1.822250 g / cm^3
# Si number density = 18.264070 Si / 1000 Ang^3
#
#
#
# Elastic Constant Matrix: (Units=GPa)
#
#
# Indices 1 2 3 4 5 6 
#
# 1 71.8417 44.4455 31.5682 0.0000 0.0000 0.0000
# 2 44.4455 114.6439 38.2492 0.0000 0.0000 0.0000
# 3 31.5682 38.2492 66.6675 0.0000 0.0000 0.0000
# 4 0.0000 0.0000 0.0000 140.4994 0.0000 0.0000
# 5 0.0000 0.0000 0.0000 0.0000 37.9739 0.0000
# 6 0.0000 0.0000 0.0000 0.0000 0.0000 28.9262
#
#
#
# Elastic Compliance Matrix: (Units=1/GPa)
#
#
# Indices 1 2 3 4 5 6 
#
# 1 0.020238 -0.005749 -0.006284 0.000000 0.000000 0.000000
# 2 -0.005749 0.012421 -0.004404 0.000000 0.000000 0.000000
# 3 -0.006284 -0.004404 0.020502 0.000000 0.000000 0.000000
# 4 0.000000 0.000000 0.000000 0.007117 0.000000 0.000000
# 5 0.000000 0.000000 0.000000 0.000000 0.026334 0.000000
# 6 0.000000 0.000000 0.000000 0.000000 0.000000 0.034571
#
#
# Mechanical properties :
#
#
# Convention : Reuss Voigt Hill
#
# Bulk Modulus (GPa) = 49.29550 53.51990 51.40770
# Shear Modulus (GPa) = 31.09074 50.73926 40.91500
#
# Velocity S-wave (km/s) = 4.13036 5.27648 4.73820
# Velocity P-wave (km/s) = 7.05659 8.15406 7.62509
#
# Compressibility (1/GPa) = 0.02028583
#
# Stress axis : x y z
#
# Youngs Moduli (GPa) = 49.41270 80.51023 48.77513
#
# Poissons Ratio (x) = 0.46286 0.30653
# Poissons Ratio (y) = 0.28408 0.21480
# Poissons Ratio (z) = 0.31053 0.35456
#
# Static dielectric constant tensor:
#      x y z
#    x 1.647630 0.000000 0.000000 
#    y 0.000000 1.693270 0.000000 
#    z 0.000000 0.000000 0.740160 
# 
# From -- ./inp_files/55691.got.cif
#   From: 2010.05.17/outbox.cif.g08.bks.cpg/sg66_28_cif.got.tgz:55691.got - 2010.06.03 17:51:23.
