data_PCOD9499500
_publ_section_title
;
Structure prediction by ZEFSAII (Michael W. Deem and Ramdas Pophale) SiO2 
 PCOD9499500
Probable space group: C C C M
;
_chemical_formula_sum "Si O2"
_cell_formula_units_Z 64
_cell_length_a 15.421575
_cell_length_b 9.228459
_cell_length_c 21.117398
_cell_angle_alpha 90.000000
_cell_angle_beta 90.000000
_cell_angle_gamma 90.000000
_cell_volume 3005.372600
_symmetry_space_group_name_H-M "C C C M"
_symmetry_group_IT_number 66
_symmetry_cell_setting 'orthorhombic'
loop_
_space_group_symop_operation_xyz
x,y,z
-x,-y,z
x,-y,1/2-z
-x,y,1/2-z
-x,-y,-z
x,y,-z
-x,y,1/2+z
x,-y,1/2+z
1/2+x,1/2+y,z
1/2-x,1/2-y,z
1/2+x,1/2-y,1/2-z
1/2-x,1/2+y,1/2-z
1/2-x,1/2-y,-z
1/2+x,1/2+y,-z
1/2-x,1/2+y,1/2+z
1/2+x,1/2-y,1/2+z
loop_
_atom_site_type_symbol
_atom_site_label
_atom_site_fract_x
_atom_site_fract_y
_atom_site_fract_z
Si Si1 0.000000 0.000000 0.651754
Si Si2 0.500000 0.246768 0.250000
Si Si3 0.662788 0.051020 0.073614
Si Si4 0.320571 0.879184 0.297790
Si Si5 0.633973 0.624946 0.571197
O O1 0.007949 0.143542 0.691956
O O2 0.085864 0.003494 0.610595
O O3 0.589471 0.164258 0.263104
O O4 0.619725 0.206718 0.090081
O O5 0.764691 0.090009 0.071756
O O6 0.654421 0.940813 0.132325
O O7 0.638803 0.009643 0.000000
O O8 0.250000 0.750000 0.302972
O O9 0.280844 0.000000 0.250000
O O10 0.601347 0.616241 0.500000
#
# Coordination Sequence:
#
# PCOD9499500 Si02
#       5
#     8   8  16  16  16
#     4  11  21  38  64  88 137 171 222 268 334 407
#     4  11  27  42  60  96 134 176 226 284 332 398
#     4   9  20  40  66  96 133 174 223 276 338 405
#     4  12  27  43  69  98 136 182 228 280 345 405
#     4   9  18  35  64  98 129 170 216 271 334 402
#
# _framework density 21.295197000000002
#
# number of rings (size 3 to 8) (size 9 to 14) (size 15 to 20)
#    0.000    1.750    0.000    5.250   10.500    0.500 
#    0.000    2.500    0.000    6.000    0.000    0.000 
#    0.000    0.000    0.000    0.000    0.000    0.000 
#
# Total GULP energy -178436.473091 kJ/mol
# GULP energy per Si atom -5576.139784 kJ/mol
# Density = 2.124673 g / cm^3
# Si number density = 21.295197 Si / 1000 Ang^3
#
#
#
# Elastic Constant Matrix: (Units=GPa)
#
#
# Indices 1 2 3 4 5 6 
#
# 1 62.7232 35.4106 47.5289 0.0000 0.0000 0.0000
# 2 35.4106 95.0098 87.4821 0.0000 0.0000 0.0000
# 3 47.5289 87.4821 138.2385 0.0000 0.0000 0.0000
# 4 0.0000 0.0000 0.0000 98.9667 0.0000 0.0000
# 5 0.0000 0.0000 0.0000 0.0000 33.7602 0.0000
# 6 0.0000 0.0000 0.0000 0.0000 0.0000 32.4297
#
#
#
# Elastic Compliance Matrix: (Units=1/GPa)
#
#
# Indices 1 2 3 4 5 6 
#
# 1 0.021899 -0.002945 -0.005665 0.000000 0.000000 0.000000
# 2 -0.002945 0.025618 -0.015199 0.000000 0.000000 0.000000
# 3 -0.005665 -0.015199 0.018800 0.000000 0.000000 0.000000
# 4 0.000000 0.000000 0.000000 0.010104 0.000000 0.000000
# 5 0.000000 0.000000 0.000000 0.000000 0.029621 0.000000
# 6 0.000000 0.000000 0.000000 0.000000 0.000000 0.030836
#
#
# Mechanical properties :
#
#
# Convention : Reuss Voigt Hill
#
# Bulk Modulus (GPa) = 53.48378 70.75718 62.12048
# Shear Modulus (GPa) = 26.21502 41.40132 33.80817
#
# Velocity S-wave (km/s) = 3.51241 4.41405 3.98879
# Velocity P-wave (km/s) = 6.45130 7.69918 7.10270
#
# Compressibility (1/GPa) = 0.01869726
#
# Stress axis : x y z
#
# Youngs Moduli (GPa) = 45.66464 39.03508 53.19070
#
# Poissons Ratio (x) = 0.11497 0.30134
# Poissons Ratio (y) = 0.13450 0.80846
# Poissons Ratio (z) = 0.25870 0.59330
#
# Static dielectric constant tensor:
#      x y z
#    x 1.793550 0.000000 0.000000 
#    y 0.000000 1.779950 0.000000 
#    z 0.000000 0.000000 1.822730 
# 
# From -- ./inp_files/50540.got.cif
#   From: 2010.05.17/outbox.cif.g08.bks.cpg/sg66_26_cif.got.tgz:50540.got - 2010.06.03 17:51:23.
