data_PCOD9499752
_publ_section_title
;
Structure prediction by ZEFSAII (Michael W. Deem and Ramdas Pophale) SiO2 
 PCOD9499752
Probable space group: C C C M
;
_chemical_formula_sum "Si O2"
_cell_formula_units_Z 56
_cell_length_a 12.902065
_cell_length_b 7.035624
_cell_length_c 22.684779
_cell_angle_alpha 90.000000
_cell_angle_beta 90.000000
_cell_angle_gamma 90.000000
_cell_volume 2059.189902
_symmetry_space_group_name_H-M "C C C M"
_symmetry_group_IT_number 66
_symmetry_cell_setting 'orthorhombic'
loop_
_space_group_symop_operation_xyz
x,y,z
-x,-y,z
x,-y,1/2-z
-x,y,1/2-z
-x,-y,-z
x,y,-z
-x,y,1/2+z
x,-y,1/2+z
1/2+x,1/2+y,z
1/2-x,1/2-y,z
1/2+x,1/2-y,1/2-z
1/2-x,1/2+y,1/2-z
1/2-x,1/2-y,-z
1/2+x,1/2+y,-z
1/2-x,1/2+y,1/2+z
1/2+x,1/2-y,1/2+z
loop_
_atom_site_type_symbol
_atom_site_label
_atom_site_fract_x
_atom_site_fract_y
_atom_site_fract_z
Si Si1 0.750000 0.750000 0.336650
Si Si2 0.672885 0.984873 0.564690
Si Si3 0.617145 0.772270 0.763168
Si Si4 0.898833 0.137881 0.396095
O O1 0.666922 0.848314 0.379416
O O2 0.676496 0.657512 0.287792
O O3 0.662526 0.899532 0.500000
O O4 0.794325 0.048628 0.574831
O O5 0.594382 0.161030 0.570049
O O6 0.500000 0.735333 0.750000
O O7 0.632937 0.712612 0.830606
O O8 0.633022 0.000000 0.750000
O O9 0.000000 0.000000 0.397763
#
# Coordination Sequence:
#
# PCOD9499752 Si02
#       4
#     8  16  16  16
#     4  12  23  44  72  98 151 194 242 312 390 444
#     4  11  25  43  67 102 142 196 258 303 366 458
#     4  11  24  42  70 106 144 183 239 308 383 468
#     4  11  23  43  70 102 139 187 246 312 382 455
#
# _framework density 27.195159
#
# number of rings (size 3 to 8) (size 9 to 14) (size 15 to 20)
#    0.000    0.857    2.857    5.571    0.000    5.143 
#    0.000    0.000    0.000    5.143    0.000    0.000 
#    0.000    0.000    0.000    0.000    0.000    0.000 
#
# Total GULP energy -156347.424958 kJ/mol
# GULP energy per Si atom -5583.836606 kJ/mol
# Density = 2.713326 g / cm^3
# Si number density = 27.195159 Si / 1000 Ang^3
#
#
#
# Elastic Constant Matrix: (Units=GPa)
#
#
# Indices 1 2 3 4 5 6 
#
# 1 148.2314 34.7445 31.7172 0.0000 0.0000 0.0000
# 2 34.7445 116.3644 41.6579 0.0000 0.0000 0.0000
# 3 31.7172 41.6579 244.8001 0.0000 0.0000 0.0000
# 4 0.0000 0.0000 0.0000 63.5808 0.0000 0.0000
# 5 0.0000 0.0000 0.0000 0.0000 30.1780 0.0000
# 6 0.0000 0.0000 0.0000 0.0000 0.0000 50.7478
#
#
#
# Elastic Compliance Matrix: (Units=1/GPa)
#
#
# Indices 1 2 3 4 5 6 
#
# 1 0.007340 -0.001971 -0.000616 0.000000 0.000000 0.000000
# 2 -0.001971 0.009681 -0.001392 0.000000 0.000000 0.000000
# 3 -0.000616 -0.001392 0.004402 0.000000 0.000000 0.000000
# 4 0.000000 0.000000 0.000000 0.015728 0.000000 0.000000
# 5 0.000000 0.000000 0.000000 0.000000 0.033137 0.000000
# 6 0.000000 0.000000 0.000000 0.000000 0.000000 0.019705
#
#
# Mechanical properties :
#
#
# Convention : Reuss Voigt Hill
#
# Bulk Modulus (GPa) = 74.26842 80.62612 77.44727
# Shear Modulus (GPa) = 48.81006 55.65306 52.23156
#
# Velocity S-wave (km/s) = 4.24111 4.52866 4.38724
# Velocity P-wave (km/s) = 7.16599 7.55358 7.36234
#
# Compressibility (1/GPa) = 0.01346467
#
# Stress axis : x y z
#
# Youngs Moduli (GPa) = 136.24048 103.29957 227.19067
#
# Poissons Ratio (x) = 0.20363 0.13985
# Poissons Ratio (y) = 0.26856 0.31624
# Poissons Ratio (z) = 0.08386 0.14379
#
# Static dielectric constant tensor:
#      x y z
#    x 1.881060 0.000000 0.000000 
#    y 0.000000 2.545560 0.000000 
#    z 0.000000 0.000000 2.050370 
# 
# From -- ./inp_files/49454.got.cif
#   From: 2010.05.17/outbox.cif.g08.bks.cpg/sg66_25_cif.got.tgz:49454.got - 2010.06.03 17:51:23.
