data_PCOD9499831
_publ_section_title
;
Structure prediction by ZEFSAII (Michael W. Deem and Ramdas Pophale) SiO2 
 PCOD9499831
Probable space group: C C C M
;
_chemical_formula_sum "Si O2"
_cell_formula_units_Z 56
_cell_length_a 9.089245
_cell_length_b 13.044894
_cell_length_c 22.718663
_cell_angle_alpha 90.000000
_cell_angle_beta 90.000000
_cell_angle_gamma 90.000000
_cell_volume 2693.711832
_symmetry_space_group_name_H-M "C C C M"
_symmetry_group_IT_number 66
_symmetry_cell_setting 'orthorhombic'
loop_
_space_group_symop_operation_xyz
x,y,z
-x,-y,z
x,-y,1/2-z
-x,y,1/2-z
-x,-y,-z
x,y,-z
-x,y,1/2+z
x,-y,1/2+z
1/2+x,1/2+y,z
1/2-x,1/2-y,z
1/2+x,1/2-y,1/2-z
1/2-x,1/2+y,1/2-z
1/2-x,1/2-y,-z
1/2+x,1/2+y,-z
1/2-x,1/2+y,1/2+z
1/2+x,1/2-y,1/2+z
loop_
_atom_site_type_symbol
_atom_site_label
_atom_site_fract_x
_atom_site_fract_y
_atom_site_fract_z
Si Si1 0.510272 0.826901 0.815484
Si Si2 0.423967 0.723905 0.436347
Si Si3 0.000000 0.000000 0.905153
Si Si4 0.755673 0.498223 0.814283
O O1 0.500000 0.776014 0.750000
O O2 0.503839 0.762230 0.875241
O O3 0.380092 0.910632 0.814815
O O4 0.660383 0.893188 0.820582
O O5 0.475806 0.768144 0.500000
O O6 0.250000 0.750000 0.432751
O O7 0.454978 0.603011 0.438071
O O8 0.860576 0.022223 0.864049
O O9 0.685050 0.500000 0.750000
#
# Coordination Sequence:
#
# PCOD9499831 Si02
#       4
#    16  16   8  16
#     4   9  19  41  64  89 126 167 207 258 322 382
#     4  11  24  43  63  91 129 171 215 268 325 382
#     4  12  22  38  62  94 123 166 217 262 321 382
#     4   9  19  36  63  95 127 160 206 263 317 383
#
# _framework density 20.789156999999999
#
# number of rings (size 3 to 8) (size 9 to 14) (size 15 to 20)
#    0.000    2.000    2.857    2.571    0.000    3.429 
#    0.000    7.143    0.000    0.000    0.000    0.000 
#    0.000    0.000    0.000    0.000    0.000    0.000 
#
# Total GULP energy -156151.530405 kJ/mol
# GULP energy per Si atom -5576.840372 kJ/mol
# Density = 2.074184 g / cm^3
# Si number density = 20.789157 Si / 1000 Ang^3
#
#
#
# Elastic Constant Matrix: (Units=GPa)
#
#
# Indices 1 2 3 4 5 6 
#
# 1 59.1234 6.5869 26.4754 0.0000 0.0000 0.0000
# 2 6.5869 82.6361 59.8553 0.0000 0.0000 0.0000
# 3 26.4754 59.8553 204.2762 0.0000 0.0000 0.0000
# 4 0.0000 0.0000 0.0000 26.1709 0.0000 0.0000
# 5 0.0000 0.0000 0.0000 0.0000 53.2302 0.0000
# 6 0.0000 0.0000 0.0000 0.0000 0.0000 16.0247
#
#
#
# Elastic Compliance Matrix: (Units=1/GPa)
#
#
# Indices 1 2 3 4 5 6 
#
# 1 0.017963 0.000323 -0.002423 0.000000 0.000000 0.000000
# 2 0.000323 0.015367 -0.004545 0.000000 0.000000 0.000000
# 3 -0.002423 -0.004545 0.006541 0.000000 0.000000 0.000000
# 4 0.000000 0.000000 0.000000 0.038210 0.000000 0.000000
# 5 0.000000 0.000000 0.000000 0.000000 0.018786 0.000000
# 6 0.000000 0.000000 0.000000 0.000000 0.000000 0.062404
#
#
# Mechanical properties :
#
#
# Convention : Reuss Voigt Hill
#
# Bulk Modulus (GPa) = 37.61906 59.09676 48.35791
# Shear Modulus (GPa) = 27.56026 35.95971 31.75999
#
# Velocity S-wave (km/s) = 3.64497 4.16352 3.91284
# Velocity P-wave (km/s) = 5.98742 7.18343 6.61252
#
# Compressibility (1/GPa) = 0.02658227
#
# Stress axis : x y z
#
# Youngs Moduli (GPa) = 55.67101 65.07313 152.88236
#
# Poissons Ratio (x) = -0.02102 0.37039
# Poissons Ratio (y) = -0.01798 0.69480
# Poissons Ratio (z) = 0.13488 0.29574
#
# Static dielectric constant tensor:
#      x y z
#    x 1.718100 0.000000 0.000000 
#    y 0.000000 1.753470 0.000000 
#    z 0.000000 0.000000 1.789840 
# 
# From -- ./inp_files/46370.got.cif
#   From: 2010.05.17/outbox.cif.g08.bks.cpg/sg66_24_cif.got.tgz:46370.got - 2010.06.03 17:51:23.
