data_PCOD9499096
_publ_section_title
;
Structure prediction by ZEFSAII (Michael W. Deem and Ramdas Pophale) SiO2 
 PCOD9499096
Probable space group: C C C M
;
_chemical_formula_sum "Si O2"
_cell_formula_units_Z 104
_cell_length_a 25.393025
_cell_length_b 20.128432
_cell_length_c 9.782474
_cell_angle_alpha 90.000000
_cell_angle_beta 90.000000
_cell_angle_gamma 90.000000
_cell_volume 5000.035494
_symmetry_space_group_name_H-M "C C C M"
_symmetry_group_IT_number 66
_symmetry_cell_setting 'orthorhombic'
loop_
_space_group_symop_operation_xyz
x,y,z
-x,-y,z
x,-y,1/2-z
-x,y,1/2-z
-x,-y,-z
x,y,-z
-x,y,1/2+z
x,-y,1/2+z
1/2+x,1/2+y,z
1/2-x,1/2-y,z
1/2+x,1/2-y,1/2-z
1/2-x,1/2+y,1/2-z
1/2-x,1/2-y,-z
1/2+x,1/2+y,-z
1/2-x,1/2+y,1/2+z
1/2+x,1/2-y,1/2+z
loop_
_atom_site_type_symbol
_atom_site_label
_atom_site_fract_x
_atom_site_fract_y
_atom_site_fract_z
Si Si1 0.922177 0.939408 0.655328
Si Si2 0.294989 0.652661 0.500000
Si Si3 0.952168 0.790825 0.339902
Si Si4 0.366435 0.180901 0.704617
Si Si5 0.300406 0.426435 0.720801
Si Si6 0.673747 0.802419 0.000000
Si Si7 0.550628 0.065788 0.838024
Si Si8 0.773111 0.350773 0.000000
O O1 0.939393 0.950304 0.500000
O O2 0.941505 0.866959 0.700816
O O3 0.858542 0.936377 0.659572
O O4 0.938753 0.000000 0.750000
O O5 0.306727 0.611139 0.635500
O O6 0.325263 0.722402 0.500000
O O7 0.233349 0.671378 0.500000
O O8 0.965967 0.788791 0.500000
O O9 0.899951 0.747296 0.320311
O O10 0.000000 0.763751 0.250000
O O11 0.354029 0.173907 0.863467
O O12 0.402949 0.119144 0.662565
O O13 0.313003 0.180287 0.618217
O O14 0.277519 0.500000 0.750000
O O15 0.263965 0.384835 0.619490
O O16 0.500000 0.090643 0.750000
O O17 0.565810 0.000000 0.750000
O O18 0.539037 0.053138 0.000000
#
# Coordination Sequence:
#
# PCOD9499096 Si02
#       8
#    16   8  16  16  16   8  16   8
#     4  10  23  43  69 100 136 177 225 274 338 414
#     4  11  23  44  61  95 131 175 229 267 326 403
#     4  11  25  46  70 100 133 173 226 286 347 410
#     4  12  25  46  65  99 135 175 229 278 342 403
#     4  11  23  43  69  99 139 183 225 276 338 405
#     4  11  26  42  65  90 132 178 223 277 327 397
#     4  11  24  43  68  96 131 178 229 283 344 404
#     4  12  23  44  65 103 139 179 222 279 333 388
#
# _framework density 20.799852000000001
#
# number of rings (size 3 to 8) (size 9 to 14) (size 15 to 20)
#    0.000    0.923    3.846    2.769    6.462    1.538 
#    2.769    4.615    0.000    0.000    0.000    0.000 
#    0.000    0.000    0.000    0.000    0.000    0.000 
#
# Total GULP energy -289717.536282 kJ/mol
# GULP energy per Si atom -5571.491082 kJ/mol
# Density = 2.075251 g / cm^3
# Si number density = 20.799852 Si / 1000 Ang^3
#
#
#
# Elastic Constant Matrix: (Units=GPa)
#
#
# Indices 1 2 3 4 5 6 
#
# 1 65.9393 26.9285 25.9862 0.0000 0.0000 0.0000
# 2 26.9285 59.1385 26.4858 0.0000 0.0000 0.0000
# 3 25.9862 26.4858 159.1753 0.0000 0.0000 0.0000
# 4 0.0000 0.0000 0.0000 106.7557 0.0000 0.0000
# 5 0.0000 0.0000 0.0000 0.0000 -79.9546 0.0000
# 6 0.0000 0.0000 0.0000 0.0000 0.0000 22.3585
#
#
#
# Elastic Compliance Matrix: (Units=1/GPa)
#
#
# Indices 1 2 3 4 5 6 
#
# 1 0.019098 -0.007888 -0.001805 0.000000 0.000000 0.000000
# 2 -0.007888 0.021529 -0.002295 0.000000 0.000000 0.000000
# 3 -0.001805 -0.002295 0.006959 0.000000 0.000000 0.000000
# 4 0.000000 0.000000 0.000000 0.009367 0.000000 0.000000
# 5 0.000000 0.000000 0.000000 0.000000 -0.012507 0.000000
# 6 0.000000 0.000000 0.000000 0.000000 0.000000 0.044726
#
#
# Mechanical properties :
#
#
# Convention : Reuss Voigt Hill
#
# Bulk Modulus (GPa) = 42.35404 49.22824 45.79114
# Shear Modulus (GPa) = 41.31642 23.48874 32.40258
#
# Velocity S-wave (km/s) = 4.46172 3.36411 3.95121
# Velocity P-wave (km/s) = 6.85197 6.22966 6.54821
#
# Compressibility (1/GPa) = 0.02361050
#
# Stress axis : x y z
#
# Youngs Moduli (GPa) = 52.36096 46.44954 143.70039
#
# Poissons Ratio (x) = 0.36638 0.25944
# Poissons Ratio (y) = 0.41301 0.32973
# Poissons Ratio (z) = 0.09453 0.10658
#
# Static dielectric constant tensor:
#      x y z
#    x 1.727150 0.000000 0.000000 
#    y 0.000000 1.753960 0.000000 
#    z 0.000000 0.000000 1.703390 
# 
# From -- ./inp_files/10399.got.cif
#   From: 2010.05.17/outbox.cif.g08.bks.cpg/sg66_6_cif.got.tgz:10399.got - 2010.06.03 17:51:23.
