data_PCOD9499910
_publ_section_title
;
Structure prediction by ZEFSAII (Michael W. Deem and Ramdas Pophale) SiO2 
 PCOD9499910
Probable space group: C C C M
;
_chemical_formula_sum "Si O2"
_cell_formula_units_Z 52
_cell_length_a 8.383339
_cell_length_b 17.592123
_cell_length_c 15.482631
_cell_angle_alpha 90.000000
_cell_angle_beta 90.000000
_cell_angle_gamma 90.000000
_cell_volume 2283.389735
_symmetry_space_group_name_H-M "C C C M"
_symmetry_group_IT_number 66
_symmetry_cell_setting 'orthorhombic'
loop_
_space_group_symop_operation_xyz
x,y,z
-x,-y,z
x,-y,1/2-z
-x,y,1/2-z
-x,-y,-z
x,y,-z
-x,y,1/2+z
x,-y,1/2+z
1/2+x,1/2+y,z
1/2-x,1/2-y,z
1/2+x,1/2-y,1/2-z
1/2-x,1/2+y,1/2-z
1/2-x,1/2-y,-z
1/2+x,1/2+y,-z
1/2-x,1/2+y,1/2+z
1/2+x,1/2-y,1/2+z
loop_
_atom_site_type_symbol
_atom_site_label
_atom_site_fract_x
_atom_site_fract_y
_atom_site_fract_z
Si Si1 0.941048 0.920105 0.651134
Si Si2 0.500000 0.000000 0.500000
Si Si3 0.433576 0.893309 0.843909
Si Si4 0.570617 0.741415 0.100854
O O1 0.750865 0.915712 0.647674
O O2 0.000000 0.918839 0.750000
O O3 0.012542 0.844581 0.609773
O O4 0.000000 0.000000 0.612223
O O5 0.478589 0.935241 0.577223
O O6 0.500000 0.914404 0.750000
O O7 0.457244 0.802857 0.854415
O O8 0.750000 0.750000 0.136722
O O9 0.574121 0.760613 0.000000
#
# Coordination Sequence:
#
# PCOD9499910 Si02
#       4
#    16   4  16  16
#     4  11  27  46  72 109 148 196 250 297 373 438
#     4  12  30  44  78 122 136 198 248 312 372 442
#     4  12  27  49  80 104 156 193 247 308 374 443
#     4  11  25  46  74 109 149 194 248 304 368 443
#
# _framework density 22.773160000000001
#
# number of rings (size 3 to 8) (size 9 to 14) (size 15 to 20)
#    0.000    0.615    1.538    4.154   15.077    1.846 
#    0.000    0.000    0.000    0.000    0.000    0.000 
#    0.000    0.000    0.000    0.000    0.000    0.000 
#
# Total GULP energy -145087.077212 kJ/mol
# GULP energy per Si atom -5580.272200 kJ/mol
# Density = 2.272133 g / cm^3
# Si number density = 22.773160 Si / 1000 Ang^3
#
#
#
# Elastic Constant Matrix: (Units=GPa)
#
#
# Indices 1 2 3 4 5 6 
#
# 1 137.6398 67.0561 13.5931 0.0000 0.0000 0.0000
# 2 67.0561 214.7938 37.5594 0.0000 0.0000 0.0000
# 3 13.5931 37.5594 132.0622 0.0000 0.0000 0.0000
# 4 0.0000 0.0000 0.0000 40.8746 0.0000 0.0000
# 5 0.0000 0.0000 0.0000 0.0000 6.3400 0.0000
# 6 0.0000 0.0000 0.0000 0.0000 0.0000 505.6860
#
#
#
# Elastic Compliance Matrix: (Units=1/GPa)
#
#
# Indices 1 2 3 4 5 6 
#
# 1 0.008571 -0.002653 -0.000128 0.000000 0.000000 0.000000
# 2 -0.002653 0.005721 -0.001354 0.000000 0.000000 0.000000
# 3 -0.000128 -0.001354 0.007970 0.000000 0.000000 0.000000
# 4 0.000000 0.000000 0.000000 0.024465 0.000000 0.000000
# 5 0.000000 0.000000 0.000000 0.000000 0.157730 0.000000
# 6 0.000000 0.000000 0.000000 0.000000 0.000000 0.001978
#
#
# Mechanical properties :
#
#
# Convention : Reuss Voigt Hill
#
# Bulk Modulus (GPa) = 71.46874 80.10143 75.78509
# Shear Modulus (GPa) = 22.79281 134.99927 78.89604
#
# Velocity S-wave (km/s) = 3.16707 7.70770 5.89233
# Velocity P-wave (km/s) = 6.69513 10.69867 8.92430
#
# Compressibility (1/GPa) = 0.01399213
#
# Stress axis : x y z
#
# Youngs Moduli (GPa) = 116.67791 174.80329 125.46458
#
# Poissons Ratio (x) = 0.46381 0.01600
# Poissons Ratio (y) = 0.30959 0.16987
# Poissons Ratio (z) = 0.01488 0.23667
#
# Static dielectric constant tensor:
#      x y z
#    x 1.841920 0.000000 0.000000 
#    y 0.000000 1.882650 0.000000 
#    z 0.000000 0.000000 1.844560 
# 
# From -- ./inp_files/30638.got.cif
#   From: 2010.05.17/outbox.cif.g08.bks.cpg/sg66_16_cif.got.tgz:30638.got - 2010.06.03 17:51:23.
