data_PCOD9499679
_publ_section_title
;
Structure prediction by ZEFSAII (Michael W. Deem and Ramdas Pophale) SiO2 
 PCOD9499679
Probable space group: C C C M
;
_chemical_formula_sum "Si O2"
_cell_formula_units_Z 80
_cell_length_a 11.810784
_cell_length_b 16.253886
_cell_length_c 21.443063
_cell_angle_alpha 90.000000
_cell_angle_beta 90.000000
_cell_angle_gamma 90.000000
_cell_volume 4116.449179
_symmetry_space_group_name_H-M "C C C M"
_symmetry_group_IT_number 66
_symmetry_cell_setting 'orthorhombic'
loop_
_space_group_symop_operation_xyz
x,y,z
-x,-y,z
x,-y,1/2-z
-x,y,1/2-z
-x,-y,-z
x,y,-z
-x,y,1/2+z
x,-y,1/2+z
1/2+x,1/2+y,z
1/2-x,1/2-y,z
1/2+x,1/2-y,1/2-z
1/2-x,1/2+y,1/2-z
1/2-x,1/2-y,-z
1/2+x,1/2+y,-z
1/2-x,1/2+y,1/2+z
1/2+x,1/2-y,1/2+z
loop_
_atom_site_type_symbol
_atom_site_label
_atom_site_fract_x
_atom_site_fract_y
_atom_site_fract_z
Si Si1 0.284300 0.862815 0.167978
Si Si2 0.708728 0.112809 0.500000
Si Si3 0.065163 0.220242 0.000000
Si Si4 0.436128 0.726157 0.128708
Si Si5 0.142863 0.300262 0.804880
Si Si6 0.373553 0.030507 0.877920
O O1 0.362628 0.809829 0.121126
O O2 0.154595 0.839981 0.153596
O O3 0.323494 0.826264 0.234746
O O4 0.311954 0.957929 0.159806
O O5 0.828052 0.159244 0.500000
O O6 0.614855 0.186301 0.500000
O O7 0.691704 0.056023 0.559998
O O8 0.993613 0.206632 0.937118
O O9 0.534237 0.744765 0.179225
O O10 0.250000 0.250000 0.831313
O O11 0.120200 0.386218 0.838465
O O12 0.500000 0.000000 0.892393
#
# Coordination Sequence:
#
# PCOD9499679 Si02
#       6
#    16   8   8  16  16  16
#     4  11  25  40  64 103 138 180 225 282 347 401
#     4  11  23  43  67 100 133 174 234 281 346 399
#     4  11  22  44  69  97 134 185 231 278 338 427
#     4  11  23  42  67 100 136 185 225 278 344 408
#     4  12  23  42  69  98 138 179 228 277 341 420
#     4  12  24  40  69 102 137 174 228 292 340 396
#
# _framework density 19.434225000000001
#
# number of rings (size 3 to 8) (size 9 to 14) (size 15 to 20)
#    0.000    0.600    6.000    2.700    0.000    4.000 
#    0.000    5.000    0.000    4.800    0.000    0.000 
#    0.000    0.000    0.000    0.000    0.000    0.000 
#
# Total GULP energy -223472.116074 kJ/mol
# GULP energy per Si atom -5586.802902 kJ/mol
# Density = 1.938999 g / cm^3
# Si number density = 19.434225 Si / 1000 Ang^3
#
#
#
# Elastic Constant Matrix: (Units=GPa)
#
#
# Indices 1 2 3 4 5 6 
#
# 1 144.5047 37.1338 50.7982 0.0000 0.0000 0.0000
# 2 37.1338 72.1288 13.1737 0.0000 0.0000 0.0000
# 3 50.7982 13.1737 124.3112 0.0000 0.0000 0.0000
# 4 0.0000 0.0000 0.0000 4.7816 0.0000 0.0000
# 5 0.0000 0.0000 0.0000 0.0000 30.9171 0.0000
# 6 0.0000 0.0000 0.0000 0.0000 0.0000 32.6893
#
#
#
# Elastic Compliance Matrix: (Units=1/GPa)
#
#
# Indices 1 2 3 4 5 6 
#
# 1 0.009133 -0.004100 -0.003298 0.000000 0.000000 0.000000
# 2 -0.004100 0.015978 -0.000018 0.000000 0.000000 0.000000
# 3 -0.003298 -0.000018 0.009394 0.000000 0.000000 0.000000
# 4 0.000000 0.000000 0.000000 0.209137 0.000000 0.000000
# 5 0.000000 0.000000 0.000000 0.000000 0.032345 0.000000
# 6 0.000000 0.000000 0.000000 0.000000 0.000000 0.030591
#
#
# Mechanical properties :
#
#
# Convention : Reuss Voigt Hill
#
# Bulk Modulus (GPa) = 50.82783 60.35065 55.58924
# Shear Modulus (GPa) = 15.24552 29.66685 22.45618
#
# Velocity S-wave (km/s) = 2.80387 3.91132 3.40295
# Velocity P-wave (km/s) = 6.05746 7.17768 6.64123
#
# Compressibility (1/GPa) = 0.01967426
#
# Stress axis : x y z
#
# Youngs Moduli (GPa) = 109.49452 62.58628 106.45375
#
# Poissons Ratio (x) = 0.25658 0.35104
# Poissons Ratio (y) = 0.44888 0.00192
# Poissons Ratio (z) = 0.36107 0.00113
#
# Static dielectric constant tensor:
#      x y z
#    x 1.690120 0.000000 0.000000 
#    y 0.000000 1.657530 0.000000 
#    z 0.000000 0.000000 1.719840 
# 
# From -- ./inp_files/56676.got.cif
#   From: 2010.05.17/outbox.cif.g08.bks.cpg/sg66_29_cif.got.tgz:56676.got - 2010.06.03 17:51:23.
