data_PCOD9499427
_publ_section_title
;
Structure prediction by ZEFSAII (Michael W. Deem and Ramdas Pophale) SiO2 
 PCOD9499427
Probable space group: C C C M
;
_chemical_formula_sum "Si O2"
_cell_formula_units_Z 48
_cell_length_a 11.147772
_cell_length_b 11.358137
_cell_length_c 13.500501
_cell_angle_alpha 90.000000
_cell_angle_beta 90.000000
_cell_angle_gamma 90.000000
_cell_volume 1709.405377
_symmetry_space_group_name_H-M "C C C M"
_symmetry_group_IT_number 66
_symmetry_cell_setting 'orthorhombic'
loop_
_space_group_symop_operation_xyz
x,y,z
-x,-y,z
x,-y,1/2-z
-x,y,1/2-z
-x,-y,-z
x,y,-z
-x,y,1/2+z
x,-y,1/2+z
1/2+x,1/2+y,z
1/2-x,1/2-y,z
1/2+x,1/2-y,1/2-z
1/2-x,1/2+y,1/2-z
1/2-x,1/2-y,-z
1/2+x,1/2+y,-z
1/2-x,1/2+y,1/2+z
1/2+x,1/2-y,1/2+z
loop_
_atom_site_type_symbol
_atom_site_label
_atom_site_fract_x
_atom_site_fract_y
_atom_site_fract_z
Si Si1 0.898622 0.178775 0.113143
Si Si2 0.672795 0.632762 0.161539
Si Si3 0.128188 0.459533 0.363631
O O1 0.872247 0.319063 0.124368
O O2 0.040365 0.149447 0.118317
O O3 0.850609 0.124970 0.218284
O O4 0.861282 0.151080 0.000000
O O5 0.750000 0.750000 0.148590
O O6 0.754846 0.534864 0.107979
O O7 0.122354 0.500000 0.250000
O O8 0.000000 0.500000 0.403904
#
# Coordination Sequence:
#
# PCOD9499427 Si02
#       3
#    16  16  16
#     4  11  25  43  70 111 153 206 267 322 391 473
#     4  11  21  44  74 105 159 208 257 328 397 459
#     4  11  20  40  73 107 146 202 260 314 393 465
#
# _framework density 28.079940000000001
#
# number of rings (size 3 to 8) (size 9 to 14) (size 15 to 20)
#    0.000    1.000    6.667    2.000    0.000    3.333 
#    0.000    3.333    0.000   11.000    0.000    0.000 
#    0.000    0.000    0.000    0.000    0.000    0.000 
#
# Total GULP energy -134265.116960 kJ/mol
# GULP energy per Si atom -5594.379873 kJ/mol
# Density = 2.801603 g / cm^3
# Si number density = 28.079940 Si / 1000 Ang^3
#
#
#
# Elastic Constant Matrix: (Units=GPa)
#
#
# Indices 1 2 3 4 5 6 
#
# 1 244.0270 124.7610 64.9442 0.0000 0.0000 0.0000
# 2 124.7610 207.0587 99.2423 0.0000 0.0000 0.0000
# 3 64.9442 99.2423 264.4288 0.0000 0.0000 0.0000
# 4 0.0000 0.0000 0.0000 28.4520 0.0000 0.0000
# 5 0.0000 0.0000 0.0000 0.0000 21.4262 0.0000
# 6 0.0000 0.0000 0.0000 0.0000 0.0000 63.0818
#
#
#
# Elastic Compliance Matrix: (Units=1/GPa)
#
#
# Indices 1 2 3 4 5 6 
#
# 1 0.005927 -0.003504 -0.000141 0.000000 0.000000 0.000000
# 2 -0.003504 0.007960 -0.002127 0.000000 0.000000 0.000000
# 3 -0.000141 -0.002127 0.004615 0.000000 0.000000 0.000000
# 4 0.000000 0.000000 0.000000 0.035147 0.000000 0.000000
# 5 0.000000 0.000000 0.000000 0.000000 0.046672 0.000000
# 6 0.000000 0.000000 0.000000 0.000000 0.000000 0.015852
#
#
# Mechanical properties :
#
#
# Convention : Reuss Voigt Hill
#
# Bulk Modulus (GPa) = 143.70419 143.71216 143.70818
# Shear Modulus (GPa) = 38.45139 51.02980 44.74059
#
# Velocity S-wave (km/s) = 3.70449 4.26761 3.99598
# Velocity P-wave (km/s) = 8.34180 8.69334 8.51938
#
# Compressibility (1/GPa) = 0.00695874
#
# Stress axis : x y z
#
# Youngs Moduli (GPa) = 168.73139 125.62734 216.70546
#
# Poissons Ratio (x) = 0.44015 0.03048
# Poissons Ratio (y) = 0.59116 0.46093
# Poissons Ratio (z) = 0.02373 0.26721
#
# Static dielectric constant tensor:
#      x y z
#    x 2.266460 0.000000 0.000000 
#    y 0.000000 2.211580 0.000000 
#    z 0.000000 0.000000 2.146630 
# 
# From -- ./inp_files/37599.got.cif
#   From: 2010.05.17/outbox.cif.g08.bks.cpg/sg66_19_cif.got.tgz:37599.got - 2010.06.03 17:51:23.
