data_PCOD9499883
_publ_section_title
;
Structure prediction by ZEFSAII (Michael W. Deem and Ramdas Pophale) SiO2 
 PCOD9499883
Probable space group: C C C M
;
_chemical_formula_sum "Si O2"
_cell_formula_units_Z 80
_cell_length_a 11.005721
_cell_length_b 10.298419
_cell_length_c 31.087019
_cell_angle_alpha 90.000000
_cell_angle_beta 90.000000
_cell_angle_gamma 90.000000
_cell_volume 3523.450180
_symmetry_space_group_name_H-M "C C C M"
_symmetry_group_IT_number 66
_symmetry_cell_setting 'orthorhombic'
loop_
_space_group_symop_operation_xyz
x,y,z
-x,-y,z
x,-y,1/2-z
-x,y,1/2-z
-x,-y,-z
x,y,-z
-x,y,1/2+z
x,-y,1/2+z
1/2+x,1/2+y,z
1/2-x,1/2-y,z
1/2+x,1/2-y,1/2-z
1/2-x,1/2+y,1/2-z
1/2-x,1/2-y,-z
1/2+x,1/2+y,-z
1/2-x,1/2+y,1/2+z
1/2+x,1/2-y,1/2+z
loop_
_atom_site_type_symbol
_atom_site_label
_atom_site_fract_x
_atom_site_fract_y
_atom_site_fract_z
Si Si1 0.320964 0.057105 0.703089
Si Si2 0.305698 0.962400 0.111181
Si Si3 0.553888 0.316114 0.203785
Si Si4 0.440113 0.681484 0.110876
Si Si5 0.382426 0.813085 0.451548
O O1 0.324966 0.976942 0.658896
O O2 0.428123 0.161956 0.703834
O O3 0.188889 0.125473 0.700186
O O4 0.322799 0.000000 0.750000
O O5 0.370648 0.821400 0.114111
O O6 0.164446 0.925736 0.102725
O O7 0.364576 0.055911 0.076193
O O8 0.500000 0.354820 0.250000
O O9 0.496667 0.347029 0.157255
O O10 0.532948 0.709879 0.072979
O O11 0.426407 0.839174 0.500000
O O12 0.250000 0.750000 0.453672
#
# Coordination Sequence:
#
# PCOD9499883 Si02
#       5
#    16  16  16  16  16
#     4   9  19  34  52  79 113 147 185 228 277 337
#     4   9  20  40  62  85 116 153 197 247 295 352
#     4   9  19  34  52  79 113 147 185 228 277 337
#     4   9  20  40  62  85 116 153 197 247 295 352
#     4  11  25  41  59  87 119 153 195 245 305 364
#
# _framework density 22.705019
#
# number of rings (size 3 to 8) (size 9 to 14) (size 15 to 20)
#    0.000    2.600    0.000    3.000    2.800    5.600 
#    0.000    8.000    0.000    0.000    0.000    0.000 
#    0.000    0.000    0.000    0.000    0.000    0.000 
#
# Total GULP energy -223259.206398 kJ/mol
# GULP energy per Si atom -5581.480160 kJ/mol
# Density = 2.265334 g / cm^3
# Si number density = 22.705019 Si / 1000 Ang^3
#
#
#
# Elastic Constant Matrix: (Units=GPa)
#
#
# Indices 1 2 3 4 5 6 
#
# 1 77.0973 7.2915 59.9693 0.0000 0.0000 0.0000
# 2 7.2915 71.3890 55.3745 0.0000 0.0000 0.0000
# 3 59.9693 55.3745 233.8436 0.0000 0.0000 0.0000
# 4 0.0000 0.0000 0.0000 -127.0279 0.0000 0.0000
# 5 0.0000 0.0000 0.0000 0.0000 58.2052 0.0000
# 6 0.0000 0.0000 0.0000 0.0000 0.0000 20.4779
#
#
#
# Elastic Compliance Matrix: (Units=1/GPa)
#
#
# Indices 1 2 3 4 5 6 
#
# 1 0.016421 0.001947 -0.004672 0.000000 0.000000 0.000000
# 2 0.001947 0.017390 -0.004617 0.000000 0.000000 0.000000
# 3 -0.004672 -0.004617 0.006568 0.000000 0.000000 0.000000
# 4 0.000000 0.000000 0.000000 -0.007872 0.000000 0.000000
# 5 0.000000 0.000000 0.000000 0.000000 0.017181 0.000000
# 6 0.000000 0.000000 0.000000 0.000000 0.000000 0.048833
#
#
# Mechanical properties :
#
#
# Convention : Reuss Voigt Hill
#
# Bulk Modulus (GPa) = 38.91986 69.73338 54.32662
# Shear Modulus (GPa) = 41.06089 7.64401 24.35245
#
# Velocity S-wave (km/s) = 4.25720 1.83684 3.27855
# Velocity P-wave (km/s) = 6.42991 5.93953 6.18958
#
# Compressibility (1/GPa) = 0.02569382
#
# Stress axis : x y z
#
# Youngs Moduli (GPa) = 60.89897 57.50273 152.25527
#
# Poissons Ratio (x) = -0.11195 0.71135
# Poissons Ratio (y) = -0.11856 0.70302
# Poissons Ratio (z) = 0.28453 0.26551
#
# Static dielectric constant tensor:
#      x y z
#    x 1.869500 0.000000 0.000000 
#    y 0.000000 1.890430 0.000000 
#    z 0.000000 0.000000 1.874130 
# 
# From -- ./inp_files/68758.got.cif
#   From: 2010.05.17/outbox.cif.g08.bks.cpg/sg66_35_cif.got.tgz:68758.got - 2010.06.03 17:51:23.
