data_PCOD9499849
_publ_section_title
;
Structure prediction by ZEFSAII (Michael W. Deem and Ramdas Pophale) SiO2 
 PCOD9499849
Probable space group: C C C M
;
_chemical_formula_sum "Si O2"
_cell_formula_units_Z 64
_cell_length_a 28.484914
_cell_length_b 11.571155
_cell_length_c 10.314032
_cell_angle_alpha 90.000000
_cell_angle_beta 90.000000
_cell_angle_gamma 90.000000
_cell_volume 3399.539551
_symmetry_space_group_name_H-M "C C C M"
_symmetry_group_IT_number 66
_symmetry_cell_setting 'orthorhombic'
loop_
_space_group_symop_operation_xyz
x,y,z
-x,-y,z
x,-y,1/2-z
-x,y,1/2-z
-x,-y,-z
x,y,-z
-x,y,1/2+z
x,-y,1/2+z
1/2+x,1/2+y,z
1/2-x,1/2-y,z
1/2+x,1/2-y,1/2-z
1/2-x,1/2+y,1/2-z
1/2-x,1/2-y,-z
1/2+x,1/2+y,-z
1/2-x,1/2+y,1/2+z
1/2+x,1/2-y,1/2+z
loop_
_atom_site_type_symbol
_atom_site_label
_atom_site_fract_x
_atom_site_fract_y
_atom_site_fract_z
Si Si1 0.393801 0.862291 0.756158
Si Si2 0.694823 0.730239 0.655306
Si Si3 0.441926 0.240124 0.000000
Si Si4 0.916661 0.998100 0.000000
Si Si5 0.949963 0.740238 0.500000
Si Si6 0.350632 0.500000 0.250000
O O1 0.340016 0.826084 0.785388
O O2 0.413957 0.805189 0.625378
O O3 0.398440 0.000000 0.750000
O O4 0.423969 0.809646 0.874005
O O5 0.685459 0.721765 0.500000
O O6 0.750000 0.750000 0.672298
O O7 0.680423 0.612410 0.726027
O O8 0.445178 0.379319 0.000000
O O9 0.495998 0.201208 0.000000
O O10 0.883876 0.991960 0.874230
O O11 0.943529 0.120345 0.000000
#
# Coordination Sequence:
#
# PCOD9499849 Si02
#       6
#    16  16   8   8   8   8
#     4  12  25  44  64  96 134 171 223 270 319 390
#     4  11  24  44  69  97 131 176 214 265 337 392
#     4  12  26  40  69  99 127 171 227 271 321 384
#     4  12  21  42  68  96 134 162 220 272 329 380
#     4  12  24  46  65  93 135 179 213 267 335 388
#     4  12  20  42  69  96 132 168 209 280 326 378
#
# _framework density 18.826077999999999
#
# number of rings (size 3 to 8) (size 9 to 14) (size 15 to 20)
#    0.000    0.250    7.500    1.875    1.750    3.000 
#    0.000    6.250    0.000    0.000    0.000    0.000 
#    0.000    0.000    0.000    0.000    0.000    0.000 
#
# Total GULP energy -178907.930145 kJ/mol
# GULP energy per Si atom -5590.872817 kJ/mol
# Density = 1.878323 g / cm^3
# Si number density = 18.826078 Si / 1000 Ang^3
#
#
#
# Elastic Constant Matrix: (Units=GPa)
#
#
# Indices 1 2 3 4 5 6 
#
# 1 138.9186 39.7564 66.5149 0.0000 0.0000 0.0000
# 2 39.7564 151.9469 44.1536 0.0000 0.0000 0.0000
# 3 66.5149 44.1536 162.0394 0.0000 0.0000 0.0000
# 4 0.0000 0.0000 0.0000 24.7827 0.0000 0.0000
# 5 0.0000 0.0000 0.0000 0.0000 3.4065 0.0000
# 6 0.0000 0.0000 0.0000 0.0000 0.0000 -59.1786
#
#
#
# Elastic Compliance Matrix: (Units=1/GPa)
#
#
# Indices 1 2 3 4 5 6 
#
# 1 0.009236 -0.001428 -0.003402 0.000000 0.000000 0.000000
# 2 -0.001428 0.007368 -0.001422 0.000000 0.000000 0.000000
# 3 -0.003402 -0.001422 0.007955 0.000000 0.000000 0.000000
# 4 0.000000 0.000000 0.000000 0.040351 0.000000 0.000000
# 5 0.000000 0.000000 0.000000 0.000000 0.293558 0.000000
# 6 0.000000 0.000000 0.000000 0.000000 0.000000 -0.016898
#
#
# Mechanical properties :
#
#
# Convention : Reuss Voigt Hill
#
# Bulk Modulus (GPa) = 82.94659 83.75052 83.34856
# Shear Modulus (GPa) = 13.96290 13.96745 13.96518
#
# Velocity S-wave (km/s) = 2.72633 2.72678 2.72655
# Velocity P-wave (km/s) = 7.35293 7.38219 7.36758
#
# Compressibility (1/GPa) = 0.01205595
#
# Stress axis : x y z
#
# Youngs Moduli (GPa) = 108.27075 135.72313 125.70347
#
# Poissons Ratio (x) = 0.19381 0.42767
# Poissons Ratio (y) = 0.15461 0.17869
# Poissons Ratio (z) = 0.36836 0.19293
#
# Static dielectric constant tensor:
#      x y z
#    x 1.637060 0.000000 0.000000 
#    y 0.000000 1.652180 0.000000 
#    z 0.000000 0.000000 1.628740 
# 
# From -- ./inp_files/11226.got.cif
#   From: 2010.05.17/outbox.cif.g08.bks.cpg/sg66_6_cif.got.tgz:11226.got - 2010.06.03 17:51:23.
