data_PCOD9499480
_publ_section_title
;
Structure prediction by ZEFSAII (Michael W. Deem and Ramdas Pophale) SiO2 
 PCOD9499480
Probable space group: C C C M
;
_chemical_formula_sum "Si O2"
_cell_formula_units_Z 52
_cell_length_a 18.188993
_cell_length_b 7.047007
_cell_length_c 14.991333
_cell_angle_alpha 90.000000
_cell_angle_beta 90.000000
_cell_angle_gamma 90.000000
_cell_volume 1921.558497
_symmetry_space_group_name_H-M "C C C M"
_symmetry_group_IT_number 66
_symmetry_cell_setting 'orthorhombic'
loop_
_space_group_symop_operation_xyz
x,y,z
-x,-y,z
x,-y,1/2-z
-x,y,1/2-z
-x,-y,-z
x,y,-z
-x,y,1/2+z
x,-y,1/2+z
1/2+x,1/2+y,z
1/2-x,1/2-y,z
1/2+x,1/2-y,1/2-z
1/2-x,1/2+y,1/2-z
1/2-x,1/2-y,-z
1/2+x,1/2+y,-z
1/2-x,1/2+y,1/2+z
1/2+x,1/2-y,1/2+z
loop_
_atom_site_type_symbol
_atom_site_label
_atom_site_fract_x
_atom_site_fract_y
_atom_site_fract_z
Si Si1 0.078953 0.557151 0.105808
Si Si2 0.604053 0.498754 0.148301
Si Si3 0.000000 0.000000 0.500000
Si Si4 0.236254 0.474583 0.606926
O O1 0.094452 0.782905 0.112536
O O2 0.155520 0.472356 0.142571
O O3 0.000000 0.500000 0.144906
O O4 0.076659 0.519945 0.000000
O O5 0.581174 0.500000 0.250000
O O6 0.688792 0.563246 0.142927
O O7 0.551518 0.601017 0.078346
O O8 0.236391 0.503523 0.500000
O O9 0.250000 0.250000 0.622734
#
# Coordination Sequence:
#
# PCOD9499480 Si02
#       4
#    16  16   4  16
#     4   9  17  35  71  99 131 169 215 276 336 384
#     4  11  21  36  66  95 128 173 220 268 325 389
#     4  12  22  40  60  88 126 164 232 276 306 396
#     4   8  14  31  61  92 123 164 206 260 327 390
#
# _framework density 27.061366
#
# number of rings (size 3 to 8) (size 9 to 14) (size 15 to 20)
#    0.000    2.462    3.077    2.308    0.000    0.000 
#    0.000    0.000   40.615    3.692    0.000    0.000 
#    0.000    0.000    0.000    0.000    0.000    0.000 
#
# Total GULP energy -144926.352311 kJ/mol
# GULP energy per Si atom -5574.090474 kJ/mol
# Density = 2.699977 g / cm^3
# Si number density = 27.061366 Si / 1000 Ang^3
#
#
#
# Elastic Constant Matrix: (Units=GPa)
#
#
# Indices 1 2 3 4 5 6 
#
# 1 335.0980 22.8945 69.6740 0.0000 0.0000 0.0000
# 2 22.8945 107.6855 -19.8407 0.0000 0.0000 0.0000
# 3 69.6740 -19.8407 160.9005 0.0000 0.0000 0.0000
# 4 0.0000 0.0000 0.0000 5.1478 0.0000 0.0000
# 5 0.0000 0.0000 0.0000 0.0000 -27.0498 0.0000
# 6 0.0000 0.0000 0.0000 0.0000 0.0000 32.4166
#
#
#
# Elastic Compliance Matrix: (Units=1/GPa)
#
#
# Indices 1 2 3 4 5 6 
#
# 1 0.003384 -0.001012 -0.001590 0.000000 0.000000 0.000000
# 2 -0.001012 0.009805 0.001647 0.000000 0.000000 0.000000
# 3 -0.001590 0.001647 0.007107 0.000000 0.000000 0.000000
# 4 0.000000 0.000000 0.000000 0.194260 0.000000 0.000000
# 5 0.000000 0.000000 0.000000 0.000000 -0.036969 0.000000
# 6 0.000000 0.000000 0.000000 0.000000 0.000000 0.030848
#
#
# Mechanical properties :
#
#
# Convention : Reuss Voigt Hill
#
# Bulk Modulus (GPa) = 54.39058 83.23776 68.81417
# Shear Modulus (GPa) = 23.09748 37.49999 30.29874
#
# Velocity S-wave (km/s) = 2.92468 3.72659 3.34972
# Velocity P-wave (km/s) = 5.61673 7.02441 6.35963
#
# Compressibility (1/GPa) = 0.01838554
#
# Stress axis : x y z
#
# Youngs Moduli (GPa) = 295.50718 101.98779 140.71084
#
# Poissons Ratio (x) = 0.10326 0.22376
# Poissons Ratio (y) = 0.29919 -0.23182
# Poissons Ratio (z) = 0.46992 -0.16802
#
# Static dielectric constant tensor:
#      x y z
#    x 2.069280 0.000000 0.000000 
#    y 0.000000 2.360180 0.000000 
#    z 0.000000 0.000000 1.897960 
# 
# From -- ./inp_files/25544.got.cif
#   From: 2010.05.17/outbox.cif.g08.bks.cpg/sg66_13_cif.got.tgz:25544.got - 2010.06.03 17:51:23.
