data_PCOD9499922
_publ_section_title
;
Structure prediction by ZEFSAII (Michael W. Deem and Ramdas Pophale) SiO2 
 PCOD9499922
Probable space group: C C C M
;
_chemical_formula_sum "Si O2"
_cell_formula_units_Z 68
_cell_length_a 22.091470
_cell_length_b 7.993910
_cell_length_c 17.052223
_cell_angle_alpha 90.000000
_cell_angle_beta 90.000000
_cell_angle_gamma 90.000000
_cell_volume 3011.375227
_symmetry_space_group_name_H-M "C C C M"
_symmetry_group_IT_number 66
_symmetry_cell_setting 'orthorhombic'
loop_
_space_group_symop_operation_xyz
x,y,z
-x,-y,z
x,-y,1/2-z
-x,y,1/2-z
-x,-y,-z
x,y,-z
-x,y,1/2+z
x,-y,1/2+z
1/2+x,1/2+y,z
1/2-x,1/2-y,z
1/2+x,1/2-y,1/2-z
1/2-x,1/2+y,1/2-z
1/2-x,1/2-y,-z
1/2+x,1/2+y,-z
1/2-x,1/2+y,1/2+z
1/2+x,1/2-y,1/2+z
loop_
_atom_site_type_symbol
_atom_site_label
_atom_site_fract_x
_atom_site_fract_y
_atom_site_fract_z
Si Si1 0.014194 0.304332 0.341640
Si Si2 0.250000 0.250000 0.500000
Si Si3 0.895667 0.802841 0.910762
Si Si4 0.689523 0.819684 0.212028
Si Si5 0.852433 0.174237 0.129475
O O1 0.082598 0.265694 0.366047
O O2 0.000000 0.500000 0.352668
O O3 0.000000 0.264263 0.250000
O O4 0.966676 0.199695 0.392748
O O5 0.196507 0.243469 0.431432
O O6 0.864258 0.677132 0.850007
O O7 0.866874 0.983065 0.892702
O O8 0.883670 0.756231 0.000000
O O9 0.750000 0.750000 0.172141
O O10 0.673798 0.695880 0.283231
O O11 0.698098 0.000000 0.250000
#
# Coordination Sequence:
#
# PCOD9499922 Si02
#       5
#    16   4  16  16  16
#     4  11  25  48  77 112 155 204 257 319 390 466
#     4  12  28  48  76 118 160 204 258 328 382 460
#     4  12  27  47  74 116 150 193 259 324 385 458
#     4  12  26  48  74 105 148 207 259 309 386 469
#     4  12  25  48  78 108 154 204 253 315 390 458
#
# _framework density 22.581043000000001
#
# number of rings (size 3 to 8) (size 9 to 14) (size 15 to 20)
#    0.000    0.235    4.706    4.235    1.647    2.824 
#    6.353    0.000    0.000    0.000    0.000    0.000 
#    0.000    0.000    0.000    0.000    0.000    0.000 
#
# Total GULP energy -189949.765378 kJ/mol
# GULP energy per Si atom -5586.757805 kJ/mol
# Density = 2.252965 g / cm^3
# Si number density = 22.581043 Si / 1000 Ang^3
#
#
#
# Elastic Constant Matrix: (Units=GPa)
#
#
# Indices 1 2 3 4 5 6 
#
# 1 189.0595 32.9565 49.6225 0.0000 0.0000 0.0000
# 2 32.9565 59.7901 24.3180 0.0000 0.0000 0.0000
# 3 49.6225 24.3180 140.3516 0.0000 0.0000 0.0000
# 4 0.0000 0.0000 0.0000 -3.5354 0.0000 0.0000
# 5 0.0000 0.0000 0.0000 0.0000 42.3041 0.0000
# 6 0.0000 0.0000 0.0000 0.0000 0.0000 29.8835
#
#
#
# Elastic Compliance Matrix: (Units=1/GPa)
#
#
# Indices 1 2 3 4 5 6 
#
# 1 0.006217 -0.002725 -0.001726 0.000000 0.000000 0.000000
# 2 -0.002725 0.019188 -0.002361 0.000000 0.000000 0.000000
# 3 -0.001726 -0.002361 0.008144 0.000000 0.000000 0.000000
# 4 0.000000 0.000000 0.000000 -0.282854 0.000000 0.000000
# 5 0.000000 0.000000 0.000000 0.000000 0.023638 0.000000
# 6 0.000000 0.000000 0.000000 0.000000 0.000000 0.033463
#
#
# Mechanical properties :
#
#
# Convention : Reuss Voigt Hill
#
# Bulk Modulus (GPa) = 50.18836 66.99945 58.59390
# Shear Modulus (GPa) = -29.08034 32.55071 1.73518
#
# Velocity S-wave (km/s) = -3.59252 3.80084 0.87755
# Velocity P-wave (km/s) = 2.25076 6.99978 5.19917
#
# Compressibility (1/GPa) = 0.01992494
#
# Stress axis : x y z
#
# Youngs Moduli (GPa) = 160.83882 52.11720 122.78495
#
# Poissons Ratio (x) = 0.14202 0.21194
# Poissons Ratio (y) = 0.43829 0.28990
# Poissons Ratio (z) = 0.27762 0.12305
#
# Static dielectric constant tensor:
#      x y z
#    x 1.915140 0.000000 0.000000 
#    y 0.000000 1.856370 0.000000 
#    z 0.000000 0.000000 1.795060 
# 
# From -- ./inp_files/42524.got.cif
#   From: 2010.05.17/outbox.cif.g08.bks.cpg/sg66_22_cif.got.tgz:42524.got - 2010.06.03 17:51:23.
