data_PCOD9499196
_publ_section_title
;
Structure prediction by ZEFSAII (Michael W. Deem and Ramdas Pophale) SiO2 
 PCOD9499196
Probable space group: C C C M
;
_chemical_formula_sum "Si O2"
_cell_formula_units_Z 64
_cell_length_a 12.462463
_cell_length_b 25.908498
_cell_length_c 9.278403
_cell_angle_alpha 90.000000
_cell_angle_beta 90.000000
_cell_angle_gamma 90.000000
_cell_volume 2995.845069
_symmetry_space_group_name_H-M "C C C M"
_symmetry_group_IT_number 66
_symmetry_cell_setting 'orthorhombic'
loop_
_space_group_symop_operation_xyz
x,y,z
-x,-y,z
x,-y,1/2-z
-x,y,1/2-z
-x,-y,-z
x,y,-z
-x,y,1/2+z
x,-y,1/2+z
1/2+x,1/2+y,z
1/2-x,1/2-y,z
1/2+x,1/2-y,1/2-z
1/2-x,1/2+y,1/2-z
1/2-x,1/2-y,-z
1/2+x,1/2+y,-z
1/2-x,1/2+y,1/2+z
1/2+x,1/2-y,1/2+z
loop_
_atom_site_type_symbol
_atom_site_label
_atom_site_fract_x
_atom_site_fract_y
_atom_site_fract_z
Si Si1 0.603911 0.661775 0.000000
Si Si2 0.551101 0.774057 0.000000
Si Si3 0.724362 0.193594 0.262843
Si Si4 0.632674 0.146912 0.000000
Si Si5 0.094201 0.956697 0.500000
Si Si6 0.398038 0.037101 0.500000
Si Si7 0.742857 0.500000 0.250000
O O1 0.530043 0.712730 0.000000
O O2 0.681273 0.672337 0.136343
O O3 0.559370 0.603667 0.000000
O O4 0.622659 0.792923 0.135319
O O5 0.441773 0.803659 0.000000
O O6 0.750000 0.250000 0.198707
O O7 0.701583 0.151744 0.142877
O O8 0.562808 0.095725 0.000000
O O9 0.166776 0.966771 0.357028
O O10 0.000000 0.000000 0.500000
O O11 0.500000 0.000000 0.500000
O O12 0.322403 0.028778 0.361012
#
# Coordination Sequence:
#
# PCOD9499196 Si02
#       7
#     8   8  16   8   8   8   8
#     4   9  19  40  62  79 114 159 195 234 295 362
#     4   9  20  35  55  85 117 153 187 225 291 365
#     4   9  19  36  57  83 115 153 191 234 294 355
#     4  12  21  34  58  90 116 143 192 249 291 347
#     4  11  22  42  68  92 120 162 212 261 308 360
#     4  11  25  41  63  92 125 165 207 249 310 374
#     4  10  24  44  62  90 124 160 210 262 308 358
#
# _framework density 21.362919999999999
#
# number of rings (size 3 to 8) (size 9 to 14) (size 15 to 20)
#    0.000    2.000    0.000    4.875    0.000    8.000 
#    0.000   15.000    0.000    0.000    0.000    0.000 
#    0.000    0.000    0.000    0.000    0.000    0.000 
#
# Total GULP energy -178629.700649 kJ/mol
# GULP energy per Si atom -5582.178145 kJ/mol
# Density = 2.131430 g / cm^3
# Si number density = 21.362920 Si / 1000 Ang^3
#
#
#
# Elastic Constant Matrix: (Units=GPa)
#
#
# Indices 1 2 3 4 5 6 
#
# 1 65.8760 47.4776 21.0685 0.0000 0.0000 0.0000
# 2 47.4776 174.8801 48.3479 0.0000 0.0000 0.0000
# 3 21.0685 48.3479 110.3028 0.0000 0.0000 0.0000
# 4 0.0000 0.0000 0.0000 -22.1453 0.0000 0.0000
# 5 0.0000 0.0000 0.0000 0.0000 9.4960 0.0000
# 6 0.0000 0.0000 0.0000 0.0000 0.0000 31.7308
#
#
#
# Elastic Compliance Matrix: (Units=1/GPa)
#
#
# Indices 1 2 3 4 5 6 
#
# 1 0.019107 -0.004755 -0.001566 0.000000 0.000000 0.000000
# 2 -0.004755 0.007690 -0.002462 0.000000 0.000000 0.000000
# 3 -0.001566 -0.002462 0.010444 0.000000 0.000000 0.000000
# 4 0.000000 0.000000 0.000000 -0.045156 0.000000 0.000000
# 5 0.000000 0.000000 0.000000 0.000000 0.105307 0.000000
# 6 0.000000 0.000000 0.000000 0.000000 0.000000 0.031515
#
#
# Mechanical properties :
#
#
# Convention : Reuss Voigt Hill
#
# Bulk Modulus (GPa) = 50.82255 64.98299 57.90277
# Shear Modulus (GPa) = 32.67305 19.42731 26.05018
#
# Velocity S-wave (km/s) = 3.91503 3.01889 3.49579
# Velocity P-wave (km/s) = 6.65420 6.52964 6.59221
#
# Compressibility (1/GPa) = 0.01967631
#
# Stress axis : x y z
#
# Youngs Moduli (GPa) = 52.33564 130.04272 95.74579
#
# Poissons Ratio (x) = 0.61830 0.14990
# Poissons Ratio (y) = 0.24883 0.23577
# Poissons Ratio (z) = 0.08194 0.32022
#
# Static dielectric constant tensor:
#      x y z
#    x 1.749800 0.000000 0.000000 
#    y 0.000000 1.759900 0.000000 
#    z 0.000000 0.000000 1.753620 
# 
# From -- ./inp_files/5157.got.cif
#   From: 2010.05.17/outbox.cif.g08.bks.cpg/sg66_3_cif.got.tgz:5157.got - 2010.06.03 17:51:23.
