data_PCOD9499476
_publ_section_title
;
Structure prediction by ZEFSAII (Michael W. Deem and Ramdas Pophale) SiO2 
 PCOD9499476
Probable space group: C C C M
;
_chemical_formula_sum "Si O2"
_cell_formula_units_Z 80
_cell_length_a 15.817575
_cell_length_b 29.383935
_cell_length_c 8.632512
_cell_angle_alpha 90.000000
_cell_angle_beta 90.000000
_cell_angle_gamma 90.000000
_cell_volume 4012.241334
_symmetry_space_group_name_H-M "C C C M"
_symmetry_group_IT_number 66
_symmetry_cell_setting 'orthorhombic'
loop_
_space_group_symop_operation_xyz
x,y,z
-x,-y,z
x,-y,1/2-z
-x,y,1/2-z
-x,-y,-z
x,y,-z
-x,y,1/2+z
x,-y,1/2+z
1/2+x,1/2+y,z
1/2-x,1/2-y,z
1/2+x,1/2-y,1/2-z
1/2-x,1/2+y,1/2-z
1/2-x,1/2-y,-z
1/2+x,1/2+y,-z
1/2-x,1/2+y,1/2+z
1/2+x,1/2-y,1/2+z
loop_
_atom_site_type_symbol
_atom_site_label
_atom_site_fract_x
_atom_site_fract_y
_atom_site_fract_z
Si Si1 0.655870 0.297986 0.185210
Si Si2 0.411217 0.892182 0.184754
Si Si3 0.412049 0.609163 0.685397
Si Si4 0.254007 0.949119 0.314066
Si Si5 0.347207 0.798248 0.314514
O O1 0.603502 0.341335 0.240561
O O2 0.621597 0.250033 0.248810
O O3 0.750241 0.303046 0.255974
O O4 0.661544 0.296441 0.000000
O O5 0.500000 0.909968 0.250000
O O6 0.333245 0.922361 0.243150
O O7 0.397042 0.841389 0.250346
O O8 0.412704 0.890972 0.000000
O O9 0.500000 0.590345 0.750000
O O10 0.415790 0.613458 0.500000
O O11 0.331996 0.577794 0.725819
O O12 0.262004 0.949445 0.500000
O O13 0.250989 0.000000 0.250000
O O14 0.348264 0.797868 0.500000
#
# Coordination Sequence:
#
# PCOD9499476 Si02
#       5
#    16  16  16  16  16
#     4  11  21  36  61  93 129 173 220 263 317 377
#     4  12  25  43  68  98 132 170 216 266 322 385
#     4  11  24  42  66  96 132 171 216 267 322 382
#     4  11  25  46  71  97 129 167 212 267 328 387
#     4  11  21  37  61  92 131 173 217 263 317 377
#
# _framework density 19.938980999999998
#
# number of rings (size 3 to 8) (size 9 to 14) (size 15 to 20)
#    0.000    0.800    2.000    7.800    0.000    4.000 
#    0.000    8.000    0.000    0.000    0.000    0.000 
#    0.000    0.000    0.000    0.000    0.000    0.000 
#
# Total GULP energy -223931.823181 kJ/mol
# GULP energy per Si atom -5598.295580 kJ/mol
# Density = 1.989360 g / cm^3
# Si number density = 19.938981 Si / 1000 Ang^3
#
#
#
# Elastic Constant Matrix: (Units=GPa)
#
#
# Indices 1 2 3 4 5 6 
#
# 1 149.9153 74.2029 76.5279 0.0000 0.0000 0.0000
# 2 74.2029 136.0623 69.4854 0.0000 0.0000 0.0000
# 3 76.5279 69.4854 169.6664 0.0000 0.0000 0.0000
# 4 0.0000 0.0000 0.0000 50.9057 0.0000 0.0000
# 5 0.0000 0.0000 0.0000 0.0000 35.1072 0.0000
# 6 0.0000 0.0000 0.0000 0.0000 0.0000 -11.1900
#
#
#
# Elastic Compliance Matrix: (Units=1/GPa)
#
#
# Indices 1 2 3 4 5 6 
#
# 1 0.010170 -0.004051 -0.002928 0.000000 0.000000 0.000000
# 2 -0.004051 0.010907 -0.002640 0.000000 0.000000 0.000000
# 3 -0.002928 -0.002640 0.008296 0.000000 0.000000 0.000000
# 4 0.000000 0.000000 0.000000 0.019644 0.000000 0.000000
# 5 0.000000 0.000000 0.000000 0.000000 0.028484 0.000000
# 6 0.000000 0.000000 0.000000 0.000000 0.000000 -0.089366
#
#
# Mechanical properties :
#
#
# Convention : Reuss Voigt Hill
#
# Bulk Modulus (GPa) = 98.66665 99.56405 99.11535
# Shear Modulus (GPa) = 465.03404 30.65977 247.84691
#
# Velocity S-wave (km/s) = 15.28839 3.92558 11.16121
# Velocity P-wave (km/s) = 19.00627 8.40177 14.69401
#
# Compressibility (1/GPa) = 0.01013514
#
# Stress axis : x y z
#
# Youngs Moduli (GPa) = 98.32477 91.68531 120.54411
#
# Poissons Ratio (x) = 0.37143 0.35298
# Poissons Ratio (y) = 0.39832 0.31819
# Poissons Ratio (z) = 0.28792 0.24201
#
# Static dielectric constant tensor:
#      x y z
#    x 1.734880 0.000000 0.000000 
#    y 0.000000 1.687220 0.000000 
#    z 0.000000 0.000000 1.659900 
# 
# From -- ./inp_files/6691.got.cif
#   From: 2010.05.17/outbox.cif.g08.bks.cpg/sg66_4_cif.got.tgz:6691.got - 2010.06.03 17:51:23.
