data_PCOD9499350
_publ_section_title
;
Structure prediction by ZEFSAII (Michael W. Deem and Ramdas Pophale) SiO2 
 PCOD9499350
Probable space group: C C C M
;
_chemical_formula_sum "Si O2"
_cell_formula_units_Z 68
_cell_length_a 27.731658
_cell_length_b 6.769221
_cell_length_c 17.861458
_cell_angle_alpha 90.000000
_cell_angle_beta 90.000000
_cell_angle_gamma 90.000000
_cell_volume 3352.983648
_symmetry_space_group_name_H-M "C C C M"
_symmetry_group_IT_number 66
_symmetry_cell_setting 'orthorhombic'
loop_
_space_group_symop_operation_xyz
x,y,z
-x,-y,z
x,-y,1/2-z
-x,y,1/2-z
-x,-y,-z
x,y,-z
-x,y,1/2+z
x,-y,1/2+z
1/2+x,1/2+y,z
1/2-x,1/2-y,z
1/2+x,1/2-y,1/2-z
1/2-x,1/2+y,1/2-z
1/2-x,1/2-y,-z
1/2+x,1/2+y,-z
1/2-x,1/2+y,1/2+z
1/2+x,1/2-y,1/2+z
loop_
_atom_site_type_symbol
_atom_site_label
_atom_site_fract_x
_atom_site_fract_y
_atom_site_fract_z
Si Si1 0.805427 0.806015 0.627317
Si Si2 0.647965 0.037667 0.000000
Si Si3 0.199399 0.864598 0.500000
Si Si4 0.455702 0.342221 0.154225
Si Si5 0.451536 0.873964 0.500000
Si Si6 0.131614 0.000000 0.750000
Si Si7 0.500000 0.000000 0.750000
O O1 0.750000 0.750000 0.642726
O O2 0.829845 0.641127 0.573679
O O3 0.804654 0.998588 0.573305
O O4 0.834546 0.849805 0.703384
O O5 0.660480 0.807152 0.000000
O O6 0.590603 0.037625 0.000000
O O7 0.250000 0.750000 0.500000
O O8 0.500000 0.500000 0.161141
O O9 0.405778 0.419717 0.188005
O O10 0.468935 0.145832 0.199801
O O11 0.449458 0.269506 0.070587
O O12 0.500000 0.000000 0.500000
#
# Coordination Sequence:
#
# PCOD9499350 Si02
#       7
#    16   8   8  16   8   8   4
#     4  11  25  46  71 103 143 187 239 299 353 425
#     4  11  24  46  75 103 140 182 237 298 360 424
#     4  11  19  45  77 100 134 185 240 291 361 418
#     4  12  26  50  74 105 147 191 234 299 359 434
#     4  12  28  44  75 109 137 186 241 294 351 442
#     4  12  27  46  69 104 148 189 235 296 362 418
#     4  12  22  46  78  98 144 192 238 284 372 424
#
# _framework density 20.280443999999999
#
# number of rings (size 3 to 8) (size 9 to 14) (size 15 to 20)
#    0.000    0.471    5.882    2.471    6.588    1.882 
#    4.235    0.000    0.000    0.000    0.000    0.000 
#    0.000    0.000    0.000    0.000    0.000    0.000 
#
# Total GULP energy -190082.080623 kJ/mol
# GULP energy per Si atom -5590.649430 kJ/mol
# Density = 2.023428 g / cm^3
# Si number density = 20.280444 Si / 1000 Ang^3
#
#
#
# Elastic Constant Matrix: (Units=GPa)
#
#
# Indices 1 2 3 4 5 6 
#
# 1 190.2294 57.0281 68.7593 0.0000 0.0000 0.0000
# 2 57.0281 104.9081 48.5212 0.0000 0.0000 0.0000
# 3 68.7593 48.5212 160.1645 0.0000 0.0000 0.0000
# 4 0.0000 0.0000 0.0000 14.8503 0.0000 0.0000
# 5 0.0000 0.0000 0.0000 0.0000 29.8951 0.0000
# 6 0.0000 0.0000 0.0000 0.0000 0.0000 17.3939
#
#
#
# Elastic Compliance Matrix: (Units=1/GPa)
#
#
# Indices 1 2 3 4 5 6 
#
# 1 0.006841 -0.002745 -0.002105 0.000000 0.000000 0.000000
# 2 -0.002745 0.012187 -0.002514 0.000000 0.000000 0.000000
# 3 -0.002105 -0.002514 0.007909 0.000000 0.000000 0.000000
# 4 0.000000 0.000000 0.000000 0.067339 0.000000 0.000000
# 5 0.000000 0.000000 0.000000 0.000000 0.033450 0.000000
# 6 0.000000 0.000000 0.000000 0.000000 0.000000 0.057492
#
#
# Mechanical properties :
#
#
# Convention : Reuss Voigt Hill
#
# Bulk Modulus (GPa) = 81.90657 89.32436 85.61546
# Shear Modulus (GPa) = 24.50819 31.16075 27.83447
#
# Velocity S-wave (km/s) = 3.48007 3.92406 3.70872
# Velocity P-wave (km/s) = 7.52479 8.04184 7.78761
#
# Compressibility (1/GPa) = 0.01220903
#
# Stress axis : x y z
#
# Youngs Moduli (GPa) = 146.18578 82.05583 126.44139
#
# Poissons Ratio (x) = 0.22524 0.26618
# Poissons Ratio (y) = 0.40127 0.31782
# Poissons Ratio (z) = 0.30774 0.20625
#
# Static dielectric constant tensor:
#      x y z
#    x 1.769960 0.000000 0.000000 
#    y 0.000000 1.706620 0.000000 
#    z 0.000000 0.000000 1.700760 
# 
# From -- ./inp_files/52868.got.cif
#   From: 2010.05.17/outbox.cif.g08.bks.cpg/sg66_27_cif.got.tgz:52868.got - 2010.06.03 17:51:23.
