data_PCOD9499731
_publ_section_title
;
Structure prediction by ZEFSAII (Michael W. Deem and Ramdas Pophale) SiO2 
 PCOD9499731
Probable space group: C C C M
;
_chemical_formula_sum "Si O2"
_cell_formula_units_Z 116
_cell_length_a 11.530824
_cell_length_b 26.377588
_cell_length_c 16.484412
_cell_angle_alpha 90.000000
_cell_angle_beta 90.000000
_cell_angle_gamma 90.000000
_cell_volume 5013.821686
_symmetry_space_group_name_H-M "C C C M"
_symmetry_group_IT_number 66
_symmetry_cell_setting 'orthorhombic'
loop_
_space_group_symop_operation_xyz
x,y,z
-x,-y,z
x,-y,1/2-z
-x,y,1/2-z
-x,-y,-z
x,y,-z
-x,y,1/2+z
x,-y,1/2+z
1/2+x,1/2+y,z
1/2-x,1/2-y,z
1/2+x,1/2-y,1/2-z
1/2-x,1/2+y,1/2-z
1/2-x,1/2-y,-z
1/2+x,1/2+y,-z
1/2-x,1/2+y,1/2+z
1/2+x,1/2-y,1/2+z
loop_
_atom_site_type_symbol
_atom_site_label
_atom_site_fract_x
_atom_site_fract_y
_atom_site_fract_z
Si Si1 0.232158 0.886399 0.409012
Si Si2 0.000000 0.000000 0.000000
Si Si3 0.917270 0.362342 0.178640
Si Si4 0.943515 0.810779 0.130417
Si Si5 0.397797 0.961819 0.905695
Si Si6 0.417981 0.200264 0.090330
Si Si7 0.314297 0.304320 0.301989
Si Si8 0.823442 0.990253 0.158253
O O1 0.264136 0.903484 0.500000
O O2 0.104775 0.861354 0.410211
O O3 0.316704 0.839363 0.388528
O O4 0.228456 0.933308 0.349008
O O5 0.901442 0.995803 0.924198
O O6 0.930568 0.403671 0.108627
O O7 0.784866 0.347141 0.193586
O O8 0.000000 0.382347 0.250000
O O9 0.979883 0.310274 0.152684
O O10 0.891783 0.759500 0.092401
O O11 0.885946 0.810615 0.219259
O O12 0.082863 0.808737 0.131837
O O13 0.500000 0.000000 0.881334
O O14 0.284477 0.972292 0.853093
O O15 0.373422 0.971187 0.000000
O O16 0.456626 0.188024 0.000000
O O17 0.250000 0.250000 0.303680
O O18 0.871077 0.000000 0.250000
#
# Coordination Sequence:
#
# PCOD9499731 Si02
#       8
#    16   4  16  16  16  16  16  16
#     4  11  23  45  72 104 142 189 243 304 370 438
#     4  12  26  60  74 102 154 202 250 324 386 450
#     4  12  25  41  71 105 143 191 237 297 370 445
#     4  11  23  41  68 100 142 189 239 294 356 438
#     4  11  26  49  76 111 150 190 243 316 387 450
#     4  11  23  42  70 103 145 188 237 295 362 441
#     4  11  23  42  63  99 144 185 236 298 360 425
#     4  12  28  49  81 109 148 200 255 319 384 459
#
# _framework density 23.136044999999999
#
# number of rings (size 3 to 8) (size 9 to 14) (size 15 to 20)
#    0.000    0.690    2.759    4.759    5.793    4.414 
#    2.483    2.759    0.000    0.000    0.000    0.000 
#    0.000    0.000    0.000    0.000    0.000    0.000 
#
# Total GULP energy -323492.239741 kJ/mol
# GULP energy per Si atom -5577.452409 kJ/mol
# Density = 2.308339 g / cm^3
# Si number density = 23.136045 Si / 1000 Ang^3
#
#
#
# Elastic Constant Matrix: (Units=GPa)
#
#
# Indices 1 2 3 4 5 6 
#
# 1 119.6507 8.9429 35.8773 0.0000 0.0000 0.0000
# 2 8.9429 86.5404 16.8753 0.0000 0.0000 0.0000
# 3 35.8773 16.8753 113.5347 0.0000 0.0000 0.0000
# 4 0.0000 0.0000 0.0000 29.3506 0.0000 0.0000
# 5 0.0000 0.0000 0.0000 0.0000 19.4211 0.0000
# 6 0.0000 0.0000 0.0000 0.0000 0.0000 14.3184
#
#
#
# Elastic Compliance Matrix: (Units=1/GPa)
#
#
# Indices 1 2 3 4 5 6 
#
# 1 0.009246 -0.000397 -0.002863 0.000000 0.000000 0.000000
# 2 -0.000397 0.011917 -0.001646 0.000000 0.000000 0.000000
# 3 -0.002863 -0.001646 0.009957 0.000000 0.000000 0.000000
# 4 0.000000 0.000000 0.000000 0.034071 0.000000 0.000000
# 5 0.000000 0.000000 0.000000 0.000000 0.051490 0.000000
# 6 0.000000 0.000000 0.000000 0.000000 0.000000 0.069840
#
#
# Mechanical properties :
#
#
# Convention : Reuss Voigt Hill
#
# Bulk Modulus (GPa) = 46.92904 49.23520 48.08212
# Shear Modulus (GPa) = 24.57776 29.82003 27.19889
#
# Velocity S-wave (km/s) = 3.26285 3.59402 3.43243
# Velocity P-wave (km/s) = 5.87562 6.20883 6.04452
#
# Compressibility (1/GPa) = 0.02130877
#
# Stress axis : x y z
#
# Youngs Moduli (GPa) = 108.15828 83.91178 100.43082
#
# Poissons Ratio (x) = 0.03333 0.28750
# Poissons Ratio (y) = 0.04296 0.16529
# Poissons Ratio (z) = 0.30962 0.13810
#
# Static dielectric constant tensor:
#      x y z
#    x 1.893410 0.000000 0.000000 
#    y 0.000000 1.822580 0.000000 
#    z 0.000000 0.000000 1.911390 
# 
# From -- ./inp_files/39115.got.cif
#   From: 2010.05.17/outbox.cif.g08.bks.cpg/sg66_20_cif.got.tgz:39115.got - 2010.06.03 17:51:23.
