data_PCOD9499670
_publ_section_title
;
Structure prediction by ZEFSAII (Michael W. Deem and Ramdas Pophale) SiO2 
 PCOD9499670
Probable space group: C C C M
;
_chemical_formula_sum "Si O2"
_cell_formula_units_Z 80
_cell_length_a 5.172489
_cell_length_b 26.881973
_cell_length_c 26.657152
_cell_angle_alpha 90.000000
_cell_angle_beta 90.000000
_cell_angle_gamma 90.000000
_cell_volume 3706.589274
_symmetry_space_group_name_H-M "C C C M"
_symmetry_group_IT_number 66
_symmetry_cell_setting 'orthorhombic'
loop_
_space_group_symop_operation_xyz
x,y,z
-x,-y,z
x,-y,1/2-z
-x,y,1/2-z
-x,-y,-z
x,y,-z
-x,y,1/2+z
x,-y,1/2+z
1/2+x,1/2+y,z
1/2-x,1/2-y,z
1/2+x,1/2-y,1/2-z
1/2-x,1/2+y,1/2-z
1/2-x,1/2-y,-z
1/2+x,1/2+y,-z
1/2-x,1/2+y,1/2+z
1/2+x,1/2-y,1/2+z
loop_
_atom_site_type_symbol
_atom_site_label
_atom_site_fract_x
_atom_site_fract_y
_atom_site_fract_z
Si Si1 0.217296 0.637751 0.441127
Si Si2 0.247837 0.533515 0.388699
Si Si3 0.703370 0.341017 0.880548
Si Si4 0.397561 0.601496 0.694439
Si Si5 0.073447 0.705133 0.307108
O O1 0.231801 0.646180 0.500000
O O2 0.262561 0.580067 0.426666
O O3 0.441465 0.667912 0.411605
O O4 0.935817 0.649615 0.418953
O O5 0.500000 0.500000 0.393123
O O6 0.241625 0.557954 0.332913
O O7 0.000000 0.500000 0.398193
O O8 0.632792 0.387409 0.844150
O O9 0.821986 0.302581 0.841048
O O10 0.500000 0.591674 0.750000
O O11 0.230810 0.652679 0.694130
O O12 0.250000 0.750000 0.325836
O O13 0.000000 0.716165 0.250000
#
# Coordination Sequence:
#
# PCOD9499670 Si02
#       5
#    16  16  16  16  16
#     4  11  24  44  72  97 131 180 234 290 350 403
#     4  11  24  41  65  98 134 175 230 280 336 406
#     4  11  22  43  67 100 137 180 218 280 341 409
#     4  11  23  43  66  97 141 189 223 275 340 417
#     4  12  25  40  71 108 142 177 226 277 343 418
#
# _framework density 21.583183999999999
#
# number of rings (size 3 to 8) (size 9 to 14) (size 15 to 20)
#    0.000    0.800    6.000    3.600    0.000    1.200 
#    0.000    3.000    0.000    3.600    0.000    0.000 
#    0.000    0.000    0.000    0.000    0.000    0.000 
#
# Total GULP energy -223696.217887 kJ/mol
# GULP energy per Si atom -5592.405447 kJ/mol
# Density = 2.153406 g / cm^3
# Si number density = 21.583184 Si / 1000 Ang^3
#
#
#
# Elastic Constant Matrix: (Units=GPa)
#
#
# Indices 1 2 3 4 5 6 
#
# 1 141.4757 26.4821 42.1245 0.0000 0.0000 0.0000
# 2 26.4821 51.0282 -3.0131 0.0000 0.0000 0.0000
# 3 42.1245 -3.0131 170.2027 0.0000 0.0000 0.0000
# 4 0.0000 0.0000 0.0000 34.2229 0.0000 0.0000
# 5 0.0000 0.0000 0.0000 0.0000 35.7520 0.0000
# 6 0.0000 0.0000 0.0000 0.0000 0.0000 35.5764
#
#
#
# Elastic Compliance Matrix: (Units=1/GPa)
#
#
# Indices 1 2 3 4 5 6 
#
# 1 0.008583 -0.004585 -0.002205 0.000000 0.000000 0.000000
# 2 -0.004585 0.022066 0.001525 0.000000 0.000000 0.000000
# 3 -0.002205 0.001525 0.006448 0.000000 0.000000 0.000000
# 4 0.000000 0.000000 0.000000 0.029220 0.000000 0.000000
# 5 0.000000 0.000000 0.000000 0.000000 0.027970 0.000000
# 6 0.000000 0.000000 0.000000 0.000000 0.000000 0.028109
#
#
# Mechanical properties :
#
#
# Convention : Reuss Voigt Hill
#
# Bulk Modulus (GPa) = 37.63900 54.87708 46.25804
# Shear Modulus (GPa) = 35.26524 40.91780 38.09152
#
# Velocity S-wave (km/s) = 4.04657 4.35882 4.20559
# Velocity P-wave (km/s) = 6.26975 7.12836 6.71280
#
# Compressibility (1/GPa) = 0.02656819
#
# Stress axis : x y z
#
# Youngs Moduli (GPa) = 116.50648 45.31777 155.08212
#
# Poissons Ratio (x) = 0.20777 0.34203
# Poissons Ratio (y) = 0.53414 -0.23655
# Poissons Ratio (z) = 0.25695 -0.06912
#
# Static dielectric constant tensor:
#      x y z
#    x 1.875840 0.000000 0.000000 
#    y 0.000000 1.792820 0.000000 
#    z 0.000000 0.000000 1.761660 
# 
# From -- ./inp_files/61568.got.cif
#   From: 2010.05.17/outbox.cif.g08.bks.cpg/sg66_31_cif.got.tgz:61568.got - 2010.06.03 17:51:23.
