data_PCOD9499809
_publ_section_title
;
Structure prediction by ZEFSAII (Michael W. Deem and Ramdas Pophale) SiO2 
 PCOD9499809
Probable space group: C C C M
;
_chemical_formula_sum "Si O2"
_cell_formula_units_Z 64
_cell_length_a 17.701573
_cell_length_b 5.387068
_cell_length_c 27.523968
_cell_angle_alpha 90.000000
_cell_angle_beta 90.000000
_cell_angle_gamma 90.000000
_cell_volume 2624.673958
_symmetry_space_group_name_H-M "C C C M"
_symmetry_group_IT_number 66
_symmetry_cell_setting 'orthorhombic'
loop_
_space_group_symop_operation_xyz
x,y,z
-x,-y,z
x,-y,1/2-z
-x,y,1/2-z
-x,-y,-z
x,y,-z
-x,y,1/2+z
x,-y,1/2+z
1/2+x,1/2+y,z
1/2-x,1/2-y,z
1/2+x,1/2-y,1/2-z
1/2-x,1/2+y,1/2-z
1/2-x,1/2-y,-z
1/2+x,1/2+y,-z
1/2-x,1/2+y,1/2+z
1/2+x,1/2-y,1/2+z
loop_
_atom_site_type_symbol
_atom_site_label
_atom_site_fract_x
_atom_site_fract_y
_atom_site_fract_z
Si Si1 0.394435 0.518697 0.086691
Si Si2 0.250000 0.250000 0.694895
Si Si3 0.561899 0.210980 0.500000
Si Si4 0.116909 0.000000 0.750000
Si Si5 0.750000 0.750000 0.866795
Si Si6 0.000000 0.000000 0.328594
Si Si7 0.833364 0.336629 0.000000
O O1 0.323276 0.351268 0.104204
O O2 0.441240 0.620668 0.132806
O O3 0.368277 0.730529 0.049624
O O4 0.443140 0.346060 0.051000
O O5 0.175040 0.192646 0.725989
O O6 0.233104 0.501072 0.664469
O O7 0.500000 0.000000 0.500000
O O8 0.648861 0.123038 0.500000
O O9 0.061092 0.116244 0.790974
O O10 0.750000 0.250000 0.000000
#
# Coordination Sequence:
#
# PCOD9499809 Si02
#       7
#    16   8   8   8   8   8   8
#     4  11  25  44  70 114 150 203 261 318 387 464
#     4  12  27  52  80 114 148 206 262 322 395 472
#     4  11  24  41  70 102 155 210 251 320 382 462
#     4  11  26  48  82 109 152 200 258 331 392 474
#     4  12  27  47  86 111 154 207 258 327 391 470
#     4  11  24  47  74 112 156 197 262 321 404 462
#     4  11  24  43  72 105 156 199 265 313 380 453
#
# _framework density 24.383982
#
# number of rings (size 3 to 8) (size 9 to 14) (size 15 to 20)
#    0.000    0.750    2.500    3.750    5.250    6.000 
#    0.000    0.000    5.500    0.000    0.000    0.000 
#    0.000    0.000    0.000    0.000    0.000    0.000 
#
# Total GULP energy -178476.164113 kJ/mol
# GULP energy per Si atom -5577.380129 kJ/mol
# Density = 2.432848 g / cm^3
# Si number density = 24.383982 Si / 1000 Ang^3
#
#
#
# Elastic Constant Matrix: (Units=GPa)
#
#
# Indices 1 2 3 4 5 6 
#
# 1 175.1286 38.7611 84.5135 0.0000 0.0000 0.0000
# 2 38.7611 90.8704 47.4468 0.0000 0.0000 0.0000
# 3 84.5135 47.4468 183.3312 0.0000 0.0000 0.0000
# 4 0.0000 0.0000 0.0000 42.9923 0.0000 0.0000
# 5 0.0000 0.0000 0.0000 0.0000 74.0537 0.0000
# 6 0.0000 0.0000 0.0000 0.0000 0.0000 35.8371
#
#
#
# Elastic Compliance Matrix: (Units=1/GPa)
#
#
# Indices 1 2 3 4 5 6 
#
# 1 0.007545 -0.001621 -0.003059 0.000000 0.000000 0.000000
# 2 -0.001621 0.013073 -0.002636 0.000000 0.000000 0.000000
# 3 -0.003059 -0.002636 0.007547 0.000000 0.000000 0.000000
# 4 0.000000 0.000000 0.000000 0.023260 0.000000 0.000000
# 5 0.000000 0.000000 0.000000 0.000000 0.013504 0.000000
# 6 0.000000 0.000000 0.000000 0.000000 0.000000 0.027904
#
#
# Mechanical properties :
#
#
# Convention : Reuss Voigt Hill
#
# Bulk Modulus (GPa) = 73.89436 87.86367 80.87902
# Shear Modulus (GPa) = 44.65316 49.15053 46.90184
#
# Velocity S-wave (km/s) = 4.28395 4.49451 4.39050
# Velocity P-wave (km/s) = 7.40540 7.94014 7.67743
#
# Compressibility (1/GPa) = 0.01353283
#
# Stress axis : x y z
#
# Youngs Moduli (GPa) = 132.53964 76.49635 132.50826
#
# Poissons Ratio (x) = 0.12403 0.40528
# Poissons Ratio (y) = 0.21489 0.34927
# Poissons Ratio (z) = 0.40537 0.20163
#
# Static dielectric constant tensor:
#      x y z
#    x 2.018200 0.000000 0.000000 
#    y 0.000000 1.984850 0.000000 
#    z 0.000000 0.000000 1.932900 
# 
# From -- ./inp_files/69824.got.cif
#   From: 2010.05.17/outbox.cif.g08.bks.cpg/sg66_35_cif.got.tgz:69824.got - 2010.06.03 17:51:23.
