data_PCOD9499362
_publ_section_title
;
Structure prediction by ZEFSAII (Michael W. Deem and Ramdas Pophale) SiO2 
 PCOD9499362
Probable space group: C C C M
;
_chemical_formula_sum "Si O2"
_cell_formula_units_Z 72
_cell_length_a 18.298667
_cell_length_b 11.218748
_cell_length_c 18.988008
_cell_angle_alpha 90.000000
_cell_angle_beta 90.000000
_cell_angle_gamma 90.000000
_cell_volume 3898.012727
_symmetry_space_group_name_H-M "C C C M"
_symmetry_group_IT_number 66
_symmetry_cell_setting 'orthorhombic'
loop_
_space_group_symop_operation_xyz
x,y,z
-x,-y,z
x,-y,1/2-z
-x,y,1/2-z
-x,-y,-z
x,y,-z
-x,y,1/2+z
x,-y,1/2+z
1/2+x,1/2+y,z
1/2-x,1/2-y,z
1/2+x,1/2-y,1/2-z
1/2-x,1/2+y,1/2-z
1/2-x,1/2-y,-z
1/2+x,1/2+y,-z
1/2-x,1/2+y,1/2+z
1/2+x,1/2-y,1/2+z
loop_
_atom_site_type_symbol
_atom_site_label
_atom_site_fract_x
_atom_site_fract_y
_atom_site_fract_z
Si Si1 0.699042 0.138509 0.130610
Si Si2 0.707091 0.959799 0.000000
Si Si3 0.354180 0.304704 0.000000
Si Si4 0.417567 0.141808 0.260190
Si Si5 0.287371 0.500000 0.750000
Si Si6 0.666196 0.705390 0.150310
O O1 0.750000 0.250000 0.108645
O O2 0.620963 0.172829 0.165166
O O3 0.739585 0.078794 0.197055
O O4 0.694182 0.042373 0.068180
O O5 0.660712 0.838374 0.000000
O O6 0.787821 0.901680 0.000000
O O7 0.380295 0.320171 0.919959
O O8 0.500000 0.187128 0.250000
O O9 0.369020 0.193186 0.197354
O O10 0.419171 0.000000 0.250000
O O11 0.330064 0.410001 0.800378
O O12 0.750000 0.750000 0.132316
#
# Coordination Sequence:
#
# PCOD9499362 Si02
#       6
#    16   8   8  16   8  16
#     4  12  21  36  58  85 115 147 186 241 289 337
#     4  11  21  32  53  91 117 144 184 236 298 337
#     4  11  20  32  57  87 119 145 183 242 280 342
#     4  11  22  36  56  82 114 151 190 232 286 343
#     4  12  18  32  62  84 108 142 194 236 284 320
#     4  12  19  35  58  86 112 144 192 238 279 332
#
# _framework density 18.470949999999998
#
# number of rings (size 3 to 8) (size 9 to 14) (size 15 to 20)
#    0.000    0.444   10.000    1.667    0.000    0.000 
#    0.000    1.667    0.000    4.000    0.000    3.111 
#    0.000    0.000    0.000    0.000    0.000    0.000 
#
# Total GULP energy -200597.390424 kJ/mol
# GULP energy per Si atom -5572.149734 kJ/mol
# Density = 1.842891 g / cm^3
# Si number density = 18.470950 Si / 1000 Ang^3
#
#
#
# Elastic Constant Matrix: (Units=GPa)
#
#
# Indices 1 2 3 4 5 6 
#
# 1 61.6876 24.0042 20.9706 0.0000 0.0000 0.0000
# 2 24.0042 67.8122 44.2025 0.0000 0.0000 0.0000
# 3 20.9706 44.2025 149.0534 0.0000 0.0000 0.0000
# 4 0.0000 0.0000 0.0000 40.5171 0.0000 0.0000
# 5 0.0000 0.0000 0.0000 0.0000 -5.6864 0.0000
# 6 0.0000 0.0000 0.0000 0.0000 0.0000 12.6164
#
#
#
# Elastic Compliance Matrix: (Units=1/GPa)
#
#
# Indices 1 2 3 4 5 6 
#
# 1 0.018884 -0.006140 -0.000836 0.000000 0.000000 0.000000
# 2 -0.006140 0.020276 -0.005149 0.000000 0.000000 0.000000
# 3 -0.000836 -0.005149 0.008354 0.000000 0.000000 0.000000
# 4 0.000000 0.000000 0.000000 0.024681 0.000000 0.000000
# 5 0.000000 0.000000 0.000000 0.000000 -0.175859 0.000000
# 6 0.000000 0.000000 0.000000 0.000000 0.000000 0.079262
#
#
# Mechanical properties :
#
#
# Convention : Reuss Voigt Hill
#
# Bulk Modulus (GPa) = 42.98453 50.76754 46.87604
# Shear Modulus (GPa) = 657.67300 22.11449 339.89375
#
# Velocity S-wave (km/s) = 18.88997 3.46390 13.57994
# Velocity P-wave (km/s) = 22.34047 6.59870 16.47179
#
# Compressibility (1/GPa) = 0.02326418
#
# Stress axis : x y z
#
# Youngs Moduli (GPa) = 52.95490 49.31842 119.70766
#
# Poissons Ratio (x) = 0.30279 0.10009
# Poissons Ratio (y) = 0.32512 0.61641
# Poissons Ratio (z) = 0.04428 0.25395
#
# Static dielectric constant tensor:
#      x y z
#    x 1.685360 0.000000 0.000000 
#    y 0.000000 1.674590 0.000000 
#    z 0.000000 0.000000 1.669450 
# 
# From -- ./inp_files/41339.got.cif
#   From: 2010.05.17/outbox.cif.g08.bks.cpg/sg66_21_cif.got.tgz:41339.got - 2010.06.03 17:51:23.
