data_PCOD9499416
_publ_section_title
;
Structure prediction by ZEFSAII (Michael W. Deem and Ramdas Pophale) SiO2 
 PCOD9499416
Probable space group: C C C M
;
_chemical_formula_sum "Si O2"
_cell_formula_units_Z 48
_cell_length_a 15.063472
_cell_length_b 9.977534
_cell_length_c 13.117143
_cell_angle_alpha 90.000000
_cell_angle_beta 90.000000
_cell_angle_gamma 90.000000
_cell_volume 1971.458112
_symmetry_space_group_name_H-M "C C C M"
_symmetry_group_IT_number 66
_symmetry_cell_setting 'orthorhombic'
loop_
_space_group_symop_operation_xyz
x,y,z
-x,-y,z
x,-y,1/2-z
-x,y,1/2-z
-x,-y,-z
x,y,-z
-x,y,1/2+z
x,-y,1/2+z
1/2+x,1/2+y,z
1/2-x,1/2-y,z
1/2+x,1/2-y,1/2-z
1/2-x,1/2+y,1/2-z
1/2-x,1/2-y,-z
1/2+x,1/2+y,-z
1/2-x,1/2+y,1/2+z
1/2+x,1/2-y,1/2+z
loop_
_atom_site_type_symbol
_atom_site_label
_atom_site_fract_x
_atom_site_fract_y
_atom_site_fract_z
Si Si1 0.581255 0.673794 0.174934
Si Si2 0.312793 0.072650 0.500000
Si Si3 0.250000 0.750000 0.189989
Si Si4 0.486931 0.809457 0.000000
Si Si5 0.623673 0.476235 0.000000
O O1 0.500000 0.658291 0.250000
O O2 0.670410 0.699809 0.238542
O O3 0.549673 0.791200 0.097708
O O4 0.591177 0.546725 0.101819
O O5 0.290197 0.144893 0.391364
O O6 0.418275 0.067945 0.500000
O O7 0.227802 0.977727 0.500000
O O8 0.416063 0.676814 0.000000
#
# Coordination Sequence:
#
# PCOD9499416 Si02
#       5
#    16   8   8   8   8
#     4  11  22  37  62  93 121 159 207 259 302 365
#     4  11  20  40  54  87 127 171 188 246 326 373
#     4  11  22  37  60  86 124 163 206 245 314 376
#     4  11  21  37  57  86 128 162 195 251 317 364
#     4  11  23  35  61  95 130 145 205 264 311 348
#
# _framework density 24.347460000000002
#
# number of rings (size 3 to 8) (size 9 to 14) (size 15 to 20)
#    0.000    1.000    6.667    2.000    0.000   12.000 
#    0.000    0.000    0.000    4.000    0.000    0.000 
#    0.000    0.000    0.000    0.000    0.000    0.000 
#
# Total GULP energy -133959.958853 kJ/mol
# GULP energy per Si atom -5581.664952 kJ/mol
# Density = 2.429204 g / cm^3
# Si number density = 24.347460 Si / 1000 Ang^3
#
#
#
# Elastic Constant Matrix: (Units=GPa)
#
#
# Indices 1 2 3 4 5 6 
#
# 1 226.8405 23.5509 98.9733 0.0000 0.0000 0.0000
# 2 23.5509 39.6138 36.4056 0.0000 0.0000 0.0000
# 3 98.9733 36.4056 212.2263 0.0000 0.0000 0.0000
# 4 0.0000 0.0000 0.0000 -28.7630 0.0000 0.0000
# 5 0.0000 0.0000 0.0000 0.0000 -348.0715 0.0000
# 6 0.0000 0.0000 0.0000 0.0000 0.0000 18.8731
#
#
#
# Elastic Compliance Matrix: (Units=1/GPa)
#
#
# Indices 1 2 3 4 5 6 
#
# 1 0.005574 -0.001098 -0.002411 0.000000 0.000000 0.000000
# 2 -0.001098 0.030184 -0.004666 0.000000 0.000000 0.000000
# 3 -0.002411 -0.004666 0.006637 0.000000 0.000000 0.000000
# 4 0.000000 0.000000 0.000000 -0.034767 0.000000 0.000000
# 5 0.000000 0.000000 0.000000 0.000000 -0.002873 0.000000
# 6 0.000000 0.000000 0.000000 0.000000 0.000000 0.052985
#
#
# Mechanical properties :
#
#
# Convention : Reuss Voigt Hill
#
# Bulk Modulus (GPa) = 38.39443 88.50447 63.44945
# Shear Modulus (GPa) = 60.40576 -50.27555 5.06510
#
# Velocity S-wave (km/s) = 4.98636 -4.54907 1.44390
# Velocity P-wave (km/s) = 6.99680 2.97279 5.37553
#
# Compressibility (1/GPa) = 0.02604545
#
# Stress axis : x y z
#
# Youngs Moduli (GPa) = 179.38891 33.12962 150.67316
#
# Poissons Ratio (x) = 0.03638 0.36332
# Poissons Ratio (y) = 0.19698 0.70301
# Poissons Ratio (z) = 0.43257 0.15458
#
# Static dielectric constant tensor:
#      x y z
#    x 2.043540 0.000000 0.000000 
#    y 0.000000 2.089300 0.000000 
#    z 0.000000 0.000000 1.896950 
# 
# From -- ./inp_files/15592.got.cif
#   From: 2010.05.17/outbox.cif.g08.bks.cpg/sg66_8_cif.got.tgz:15592.got - 2010.06.03 17:51:23.
