data_PCOD9499736
_publ_section_title
;
Structure prediction by ZEFSAII (Michael W. Deem and Ramdas Pophale) SiO2 
 PCOD9499736
Probable space group: C C C M
;
_chemical_formula_sum "Si O2"
_cell_formula_units_Z 68
_cell_length_a 22.582899
_cell_length_b 17.078280
_cell_length_c 7.911983
_cell_angle_alpha 90.000000
_cell_angle_beta 90.000000
_cell_angle_gamma 90.000000
_cell_volume 3051.470440
_symmetry_space_group_name_H-M "C C C M"
_symmetry_group_IT_number 66
_symmetry_cell_setting 'orthorhombic'
loop_
_space_group_symop_operation_xyz
x,y,z
-x,-y,z
x,-y,1/2-z
-x,y,1/2-z
-x,-y,-z
x,y,-z
-x,y,1/2+z
x,-y,1/2+z
1/2+x,1/2+y,z
1/2-x,1/2-y,z
1/2+x,1/2-y,1/2-z
1/2-x,1/2+y,1/2-z
1/2-x,1/2-y,-z
1/2+x,1/2+y,-z
1/2-x,1/2+y,1/2+z
1/2+x,1/2-y,1/2+z
loop_
_atom_site_type_symbol
_atom_site_label
_atom_site_fract_x
_atom_site_fract_y
_atom_site_fract_z
Si Si1 0.439360 0.208849 0.194248
Si Si2 0.500000 0.500000 0.750000
Si Si3 0.775538 0.164588 0.205539
Si Si4 0.157560 0.586666 0.798879
Si Si5 0.592180 0.376072 0.197320
O O1 0.500000 0.168028 0.250000
O O2 0.384579 0.152066 0.222196
O O3 0.432764 0.288184 0.299035
O O4 0.442336 0.231564 0.000000
O O5 0.450152 0.565634 0.698467
O O6 0.750000 0.250000 0.259760
O O7 0.724934 0.103398 0.254861
O O8 0.840417 0.136267 0.261458
O O9 0.780040 0.169003 0.000000
O O10 0.138962 0.500000 0.750000
O O11 0.155033 0.596102 0.000000
O O12 0.591621 0.403487 0.000000
#
# Coordination Sequence:
#
# PCOD9499736 Si02
#       5
#    16   4  16  16  16
#     4  12  25  43  68  96 128 170 220 272 335 402
#     4  12  26  36  68 102 144 184 228 268 334 400
#     4   9  18  37  66  93 126 177 222 271 334 395
#     4  11  23  42  67  97 135 173 221 277 337 398
#     4  11  23  42  64  94 137 180 226 273 333 398
#
# _framework density 22.284338000000002
#
# number of rings (size 3 to 8) (size 9 to 14) (size 15 to 20)
#    0.000    1.176    3.529    3.176    1.647    1.412 
#    0.000    5.882    0.000    0.000    0.000    0.000 
#    0.000    0.000    0.000    0.000    0.000    0.000 
#
# Total GULP energy -189708.792022 kJ/mol
# GULP energy per Si atom -5579.670354 kJ/mol
# Density = 2.223362 g / cm^3
# Si number density = 22.284338 Si / 1000 Ang^3
#
#
#
# Elastic Constant Matrix: (Units=GPa)
#
#
# Indices 1 2 3 4 5 6 
#
# 1 185.1905 47.8549 16.9088 0.0000 0.0000 0.0000
# 2 47.8549 124.7725 5.2630 0.0000 0.0000 0.0000
# 3 16.9088 5.2630 64.1078 0.0000 0.0000 0.0000
# 4 0.0000 0.0000 0.0000 -13.9697 0.0000 0.0000
# 5 0.0000 0.0000 0.0000 0.0000 27.3997 0.0000
# 6 0.0000 0.0000 0.0000 0.0000 0.0000 48.3528
#
#
#
# Elastic Compliance Matrix: (Units=1/GPa)
#
#
# Indices 1 2 3 4 5 6 
#
# 1 0.006121 -0.002288 -0.001427 0.000000 0.000000 0.000000
# 2 -0.002288 0.008897 -0.000127 0.000000 0.000000 0.000000
# 3 -0.001427 -0.000127 0.015985 0.000000 0.000000 0.000000
# 4 0.000000 0.000000 0.000000 -0.071583 0.000000 0.000000
# 5 0.000000 0.000000 0.000000 0.000000 0.036497 0.000000
# 6 0.000000 0.000000 0.000000 0.000000 0.000000 0.020681
#
#
# Mechanical properties :
#
#
# Convention : Reuss Voigt Hill
#
# Bulk Modulus (GPa) = 42.87918 57.12490 50.00204
# Shear Modulus (GPa) = 155.98149 32.62617 94.30383
#
# Velocity S-wave (km/s) = 8.37544 3.83049 6.51232
# Velocity P-wave (km/s) = 10.62141 6.72709 8.89011
#
# Compressibility (1/GPa) = 0.02332134
#
# Stress axis : x y z
#
# Youngs Moduli (GPa) = 163.36585 112.39359 62.55681
#
# Poissons Ratio (x) = 0.25710 0.08925
# Poissons Ratio (y) = 0.37371 0.00795
# Poissons Ratio (z) = 0.23308 0.01428
#
# Static dielectric constant tensor:
#      x y z
#    x 1.877620 0.000000 0.000000 
#    y 0.000000 1.753270 0.000000 
#    z 0.000000 0.000000 1.864630 
# 
# From -- ./inp_files/6259.got.cif
#   From: 2010.05.17/outbox.cif.g08.bks.cpg/sg66_4_cif.got.tgz:6259.got - 2010.06.03 17:51:23.
