data_PCOD9499719
_publ_section_title
;
Structure prediction by ZEFSAII (Michael W. Deem and Ramdas Pophale) SiO2 
 PCOD9499719
Probable space group: C C C M
;
_chemical_formula_sum "Si O2"
_cell_formula_units_Z 72
_cell_length_a 25.642136
_cell_length_b 5.153993
_cell_length_c 23.454466
_cell_angle_alpha 90.000000
_cell_angle_beta 90.000000
_cell_angle_gamma 90.000000
_cell_volume 3099.727906
_symmetry_space_group_name_H-M "C C C M"
_symmetry_group_IT_number 66
_symmetry_cell_setting 'orthorhombic'
loop_
_space_group_symop_operation_xyz
x,y,z
-x,-y,z
x,-y,1/2-z
-x,y,1/2-z
-x,-y,-z
x,y,-z
-x,y,1/2+z
x,-y,1/2+z
1/2+x,1/2+y,z
1/2-x,1/2-y,z
1/2+x,1/2-y,1/2-z
1/2-x,1/2+y,1/2-z
1/2-x,1/2-y,-z
1/2+x,1/2+y,-z
1/2-x,1/2+y,1/2+z
1/2+x,1/2-y,1/2+z
loop_
_atom_site_type_symbol
_atom_site_label
_atom_site_fract_x
_atom_site_fract_y
_atom_site_fract_z
Si Si1 0.915206 0.751702 0.790052
Si Si2 0.880665 0.549608 0.000000
Si Si3 0.686200 0.522023 0.500000
Si Si4 0.198805 0.411378 0.815100
Si Si5 0.965255 0.749990 0.911493
Si Si6 0.750000 0.750000 0.400526
O O1 0.924576 0.500000 0.750000
O O2 0.856440 0.729043 0.815013
O O3 0.951698 0.774813 0.844802
O O4 0.919444 0.000000 0.750000
O O5 0.860770 0.247351 0.000000
O O6 0.913957 0.664505 0.946714
O O7 0.830115 0.725367 0.000000
O O8 0.720335 0.563200 0.443823
O O9 0.205397 0.500000 0.750000
O O10 0.250000 0.250000 0.829355
O O11 0.204271 0.643548 0.859525
O O12 0.000000 0.500000 0.920180
O O13 0.000000 0.000000 0.929448
#
# Coordination Sequence:
#
# PCOD9499719 Si02
#       6
#    16   8   8  16  16   8
#     4  11  26  44  69 104 143 184 226 278 346 413
#     4  12  26  50  72  99 136 177 237 289 352 414
#     4  11  28  45  70 101 138 189 224 291 349 402
#     4  11  23  40  67 100 141 184 228 275 334 403
#     4  12  26  46  75 104 135 180 231 291 349 409
#     4  11  26  42  66 102 142 185 238 280 336 413
#
# _framework density 23.227844000000001
#
# number of rings (size 3 to 8) (size 9 to 14) (size 15 to 20)
#    0.000    0.667    1.111    5.333    9.333    3.556 
#    0.000    0.000    0.000    0.000    0.000    0.000 
#    0.000    0.000    0.000    0.000    0.000    0.000 
#
# Total GULP energy -201326.603274 kJ/mol
# GULP energy per Si atom -5592.405647 kJ/mol
# Density = 2.317498 g / cm^3
# Si number density = 23.227844 Si / 1000 Ang^3
#
#
#
# Elastic Constant Matrix: (Units=GPa)
#
#
# Indices 1 2 3 4 5 6 
#
# 1 33.2681 13.3024 7.9152 0.0000 0.0000 0.0000
# 2 13.3024 119.4113 21.2181 0.0000 0.0000 0.0000
# 3 7.9152 21.2181 121.4184 0.0000 0.0000 0.0000
# 4 0.0000 0.0000 0.0000 -6.9043 0.0000 0.0000
# 5 0.0000 0.0000 0.0000 0.0000 -240.0333 0.0000
# 6 0.0000 0.0000 0.0000 0.0000 0.0000 34.9575
#
#
#
# Elastic Compliance Matrix: (Units=1/GPa)
#
#
# Indices 1 2 3 4 5 6 
#
# 1 0.031722 -0.003268 -0.001497 0.000000 0.000000 0.000000
# 2 -0.003268 0.008979 -0.001356 0.000000 0.000000 0.000000
# 3 -0.001497 -0.001356 0.008571 0.000000 0.000000 0.000000
# 4 0.000000 0.000000 0.000000 -0.144838 0.000000 0.000000
# 5 0.000000 0.000000 0.000000 0.000000 -0.004166 0.000000
# 6 0.000000 0.000000 0.000000 0.000000 0.000000 0.028606
#
#
# Mechanical properties :
#
#
# Convention : Reuss Voigt Hill
#
# Bulk Modulus (GPa) = 27.00515 39.88547 33.44531
# Shear Modulus (GPa) = -107.43174 -26.95188 -67.19181
#
# Velocity S-wave (km/s) = -6.80821 -3.41005 -5.38424
# Velocity P-wave (km/s) = 7.08172 1.30540 4.92172
#
# Compressibility (1/GPa) = 0.03702998
#
# Stress axis : x y z
#
# Youngs Moduli (GPa) = 31.52424 111.36568 116.67863
#
# Poissons Ratio (x) = 0.36392 0.17465
# Poissons Ratio (y) = 0.10302 0.15823
# Poissons Ratio (z) = 0.04719 0.15103
#
# Static dielectric constant tensor:
#      x y z
#    x 1.760600 0.000000 0.000000 
#    y 0.000000 1.891340 0.000000 
#    z 0.000000 0.000000 0.574420 
# 
# From -- ./inp_files/60303.got.cif
#   From: 2010.05.17/outbox.cif.g08.bks.cpg/sg66_31_cif.got.tgz:60303.got - 2010.06.03 17:51:23.
