data_PCOD9499775
_publ_section_title
;
Structure prediction by ZEFSAII (Michael W. Deem and Ramdas Pophale) SiO2 
 PCOD9499775
Probable space group: C C C M
;
_chemical_formula_sum "Si O2"
_cell_formula_units_Z 116
_cell_length_a 11.409773
_cell_length_b 19.347149
_cell_length_c 26.760940
_cell_angle_alpha 90.000000
_cell_angle_beta 90.000000
_cell_angle_gamma 90.000000
_cell_volume 5907.385937
_symmetry_space_group_name_H-M "C C C M"
_symmetry_group_IT_number 66
_symmetry_cell_setting 'orthorhombic'
loop_
_space_group_symop_operation_xyz
x,y,z
-x,-y,z
x,-y,1/2-z
-x,y,1/2-z
-x,-y,-z
x,y,-z
-x,y,1/2+z
x,-y,1/2+z
1/2+x,1/2+y,z
1/2-x,1/2-y,z
1/2+x,1/2-y,1/2-z
1/2-x,1/2+y,1/2-z
1/2-x,1/2-y,-z
1/2+x,1/2+y,-z
1/2-x,1/2+y,1/2+z
1/2+x,1/2-y,1/2+z
loop_
_atom_site_type_symbol
_atom_site_label
_atom_site_fract_x
_atom_site_fract_y
_atom_site_fract_z
Si Si1 0.337311 0.927483 0.269771
Si Si2 0.588600 0.440621 0.319825
Si Si3 0.400233 0.942159 0.442096
Si Si4 0.517468 0.709446 0.307015
Si Si5 0.751120 0.363763 0.166028
Si Si6 0.500000 0.500000 0.500000
Si Si7 0.979725 0.346087 0.354284
Si Si8 0.162567 0.983960 0.909125
O O1 0.219174 0.946525 0.299471
O O2 0.290474 0.885959 0.221828
O O3 0.426779 0.888501 0.306687
O O4 0.383368 0.000000 0.250000
O O5 0.500000 0.500000 0.301586
O O6 0.541825 0.365355 0.308027
O O7 0.600473 0.454558 0.378327
O O8 0.400541 0.919574 0.500000
O O9 0.423587 0.880453 0.403144
O O10 0.500000 0.000000 0.434942
O O11 0.281413 0.982159 0.429400
O O12 0.500000 0.735390 0.250000
O O13 0.651208 0.694195 0.324455
O O14 0.457271 0.765661 0.342660
O O15 0.691526 0.423293 0.131155
O O16 0.878638 0.349981 0.142053
O O17 0.583969 0.534430 0.543829
#
# Coordination Sequence:
#
# PCOD9499775 Si02
#       8
#    16  16  16  16  16   4  16  16
#     4  12  23  39  65  97 140 177 228 287 341 420
#     4  12  23  40  68  97 130 180 231 278 341 415
#     4  11  23  44  73  98 132 174 230 290 358 413
#     4  12  25  43  64  95 144 192 229 277 345 426
#     4  12  23  42  65  98 140 181 228 281 353 409
#     4  12  24  40  66 106 136 160 238 296 364 400
#     4  12  27  42  65 100 140 183 232 282 347 426
#     4  12  22  40  69 101 131 169 224 303 341 407
#
# _framework density 19.636434999999999
#
# number of rings (size 3 to 8) (size 9 to 14) (size 15 to 20)
#    0.000    0.138    8.276    1.655    0.000    1.103 
#    1.241    0.000    6.069    1.655    0.000    0.000 
#    0.000    0.000    0.000    0.000    0.000    0.000 
#
# Total GULP energy -323312.150858 kJ/mol
# GULP energy per Si atom -5574.347429 kJ/mol
# Density = 1.959174 g / cm^3
# Si number density = 19.636435 Si / 1000 Ang^3
#
#
#
# Elastic Constant Matrix: (Units=GPa)
#
#
# Indices 1 2 3 4 5 6 
#
# 1 113.3276 34.4496 28.1894 0.0000 0.0000 0.0000
# 2 34.4496 108.5307 46.9251 0.0000 0.0000 0.0000
# 3 28.1894 46.9251 140.6592 0.0000 0.0000 0.0000
# 4 0.0000 0.0000 0.0000 12.2173 0.0000 0.0000
# 5 0.0000 0.0000 0.0000 0.0000 121.9779 0.0000
# 6 0.0000 0.0000 0.0000 0.0000 0.0000 8.2404
#
#
#
# Elastic Compliance Matrix: (Units=1/GPa)
#
#
# Indices 1 2 3 4 5 6 
#
# 1 0.009908 -0.002672 -0.001094 0.000000 0.000000 0.000000
# 2 -0.002672 0.011488 -0.003297 0.000000 0.000000 0.000000
# 3 -0.001094 -0.003297 0.008429 0.000000 0.000000 0.000000
# 4 0.000000 0.000000 0.000000 0.081851 0.000000 0.000000
# 5 0.000000 0.000000 0.000000 0.000000 0.008198 0.000000
# 6 0.000000 0.000000 0.000000 0.000000 0.000000 0.121353
#
#
# Mechanical properties :
#
#
# Convention : Reuss Voigt Hill
#
# Bulk Modulus (GPa) = 63.70153 64.62730 64.16442
# Shear Modulus (GPa) = 19.18752 45.35068 32.26910
#
# Velocity S-wave (km/s) = 3.12931 4.81096 4.05820
# Velocity P-wave (km/s) = 6.75039 7.99023 7.39633
#
# Compressibility (1/GPa) = 0.01569821
#
# Stress axis : x y z
#
# Youngs Moduli (GPa) = 100.92438 87.05061 118.64414
#
# Poissons Ratio (x) = 0.23259 0.12984
# Poissons Ratio (y) = 0.26966 0.39115
# Poissons Ratio (z) = 0.11045 0.28699
#
# Static dielectric constant tensor:
#      x y z
#    x 1.790430 0.000000 0.000000 
#    y 0.000000 1.707640 0.000000 
#    z 0.000000 0.000000 1.692620 
# 
# From -- ./inp_files/63840.got.cif
#   From: 2010.05.17/outbox.cif.g08.bks.cpg/sg66_32_cif.got.tgz:63840.got - 2010.06.03 17:51:23.
