data_PCOD9499471
_publ_section_title
;
Structure prediction by ZEFSAII (Michael W. Deem and Ramdas Pophale) SiO2 
 PCOD9499471
Probable space group: C C C M
;
_chemical_formula_sum "Si O2"
_cell_formula_units_Z 112
_cell_length_a 25.387583
_cell_length_b 14.671846
_cell_length_c 16.632234
_cell_angle_alpha 90.000000
_cell_angle_beta 90.000000
_cell_angle_gamma 90.000000
_cell_volume 6195.219562
_symmetry_space_group_name_H-M "C C C M"
_symmetry_group_IT_number 66
_symmetry_cell_setting 'orthorhombic'
loop_
_space_group_symop_operation_xyz
x,y,z
-x,-y,z
x,-y,1/2-z
-x,y,1/2-z
-x,-y,-z
x,y,-z
-x,y,1/2+z
x,-y,1/2+z
1/2+x,1/2+y,z
1/2-x,1/2-y,z
1/2+x,1/2-y,1/2-z
1/2-x,1/2+y,1/2-z
1/2-x,1/2-y,-z
1/2+x,1/2+y,-z
1/2-x,1/2+y,1/2+z
1/2+x,1/2-y,1/2+z
loop_
_atom_site_type_symbol
_atom_site_label
_atom_site_fract_x
_atom_site_fract_y
_atom_site_fract_z
Si Si1 0.338964 0.997910 0.843054
Si Si2 0.604694 0.173979 0.905731
Si Si3 0.005874 0.605923 0.598223
Si Si4 0.701470 0.316398 0.344047
Si Si5 0.696587 0.697910 0.346543
Si Si6 0.727800 0.514718 0.406868
Si Si7 0.118826 0.318286 0.904254
O O1 0.374282 0.928637 0.893102
O O2 0.279012 0.966833 0.852286
O O3 0.354556 0.000000 0.750000
O O4 0.344132 0.097631 0.879523
O O5 0.544358 0.166591 0.877298
O O6 0.645745 0.238815 0.860479
O O7 0.606016 0.197293 0.000000
O O8 0.005724 0.603344 0.500000
O O9 0.000000 0.500000 0.624761
O O10 0.060723 0.651364 0.624122
O O11 0.750000 0.250000 0.370441
O O12 0.703924 0.321384 0.247755
O O13 0.706296 0.416309 0.381854
O O14 0.646445 0.269806 0.367812
O O15 0.750000 0.750000 0.375274
O O16 0.691021 0.601670 0.391613
O O17 0.743867 0.512589 0.500000
O O18 0.117268 0.309180 0.000000
#
# Coordination Sequence:
#
# PCOD9499471 Si02
#       7
#    16  16  16  16  16  16  16
#     4  12  22  33  51  82 120 153 186 231 284 333
#     4  11  21  36  58  83 114 153 196 233 276 335
#     4   9  18  34  56  85 116 149 188 238 283 323
#     4  11  23  38  57  83 119 152 184 231 290 338
#     4  11  23  38  57  83 119 152 184 231 290 338
#     4  12  24  38  59  84 111 150 197 233 277 339
#     4  11  21  36  58  83 114 153 196 233 276 335
#
# _framework density 18.078455000000002
#
# number of rings (size 3 to 8) (size 9 to 14) (size 15 to 20)
#    0.000    1.000    4.286    4.286    0.000    1.143 
#    0.000    3.571    0.000    0.857    0.000    6.000 
#    0.000    0.000    0.000    0.000    0.000    0.000 
#
# Total GULP energy -312784.955004 kJ/mol
# GULP energy per Si atom -5585.445625 kJ/mol
# Density = 1.803731 g / cm^3
# Si number density = 18.078455 Si / 1000 Ang^3
#
#
#
# Elastic Constant Matrix: (Units=GPa)
#
#
# Indices 1 2 3 4 5 6 
#
# 1 94.2262 30.7817 5.8845 0.0000 0.0000 0.0000
# 2 30.7817 95.4129 16.1232 0.0000 0.0000 0.0000
# 3 5.8845 16.1232 42.6311 0.0000 0.0000 0.0000
# 4 0.0000 0.0000 0.0000 20.3328 0.0000 0.0000
# 5 0.0000 0.0000 0.0000 0.0000 11.8457 0.0000
# 6 0.0000 0.0000 0.0000 0.0000 0.0000 29.5256
#
#
#
# Elastic Compliance Matrix: (Units=1/GPa)
#
#
# Indices 1 2 3 4 5 6 
#
# 1 0.011865 -0.003793 -0.000203 0.000000 0.000000 0.000000
# 2 -0.003793 0.012409 -0.004170 0.000000 0.000000 0.000000
# 3 -0.000203 -0.004170 0.025062 0.000000 0.000000 0.000000
# 4 0.000000 0.000000 0.000000 0.049182 0.000000 0.000000
# 5 0.000000 0.000000 0.000000 0.000000 0.084419 0.000000
# 6 0.000000 0.000000 0.000000 0.000000 0.000000 0.033869
#
#
# Mechanical properties :
#
#
# Convention : Reuss Voigt Hill
#
# Bulk Modulus (GPa) = 30.29951 37.53876 33.91913
# Shear Modulus (GPa) = 20.48018 24.30619 22.39318
#
# Velocity S-wave (km/s) = 3.36943 3.67070 3.52329
# Velocity P-wave (km/s) = 5.65100 6.22694 5.94595
#
# Compressibility (1/GPa) = 0.03300384
#
# Stress axis : x y z
#
# Youngs Moduli (GPa) = 84.28383 80.58554 39.90097
#
# Poissons Ratio (x) = 0.30569 0.00810
# Poissons Ratio (y) = 0.31972 0.16637
# Poissons Ratio (z) = 0.01711 0.33601
#
# Static dielectric constant tensor:
#      x y z
#    x 1.635590 0.000000 0.000000 
#    y 0.000000 1.598050 0.000000 
#    z 0.000000 0.000000 1.623260 
# 
# From -- ./inp_files/28663.got.cif
#   From: 2010.05.17/outbox.cif.g08.bks.cpg/sg66_15_cif.got.tgz:28663.got - 2010.06.03 17:51:23.
