data_PCOD9499738
_publ_section_title
;
Structure prediction by ZEFSAII (Michael W. Deem and Ramdas Pophale) SiO2 
 PCOD9499738
Probable space group: C C C M
;
_chemical_formula_sum "Si O2"
_cell_formula_units_Z 104
_cell_length_a 7.812416
_cell_length_b 30.100815
_cell_length_c 21.879648
_cell_angle_alpha 90.000000
_cell_angle_beta 90.000000
_cell_angle_gamma 90.000000
_cell_volume 5145.219965
_symmetry_space_group_name_H-M "C C C M"
_symmetry_group_IT_number 66
_symmetry_cell_setting 'orthorhombic'
loop_
_space_group_symop_operation_xyz
x,y,z
-x,-y,z
x,-y,1/2-z
-x,y,1/2-z
-x,-y,-z
x,y,-z
-x,y,1/2+z
x,-y,1/2+z
1/2+x,1/2+y,z
1/2-x,1/2-y,z
1/2+x,1/2-y,1/2-z
1/2-x,1/2+y,1/2-z
1/2-x,1/2-y,-z
1/2+x,1/2+y,-z
1/2-x,1/2+y,1/2+z
1/2+x,1/2-y,1/2+z
loop_
_atom_site_type_symbol
_atom_site_label
_atom_site_fract_x
_atom_site_fract_y
_atom_site_fract_z
Si Si1 0.037057 0.450935 0.429734
Si Si2 0.536611 0.302181 0.500000
Si Si3 0.841606 0.709758 0.791153
Si Si4 0.448323 0.547627 0.069617
Si Si5 0.551332 0.198967 0.500000
Si Si6 0.936125 0.140827 0.880083
Si Si7 0.500000 0.676292 0.750000
Si Si8 0.028826 0.642899 0.119634
O O1 0.971761 0.449014 0.500000
O O2 0.242890 0.448608 0.432773
O O3 0.971934 0.407854 0.393618
O O4 0.000000 0.500000 0.404478
O O5 0.488760 0.249994 0.500000
O O6 0.742693 0.302723 0.500000
O O7 0.473033 0.327280 0.561603
O O8 0.750000 0.750000 0.829225
O O9 0.688397 0.697573 0.745807
O O10 0.081383 0.669495 0.669627
O O11 0.000000 0.725580 0.750000
O O12 0.500000 0.500000 0.096467
O O13 0.504521 0.592039 0.102847
O O14 0.515151 0.548589 0.000000
O O15 0.488804 0.172103 0.441310
O O16 0.731831 0.140093 0.868188
O O17 0.019661 0.153969 0.816228
#
# Coordination Sequence:
#
# PCOD9499738 Si02
#       8
#    16   8  16  16   8  16   8  16
#     4   9  18  35  60  94 131 168 212 267 334 400
#     4  11  25  41  62  91 129 173 225 271 337 402
#     4  12  26  46  68  94 129 179 233 282 332 399
#     4   9  18  35  61  93 127 166 219 275 330 400
#     4  11  25  39  58  93 130 168 218 281 333 399
#     4  11  23  43  66  94 132 176 223 276 340 407
#     4  12  26  44  67  96 130 178 231 272 336 402
#     4  11  23  42  67  95 135 172 221 279 338 399
#
# _framework density 20.212935999999999
#
# number of rings (size 3 to 8) (size 9 to 14) (size 15 to 20)
#    0.000    1.385    3.846    1.385    4.308    3.692 
#    0.000    0.385    0.000    0.462    0.000    0.000 
#    0.000    0.000    0.000    0.000    0.000    0.000 
#
# Total GULP energy -289953.374678 kJ/mol
# GULP energy per Si atom -5576.026436 kJ/mol
# Density = 2.016693 g / cm^3
# Si number density = 20.212936 Si / 1000 Ang^3
#
#
#
# Elastic Constant Matrix: (Units=GPa)
#
#
# Indices 1 2 3 4 5 6 
#
# 1 85.8312 41.9051 24.1657 0.0000 0.0000 0.0000
# 2 41.9051 175.6515 54.6189 0.0000 0.0000 0.0000
# 3 24.1657 54.6189 79.5614 0.0000 0.0000 0.0000
# 4 0.0000 0.0000 0.000015264.7349 0.0000 0.0000
# 5 0.0000 0.0000 0.0000 0.0000 22.0796 0.0000
# 6 0.0000 0.0000 0.0000 0.0000 0.0000 32.2171
#
#
#
# Elastic Compliance Matrix: (Units=1/GPa)
#
#
# Indices 1 2 3 4 5 6 
#
# 1 0.013541 -0.002481 -0.002409 0.000000 0.000000 0.000000
# 2 -0.002481 0.007693 -0.004528 0.000000 0.000000 0.000000
# 3 -0.002409 -0.004528 0.016409 0.000000 0.000000 0.000000
# 4 0.000000 0.000000 0.000000 0.000066 0.000000 0.000000
# 5 0.000000 0.000000 0.000000 0.000000 0.045291 0.000000
# 6 0.000000 0.000000 0.000000 0.000000 0.000000 0.031039
#
#
# Mechanical properties :
#
#
# Convention : Reuss Voigt Hill
#
# Bulk Modulus (GPa) = 53.17445 64.71375 58.94410
# Shear Modulus (GPa) = 35.93431 3078.49660 1557.21546
#
# Velocity S-wave (km/s) = 4.22096 39.06839 27.78629
# Velocity P-wave (km/s) = 7.07952 45.46652 32.53709
#
# Compressibility (1/GPa) = 0.01880602
#
# Stress axis : x y z
#
# Youngs Moduli (GPa) = 73.85240 129.99072 60.94252
#
# Poissons Ratio (x) = 0.32252 0.14684
# Poissons Ratio (y) = 0.18324 0.27592
# Poissons Ratio (z) = 0.17794 0.58854
#
# Static dielectric constant tensor:
#      x y z
#    x 1.748430 0.000000 0.000000 
#    y 0.000000 1.786700 0.000000 
#    z 0.000000 0.000000 1.593570 
# 
# From -- ./inp_files/47447.got.cif
#   From: 2010.05.17/outbox.cif.g08.bks.cpg/sg66_24_cif.got.tgz:47447.got - 2010.06.03 17:51:23.
