data_PCOD9499551
_publ_section_title
;
Structure prediction by ZEFSAII (Michael W. Deem and Ramdas Pophale) SiO2 
 PCOD9499551
Probable space group: C C C M
;
_chemical_formula_sum "Si O2"
_cell_formula_units_Z 32
_cell_length_a 11.161561
_cell_length_b 7.888637
_cell_length_c 13.893997
_cell_angle_alpha 90.000000
_cell_angle_beta 90.000000
_cell_angle_gamma 90.000000
_cell_volume 1223.359532
_symmetry_space_group_name_H-M "C C C M"
_symmetry_group_IT_number 66
_symmetry_cell_setting 'orthorhombic'
loop_
_space_group_symop_operation_xyz
x,y,z
-x,-y,z
x,-y,1/2-z
-x,y,1/2-z
-x,-y,-z
x,y,-z
-x,y,1/2+z
x,-y,1/2+z
1/2+x,1/2+y,z
1/2-x,1/2-y,z
1/2+x,1/2-y,1/2-z
1/2-x,1/2+y,1/2-z
1/2-x,1/2-y,-z
1/2+x,1/2+y,-z
1/2-x,1/2+y,1/2+z
1/2+x,1/2-y,1/2+z
loop_
_atom_site_type_symbol
_atom_site_label
_atom_site_fract_x
_atom_site_fract_y
_atom_site_fract_z
Si Si1 0.145846 0.371864 0.333246
Si Si2 0.763297 0.916686 0.000000
Si Si3 0.002593 0.177460 0.000000
O O1 0.109742 0.500000 0.250000
O O2 0.250000 0.250000 0.292222
O O3 0.216154 0.488251 0.407328
O O4 0.048982 0.270749 0.400625
O O5 0.850810 0.742283 0.000000
O O6 0.905944 0.005669 0.000000
#
# Coordination Sequence:
#
# PCOD9499551 Si02
#       3
#    16   8   8
#     4  11  23  43  73 114 151 193 258 315 376 456
#     4  11  23  45  73 105 151 202 244 311 382 451
#     4  11  21  47  81 102 144 211 248 299 390 454
#
# _framework density 26.157475999999999
#
# number of rings (size 3 to 8) (size 9 to 14) (size 15 to 20)
#    0.000    1.000    5.000    3.000    0.000    4.000 
#    0.000   20.000    0.000    0.000    0.000    1.750 
#    0.000    0.000    0.000    0.000    0.000    0.000 
#
# Total GULP energy -89292.988125 kJ/mol
# GULP energy per Si atom -5580.811758 kJ/mol
# Density = 2.609794 g / cm^3
# Si number density = 26.157476 Si / 1000 Ang^3
#
#
#
# Elastic Constant Matrix: (Units=GPa)
#
#
# Indices 1 2 3 4 5 6 
#
# 1 296.6638 115.1635 102.1392 0.0000 0.0000 0.0000
# 2 115.1635 215.5452 85.1749 0.0000 0.0000 0.0000
# 3 102.1392 85.1749 171.8659 0.0000 0.0000 0.0000
# 4 0.0000 0.0000 0.0000 37.0461 0.0000 0.0000
# 5 0.0000 0.0000 0.0000 0.0000 -4.4285 0.0000
# 6 0.0000 0.0000 0.0000 0.0000 0.0000 40.7585
#
#
#
# Elastic Compliance Matrix: (Units=1/GPa)
#
#
# Indices 1 2 3 4 5 6 
#
# 1 0.004719 -0.001757 -0.001933 0.000000 0.000000 0.000000
# 2 -0.001757 0.006424 -0.002139 0.000000 0.000000 0.000000
# 3 -0.001933 -0.002139 0.008028 0.000000 0.000000 0.000000
# 4 0.000000 0.000000 0.000000 0.026993 0.000000 0.000000
# 5 0.000000 0.000000 0.000000 0.000000 -0.225808 0.000000
# 6 0.000000 0.000000 0.000000 0.000000 0.000000 0.024535
#
#
# Mechanical properties :
#
#
# Convention : Reuss Voigt Hill
#
# Bulk Modulus (GPa) = 133.14964 143.22554 138.18759
# Shear Modulus (GPa) = -35.47425 40.11504 2.32039
#
# Velocity S-wave (km/s) = -3.68663 3.92037 0.94287
# Velocity P-wave (km/s) = 5.73515 8.68138 7.35725
#
# Compressibility (1/GPa) = 0.00751035
#
# Stress axis : x y z
#
# Youngs Moduli (GPa) = 211.92840 155.67820 124.56871
#
# Poissons Ratio (x) = 0.27354 0.24085
# Poissons Ratio (y) = 0.37237 0.26648
# Poissons Ratio (z) = 0.40975 0.33303
#
# Static dielectric constant tensor:
#      x y z
#    x 2.303420 0.000000 0.000000 
#    y 0.000000 2.130140 0.000000 
#    z 0.000000 0.000000 2.242810 
# 
# From -- ./inp_files/12631.got.cif
#   From: 2010.05.17/outbox.cif.g08.bks.cpg/sg66_7_cif.got.tgz:12631.got - 2010.06.03 17:51:23.
