data_PCOD9499494
_publ_section_title
;
Structure prediction by ZEFSAII (Michael W. Deem and Ramdas Pophale) SiO2 
 PCOD9499494
Probable space group: C C C M
;
_chemical_formula_sum "Si O2"
_cell_formula_units_Z 68
_cell_length_a 12.322232
_cell_length_b 15.125129
_cell_length_c 18.721983
_cell_angle_alpha 90.000000
_cell_angle_beta 90.000000
_cell_angle_gamma 90.000000
_cell_volume 3489.316108
_symmetry_space_group_name_H-M "C C C M"
_symmetry_group_IT_number 66
_symmetry_cell_setting 'orthorhombic'
loop_
_space_group_symop_operation_xyz
x,y,z
-x,-y,z
x,-y,1/2-z
-x,y,1/2-z
-x,-y,-z
x,y,-z
-x,y,1/2+z
x,-y,1/2+z
1/2+x,1/2+y,z
1/2-x,1/2-y,z
1/2+x,1/2-y,1/2-z
1/2-x,1/2+y,1/2-z
1/2-x,1/2-y,-z
1/2+x,1/2+y,-z
1/2-x,1/2+y,1/2+z
1/2+x,1/2-y,1/2+z
loop_
_atom_site_type_symbol
_atom_site_label
_atom_site_fract_x
_atom_site_fract_y
_atom_site_fract_z
Si Si1 0.984060 0.326468 0.349510
Si Si2 0.535556 0.100732 0.000000
Si Si3 0.116988 0.854253 0.156299
Si Si4 0.826293 0.603200 0.260995
Si Si5 0.784509 0.147373 0.000000
Si Si6 0.000000 0.000000 0.750000
O O1 0.988013 0.348735 0.431958
O O2 0.035946 0.229408 0.337517
O O3 0.071457 0.392691 0.314167
O O4 0.871300 0.347579 0.309784
O O5 0.500000 0.000000 0.000000
O O6 0.667041 0.100896 0.000000
O O7 0.229026 0.845982 0.200227
O O8 0.063954 0.936731 0.196017
O O9 0.149391 0.868940 0.073216
O O10 0.798640 0.500000 0.250000
O O11 0.750000 0.250000 0.000000
#
# Coordination Sequence:
#
# PCOD9499494 Si02
#       6
#    16   8  16  16   8   4
#     4  11  22  37  65  97 130 173 219 281 338 401
#     4  12  22  36  64 104 134 167 224 280 343 403
#     4  12  24  44  65  97 135 176 234 274 342 410
#     4  11  21  38  61  93 131 169 220 283 334 393
#     4  12  22  43  70  97 130 184 223 276 342 412
#     4  12  28  42  68  98 130 190 224 284 348 404
#
# _framework density 19.488060000000001
#
# number of rings (size 3 to 8) (size 9 to 14) (size 15 to 20)
#    0.000    0.471    5.882    4.941    0.000    0.471 
#    0.000    0.000    0.000    0.000    0.000   19.765 
#    0.000    0.000    0.000    0.000    0.000    0.000 
#
# Total GULP energy -189853.386454 kJ/mol
# GULP energy per Si atom -5583.923131 kJ/mol
# Density = 1.944370 g / cm^3
# Si number density = 19.488060 Si / 1000 Ang^3
#
#
#
# Elastic Constant Matrix: (Units=GPa)
#
#
# Indices 1 2 3 4 5 6 
#
# 1 85.9744 57.7476 64.7268 0.0000 0.0000 0.0000
# 2 57.7476 144.1208 68.4469 0.0000 0.0000 0.0000
# 3 64.7268 68.4469 205.6421 0.0000 0.0000 0.0000
# 4 0.0000 0.0000 0.0000 34.3220 0.0000 0.0000
# 5 0.0000 0.0000 0.0000 0.0000 31.9318 0.0000
# 6 0.0000 0.0000 0.0000 0.0000 0.0000 21.2437
#
#
#
# Elastic Compliance Matrix: (Units=1/GPa)
#
#
# Indices 1 2 3 4 5 6 
#
# 1 0.018248 -0.005445 -0.003932 0.000000 0.000000 0.000000
# 2 -0.005445 0.009866 -0.001570 0.000000 0.000000 0.000000
# 3 -0.003932 -0.001570 0.006623 0.000000 0.000000 0.000000
# 4 0.000000 0.000000 0.000000 0.029136 0.000000 0.000000
# 5 0.000000 0.000000 0.000000 0.000000 0.031317 0.000000
# 6 0.000000 0.000000 0.000000 0.000000 0.000000 0.047073
#
#
# Mechanical properties :
#
#
# Convention : Reuss Voigt Hill
#
# Bulk Modulus (GPa) = 77.85399 90.84221 84.34810
# Shear Modulus (GPa) = 29.68471 33.82055 31.75263
#
# Velocity S-wave (km/s) = 3.90709 4.17039 4.04088
# Velocity P-wave (km/s) = 7.77111 8.36092 8.07140
#
# Compressibility (1/GPa) = 0.01284456
#
# Stress axis : x y z
#
# Youngs Moduli (GPa) = 54.79930 101.35881 150.99202
#
# Poissons Ratio (x) = 0.55187 0.59363
# Poissons Ratio (y) = 0.29837 0.23707
# Poissons Ratio (z) = 0.21544 0.15914
#
# Static dielectric constant tensor:
#      x y z
#    x 1.742660 0.000000 0.000000 
#    y 0.000000 1.735330 0.000000 
#    z 0.000000 0.000000 1.592970 
# 
# From -- ./inp_files/48276.got.cif
#   From: 2010.05.17/outbox.cif.g08.bks.cpg/sg66_25_cif.got.tgz:48276.got - 2010.06.03 17:51:23.
