data_PCOD9499541
_publ_section_title
;
Structure prediction by ZEFSAII (Michael W. Deem and Ramdas Pophale) SiO2 
 PCOD9499541
Probable space group: C C C M
;
_chemical_formula_sum "Si O2"
_cell_formula_units_Z 64
_cell_length_a 11.859768
_cell_length_b 12.150283
_cell_length_c 22.111964
_cell_angle_alpha 90.000000
_cell_angle_beta 90.000000
_cell_angle_gamma 90.000000
_cell_volume 3186.323786
_symmetry_space_group_name_H-M "C C C M"
_symmetry_group_IT_number 66
_symmetry_cell_setting 'orthorhombic'
loop_
_space_group_symop_operation_xyz
x,y,z
-x,-y,z
x,-y,1/2-z
-x,y,1/2-z
-x,-y,-z
x,y,-z
-x,y,1/2+z
x,-y,1/2+z
1/2+x,1/2+y,z
1/2-x,1/2-y,z
1/2+x,1/2-y,1/2-z
1/2-x,1/2+y,1/2-z
1/2-x,1/2-y,-z
1/2+x,1/2+y,-z
1/2-x,1/2+y,1/2+z
1/2+x,1/2-y,1/2+z
loop_
_atom_site_type_symbol
_atom_site_label
_atom_site_fract_x
_atom_site_fract_y
_atom_site_fract_z
Si Si1 0.017244 0.665781 0.178589
Si Si2 0.921991 0.105144 0.368832
Si Si3 0.318348 0.010933 0.132186
Si Si4 0.122792 0.202143 0.000000
Si Si5 0.881472 0.554520 0.000000
O O1 0.986220 0.791381 0.161660
O O2 0.918377 0.594768 0.148139
O O3 0.000000 0.651954 0.250000
O O4 0.134900 0.607176 0.156942
O O5 0.904544 0.139515 0.438816
O O6 0.798798 0.064800 0.344742
O O7 0.000000 0.000000 0.364281
O O8 0.314123 0.016816 0.059401
O O9 0.250000 0.250000 0.000000
O O10 0.069608 0.321258 0.000000
O O11 0.000000 0.500000 0.000000
#
# Coordination Sequence:
#
# PCOD9499541 Si02
#       5
#    16  16  16   8   8
#     4  11  24  45  66  93 128 177 232 277 324 389
#     4  12  25  42  64 102 139 169 218 272 342 408
#     4  11  21  42  71  97 125 171 222 275 330 397
#     4  12  19  40  69  92 129 173 212 271 333 397
#     4  12  18  34  72 100 121 158 220 278 328 395
#
# _framework density 20.085844000000002
#
# number of rings (size 3 to 8) (size 9 to 14) (size 15 to 20)
#    0.000    0.500    7.500    2.625    0.000    1.500 
#   13.500    0.000    0.000    6.000    0.000    0.000 
#    0.000    0.000    0.000    0.000    0.000    0.000 
#
# Total GULP energy -178268.410207 kJ/mol
# GULP energy per Si atom -5570.887819 kJ/mol
# Density = 2.004013 g / cm^3
# Si number density = 20.085844 Si / 1000 Ang^3
#
#
#
# Elastic Constant Matrix: (Units=GPa)
#
#
# Indices 1 2 3 4 5 6 
#
# 1 50.9136 66.3868 -6.8256 0.0000 0.0000 0.0000
# 2 66.3868 170.4906 30.0066 0.0000 0.0000 0.0000
# 3 -6.8256 30.0066 114.4060 0.0000 0.0000 0.0000
# 4 0.0000 0.0000 0.0000 -58.9347 0.0000 0.0000
# 5 0.0000 0.0000 0.0000 0.0000 -102.2687 0.0000
# 6 0.0000 0.0000 0.0000 0.0000 0.0000 41.3432
#
#
#
# Elastic Compliance Matrix: (Units=1/GPa)
#
#
# Indices 1 2 3 4 5 6 
#
# 1 0.045612 -0.019123 0.007737 0.000000 0.000000 0.000000
# 2 -0.019123 0.014166 -0.004856 0.000000 0.000000 0.000000
# 3 0.007737 -0.004856 0.010476 0.000000 0.000000 0.000000
# 4 0.000000 0.000000 0.000000 -0.016968 0.000000 0.000000
# 5 0.000000 0.000000 0.000000 0.000000 -0.009778 0.000000
# 6 0.000000 0.000000 0.000000 0.000000 0.000000 0.024188
#
#
# Mechanical properties :
#
#
# Convention : Reuss Voigt Hill
#
# Bulk Modulus (GPa) = 26.47573 57.21617 41.84595
# Shear Modulus (GPa) = 44.33764 -7.55587 18.39089
#
# Velocity S-wave (km/s) = 4.70340 -1.94164 3.02919
# Velocity P-wave (km/s) = 6.53498 4.84985 5.75443
#
# Compressibility (1/GPa) = 0.03777044
#
# Stress axis : x y z
#
# Youngs Moduli (GPa) = 21.92385 70.59038 95.45499
#
# Poissons Ratio (x) = 1.34987 -0.73852
# Poissons Ratio (y) = 0.41924 0.46357
# Poissons Ratio (z) = -0.16962 0.34282
#
# Static dielectric constant tensor:
#      x y z
#    x 1.719280 0.000000 0.000000 
#    y 0.000000 1.664620 0.000000 
#    z 0.000000 0.000000 1.749370 
# 
# From -- ./inp_files/56334.got.cif
#   From: 2010.05.17/outbox.cif.g08.bks.cpg/sg66_29_cif.got.tgz:56334.got - 2010.06.03 17:51:23.
