data_PCOD9499872
_publ_section_title
;
Structure prediction by ZEFSAII (Michael W. Deem and Ramdas Pophale) SiO2 
 PCOD9499872
Probable space group: C C C M
;
_chemical_formula_sum "Si O2"
_cell_formula_units_Z 80
_cell_length_a 11.393713
_cell_length_b 10.051848
_cell_length_c 27.347797
_cell_angle_alpha 90.000000
_cell_angle_beta 90.000000
_cell_angle_gamma 90.000000
_cell_volume 3132.084973
_symmetry_space_group_name_H-M "C C C M"
_symmetry_group_IT_number 66
_symmetry_cell_setting 'orthorhombic'
loop_
_space_group_symop_operation_xyz
x,y,z
-x,-y,z
x,-y,1/2-z
-x,y,1/2-z
-x,-y,-z
x,y,-z
-x,y,1/2+z
x,-y,1/2+z
1/2+x,1/2+y,z
1/2-x,1/2-y,z
1/2+x,1/2-y,1/2-z
1/2-x,1/2+y,1/2-z
1/2-x,1/2-y,-z
1/2+x,1/2+y,-z
1/2-x,1/2+y,1/2+z
1/2+x,1/2-y,1/2+z
loop_
_atom_site_type_symbol
_atom_site_label
_atom_site_fract_x
_atom_site_fract_y
_atom_site_fract_z
Si Si1 0.381457 0.702878 0.355943
Si Si2 0.300999 0.957309 0.943783
Si Si3 0.032044 0.281676 0.053599
Si Si4 0.567665 0.173556 0.800889
Si Si5 0.798565 0.060708 0.165489
O O1 0.250000 0.750000 0.361311
O O2 0.438192 0.670181 0.407536
O O3 0.461422 0.824891 0.338961
O O4 0.369279 0.573421 0.322812
O O5 0.404008 0.846252 0.941018
O O6 0.226845 0.938308 0.893531
O O7 0.372252 0.097967 0.941633
O O8 0.251299 0.947921 0.000000
O O9 0.044241 0.226086 0.000000
O O10 0.500000 0.169453 0.750000
O O11 0.671422 0.069564 0.808731
O O12 0.629902 0.313650 0.814545
#
# Coordination Sequence:
#
# PCOD9499872 Si02
#       5
#    16  16  16  16  16
#     4  12  24  40  72 107 142 181 239 299 363 434
#     4   9  17  36  68 106 149 197 244 292 350 435
#     4   9  18  35  64 106 155 196 237 294 356 428
#     4  11  28  52  70  96 141 181 246 310 380 447
#     4  11  24  46  76 105 139 195 235 299 375 442
#
# _framework density 25.542090000000002
#
# number of rings (size 3 to 8) (size 9 to 14) (size 15 to 20)
#    0.000    1.600    4.000    1.800    2.800    3.600 
#    0.000    4.000    0.000    2.400    0.000    0.000 
#    0.000    0.000    0.000    0.000    0.000    0.000 
#
# Total GULP energy -223656.500612 kJ/mol
# GULP energy per Si atom -5591.412515 kJ/mol
# Density = 2.548395 g / cm^3
# Si number density = 25.542090 Si / 1000 Ang^3
#
#
#
# Elastic Constant Matrix: (Units=GPa)
#
#
# Indices 1 2 3 4 5 6 
#
# 1 114.2189 20.7116 41.6795 0.0000 0.0000 0.0000
# 2 20.7116 74.7213 4.0073 0.0000 0.0000 0.0000
# 3 41.6795 4.0073 132.4680 0.0000 0.0000 0.0000
# 4 0.0000 0.0000 0.0000 23.3246 0.0000 0.0000
# 5 0.0000 0.0000 0.0000 0.0000 7053.8543 0.0000
# 6 0.0000 0.0000 0.0000 0.0000 0.0000 21.2924
#
#
#
# Elastic Compliance Matrix: (Units=1/GPa)
#
#
# Indices 1 2 3 4 5 6 
#
# 1 0.010413 -0.002715 -0.003194 0.000000 0.000000 0.000000
# 2 -0.002715 0.014113 0.000427 0.000000 0.000000 0.000000
# 3 -0.003194 0.000427 0.008541 0.000000 0.000000 0.000000
# 4 0.000000 0.000000 0.000000 0.042873 0.000000 0.000000
# 5 0.000000 0.000000 0.000000 0.000000 0.000142 0.000000
# 6 0.000000 0.000000 0.000000 0.000000 0.000000 0.046965
#
#
# Mechanical properties :
#
#
# Convention : Reuss Voigt Hill
#
# Bulk Modulus (GPa) = 45.24268 50.46721 47.85495
# Shear Modulus (GPa) = 35.36605 1436.69491 736.03048
#
# Velocity S-wave (km/s) = 3.72508 23.74242 16.99380
# Velocity P-wave (km/s) = 6.02106 27.77417 20.09549
#
# Compressibility (1/GPa) = 0.02210302
#
# Stress axis : x y z
#
# Youngs Moduli (GPa) = 96.03349 70.85811 117.08118
#
# Poissons Ratio (x) = 0.19238 0.37398
# Poissons Ratio (y) = 0.26073 -0.05003
# Poissons Ratio (z) = 0.30675 -0.03028
#
# Static dielectric constant tensor:
#      x y z
#    x 2.066800 0.000000 0.000000 
#    y 0.000000 2.057800 0.000000 
#    z 0.000000 0.000000 2.132250 
# 
# From -- ./inp_files/68783.got.cif
#   From: 2010.05.17/outbox.cif.g08.bks.cpg/sg66_35_cif.got.tgz:68783.got - 2010.06.03 17:51:23.
