data_PCOD9499005
_publ_section_title
;
Structure prediction by ZEFSAII (Michael W. Deem and Ramdas Pophale) SiO2 
 PCOD9499005
Probable space group: C C C M
;
_chemical_formula_sum "Si O2"
_cell_formula_units_Z 52
_cell_length_a 3.297770
_cell_length_b 13.192676
_cell_length_c 36.451757
_cell_angle_alpha 90.000000
_cell_angle_beta 90.000000
_cell_angle_gamma 90.000000
_cell_volume 1585.885127
_symmetry_space_group_name_H-M "C C C M"
_symmetry_group_IT_number 66
_symmetry_cell_setting 'orthorhombic'
loop_
_space_group_symop_operation_xyz
x,y,z
-x,-y,z
x,-y,1/2-z
-x,y,1/2-z
-x,-y,-z
x,y,-z
-x,y,1/2+z
x,-y,1/2+z
1/2+x,1/2+y,z
1/2-x,1/2-y,z
1/2+x,1/2-y,1/2-z
1/2-x,1/2+y,1/2-z
1/2-x,1/2-y,-z
1/2+x,1/2+y,-z
1/2-x,1/2+y,1/2+z
1/2+x,1/2-y,1/2+z
loop_
_atom_site_type_symbol
_atom_site_label
_atom_site_fract_x
_atom_site_fract_y
_atom_site_fract_z
Si Si1 0.708961 0.125788 0.122051
Si Si2 0.222926 0.128300 0.182455
Si Si3 0.500000 0.000000 0.750000
Si Si4 0.986501 0.665047 0.541233
O O1 0.750000 0.250000 0.120654
O O2 0.012971 0.198318 0.041873
O O3 0.597909 0.103802 0.079261
O O4 0.723974 0.108225 0.171470
O O5 0.250000 0.250000 0.186708
O O6 0.264308 0.074418 0.221725
O O7 0.208818 0.099922 0.132871
O O8 0.988328 0.618640 0.500000
#
# Coordination Sequence:
#
# PCOD9499005 Si02
#       4
#    16  16   4  16
#     4   9  17  34  55  82 121 163 200 249 317 378
#     4  10  23  40  62  88 121 161 206 265 328 389
#     4  12  28  46  68  96 122 162 224 282 336 400
#     4   9  15  24  46  83 123 161 205 252 297 365
#
# _framework density 32.789257999999997
#
# number of rings (size 3 to 8) (size 9 to 14) (size 15 to 20)
#    0.000    2.462    0.000    4.615    0.000    7.385 
#    0.000    0.000    0.000    0.000    0.000    6.462 
#    0.000    0.000    0.000    0.000    0.000    2.769 
#
# Total GULP energy -144849.963968 kJ/mol
# GULP energy per Si atom -5571.152460 kJ/mol
# Density = 3.271463 g / cm^3
# Si number density = 32.789258 Si / 1000 Ang^3
#
#
#
# Elastic Constant Matrix: (Units=GPa)
#
#
# Indices 1 2 3 4 5 6 
#
# 1 415.2044 70.4824 206.4961 0.0000 0.0000 0.0000
# 2 70.4824 147.5314 128.2158 0.0000 0.0000 0.0000
# 3 206.4961 128.2158 450.3620 0.0000 0.0000 0.0000
# 4 0.0000 0.0000 0.0000 -32.3958 0.0000 0.0000
# 5 0.0000 0.0000 0.0000 0.0000 164.1271 0.0000
# 6 0.0000 0.0000 0.0000 0.0000 0.0000 59.4464
#
#
#
# Elastic Compliance Matrix: (Units=1/GPa)
#
#
# Indices 1 2 3 4 5 6 
#
# 1 0.003132 -0.000330 -0.001342 0.000000 0.000000 0.000000
# 2 -0.000330 0.009041 -0.002423 0.000000 0.000000 0.000000
# 3 -0.001342 -0.002423 0.003526 0.000000 0.000000 0.000000
# 4 0.000000 0.000000 0.000000 -0.030868 0.000000 0.000000
# 5 0.000000 0.000000 0.000000 0.000000 0.006093 0.000000
# 6 0.000000 0.000000 0.000000 0.000000 0.000000 0.016822
#
#
# Mechanical properties :
#
#
# Convention : Reuss Voigt Hill
#
# Bulk Modulus (GPa) = 133.16738 202.60959 167.88849
# Shear Modulus (GPa) = 271.17864 78.76247 174.97055
#
# Velocity S-wave (km/s) = 9.10401 4.90642 7.31287
# Velocity P-wave (km/s) = 12.29683 9.69654 11.07328
#
# Compressibility (1/GPa) = 0.00750935
#
# Stress axis : x y z
#
# Youngs Moduli (GPa) = 319.29196 110.60239 283.64231
#
# Poissons Ratio (x) = 0.03648 0.38068
# Poissons Ratio (y) = 0.10532 0.68721
# Poissons Ratio (z) = 0.42853 0.26797
#
# Static dielectric constant tensor:
#      x y z
#    x 2.915260 0.000000 0.000000 
#    y 0.000000 2.299640 0.000000 
#    z 0.000000 0.000000 2.353890 
# 
# From -- ./inp_files/61880.got.cif
#   From: 2010.05.17/outbox.cif.g08.bks.cpg/sg66_31_cif.got.tgz:61880.got - 2010.06.03 17:51:23.
