data_PCOD9499773
_publ_section_title
;
Structure prediction by ZEFSAII (Michael W. Deem and Ramdas Pophale) SiO2 
 PCOD9499773
Probable space group: C C C M
;
_chemical_formula_sum "Si O2"
_cell_formula_units_Z 96
_cell_length_a 28.085837
_cell_length_b 12.034624
_cell_length_c 14.381948
_cell_angle_alpha 90.000000
_cell_angle_beta 90.000000
_cell_angle_gamma 90.000000
_cell_volume 4861.134207
_symmetry_space_group_name_H-M "C C C M"
_symmetry_group_IT_number 66
_symmetry_cell_setting 'orthorhombic'
loop_
_space_group_symop_operation_xyz
x,y,z
-x,-y,z
x,-y,1/2-z
-x,y,1/2-z
-x,-y,-z
x,y,-z
-x,y,1/2+z
x,-y,1/2+z
1/2+x,1/2+y,z
1/2-x,1/2-y,z
1/2+x,1/2-y,1/2-z
1/2-x,1/2+y,1/2-z
1/2-x,1/2-y,-z
1/2+x,1/2+y,-z
1/2-x,1/2+y,1/2+z
1/2+x,1/2-y,1/2+z
loop_
_atom_site_type_symbol
_atom_site_label
_atom_site_fract_x
_atom_site_fract_y
_atom_site_fract_z
Si Si1 0.802012 0.487342 0.889068
Si Si2 0.632510 0.650309 0.000000
Si Si3 0.800441 0.099658 0.179803
Si Si4 0.591670 0.030492 0.143814
Si Si5 0.867871 0.892406 0.500000
Si Si6 0.052109 0.299392 0.500000
Si Si7 0.440631 0.156886 0.000000
Si Si8 0.697313 0.240649 0.654025
O O1 0.753359 0.433550 0.851534
O O2 0.853031 0.433682 0.868912
O O3 0.811236 0.609982 0.847540
O O4 0.796696 0.497600 0.000000
O O5 0.588438 0.730975 0.000000
O O6 0.663307 0.686497 0.089547
O O7 0.618489 0.522448 0.000000
O O8 0.815828 0.000000 0.250000
O O9 0.801541 0.792191 0.255963
O O10 0.834052 0.118678 0.091101
O O11 0.576295 0.920883 0.085683
O O12 0.582027 0.000000 0.250000
O O13 0.564505 0.129992 0.092689
O O14 0.913315 0.809267 0.500000
O O15 0.994979 0.303562 0.500000
O O16 0.750000 0.250000 0.612941
#
# Coordination Sequence:
#
# PCOD9499773 Si02
#       8
#    16   8  16  16   8   8   8  16
#     4  12  22  42  66 101 135 182 233 269 325 407
#     4  12  22  42  73  97 126 184 235 277 331 408
#     4  12  25  40  63  98 140 183 225 272 325 400
#     4  11  23  44  73 101 136 174 226 283 350 414
#     4  12  27  45  62  96 144 185 219 277 352 407
#     4  11  28  46  67 103 141 169 220 301 372 401
#     4  11  24  47  72 104 125 171 240 295 346 411
#     4  12  23  37  65  97 132 178 228 276 312 392
#
# _framework density 19.748477000000001
#
# number of rings (size 3 to 8) (size 9 to 14) (size 15 to 20)
#    0.000    0.333    8.333    1.750    2.333    1.667 
#    0.000    1.250    0.000    0.000    0.000    0.000 
#    0.000    0.000    0.000    0.000    0.000    0.000 
#
# Total GULP energy -268170.551449 kJ/mol
# GULP energy per Si atom -5586.886489 kJ/mol
# Density = 1.970353 g / cm^3
# Si number density = 19.748477 Si / 1000 Ang^3
#
#
#
# Elastic Constant Matrix: (Units=GPa)
#
#
# Indices 1 2 3 4 5 6 
#
# 1 145.1089 68.9507 68.8083 0.0000 0.0000 0.0000
# 2 68.9507 107.6392 69.1215 0.0000 0.0000 0.0000
# 3 68.8083 69.1215 182.0951 0.0000 0.0000 0.0000
# 4 0.0000 0.0000 0.0000 18.3344 0.0000 0.0000
# 5 0.0000 0.0000 0.0000 0.0000 -12.4275 0.0000
# 6 0.0000 0.0000 0.0000 0.0000 0.0000 26.5259
#
#
#
# Elastic Compliance Matrix: (Units=1/GPa)
#
#
# Indices 1 2 3 4 5 6 
#
# 1 0.010355 -0.005449 -0.001845 0.000000 0.000000 0.000000
# 2 -0.005449 0.015152 -0.003693 0.000000 0.000000 0.000000
# 3 -0.001845 -0.003693 0.007590 0.000000 0.000000 0.000000
# 4 0.000000 0.000000 0.000000 0.054542 0.000000 0.000000
# 5 0.000000 0.000000 0.000000 0.000000 -0.080467 0.000000
# 6 0.000000 0.000000 0.000000 0.000000 0.000000 0.037699
#
#
# Mechanical properties :
#
#
# Convention : Reuss Voigt Hill
#
# Bulk Modulus (GPa) = 89.88371 94.28936 92.08654
# Shear Modulus (GPa) = 70.86984 21.68407 46.27696
#
# Velocity S-wave (km/s) = 5.99701 3.31722 4.84603
# Velocity P-wave (km/s) = 9.67291 7.90700 8.83419
#
# Compressibility (1/GPa) = 0.01112549
#
# Stress axis : x y z
#
# Youngs Moduli (GPa) = 96.57106 65.99884 131.74652
#
# Poissons Ratio (x) = 0.35960 0.24302
# Poissons Ratio (y) = 0.52618 0.48649
# Poissons Ratio (z) = 0.17814 0.24371
#
# Static dielectric constant tensor:
#      x y z
#    x 1.767110 0.000000 0.000000 
#    y 0.000000 1.926700 0.000000 
#    z 0.000000 0.000000 1.729260 
# 
# From -- ./inp_files/33775.got.cif
#   From: 2010.05.17/outbox.cif.g08.bks.cpg/sg66_17_cif.got.tgz:33775.got - 2010.06.03 17:51:23.
