data_PCOD9499278
_publ_section_title
;
Structure prediction by ZEFSAII (Michael W. Deem and Ramdas Pophale) SiO2 
 PCOD9499278
Probable space group: C C C M
;
_chemical_formula_sum "Si O2"
_cell_formula_units_Z 68
_cell_length_a 5.429681
_cell_length_b 20.040461
_cell_length_c 25.817291
_cell_angle_alpha 90.000000
_cell_angle_beta 90.000000
_cell_angle_gamma 90.000000
_cell_volume 2809.264897
_symmetry_space_group_name_H-M "C C C M"
_symmetry_group_IT_number 66
_symmetry_cell_setting 'orthorhombic'
loop_
_space_group_symop_operation_xyz
x,y,z
-x,-y,z
x,-y,1/2-z
-x,y,1/2-z
-x,-y,-z
x,y,-z
-x,y,1/2+z
x,-y,1/2+z
1/2+x,1/2+y,z
1/2-x,1/2-y,z
1/2+x,1/2-y,1/2-z
1/2-x,1/2+y,1/2-z
1/2-x,1/2-y,-z
1/2+x,1/2+y,-z
1/2-x,1/2+y,1/2+z
1/2+x,1/2-y,1/2+z
loop_
_atom_site_type_symbol
_atom_site_label
_atom_site_fract_x
_atom_site_fract_y
_atom_site_fract_z
Si Si1 0.660782 0.602141 0.668656
Si Si2 0.000000 0.000000 0.750000
Si Si3 0.145971 0.607717 0.610134
Si Si4 0.944082 0.194394 0.000000
Si Si5 0.250000 0.750000 0.407484
Si Si6 0.250000 0.250000 0.283549
Si Si7 0.144685 0.932695 0.500000
O O1 0.662118 0.550901 0.716169
O O2 0.395448 0.591560 0.641335
O O3 0.684652 0.680239 0.686336
O O4 0.887148 0.582459 0.631625
O O5 0.118206 0.688711 0.619050
O O6 0.194807 0.583890 0.551120
O O7 0.750000 0.250000 0.000000
O O8 0.079513 0.209710 0.946737
O O9 0.908247 0.117483 0.000000
O O10 0.500000 0.236648 0.250000
O O11 0.000000 0.000000 0.500000
#
# Coordination Sequence:
#
# PCOD9499278 Si02
#       7
#    16   4  16   8   8   8   8
#     4  12  28  51  81 113 156 200 265 316 407 472
#     4  12  32  58  80 116 160 212 252 350 400 496
#     4  11  26  47  79 114 152 208 256 317 382 476
#     4   9  19  36  69 101 142 203 247 301 373 432
#     4   9  20  39  66 109 146 190 251 312 365 439
#     4  12  24  49  82 120 152 203 259 346 407 468
#     4  10  25  50  72 112 163 211 257 321 381 470
#
# _framework density 24.205618999999999
#
# number of rings (size 3 to 8) (size 9 to 14) (size 15 to 20)
#    0.000    1.176    1.176    3.529    8.235    2.824 
#    0.000    1.176    0.000    0.000    0.000    0.000 
#    0.000    0.000    0.000    0.000    0.000    0.000 
#
# Total GULP energy -189837.884930 kJ/mol
# GULP energy per Si atom -5583.467204 kJ/mol
# Density = 2.415053 g / cm^3
# Si number density = 24.205619 Si / 1000 Ang^3
#
#
#
# Elastic Constant Matrix: (Units=GPa)
#
#
# Indices 1 2 3 4 5 6 
#
# 1 129.7962 40.8077 55.3415 0.0000 0.0000 0.0000
# 2 40.8077 163.1421 42.0353 0.0000 0.0000 0.0000
# 3 55.3415 42.0353 110.9607 0.0000 0.0000 0.0000
# 4 0.0000 0.0000 0.0000 24.8312 0.0000 0.0000
# 5 0.0000 0.0000 0.0000 0.0000 23.1397 0.0000
# 6 0.0000 0.0000 0.0000 0.0000 0.0000 17.5239
#
#
#
# Elastic Compliance Matrix: (Units=1/GPa)
#
#
# Indices 1 2 3 4 5 6 
#
# 1 0.010048 -0.001354 -0.004498 0.000000 0.000000 0.000000
# 2 -0.001354 0.006975 -0.001967 0.000000 0.000000 0.000000
# 3 -0.004498 -0.001967 0.012001 0.000000 0.000000 0.000000
# 4 0.000000 0.000000 0.000000 0.040272 0.000000 0.000000
# 5 0.000000 0.000000 0.000000 0.000000 0.043216 0.000000
# 6 0.000000 0.000000 0.000000 0.000000 0.000000 0.057065
#
#
# Mechanical properties :
#
#
# Convention : Reuss Voigt Hill
#
# Bulk Modulus (GPa) = 74.71134 75.58535 75.14834
# Shear Modulus (GPa) = 26.36046 30.81325 28.58685
#
# Velocity S-wave (km/s) = 3.30361 3.57175 3.44030
# Velocity P-wave (km/s) = 6.74419 6.95011 6.84793
#
# Compressibility (1/GPa) = 0.01338485
#
# Stress axis : x y z
#
# Youngs Moduli (GPa) = 99.52022 143.36507 83.32680
#
# Poissons Ratio (x) = 0.19416 0.37484
# Poissons Ratio (y) = 0.13478 0.16390
# Poissons Ratio (z) = 0.44769 0.28199
#
# Static dielectric constant tensor:
#      x y z
#    x 1.974920 0.000000 0.000000 
#    y 0.000000 1.949420 0.000000 
#    z 0.000000 0.000000 1.881080 
# 
# From -- ./inp_files/61382.got.cif
#   From: 2010.05.17/outbox.cif.g08.bks.cpg/sg66_31_cif.got.tgz:61382.got - 2010.06.03 17:51:23.
