data_PCOD9499811
_publ_section_title
;
Structure prediction by ZEFSAII (Michael W. Deem and Ramdas Pophale) SiO2 
 PCOD9499811
Probable space group: C C C M
;
_chemical_formula_sum "Si O2"
_cell_formula_units_Z 68
_cell_length_a 8.904611
_cell_length_b 16.390556
_cell_length_c 21.722655
_cell_angle_alpha 90.000000
_cell_angle_beta 90.000000
_cell_angle_gamma 90.000000
_cell_volume 3170.454630
_symmetry_space_group_name_H-M "C C C M"
_symmetry_group_IT_number 66
_symmetry_cell_setting 'orthorhombic'
loop_
_space_group_symop_operation_xyz
x,y,z
-x,-y,z
x,-y,1/2-z
-x,y,1/2-z
-x,-y,-z
x,y,-z
-x,y,1/2+z
x,-y,1/2+z
1/2+x,1/2+y,z
1/2-x,1/2-y,z
1/2+x,1/2-y,1/2-z
1/2-x,1/2+y,1/2-z
1/2-x,1/2-y,-z
1/2+x,1/2+y,-z
1/2-x,1/2+y,1/2+z
1/2+x,1/2-y,1/2+z
loop_
_atom_site_type_symbol
_atom_site_label
_atom_site_fract_x
_atom_site_fract_y
_atom_site_fract_z
Si Si1 0.390893 0.613491 0.136078
Si Si2 0.000000 0.000000 0.250000
Si Si3 0.536101 0.905341 0.624116
Si Si4 0.426989 0.240047 0.185865
Si Si5 0.597531 0.633754 0.500000
Si Si6 0.045435 0.678882 0.000000
O O1 0.425204 0.560184 0.197846
O O2 0.210916 0.615742 0.133590
O O3 0.476565 0.700242 0.142006
O O4 0.433706 0.588845 0.065164
O O5 0.451666 0.855397 0.675785
O O6 0.482943 0.864677 0.560404
O O7 0.500000 0.000000 0.624540
O O8 0.500000 0.262456 0.250000
O O9 0.250000 0.250000 0.182293
O O10 0.776168 0.656461 0.500000
O O11 0.523126 0.724076 0.500000
#
# Coordination Sequence:
#
# PCOD9499811 Si02
#       6
#    16   4  16  16   8   8
#     4  11  24  45  71 101 141 188 232 295 356 429
#     4  12  28  42  70 100 146 174 238 292 348 402
#     4  11  24  41  71 103 140 181 236 289 352 426
#     4  12  26  44  68  99 138 188 241 294 365 431
#     4   9  18  39  72  98 134 189 235 281 360 433
#     4   9  17  38  68 102 134 179 236 286 347 424
#
# _framework density 21.448028999999998
#
# number of rings (size 3 to 8) (size 9 to 14) (size 15 to 20)
#    0.000    1.176    3.529    2.471    3.294    0.941 
#    0.000    2.353    0.000    0.000    0.000    0.000 
#    0.000    0.000    0.000    0.000    0.000    0.000 
#
# Total GULP energy -189324.625833 kJ/mol
# GULP energy per Si atom -5568.371348 kJ/mol
# Density = 2.139921 g / cm^3
# Si number density = 21.448029 Si / 1000 Ang^3
#
#
#
# Elastic Constant Matrix: (Units=GPa)
#
#
# Indices 1 2 3 4 5 6 
#
# 1 82.8150 52.6413 21.3824 0.0000 0.0000 0.0000
# 2 52.6413 103.4686 25.8745 0.0000 0.0000 0.0000
# 3 21.3824 25.8745 153.1318 0.0000 0.0000 0.0000
# 4 0.0000 0.0000 0.0000 29.8802 0.0000 0.0000
# 5 0.0000 0.0000 0.0000 0.0000 11.5864 0.0000
# 6 0.0000 0.0000 0.0000 0.0000 0.0000 30.2770
#
#
#
# Elastic Compliance Matrix: (Units=1/GPa)
#
#
# Indices 1 2 3 4 5 6 
#
# 1 0.017995 -0.008903 -0.001008 0.000000 0.000000 0.000000
# 2 -0.008903 0.014496 -0.001206 0.000000 0.000000 0.000000
# 3 -0.001008 -0.001206 0.006875 0.000000 0.000000 0.000000
# 4 0.000000 0.000000 0.000000 0.033467 0.000000 0.000000
# 5 0.000000 0.000000 0.000000 0.000000 0.086308 0.000000
# 6 0.000000 0.000000 0.000000 0.000000 0.000000 0.033028
#
#
# Mechanical properties :
#
#
# Convention : Reuss Voigt Hill
#
# Bulk Modulus (GPa) = 58.37527 59.91240 59.14383
# Shear Modulus (GPa) = 22.71550 30.31653 26.51602
#
# Velocity S-wave (km/s) = 3.25790 3.76372 3.51991
# Velocity P-wave (km/s) = 6.43647 6.84703 6.64492
#
# Compressibility (1/GPa) = 0.01713054
#
# Stress axis : x y z
#
# Youngs Moduli (GPa) = 55.57239 68.98512 145.45594
#
# Poissons Ratio (x) = 0.61416 0.14667
# Poissons Ratio (y) = 0.49475 0.17545
# Poissons Ratio (z) = 0.05604 0.08321
#
# Static dielectric constant tensor:
#      x y z
#    x 2.184050 0.000000 0.000000 
#    y 0.000000 1.767750 0.000000 
#    z 0.000000 0.000000 1.759000 
# 
# From -- ./inp_files/46772.got.cif
#   From: 2010.05.17/outbox.cif.g08.bks.cpg/sg66_24_cif.got.tgz:46772.got - 2010.06.03 17:51:23.
