data_PCOD9499709
_publ_section_title
;
Structure prediction by ZEFSAII (Michael W. Deem and Ramdas Pophale) SiO2 
 PCOD9499709
Probable space group: C C C M
;
_chemical_formula_sum "Si O2"
_cell_formula_units_Z 64
_cell_length_a 11.777949
_cell_length_b 17.016428
_cell_length_c 16.002347
_cell_angle_alpha 90.000000
_cell_angle_beta 90.000000
_cell_angle_gamma 90.000000
_cell_volume 3207.168321
_symmetry_space_group_name_H-M "C C C M"
_symmetry_group_IT_number 66
_symmetry_cell_setting 'orthorhombic'
loop_
_space_group_symop_operation_xyz
x,y,z
-x,-y,z
x,-y,1/2-z
-x,y,1/2-z
-x,-y,-z
x,y,-z
-x,y,1/2+z
x,-y,1/2+z
1/2+x,1/2+y,z
1/2-x,1/2-y,z
1/2+x,1/2-y,1/2-z
1/2-x,1/2+y,1/2-z
1/2-x,1/2-y,-z
1/2+x,1/2+y,-z
1/2-x,1/2+y,1/2+z
1/2+x,1/2-y,1/2+z
loop_
_atom_site_type_symbol
_atom_site_label
_atom_site_fract_x
_atom_site_fract_y
_atom_site_fract_z
Si Si1 0.839157 0.309395 0.595536
Si Si2 0.748736 0.864083 0.598917
Si Si3 0.438167 0.743724 0.839850
Si Si4 0.627833 0.984231 0.151635
O O1 0.804497 0.323638 0.500000
O O2 0.750000 0.250000 0.636611
O O3 0.844763 0.393540 0.638018
O O4 0.960286 0.267146 0.598646
O O5 0.743359 0.845069 0.500000
O O6 0.653577 0.813732 0.648888
O O7 0.869054 0.834341 0.635029
O O8 0.715731 0.954761 0.611243
O O9 0.500000 0.740859 0.750000
O O10 0.500000 0.000000 0.118330
O O11 0.626826 0.000000 0.250000
#
# Coordination Sequence:
#
# PCOD9499709 Si02
#       4
#    16  16  16  16
#     4  11  24  41  65  95 130 168 214 270 331 391
#     4  11  23  41  68  99 134 175 227 279 333 399
#     4  11  23  38  65  96 133 172 216 269 332 396
#     4  11  23  40  65  99 128 167 221 275 332 386
#
# _framework density 19.955297999999999
#
# number of rings (size 3 to 8) (size 9 to 14) (size 15 to 20)
#    0.000    1.000    2.500    5.250    7.000    1.000 
#    0.000    1.250    0.000    4.500    0.000    0.000 
#    0.000    0.000    0.000    0.000    0.000    0.000 
#
# Total GULP energy -178798.173663 kJ/mol
# GULP energy per Si atom -5587.442927 kJ/mol
# Density = 1.990988 g / cm^3
# Si number density = 19.955298 Si / 1000 Ang^3
#
#
#
# Elastic Constant Matrix: (Units=GPa)
#
#
# Indices 1 2 3 4 5 6 
#
# 1 113.0485 92.1834 32.1225 0.0000 0.0000 0.0000
# 2 92.1834 163.2956 38.6527 0.0000 0.0000 0.0000
# 3 32.1225 38.6527 112.0763 0.0000 0.0000 0.0000
# 4 0.0000 0.0000 0.0000 -53.3249 0.0000 0.0000
# 5 0.0000 0.0000 0.0000 0.0000 32.3444 0.0000
# 6 0.0000 0.0000 0.0000 0.0000 0.0000 35.9529
#
#
#
# Elastic Compliance Matrix: (Units=1/GPa)
#
#
# Indices 1 2 3 4 5 6 
#
# 1 0.016673 -0.009017 -0.001669 0.000000 0.000000 0.000000
# 2 -0.009017 0.011545 -0.001397 0.000000 0.000000 0.000000
# 3 -0.001669 -0.001397 0.009883 0.000000 0.000000 0.000000
# 4 0.000000 0.000000 0.000000 -0.018753 0.000000 0.000000
# 5 0.000000 0.000000 0.000000 0.000000 0.030917 0.000000
# 6 0.000000 0.000000 0.000000 0.000000 0.000000 0.027814
#
#
# Mechanical properties :
#
#
# Convention : Reuss Voigt Hill
#
# Bulk Modulus (GPa) = 71.76614 79.37086 75.56850
# Shear Modulus (GPa) = 46.77724 18.02528 32.40126
#
# Velocity S-wave (km/s) = 4.84684 3.00873 4.03388
# Velocity P-wave (km/s) = 8.20756 7.20629 7.72317
#
# Compressibility (1/GPa) = 0.01393415
#
# Stress axis : x y z
#
# Youngs Moduli (GPa) = 59.97805 86.61844 101.18734
#
# Poissons Ratio (x) = 0.78104 0.16887
# Poissons Ratio (y) = 0.54083 0.14138
# Poissons Ratio (z) = 0.10009 0.12102
#
# Static dielectric constant tensor:
#      x y z
#    x 1.713370 0.000000 0.000000 
#    y 0.000000 1.697060 0.000000 
#    z 0.000000 0.000000 1.745230 
# 
# From -- ./inp_files/25736.got.cif
#   From: 2010.05.17/outbox.cif.g08.bks.cpg/sg66_13_cif.got.tgz:25736.got - 2010.06.03 17:51:23.
