data_PCOD9499956
_publ_section_title
;
Structure prediction by ZEFSAII (Michael W. Deem and Ramdas Pophale) SiO2 
 PCOD9499956
Probable space group: C C C M
;
_chemical_formula_sum "Si O2"
_cell_formula_units_Z 48
_cell_length_a 8.164976
_cell_length_b 11.601770
_cell_length_c 22.371627
_cell_angle_alpha 90.000000
_cell_angle_beta 90.000000
_cell_angle_gamma 90.000000
_cell_volume 2119.223366
_symmetry_space_group_name_H-M "C C C M"
_symmetry_group_IT_number 66
_symmetry_cell_setting 'orthorhombic'
loop_
_space_group_symop_operation_xyz
x,y,z
-x,-y,z
x,-y,1/2-z
-x,y,1/2-z
-x,-y,-z
x,y,-z
-x,y,1/2+z
x,-y,1/2+z
1/2+x,1/2+y,z
1/2-x,1/2-y,z
1/2+x,1/2-y,1/2-z
1/2-x,1/2+y,1/2-z
1/2-x,1/2-y,-z
1/2+x,1/2+y,-z
1/2-x,1/2+y,1/2+z
1/2+x,1/2-y,1/2+z
loop_
_atom_site_type_symbol
_atom_site_label
_atom_site_fract_x
_atom_site_fract_y
_atom_site_fract_z
Si Si1 0.663023 0.078197 0.396799
Si Si2 0.013590 0.723638 0.500000
Si Si3 0.310558 0.374844 0.230052
Si Si4 0.309233 0.433790 0.500000
O O1 0.601831 0.179808 0.440430
O O2 0.761292 0.120849 0.339512
O O3 0.500000 0.000000 0.382069
O O4 0.780060 0.002738 0.439168
O O5 0.846035 0.651933 0.500000
O O6 0.970414 0.856987 0.500000
O O7 0.240022 0.500000 0.250000
O O8 0.500000 0.377421 0.250000
O O9 0.250000 0.250000 0.253975
#
# Coordination Sequence:
#
# PCOD9499956 Si02
#       4
#    16   8  16   8
#     4   9  19  37  68 103 142 184 234 288 360 437
#     4   8  15  31  62 107 140 185 221 278 365 445
#     4  11  28  49  71 103 141 191 257 306 357 418
#     4   8  15  33  62 108 150 173 219 284 366 446
#
# _framework density 22.649806999999999
#
# number of rings (size 3 to 8) (size 9 to 14) (size 15 to 20)
#    0.000    2.667    0.000    2.000    4.667    5.333 
#    6.000    3.333    0.000   18.000    0.000    4.667 
#    0.000    0.000    0.000    0.000    0.000    0.000 
#
# Total GULP energy -133920.388899 kJ/mol
# GULP energy per Si atom -5580.016204 kJ/mol
# Density = 2.259826 g / cm^3
# Si number density = 22.649807 Si / 1000 Ang^3
#
#
#
# Elastic Constant Matrix: (Units=GPa)
#
#
# Indices 1 2 3 4 5 6 
#
# 1 116.4330 62.0495 67.3107 0.0000 0.0000 0.0000
# 2 62.0495 174.3508 50.4179 0.0000 0.0000 0.0000
# 3 67.3107 50.4179 132.7253 0.0000 0.0000 0.0000
# 4 0.0000 0.0000 0.0000 -22.1477 0.0000 0.0000
# 5 0.0000 0.0000 0.0000 0.0000 -432.8322 0.0000
# 6 0.0000 0.0000 0.0000 0.0000 0.0000 55.0995
#
#
#
# Elastic Compliance Matrix: (Units=1/GPa)
#
#
# Indices 1 2 3 4 5 6 
#
# 1 0.013564 -0.003188 -0.005668 0.000000 0.000000 0.000000
# 2 -0.003188 0.007193 -0.001115 0.000000 0.000000 0.000000
# 3 -0.005668 -0.001115 0.010832 0.000000 0.000000 0.000000
# 4 0.000000 0.000000 0.000000 -0.045151 0.000000 0.000000
# 5 0.000000 0.000000 0.000000 0.000000 -0.002310 0.000000
# 6 0.000000 0.000000 0.000000 0.000000 0.000000 0.018149
#
#
# Mechanical properties :
#
#
# Convention : Reuss Voigt Hill
#
# Bulk Modulus (GPa) = 85.86350 87.00725 86.43538
# Shear Modulus (GPa) = 191.55194 -63.72735 63.91229
#
# Velocity S-wave (km/s) = 9.20623 -5.31009 5.31779
# Velocity P-wave (km/s) = 12.28811 0.94947 8.71491
#
# Compressibility (1/GPa) = 0.01164639
#
# Stress axis : x y z
#
# Youngs Moduli (GPa) = 73.72191 139.02780 92.31482
#
# Poissons Ratio (x) = 0.44328 0.52324
# Poissons Ratio (y) = 0.23506 0.10296
# Poissons Ratio (z) = 0.41785 0.15506
#
# Static dielectric constant tensor:
#      x y z
#    x 1.860200 0.000000 0.000000 
#    y 0.000000 1.943670 0.000000 
#    z 0.000000 0.000000 1.787970 
# 
# From -- ./inp_files/54738.got.cif
#   From: 2010.05.17/outbox.cif.g08.bks.cpg/sg66_28_cif.got.tgz:54738.got - 2010.06.03 17:51:23.
