data_PCOD9499289
_publ_section_title
;
Structure prediction by ZEFSAII (Michael W. Deem and Ramdas Pophale) SiO2 
 PCOD9499289
Probable space group: C C C M
;
_chemical_formula_sum "Si O2"
_cell_formula_units_Z 104
_cell_length_a 8.946840
_cell_length_b 18.210724
_cell_length_c 29.430486
_cell_angle_alpha 90.000000
_cell_angle_beta 90.000000
_cell_angle_gamma 90.000000
_cell_volume 4795.062993
_symmetry_space_group_name_H-M "C C C M"
_symmetry_group_IT_number 66
_symmetry_cell_setting 'orthorhombic'
loop_
_space_group_symop_operation_xyz
x,y,z
-x,-y,z
x,-y,1/2-z
-x,y,1/2-z
-x,-y,-z
x,y,-z
-x,y,1/2+z
x,-y,1/2+z
1/2+x,1/2+y,z
1/2-x,1/2-y,z
1/2+x,1/2-y,1/2-z
1/2-x,1/2+y,1/2-z
1/2-x,1/2-y,-z
1/2+x,1/2+y,-z
1/2-x,1/2+y,1/2+z
1/2+x,1/2-y,1/2+z
loop_
_atom_site_type_symbol
_atom_site_label
_atom_site_fract_x
_atom_site_fract_y
_atom_site_fract_z
Si Si1 0.417057 0.608821 0.628420
Si Si2 0.581283 0.887491 0.449520
Si Si3 0.992802 0.670153 0.799970
Si Si4 0.218709 0.530615 0.698802
Si Si5 0.266580 0.117608 0.642222
Si Si6 0.250000 0.250000 0.139092
Si Si7 0.758175 0.545936 0.949968
O O1 0.353002 0.578032 0.676292
O O2 0.591658 0.620942 0.633524
O O3 0.330888 0.683203 0.614401
O O4 0.363697 0.554328 0.588830
O O5 0.601342 0.853546 0.500000
O O6 0.647471 0.856087 0.403247
O O7 0.405389 0.903498 0.442891
O O8 0.669481 0.965150 0.450740
O O9 0.919124 0.587883 0.798656
O O10 0.881126 0.715845 0.830623
O O11 0.000000 0.700958 0.750000
O O12 0.159400 0.666439 0.818966
O O13 0.245524 0.500000 0.750000
O O14 0.198665 0.464775 0.662007
O O15 0.695365 0.561729 0.000000
#
# Coordination Sequence:
#
# PCOD9499289 Si02
#       7
#    16  16  16  16  16   8  16
#     4  11  24  41  60  90 125 168 204 260 303 362
#     4   9  18  33  58  93 128 162 198 246 310 386
#     4  11  24  43  64  88 118 168 206 253 300 370
#     4  11  22  40  61  90 126 160 199 244 316 374
#     4  12  23  35  64  97 126 155 200 258 316 367
#     4  10  26  46  61  78 122 168 221 252 298 356
#     4   9  18  35  60  88 124 166 203 244 312 378
#
# _framework density 21.688974000000002
#
# number of rings (size 3 to 8) (size 9 to 14) (size 15 to 20)
#    0.000    1.538    3.077    3.692    2.154    3.692 
#    0.000    1.923    0.000    0.923    0.000    4.308 
#    0.000    0.000    0.000    0.000    0.000    0.000 
#
# Total GULP energy -290207.122938 kJ/mol
# GULP energy per Si atom -5580.906210 kJ/mol
# Density = 2.163961 g / cm^3
# Si number density = 21.688974 Si / 1000 Ang^3
#
#
#
# Elastic Constant Matrix: (Units=GPa)
#
#
# Indices 1 2 3 4 5 6 
#
# 1 88.9025 2.2229 46.4974 0.0000 0.0000 0.0000
# 2 2.2229 39.0858 -0.9669 0.0000 0.0000 0.0000
# 3 46.4974 -0.9669 127.0427 0.0000 0.0000 0.0000
# 4 0.0000 0.0000 0.0000 1.6944 0.0000 0.0000
# 5 0.0000 0.0000 0.0000 0.0000 4.3843 0.0000
# 6 0.0000 0.0000 0.0000 0.0000 0.0000 12.6580
#
#
#
# Elastic Compliance Matrix: (Units=1/GPa)
#
#
# Indices 1 2 3 4 5 6 
#
# 1 0.013944 -0.000919 -0.005111 0.000000 0.000000 0.000000
# 2 -0.000919 0.025650 0.000532 0.000000 0.000000 0.000000
# 3 -0.005111 0.000532 0.009746 0.000000 0.000000 0.000000
# 4 0.000000 0.000000 0.000000 0.590163 0.000000 0.000000
# 5 0.000000 0.000000 0.000000 0.000000 0.228089 0.000000
# 6 0.000000 0.000000 0.000000 0.000000 0.000000 0.079002
#
#
# Mechanical properties :
#
#
# Convention : Reuss Voigt Hill
#
# Bulk Modulus (GPa) = 26.07993 38.94866 32.51429
# Shear Modulus (GPa) = 5.15267 17.56584 11.35925
#
# Velocity S-wave (km/s) = 1.54301 2.84896 2.29101
# Velocity P-wave (km/s) = 3.90194 5.36832 4.69276
#
# Compressibility (1/GPa) = 0.03834367
#
# Stress axis : x y z
#
# Youngs Moduli (GPa) = 71.71461 38.98612 102.60764
#
# Poissons Ratio (x) = 0.03585 0.52438
# Poissons Ratio (y) = 0.06594 -0.05456
# Poissons Ratio (z) = 0.36650 -0.02073
#
# Static dielectric constant tensor:
#      x y z
#    x 1.749620 0.000000 0.000000 
#    y 0.000000 1.877510 0.000000 
#    z 0.000000 0.000000 1.816190 
# 
# From -- ./inp_files/68283.got.cif
#   From: 2010.05.17/outbox.cif.g08.bks.cpg/sg66_35_cif.got.tgz:68283.got - 2010.06.03 17:51:23.
