data_PCOD9499765
_publ_section_title
;
Structure prediction by ZEFSAII (Michael W. Deem and Ramdas Pophale) SiO2 
 PCOD9499765
Probable space group: C C C M
;
_chemical_formula_sum "Si O2"
_cell_formula_units_Z 88
_cell_length_a 9.358701
_cell_length_b 21.302555
_cell_length_c 22.301638
_cell_angle_alpha 90.000000
_cell_angle_beta 90.000000
_cell_angle_gamma 90.000000
_cell_volume 4446.149173
_symmetry_space_group_name_H-M "C C C M"
_symmetry_group_IT_number 66
_symmetry_cell_setting 'orthorhombic'
loop_
_space_group_symop_operation_xyz
x,y,z
-x,-y,z
x,-y,1/2-z
-x,y,1/2-z
-x,-y,-z
x,y,-z
-x,y,1/2+z
x,-y,1/2+z
1/2+x,1/2+y,z
1/2-x,1/2-y,z
1/2+x,1/2-y,1/2-z
1/2-x,1/2+y,1/2-z
1/2-x,1/2-y,-z
1/2+x,1/2+y,-z
1/2-x,1/2+y,1/2+z
1/2+x,1/2-y,1/2+z
loop_
_atom_site_type_symbol
_atom_site_label
_atom_site_fract_x
_atom_site_fract_y
_atom_site_fract_z
Si Si1 0.750000 0.750000 0.000000
Si Si2 0.977335 0.684064 0.820122
Si Si3 0.675011 0.914550 0.342557
Si Si4 0.669343 0.509769 0.071414
Si Si5 0.000000 0.500000 0.750000
Si Si6 0.790876 0.150217 0.391152
Si Si7 0.438368 0.674493 0.816376
O O1 0.773300 0.804077 0.052560
O O2 0.812637 0.678712 0.839285
O O3 0.000000 0.668389 0.750000
O O4 0.049294 0.632020 0.862230
O O5 0.056943 0.750502 0.827665
O O6 0.604221 0.958580 0.291893
O O7 0.794754 0.865611 0.319610
O O8 0.742804 0.957121 0.393422
O O9 0.500000 0.500000 0.085685
O O10 0.729746 0.577458 0.091865
O O11 0.683770 0.504048 0.000000
O O12 0.950851 0.150456 0.365542
O O13 0.500000 0.665954 0.750000
#
# Coordination Sequence:
#
# PCOD9499765 Si02
#       7
#     4  16  16  16   4  16  16
#     4  12  24  44  78 100 140 186 236 282 350 424
#     4  11  23  44  67  99 144 176 223 295 357 416
#     4  12  25  44  66  98 138 186 225 289 349 424
#     4  11  25  45  69  98 139 185 239 291 340 419
#     4  12  28  44  64  96 152 184 230 288 372 428
#     4  12  23  46  71 105 136 184 235 283 351 420
#     4  11  24  41  72 104 135 180 237 288 349 418
#
# _framework density 19.792407000000001
#
# number of rings (size 3 to 8) (size 9 to 14) (size 15 to 20)
#    0.000    0.545    5.455    2.727    2.545    2.909 
#    1.636    1.364    0.000    2.182    0.000    0.000 
#    0.000    0.000    0.000    0.000    0.000    0.000 
#
# Total GULP energy -245081.749387 kJ/mol
# GULP energy per Si atom -5570.039759 kJ/mol
# Density = 1.974736 g / cm^3
# Si number density = 19.792407 Si / 1000 Ang^3
#
#
#
# Elastic Constant Matrix: (Units=GPa)
#
#
# Indices 1 2 3 4 5 6 
#
# 1 91.1154 38.8086 23.5333 0.0000 0.0000 0.0000
# 2 38.8086 137.2423 26.2306 0.0000 0.0000 0.0000
# 3 23.5333 26.2306 79.0013 0.0000 0.0000 0.0000
# 4 0.0000 0.0000 0.0000 16.9643 0.0000 0.0000
# 5 0.0000 0.0000 0.0000 0.0000 24.6061 0.0000
# 6 0.0000 0.0000 0.0000 0.0000 0.0000 42.2922
#
#
#
# Elastic Compliance Matrix: (Units=1/GPa)
#
#
# Indices 1 2 3 4 5 6 
#
# 1 0.013050 -0.003147 -0.002842 0.000000 0.000000 0.000000
# 2 -0.003147 0.008539 -0.001898 0.000000 0.000000 0.000000
# 3 -0.002842 -0.001898 0.014135 0.000000 0.000000 0.000000
# 4 0.000000 0.000000 0.000000 0.058947 0.000000 0.000000
# 5 0.000000 0.000000 0.000000 0.000000 0.040640 0.000000
# 6 0.000000 0.000000 0.000000 0.000000 0.000000 0.023645
#
#
# Mechanical properties :
#
#
# Convention : Reuss Voigt Hill
#
# Bulk Modulus (GPa) = 50.12710 53.83379 51.98044
# Shear Modulus (GPa) = 27.56647 31.35829 29.46238
#
# Velocity S-wave (km/s) = 3.73605 3.98472 3.86238
# Velocity P-wave (km/s) = 6.63266 6.95909 6.79783
#
# Compressibility (1/GPa) = 0.01994929
#
# Stress axis : x y z
#
# Youngs Moduli (GPa) = 76.63098 117.11057 70.74709
#
# Poissons Ratio (x) = 0.36853 0.20109
# Poissons Ratio (y) = 0.24114 0.13426
# Poissons Ratio (z) = 0.21782 0.22225
#
# Static dielectric constant tensor:
#      x y z
#    x 1.744210 0.000000 0.000000 
#    y 0.000000 1.747090 0.000000 
#    z 0.000000 0.000000 1.651170 
# 
# From -- ./inp_files/55535.got.cif
#   From: 2010.05.17/outbox.cif.g08.bks.cpg/sg66_28_cif.got.tgz:55535.got - 2010.06.03 17:51:23.
