data_PCOD9499245
_publ_section_title
;
Structure prediction by ZEFSAII (Michael W. Deem and Ramdas Pophale) SiO2 
 PCOD9499245
Probable space group: C C C M
;
_chemical_formula_sum "Si O2"
_cell_formula_units_Z 60
_cell_length_a 10.884228
_cell_length_b 27.872536
_cell_length_c 9.460272
_cell_angle_alpha 90.000000
_cell_angle_beta 90.000000
_cell_angle_gamma 90.000000
_cell_volume 2869.972525
_symmetry_space_group_name_H-M "C C C M"
_symmetry_group_IT_number 66
_symmetry_cell_setting 'orthorhombic'
loop_
_space_group_symop_operation_xyz
x,y,z
-x,-y,z
x,-y,1/2-z
-x,y,1/2-z
-x,-y,-z
x,y,-z
-x,y,1/2+z
x,-y,1/2+z
1/2+x,1/2+y,z
1/2-x,1/2-y,z
1/2+x,1/2-y,1/2-z
1/2-x,1/2+y,1/2-z
1/2-x,1/2-y,-z
1/2+x,1/2+y,-z
1/2-x,1/2+y,1/2+z
1/2+x,1/2-y,1/2+z
loop_
_atom_site_type_symbol
_atom_site_label
_atom_site_fract_x
_atom_site_fract_y
_atom_site_fract_z
Si Si1 0.576793 0.435075 0.000000
Si Si2 0.500000 0.778261 0.750000
Si Si3 0.932630 0.347757 0.500000
Si Si4 0.846596 0.864385 0.000000
Si Si5 0.683186 0.294712 0.247476
Si Si6 0.291461 0.857285 0.000000
Si Si7 0.000000 0.000000 0.750000
O O1 0.577280 0.467059 0.141961
O O2 0.445947 0.406728 0.000000
O O3 0.690749 0.399063 0.000000
O O4 0.439510 0.813489 0.636237
O O5 0.416018 0.738897 0.830614
O O6 0.801532 0.375133 0.500000
O O7 0.066142 0.373710 0.500000
O O8 0.866849 0.832071 0.860981
O O9 0.750000 0.250000 0.325051
O O10 0.762271 0.324303 0.135553
#
# Coordination Sequence:
#
# PCOD9499245 Si02
#       7
#     8   8   8   8  16   8   4
#     4  11  24  45  72  95 118 148 199 266 321 395
#     4  12  22  33  50  72 120 170 224 242 283 312
#     4  12  22  35  54  82 120 164 195 245 289 344
#     4  12  23  39  59  88 122 162 210 250 304 351
#     4  12  21  35  52  80 125 179 214 249 271 335
#     4  12  23  39  59  88 122 162 210 250 304 351
#     4  10  24  48  76  96 112 146 192 260 354 394
#
# _framework density 20.906123000000001
#
# number of rings (size 3 to 8) (size 9 to 14) (size 15 to 20)
#    0.000    0.267    5.333    5.600    0.000    0.000 
#    0.000    0.000    0.000    4.800    0.000    0.000 
#    0.000    0.000    0.000    0.000    0.000    0.000 
#
# Total GULP energy -167233.922781 kJ/mol
# GULP energy per Si atom -5574.464093 kJ/mol
# Density = 2.085854 g / cm^3
# Si number density = 20.906123 Si / 1000 Ang^3
#
#
#
# Elastic Constant Matrix: (Units=GPa)
#
#
# Indices 1 2 3 4 5 6 
#
# 1 148.2348 63.4490 21.0798 0.0000 0.0000 0.0000
# 2 63.4490 96.3018 45.4170 0.0000 0.0000 0.0000
# 3 21.0798 45.4170 140.7986 0.0000 0.0000 0.0000
# 4 0.0000 0.0000 0.0000 36.0050 0.0000 0.0000
# 5 0.0000 0.0000 0.0000 0.0000 -37.0052 0.0000
# 6 0.0000 0.0000 0.0000 0.0000 0.0000 23.3000
#
#
#
# Elastic Compliance Matrix: (Units=1/GPa)
#
#
# Indices 1 2 3 4 5 6 
#
# 1 0.009454 -0.006559 0.000700 0.000000 0.000000 0.000000
# 2 -0.006559 0.016798 -0.004436 0.000000 0.000000 0.000000
# 3 0.000700 -0.004436 0.008429 0.000000 0.000000 0.000000
# 4 0.000000 0.000000 0.000000 0.027774 0.000000 0.000000
# 5 0.000000 0.000000 0.000000 0.000000 -0.027023 0.000000
# 6 0.000000 0.000000 0.000000 0.000000 0.000000 0.042919
#
#
# Mechanical properties :
#
#
# Convention : Reuss Voigt Hill
#
# Bulk Modulus (GPa) = 70.97257 71.69186 71.33222
# Shear Modulus (GPa) = 48.24561 21.48591 34.86576
#
# Velocity S-wave (km/s) = 4.80909 3.20931 4.08822
# Velocity P-wave (km/s) = 8.05347 6.93539 7.51525
#
# Compressibility (1/GPa) = 0.01408995
#
# Stress axis : x y z
#
# Youngs Moduli (GPa) = 105.77594 59.53175 118.64469
#
# Poissons Ratio (x) = 0.39047 -0.08309
# Poissons Ratio (y) = 0.69379 0.52636
# Poissons Ratio (z) = -0.07408 0.26411
#
# Static dielectric constant tensor:
#      x y z
#    x 2.185970 0.000000 0.000000 
#    y 0.000000 1.683680 0.000000 
#    z 0.000000 0.000000 1.746590 
# 
# From -- ./inp_files/3796.got.cif
#   From: 2010.05.17/outbox.cif.g08.bks.cpg/sg66_2_cif.got.tgz:3796.got - 2010.06.03 17:51:23.
