data_PCOD9499398
_publ_section_title
;
Structure prediction by ZEFSAII (Michael W. Deem and Ramdas Pophale) SiO2 
 PCOD9499398
Probable space group: C C C M
;
_chemical_formula_sum "Si O2"
_cell_formula_units_Z 48
_cell_length_a 7.977513
_cell_length_b 19.499221
_cell_length_c 13.859597
_cell_angle_alpha 90.000000
_cell_angle_beta 90.000000
_cell_angle_gamma 90.000000
_cell_volume 2155.933617
_symmetry_space_group_name_H-M "C C C M"
_symmetry_group_IT_number 66
_symmetry_cell_setting 'orthorhombic'
loop_
_space_group_symop_operation_xyz
x,y,z
-x,-y,z
x,-y,1/2-z
-x,y,1/2-z
-x,-y,-z
x,y,-z
-x,y,1/2+z
x,-y,1/2+z
1/2+x,1/2+y,z
1/2-x,1/2-y,z
1/2+x,1/2-y,1/2-z
1/2-x,1/2+y,1/2-z
1/2-x,1/2-y,-z
1/2+x,1/2+y,-z
1/2-x,1/2+y,1/2+z
1/2+x,1/2-y,1/2+z
loop_
_atom_site_type_symbol
_atom_site_label
_atom_site_fract_x
_atom_site_fract_y
_atom_site_fract_z
Si Si1 0.068021 0.574386 0.386842
Si Si2 0.678725 0.677764 0.797292
Si Si3 0.979826 0.203194 0.500000
Si Si4 0.174292 0.345930 0.500000
O O1 0.136926 0.569555 0.500000
O O2 0.190865 0.615448 0.315632
O O3 0.000000 0.500000 0.359102
O O4 0.901689 0.618986 0.405450
O O5 0.500000 0.658912 0.750000
O O6 0.750000 0.750000 0.752626
O O7 0.628633 0.697515 0.905879
O O8 0.085876 0.272653 0.500000
O O9 0.128354 0.148114 0.500000
#
# Coordination Sequence:
#
# PCOD9499398 Si02
#       4
#    16  16   8   8
#     4   9  18  40  69  97 129 175 225 278 348 409
#     4  12  24  39  66 103 137 180 232 286 342 408
#     4  11  20  38  64 100 138 165 234 290 331 400
#     4   9  18  33  68  99 127 177 216 282 342 404
#
# _framework density 22.264136000000001
#
# number of rings (size 3 to 8) (size 9 to 14) (size 15 to 20)
#    1.000    0.667    5.000    0.500    4.667    0.000 
#    0.000    3.333    0.000   17.000    0.000    0.000 
#    0.000    0.000    0.000    0.000    0.000    0.000 
#
# Total GULP energy -133807.721716 kJ/mol
# GULP energy per Si atom -5575.321738 kJ/mol
# Density = 2.221346 g / cm^3
# Si number density = 22.264136 Si / 1000 Ang^3
#
#
#
# Elastic Constant Matrix: (Units=GPa)
#
#
# Indices 1 2 3 4 5 6 
#
# 1 140.7850 74.9970 26.3300 0.0000 0.0000 0.0000
# 2 74.9970 139.2328 24.1047 0.0000 0.0000 0.0000
# 3 26.3300 24.1047 96.5943 0.0000 0.0000 0.0000
# 4 0.0000 0.0000 0.0000 8.0144 0.0000 0.0000
# 5 0.0000 0.0000 0.0000 0.0000 46.4227 0.0000
# 6 0.0000 0.0000 0.0000 0.0000 0.0000 29.9109
#
#
#
# Elastic Compliance Matrix: (Units=1/GPa)
#
#
# Indices 1 2 3 4 5 6 
#
# 1 0.010156 -0.005217 -0.001467 0.000000 0.000000 0.000000
# 2 -0.005217 0.010186 -0.001120 0.000000 0.000000 0.000000
# 3 -0.001467 -0.001120 0.011032 0.000000 0.000000 0.000000
# 4 0.000000 0.000000 0.000000 0.124776 0.000000 0.000000
# 5 0.000000 0.000000 0.000000 0.000000 0.021541 0.000000
# 6 0.000000 0.000000 0.000000 0.000000 0.000000 0.033433
#
#
# Mechanical properties :
#
#
# Convention : Reuss Voigt Hill
#
# Bulk Modulus (GPa) = 63.42084 69.71949 66.57016
# Shear Modulus (GPa) = 21.55300 33.61497 27.58398
#
# Velocity S-wave (km/s) = 3.11474 3.88986 3.52368
# Velocity P-wave (km/s) = 6.44073 7.18035 6.82057
#
# Compressibility (1/GPa) = 0.01576769
#
# Stress axis : x y z
#
# Youngs Moduli (GPa) = 98.46108 98.17345 90.64685
#
# Poissons Ratio (x) = 0.51214 0.13295
# Poissons Ratio (y) = 0.51364 0.10151
# Poissons Ratio (z) = 0.14441 0.10994
#
# Static dielectric constant tensor:
#      x y z
#    x 1.889130 0.000000 0.000000 
#    y 0.000000 1.982260 0.000000 
#    z 0.000000 0.000000 1.886240 
# 
# From -- ./inp_files/35891.got.cif
#   From: 2010.05.17/outbox.cif.g08.bks.cpg/sg66_18_cif.got.tgz:35891.got - 2010.06.03 17:51:23.
