data_PCOD9499523
_publ_section_title
;
Structure prediction by ZEFSAII (Michael W. Deem and Ramdas Pophale) SiO2 
 PCOD9499523
Probable space group: C C C M
;
_chemical_formula_sum "Si O2"
_cell_formula_units_Z 116
_cell_length_a 9.132839
_cell_length_b 21.800689
_cell_length_c 29.030282
_cell_angle_alpha 90.000000
_cell_angle_beta 90.000000
_cell_angle_gamma 90.000000
_cell_volume 5779.992511
_symmetry_space_group_name_H-M "C C C M"
_symmetry_group_IT_number 66
_symmetry_cell_setting 'orthorhombic'
loop_
_space_group_symop_operation_xyz
x,y,z
-x,-y,z
x,-y,1/2-z
-x,y,1/2-z
-x,-y,-z
x,y,-z
-x,y,1/2+z
x,-y,1/2+z
1/2+x,1/2+y,z
1/2-x,1/2-y,z
1/2+x,1/2-y,1/2-z
1/2-x,1/2+y,1/2-z
1/2-x,1/2-y,-z
1/2+x,1/2+y,-z
1/2-x,1/2+y,1/2+z
1/2+x,1/2-y,1/2+z
loop_
_atom_site_type_symbol
_atom_site_label
_atom_site_fract_x
_atom_site_fract_y
_atom_site_fract_z
Si Si1 0.925087 0.244747 0.298999
Si Si2 0.693834 0.555128 0.134644
Si Si3 0.750000 0.250000 0.000000
Si Si4 0.707319 0.141248 0.077167
Si Si5 0.668182 0.995713 0.552175
Si Si6 0.471007 0.130372 0.848196
Si Si7 0.081793 0.124982 0.664384
Si Si8 0.691431 0.955253 0.294435
O O1 0.750000 0.250000 0.296118
O O2 0.000000 0.249538 0.250000
O O3 0.981411 0.302896 0.327071
O O4 0.985167 0.182199 0.320425
O O5 0.723530 0.536125 0.082492
O O6 0.531041 0.573371 0.147396
O O7 0.753062 0.498745 0.164690
O O8 0.804412 0.610206 0.146174
O O9 0.726274 0.196218 0.040979
O O10 0.722230 0.074303 0.054286
O O11 0.550222 0.135751 0.102588
O O12 0.817019 0.144092 0.121111
O O13 0.662027 0.017841 0.500000
O O14 0.500000 0.000000 0.570947
O O15 0.549694 0.080820 0.814013
O O16 0.182685 0.097635 0.705858
O O17 0.677360 0.000000 0.250000
#
# Coordination Sequence:
#
# PCOD9499523 Si02
#       8
#    16  16   4  16  16  16  16  16
#     4  12  29  47  66  95 130 183 239 278 327 395
#     4  12  22  43  66 101 139 177 215 279 339 410
#     4  12  24  44  74  96 128 180 244 282 330 420
#     4  11  23  43  69 101 128 177 225 278 341 404
#     4  11  21  40  68 103 134 168 221 275 342 411
#     4  11  24  45  71  95 138 179 227 283 331 397
#     4  11  26  45  67  96 145 179 219 282 344 395
#     4  11  26  40  69 105 138 179 226 275 338 407
#
# _framework density 20.069230999999998
#
# number of rings (size 3 to 8) (size 9 to 14) (size 15 to 20)
#    0.000    0.690    6.207    1.655    7.724    1.103 
#    1.241    0.690    0.000    0.828    0.000    0.000 
#    0.000    0.000    0.000    0.000    0.000    0.000 
#
# Total GULP energy -323505.876662 kJ/mol
# GULP energy per Si atom -5577.687529 kJ/mol
# Density = 2.002355 g / cm^3
# Si number density = 20.069231 Si / 1000 Ang^3
#
#
#
# Elastic Constant Matrix: (Units=GPa)
#
#
# Indices 1 2 3 4 5 6 
#
# 1 57.3826 8.4392 8.7712 0.0000 0.0000 0.0000
# 2 8.4392 113.0644 30.1568 0.0000 0.0000 0.0000
# 3 8.7712 30.1568 79.3737 0.0000 0.0000 0.0000
# 4 0.0000 0.0000 0.0000 46.7269 0.0000 0.0000
# 5 0.0000 0.0000 0.0000 0.0000 16.9816 0.0000
# 6 0.0000 0.0000 0.0000 0.0000 0.0000 38.0038
#
#
#
# Elastic Compliance Matrix: (Units=1/GPa)
#
#
# Indices 1 2 3 4 5 6 
#
# 1 0.017807 -0.000895 -0.001628 0.000000 0.000000 0.000000
# 2 -0.000895 0.009887 -0.003657 0.000000 0.000000 0.000000
# 3 -0.001628 -0.003657 0.014168 0.000000 0.000000 0.000000
# 4 0.000000 0.000000 0.000000 0.021401 0.000000 0.000000
# 5 0.000000 0.000000 0.000000 0.000000 0.058887 0.000000
# 6 0.000000 0.000000 0.000000 0.000000 0.000000 0.026313
#
#
# Mechanical properties :
#
#
# Convention : Reuss Voigt Hill
#
# Bulk Modulus (GPa) = 33.89617 38.28390 36.09003
# Shear Modulus (GPa) = 29.29834 33.83936 31.56885
#
# Velocity S-wave (km/s) = 3.82496 4.11071 3.97041
# Velocity P-wave (km/s) = 6.03601 6.45352 6.24825
#
# Compressibility (1/GPa) = 0.02950186
#
# Stress axis : x y z
#
# Youngs Moduli (GPa) = 56.15669 101.14456 70.58110
#
# Poissons Ratio (x) = 0.09052 0.11489
# Poissons Ratio (y) = 0.05026 0.25815
# Poissons Ratio (z) = 0.09141 0.36993
#
# Static dielectric constant tensor:
#      x y z
#    x 1.732860 0.000000 0.000000 
#    y 0.000000 1.691550 0.000000 
#    z 0.000000 0.000000 1.638480 
# 
# From -- ./inp_files/62891.got.cif
#   From: 2010.05.17/outbox.cif.g08.bks.cpg/sg66_32_cif.got.tgz:62891.got - 2010.06.03 17:51:23.
