data_PCOD9499165
_publ_section_title
;
Structure prediction by ZEFSAII (Michael W. Deem and Ramdas Pophale) SiO2 
 PCOD9499165
Probable space group: C C C M
;
_chemical_formula_sum "Si O2"
_cell_formula_units_Z 96
_cell_length_a 10.222745
_cell_length_b 26.238258
_cell_length_c 19.312041
_cell_angle_alpha 90.000000
_cell_angle_beta 90.000000
_cell_angle_gamma 90.000000
_cell_volume 5180.011223
_symmetry_space_group_name_H-M "C C C M"
_symmetry_group_IT_number 66
_symmetry_cell_setting 'orthorhombic'
loop_
_space_group_symop_operation_xyz
x,y,z
-x,-y,z
x,-y,1/2-z
-x,y,1/2-z
-x,-y,-z
x,y,-z
-x,y,1/2+z
x,-y,1/2+z
1/2+x,1/2+y,z
1/2-x,1/2-y,z
1/2+x,1/2-y,1/2-z
1/2-x,1/2+y,1/2-z
1/2-x,1/2-y,-z
1/2+x,1/2+y,-z
1/2-x,1/2+y,1/2+z
1/2+x,1/2-y,1/2+z
loop_
_atom_site_type_symbol
_atom_site_label
_atom_site_fract_x
_atom_site_fract_y
_atom_site_fract_z
Si Si1 0.000000 0.422149 0.750000
Si Si2 0.290377 0.000000 0.750000
Si Si3 0.617588 0.539289 0.128762
Si Si4 0.626310 0.649421 0.918479
Si Si5 0.071405 0.646981 0.622519
Si Si6 0.296784 0.010250 0.000000
Si Si7 0.906151 0.243102 0.683865
Si Si8 0.957333 0.412212 0.000000
O O1 0.110436 0.458829 0.716749
O O2 0.063337 0.387806 0.809221
O O3 0.200837 0.031297 0.802103
O O4 0.500000 0.500000 0.131086
O O5 0.572786 0.596790 0.113487
O O6 0.712248 0.523601 0.066522
O O7 0.784051 0.645047 0.910676
O O8 0.585773 0.697083 0.871177
O O9 0.594599 0.654602 0.000000
O O10 0.049344 0.704737 0.646534
O O11 0.972021 0.623494 0.566950
O O12 0.337157 0.951124 0.000000
O O13 0.420369 0.048266 0.000000
O O14 0.750000 0.250000 0.702045
O O15 0.000000 0.234486 0.750000
#
# Coordination Sequence:
#
# PCOD9499165 Si02
#       8
#     8   8  16  16  16   8  16   8
#     4  11  20  36  62  88 130 150 195 262 324 370
#     4  11  23  36  56  94 117 163 202 252 314 367
#     4  12  23  39  58  83 126 165 210 244 298 376
#     4  11  22  41  65  93 124 163 213 260 303 367
#     4  11  19  37  62  93 122 154 199 258 319 366
#     4  11  21  38  57  87 121 162 198 250 317 360
#     4  10  24  41  66  92 124 163 208 262 321 371
#     4  11  20  34  64  90 121 150 200 264 310 376
#
# _framework density 18.532778
#
# number of rings (size 3 to 8) (size 9 to 14) (size 15 to 20)
#    0.000    1.000    5.833    1.500    1.167    5.000 
#    0.000    0.000    0.000    0.500    0.000    0.000 
#    0.000    0.000    0.000    0.000    0.000    0.000 
#
# Total GULP energy -267984.275480 kJ/mol
# GULP energy per Si atom -5583.005739 kJ/mol
# Density = 1.849060 g / cm^3
# Si number density = 18.532778 Si / 1000 Ang^3
#
#
#
# Elastic Constant Matrix: (Units=GPa)
#
#
# Indices 1 2 3 4 5 6 
#
# 1 43.8403 41.7090 27.0087 0.0000 0.0000 0.0000
# 2 41.7090 171.8737 63.0182 0.0000 0.0000 0.0000
# 3 27.0087 63.0182 102.6976 0.0000 0.0000 0.0000
# 4 0.0000 0.0000 0.0000 27.5649 0.0000 0.0000
# 5 0.0000 0.0000 0.0000 0.0000 20.1787 0.0000
# 6 0.0000 0.0000 0.0000 0.0000 0.0000 28.6307
#
#
#
# Elastic Compliance Matrix: (Units=1/GPa)
#
#
# Indices 1 2 3 4 5 6 
#
# 1 0.031256 -0.005898 -0.004601 0.000000 0.000000 0.000000
# 2 -0.005898 0.008620 -0.003738 0.000000 0.000000 0.000000
# 3 -0.004601 -0.003738 0.013241 0.000000 0.000000 0.000000
# 4 0.000000 0.000000 0.000000 0.036278 0.000000 0.000000
# 5 0.000000 0.000000 0.000000 0.000000 0.049557 0.000000
# 6 0.000000 0.000000 0.000000 0.000000 0.000000 0.034928
#
#
# Mechanical properties :
#
#
# Convention : Reuss Voigt Hill
#
# Bulk Modulus (GPa) = 40.57999 64.65371 52.61685
# Shear Modulus (GPa) = 23.74517 27.71990 25.73253
#
# Velocity S-wave (km/s) = 3.58334 3.87165 3.73028
# Velocity P-wave (km/s) = 6.25015 7.41270 6.85611
#
# Compressibility (1/GPa) = 0.02464269
#
# Stress axis : x y z
#
# Youngs Moduli (GPa) = 31.99410 116.00598 75.52100
#
# Poissons Ratio (x) = 0.68420 0.34746
# Poissons Ratio (y) = 0.18870 0.28234
# Poissons Ratio (z) = 0.14720 0.43369
#
# Static dielectric constant tensor:
#      x y z
#    x 1.637790 0.000000 0.000000 
#    y 0.000000 1.649820 0.000000 
#    z 0.000000 0.000000 1.626610 
# 
# From -- ./inp_files/38928.got.cif
#   From: 2010.05.17/outbox.cif.g08.bks.cpg/sg66_20_cif.got.tgz:38928.got - 2010.06.03 17:51:23.
