data_PCOD9499640
_publ_section_title
;
Structure prediction by ZEFSAII (Michael W. Deem and Ramdas Pophale) SiO2 
 PCOD9499640
Probable space group: C C C M
;
_chemical_formula_sum "Si O2"
_cell_formula_units_Z 68
_cell_length_a 22.441765
_cell_length_b 7.400326
_cell_length_c 16.885821
_cell_angle_alpha 90.000000
_cell_angle_beta 90.000000
_cell_angle_gamma 90.000000
_cell_volume 2804.335975
_symmetry_space_group_name_H-M "C C C M"
_symmetry_group_IT_number 66
_symmetry_cell_setting 'orthorhombic'
loop_
_space_group_symop_operation_xyz
x,y,z
-x,-y,z
x,-y,1/2-z
-x,y,1/2-z
-x,-y,-z
x,y,-z
-x,y,1/2+z
x,-y,1/2+z
1/2+x,1/2+y,z
1/2-x,1/2-y,z
1/2+x,1/2-y,1/2-z
1/2-x,1/2+y,1/2-z
1/2-x,1/2-y,-z
1/2+x,1/2+y,-z
1/2-x,1/2+y,1/2+z
1/2+x,1/2-y,1/2+z
loop_
_atom_site_type_symbol
_atom_site_label
_atom_site_fract_x
_atom_site_fract_y
_atom_site_fract_z
Si Si1 0.146412 0.153175 0.870332
Si Si2 0.750000 0.750000 0.000000
Si Si3 0.392331 0.238193 0.411350
Si Si4 0.192918 0.320958 0.288951
Si Si5 0.013310 0.215732 0.160053
O O1 0.197441 0.217775 0.930629
O O2 0.168950 0.194116 0.781112
O O3 0.080099 0.241638 0.870982
O O4 0.130911 0.941682 0.888955
O O5 0.374389 0.197589 0.500000
O O6 0.358942 0.121172 0.346879
O O7 0.462253 0.216182 0.398309
O O8 0.216835 0.500000 0.250000
O O9 0.250000 0.250000 0.336211
O O10 0.000000 0.280817 0.250000
O O11 0.000000 0.000000 0.163182
#
# Coordination Sequence:
#
# PCOD9499640 Si02
#       5
#    16   4  16  16  16
#     4  11  22  41  66 101 139 182 228 280 348 413
#     4  12  24  36  66 106 144 184 230 292 346 408
#     4  11  23  42  69 103 135 175 235 294 339 406
#     4  12  26  45  68  94 133 184 230 279 350 429
#     4   9  18  35  66 100 135 180 228 282 339 410
#
# _framework density 24.248163999999999
#
# number of rings (size 3 to 8) (size 9 to 14) (size 15 to 20)
#    0.000    1.176    4.706    2.118    1.647    1.882 
#    2.118    2.353    0.000    1.412    0.000    0.000 
#    0.000    0.000    0.000    0.000    0.000    0.000 
#
# Total GULP energy -189486.455616 kJ/mol
# GULP energy per Si atom -5573.131048 kJ/mol
# Density = 2.419297 g / cm^3
# Si number density = 24.248164 Si / 1000 Ang^3
#
#
#
# Elastic Constant Matrix: (Units=GPa)
#
#
# Indices 1 2 3 4 5 6 
#
# 1 233.5119 23.0960 54.2458 0.0000 0.0000 0.0000
# 2 23.0960 35.7935 -7.7360 0.0000 0.0000 0.0000
# 3 54.2458 -7.7360 140.1207 0.0000 0.0000 0.0000
# 4 0.0000 0.0000 0.0000 690.3820 0.0000 0.0000
# 5 0.0000 0.0000 0.0000 0.0000 35.2299 0.0000
# 6 0.0000 0.0000 0.0000 0.0000 0.0000 25.5014
#
#
#
# Elastic Compliance Matrix: (Units=1/GPa)
#
#
# Indices 1 2 3 4 5 6 
#
# 1 0.005174 -0.003817 -0.002214 0.000000 0.000000 0.000000
# 2 -0.003817 0.031091 0.003194 0.000000 0.000000 0.000000
# 3 -0.002214 0.003194 0.008170 0.000000 0.000000 0.000000
# 4 0.000000 0.000000 0.000000 0.001448 0.000000 0.000000
# 5 0.000000 0.000000 0.000000 0.000000 0.028385 0.000000
# 6 0.000000 0.000000 0.000000 0.000000 0.000000 0.039214
#
#
# Mechanical properties :
#
#
# Convention : Reuss Voigt Hill
#
# Bulk Modulus (GPa) = 25.79824 60.95976 43.37900
# Shear Modulus (GPa) = 37.85660 172.87734 105.36697
#
# Velocity S-wave (km/s) = 3.95551 8.45280 6.59908
# Velocity P-wave (km/s) = 5.61460 10.97547 8.71736
#
# Compressibility (1/GPa) = 0.03876233
#
# Stress axis : x y z
#
# Youngs Moduli (GPa) = 193.26320 32.16315 122.39682
#
# Poissons Ratio (x) = 0.12277 0.27098
# Poissons Ratio (y) = 0.73773 -0.39098
# Poissons Ratio (z) = 0.42787 -0.10274
#
# Static dielectric constant tensor:
#      x y z
#    x 1.942800 0.000000 0.000000 
#    y 0.000000 2.061600 0.000000 
#    z 0.000000 0.000000 1.502920 
# 
# From -- ./inp_files/36491.got.cif
#   From: 2010.05.17/outbox.cif.g08.bks.cpg/sg66_19_cif.got.tgz:36491.got - 2010.06.03 17:51:23.
