data_PCOD9499229
_publ_section_title
;
Structure prediction by ZEFSAII (Michael W. Deem and Ramdas Pophale) SiO2 
 PCOD9499229
Probable space group: C C C M
;
_chemical_formula_sum "Si O2"
_cell_formula_units_Z 48
_cell_length_a 13.869667
_cell_length_b 5.742320
_cell_length_c 26.415092
_cell_angle_alpha 90.000000
_cell_angle_beta 90.000000
_cell_angle_gamma 90.000000
_cell_volume 2103.805336
_symmetry_space_group_name_H-M "C C C M"
_symmetry_group_IT_number 66
_symmetry_cell_setting 'orthorhombic'
loop_
_space_group_symop_operation_xyz
x,y,z
-x,-y,z
x,-y,1/2-z
-x,y,1/2-z
-x,-y,-z
x,y,-z
-x,y,1/2+z
x,-y,1/2+z
1/2+x,1/2+y,z
1/2-x,1/2-y,z
1/2+x,1/2-y,1/2-z
1/2-x,1/2+y,1/2-z
1/2-x,1/2-y,-z
1/2+x,1/2+y,-z
1/2-x,1/2+y,1/2+z
1/2+x,1/2-y,1/2+z
loop_
_atom_site_type_symbol
_atom_site_label
_atom_site_fract_x
_atom_site_fract_y
_atom_site_fract_z
Si Si1 0.143253 0.328737 0.293429
Si Si2 0.691125 0.001989 0.000000
Si Si3 0.500000 0.500000 0.654784
Si Si4 0.643425 0.137530 0.393344
O O1 0.107029 0.500000 0.250000
O O2 0.250000 0.250000 0.278515
O O3 0.146241 0.463510 0.346512
O O4 0.076508 0.115413 0.307610
O O5 0.750000 0.750000 0.000000
O O6 0.632700 0.987376 0.947508
O O7 0.750000 0.250000 0.000000
O O8 0.440276 0.678726 0.619678
O O9 0.750000 0.250000 0.393611
#
# Coordination Sequence:
#
# PCOD9499229 Si02
#       4
#    16   8   8  16
#     4  12  27  50  76 108 152 202 254 324 391 474
#     4  10  24  45  83 115 157 213 262 326 393 467
#     4  12  28  48  76 110 152 199 260 321 402 468
#     4  11  24  48  77 111 155 200 259 321 389 473
#
# _framework density 22.815798999999998
#
# number of rings (size 3 to 8) (size 9 to 14) (size 15 to 20)
#    0.000    0.667    3.333    3.000    4.667    4.667 
#    0.000    3.333    0.000    0.000    0.000    0.000 
#    0.000    0.000    0.000    0.000    0.000    0.000 
#
# Total GULP energy -134328.902578 kJ/mol
# GULP energy per Si atom -5597.037607 kJ/mol
# Density = 2.276387 g / cm^3
# Si number density = 22.815799 Si / 1000 Ang^3
#
#
#
# Elastic Constant Matrix: (Units=GPa)
#
#
# Indices 1 2 3 4 5 6 
#
# 1 134.3411 44.1584 19.3031 0.0000 0.0000 0.0000
# 2 44.1584 101.2722 42.4289 0.0000 0.0000 0.0000
# 3 19.3031 42.4289 184.6823 0.0000 0.0000 0.0000
# 4 0.0000 0.0000 0.0000 32.4704 0.0000 0.0000
# 5 0.0000 0.0000 0.0000 0.0000 14.3743 0.0000
# 6 0.0000 0.0000 0.0000 0.0000 0.0000 -8.4624
#
#
#
# Elastic Compliance Matrix: (Units=1/GPa)
#
#
# Indices 1 2 3 4 5 6 
#
# 1 0.008689 -0.003771 -0.000042 0.000000 0.000000 0.000000
# 2 -0.003771 0.012563 -0.002492 0.000000 0.000000 0.000000
# 3 -0.000042 -0.002492 0.005992 0.000000 0.000000 0.000000
# 4 0.000000 0.000000 0.000000 0.030797 0.000000 0.000000
# 5 0.000000 0.000000 0.000000 0.000000 0.069569 0.000000
# 6 0.000000 0.000000 0.000000 0.000000 0.000000 -0.118169
#
#
# Mechanical properties :
#
#
# Convention : Reuss Voigt Hill
#
# Bulk Modulus (GPa) = 68.33629 70.23071 69.28350
# Shear Modulus (GPa) = 185.67430 28.63680 107.15555
#
# Velocity S-wave (km/s) = 9.03086 3.54663 6.86057
# Velocity P-wave (km/s) = 11.77956 6.90071 9.65344
#
# Compressibility (1/GPa) = 0.01463351
#
# Stress axis : x y z
#
# Youngs Moduli (GPa) = 115.08262 79.59956 166.90079
#
# Poissons Ratio (x) = 0.30020 0.00697
# Poissons Ratio (y) = 0.43402 0.41592
# Poissons Ratio (z) = 0.00481 0.19836
#
# Static dielectric constant tensor:
#      x y z
#    x 2.047560 0.000000 0.000000 
#    y 0.000000 -2.677980 0.000000 
#    z 0.000000 0.000000 1.818780 
# 
# From -- ./inp_files/64122.got.cif
#   From: 2010.05.17/outbox.cif.g08.bks.cpg/sg66_33_cif.got.tgz:64122.got - 2010.06.03 17:51:23.
