data_PCOD9499454
_publ_section_title
;
Structure prediction by ZEFSAII (Michael W. Deem and Ramdas Pophale) SiO2 
 PCOD9499454
Probable space group: C C C M
;
_chemical_formula_sum "Si O2"
_cell_formula_units_Z 80
_cell_length_a 12.063535
_cell_length_b 14.494750
_cell_length_c 23.414898
_cell_angle_alpha 90.000000
_cell_angle_beta 90.000000
_cell_angle_gamma 90.000000
_cell_volume 4094.280454
_symmetry_space_group_name_H-M "C C C M"
_symmetry_group_IT_number 66
_symmetry_cell_setting 'orthorhombic'
loop_
_space_group_symop_operation_xyz
x,y,z
-x,-y,z
x,-y,1/2-z
-x,y,1/2-z
-x,-y,-z
x,y,-z
-x,y,1/2+z
x,-y,1/2+z
1/2+x,1/2+y,z
1/2-x,1/2-y,z
1/2+x,1/2-y,1/2-z
1/2-x,1/2+y,1/2-z
1/2-x,1/2-y,-z
1/2+x,1/2+y,-z
1/2-x,1/2+y,1/2+z
1/2+x,1/2-y,1/2+z
loop_
_atom_site_type_symbol
_atom_site_label
_atom_site_fract_x
_atom_site_fract_y
_atom_site_fract_z
Si Si1 0.132104 0.893721 0.743308
Si Si2 0.129930 0.773856 0.630343
Si Si3 0.258100 0.652122 0.857512
Si Si4 0.512669 0.890622 0.682508
Si Si5 0.449177 0.601564 0.065005
O O1 0.156077 0.841179 0.684571
O O2 0.179489 0.838738 0.796944
O O3 0.000000 0.897120 0.750000
O O4 0.174028 0.000000 0.750000
O O5 0.250000 0.750000 0.603575
O O6 0.071952 0.679224 0.651670
O O7 0.038753 0.828575 0.592920
O O8 0.250000 0.750000 0.887864
O O9 0.134985 0.624526 0.842095
O O10 0.338788 0.593189 0.896736
O O11 0.500000 0.869655 0.750000
O O12 0.500000 0.000000 0.675586
O O13 0.500000 0.500000 0.064727
O O14 0.424843 0.629559 0.000000
#
# Coordination Sequence:
#
# PCOD9499454 Si02
#       5
#    16  16  16  16  16
#     4  11  21  34  62 100 131 166 216 267 325 400
#     4  12  24  42  66  97 136 174 214 273 338 402
#     4  12  22  41  66  93 130 170 216 272 327 392
#     4  11  25  41  60 100 143 177 207 256 331 404
#     4  11  26  47  70  95 124 172 235 288 331 383
#
# _framework density 19.539453000000002
#
# number of rings (size 3 to 8) (size 9 to 14) (size 15 to 20)
#    0.000    0.600    4.000    4.800    8.400    0.800 
#    0.000    0.000    0.000    1.200    0.000    0.000 
#    0.000    0.000    0.000    0.000    0.000    0.000 
#
# Total GULP energy -223390.352218 kJ/mol
# GULP energy per Si atom -5584.758805 kJ/mol
# Density = 1.949498 g / cm^3
# Si number density = 19.539453 Si / 1000 Ang^3
#
#
#
# Elastic Constant Matrix: (Units=GPa)
#
#
# Indices 1 2 3 4 5 6 
#
# 1 145.7302 29.4964 41.3101 0.0000 0.0000 0.0000
# 2 29.4964 85.3737 16.7187 0.0000 0.0000 0.0000
# 3 41.3101 16.7187 88.3804 0.0000 0.0000 0.0000
# 4 0.0000 0.0000 0.0000 29.2849 0.0000 0.0000
# 5 0.0000 0.0000 0.0000 0.0000 -4.3616 0.0000
# 6 0.0000 0.0000 0.0000 0.0000 0.0000 28.2020
#
#
#
# Elastic Compliance Matrix: (Units=1/GPa)
#
#
# Indices 1 2 3 4 5 6 
#
# 1 0.008285 -0.002185 -0.003459 0.000000 0.000000 0.000000
# 2 -0.002185 0.012740 -0.001389 0.000000 0.000000 0.000000
# 3 -0.003459 -0.001389 0.013194 0.000000 0.000000 0.000000
# 4 0.000000 0.000000 0.000000 0.034147 0.000000 0.000000
# 5 0.000000 0.000000 0.000000 0.000000 -0.229276 0.000000
# 6 0.000000 0.000000 0.000000 0.000000 0.000000 0.035459
#
#
# Mechanical properties :
#
#
# Convention : Reuss Voigt Hill
#
# Bulk Modulus (GPa) = 49.61912 54.94831 52.28371
# Shear Modulus (GPa) = -47.77028 26.08899 -10.84064
#
# Velocity S-wave (km/s) = -4.94987 3.65800 -2.35799
# Velocity P-wave (km/s) = 2.68678 6.78410 4.40484
#
# Compressibility (1/GPa) = 0.02015352
#
# Stress axis : x y z
#
# Youngs Moduli (GPa) = 120.70308 78.49251 75.79057
#
# Poissons Ratio (x) = 0.17150 0.26217
# Poissons Ratio (y) = 0.26373 0.10525
# Poissons Ratio (z) = 0.41752 0.10900
#
# Static dielectric constant tensor:
#      x y z
#    x 1.747440 0.000000 0.000000 
#    y 0.000000 1.783490 0.000000 
#    z 0.000000 0.000000 1.661810 
# 
# From -- ./inp_files/56630.got.cif
#   From: 2010.05.17/outbox.cif.g08.bks.cpg/sg66_29_cif.got.tgz:56630.got - 2010.06.03 17:51:23.
