data_PCOD9499425
_publ_section_title
;
Structure prediction by ZEFSAII (Michael W. Deem and Ramdas Pophale) SiO2 
 PCOD9499425
Probable space group: C C C M
;
_chemical_formula_sum "Si O2"
_cell_formula_units_Z 40
_cell_length_a 8.789812
_cell_length_b 11.551381
_cell_length_c 14.513672
_cell_angle_alpha 90.000000
_cell_angle_beta 90.000000
_cell_angle_gamma 90.000000
_cell_volume 1473.637956
_symmetry_space_group_name_H-M "C C C M"
_symmetry_group_IT_number 66
_symmetry_cell_setting 'orthorhombic'
loop_
_space_group_symop_operation_xyz
x,y,z
-x,-y,z
x,-y,1/2-z
-x,y,1/2-z
-x,-y,-z
x,y,-z
-x,y,1/2+z
x,-y,1/2+z
1/2+x,1/2+y,z
1/2-x,1/2-y,z
1/2+x,1/2-y,1/2-z
1/2-x,1/2+y,1/2-z
1/2-x,1/2-y,-z
1/2+x,1/2+y,-z
1/2-x,1/2+y,1/2+z
1/2+x,1/2-y,1/2+z
loop_
_atom_site_type_symbol
_atom_site_label
_atom_site_fract_x
_atom_site_fract_y
_atom_site_fract_z
Si Si1 0.030751 0.817785 0.645717
Si Si2 0.248833 0.038381 0.605882
Si Si3 0.000000 0.500000 0.750000
Si Si4 0.750000 0.750000 0.000000
O O1 0.119408 0.731601 0.580450
O O2 0.000000 0.785154 0.750000
O O3 0.870152 0.856947 0.605320
O O4 0.143409 0.930542 0.640383
O O5 0.291962 0.011531 0.500000
O O6 0.383188 0.059049 0.677665
#
# Coordination Sequence:
#
# PCOD9499425 Si02
#       4
#    16  16   4   4
#     4  11  21  43  71  98 137 189 240 294 369 430
#     4  11  20  40  70 105 137 180 242 310 351 420
#     4  12  22  34  68 110 140 178 238 310 356 400
#     4  12  24  42  72 100 140 198 240 290 370 456
#
# _framework density 27.143706999999999
#
# number of rings (size 3 to 8) (size 9 to 14) (size 15 to 20)
#    0.000    0.800    8.000    3.000    0.000    0.000 
#    3.600    0.000    0.000    3.600    0.000    0.000 
#    0.000    0.000    0.000    0.000    0.000    0.000 
#
# Total GULP energy -111581.308099 kJ/mol
# GULP energy per Si atom -5579.065405 kJ/mol
# Density = 2.708193 g / cm^3
# Si number density = 27.143707 Si / 1000 Ang^3
#
#
#
# Elastic Constant Matrix: (Units=GPa)
#
#
# Indices 1 2 3 4 5 6 
#
# 1 209.3171 55.1787 128.7169 0.0000 0.0000 0.0000
# 2 55.1787 62.3511 47.1314 0.0000 0.0000 0.0000
# 3 128.7169 47.1314 351.5635 0.0000 0.0000 0.0000
# 4 0.0000 0.0000 0.0000 26.4418 0.0000 0.0000
# 5 0.0000 0.0000 0.0000 0.0000 78.5712 0.0000
# 6 0.0000 0.0000 0.0000 0.0000 0.0000 58.3818
#
#
#
# Elastic Compliance Matrix: (Units=1/GPa)
#
#
# Indices 1 2 3 4 5 6 
#
# 1 0.007325 -0.004957 -0.002017 0.000000 0.000000 0.000000
# 2 -0.004957 0.021202 -0.001027 0.000000 0.000000 0.000000
# 3 -0.002017 -0.001027 0.003721 0.000000 0.000000 0.000000
# 4 0.000000 0.000000 0.000000 0.037819 0.000000 0.000000
# 5 0.000000 0.000000 0.000000 0.000000 0.012727 0.000000
# 6 0.000000 0.000000 0.000000 0.000000 0.000000 0.017129
#
#
# Mechanical properties :
#
#
# Convention : Reuss Voigt Hill
#
# Bulk Modulus (GPa) = 61.56289 120.58728 91.07509
# Shear Modulus (GPa) = 41.20638 58.82593 50.01616
#
# Velocity S-wave (km/s) = 3.90048 4.66037 4.29726
# Velocity P-wave (km/s) = 6.55855 8.57209 7.63202
#
# Compressibility (1/GPa) = 0.01624355
#
# Stress axis : x y z
#
# Youngs Moduli (GPa) = 136.52437 47.16562 268.76587
#
# Poissons Ratio (x) = 0.23382 0.54215
# Poissons Ratio (y) = 0.67680 0.27612
# Poissons Ratio (z) = 0.27539 0.04846
#
# Static dielectric constant tensor:
#      x y z
#    x 2.012500 0.000000 0.000000 
#    y 0.000000 2.143600 0.000000 
#    z 0.000000 0.000000 2.032160 
# 
# From -- ./inp_files/23174.got.cif
#   From: 2010.05.17/outbox.cif.g08.bks.cpg/sg66_12_cif.got.tgz:23174.got - 2010.06.03 17:51:23.
