data_PCOD9499740
_publ_section_title
;
Structure prediction by ZEFSAII (Michael W. Deem and Ramdas Pophale) SiO2 
 PCOD9499740
Probable space group: C C C M
;
_chemical_formula_sum "Si O2"
_cell_formula_units_Z 88
_cell_length_a 24.675165
_cell_length_b 11.698683
_cell_length_c 15.040887
_cell_angle_alpha 90.000000
_cell_angle_beta 90.000000
_cell_angle_gamma 90.000000
_cell_volume 4341.806725
_symmetry_space_group_name_H-M "C C C M"
_symmetry_group_IT_number 66
_symmetry_cell_setting 'orthorhombic'
loop_
_space_group_symop_operation_xyz
x,y,z
-x,-y,z
x,-y,1/2-z
-x,y,1/2-z
-x,-y,-z
x,y,-z
-x,y,1/2+z
x,-y,1/2+z
1/2+x,1/2+y,z
1/2-x,1/2-y,z
1/2+x,1/2-y,1/2-z
1/2-x,1/2+y,1/2-z
1/2-x,1/2-y,-z
1/2+x,1/2+y,-z
1/2-x,1/2+y,1/2+z
1/2+x,1/2-y,1/2+z
loop_
_atom_site_type_symbol
_atom_site_label
_atom_site_fract_x
_atom_site_fract_y
_atom_site_fract_z
Si Si1 0.357565 0.198487 0.398891
Si Si2 0.236940 0.531208 0.146553
Si Si3 0.060985 0.047244 0.000000
Si Si4 0.136268 0.056434 0.653717
Si Si5 0.206794 0.348492 0.000000
Si Si6 0.587161 0.805309 0.000000
Si Si7 0.435238 0.993910 0.353703
O O1 0.352704 0.239933 0.500000
O O2 0.300759 0.140930 0.371197
O O3 0.373541 0.307621 0.341190
O O4 0.403206 0.100583 0.395214
O O5 0.232875 0.500000 0.250000
O O6 0.300492 0.545179 0.124667
O O7 0.213152 0.431000 0.084846
O O8 0.095309 0.002228 0.084734
O O9 0.057459 0.184858 0.000000
O O10 0.000000 0.000000 0.000000
O O11 0.130859 0.000000 0.750000
O O12 0.250000 0.250000 0.000000
O O13 0.150628 0.282963 0.000000
O O14 0.577415 0.882556 0.912536
O O15 0.500000 0.000000 0.356980
O O16 0.418580 0.000000 0.250000
#
# Coordination Sequence:
#
# PCOD9499740 Si02
#       7
#    16  16   8  16   8   8  16
#     4  12  23  42  74 101 142 181 234 290 347 414
#     4  11  23  42  68 107 142 181 233 281 357 414
#     4  12  30  49  70  98 134 193 235 287 351 418
#     4  11  27  46  68 103 141 187 232 286 347 421
#     4  12  24  40  67 100 144 186 220 284 351 426
#     4  12  25  45  71  96 138 175 229 286 343 419
#     4  11  25  43  69 102 131 174 226 293 353 398
#
# _framework density 20.268059999999998
#
# number of rings (size 3 to 8) (size 9 to 14) (size 15 to 20)
#    0.000    0.545    4.545    3.000    5.091    4.000 
#    0.000    0.000    0.000    0.000    0.000    0.000 
#    0.000    0.000    0.000    0.000    0.000    0.000 
#
# Total GULP energy -246032.711391 kJ/mol
# GULP energy per Si atom -5591.652532 kJ/mol
# Density = 2.022193 g / cm^3
# Si number density = 20.268060 Si / 1000 Ang^3
#
#
#
# Elastic Constant Matrix: (Units=GPa)
#
#
# Indices 1 2 3 4 5 6 
#
# 1 102.8875 44.6253 48.9204 0.0000 0.0000 0.0000
# 2 44.6253 166.6688 57.4020 0.0000 0.0000 0.0000
# 3 48.9204 57.4020 125.0148 0.0000 0.0000 0.0000
# 4 0.0000 0.0000 0.0000 23.3421 0.0000 0.0000
# 5 0.0000 0.0000 0.0000 0.0000 35.7750 0.0000
# 6 0.0000 0.0000 0.0000 0.0000 0.0000 35.4450
#
#
#
# Elastic Compliance Matrix: (Units=1/GPa)
#
#
# Indices 1 2 3 4 5 6 
#
# 1 0.012462 -0.001968 -0.003973 0.000000 0.000000 0.000000
# 2 -0.001968 0.007438 -0.002645 0.000000 0.000000 0.000000
# 3 -0.003973 -0.002645 0.010768 0.000000 0.000000 0.000000
# 4 0.000000 0.000000 0.000000 0.042841 0.000000 0.000000
# 5 0.000000 0.000000 0.000000 0.000000 0.027952 0.000000
# 6 0.000000 0.000000 0.000000 0.000000 0.000000 0.028213
#
#
# Mechanical properties :
#
#
# Convention : Reuss Voigt Hill
#
# Bulk Modulus (GPa) = 74.09709 77.38516 75.74112
# Shear Modulus (GPa) = 33.03706 35.15398 34.09552
#
# Velocity S-wave (km/s) = 4.04171 4.16919 4.10595
# Velocity P-wave (km/s) = 7.64320 7.83836 7.74140
#
# Compressibility (1/GPa) = 0.01349581
#
# Stress axis : x y z
#
# Youngs Moduli (GPa) = 80.24342 134.44655 92.86676
#
# Poissons Ratio (x) = 0.26465 0.36894
# Poissons Ratio (y) = 0.15795 0.24562
# Poissons Ratio (z) = 0.31879 0.35560
#
# Static dielectric constant tensor:
#      x y z
#    x 1.699350 0.000000 0.000000 
#    y 0.000000 1.704120 0.000000 
#    z 0.000000 0.000000 1.298480 
# 
# From -- ./inp_files/32252.got.cif
#   From: 2010.05.17/outbox.cif.g08.bks.cpg/sg66_17_cif.got.tgz:32252.got - 2010.06.03 17:51:23.
