data_PCOD9500630
_publ_section_title
;
Structure prediction by ZEFSAII (Michael W. Deem and Ramdas Pophale) SiO2 
 PCOD9500630
Probable space group: C M M A
;
_chemical_formula_sum "Si O2"
_cell_formula_units_Z 80
_cell_length_a 10.250302
_cell_length_b 14.518763
_cell_length_c 24.893684
_cell_angle_alpha 90.000000
_cell_angle_beta 90.000000
_cell_angle_gamma 90.000000
_cell_volume 3704.720507
_symmetry_space_group_name_H-M "C M M A"
_symmetry_group_IT_number 67
_symmetry_cell_setting 'orthorhombic'
loop_
_space_group_symop_operation_xyz
x,y,z
-x,1/2-y,z
x,-y,-z
-x,1/2+y,-z
-x,-y,-z
x,1/2+y,-z
-x,y,z
x,1/2-y,z
1/2+x,1/2+y,z
1/2-x,-y,z
1/2+x,1/2-y,-z
1/2-x,y,-z
1/2-x,1/2-y,-z
1/2+x,y,-z
1/2-x,1/2+y,z
1/2+x,-y,z
loop_
_atom_site_type_symbol
_atom_site_label
_atom_site_fract_x
_atom_site_fract_y
_atom_site_fract_z
Si Si1 0.847922 0.862381 0.451602
Si Si2 0.000000 0.887297 0.061212
Si Si3 0.350067 0.362515 0.640616
Si Si4 0.748108 0.108962 0.125654
Si Si5 0.000000 0.387246 0.062720
Si Si6 0.354689 0.139858 0.762494
O O1 0.853999 0.750000 0.452308
O O2 0.750000 0.888878 0.500000
O O3 0.767526 0.890737 0.398399
O O4 0.000000 0.893760 0.455067
O O5 0.124069 0.855439 0.094488
O O6 0.000000 0.000097 0.061438
O O7 0.000000 0.858859 0.999267
O O8 0.500000 0.389971 0.625417
O O9 0.351252 0.250000 0.639116
O O10 0.325555 0.392398 0.702132
O O11 0.875739 0.144880 0.096015
O O12 0.755832 0.121476 0.189472
O O13 0.750000 0.000000 0.117159
O O14 0.500000 0.104458 0.777763
O O15 0.363238 0.250000 0.758639
#
# Coordination Sequence:
#
# PCOD9500630 Si02
#       6
#    16   8  16  16   8  16
#     4   9  15  22  34  54  81 112 146 185 227 266
#     4   9  18  28  45  73  95 117 146 191 240 274
#     4   8  14  25  40  57  78 110 152 188 219 262
#     4  10  18  30  49  72  94 118 153 194 233 276
#     4   9  16  30  49  67  93 121 152 187 228 284
#     4   9  17  31  50  67  89 127 165 190 222 278
#
# _framework density 21.594072000000001
#
# number of rings (size 3 to 8) (size 9 to 14) (size 15 to 20)
#    0.000    3.000    1.000    2.400    0.000    4.800 
#    1.800    0.500    0.000    3.600    0.000    0.000 
#    0.000    0.800    0.000    6.400    0.000    7.400 
#
# Total GULP energy -223094.820593 kJ/mol
# GULP energy per Si atom -5577.370515 kJ/mol
# Density = 2.154492 g / cm^3
# Si number density = 21.594072 Si / 1000 Ang^3
#
#
#
# Elastic Constant Matrix: (Units=GPa)
#
#
# Indices 1 2 3 4 5 6 
#
# 1 203.2072 8.1393 116.5409 0.0000 0.0000 0.0000
# 2 8.1393 61.7345 -3.9061 0.0000 0.0000 0.0000
# 3 116.5409 -3.9061 168.5305 0.0000 0.0000 0.0000
# 4 0.0000 0.0000 0.0000 12.3479 0.0000 0.0000
# 5 0.0000 0.0000 0.0000 0.0000 16.2547 0.0000
# 6 0.0000 0.0000 0.0000 0.0000 0.0000 39.1852
#
#
#
# Elastic Compliance Matrix: (Units=1/GPa)
#
#
# Indices 1 2 3 4 5 6 
#
# 1 0.008284 -0.001457 -0.005762 0.000000 0.000000 0.000000
# 2 -0.001457 0.016478 0.001389 0.000000 0.000000 0.000000
# 3 -0.005762 0.001389 0.009951 0.000000 0.000000 0.000000
# 4 0.000000 0.000000 0.000000 0.080985 0.000000 0.000000
# 5 0.000000 0.000000 0.000000 0.000000 0.061521 0.000000
# 6 0.000000 0.000000 0.000000 0.000000 0.000000 0.025520
#
#
# Mechanical properties :
#
#
# Convention : Reuss Voigt Hill
#
# Bulk Modulus (GPa) = 43.37749 75.00226 59.18988
# Shear Modulus (GPa) = 22.51407 34.40409 28.45908
#
# Velocity S-wave (km/s) = 3.23244 3.99585 3.63424
# Velocity P-wave (km/s) = 5.83634 7.48981 6.71417
#
# Compressibility (1/GPa) = 0.02305343
#
# Stress axis : x y z
#
# Youngs Moduli (GPa) = 120.71144 60.68557 100.49628
#
# Poissons Ratio (x) = 0.08841 0.57910
# Poissons Ratio (y) = 0.17586 -0.13962
# Poissons Ratio (z) = 0.69559 -0.08431
#
# Static dielectric constant tensor:
#      x y z
#    x 1.255000 0.000000 0.000000 
#    y 0.000000 1.840310 0.000000 
#    z 0.000000 0.000000 1.772240 
# 
# From -- ./inp_files/43404.got.cif
#   From: 2010.05.17/outbox.cif.g08.bks.cpg/sg67_22_cif.got.tgz:43404.got - 2010.06.03 18:28:57.
