data_PCOD9500969
_publ_section_title
;
Structure prediction by ZEFSAII (Michael W. Deem and Ramdas Pophale) SiO2 
 PCOD9500969
Probable space group: C M M A
;
_chemical_formula_sum "Si O2"
_cell_formula_units_Z 112
_cell_length_a 29.405910
_cell_length_b 15.125687
_cell_length_c 12.555580
_cell_angle_alpha 90.000000
_cell_angle_beta 90.000000
_cell_angle_gamma 90.000000
_cell_volume 5584.528510
_symmetry_space_group_name_H-M "C M M A"
_symmetry_group_IT_number 67
_symmetry_cell_setting 'orthorhombic'
loop_
_space_group_symop_operation_xyz
x,y,z
-x,1/2-y,z
x,-y,-z
-x,1/2+y,-z
-x,-y,-z
x,1/2+y,-z
-x,y,z
x,1/2-y,z
1/2+x,1/2+y,z
1/2-x,-y,z
1/2+x,1/2-y,-z
1/2-x,y,-z
1/2-x,1/2-y,-z
1/2+x,y,-z
1/2-x,1/2+y,z
1/2+x,-y,z
loop_
_atom_site_type_symbol
_atom_site_label
_atom_site_fract_x
_atom_site_fract_y
_atom_site_fract_z
Si Si1 0.293926 0.855969 0.201743
Si Si2 0.647239 0.647646 0.009279
Si Si3 0.291665 0.150237 0.565972
Si Si4 0.186995 0.643330 0.210826
Si Si5 0.552549 0.855700 0.710416
Si Si6 0.449518 0.600173 0.958519
Si Si7 0.138326 0.416805 0.581097
O O1 0.303375 0.750000 0.203441
O O2 0.325190 0.892802 0.107624
O O3 0.302651 0.891340 0.320257
O O4 0.240220 0.867712 0.185789
O O5 0.661584 0.750000 0.002234
O O6 0.660571 0.611639 0.893887
O O7 0.593054 0.643476 0.017658
O O8 0.275271 0.250000 0.590441
O O9 0.250000 0.107949 0.500000
O O10 0.336336 0.153005 0.494943
O O11 0.178986 0.750000 0.229879
O O12 0.169925 0.589876 0.313255
O O13 0.500000 0.871210 0.679122
O O14 0.560106 0.750000 0.717025
O O15 0.557997 0.892287 0.830953
O O16 0.588706 0.895319 0.627848
O O17 0.500000 0.638213 0.978573
O O18 0.449888 0.500000 0.000000
O O19 0.138050 0.500000 0.500000
#
# Coordination Sequence:
#
# PCOD9500969 Si02
#       7
#    16  16  16  16  16  16  16
#     4   9  18  32  54  85 116 151 199 251 302 359
#     4  10  19  33  60  90 117 152 201 259 308 369
#     4  10  19  35  57  78 111 162 213 255 297 362
#     4  10  18  35  59  84 117 158 207 254 304 365
#     4  10  21  41  68  93 117 157 216 266 308 378
#     4  10  21  36  58  87 121 158 197 253 324 387
#     4  12  24  35  56  88 124 161 203 261 318 367
#
# _framework density 20.055406999999999
#
# number of rings (size 3 to 8) (size 9 to 14) (size 15 to 20)
#    0.000    1.857    2.857    2.143    0.000    4.286 
#    0.000    0.000    0.000    1.714    0.000    2.000 
#    0.000    0.000    0.000    0.000    0.000    1.143 
#
# Total GULP energy -312158.775929 kJ/mol
# GULP energy per Si atom -5574.263856 kJ/mol
# Density = 2.000976 g / cm^3
# Si number density = 20.055407 Si / 1000 Ang^3
#
#
#
# Elastic Constant Matrix: (Units=GPa)
#
#
# Indices 1 2 3 4 5 6 
#
# 1 123.0486 21.5230 86.7737 0.0000 0.0000 0.0000
# 2 21.5230 74.5302 40.7567 0.0000 0.0000 0.0000
# 3 86.7737 40.7567 145.1279 0.0000 0.0000 0.0000
# 4 0.0000 0.0000 0.0000 3.2666 0.0000 0.0000
# 5 0.0000 0.0000 0.0000 0.0000 40.6498 0.0000
# 6 0.0000 0.0000 0.0000 0.0000 0.0000 29.2496
#
#
#
# Elastic Compliance Matrix: (Units=1/GPa)
#
#
# Indices 1 2 3 4 5 6 
#
# 1 0.014077 0.000635 -0.008595 0.000000 0.000000 0.000000
# 2 0.000635 0.015880 -0.004839 0.000000 0.000000 0.000000
# 3 -0.008595 -0.004839 0.013389 0.000000 0.000000 0.000000
# 4 0.000000 0.000000 0.000000 0.306128 0.000000 0.000000
# 5 0.000000 0.000000 0.000000 0.000000 0.024600 0.000000
# 6 0.000000 0.000000 0.000000 0.000000 0.000000 0.034189
#
#
# Mechanical properties :
#
#
# Convention : Reuss Voigt Hill
#
# Bulk Modulus (GPa) = 56.34737 71.20152 63.77445
# Shear Modulus (GPa) = 11.36938 27.54343 19.45640
#
# Velocity S-wave (km/s) = 2.38355 3.70992 3.11807
# Velocity P-wave (km/s) = 5.97762 7.34376 6.69562
#
# Compressibility (1/GPa) = 0.01774706
#
# Stress axis : x y z
#
# Youngs Moduli (GPa) = 71.03717 62.97051 74.68956
#
# Poissons Ratio (x) = -0.03999 0.64197
# Poissons Ratio (y) = -0.04511 0.36146
# Poissons Ratio (z) = 0.61058 0.30474
#
# Static dielectric constant tensor:
#      x y z
#    x 1.725460 0.000000 0.000000 
#    y 0.000000 1.771970 0.000000 
#    z 0.000000 0.000000 1.742210 
# 
# From -- ./inp_files/23796.got.cif
#   From: 2010.05.17/outbox.cif.g08.bks.cpg/sg67_12_cif.got.tgz:23796.got - 2010.06.03 18:28:57.
