data_PCOD9500545
_publ_section_title
;
Structure prediction by ZEFSAII (Michael W. Deem and Ramdas Pophale) SiO2 
 PCOD9500545
Probable space group: C M M A
;
_chemical_formula_sum "Si O2"
_cell_formula_units_Z 72
_cell_length_a 9.616389
_cell_length_b 25.535486
_cell_length_c 18.000763
_cell_angle_alpha 90.000000
_cell_angle_beta 90.000000
_cell_angle_gamma 90.000000
_cell_volume 4420.252362
_symmetry_space_group_name_H-M "C M M A"
_symmetry_group_IT_number 67
_symmetry_cell_setting 'orthorhombic'
loop_
_space_group_symop_operation_xyz
x,y,z
-x,1/2-y,z
x,-y,-z
-x,1/2+y,-z
-x,-y,-z
x,1/2+y,-z
-x,y,z
x,1/2-y,z
1/2+x,1/2+y,z
1/2-x,-y,z
1/2+x,1/2-y,-z
1/2-x,y,-z
1/2-x,1/2-y,-z
1/2+x,y,-z
1/2-x,1/2+y,z
1/2+x,-y,z
loop_
_atom_site_type_symbol
_atom_site_label
_atom_site_fract_x
_atom_site_fract_y
_atom_site_fract_z
Si Si1 0.156122 0.339260 0.155084
Si Si2 0.000000 0.186380 0.617627
Si Si3 0.000000 0.186597 0.448317
Si Si4 0.833098 0.049914 0.077459
Si Si5 0.168545 0.750000 0.078515
Si Si6 0.790795 0.686727 0.678956
O O1 0.178660 0.397707 0.125617
O O2 0.272746 0.300375 0.123024
O O3 0.158240 0.336746 0.244160
O O4 0.000000 0.322297 0.130274
O O5 0.865959 0.171379 0.663471
O O6 0.000000 0.250000 0.613189
O O7 0.000000 0.167098 0.532481
O O8 0.128796 0.171992 0.396239
O O9 0.000000 0.250000 0.453600
O O10 0.000000 0.039999 0.066988
O O11 0.750000 0.000000 0.110253
O O12 0.750000 0.059237 0.000000
O O13 0.000000 0.750000 0.071994
O O14 0.250000 0.750000 0.000000
O O15 0.803890 0.750000 0.686386
#
# Coordination Sequence:
#
# PCOD9500545 Si02
#       6
#    16   8   8  16   8  16
#     4  11  22  36  55  77 109 143 178 216 263 318
#     4   9  18  28  42  68 103 134 185 217 244 306
#     4   9  16  28  46  66  95 146 177 211 252 300
#     4  10  21  38  59  80 101 132 172 222 271 316
#     4  12  26  38  54  76 105 144 181 215 253 312
#     4  10  18  29  47  70 104 142 175 210 260 300
#
# _framework density 16.288661999999999
#
# number of rings (size 3 to 8) (size 9 to 14) (size 15 to 20)
#    0.000    1.778    2.222    3.667    1.556    6.222 
#    0.000    0.000    0.000    0.000    0.000    0.000 
#    0.000    5.333    0.000    0.000    0.000    0.000 
#
# Total GULP energy -200598.410172 kJ/mol
# GULP energy per Si atom -5572.178060 kJ/mol
# Density = 1.625159 g / cm^3
# Si number density = 16.288662 Si / 1000 Ang^3
#
#
#
# Elastic Constant Matrix: (Units=GPa)
#
#
# Indices 1 2 3 4 5 6 
#
# 1 150.0986 44.5475 34.7908 0.0000 0.0000 0.0000
# 2 44.5475 74.4274 34.0655 0.0000 0.0000 0.0000
# 3 34.7908 34.0655 77.0130 0.0000 0.0000 0.0000
# 4 0.0000 0.0000 0.0000 -2.5142 0.0000 0.0000
# 5 0.0000 0.0000 0.0000 0.0000 -8.9652 0.0000
# 6 0.0000 0.0000 0.0000 0.0000 0.0000 17.3981
#
#
#
# Elastic Compliance Matrix: (Units=1/GPa)
#
#
# Indices 1 2 3 4 5 6 
#
# 1 0.008329 -0.004091 -0.001953 0.000000 0.000000 0.000000
# 2 -0.004091 0.018856 -0.006493 0.000000 0.000000 0.000000
# 3 -0.001953 -0.006493 0.016739 0.000000 0.000000 0.000000
# 4 0.000000 0.000000 0.000000 -0.397745 0.000000 0.000000
# 5 0.000000 0.000000 0.000000 0.000000 -0.111542 0.000000
# 6 0.000000 0.000000 0.000000 0.000000 0.000000 0.057478
#
#
# Mechanical properties :
#
#
# Convention : Reuss Voigt Hill
#
# Bulk Modulus (GPa) = 53.04839 58.70519 55.87679
# Shear Modulus (GPa) = -13.27926 13.72607 0.22341
#
# Velocity S-wave (km/s) = -2.85835 2.90604 0.37074
# Velocity P-wave (km/s) = 4.66314 6.88323 5.87893
#
# Compressibility (1/GPa) = 0.01885071
#
# Stress axis : x y z
#
# Youngs Moduli (GPa) = 120.05864 53.03224 59.74088
#
# Poissons Ratio (x) = 0.21698 0.11667
# Poissons Ratio (y) = 0.49122 0.38787
# Poissons Ratio (z) = 0.23447 0.34431
#
# Static dielectric constant tensor:
#      x y z
#    x 1.681550 0.000000 0.000000 
#    y 0.000000 1.529190 0.000000 
#    z 0.000000 0.000000 1.536520 
# 
# From -- ./inp_files/36796.got.cif
#   From: 2010.05.17/outbox.cif.g08.bks.cpg/sg67_19_cif.got.tgz:36796.got - 2010.06.03 18:28:57.
