data_PCOD9500901
_publ_section_title
;
Structure prediction by ZEFSAII (Michael W. Deem and Ramdas Pophale) SiO2 
 PCOD9500901
Probable space group: C M M A
;
_chemical_formula_sum "Si O2"
_cell_formula_units_Z 104
_cell_length_a 8.832442
_cell_length_b 31.956717
_cell_length_c 19.826524
_cell_angle_alpha 90.000000
_cell_angle_beta 90.000000
_cell_angle_gamma 90.000000
_cell_volume 5596.152373
_symmetry_space_group_name_H-M "C M M A"
_symmetry_group_IT_number 67
_symmetry_cell_setting 'orthorhombic'
loop_
_space_group_symop_operation_xyz
x,y,z
-x,1/2-y,z
x,-y,-z
-x,1/2+y,-z
-x,-y,-z
x,1/2+y,-z
-x,y,z
x,1/2-y,z
1/2+x,1/2+y,z
1/2-x,-y,z
1/2+x,1/2-y,-z
1/2-x,y,-z
1/2-x,1/2-y,-z
1/2+x,y,-z
1/2-x,1/2+y,z
1/2+x,-y,z
loop_
_atom_site_type_symbol
_atom_site_label
_atom_site_fract_x
_atom_site_fract_y
_atom_site_fract_z
Si Si1 0.329984 0.116379 0.441254
Si Si2 0.682622 0.544939 0.771600
Si Si3 0.182632 0.202467 0.925602
Si Si4 0.684513 0.638853 0.809642
Si Si5 0.179684 0.250000 0.423923
Si Si6 0.827821 0.681846 0.327183
Si Si7 0.677498 0.541667 0.377472
O O1 0.500000 0.104217 0.459521
O O2 0.250000 0.142914 0.500000
O O3 0.340027 0.140430 0.371619
O O4 0.218123 0.078651 0.427109
O O5 0.500000 0.542101 0.772979
O O6 0.750000 0.500000 0.796858
O O7 0.728444 0.589551 0.805888
O O8 0.740332 0.548532 0.694517
O O9 0.223590 0.250000 0.902404
O O10 0.231150 0.165537 0.875037
O O11 0.000000 0.201145 0.929344
O O12 0.250000 0.196841 0.000000
O O13 0.500000 0.638653 0.806596
O O14 0.734515 0.666261 0.744583
O O15 0.250000 0.250000 0.500000
O O16 0.233129 0.211937 0.375624
O O17 0.000000 0.250000 0.432394
O O18 0.000000 0.698680 0.317764
O O19 0.500000 0.537310 0.365988
O O20 0.750000 0.500000 0.406526
#
# Coordination Sequence:
#
# PCOD9500901 Si02
#       7
#    16  16  16  16   8  16  16
#     4  11  22  37  55  76 102 135 178 226 280 335
#     4  10  18  33  54  81 112 145 187 232 283 335
#     4   9  18  34  58  87 119 155 189 223 271 331
#     4   9  18  34  59  87 114 149 191 233 277 337
#     4  12  26  42  58  80 109 146 189 236 289 344
#     4  10  21  39  61  82 106 140 184 231 281 338
#     4  11  21  34  52  74 103 139 178 223 277 333
#
# _framework density 18.584198000000001
#
# number of rings (size 3 to 8) (size 9 to 14) (size 15 to 20)
#    0.000    1.846    1.538    4.385    1.077    2.769 
#    0.000    3.846    0.000    0.462    0.000    3.231 
#    0.000    0.000    0.000    0.000    0.000    0.000 
#
# Total GULP energy -289718.404157 kJ/mol
# GULP energy per Si atom -5571.507772 kJ/mol
# Density = 1.854190 g / cm^3
# Si number density = 18.584198 Si / 1000 Ang^3
#
#
#
# Elastic Constant Matrix: (Units=GPa)
#
#
# Indices 1 2 3 4 5 6 
#
# 1 78.2516 40.9354 24.3092 0.0000 0.0000 0.0000
# 2 40.9354 130.5864 62.0654 0.0000 0.0000 0.0000
# 3 24.3092 62.0654 92.9339 0.0000 0.0000 0.0000
# 4 0.0000 0.0000 0.0000 26.9063 0.0000 0.0000
# 5 0.0000 0.0000 0.0000 0.0000 22.0615 0.0000
# 6 0.0000 0.0000 0.0000 0.0000 0.0000 13.1491
#
#
#
# Elastic Compliance Matrix: (Units=1/GPa)
#
#
# Indices 1 2 3 4 5 6 
#
# 1 0.015373 -0.004260 -0.001176 0.000000 0.000000 0.000000
# 2 -0.004260 0.012399 -0.007166 0.000000 0.000000 0.000000
# 3 -0.001176 -0.007166 0.015854 0.000000 0.000000 0.000000
# 4 0.000000 0.000000 0.000000 0.037166 0.000000 0.000000
# 5 0.000000 0.000000 0.000000 0.000000 0.045328 0.000000
# 6 0.000000 0.000000 0.000000 0.000000 0.000000 0.076051
#
#
# Mechanical properties :
#
#
# Convention : Reuss Voigt Hill
#
# Bulk Modulus (GPa) = 54.28545 61.82131 58.05338
# Shear Modulus (GPa) = 21.41171 24.05418 22.73294
#
# Velocity S-wave (km/s) = 3.39801 3.60159 3.50128
# Velocity P-wave (km/s) = 6.68351 7.11569 6.90298
#
# Compressibility (1/GPa) = 0.01842114
#
# Stress axis : x y z
#
# Youngs Moduli (GPa) = 65.04816 80.64986 63.07525
#
# Poissons Ratio (x) = 0.34357 0.07419
# Poissons Ratio (y) = 0.27711 0.45203
# Poissons Ratio (z) = 0.07651 0.57797
#
# Static dielectric constant tensor:
#      x y z
#    x 1.650070 0.000000 0.000000 
#    y 0.000000 1.682890 0.000000 
#    z 0.000000 0.000000 1.628800 
# 
# From -- ./inp_files/37478.got.cif
#   From: 2010.05.17/outbox.cif.g08.bks.cpg/sg67_19_cif.got.tgz:37478.got - 2010.06.03 18:28:57.
