data_PCOD9500080
_publ_section_title
;
Structure prediction by ZEFSAII (Michael W. Deem and Ramdas Pophale) SiO2 
 PCOD9500080
Probable space group: C C C M
;
_chemical_formula_sum "Si O2"
_cell_formula_units_Z 48
_cell_length_a 21.000000
_cell_length_b 15.000000
_cell_length_c 15.000000
_cell_angle_alpha 90.000000
_cell_angle_beta 90.000000
_cell_angle_gamma 90.000000
_cell_volume 4725.000000
_symmetry_space_group_name_H-M "C C C M"
_symmetry_group_IT_number 66
_symmetry_cell_setting 'orthorhombic'
loop_
_space_group_symop_operation_xyz
x,y,z
-x,-y,z
x,-y,1/2-z
-x,y,1/2-z
-x,-y,-z
x,y,-z
-x,y,1/2+z
x,-y,1/2+z
1/2+x,1/2+y,z
1/2-x,1/2-y,z
1/2+x,1/2-y,1/2-z
1/2-x,1/2+y,1/2-z
1/2-x,1/2-y,-z
1/2+x,1/2+y,-z
1/2-x,1/2+y,1/2+z
1/2+x,1/2-y,1/2+z
loop_
_atom_site_type_symbol
_atom_site_label
_atom_site_fract_x
_atom_site_fract_y
_atom_site_fract_z
Si Si1 0.256405 0.645008 0.394311
Si Si2 0.350069 0.096062 0.233002
Si Si3 0.264903 0.855378 0.099555
Si Si4 0.569896 0.730902 0.235007
Si Si5 0.879842 0.122035 0.097395
Si Si6 0.609891 0.442947 0.658831
O O1 0.247847 0.640572 0.500000
O O2 0.250000 0.750000 0.367176
O O3 0.203658 0.588684 0.342702
O O4 0.324562 0.604550 0.368949
O O5 0.313271 0.120021 0.323907
O O6 0.389773 0.183651 0.206608
O O7 0.382227 0.000000 0.250000
O O8 0.250000 0.750000 0.104108
O O9 0.195284 0.898489 0.111627
O O10 0.287983 0.876775 0.000000
O O11 0.500000 0.765515 0.250000
O O12 0.598306 0.687982 0.325380
O O13 0.565578 0.643257 0.172035
O O14 0.911941 0.024591 0.097891
O O15 0.886341 0.164098 0.000000
O O16 0.617437 0.500000 0.750000
#
# Coordination Sequence:
#
# PCOD9500080 Si02
#       6
#    16  16  16  16  16  16
#     4  11  21  35  58  89 124 157 183 220 289 364
#     4  12  23  38  61  86 117 156 197 240 287 339
#     4  10  19  35  64  94 118 144 180 235 303 357
#     4  11  24  42  58  77 113 157 202 245 281 325
#     4  10  20  36  62  93 116 142 182 234 297 356
#     4  10  20  36  59  86 119 150 180 233 295 352
#
# _framework density 10.15873
#
# number of rings (size 3 to 8) (size 9 to 14) (size 15 to 20)
#    0.000    1.333    3.333    4.500    0.000    5.333 
#    0.000    3.333    0.000    0.000    0.000    3.500 
#    0.000    0.000    0.000    0.000    0.000    0.000 
#
# Total GULP energy -267756.009952 kJ/mol
# GULP energy per Si atom -5578.250207 kJ/mol
# Density = 1.013561 g / cm^3
# Si number density = 10.158730 Si / 1000 Ang^3
#
#
#
# Elastic Constant Matrix: (Units=GPa)
#
#
# Indices 1 2 3 4 5 6 
#
# 1 31.1740 -13.7709 -1.2258 0.0000 0.0000 0.0000
# 2 -13.7709 80.7717 -8.4957 0.0000 0.0000 0.0000
# 3 -1.2258 -8.4957 36.5141 0.0000 0.0000 0.0000
# 4 0.0000 0.0000 0.0000 37.1786 0.0000 0.0000
# 5 0.0000 0.0000 0.0000 0.0000 -8.4385 0.0000
# 6 0.0000 0.0000 0.0000 0.0000 0.0000 5.6529
#
#
#
# Elastic Compliance Matrix: (Units=1/GPa)
#
#
# Indices 1 2 3 4 5 6 
#
# 1 0.034934 0.006232 0.002623 0.000000 0.000000 0.000000
# 2 0.006232 0.013803 0.003421 0.000000 0.000000 0.000000
# 3 0.002623 0.003421 0.028271 0.000000 0.000000 0.000000
# 4 0.000000 0.000000 0.000000 0.026897 0.000000 0.000000
# 5 0.000000 0.000000 0.000000 0.000000 -0.118505 0.000000
# 6 0.000000 0.000000 0.000000 0.000000 0.000000 0.176899
#
#
# Mechanical properties :
#
#
# Convention : Reuss Voigt Hill
#
# Bulk Modulus (GPa) = 9.84658 11.27499 10.56079
# Shear Modulus (GPa) = 29.13731 18.34210 23.73971
#
# Velocity S-wave (km/s) = 3.79106 3.00788 3.42195
# Velocity P-wave (km/s) = 4.90100 4.19817 4.56313
#
# Compressibility (1/GPa) = 0.10155806
#
# Stress axis : x y z
#
# Youngs Moduli (GPa) = 28.62538 72.44886 35.37244
#
# Poissons Ratio (x) = -0.45149 -0.09277
# Poissons Ratio (y) = -0.17839 -0.12100
# Poissons Ratio (z) = -0.07508 -0.24783
#
# Static dielectric constant tensor:
#      x y z
#    x 1.740890 0.000000 0.000000 
#    y 0.000000 1.788260 0.000000 
#    z 0.000000 0.000000 1.805650 
# 
# From -- ./inp_files/31149.got.cif
#   From: 2010.05.17/outbox.ucp.g08.bks.cvg/sg66_16_cif.got.tgz:31149.got - 2010.06.11 16:44:13.
