data_PCOD9500112
_publ_section_title
;
Structure prediction by ZEFSAII (Michael W. Deem and Ramdas Pophale) SiO2 
 PCOD9500112
Probable space group: C C C M
;
_chemical_formula_sum "Si O2"
_cell_formula_units_Z 48
_cell_length_a 15.000000
_cell_length_b 21.000000
_cell_length_c 15.000000
_cell_angle_alpha 90.000000
_cell_angle_beta 90.000000
_cell_angle_gamma 90.000000
_cell_volume 4725.000000
_symmetry_space_group_name_H-M "C C C M"
_symmetry_group_IT_number 66
_symmetry_cell_setting 'orthorhombic'
loop_
_space_group_symop_operation_xyz
x,y,z
-x,-y,z
x,-y,1/2-z
-x,y,1/2-z
-x,-y,-z
x,y,-z
-x,y,1/2+z
x,-y,1/2+z
1/2+x,1/2+y,z
1/2-x,1/2-y,z
1/2+x,1/2-y,1/2-z
1/2-x,1/2+y,1/2-z
1/2-x,1/2-y,-z
1/2+x,1/2+y,-z
1/2-x,1/2+y,1/2+z
1/2+x,1/2-y,1/2+z
loop_
_atom_site_type_symbol
_atom_site_label
_atom_site_fract_x
_atom_site_fract_y
_atom_site_fract_z
Si Si1 0.901617 0.520767 0.649242
Si Si2 0.496361 0.667769 0.500000
Si Si3 0.202826 0.317763 0.858264
Si Si4 0.990264 0.728351 0.143262
Si Si5 0.702672 0.649185 0.500000
Si Si6 0.316508 0.393992 0.000000
Si Si7 0.725826 0.992207 0.500000
Si Si8 0.829761 0.336037 0.150506
O O1 0.891125 0.500000 0.750000
O O2 0.831941 0.489002 0.584612
O O3 0.877176 0.594752 0.644662
O O4 0.000000 0.500000 0.620876
O O5 0.476349 0.708308 0.411485
O O6 0.597843 0.647238 0.500000
O O7 0.419561 0.617941 0.500000
O O8 0.250000 0.250000 0.875898
O O9 0.262095 0.365370 0.916045
O O10 0.200964 0.328341 0.752187
O O11 0.096332 0.314777 0.879650
O O12 0.088174 0.705802 0.116306
O O13 0.000000 0.734409 0.250000
O O14 0.748560 0.580264 0.500000
O O15 0.745058 0.677023 0.410753
O O16 0.313506 0.468953 0.000000
#
# Coordination Sequence:
#
# PCOD9500112 Si02
#       8
#    16   8  16  16   8   8   8  16
#     4  10  21  36  59  89 119 154 193 232 292 356
#     4  12  24  41  58  87 111 155 204 251 290 344
#     4  11  22  39  60  90 124 156 193 238 291 361
#     4  10  23  37  59  90 123 149 192 233 297 359
#     4  10  25  42  62  83 118 152 206 247 292 348
#     4  12  24  38  63  83 118 160 197 249 294 334
#     4  10  23  42  56  86 112 157 202 242 290 344
#     4  10  23  39  60  90 121 157 189 240 296 355
#
# _framework density 10.15873
#
# number of rings (size 3 to 8) (size 9 to 14) (size 15 to 20)
#    0.000    1.500    1.667    2.500   14.000    1.000 
#    0.000    0.000    0.000    0.000    0.000    4.667 
#    0.000    0.000    0.000    0.000    0.000    0.000 
#
# Total GULP energy -267337.545194 kJ/mol
# GULP energy per Si atom -5569.532192 kJ/mol
# Density = 1.013561 g / cm^3
# Si number density = 10.158730 Si / 1000 Ang^3
#
#
#
# Elastic Constant Matrix: (Units=GPa)
#
#
# Indices 1 2 3 4 5 6 
#
# 1 132.4118 1.7305 34.1618 0.0000 0.0000 0.0000
# 2 1.7305 43.6459 -6.4910 0.0000 0.0000 0.0000
# 3 34.1618 -6.4910 32.2301 0.0000 0.0000 0.0000
# 4 0.0000 0.0000 0.0000 9.7609 0.0000 0.0000
# 5 0.0000 0.0000 0.0000 0.0000 59.8539 0.0000
# 6 0.0000 0.0000 0.0000 0.0000 0.0000 30.3546
#
#
#
# Elastic Compliance Matrix: (Units=1/GPa)
#
#
# Indices 1 2 3 4 5 6 
#
# 1 0.010587 -0.002153 -0.011656 0.000000 0.000000 0.000000
# 2 -0.002153 0.024057 0.007127 0.000000 0.000000 0.000000
# 3 -0.011656 0.007127 0.044816 0.000000 0.000000 0.000000
# 4 0.000000 0.000000 0.000000 0.102450 0.000000 0.000000
# 5 0.000000 0.000000 0.000000 0.000000 0.016707 0.000000
# 6 0.000000 0.000000 0.000000 0.000000 0.000000 0.032944
#
#
# Mechanical properties :
#
#
# Convention : Reuss Voigt Hill
#
# Bulk Modulus (GPa) = 15.12914 29.67671 22.40293
# Shear Modulus (GPa) = 18.72954 31.91963 25.32458
#
# Velocity S-wave (km/s) = 3.03948 3.96794 3.53433
# Velocity P-wave (km/s) = 4.44753 5.96917 5.26362
#
# Compressibility (1/GPa) = 0.06609759
#
# Stress axis : x y z
#
# Youngs Moduli (GPa) = 94.45146 41.56796 22.31326
#
# Poissons Ratio (x) = 0.08950 0.26007
# Poissons Ratio (y) = 0.20337 -0.15903
# Poissons Ratio (z) = 1.10089 -0.29626
#
# Static dielectric constant tensor:
#      x y z
#    x 1.839900 0.000000 0.000000 
#    y 0.000000 1.913730 0.000000 
#    z 0.000000 0.000000 1.700290 
# 
# From -- ./inp_files/28475.got.cif
#   From: 2010.05.17/outbox.ucp.g08.bks.cvg/sg66_15_cif.got.tgz:28475.got - 2010.06.11 16:44:13.
