data_PCOD9500505
_publ_section_title
;
Structure prediction by ZEFSAII (Michael W. Deem and Ramdas Pophale) SiO2 
 PCOD9500505
Probable space group: C M M A
;
_chemical_formula_sum "Si O2"
_cell_formula_units_Z 120
_cell_length_a 8.275164
_cell_length_b 27.888411
_cell_length_c 30.717136
_cell_angle_alpha 90.000000
_cell_angle_beta 90.000000
_cell_angle_gamma 90.000000
_cell_volume 7088.936730
_symmetry_space_group_name_H-M "C M M A"
_symmetry_group_IT_number 67
_symmetry_cell_setting 'orthorhombic'
loop_
_space_group_symop_operation_xyz
x,y,z
-x,1/2-y,z
x,-y,-z
-x,1/2+y,-z
-x,-y,-z
x,1/2+y,-z
-x,y,z
x,1/2-y,z
1/2+x,1/2+y,z
1/2-x,-y,z
1/2+x,1/2-y,-z
1/2-x,y,-z
1/2-x,1/2-y,-z
1/2+x,y,-z
1/2-x,1/2+y,z
1/2+x,-y,z
loop_
_atom_site_type_symbol
_atom_site_label
_atom_site_fract_x
_atom_site_fract_y
_atom_site_fract_z
Si Si1 0.807319 0.305394 0.545689
Si Si2 0.693059 0.446888 0.120754
Si Si3 0.694915 0.305758 0.639004
Si Si4 0.693046 0.552661 0.778824
Si Si5 0.695358 0.750000 0.049677
Si Si6 0.696896 0.303937 0.810883
Si Si7 0.305018 0.357238 0.725772
Si Si8 0.804863 0.652898 0.900197
O O1 0.745597 0.250000 0.545617
O O2 0.750000 0.327478 0.500000
O O3 0.747374 0.325023 0.591787
O O4 0.000000 0.304718 0.545793
O O5 0.500000 0.446998 0.121785
O O6 0.750000 0.500000 0.106798
O O7 0.753887 0.440177 0.171118
O O8 0.748660 0.401548 0.091822
O O9 0.500000 0.304598 0.640067
O O10 0.750524 0.250000 0.643859
O O11 0.752943 0.338412 0.679079
O O12 0.500000 0.555005 0.780130
O O13 0.750000 0.500000 0.765797
O O14 0.754846 0.591473 0.744466
O O15 0.500000 0.750000 0.052761
O O16 0.749086 0.699563 0.071980
O O17 0.750000 0.750000 0.000000
O O18 0.500000 0.305005 0.810922
O O19 0.747490 0.250000 0.819505
O O20 0.750861 0.321322 0.763894
O O21 0.751589 0.335995 0.850926
O O22 0.500000 0.355906 0.724427
O O23 0.000000 0.652870 0.901616
#
# Coordination Sequence:
#
# PCOD9500505 Si02
#       8
#    16  16  16  16   8  16  16  16
#     4   9  16  26  41  59  80 112 153 198 244 285
#     4  10  20  33  51  76 104 134 168 209 256 299
#     4   9  17  28  41  62  91 123 159 194 230 281
#     4  10  20  32  46  65  92 124 161 200 240 286
#     4  10  22  38  58  84 110 142 174 210 255 300
#     4   9  15  25  44  69  95 126 164 201 231 273
#     4  10  18  28  45  66  92 127 162 195 236 280
#     4  10  18  32  54  78 103 133 172 209 245 294
#
# _framework density 16.927786000000001
#
# number of rings (size 3 to 8) (size 9 to 14) (size 15 to 20)
#    0.000    2.400    2.000    1.600    0.000    5.333 
#    0.000    0.000    0.000    2.400    0.000    2.800 
#    0.000    0.533    0.000    5.600    0.000    2.667 
#
# Total GULP energy -334185.543988 kJ/mol
# GULP energy per Si atom -5569.759066 kJ/mol
# Density = 1.688926 g / cm^3
# Si number density = 16.927786 Si / 1000 Ang^3
#
#
#
# Elastic Constant Matrix: (Units=GPa)
#
#
# Indices 1 2 3 4 5 6 
#
# 1 14.5601 11.7414 14.3331 0.0000 0.0000 0.0000
# 2 11.7414 124.6583 45.0745 0.0000 0.0000 0.0000
# 3 14.3331 45.0745 79.1350 0.0000 0.0000 0.0000
# 4 0.0000 0.0000 0.0000 13.4563 0.0000 0.0000
# 5 0.0000 0.0000 0.0000 0.0000 20.1973 0.0000
# 6 0.0000 0.0000 0.0000 0.0000 0.0000 19.7551
#
#
#
# Elastic Compliance Matrix: (Units=1/GPa)
#
#
# Indices 1 2 3 4 5 6 
#
# 1 0.084496 -0.003054 -0.013565 0.000000 0.000000 0.000000
# 2 -0.003054 0.010213 -0.005264 0.000000 0.000000 0.000000
# 3 -0.013565 -0.005264 0.018092 0.000000 0.000000 0.000000
# 4 0.000000 0.000000 0.000000 0.074315 0.000000 0.000000
# 5 0.000000 0.000000 0.000000 0.000000 0.049512 0.000000
# 6 0.000000 0.000000 0.000000 0.000000 0.000000 0.050620
#
#
# Mechanical properties :
#
#
# Convention : Reuss Voigt Hill
#
# Bulk Modulus (GPa) = 14.48519 40.07240 27.27879
# Shear Modulus (GPa) = 14.12332 20.49537 17.30935
#
# Velocity S-wave (km/s) = 2.89161 3.48336 3.20119
# Velocity P-wave (km/s) = 4.44119 6.31683 5.46015
#
# Compressibility (1/GPa) = 0.06903603
#
# Stress axis : x y z
#
# Youngs Moduli (GPa) = 11.83482 97.91460 55.27349
#
# Poissons Ratio (x) = 0.29902 0.74977
# Poissons Ratio (y) = 0.03614 0.29096
# Poissons Ratio (z) = 0.16054 0.51543
#
# Static dielectric constant tensor:
#      x y z
#    x 1.591960 0.000000 0.000000 
#    y 0.000000 1.586770 0.000000 
#    z 0.000000 0.000000 1.586030 
# 
# From -- ./inp_files/43921.got.cif
#   From: 2010.05.17/outbox.cif.g08.bks.cpg/sg67_22_cif.got.tgz:43921.got - 2010.06.03 18:28:57.
