data_PCOD9500352
_publ_section_title
;
Structure prediction by ZEFSAII (Michael W. Deem and Ramdas Pophale) SiO2 
 PCOD9500352
Probable space group: C M M A
;
_chemical_formula_sum "Si O2"
_cell_formula_units_Z 64
_cell_length_a 31.424020
_cell_length_b 8.591700
_cell_length_c 15.643863
_cell_angle_alpha 90.000000
_cell_angle_beta 90.000000
_cell_angle_gamma 90.000000
_cell_volume 4223.620126
_symmetry_space_group_name_H-M "C M M A"
_symmetry_group_IT_number 67
_symmetry_cell_setting 'orthorhombic'
loop_
_space_group_symop_operation_xyz
x,y,z
-x,1/2-y,z
x,-y,-z
-x,1/2+y,-z
-x,-y,-z
x,1/2+y,-z
-x,y,z
x,1/2-y,z
1/2+x,1/2+y,z
1/2-x,-y,z
1/2+x,1/2-y,-z
1/2-x,y,-z
1/2-x,1/2-y,-z
1/2+x,y,-z
1/2-x,1/2+y,z
1/2+x,-y,z
loop_
_atom_site_type_symbol
_atom_site_label
_atom_site_fract_x
_atom_site_fract_y
_atom_site_fract_z
Si Si1 0.953459 0.563178 0.902838
Si Si2 0.364436 0.564176 0.903074
Si Si3 0.798093 0.063933 0.232087
Si Si4 0.201484 0.936087 0.411793
O O1 0.949085 0.750000 0.904624
O O2 0.910505 0.488978 0.866652
O O3 0.000000 0.525277 0.864251
O O4 0.954880 0.500000 0.000000
O O5 0.362165 0.750000 0.905105
O O6 0.327407 0.494326 0.844791
O O7 0.361058 0.500000 0.000000
O O8 0.796585 0.250000 0.235521
O O9 0.750000 0.000000 0.221882
O O10 0.816177 0.998682 0.322168
O O11 0.202114 0.750000 0.412749
O O12 0.181814 0.000000 0.500000
O O13 0.250000 0.000000 0.411328
#
# Coordination Sequence:
#
# PCOD9500352 Si02
#       4
#    16  16  16  16
#     4   9  16  27  44  65  87 112 143 181 225 268
#     4  11  21  33  47  65  89 120 155 189 225 265
#     4  11  21  34  48  65  89 119 154 190 226 265
#     4  10  17  28  45  66  88 113 144 181 225 268
#
# _framework density 15.152877999999999
#
# number of rings (size 3 to 8) (size 9 to 14) (size 15 to 20)
#    0.000    1.750    0.000   11.250    0.000    2.000 
#    0.000    2.500    0.000    0.000    0.000    0.000 
#    0.000    1.000    0.000    3.750    0.000    6.750 
#
# Total GULP energy -178354.906697 kJ/mol
# GULP energy per Si atom -5573.590834 kJ/mol
# Density = 1.511839 g / cm^3
# Si number density = 15.152878 Si / 1000 Ang^3
#
#
#
# Elastic Constant Matrix: (Units=GPa)
#
#
# Indices 1 2 3 4 5 6 
#
# 1 86.1941 44.6263 47.8117 0.0000 0.0000 0.0000
# 2 44.6263 164.3960 47.1108 0.0000 0.0000 0.0000
# 3 47.8117 47.1108 88.3856 0.0000 0.0000 0.0000
# 4 0.0000 0.0000 0.0000 28.1023 0.0000 0.0000
# 5 0.0000 0.0000 0.0000 0.0000 -1.0624 0.0000
# 6 0.0000 0.0000 0.0000 0.0000 0.0000 29.3603
#
#
#
# Elastic Compliance Matrix: (Units=1/GPa)
#
#
# Indices 1 2 3 4 5 6 
#
# 1 0.017331 -0.002382 -0.008106 0.000000 0.000000 0.000000
# 2 -0.002382 0.007507 -0.002713 0.000000 0.000000 0.000000
# 3 -0.008106 -0.002713 0.017145 0.000000 0.000000 0.000000
# 4 0.000000 0.000000 0.000000 0.035584 0.000000 0.000000
# 5 0.000000 0.000000 0.000000 0.000000 -0.941270 0.000000
# 6 0.000000 0.000000 0.000000 0.000000 0.000000 0.034060
#
#
# Mechanical properties :
#
#
# Convention : Reuss Voigt Hill
#
# Bulk Modulus (GPa) = 64.17603 68.67480 66.42541
# Shear Modulus (GPa) = -6.26528 24.57515 9.15494
#
# Velocity S-wave (km/s) = -2.03560 4.03154 2.46066
# Velocity P-wave (km/s) = 6.07613 8.19090 7.21146
#
# Compressibility (1/GPa) = 0.01558214
#
# Stress axis : x y z
#
# Youngs Moduli (GPa) = 57.69991 133.21177 58.32700
#
# Poissons Ratio (x) = 0.31729 0.47278
# Poissons Ratio (y) = 0.13743 0.15823
# Poissons Ratio (z) = 0.46769 0.36138
#
# Static dielectric constant tensor:
#      x y z
#    x 1.525960 0.000000 0.000000 
#    y 0.000000 1.501830 0.000000 
#    z 0.000000 0.000000 1.526040 
# 
# From -- ./inp_files/25205.got.cif
#   From: 2010.05.17/outbox.cif.g08.bks.cpg/sg67_13_cif.got.tgz:25205.got - 2010.06.03 18:28:57.
