data_PCOD9500836
_publ_section_title
;
Structure prediction by ZEFSAII (Michael W. Deem and Ramdas Pophale) SiO2 
 PCOD9500836
Probable space group: C M M A
;
_chemical_formula_sum "Si O2"
_cell_formula_units_Z 88
_cell_length_a 8.586127
_cell_length_b 21.615867
_cell_length_c 24.180216
_cell_angle_alpha 90.000000
_cell_angle_beta 90.000000
_cell_angle_gamma 90.000000
_cell_volume 4487.765376
_symmetry_space_group_name_H-M "C M M A"
_symmetry_group_IT_number 67
_symmetry_cell_setting 'orthorhombic'
loop_
_space_group_symop_operation_xyz
x,y,z
-x,1/2-y,z
x,-y,-z
-x,1/2+y,-z
-x,-y,-z
x,1/2+y,-z
-x,y,z
x,1/2-y,z
1/2+x,1/2+y,z
1/2-x,-y,z
1/2+x,1/2-y,-z
1/2-x,y,-z
1/2-x,1/2-y,-z
1/2+x,y,-z
1/2-x,1/2+y,z
1/2+x,-y,z
loop_
_atom_site_type_symbol
_atom_site_label
_atom_site_fract_x
_atom_site_fract_y
_atom_site_fract_z
Si Si1 0.312028 0.680336 0.733301
Si Si2 0.311108 0.818424 0.863397
Si Si3 0.315380 0.063432 0.667385
Si Si4 0.312144 0.066575 0.062311
Si Si5 0.185060 0.119768 0.561933
Si Si6 0.186337 0.250000 0.437135
O O1 0.500000 0.676634 0.727201
O O2 0.264517 0.750000 0.715308
O O3 0.273971 0.674862 0.798528
O O4 0.236207 0.623704 0.701341
O O5 0.500000 0.817946 0.866611
O O6 0.256716 0.750000 0.881856
O O7 0.258151 0.876215 0.899841
O O8 0.500000 0.060729 0.663504
O O9 0.242928 0.070691 0.606213
O O10 0.250000 0.000000 0.692692
O O11 0.500000 0.064842 0.061401
O O12 0.250000 0.000000 0.082346
O O13 0.250000 0.074832 0.000000
O O14 0.250000 0.110229 0.500000
O O15 0.247661 0.185754 0.584838
O O16 0.000000 0.121919 0.558991
O O17 0.250000 0.250000 0.500000
O O18 0.000000 0.250000 0.436196
#
# Coordination Sequence:
#
# PCOD9500836 Si02
#       6
#    16  16  16  16  16   8
#     4   9  19  39  65  89 115 150 192 236 290 351
#     4   8  16  33  57  83 111 146 188 234 284 341
#     4  12  26  43  61  86 119 153 194 240 291 349
#     4  10  19  32  51  77 112 152 194 236 283 335
#     4  11  22  39  61  87 118 153 192 235 288 345
#     4  10  18  32  54  84 116 148 186 230 275 326
#
# _framework density 19.608868000000001
#
# number of rings (size 3 to 8) (size 9 to 14) (size 15 to 20)
#    0.000    2.000    0.000    7.364    1.273    1.818 
#    0.000    5.455    0.000    3.818    0.000    0.000 
#    0.000    0.000    0.000    0.000    0.000    0.000 
#
# Total GULP energy -245712.813909 kJ/mol
# GULP energy per Si atom -5584.382134 kJ/mol
# Density = 1.956424 g / cm^3
# Si number density = 19.608868 Si / 1000 Ang^3
#
#
#
# Elastic Constant Matrix: (Units=GPa)
#
#
# Indices 1 2 3 4 5 6 
#
# 1 121.7554 55.4856 28.1420 0.0000 0.0000 0.0000
# 2 55.4856 183.9423 78.3258 0.0000 0.0000 0.0000
# 3 28.1420 78.3258 67.9785 0.0000 0.0000 0.0000
# 4 0.0000 0.0000 0.0000 29.1046 0.0000 0.0000
# 5 0.0000 0.0000 0.0000 0.0000 21.1489 0.0000
# 6 0.0000 0.0000 0.0000 0.0000 0.0000 23.4802
#
#
#
# Elastic Compliance Matrix: (Units=1/GPa)
#
#
# Indices 1 2 3 4 5 6 
#
# 1 0.009576 -0.002357 -0.001249 0.000000 0.000000 0.000000
# 2 -0.002357 0.011253 -0.011990 0.000000 0.000000 0.000000
# 3 -0.001249 -0.011990 0.029043 0.000000 0.000000 0.000000
# 4 0.000000 0.000000 0.000000 0.034359 0.000000 0.000000
# 5 0.000000 0.000000 0.000000 0.000000 0.047284 0.000000
# 6 0.000000 0.000000 0.000000 0.000000 0.000000 0.042589
#
#
# Mechanical properties :
#
#
# Convention : Reuss Voigt Hill
#
# Bulk Modulus (GPa) = 53.53260 77.50921 65.52090
# Shear Modulus (GPa) = 23.63823 28.86160 26.24991
#
# Velocity S-wave (km/s) = 3.47578 3.84065 3.66276
# Velocity P-wave (km/s) = 6.59299 7.69941 7.16758
#
# Compressibility (1/GPa) = 0.01868021
#
# Stress axis : x y z
#
# Youngs Moduli (GPa) = 104.42960 88.86453 34.43185
#
# Poissons Ratio (x) = 0.20944 0.04299
# Poissons Ratio (y) = 0.24612 0.41285
# Poissons Ratio (z) = 0.13040 1.06551
#
# Static dielectric constant tensor:
#      x y z
#    x 1.657200 0.000000 0.000000 
#    y 0.000000 1.702930 0.000000 
#    z 0.000000 0.000000 1.666610 
# 
# From -- ./inp_files/40640.got.cif
#   From: 2010.05.17/outbox.cif.g08.bks.cpg/sg67_21_cif.got.tgz:40640.got - 2010.06.03 18:28:57.
