data_PCOD9500543
_publ_section_title
;
Structure prediction by ZEFSAII (Michael W. Deem and Ramdas Pophale) SiO2 
 PCOD9500543
Probable space group: C M M A
;
_chemical_formula_sum "Si O2"
_cell_formula_units_Z 96
_cell_length_a 10.737166
_cell_length_b 14.544630
_cell_length_c 28.812526
_cell_angle_alpha 90.000000
_cell_angle_beta 90.000000
_cell_angle_gamma 90.000000
_cell_volume 4499.597635
_symmetry_space_group_name_H-M "C M M A"
_symmetry_group_IT_number 67
_symmetry_cell_setting 'orthorhombic'
loop_
_space_group_symop_operation_xyz
x,y,z
-x,1/2-y,z
x,-y,-z
-x,1/2+y,-z
-x,-y,-z
x,1/2+y,-z
-x,y,z
x,1/2-y,z
1/2+x,1/2+y,z
1/2-x,-y,z
1/2+x,1/2-y,-z
1/2-x,y,-z
1/2-x,1/2-y,-z
1/2+x,y,-z
1/2-x,1/2+y,z
1/2+x,-y,z
loop_
_atom_site_type_symbol
_atom_site_label
_atom_site_fract_x
_atom_site_fract_y
_atom_site_fract_z
Si Si1 0.750218 0.362404 0.764089
Si Si2 0.249476 0.612287 0.553759
Si Si3 0.500000 0.111574 0.395988
Si Si4 0.642803 0.637721 0.964611
Si Si5 0.000000 0.640223 0.714831
Si Si6 0.500000 0.892160 0.394965
Si Si7 0.500000 0.641855 0.713615
Si Si8 0.142914 0.638195 0.140739
O O1 0.748438 0.250000 0.763103
O O2 0.624759 0.394526 0.739514
O O3 0.767182 0.390233 0.817653
O O4 0.872434 0.393403 0.735990
O O5 0.250000 0.500000 0.554543
O O6 0.250000 0.639533 0.500000
O O7 0.373955 0.644336 0.579596
O O8 0.125354 0.642599 0.580543
O O9 0.500000 0.131149 0.341501
O O10 0.500000 0.001717 0.401684
O O11 0.500000 0.610055 0.976005
O O12 0.642698 0.750000 0.964963
O O13 0.671392 0.608393 0.911694
O O14 0.750000 0.607913 0.000000
O O15 0.000000 0.750000 0.720721
O O16 0.000000 0.623361 0.659967
O O17 0.500000 0.750000 0.724538
O O18 0.144305 0.750000 0.140081
O O19 0.000000 0.611587 0.151772
#
# Coordination Sequence:
#
# PCOD9500543 Si02
#       8
#    16  16   8  16   8   8   8  16
#     4   9  16  27  41  58  78 106 144 179 210 246
#     4   9  17  30  49  70  89 111 141 174 205 244
#     4  10  19  30  48  72  88 109 145 173 205 252
#     4   8  13  20  29  43  65  94 128 167 211 252
#     4  10  20  31  43  61  87 116 142 172 215 258
#     4  10  19  32  48  66  92 115 135 173 215 252
#     4  10  18  29  47  65  85 110 142 182 209 240
#     4   8  12  21  36  50  68  97 136 178 211 243
#
# _framework density 21.335242000000001
#
# number of rings (size 3 to 8) (size 9 to 14) (size 15 to 20)
#    0.000    3.000    0.833    2.500    0.000    2.000 
#    1.500    0.000    0.000    3.000    0.000    0.000 
#    0.000    0.000    0.000    0.000    0.000    5.000 
#
# Total GULP energy -268002.820598 kJ/mol
# GULP energy per Si atom -5583.392096 kJ/mol
# Density = 2.128668 g / cm^3
# Si number density = 21.335242 Si / 1000 Ang^3
#
#
#
# Elastic Constant Matrix: (Units=GPa)
#
#
# Indices 1 2 3 4 5 6 
#
# 1 232.8651 13.0666 152.8065 0.0000 0.0000 0.0000
# 2 13.0666 76.0508 -2.0459 0.0000 0.0000 0.0000
# 3 152.8065 -2.0459 213.6385 0.0000 0.0000 0.0000
# 4 0.0000 0.0000 0.0000 18.1519 0.0000 0.0000
# 5 0.0000 0.0000 0.0000 0.0000 44.3219 0.0000
# 6 0.0000 0.0000 0.0000 0.0000 0.0000 -18.7040
#
#
#
# Elastic Compliance Matrix: (Units=1/GPa)
#
#
# Indices 1 2 3 4 5 6 
#
# 1 0.008279 -0.001582 -0.005937 0.000000 0.000000 0.000000
# 2 -0.001582 0.013455 0.001260 0.000000 0.000000 0.000000
# 3 -0.005937 0.001260 0.008939 0.000000 0.000000 0.000000
# 4 0.000000 0.000000 0.000000 0.055091 0.000000 0.000000
# 5 0.000000 0.000000 0.000000 0.000000 0.022562 0.000000
# 6 0.000000 0.000000 0.000000 0.000000 0.000000 -0.053465
#
#
# Mechanical properties :
#
#
# Convention : Reuss Voigt Hill
#
# Bulk Modulus (GPa) = 55.07762 94.46765 74.77264
# Shear Modulus (GPa) = 68.09284 32.66913 50.38098
#
# Velocity S-wave (km/s) = 5.65552 3.91734 4.86469
# Velocity P-wave (km/s) = 8.27756 8.05199 8.16555
#
# Compressibility (1/GPa) = 0.01815619
#
# Stress axis : x y z
#
# Youngs Moduli (GPa) = 120.79245 74.32267 111.86914
#
# Poissons Ratio (x) = 0.11759 0.66411
# Poissons Ratio (y) = 0.19111 -0.14101
# Poissons Ratio (z) = 0.71709 -0.09368
#
# Static dielectric constant tensor:
#      x y z
#    x 1.739130 0.000000 0.000000 
#    y 0.000000 1.848620 0.000000 
#    z 0.000000 0.000000 1.732860 
# 
# From -- ./inp_files/39699.got.cif
#   From: 2010.05.17/outbox.cif.g08.bks.cpg/sg67_20_cif.got.tgz:39699.got - 2010.06.03 18:28:57.
