data_PCOD9500683
_publ_section_title
;
Structure prediction by ZEFSAII (Michael W. Deem and Ramdas Pophale) SiO2 
 PCOD9500683
Probable space group: C M M A
;
_chemical_formula_sum "Si O2"
_cell_formula_units_Z 68
_cell_length_a 20.022460
_cell_length_b 19.773387
_cell_length_c 7.315405
_cell_angle_alpha 90.000000
_cell_angle_beta 90.000000
_cell_angle_gamma 90.000000
_cell_volume 2896.255529
_symmetry_space_group_name_H-M "C M M A"
_symmetry_group_IT_number 67
_symmetry_cell_setting 'orthorhombic'
loop_
_space_group_symop_operation_xyz
x,y,z
-x,1/2-y,z
x,-y,-z
-x,1/2+y,-z
-x,-y,-z
x,1/2+y,-z
-x,y,z
x,1/2-y,z
1/2+x,1/2+y,z
1/2-x,-y,z
1/2+x,1/2-y,-z
1/2-x,y,-z
1/2-x,1/2-y,-z
1/2+x,y,-z
1/2-x,1/2+y,z
1/2+x,-y,z
loop_
_atom_site_type_symbol
_atom_site_label
_atom_site_fract_x
_atom_site_fract_y
_atom_site_fract_z
Si Si1 0.135089 0.827105 0.263931
Si Si2 0.755520 0.578229 0.777195
Si Si3 0.392378 0.138063 0.845732
Si Si4 0.000000 0.037347 0.218676
Si Si5 0.000000 0.750000 0.735523
Si Si6 0.500000 0.604325 0.618479
O O1 0.150296 0.750000 0.314931
O O2 0.194701 0.878754 0.302687
O O3 0.065466 0.851003 0.350029
O O4 0.124589 0.831519 0.044131
O O5 0.750000 0.500000 0.719963
O O6 0.825390 0.616136 0.741922
O O7 0.750000 0.578264 0.000000
O O8 0.434252 0.068982 0.870782
O O9 0.441477 0.191174 0.751086
O O10 0.000000 0.067990 0.423776
O O11 0.000000 0.957449 0.238259
#
# Coordination Sequence:
#
# PCOD9500683 Si02
#       6
#    16  16  16   8   4   8
#     4  11  22  36  60  89 122 154 187 252 304 352
#     4   9  19  34  57  88 119 153 196 242 294 355
#     4  10  20  36  61  86 117 150 201 235 296 359
#     4  10  23  40  59  83 110 165 201 253 283 356
#     4  10  18  30  52  86 114 150 186 236 280 348
#     4  11  23  40  57  82 122 152 208 243 305 345
#
# _framework density 23.478593
#
# number of rings (size 3 to 8) (size 9 to 14) (size 15 to 20)
#    0.000    1.882    1.176    3.176    1.647    5.176 
#    8.471    1.176    0.000    5.647    0.000    0.000 
#    0.000    0.000    0.000    0.000    0.000    0.000 
#
# Total GULP energy -189795.468451 kJ/mol
# GULP energy per Si atom -5582.219660 kJ/mol
# Density = 2.342515 g / cm^3
# Si number density = 23.478593 Si / 1000 Ang^3
#
#
#
# Elastic Constant Matrix: (Units=GPa)
#
#
# Indices 1 2 3 4 5 6 
#
# 1 221.4225 99.7362 25.6296 0.0000 0.0000 0.0000
# 2 99.7362 208.6994 33.3882 0.0000 0.0000 0.0000
# 3 25.6296 33.3882 70.9825 0.0000 0.0000 0.0000
# 4 0.0000 0.0000 0.0000 11.6051 0.0000 0.0000
# 5 0.0000 0.0000 0.0000 0.0000 2.2692 0.0000
# 6 0.0000 0.0000 0.0000 0.0000 0.0000 29.5114
#
#
#
# Elastic Compliance Matrix: (Units=1/GPa)
#
#
# Indices 1 2 3 4 5 6 
#
# 1 0.005803 -0.002636 -0.000855 0.000000 0.000000 0.000000
# 2 -0.002636 0.006379 -0.002049 0.000000 0.000000 0.000000
# 3 -0.000855 -0.002049 0.015360 0.000000 0.000000 0.000000
# 4 0.000000 0.000000 0.000000 0.086169 0.000000 0.000000
# 5 0.000000 0.000000 0.000000 0.000000 0.440683 0.000000
# 6 0.000000 0.000000 0.000000 0.000000 0.000000 0.033885
#
#
# Mechanical properties :
#
#
# Convention : Reuss Voigt Hill
#
# Bulk Modulus (GPa) = 60.74584 90.95694 75.85139
# Shear Modulus (GPa) = 8.26655 31.50050 19.88352
#
# Velocity S-wave (km/s) = 1.87844 3.66685 2.91328
# Velocity P-wave (km/s) = 5.53478 7.53341 6.61007
#
# Compressibility (1/GPa) = 0.01646203
#
# Stress axis : x y z
#
# Youngs Moduli (GPa) = 172.33351 156.75959 65.10238
#
# Poissons Ratio (x) = 0.41326 0.05567
# Poissons Ratio (y) = 0.45432 0.13338
# Poissons Ratio (z) = 0.14737 0.32116
#
# Static dielectric constant tensor:
#      x y z
#    x 1.839530 0.000000 0.000000 
#    y 0.000000 1.840080 0.000000 
#    z 0.000000 0.000000 1.935150 
# 
# From -- ./inp_files/10821.got.cif
#   From: 2010.05.17/outbox.cif.g08.bks.cpg/sg67_6_cif.got.tgz:10821.got - 2010.06.03 18:28:57.
