data_PCOD9500365
_publ_section_title
;
Structure prediction by ZEFSAII (Michael W. Deem and Ramdas Pophale) SiO2 
 PCOD9500365
Probable space group: C M M A
;
_chemical_formula_sum "Si O2"
_cell_formula_units_Z 116
_cell_length_a 30.348863
_cell_length_b 8.070336
_cell_length_c 26.224835
_cell_angle_alpha 90.000000
_cell_angle_beta 90.000000
_cell_angle_gamma 90.000000
_cell_volume 6423.131392
_symmetry_space_group_name_H-M "C M M A"
_symmetry_group_IT_number 67
_symmetry_cell_setting 'orthorhombic'
loop_
_space_group_symop_operation_xyz
x,y,z
-x,1/2-y,z
x,-y,-z
-x,1/2+y,-z
-x,-y,-z
x,1/2+y,-z
-x,y,z
x,1/2-y,z
1/2+x,1/2+y,z
1/2-x,-y,z
1/2+x,1/2-y,-z
1/2-x,y,-z
1/2-x,1/2-y,-z
1/2+x,y,-z
1/2-x,1/2+y,z
1/2+x,-y,z
loop_
_atom_site_type_symbol
_atom_site_label
_atom_site_fract_x
_atom_site_fract_y
_atom_site_fract_z
Si Si1 0.163490 0.051076 0.445934
Si Si2 0.548828 0.052939 0.303883
Si Si3 0.065221 0.552992 0.423937
Si Si4 0.198662 0.943630 0.165534
Si Si5 0.297958 0.449194 0.659618
Si Si6 0.863702 0.445630 0.255980
Si Si7 0.801200 0.946258 0.945666
Si Si8 0.500000 0.750000 0.452891
O O1 0.157819 0.250000 0.443730
O O2 0.192543 0.996556 0.397880
O O3 0.182922 0.000000 0.500000
O O4 0.115705 0.966668 0.440180
O O5 0.500000 0.981471 0.294292
O O6 0.545893 0.250000 0.301394
O O7 0.561176 0.016621 0.362958
O O8 0.586429 0.002947 0.264200
O O9 0.051454 0.750000 0.432356
O O10 0.037785 0.402012 0.449302
O O11 0.199188 0.750000 0.174385
O O12 0.250000 0.000000 0.170963
O O13 0.164173 0.018896 0.205327
O O14 0.182882 0.979773 0.107711
O O15 0.299956 0.250000 0.660405
O O16 0.250000 0.500000 0.677792
O O17 0.335179 0.517538 0.697148
O O18 0.865157 0.250000 0.262100
O O19 0.803197 0.750000 0.942055
O O20 0.750000 0.000000 0.947458
O O21 0.821224 0.000000 0.000000
#
# Coordination Sequence:
#
# PCOD9500365 Si02
#       8
#    16  16  16  16  16  16  16   4
#     4  11  23  42  62  83 110 145 178 226 279 334
#     4  10  21  36  57  84 111 141 182 221 269 327
#     4  11  22  38  62  87 113 146 181 219 274 332
#     4  11  21  34  50  74 110 150 191 234 279 328
#     4  10  23  39  59  83 109 140 182 226 276 333
#     4  11  22  36  56  81 111 146 181 225 278 330
#     4  10  17  28  46  70 101 142 190 234 276 322
#     4  12  22  36  66  86 122 142 180 224 270 330
#
# _framework density 18.059729000000001
#
# number of rings (size 3 to 8) (size 9 to 14) (size 15 to 20)
#    0.000    1.379    2.759    5.172    0.966    3.862 
#    0.000    1.724    0.000    0.000    0.000    0.000 
#    0.000    0.552    0.000    2.069    0.000    3.448 
#
# Total GULP energy -323214.245956 kJ/mol
# GULP energy per Si atom -5572.659413 kJ/mol
# Density = 1.801862 g / cm^3
# Si number density = 18.059729 Si / 1000 Ang^3
#
#
#
# Elastic Constant Matrix: (Units=GPa)
#
#
# Indices 1 2 3 4 5 6 
#
# 1 69.1132 1.7327 32.9917 0.0000 0.0000 0.0000
# 2 1.7327 48.3674 -18.4272 0.0000 0.0000 0.0000
# 3 32.9917 -18.4272 87.9012 0.0000 0.0000 0.0000
# 4 0.0000 0.0000 0.0000 23.8040 0.0000 0.0000
# 5 0.0000 0.0000 0.0000 0.0000 19.4732 0.0000
# 6 0.0000 0.0000 0.0000 0.0000 0.0000 25.5052
#
#
#
# Elastic Compliance Matrix: (Units=1/GPa)
#
#
# Indices 1 2 3 4 5 6 
#
# 1 0.018165 -0.003530 -0.007558 0.000000 0.000000 0.000000
# 2 -0.003530 0.023156 0.006179 0.000000 0.000000 0.000000
# 3 -0.007558 0.006179 0.015509 0.000000 0.000000 0.000000
# 4 0.000000 0.000000 0.000000 0.042010 0.000000 0.000000
# 5 0.000000 0.000000 0.000000 0.000000 0.051353 0.000000
# 6 0.000000 0.000000 0.000000 0.000000 0.000000 0.039208
#
#
# Mechanical properties :
#
#
# Convention : Reuss Voigt Hill
#
# Bulk Modulus (GPa) = 21.27132 26.44180 23.85656
# Shear Modulus (GPa) = 23.26791 26.36212 24.81502
#
# Velocity S-wave (km/s) = 3.59330 3.82477 3.71084
# Velocity P-wave (km/s) = 5.38699 5.84622 5.62130
#
# Compressibility (1/GPa) = 0.04701165
#
# Stress axis : x y z
#
# Youngs Moduli (GPa) = 55.04972 43.18583 64.48067
#
# Poissons Ratio (x) = 0.15246 0.48735
# Poissons Ratio (y) = 0.19434 -0.39844
# Poissons Ratio (z) = 0.41607 -0.26686
#
# Static dielectric constant tensor:
#      x y z
#    x 1.591020 0.000000 0.000000 
#    y 0.000000 1.639350 0.000000 
#    z 0.000000 0.000000 1.625590 
# 
# From -- ./inp_files/45003.got.cif
#   From: 2010.05.17/outbox.cif.g08.bks.cpg/sg67_23_cif.got.tgz:45003.got - 2010.06.03 18:28:57.
