data_PCOD9500676
_publ_section_title
;
Structure prediction by ZEFSAII (Michael W. Deem and Ramdas Pophale) SiO2 
 PCOD9500676
Probable space group: C M M A
;
_chemical_formula_sum "Si O2"
_cell_formula_units_Z 72
_cell_length_a 26.382307
_cell_length_b 7.473635
_cell_length_c 17.406941
_cell_angle_alpha 90.000000
_cell_angle_beta 90.000000
_cell_angle_gamma 90.000000
_cell_volume 3432.156723
_symmetry_space_group_name_H-M "C M M A"
_symmetry_group_IT_number 67
_symmetry_cell_setting 'orthorhombic'
loop_
_space_group_symop_operation_xyz
x,y,z
-x,1/2-y,z
x,-y,-z
-x,1/2+y,-z
-x,-y,-z
x,1/2+y,-z
-x,y,z
x,1/2-y,z
1/2+x,1/2+y,z
1/2-x,-y,z
1/2+x,1/2-y,-z
1/2-x,y,-z
1/2-x,1/2-y,-z
1/2+x,y,-z
1/2-x,1/2+y,z
1/2+x,-y,z
loop_
_atom_site_type_symbol
_atom_site_label
_atom_site_fract_x
_atom_site_fract_y
_atom_site_fract_z
Si Si1 0.500000 0.035576 0.910023
Si Si2 0.054897 0.967165 0.624285
Si Si3 0.664644 0.463670 0.582866
Si Si4 0.413724 0.467394 0.797597
Si Si5 0.305545 0.963803 0.250668
O O1 0.500000 0.250000 0.900553
O O2 0.550020 0.968207 0.865476
O O3 0.500000 0.000000 0.000000
O O4 0.054525 0.750000 0.618634
O O5 0.106362 0.032110 0.584602
O O6 0.061996 0.010151 0.714613
O O7 0.000000 0.032382 0.596975
O O8 0.687958 0.500000 0.500000
O O9 0.662609 0.250000 0.590076
O O10 0.690674 0.531872 0.660867
O O11 0.412653 0.250000 0.801634
O O12 0.355366 0.529803 0.794155
O O13 0.310486 0.750000 0.253788
O O14 0.250000 0.000000 0.218628
#
# Coordination Sequence:
#
# PCOD9500676 Si02
#       5
#     8  16  16  16  16
#     4  10  18  30  52  80 105 126 146 178 225 276
#     4   8  12  22  42  64  83 112 155 193 222 264
#     4   9  18  29  41  61  89 117 151 195 238 278
#     4   8  14  27  48  71  94 121 155 188 221 270
#     4   9  18  32  49  69  89 118 162 202 232 268
#
# _framework density 20.978064
#
# number of rings (size 3 to 8) (size 9 to 14) (size 15 to 20)
#    0.000    3.333    1.111    2.667    0.000    1.778 
#    0.000    3.333    0.000    2.000    0.000    4.667 
#    0.000    0.000    0.000    0.000    0.000    0.000 
#
# Total GULP energy -200710.738044 kJ/mol
# GULP energy per Si atom -5575.298279 kJ/mol
# Density = 2.093032 g / cm^3
# Si number density = 20.978064 Si / 1000 Ang^3
#
#
#
# Elastic Constant Matrix: (Units=GPa)
#
#
# Indices 1 2 3 4 5 6 
#
# 1 173.6772 3.6834 54.2250 0.0000 0.0000 0.0000
# 2 3.6834 59.7169 -0.9672 0.0000 0.0000 0.0000
# 3 54.2250 -0.9672 110.7141 0.0000 0.0000 0.0000
# 4 0.0000 0.0000 0.0000 13.3436 0.0000 0.0000
# 5 0.0000 0.0000 0.0000 0.0000 -10.5652 0.0000
# 6 0.0000 0.0000 0.0000 0.0000 0.0000 5.8026
#
#
#
# Elastic Compliance Matrix: (Units=1/GPa)
#
#
# Indices 1 2 3 4 5 6 
#
# 1 0.006811 -0.000474 -0.003340 0.000000 0.000000 0.000000
# 2 -0.000474 0.016781 0.000379 0.000000 0.000000 0.000000
# 3 -0.003340 0.000379 0.010671 0.000000 0.000000 0.000000
# 4 0.000000 0.000000 0.000000 0.074942 0.000000 0.000000
# 5 0.000000 0.000000 0.000000 0.000000 -0.094651 0.000000
# 6 0.000000 0.000000 0.000000 0.000000 0.000000 0.172338
#
#
# Mechanical properties :
#
#
# Convention : Reuss Voigt Hill
#
# Bulk Modulus (GPa) = 36.50606 50.88785 43.69695
# Shear Modulus (GPa) = 24.64347 20.86066 22.75206
#
# Velocity S-wave (km/s) = 3.43115 3.15684 3.29685
# Velocity P-wave (km/s) = 5.75646 6.13170 5.94704
#
# Compressibility (1/GPa) = 0.02739271
#
# Stress axis : x y z
#
# Youngs Moduli (GPa) = 146.82962 59.59100 93.70892
#
# Poissons Ratio (x) = 0.02826 0.31297
# Poissons Ratio (y) = 0.06962 -0.03550
# Poissons Ratio (z) = 0.49038 -0.02258
#
# Static dielectric constant tensor:
#      x y z
#    x 1.798840 0.000000 0.000000 
#    y 0.000000 1.826410 0.000000 
#    z 0.000000 0.000000 1.719560 
# 
# From -- ./inp_files/29836.got.cif
#   From: 2010.05.17/outbox.cif.g08.bks.cpg/sg67_15_cif.got.tgz:29836.got - 2010.06.03 18:28:57.
