data_PCOD9500014
_publ_section_title
;
Structure prediction by ZEFSAII (Michael W. Deem and Ramdas Pophale) SiO2 
 PCOD9500014
Probable space group: C C C M
;
_chemical_formula_sum "Si O2"
_cell_formula_units_Z 64
_cell_length_a 6.735327
_cell_length_b 25.910247
_cell_length_c 14.546952
_cell_angle_alpha 90.000000
_cell_angle_beta 90.000000
_cell_angle_gamma 90.000000
_cell_volume 2538.646581
_symmetry_space_group_name_H-M "C C C M"
_symmetry_group_IT_number 66
_symmetry_cell_setting 'orthorhombic'
loop_
_space_group_symop_operation_xyz
x,y,z
-x,-y,z
x,-y,1/2-z
-x,y,1/2-z
-x,-y,-z
x,y,-z
-x,y,1/2+z
x,-y,1/2+z
1/2+x,1/2+y,z
1/2-x,1/2-y,z
1/2+x,1/2-y,1/2-z
1/2-x,1/2+y,1/2-z
1/2-x,1/2-y,-z
1/2+x,1/2+y,-z
1/2-x,1/2+y,1/2+z
1/2+x,1/2-y,1/2+z
loop_
_atom_site_type_symbol
_atom_site_label
_atom_site_fract_x
_atom_site_fract_y
_atom_site_fract_z
Si Si1 0.619968 0.348287 0.392991
Si Si2 0.979362 0.259035 0.111862
Si Si3 0.642025 0.870277 0.605360
Si Si4 0.237897 0.060269 0.238180
O O1 0.677052 0.347134 0.500000
O O2 0.614839 0.288887 0.354935
O O3 0.379630 0.357380 0.392192
O O4 0.729982 0.396225 0.343935
O O5 0.750000 0.250000 0.138750
O O6 0.989439 0.320142 0.131683
O O7 0.989567 0.255622 0.000000
O O8 0.600194 0.884647 0.500000
O O9 0.638268 0.915075 0.678639
O O10 0.000000 0.058847 0.250000
O O11 0.289455 0.000000 0.250000
#
# Coordination Sequence:
#
# PCOD9500014 Si02
#       4
#    16  16  16  16
#     4   8  13  21  32  45  62  85 114 146 172 194
#     4   7  10  18  32  46  57  75 109 149 180 196
#     4   8  13  21  32  45  62  85 114 146 172 194
#     4   9  16  22  28  44  70  96 117 131 157 207
#
# _framework density 25.210281999999999
#
# number of rings (size 3 to 8) (size 9 to 14) (size 15 to 20)
#    0.000    4.000    0.000    3.000    0.000    1.000 
#    0.000    5.000    0.000    0.000    0.000    1.750 
#    0.000   14.000    0.000    2.250    0.000  100.000 
#
# Total GULP energy -178270.447260 kJ/mol
# GULP energy per Si atom -5570.951477 kJ/mol
# Density = 2.515290 g / cm^3
# Si number density = 25.210282 Si / 1000 Ang^3
#
#
#
# Elastic Constant Matrix: (Units=GPa)
#
#
# Indices 1 2 3 4 5 6 
#
# 1 128.5452 73.0337 37.1784 0.0000 0.0000 0.0000
# 2 73.0337 295.7683 140.0514 0.0000 0.0000 0.0000
# 3 37.1784 140.0514 118.7294 0.0000 0.0000 0.0000
# 4 0.0000 0.0000 0.0000 32.7604 0.0000 0.0000
# 5 0.0000 0.0000 0.0000 0.0000 25.5290 0.0000
# 6 0.0000 0.0000 0.0000 0.0000 0.0000 38.2842
#
#
#
# Elastic Compliance Matrix: (Units=1/GPa)
#
#
# Indices 1 2 3 4 5 6 
#
# 1 0.009059 -0.002025 -0.000449 0.000000 0.000000 0.000000
# 2 -0.002025 0.008111 -0.008934 0.000000 0.000000 0.000000
# 3 -0.000449 -0.008934 0.019102 0.000000 0.000000 0.000000
# 4 0.000000 0.000000 0.000000 0.030525 0.000000 0.000000
# 5 0.000000 0.000000 0.000000 0.000000 0.039171 0.000000
# 6 0.000000 0.000000 0.000000 0.000000 0.000000 0.026120
#
#
# Mechanical properties :
#
#
# Convention : Reuss Voigt Hill
#
# Bulk Modulus (GPa) = 74.30718 115.95220 95.12969
# Shear Modulus (GPa) = 31.36973 38.83335 35.10154
#
# Velocity S-wave (km/s) = 3.53132 3.92902 3.73547
# Velocity P-wave (km/s) = 6.79455 8.16559 7.51142
#
# Compressibility (1/GPa) = 0.01345765
#
# Stress axis : x y z
#
# Youngs Moduli (GPa) = 110.38254 123.28292 52.35165
#
# Poissons Ratio (x) = 0.24960 0.02349
# Poissons Ratio (y) = 0.22348 0.46772
# Poissons Ratio (z) = 0.04952 1.10143
#
# Static dielectric constant tensor:
#      x y z
#    x 2.168710 0.000000 0.000000 
#    y 0.000000 2.023540 0.000000 
#    z 0.000000 0.000000 1.967070 
# 
# From -- ./inp_files/31905.got.cif
#   From: 2010.05.17/outbox.cif.g08.bks.cpg/sg66_16_cif.got.tgz:31905.got - 2010.06.03 17:51:23.
