data_PCOD9500262
_publ_section_title
;
Structure prediction by ZEFSAII (Michael W. Deem and Ramdas Pophale) SiO2 
 PCOD9500262
Probable space group: C M M A
;
_chemical_formula_sum "Si O2"
_cell_formula_units_Z 96
_cell_length_a 26.283419
_cell_length_b 7.989212
_cell_length_c 19.307804
_cell_angle_alpha 90.000000
_cell_angle_beta 90.000000
_cell_angle_gamma 90.000000
_cell_volume 4054.326179
_symmetry_space_group_name_H-M "C M M A"
_symmetry_group_IT_number 67
_symmetry_cell_setting 'orthorhombic'
loop_
_space_group_symop_operation_xyz
x,y,z
-x,1/2-y,z
x,-y,-z
-x,1/2+y,-z
-x,-y,-z
x,1/2+y,-z
-x,y,z
x,1/2-y,z
1/2+x,1/2+y,z
1/2-x,-y,z
1/2+x,1/2-y,-z
1/2-x,y,-z
1/2-x,1/2-y,-z
1/2+x,y,-z
1/2-x,1/2+y,z
1/2+x,-y,z
loop_
_atom_site_type_symbol
_atom_site_label
_atom_site_fract_x
_atom_site_fract_y
_atom_site_fract_z
Si Si1 0.415542 0.551628 0.772986
Si Si2 0.804166 0.948925 0.920327
Si Si3 0.306151 0.557479 0.276028
Si Si4 0.583044 0.441371 0.079700
Si Si5 0.945520 0.045801 0.621308
Si Si6 0.664109 0.950141 0.574793
O O1 0.426029 0.750000 0.775950
O O2 0.354825 0.531734 0.758109
O O3 0.435229 0.479932 0.846866
O O4 0.439811 0.488261 0.701334
O O5 0.811940 0.750000 0.913182
O O6 0.750000 0.000000 0.888251
O O7 0.856430 0.043656 0.904829
O O8 0.799018 0.000000 0.000000
O O9 0.312009 0.750000 0.257440
O O10 0.250000 0.500000 0.256596
O O11 0.310181 0.532051 0.358676
O O12 0.566543 0.250000 0.078299
O O13 0.574001 0.500000 0.000000
O O14 0.944913 0.250000 0.622145
O O15 0.895101 0.994243 0.580771
O O16 0.000000 0.989909 0.593371
O O17 0.667113 0.750000 0.583263
O O18 0.684451 0.000000 0.500000
#
# Coordination Sequence:
#
# PCOD9500262 Si02
#       6
#    16  16  16  16  16  16
#     4   9  19  35  54  77 105 137 177 224 270 321
#     4  10  17  26  39  56  81 113 150 193 241 295
#     4  11  22  37  57  79 107 145 186 225 266 312
#     4  10  19  31  47  68  95 128 167 213 266 320
#     4   8  15  31  56  82 107 138 176 218 265 317
#     4  10  20  35  55  83 117 148 182 221 261 308
#
# _framework density 23.67841
#
# number of rings (size 3 to 8) (size 9 to 14) (size 15 to 20)
#    0.000    2.333    0.000    6.500    0.000    2.667 
#    0.000    1.667    0.000   12.500    0.000    0.000 
#    0.000    0.000    0.000    0.000    0.000    0.667 
#
# Total GULP energy -267657.213708 kJ/mol
# GULP energy per Si atom -5576.191952 kJ/mol
# Density = 2.362452 g / cm^3
# Si number density = 23.678410 Si / 1000 Ang^3
#
#
#
# Elastic Constant Matrix: (Units=GPa)
#
#
# Indices 1 2 3 4 5 6 
#
# 1 76.5297 -8.2858 -4.0549 0.0000 0.0000 0.0000
# 2 -8.2858 47.2048 -1.5726 0.0000 0.0000 0.0000
# 3 -4.0549 -1.5726 170.9394 0.0000 0.0000 0.0000
# 4 0.0000 0.0000 0.0000 -48.8369 0.0000 0.0000
# 5 0.0000 0.0000 0.0000 0.0000 -7.0757 0.0000
# 6 0.0000 0.0000 0.0000 0.0000 0.0000 -1.7045
#
#
#
# Elastic Compliance Matrix: (Units=1/GPa)
#
#
# Indices 1 2 3 4 5 6 
#
# 1 0.013339 0.002353 0.000338 0.000000 0.000000 0.000000
# 2 0.002353 0.021606 0.000255 0.000000 0.000000 0.000000
# 3 0.000338 0.000255 0.005860 0.000000 0.000000 0.000000
# 4 0.000000 0.000000 0.000000 -0.020476 0.000000 0.000000
# 5 0.000000 0.000000 0.000000 0.000000 -0.141329 0.000000
# 6 0.000000 0.000000 0.000000 0.000000 0.000000 -0.586681
#
#
# Mechanical properties :
#
#
# Convention : Reuss Voigt Hill
#
# Bulk Modulus (GPa) = 21.41496 29.64969 25.53233
# Shear Modulus (GPa) = -7.16327 9.04905 0.94289
#
# Velocity S-wave (km/s) = -1.74121 1.95702 0.63172
# Velocity P-wave (km/s) = 2.24083 4.20186 3.36726
#
# Compressibility (1/GPa) = 0.04669633
#
# Stress axis : x y z
#
# Youngs Moduli (GPa) = 74.96558 46.28397 170.63712
#
# Poissons Ratio (x) = -0.10889 -0.05769
# Poissons Ratio (y) = -0.17637 -0.04344
# Poissons Ratio (z) = -0.02534 -0.01178
#
# Static dielectric constant tensor:
#      x y z
#    x 1.966100 0.000000 0.000000 
#    y 0.000000 1.845320 0.000000 
#    z 0.000000 0.000000 1.918520 
# 
# From -- ./inp_files/39875.got.cif
#   From: 2010.05.17/outbox.cif.g08.bks.cpg/sg67_20_cif.got.tgz:39875.got - 2010.06.03 18:28:57.
