data_PCOD9500001
_publ_section_title
;
Structure prediction by ZEFSAII (Michael W. Deem and Ramdas Pophale) SiO2 
 PCOD9500001
Probable space group: C C C M
;
_chemical_formula_sum "Si O2"
_cell_formula_units_Z 48
_cell_length_a 17.375828
_cell_length_b 8.180892
_cell_length_c 14.312491
_cell_angle_alpha 90.000000
_cell_angle_beta 90.000000
_cell_angle_gamma 90.000000
_cell_volume 2034.517336
_symmetry_space_group_name_H-M "C C C M"
_symmetry_group_IT_number 66
_symmetry_cell_setting 'orthorhombic'
loop_
_space_group_symop_operation_xyz
x,y,z
-x,-y,z
x,-y,1/2-z
-x,y,1/2-z
-x,-y,-z
x,y,-z
-x,y,1/2+z
x,-y,1/2+z
1/2+x,1/2+y,z
1/2-x,1/2-y,z
1/2+x,1/2-y,1/2-z
1/2-x,1/2+y,1/2-z
1/2-x,1/2-y,-z
1/2+x,1/2+y,-z
1/2-x,1/2+y,1/2+z
1/2+x,1/2-y,1/2+z
loop_
_atom_site_type_symbol
_atom_site_label
_atom_site_fract_x
_atom_site_fract_y
_atom_site_fract_z
Si Si1 0.606170 0.924385 0.891615
Si Si2 0.750000 0.750000 0.828792
Si Si3 0.128359 0.000000 0.750000
Si Si4 0.958050 0.769661 0.386531
O O1 0.694033 0.872499 0.883493
O O2 0.544428 0.788410 0.858057
O O3 0.590125 0.106922 0.856134
O O4 0.586003 0.936821 0.000000
O O5 0.812061 0.856355 0.774832
O O6 0.076935 0.075467 0.666570
O O7 0.953984 0.795053 0.500000
#
# Coordination Sequence:
#
# PCOD9500001 Si02
#       4
#    16   8   8  16
#     4   9  20  42  69  95 126 169 221 278 335 393
#     4  12  25  38  57  96 138 172 214 274 336 392
#     4  12  26  43  64  99 138 180 222 273 332 398
#     4   9  21  44  70  94 128 178 228 270 324 397
#
# _framework density 23.592821000000001
#
# number of rings (size 3 to 8) (size 9 to 14) (size 15 to 20)
#    0.000    2.000    0.000    4.500    0.000    6.667 
#    0.000   10.833    0.000    0.000    0.000    4.667 
#    0.000    0.000    0.000    0.000    0.000    0.000 
#
# Total GULP energy -134111.356930 kJ/mol
# GULP energy per Si atom -5587.973205 kJ/mol
# Density = 2.353912 g / cm^3
# Si number density = 23.592821 Si / 1000 Ang^3
#
#
#
# Elastic Constant Matrix: (Units=GPa)
#
#
# Indices 1 2 3 4 5 6 
#
# 1 192.4210 74.1412 58.2888 0.0000 0.0000 0.0000
# 2 74.1412 151.8432 60.8777 0.0000 0.0000 0.0000
# 3 58.2888 60.8777 102.2668 0.0000 0.0000 0.0000
# 4 0.0000 0.0000 0.0000 40.6460 0.0000 0.0000
# 5 0.0000 0.0000 0.0000 0.0000 -96.9236 0.0000
# 6 0.0000 0.0000 0.0000 0.0000 0.0000 56.8139
#
#
#
# Elastic Compliance Matrix: (Units=1/GPa)
#
#
# Indices 1 2 3 4 5 6 
#
# 1 0.006861 -0.002341 -0.002517 0.000000 0.000000 0.000000
# 2 -0.002341 0.009449 -0.004290 0.000000 0.000000 0.000000
# 3 -0.002517 -0.004290 0.013767 0.000000 0.000000 0.000000
# 4 0.000000 0.000000 0.000000 0.024603 0.000000 0.000000
# 5 0.000000 0.000000 0.000000 0.000000 -0.010317 0.000000
# 6 0.000000 0.000000 0.000000 0.000000 0.000000 0.017601
#
#
# Mechanical properties :
#
#
# Convention : Reuss Voigt Hill
#
# Bulk Modulus (GPa) = 84.88935 92.57183 88.73059
# Shear Modulus (GPa) = 59.39053 16.98881 38.18967
#
# Velocity S-wave (km/s) = 5.02273 2.68635 4.02767
# Velocity P-wave (km/s) = 8.34842 6.99603 7.70197
#
# Compressibility (1/GPa) = 0.01178004
#
# Stress axis : x y z
#
# Youngs Moduli (GPa) = 145.74080 105.83135 72.63674
#
# Poissons Ratio (x) = 0.24776 0.18284
# Poissons Ratio (y) = 0.34119 0.31165
# Poissons Ratio (z) = 0.36686 0.45407
#
# Static dielectric constant tensor:
#      x y z
#    x 1.837050 0.000000 0.000000 
#    y 0.000000 1.999650 0.000000 
#    z 0.000000 0.000000 1.938050 
# 
# From -- ./inp_files/29346.got.cif
#   From: 2010.05.17/outbox.cif.g08.bks.cpg/sg66_15_cif.got.tgz:29346.got - 2010.06.03 17:51:23.
