data_PCOD9500696
_publ_section_title
;
Structure prediction by ZEFSAII (Michael W. Deem and Ramdas Pophale) SiO2 
 PCOD9500696
Probable space group: C M M A
;
_chemical_formula_sum "Si O2"
_cell_formula_units_Z 96
_cell_length_a 19.883042
_cell_length_b 27.621491
_cell_length_c 9.557491
_cell_angle_alpha 90.000000
_cell_angle_beta 90.000000
_cell_angle_gamma 90.000000
_cell_volume 5248.967039
_symmetry_space_group_name_H-M "C M M A"
_symmetry_group_IT_number 67
_symmetry_cell_setting 'orthorhombic'
loop_
_space_group_symop_operation_xyz
x,y,z
-x,1/2-y,z
x,-y,-z
-x,1/2+y,-z
-x,-y,-z
x,1/2+y,-z
-x,y,z
x,1/2-y,z
1/2+x,1/2+y,z
1/2-x,-y,z
1/2+x,1/2-y,-z
1/2-x,y,-z
1/2-x,1/2-y,-z
1/2+x,y,-z
1/2-x,1/2+y,z
1/2+x,-y,z
loop_
_atom_site_type_symbol
_atom_site_label
_atom_site_fract_x
_atom_site_fract_y
_atom_site_fract_z
Si Si1 0.777697 0.552466 0.160937
Si Si2 0.074003 0.846925 0.957295
Si Si3 0.421356 0.192216 0.273686
Si Si4 0.928184 0.950885 0.087361
Si Si5 0.205405 0.305366 0.129337
Si Si6 0.784396 0.646012 0.350637
O O1 0.750000 0.500000 0.206673
O O2 0.858440 0.549012 0.166550
O O3 0.764591 0.598785 0.257913
O O4 0.750000 0.559068 0.000000
O O5 0.084716 0.821145 0.108357
O O6 0.074905 0.903972 0.988248
O O7 0.000000 0.832957 0.905481
O O8 0.135570 0.833106 0.860721
O O9 0.500000 0.181950 0.311382
O O10 0.410142 0.250000 0.292567
O O11 0.363900 0.159741 0.348350
O O12 0.000000 0.946970 0.165396
O O13 0.929156 0.000000 0.000000
O O14 0.189397 0.250000 0.096965
O O15 0.249435 0.310381 0.266585
O O16 0.250000 0.324592 0.000000
O O17 0.750000 0.641115 0.500000
#
# Coordination Sequence:
#
# PCOD9500696 Si02
#       6
#    16  16  16  16  16  16
#     4  11  21  37  62  88 115 151 194 243 295 345
#     4  10  19  33  57  88 118 147 188 247 307 351
#     4  10  20  36  60  87 114 151 202 249 292 351
#     4  10  18  30  54  89 117 142 183 239 295 350
#     4  11  21  35  57  83 114 149 193 248 296 342
#     4  12  25  39  58  85 123 163 197 237 292 357
#
# _framework density 18.289313
#
# number of rings (size 3 to 8) (size 9 to 14) (size 15 to 20)
#    0.000    1.333    5.000    2.500    0.000    2.667 
#    0.000    0.833    0.000    2.000    0.000    2.333 
#    0.000    0.000    0.000    0.000    0.000    0.000 
#
# Total GULP energy -267530.673481 kJ/mol
# GULP energy per Si atom -5573.555698 kJ/mol
# Density = 1.824769 g / cm^3
# Si number density = 18.289313 Si / 1000 Ang^3
#
#
#
# Elastic Constant Matrix: (Units=GPa)
#
#
# Indices 1 2 3 4 5 6 
#
# 1 149.1758 29.1399 29.6624 0.0000 0.0000 0.0000
# 2 29.1399 99.9387 20.2358 0.0000 0.0000 0.0000
# 3 29.6624 20.2358 58.2086 0.0000 0.0000 0.0000
# 4 0.0000 0.0000 0.0000 -0.1132 0.0000 0.0000
# 5 0.0000 0.0000 0.0000 0.0000 23.8388 0.0000
# 6 0.0000 0.0000 0.0000 0.0000 0.0000 109.2653
#
#
#
# Elastic Compliance Matrix: (Units=1/GPa)
#
#
# Indices 1 2 3 4 5 6 
#
# 1 0.007678 -0.001556 -0.003372 0.000000 0.000000 0.000000
# 2 -0.001556 0.011079 -0.003059 0.000000 0.000000 0.000000
# 3 -0.003372 -0.003059 0.019961 0.000000 0.000000 0.000000
# 4 0.000000 0.000000 0.000000 -8.832035 0.000000 0.000000
# 5 0.000000 0.000000 0.000000 0.000000 0.041948 0.000000
# 6 0.000000 0.000000 0.000000 0.000000 0.000000 0.009152
#
#
# Mechanical properties :
#
#
# Convention : Reuss Voigt Hill
#
# Bulk Modulus (GPa) = 43.96477 51.71104 47.83791
# Shear Modulus (GPa) = -0.57348 41.81719 20.62185
#
# Velocity S-wave (km/s) = -0.56057 4.78685 3.36152
# Velocity P-wave (km/s) = 4.86536 7.67380 6.42491
#
# Compressibility (1/GPa) = 0.02274548
#
# Stress axis : x y z
#
# Youngs Moduli (GPa) = 130.24450 90.25960 50.09759
#
# Poissons Ratio (x) = 0.14044 0.16891
# Poissons Ratio (y) = 0.20266 0.15323
# Poissons Ratio (z) = 0.43913 0.27607
#
# Static dielectric constant tensor:
#      x y z
#    x 1.707710 0.000000 0.000000 
#    y 0.000000 1.702840 0.000000 
#    z 0.000000 0.000000 1.604020 
# 
# From -- ./inp_files/11483.got.cif
#   From: 2010.05.17/outbox.cif.g08.bks.cpg/sg67_6_cif.got.tgz:11483.got - 2010.06.03 18:28:57.
