data_PCOD9500247
_publ_section_title
;
Structure prediction by ZEFSAII (Michael W. Deem and Ramdas Pophale) SiO2 
 PCOD9500247
Probable space group: C M M A
;
_chemical_formula_sum "Si O2"
_cell_formula_units_Z 64
_cell_length_a 20.762092
_cell_length_b 18.780024
_cell_length_c 8.709131
_cell_angle_alpha 90.000000
_cell_angle_beta 90.000000
_cell_angle_gamma 90.000000
_cell_volume 3395.799790
_symmetry_space_group_name_H-M "C M M A"
_symmetry_group_IT_number 67
_symmetry_cell_setting 'orthorhombic'
loop_
_space_group_symop_operation_xyz
x,y,z
-x,1/2-y,z
x,-y,-z
-x,1/2+y,-z
-x,-y,-z
x,1/2+y,-z
-x,y,z
x,1/2-y,z
1/2+x,1/2+y,z
1/2-x,-y,z
1/2+x,1/2-y,-z
1/2-x,y,-z
1/2-x,1/2-y,-z
1/2+x,y,-z
1/2-x,1/2+y,z
1/2+x,-y,z
loop_
_atom_site_type_symbol
_atom_site_label
_atom_site_fract_x
_atom_site_fract_y
_atom_site_fract_z
Si Si1 0.360171 0.599817 0.667708
Si Si2 0.860719 0.438471 0.303922
Si Si3 0.739349 0.671343 0.181595
Si Si4 0.000000 0.567423 0.624589
Si Si5 0.000000 0.835577 0.346388
O O1 0.344350 0.520564 0.727078
O O2 0.356286 0.585568 0.483800
O O3 0.304910 0.651118 0.729727
O O4 0.431920 0.629202 0.708858
O O5 0.814879 0.386145 0.215626
O O6 0.936619 0.434985 0.274983
O O7 0.718288 0.750000 0.232098
O O8 0.750000 0.672185 0.000000
O O9 0.000000 0.500000 0.500000
O O10 0.000000 0.639202 0.524228
O O11 0.000000 0.750000 0.327195
#
# Coordination Sequence:
#
# PCOD9500247 Si02
#       5
#    16  16  16   8   8
#     4  10  19  36  59  87 114 143 188 240 291 355
#     4  10  19  35  62  86 112 147 186 236 302 349
#     4  11  25  40  52  76 118 159 198 244 287 339
#     4  10  16  36  57  89 120 143 175 248 293 345
#     4  10  18  30  57  89 115 147 181 227 293 350
#
# _framework density 18.846812
#
# number of rings (size 3 to 8) (size 9 to 14) (size 15 to 20)
#    0.000    1.750    5.000    2.250    0.000   10.000 
#    0.000    1.250    0.000    6.000    0.000    0.000 
#    0.000    0.000    0.000    0.000    0.000    0.000 
#
# Total GULP energy -178317.753938 kJ/mol
# GULP energy per Si atom -5572.429811 kJ/mol
# Density = 1.880392 g / cm^3
# Si number density = 18.846812 Si / 1000 Ang^3
#
#
#
# Elastic Constant Matrix: (Units=GPa)
#
#
# Indices 1 2 3 4 5 6 
#
# 1 80.0503 54.0544 12.9673 0.0000 0.0000 0.0000
# 2 54.0544 162.2971 25.0181 0.0000 0.0000 0.0000
# 3 12.9673 25.0181 9.7316 0.0000 0.0000 0.0000
# 4 0.0000 0.0000 0.0000 21.9084 0.0000 0.0000
# 5 0.0000 0.0000 0.0000 0.0000 -20.3701 0.0000
# 6 0.0000 0.0000 0.0000 0.0000 0.0000 -32.9162
#
#
#
# Elastic Compliance Matrix: (Units=1/GPa)
#
#
# Indices 1 2 3 4 5 6 
#
# 1 0.017126 -0.003621 -0.013511 0.000000 0.000000 0.000000
# 2 -0.003621 0.010972 -0.023381 0.000000 0.000000 0.000000
# 3 -0.013511 -0.023381 0.180870 0.000000 0.000000 0.000000
# 4 0.000000 0.000000 0.000000 0.045645 0.000000 0.000000
# 5 0.000000 0.000000 0.000000 0.000000 -0.049092 0.000000
# 6 0.000000 0.000000 0.000000 0.000000 0.000000 -0.030380
#
#
# Mechanical properties :
#
#
# Convention : Reuss Voigt Hill
#
# Bulk Modulus (GPa) = 7.81607 48.46208 28.13908
# Shear Modulus (GPa) = 16.73277 4.39370 10.56323
#
# Velocity S-wave (km/s) = 2.98288 1.52851 2.37001
# Velocity P-wave (km/s) = 4.00245 5.37444 4.73836
#
# Compressibility (1/GPa) = 0.12794152
#
# Stress axis : x y z
#
# Youngs Moduli (GPa) = 58.39060 91.14223 5.52882
#
# Poissons Ratio (x) = 0.33005 0.07470
# Poissons Ratio (y) = 0.21145 0.12927
# Poissons Ratio (z) = 0.78890 2.13102
#
# Static dielectric constant tensor:
#      x y z
#    x 1.683110 0.000000 0.000000 
#    y 0.000000 1.698610 0.000000 
#    z 0.000000 0.000000 1.643960 
# 
# From -- ./inp_files/10918.got.cif
#   From: 2010.05.17/outbox.cif.g08.bks.cpg/sg67_6_cif.got.tgz:10918.got - 2010.06.03 18:28:57.
