data_PCOD9500090
_publ_section_title
;
Structure prediction by ZEFSAII (Michael W. Deem and Ramdas Pophale) SiO2 
 PCOD9500090
Probable space group: C C C M
;
_chemical_formula_sum "Si O2"
_cell_formula_units_Z 60
_cell_length_a 30.000000
_cell_length_b 15.000000
_cell_length_c 15.000000
_cell_angle_alpha 90.000000
_cell_angle_beta 90.000000
_cell_angle_gamma 90.000000
_cell_volume 6750.000000
_symmetry_space_group_name_H-M "C C C M"
_symmetry_group_IT_number 66
_symmetry_cell_setting 'orthorhombic'
loop_
_space_group_symop_operation_xyz
x,y,z
-x,-y,z
x,-y,1/2-z
-x,y,1/2-z
-x,-y,-z
x,y,-z
-x,y,1/2+z
x,-y,1/2+z
1/2+x,1/2+y,z
1/2-x,1/2-y,z
1/2+x,1/2-y,1/2-z
1/2-x,1/2+y,1/2-z
1/2-x,1/2-y,-z
1/2+x,1/2+y,-z
1/2-x,1/2+y,1/2+z
1/2+x,1/2-y,1/2+z
loop_
_atom_site_type_symbol
_atom_site_label
_atom_site_fract_x
_atom_site_fract_y
_atom_site_fract_z
Si Si1 0.709136 0.895977 0.724565
Si Si2 0.250000 0.250000 0.854172
Si Si3 0.350201 0.777726 0.897820
Si Si4 0.892970 0.901686 0.231438
Si Si5 0.935530 0.815280 0.600809
Si Si6 0.476447 0.594186 0.603699
Si Si7 0.204063 0.906529 0.102315
Si Si8 0.323932 0.384660 0.903464
O O1 0.719773 0.821049 0.799082
O O2 0.670565 0.851349 0.665510
O O3 0.754797 0.897851 0.668065
O O4 0.700259 0.000000 0.750000
O O5 0.281971 0.319254 0.904316
O O6 0.404166 0.771269 0.892212
O O7 0.329331 0.677626 0.880799
O O8 0.338465 0.798036 0.000000
O O9 0.913852 0.874186 0.323943
O O10 0.933705 0.898036 0.163424
O O11 0.853276 0.853640 0.180243
O O12 0.876277 0.000000 0.250000
O O13 0.928128 0.850242 0.500000
O O14 0.988201 0.825051 0.615681
O O15 0.500000 0.500000 0.626260
O O16 0.464715 0.589851 0.500000
O O17 0.187283 0.009568 0.107578
O O18 0.218700 0.894848 0.000000
O O19 0.347067 0.377744 0.000000
#
# Coordination Sequence:
#
# PCOD9500090 Si02
#       8
#    16   8  16  16  16  16  16  16
#     4  12  22  34  55  80 108 141 192 245 302 345
#     4  12  23  38  59  74 110 150 191 240 300 348
#     4  10  20  36  55  78 109 147 191 245 290 340
#     4  12  22  31  55  77 111 148 197 228 282 327
#     4  10  21  34  51  75 109 146 187 231 280 328
#     4  10  20  34  50  77 114 154 191 229 270 329
#     4  10  20  34  53  76 105 145 192 239 287 336
#     4  11  25  40  54  78 111 157 201 240 282 344
#
# _framework density 8.8888890000000007
#
# number of rings (size 3 to 8) (size 9 to 14) (size 15 to 20)
#    0.000    1.200    4.000    3.000    1.867    2.667 
#    0.000    0.000    0.000    0.000    0.000    0.000 
#    0.000    8.533    0.000   36.667    0.000    0.000 
#
# Total GULP energy -334028.076373 kJ/mol
# GULP energy per Si atom -5567.134606 kJ/mol
# Density = 0.886866 g / cm^3
# Si number density = 8.888889 Si / 1000 Ang^3
#
#
#
# Elastic Constant Matrix: (Units=GPa)
#
#
# Indices 1 2 3 4 5 6 
#
# 1 74.0528 25.7641 39.8932 0.0000 0.0000 0.0000
# 2 25.7641 86.9883 23.8875 0.0000 0.0000 0.0000
# 3 39.8932 23.8875 64.4752 0.0000 0.0000 0.0000
# 4 0.0000 0.0000 0.0000 26.1575 0.0000 0.0000
# 5 0.0000 0.0000 0.0000 0.0000 62.7522 0.0000
# 6 0.0000 0.0000 0.0000 0.0000 0.0000 23.6156
#
#
#
# Elastic Compliance Matrix: (Units=1/GPa)
#
#
# Indices 1 2 3 4 5 6 
#
# 1 0.020909 -0.002939 -0.011848 0.000000 0.000000 0.000000
# 2 -0.002939 0.013211 -0.003076 0.000000 0.000000 0.000000
# 3 -0.011848 -0.003076 0.023981 0.000000 0.000000 0.000000
# 4 0.000000 0.000000 0.000000 0.038230 0.000000 0.000000
# 5 0.000000 0.000000 0.000000 0.000000 0.015936 0.000000
# 6 0.000000 0.000000 0.000000 0.000000 0.000000 0.042345
#
#
# Mechanical properties :
#
#
# Convention : Reuss Voigt Hill
#
# Bulk Modulus (GPa) = 44.69544 44.95620 44.82582
# Shear Modulus (GPa) = 25.27847 31.56982 28.42415
#
# Velocity S-wave (km/s) = 3.77492 4.21860 4.00291
# Velocity P-wave (km/s) = 6.64799 7.00511 6.82888
#
# Compressibility (1/GPa) = 0.02237365
#
# Stress axis : x y z
#
# Youngs Moduli (GPa) = 47.82532 75.69447 41.70045
#
# Poissons Ratio (x) = 0.22249 0.49409
# Poissons Ratio (y) = 0.14057 0.12827
# Poissons Ratio (z) = 0.56666 0.23283
#
# Static dielectric constant tensor:
#      x y z
#    x 1.653950 0.000000 0.000000 
#    y 0.000000 1.578980 0.000000 
#    z 0.000000 0.000000 1.614570 
# 
# From -- ./inp_files/34013.got.cif
#   From: 2010.05.17/outbox.ucp.g08.bks.cvg/sg66_18_cif.got.tgz:34013.got - 2010.06.11 16:44:13.
