data_PCOD9500249
_publ_section_title
;
Structure prediction by ZEFSAII (Michael W. Deem and Ramdas Pophale) SiO2 
 PCOD9500249
Probable space group: C M M A
;
_chemical_formula_sum "Si O2"
_cell_formula_units_Z 64
_cell_length_a 24.435537
_cell_length_b 23.672262
_cell_length_c 6.885413
_cell_angle_alpha 90.000000
_cell_angle_beta 90.000000
_cell_angle_gamma 90.000000
_cell_volume 3982.828825
_symmetry_space_group_name_H-M "C M M A"
_symmetry_group_IT_number 67
_symmetry_cell_setting 'orthorhombic'
loop_
_space_group_symop_operation_xyz
x,y,z
-x,1/2-y,z
x,-y,-z
-x,1/2+y,-z
-x,-y,-z
x,1/2+y,-z
-x,y,z
x,1/2-y,z
1/2+x,1/2+y,z
1/2-x,-y,z
1/2+x,1/2-y,-z
1/2-x,y,-z
1/2-x,1/2-y,-z
1/2+x,y,-z
1/2-x,1/2+y,z
1/2+x,-y,z
loop_
_atom_site_type_symbol
_atom_site_label
_atom_site_fract_x
_atom_site_fract_y
_atom_site_fract_z
Si Si1 0.197411 0.555493 0.126350
Si Si2 0.000000 0.250000 0.318357
Si Si3 0.250000 0.500000 0.500000
Si Si4 0.910988 0.124433 0.813491
Si Si5 0.500000 0.566677 0.538033
Si Si6 0.500000 0.870266 0.134429
Si Si7 0.436986 0.750000 0.696053
O O1 0.215331 0.536701 0.344165
O O2 0.148332 0.598847 0.150354
O O3 0.179892 0.500000 0.000000
O O4 0.250000 0.576363 0.000000
O O5 0.000000 0.305314 0.192997
O O6 0.948094 0.250000 0.464574
O O7 0.946691 0.089994 0.653543
O O8 0.910493 0.190917 0.757953
O O9 0.946907 0.117712 0.006691
O O10 0.500000 0.500000 0.500000
O O11 0.500000 0.594966 0.329416
O O12 0.500000 0.750000 0.773173
#
# Coordination Sequence:
#
# PCOD9500249 Si02
#       7
#    16   4   4  16   8   8   8
#     4   9  21  39  57  85 107 147 196 232 286 341
#     4  10  16  38  56  74 112 154 200 206 272 342
#     4   8  18  40  64  70 112 148 186 236 282 336
#     4  11  22  36  58  82 118 149 188 240 273 346
#     4  11  24  32  49  88 120 149 182 226 297 348
#     4  11  20  34  56  81 114 152 181 226 282 339
#     4  10  17  40  52  82 114 149 195 225 269 350
#
# _framework density 16.06898
#
# number of rings (size 3 to 8) (size 9 to 14) (size 15 to 20)
#    0.375    1.750    5.000    0.750    5.250    3.000 
#    0.000    0.625    0.000    0.750    0.000    0.000 
#    0.000    0.000    0.000    0.000    0.000    0.000 
#
# Total GULP energy -178210.218383 kJ/mol
# GULP energy per Si atom -5569.069324 kJ/mol
# Density = 1.603241 g / cm^3
# Si number density = 16.068980 Si / 1000 Ang^3
#
#
#
# Elastic Constant Matrix: (Units=GPa)
#
#
# Indices 1 2 3 4 5 6 
#
# 1 133.4054 82.2921 59.7231 0.0000 0.0000 0.0000
# 2 82.2921 144.8903 62.3207 0.0000 0.0000 0.0000
# 3 59.7231 62.3207 149.1796 0.0000 0.0000 0.0000
# 4 0.0000 0.0000 0.0000 35.6333 0.0000 0.0000
# 5 0.0000 0.0000 0.0000 0.0000 1.7484 0.0000
# 6 0.0000 0.0000 0.0000 0.0000 0.0000 -41.5560
#
#
#
# Elastic Compliance Matrix: (Units=1/GPa)
#
#
# Indices 1 2 3 4 5 6 
#
# 1 0.012220 -0.005896 -0.002429 0.000000 0.000000 0.000000
# 2 -0.005896 0.011258 -0.002343 0.000000 0.000000 0.000000
# 3 -0.002429 -0.002343 0.008655 0.000000 0.000000 0.000000
# 4 0.000000 0.000000 0.000000 0.028064 0.000000 0.000000
# 5 0.000000 0.000000 0.000000 0.000000 0.571965 0.000000
# 6 0.000000 0.000000 0.000000 0.000000 0.000000 -0.024064
#
#
# Mechanical properties :
#
#
# Convention : Reuss Voigt Hill
#
# Bulk Modulus (GPa) = 92.61651 92.90522 92.76087
# Shear Modulus (GPa) = 7.89848 14.04108 10.96978
#
# Velocity S-wave (km/s) = 2.21947 2.95922 2.61563
# Velocity P-wave (km/s) = 8.02060 8.34374 8.18376
#
# Compressibility (1/GPa) = 0.01079721
#
# Stress axis : x y z
#
# Youngs Moduli (GPa) = 81.83055 88.82545 115.54532
#
# Poissons Ratio (x) = 0.52370 0.28070
# Poissons Ratio (y) = 0.48246 0.27070
# Poissons Ratio (z) = 0.19879 0.20810
#
# Static dielectric constant tensor:
#      x y z
#    x 1.527710 0.000000 0.000000 
#    y 0.000000 1.511810 0.000000 
#    z 0.000000 0.000000 1.547100 
# 
# From -- ./inp_files/4135.got.cif
#   From: 2010.05.17/outbox.cif.g08.bks.cpg/sg67_3_cif.got.tgz:4135.got - 2010.06.03 18:28:57.
