data_PCOD9500319
_publ_section_title
;
Structure prediction by ZEFSAII (Michael W. Deem and Ramdas Pophale) SiO2 
 PCOD9500319
Probable space group: C M M A
;
_chemical_formula_sum "Si O2"
_cell_formula_units_Z 80
_cell_length_a 19.318970
_cell_length_b 8.687527
_cell_length_c 26.701934
_cell_angle_alpha 90.000000
_cell_angle_beta 90.000000
_cell_angle_gamma 90.000000
_cell_volume 4481.494353
_symmetry_space_group_name_H-M "C M M A"
_symmetry_group_IT_number 67
_symmetry_cell_setting 'orthorhombic'
loop_
_space_group_symop_operation_xyz
x,y,z
-x,1/2-y,z
x,-y,-z
-x,1/2+y,-z
-x,-y,-z
x,1/2+y,-z
-x,y,z
x,1/2-y,z
1/2+x,1/2+y,z
1/2-x,-y,z
1/2+x,1/2-y,-z
1/2-x,y,-z
1/2-x,1/2-y,-z
1/2+x,y,-z
1/2-x,1/2+y,z
1/2+x,-y,z
loop_
_atom_site_type_symbol
_atom_site_label
_atom_site_fract_x
_atom_site_fract_y
_atom_site_fract_z
Si Si1 0.581679 0.433129 0.358294
Si Si2 0.327693 0.064813 0.844769
Si Si3 0.328679 0.065811 0.051303
Si Si4 0.919390 0.934866 0.748869
Si Si5 0.672961 0.433142 0.553122
O O1 0.500000 0.470326 0.363136
O O2 0.590071 0.250000 0.362809
O O3 0.603494 0.487136 0.302864
O O4 0.624782 0.515477 0.401389
O O5 0.324665 0.250000 0.849457
O O6 0.373213 0.023308 0.796560
O O7 0.250000 0.000000 0.838501
O O8 0.358286 0.994934 0.896219
O O9 0.326899 0.250000 0.049926
O O10 0.250000 0.000000 0.052030
O O11 0.360770 0.000000 0.000000
O O12 0.915514 0.750000 0.742641
O O13 0.000000 0.975490 0.757480
O O14 0.647320 0.500000 0.500000
O O15 0.676780 0.250000 0.549794
O O16 0.750000 0.500000 0.560785
#
# Coordination Sequence:
#
# PCOD9500319 Si02
#       5
#    16  16  16  16  16
#     4  10  21  37  57  81 108 139 178 220 260 307
#     4  10  19  31  49  74 102 130 165 209 254 303
#     4  10  17  27  44  67  97 129 163 203 249 300
#     4   9  19  36  55  74 100 137 176 213 257 306
#     4  11  22  38  59  82 111 143 176 215 261 313
#
# _framework density 17.851186999999999
#
# number of rings (size 3 to 8) (size 9 to 14) (size 15 to 20)
#    0.000    2.000    0.000    7.200    0.000    4.000 
#    0.000    2.000    0.000    0.600    0.000    0.000 
#    0.000    0.000    0.000    0.000    0.000    0.000 
#
# Total GULP energy -223250.158889 kJ/mol
# GULP energy per Si atom -5581.253972 kJ/mol
# Density = 1.781056 g / cm^3
# Si number density = 17.851187 Si / 1000 Ang^3
#
#
#
# Elastic Constant Matrix: (Units=GPa)
#
#
# Indices 1 2 3 4 5 6 
#
# 1 39.9597 39.4673 70.1591 0.0000 0.0000 0.0000
# 2 39.4673 117.7809 91.8506 0.0000 0.0000 0.0000
# 3 70.1591 91.8506 202.0565 0.0000 0.0000 0.0000
# 4 0.0000 0.0000 0.0000 45.2394 0.0000 0.0000
# 5 0.0000 0.0000 0.0000 0.0000 208.1288 0.0000
# 6 0.0000 0.0000 0.0000 0.0000 0.0000 20.0718
#
#
#
# Elastic Compliance Matrix: (Units=1/GPa)
#
#
# Indices 1 2 3 4 5 6 
#
# 1 0.067367 -0.006712 -0.020341 0.000000 0.000000 0.000000
# 2 -0.006712 0.013822 -0.003953 0.000000 0.000000 0.000000
# 3 -0.020341 -0.003953 0.013809 0.000000 0.000000 0.000000
# 4 0.000000 0.000000 0.000000 0.022105 0.000000 0.000000
# 5 0.000000 0.000000 0.000000 0.000000 0.004805 0.000000
# 6 0.000000 0.000000 0.000000 0.000000 0.000000 0.049821
#
#
# Mechanical properties :
#
#
# Convention : Reuss Voigt Hill
#
# Bulk Modulus (GPa) = 30.31423 84.75011 57.53217
# Shear Modulus (GPa) = 20.43038 65.24268 42.83653
#
# Velocity S-wave (km/s) = 3.38669 6.05206 4.90393
# Velocity P-wave (km/s) = 5.68431 9.81914 8.02268
#
# Compressibility (1/GPa) = 0.03298780
#
# Stress axis : x y z
#
# Youngs Moduli (GPa) = 14.84405 72.34945 72.41839
#
# Poissons Ratio (x) = 0.48558 1.47303
# Poissons Ratio (y) = 0.09963 0.28624
# Poissons Ratio (z) = 0.30194 0.28597
#
# Static dielectric constant tensor:
#      x y z
#    x 1.591220 0.000000 0.000000 
#    y 0.000000 1.599000 0.000000 
#    z 0.000000 0.000000 1.629500 
# 
# From -- ./inp_files/44437.got.cif
#   From: 2010.05.17/outbox.cif.g08.bks.cpg/sg67_23_cif.got.tgz:44437.got - 2010.06.03 18:28:57.
