data_PCOD9500382
_publ_section_title
;
Structure prediction by ZEFSAII (Michael W. Deem and Ramdas Pophale) SiO2 
 PCOD9500382
Probable space group: C M M A
;
_chemical_formula_sum "Si O2"
_cell_formula_units_Z 96
_cell_length_a 8.630851
_cell_length_b 18.510861
_cell_length_c 31.992761
_cell_angle_alpha 90.000000
_cell_angle_beta 90.000000
_cell_angle_gamma 90.000000
_cell_volume 5111.306926
_symmetry_space_group_name_H-M "C M M A"
_symmetry_group_IT_number 67
_symmetry_cell_setting 'orthorhombic'
loop_
_space_group_symop_operation_xyz
x,y,z
-x,1/2-y,z
x,-y,-z
-x,1/2+y,-z
-x,-y,-z
x,1/2+y,-z
-x,y,z
x,1/2-y,z
1/2+x,1/2+y,z
1/2-x,-y,z
1/2+x,1/2-y,-z
1/2-x,y,-z
1/2-x,1/2-y,-z
1/2+x,y,-z
1/2-x,1/2+y,z
1/2+x,-y,z
loop_
_atom_site_type_symbol
_atom_site_label
_atom_site_fract_x
_atom_site_fract_y
_atom_site_fract_z
Si Si1 0.312895 0.665785 0.623524
Si Si2 0.315481 0.081421 0.870076
Si Si3 0.184639 0.080721 0.455113
Si Si4 0.313093 0.334729 0.209222
Si Si5 0.314969 0.917728 0.957078
Si Si6 0.812958 0.080865 0.706880
O O1 0.500000 0.660297 0.620337
O O2 0.273299 0.750000 0.627683
O O3 0.239410 0.631276 0.582388
O O4 0.263380 0.622047 0.664789
O O5 0.500000 0.077246 0.873954
O O6 0.265372 0.128365 0.830554
O O7 0.245024 0.113004 0.913181
O O8 0.250000 0.000000 0.864523
O O9 0.250000 0.105299 0.500000
O O10 0.000000 0.077325 0.457109
O O11 0.250000 0.000000 0.447839
O O12 0.500000 0.341692 0.205104
O O13 0.276421 0.250000 0.211870
O O14 0.265698 0.375489 0.251684
O O15 0.500000 0.919330 0.958160
O O16 0.250000 0.000000 0.956520
O O17 0.250000 0.884198 0.000000
O O18 0.000000 0.078744 0.706621
O O19 0.750000 0.000000 0.707796
#
# Coordination Sequence:
#
# PCOD9500382 Si02
#       6
#    16  16  16  16  16  16
#     4  10  21  38  59  84 116 152 189 230 278 332
#     4  11  21  34  53  79 110 144 185 229 275 327
#     4  11  22  38  60  85 114 149 191 236 282 332
#     4  10  21  38  58  80 109 145 184 226 275 330
#     4  10  17  28  47  74 107 141 179 224 275 325
#     4  10  21  37  59  85 112 146 185 227 275 328
#
# _framework density 18.781887999999999
#
# number of rings (size 3 to 8) (size 9 to 14) (size 15 to 20)
#    0.000    1.667    0.000    8.000    0.000    7.000 
#    0.000    0.000    0.000    3.500    0.000    0.000 
#    0.000    0.000    0.000    0.000    0.000    0.000 
#
# Total GULP energy -268191.424961 kJ/mol
# GULP energy per Si atom -5587.321353 kJ/mol
# Density = 1.873914 g / cm^3
# Si number density = 18.781888 Si / 1000 Ang^3
#
#
#
# Elastic Constant Matrix: (Units=GPa)
#
#
# Indices 1 2 3 4 5 6 
#
# 1 106.5122 55.2645 77.4552 0.0000 0.0000 0.0000
# 2 55.2645 108.2549 99.5573 0.0000 0.0000 0.0000
# 3 77.4552 99.5573 208.5765 0.0000 0.0000 0.0000
# 4 0.0000 0.0000 0.0000 -31.2197 0.0000 0.0000
# 5 0.0000 0.0000 0.0000 0.0000 24.1335 0.0000
# 6 0.0000 0.0000 0.0000 0.0000 0.0000 22.7682
#
#
#
# Elastic Compliance Matrix: (Units=1/GPa)
#
#
# Indices 1 2 3 4 5 6 
#
# 1 0.013843 -0.004170 -0.003150 0.000000 0.000000 0.000000
# 2 -0.004170 0.017721 -0.006910 0.000000 0.000000 0.000000
# 3 -0.003150 -0.006910 0.009263 0.000000 0.000000 0.000000
# 4 0.000000 0.000000 0.000000 -0.032031 0.000000 0.000000
# 5 0.000000 0.000000 0.000000 0.000000 0.041436 0.000000
# 6 0.000000 0.000000 0.000000 0.000000 0.000000 0.043921
#
#
# Mechanical properties :
#
#
# Convention : Reuss Voigt Hill
#
# Bulk Modulus (GPa) = 80.86477 98.65528 89.76003
# Shear Modulus (GPa) = 39.45232 15.87416 27.66324
#
# Velocity S-wave (km/s) = 4.58815 2.91036 3.84196
# Velocity P-wave (km/s) = 8.43897 7.99590 8.22042
#
# Compressibility (1/GPa) = 0.01236632
#
# Stress axis : x y z
#
# Youngs Moduli (GPa) = 72.23888 56.43009 107.96045
#
# Poissons Ratio (x) = 0.23529 0.34012
# Poissons Ratio (y) = 0.30121 0.74603
# Poissons Ratio (z) = 0.22758 0.38994
#
# Static dielectric constant tensor:
#      x y z
#    x 1.636690 0.000000 0.000000 
#    y 0.000000 1.618210 0.000000 
#    z 0.000000 0.000000 1.661240 
# 
# From -- ./inp_files/43478.got.cif
#   From: 2010.05.17/outbox.cif.g08.bks.cpg/sg67_22_cif.got.tgz:43478.got - 2010.06.03 18:28:57.
