data_PCOD9500644
_publ_section_title
;
Structure prediction by ZEFSAII (Michael W. Deem and Ramdas Pophale) SiO2 
 PCOD9500644
Probable space group: C M M A
;
_chemical_formula_sum "Si O2"
_cell_formula_units_Z 80
_cell_length_a 16.834878
_cell_length_b 22.657939
_cell_length_c 11.802671
_cell_angle_alpha 90.000000
_cell_angle_beta 90.000000
_cell_angle_gamma 90.000000
_cell_volume 4502.053774
_symmetry_space_group_name_H-M "C M M A"
_symmetry_group_IT_number 67
_symmetry_cell_setting 'orthorhombic'
loop_
_space_group_symop_operation_xyz
x,y,z
-x,1/2-y,z
x,-y,-z
-x,1/2+y,-z
-x,-y,-z
x,1/2+y,-z
-x,y,z
x,1/2-y,z
1/2+x,1/2+y,z
1/2-x,-y,z
1/2+x,1/2-y,-z
1/2-x,y,-z
1/2-x,1/2-y,-z
1/2+x,y,-z
1/2-x,1/2+y,z
1/2+x,-y,z
loop_
_atom_site_type_symbol
_atom_site_label
_atom_site_fract_x
_atom_site_fract_y
_atom_site_fract_z
Si Si1 0.351954 0.376574 0.253051
Si Si2 0.404684 0.750000 0.757063
Si Si3 0.407350 0.375851 0.512551
Si Si4 0.845568 0.750000 0.502553
Si Si5 0.198333 0.942052 0.685507
Si Si6 0.093911 0.994358 0.131225
O O1 0.369541 0.312269 0.201145
O O2 0.392689 0.379888 0.377538
O O3 0.259892 0.391192 0.277346
O O4 0.386073 0.428971 0.176558
O O5 0.500000 0.750000 0.767412
O O6 0.379632 0.750000 0.625003
O O7 0.500000 0.384049 0.535594
O O8 0.378543 0.310867 0.552344
O O9 0.353686 0.422059 0.579518
O O10 0.750000 0.750000 0.500000
O O11 0.250000 0.000000 0.657708
O O12 0.142403 0.960990 0.789470
O O13 0.000000 0.005020 0.141448
O O14 0.117038 0.000000 0.000000
#
# Coordination Sequence:
#
# PCOD9500644 Si02
#       6
#    16   8  16   8  16  16
#     4  10  20  34  54  80 106 135 173 217 261 307
#     4  10  18  32  52  76 104 134 174 217 258 299
#     4  11  20  33  52  78 110 141 176 214 260 310
#     4  10  18  30  50  75 106 141 174 210 257 313
#     4  10  22  35  51  75 108 141 174 212 260 314
#     4  10  21  38  58  78 101 134 176 218 263 312
#
# _framework density 17.769669
#
# number of rings (size 3 to 8) (size 9 to 14) (size 15 to 20)
#    0.000    1.800    0.000    7.500    0.000    9.200 
#    0.000    5.000    0.000    3.600    0.000    2.800 
#    0.000    0.000    0.000    0.000    0.000    0.000 
#
# Total GULP energy -223301.103510 kJ/mol
# GULP energy per Si atom -5582.527588 kJ/mol
# Density = 1.772922 g / cm^3
# Si number density = 17.769669 Si / 1000 Ang^3
#
#
#
# Elastic Constant Matrix: (Units=GPa)
#
#
# Indices 1 2 3 4 5 6 
#
# 1 109.5032 51.6624 32.7234 0.0000 0.0000 0.0000
# 2 51.6624 92.3984 39.7822 0.0000 0.0000 0.0000
# 3 32.7234 39.7822 71.2416 0.0000 0.0000 0.0000
# 4 0.0000 0.0000 0.0000 4.9323 0.0000 0.0000
# 5 0.0000 0.0000 0.0000 0.0000 14.2794 0.0000
# 6 0.0000 0.0000 0.0000 0.0000 0.0000 19.6982
#
#
#
# Elastic Compliance Matrix: (Units=1/GPa)
#
#
# Indices 1 2 3 4 5 6 
#
# 1 0.012725 -0.006054 -0.002464 0.000000 0.000000 0.000000
# 2 -0.006054 0.017128 -0.006784 0.000000 0.000000 0.000000
# 3 -0.002464 -0.006784 0.018957 0.000000 0.000000 0.000000
# 4 0.000000 0.000000 0.000000 0.202746 0.000000 0.000000
# 5 0.000000 0.000000 0.000000 0.000000 0.070031 0.000000
# 6 0.000000 0.000000 0.000000 0.000000 0.000000 0.050766
#
#
# Mechanical properties :
#
#
# Convention : Reuss Voigt Hill
#
# Bulk Modulus (GPa) = 54.92747 57.94213 56.43480
# Shear Modulus (GPa) = 12.22416 17.71365 14.96890
#
# Velocity S-wave (km/s) = 2.62567 3.16071 2.90554
# Velocity P-wave (km/s) = 6.33799 6.78220 6.56385
#
# Compressibility (1/GPa) = 0.01820583
#
# Stress axis : x y z
#
# Youngs Moduli (GPa) = 78.58774 58.38279 52.75090
#
# Poissons Ratio (x) = 0.35343 0.13000
# Poissons Ratio (y) = 0.47574 0.35787
# Poissons Ratio (z) = 0.19367 0.39607
#
# Static dielectric constant tensor:
#      x y z
#    x 1.607580 0.000000 0.000000 
#    y 0.000000 1.660860 0.000000 
#    z 0.000000 0.000000 1.580740 
# 
# From -- ./inp_files/17981.got.cif
#   From: 2010.05.17/outbox.cif.g08.bks.cpg/sg67_9_cif.got.tgz:17981.got - 2010.06.03 18:28:57.
