data_PCOD9500377
_publ_section_title
;
Structure prediction by ZEFSAII (Michael W. Deem and Ramdas Pophale) SiO2 
 PCOD9500377
Probable space group: C M M A
;
_chemical_formula_sum "Si O2"
_cell_formula_units_Z 96
_cell_length_a 19.014191
_cell_length_b 21.284161
_cell_length_c 14.071434
_cell_angle_alpha 90.000000
_cell_angle_beta 90.000000
_cell_angle_gamma 90.000000
_cell_volume 5694.724854
_symmetry_space_group_name_H-M "C M M A"
_symmetry_group_IT_number 67
_symmetry_cell_setting 'orthorhombic'
loop_
_space_group_symop_operation_xyz
x,y,z
-x,1/2-y,z
x,-y,-z
-x,1/2+y,-z
-x,-y,-z
x,1/2+y,-z
-x,y,z
x,1/2-y,z
1/2+x,1/2+y,z
1/2-x,-y,z
1/2+x,1/2-y,-z
1/2-x,y,-z
1/2-x,1/2-y,-z
1/2+x,y,-z
1/2-x,1/2+y,z
1/2+x,-y,z
loop_
_atom_site_type_symbol
_atom_site_label
_atom_site_fract_x
_atom_site_fract_y
_atom_site_fract_z
Si Si1 0.335744 0.002623 0.889167
Si Si2 0.319042 0.175658 0.564156
Si Si3 0.583305 0.322531 0.389645
Si Si4 0.328691 0.250000 0.880017
Si Si5 0.657817 0.750000 0.901386
Si Si6 0.321489 0.625313 0.228688
Si Si7 0.847705 0.125039 0.791152
O O1 0.351385 0.064401 0.825970
O O2 0.250000 0.000000 0.889735
O O3 0.365960 0.940533 0.839749
O O4 0.357044 0.000000 0.000000
O O5 0.311800 0.250000 0.591676
O O6 0.250000 0.160695 0.500000
O O7 0.384257 0.168160 0.493336
O O8 0.329647 0.134422 0.658249
O O9 0.500000 0.329783 0.388840
O O10 0.600969 0.250000 0.363376
O O11 0.619750 0.366423 0.312460
O O12 0.243078 0.250000 0.888789
O O13 0.349086 0.312384 0.823586
O O14 0.356780 0.250000 0.986929
O O15 0.631316 0.813713 0.852259
O O16 0.236931 0.625142 0.215420
#
# Coordination Sequence:
#
# PCOD9500377 Si02
#       7
#    16  16  16   8   8  16  16
#     4   9  18  30  46  71 108 140 166 206 259 311
#     4  10  18  29  51  76 102 134 168 217 264 308
#     4  10  20  33  51  77 104 134 172 212 258 311
#     4   9  16  24  40  72 102 123 164 212 252 305
#     4   9  16  24  42  69  99 130 164 204 256 304
#     4  10  17  28  47  74 103 136 170 205 262 308
#     4  10  17  29  48  70 101 139 166 209 257 301
#
# _framework density 16.857706
#
# number of rings (size 3 to 8) (size 9 to 14) (size 15 to 20)
#    0.000    2.333    3.333    1.000    0.000    4.000 
#    0.000    0.833    0.000    2.500    0.000    4.667 
#    0.000    0.000    0.000    0.000    0.000    0.000 
#
# Total GULP energy -267389.621618 kJ/mol
# GULP energy per Si atom -5570.617117 kJ/mol
# Density = 1.681934 g / cm^3
# Si number density = 16.857706 Si / 1000 Ang^3
#
#
#
# Elastic Constant Matrix: (Units=GPa)
#
#
# Indices 1 2 3 4 5 6 
#
# 1 6.6809 18.5753 10.5135 0.0000 0.0000 0.0000
# 2 18.5753 143.2151 89.2303 0.0000 0.0000 0.0000
# 3 10.5135 89.2303 144.8943 0.0000 0.0000 0.0000
# 4 0.0000 0.0000 0.0000 29.5401 0.0000 0.0000
# 5 0.0000 0.0000 0.0000 0.0000 4.3126 0.0000
# 6 0.0000 0.0000 0.0000 0.0000 0.0000 7.5279
#
#
#
# Elastic Compliance Matrix: (Units=1/GPa)
#
#
# Indices 1 2 3 4 5 6 
#
# 1 0.234794 -0.032189 0.002787 0.000000 0.000000 0.000000
# 2 -0.032189 0.015743 -0.007359 0.000000 0.000000 0.000000
# 3 0.002787 -0.007359 0.011231 0.000000 0.000000 0.000000
# 4 0.000000 0.000000 0.000000 0.033852 0.000000 0.000000
# 5 0.000000 0.000000 0.000000 0.000000 0.231876 0.000000
# 6 0.000000 0.000000 0.000000 0.000000 0.000000 0.132839
#
#
# Mechanical properties :
#
#
# Convention : Reuss Voigt Hill
#
# Bulk Modulus (GPa) = 5.31224 59.04759 32.17992
# Shear Modulus (GPa) = 6.27661 20.04088 13.15875
#
# Velocity S-wave (km/s) = 1.93168 3.45168 2.79691
# Velocity P-wave (km/s) = 2.85188 7.14063 5.43699
#
# Compressibility (1/GPa) = 0.18824444
#
# Stress axis : x y z
#
# Youngs Moduli (GPa) = 4.25905 63.52167 89.03636
#
# Poissons Ratio (x) = 2.04473 -0.24812
# Poissons Ratio (y) = 0.13710 0.65523
# Poissons Ratio (z) = -0.01187 0.46747
#
# Static dielectric constant tensor:
#      x y z
#    x 1.546960 0.000000 0.000000 
#    y 0.000000 1.579830 0.000000 
#    z 0.000000 0.000000 1.573370 
# 
# From -- ./inp_files/20910.got.cif
#   From: 2010.05.17/outbox.cif.g08.bks.cpg/sg67_11_cif.got.tgz:20910.got - 2010.06.03 18:28:57.
