data_PCOD9500453
_publ_section_title
;
Structure prediction by ZEFSAII (Michael W. Deem and Ramdas Pophale) SiO2 
 PCOD9500453
Probable space group: C M M A
;
_chemical_formula_sum "Si O2"
_cell_formula_units_Z 52
_cell_length_a 5.348596
_cell_length_b 30.721295
_cell_length_c 16.209080
_cell_angle_alpha 90.000000
_cell_angle_beta 90.000000
_cell_angle_gamma 90.000000
_cell_volume 2663.407875
_symmetry_space_group_name_H-M "C M M A"
_symmetry_group_IT_number 67
_symmetry_cell_setting 'orthorhombic'
loop_
_space_group_symop_operation_xyz
x,y,z
-x,1/2-y,z
x,-y,-z
-x,1/2+y,-z
-x,-y,-z
x,1/2+y,-z
-x,y,z
x,1/2-y,z
1/2+x,1/2+y,z
1/2-x,-y,z
1/2+x,1/2-y,-z
1/2-x,y,-z
1/2-x,1/2-y,-z
1/2+x,y,-z
1/2-x,1/2+y,z
1/2+x,-y,z
loop_
_atom_site_type_symbol
_atom_site_label
_atom_site_fract_x
_atom_site_fract_y
_atom_site_fract_z
Si Si1 0.500000 0.184523 0.693426
Si Si2 0.500000 0.549234 0.462048
Si Si3 0.500000 0.518541 0.907386
Si Si4 0.500000 0.750000 0.449650
Si Si5 0.000000 0.200938 0.798159
Si Si6 0.500000 0.398885 0.177445
Si Si7 0.500000 0.585567 0.284870
O O1 0.500000 0.208775 0.608663
O O2 0.747866 0.197821 0.744031
O O3 0.500000 0.133593 0.676500
O O4 0.500000 0.500000 0.500000
O O5 0.250000 0.569943 0.500000
O O6 0.500000 0.552273 0.362209
O O7 0.250000 0.500000 0.866649
O O8 0.500000 0.570338 0.902644
O O9 0.500000 0.500000 0.000000
O O10 0.250000 0.750000 0.500000
O O11 0.000000 0.250000 0.837678
O O12 0.000000 0.152908 0.842056
O O13 0.252497 0.412907 0.229324
#
# Coordination Sequence:
#
# PCOD9500453 Si02
#       7
#     8   8   8   4   8   8   8
#     4  10  20  33  49  71 101 138 180 228 298 331
#     4  10  21  38  52  69  98 142 189 228 300 349
#     4  10  21  40  61  88 125 158 184 221 285 343
#     4  12  22  30  44  70  96 134 196 234 286 358
#     4  10  17  33  57  75 110 143 173 231 284 336
#     4  10  21  36  57  93 111 143 198 234 281 342
#     4  10  21  37  56  77 111 143 189 255 277 336
#
# _framework density 19.523859000000002
#
# number of rings (size 3 to 8) (size 9 to 14) (size 15 to 20)
#    0.000    1.846    1.538    2.769    0.000    1.231 
#   16.615    0.000    0.000    0.000    0.000    4.308 
#    0.000    0.000    0.000    0.000    0.000    0.000 
#
# Total GULP energy -144746.125874 kJ/mol
# GULP energy per Si atom -5567.158687 kJ/mol
# Density = 1.947942 g / cm^3
# Si number density = 19.523859 Si / 1000 Ang^3
#
#
#
# Elastic Constant Matrix: (Units=GPa)
#
#
# Indices 1 2 3 4 5 6 
#
# 1 173.8298 18.6292 10.1759 0.0000 0.0000 0.0000
# 2 18.6292 160.5230 54.8640 0.0000 0.0000 0.0000
# 3 10.1759 54.8640 47.9579 0.0000 0.0000 0.0000
# 4 0.0000 0.0000 0.0000 76.0104 0.0000 0.0000
# 5 0.0000 0.0000 0.0000 0.0000 -35.8635 0.0000
# 6 0.0000 0.0000 0.0000 0.0000 0.0000 13.2244
#
#
#
# Elastic Compliance Matrix: (Units=1/GPa)
#
#
# Indices 1 2 3 4 5 6 
#
# 1 0.005842 -0.000418 -0.000762 0.000000 0.000000 0.000000
# 2 -0.000418 0.010259 -0.011648 0.000000 0.000000 0.000000
# 3 -0.000762 -0.011648 0.034339 0.000000 0.000000 0.000000
# 4 0.000000 0.000000 0.000000 0.013156 0.000000 0.000000
# 5 0.000000 0.000000 0.000000 0.000000 -0.027883 0.000000
# 6 0.000000 0.000000 0.000000 0.000000 0.000000 0.075618
#
#
# Mechanical properties :
#
#
# Convention : Reuss Voigt Hill
#
# Bulk Modulus (GPa) = 40.34691 61.07210 50.70950
# Shear Modulus (GPa) = 34.42421 30.58368 32.50395
#
# Velocity S-wave (km/s) = 4.20359 3.96217 4.08466
# Velocity P-wave (km/s) = 6.65361 7.23052 6.94805
#
# Compressibility (1/GPa) = 0.02478505
#
# Stress axis : x y z
#
# Youngs Moduli (GPa) = 171.17107 97.47398 29.12182
#
# Poissons Ratio (x) = 0.04071 0.02219
# Poissons Ratio (y) = 0.07148 0.33921
# Poissons Ratio (z) = 0.13041 1.13537
#
# Static dielectric constant tensor:
#      x y z
#    x 1.735820 0.000000 0.000000 
#    y 0.000000 1.689470 0.000000 
#    z 0.000000 0.000000 1.651870 
# 
# From -- ./inp_files/24242.got.cif
#   From: 2010.05.17/outbox.cif.g08.bks.cpg/sg67_13_cif.got.tgz:24242.got - 2010.06.03 18:28:57.
