data_PCOD9500959
_publ_section_title
;
Structure prediction by ZEFSAII (Michael W. Deem and Ramdas Pophale) SiO2 
 PCOD9500959
Probable space group: C M M A
;
_chemical_formula_sum "Si O2"
_cell_formula_units_Z 112
_cell_length_a 20.203890
_cell_length_b 17.847523
_cell_length_c 17.458382
_cell_angle_alpha 90.000000
_cell_angle_beta 90.000000
_cell_angle_gamma 90.000000
_cell_volume 6295.307341
_symmetry_space_group_name_H-M "C M M A"
_symmetry_group_IT_number 67
_symmetry_cell_setting 'orthorhombic'
loop_
_space_group_symop_operation_xyz
x,y,z
-x,1/2-y,z
x,-y,-z
-x,1/2+y,-z
-x,-y,-z
x,1/2+y,-z
-x,y,z
x,1/2-y,z
1/2+x,1/2+y,z
1/2-x,-y,z
1/2+x,1/2-y,-z
1/2-x,y,-z
1/2-x,1/2-y,-z
1/2+x,y,-z
1/2-x,1/2+y,z
1/2+x,-y,z
loop_
_atom_site_type_symbol
_atom_site_label
_atom_site_fract_x
_atom_site_fract_y
_atom_site_fract_z
Si Si1 0.307134 0.160208 0.436807
Si Si2 0.607030 0.165087 0.716649
Si Si3 0.424729 0.659714 0.456772
Si Si4 0.769862 0.665290 0.829070
Si Si5 0.074427 0.989300 0.784398
Si Si6 0.321379 0.966855 0.084230
Si Si7 0.195995 0.432891 0.717421
O O1 0.308971 0.250000 0.421129
O O2 0.250000 0.148405 0.500000
O O3 0.375715 0.134854 0.476510
O O4 0.296016 0.114660 0.359573
O O5 0.579742 0.250000 0.724335
O O6 0.607342 0.146745 0.626626
O O7 0.677764 0.165994 0.758506
O O8 0.570614 0.097085 0.757650
O O9 0.500000 0.630657 0.459039
O O10 0.428142 0.750000 0.463785
O O11 0.753515 0.750000 0.850144
O O12 0.805824 0.620713 0.898289
O O13 0.709499 0.620543 0.790740
O O14 0.117507 0.989027 0.862219
O O15 0.000000 0.019178 0.791058
O O16 0.122864 0.032185 0.725646
O O17 0.250000 0.000000 0.107970
O O18 0.332668 0.000000 0.000000
O O19 0.250000 0.500000 0.718429
#
# Coordination Sequence:
#
# PCOD9500959 Si02
#       7
#    16  16  16  16  16  16  16
#     4  10  22  37  55  78 104 143 195 245 290 340
#     4   9  17  32  56  84 112 145 191 245 289 327
#     4   9  17  31  50  73 105 143 181 228 285 334
#     4  10  18  34  62  90 110 143 191 235 274 323
#     4  11  22  36  56  85 117 152 190 224 279 347
#     4  10  19  38  63  86 121 149 176 224 277 332
#     4  12  21  38  56  80 114 150 186 238 291 336
#
# _framework density 17.791031
#
# number of rings (size 3 to 8) (size 9 to 14) (size 15 to 20)
#    0.000    1.857    4.286    1.714    0.000    4.286 
#    0.000    1.429    0.000    3.000    0.000    0.000 
#    0.000    0.000    0.000    0.000    0.000    0.000 
#
# Total GULP energy -311909.752789 kJ/mol
# GULP energy per Si atom -5569.817014 kJ/mol
# Density = 1.775054 g / cm^3
# Si number density = 17.791031 Si / 1000 Ang^3
#
#
#
# Elastic Constant Matrix: (Units=GPa)
#
#
# Indices 1 2 3 4 5 6 
#
# 1 97.3369 36.1774 24.2522 0.0000 0.0000 0.0000
# 2 36.1774 87.2503 54.2979 0.0000 0.0000 0.0000
# 3 24.2522 54.2979 112.8218 0.0000 0.0000 0.0000
# 4 0.0000 0.0000 0.0000 26.2384 0.0000 0.0000
# 5 0.0000 0.0000 0.0000 0.0000 -7.5144 0.0000
# 6 0.0000 0.0000 0.0000 0.0000 0.0000 5.3601
#
#
#
# Elastic Compliance Matrix: (Units=1/GPa)
#
#
# Indices 1 2 3 4 5 6 
#
# 1 0.012151 -0.004872 -0.000267 0.000000 0.000000 0.000000
# 2 -0.004872 0.018315 -0.007767 0.000000 0.000000 0.000000
# 3 -0.000267 -0.007767 0.012659 0.000000 0.000000 0.000000
# 4 0.000000 0.000000 0.000000 0.038112 0.000000 0.000000
# 5 0.000000 0.000000 0.000000 0.000000 -0.133078 0.000000
# 6 0.000000 0.000000 0.000000 0.000000 0.000000 0.186562
#
#
# Mechanical properties :
#
#
# Convention : Reuss Voigt Hill
#
# Bulk Modulus (GPa) = 57.76240 58.54045 58.15142
# Shear Modulus (GPa) = 30.06514 16.99558 23.53036
#
# Velocity S-wave (km/s) = 4.11530 3.09413 3.64070
# Velocity P-wave (km/s) = 7.42419 6.76319 7.10139
#
# Compressibility (1/GPa) = 0.01731230
#
# Stress axis : x y z
#
# Youngs Moduli (GPa) = 82.29811 54.59960 78.99420
#
# Poissons Ratio (x) = 0.26601 0.02111
# Poissons Ratio (y) = 0.40095 0.61357
# Poissons Ratio (z) = 0.02199 0.42409
#
# Static dielectric constant tensor:
#      x y z
#    x 1.637490 0.000000 0.000000 
#    y 0.000000 1.642330 0.000000 
#    z 0.000000 0.000000 1.614200 
# 
# From -- ./inp_files/35132.got.cif
#   From: 2010.05.17/outbox.cif.g08.bks.cpg/sg67_18_cif.got.tgz:35132.got - 2010.06.03 18:28:57.
