data_PCOD9500665
_publ_section_title
;
Structure prediction by ZEFSAII (Michael W. Deem and Ramdas Pophale) SiO2 
 PCOD9500665
Probable space group: C M M A
;
_chemical_formula_sum "Si O2"
_cell_formula_units_Z 80
_cell_length_a 16.466007
_cell_length_b 25.462860
_cell_length_c 10.460093
_cell_angle_alpha 90.000000
_cell_angle_beta 90.000000
_cell_angle_gamma 90.000000
_cell_volume 4385.620253
_symmetry_space_group_name_H-M "C M M A"
_symmetry_group_IT_number 67
_symmetry_cell_setting 'orthorhombic'
loop_
_space_group_symop_operation_xyz
x,y,z
-x,1/2-y,z
x,-y,-z
-x,1/2+y,-z
-x,-y,-z
x,1/2+y,-z
-x,y,z
x,1/2-y,z
1/2+x,1/2+y,z
1/2-x,-y,z
1/2+x,1/2-y,-z
1/2-x,y,-z
1/2-x,1/2-y,-z
1/2+x,y,-z
1/2-x,1/2+y,z
1/2+x,-y,z
loop_
_atom_site_type_symbol
_atom_site_label
_atom_site_fract_x
_atom_site_fract_y
_atom_site_fract_z
Si Si1 0.905098 0.466119 0.617146
Si Si2 0.346494 0.137550 0.483745
Si Si3 0.096594 0.250000 0.217531
Si Si4 0.847995 0.250000 0.510709
Si Si5 0.842288 0.478311 0.136344
Si Si6 0.402268 0.632091 0.221204
O O1 0.869366 0.500000 0.500000
O O2 0.867198 0.408972 0.610915
O O3 0.891054 0.496159 0.747535
O O4 0.000000 0.459406 0.592740
O O5 0.250000 0.138416 0.500000
O O6 0.373387 0.194470 0.431915
O O7 0.384625 0.128651 0.625320
O O8 0.117263 0.250000 0.367695
O O9 0.123743 0.308866 0.175542
O O10 0.000000 0.250000 0.199832
O O11 0.750000 0.250000 0.500000
O O12 0.750000 0.500000 0.149790
O O13 0.855021 0.415687 0.152727
O O14 0.871497 0.500000 0.000000
O O15 0.500000 0.626343 0.203398
#
# Coordination Sequence:
#
# PCOD9500665 Si02
#       6
#    16  16   8   8  16  16
#     4  11  22  34  52  80 109 139 175 217 267 322
#     4  10  18  30  51  77 109 141 177 219 266 314
#     4   8  16  28  50  80 104 132 174 222 266 310
#     4   8  16  28  44  73 106 139 172 214 264 314
#     4  11  24  39  56  78 108 145 185 224 272 325
#     4  10  18  33  55  80 108 138 178 225 268 317
#
# _framework density 18.241434000000002
#
# number of rings (size 3 to 8) (size 9 to 14) (size 15 to 20)
#    0.000    2.000    2.000    2.400    0.000    2.400 
#    0.000    0.000    0.000    3.600    0.000    0.000 
#    0.000    0.000    0.000    0.000    0.000    0.000 
#
# Total GULP energy -222808.548445 kJ/mol
# GULP energy per Si atom -5570.213711 kJ/mol
# Density = 1.819992 g / cm^3
# Si number density = 18.241434 Si / 1000 Ang^3
#
#
#
# Elastic Constant Matrix: (Units=GPa)
#
#
# Indices 1 2 3 4 5 6 
#
# 1 35.2154 25.4029 -5.8722 0.0000 0.0000 0.0000
# 2 25.4029 207.8556 31.2121 0.0000 0.0000 0.0000
# 3 -5.8722 31.2121 41.1238 0.0000 0.0000 0.0000
# 4 0.0000 0.0000 0.0000 19.3637 0.0000 0.0000
# 5 0.0000 0.0000 0.0000 0.0000 25.7454 0.0000
# 6 0.0000 0.0000 0.0000 0.0000 0.0000 30.3525
#
#
#
# Elastic Compliance Matrix: (Units=1/GPa)
#
#
# Indices 1 2 3 4 5 6 
#
# 1 0.033857 -0.005489 0.009001 0.000000 0.000000 0.000000
# 2 -0.005489 0.006320 -0.005581 0.000000 0.000000 0.000000
# 3 0.009001 -0.005581 0.029838 0.000000 0.000000 0.000000
# 4 0.000000 0.000000 0.000000 0.051643 0.000000 0.000000
# 5 0.000000 0.000000 0.000000 0.000000 0.038842 0.000000
# 6 0.000000 0.000000 0.000000 0.000000 0.000000 0.032946
#
#
# Mechanical properties :
#
#
# Convention : Reuss Voigt Hill
#
# Bulk Modulus (GPa) = 15.17978 42.85338 29.01658
# Shear Modulus (GPa) = 22.77456 30.65578 26.71517
#
# Velocity S-wave (km/s) = 3.53726 4.10391 3.83107
# Velocity P-wave (km/s) = 5.00226 6.78229 5.95911
#
# Compressibility (1/GPa) = 0.06587711
#
# Stress axis : x y z
#
# Youngs Moduli (GPa) = 29.53558 158.22986 33.51466
#
# Poissons Ratio (x) = 0.86860 -0.30167
# Poissons Ratio (y) = 0.16214 0.18703
# Poissons Ratio (z) = -0.26585 0.88301
#
# Static dielectric constant tensor:
#      x y z
#    x 1.625630 0.000000 0.000000 
#    y 0.000000 1.721310 0.000000 
#    z 0.000000 0.000000 1.600870 
# 
# From -- ./inp_files/19762.got.cif
#   From: 2010.05.17/outbox.cif.g08.bks.cpg/sg67_10_cif.got.tgz:19762.got - 2010.06.03 18:28:57.
