data_PCOD9500855
_publ_section_title
;
Structure prediction by ZEFSAII (Michael W. Deem and Ramdas Pophale) SiO2 
 PCOD9500855
Probable space group: C M M A
;
_chemical_formula_sum "Si O2"
_cell_formula_units_Z 96
_cell_length_a 8.107184
_cell_length_b 30.011243
_cell_length_c 21.197046
_cell_angle_alpha 90.000000
_cell_angle_beta 90.000000
_cell_angle_gamma 90.000000
_cell_volume 5157.382656
_symmetry_space_group_name_H-M "C M M A"
_symmetry_group_IT_number 67
_symmetry_cell_setting 'orthorhombic'
loop_
_space_group_symop_operation_xyz
x,y,z
-x,1/2-y,z
x,-y,-z
-x,1/2+y,-z
-x,-y,-z
x,1/2+y,-z
-x,y,z
x,1/2-y,z
1/2+x,1/2+y,z
1/2-x,-y,z
1/2+x,1/2-y,-z
1/2-x,y,-z
1/2-x,1/2-y,-z
1/2+x,y,-z
1/2-x,1/2+y,z
1/2+x,-y,z
loop_
_atom_site_type_symbol
_atom_site_label
_atom_site_fract_x
_atom_site_fract_y
_atom_site_fract_z
Si Si1 0.198702 0.857964 0.311284
Si Si2 0.698721 0.142942 0.068560
Si Si3 0.196713 0.300492 0.429176
Si Si4 0.698549 0.951613 0.884453
Si Si5 0.698610 0.951568 0.738123
Si Si6 0.201845 0.698768 0.190099
O O1 0.246005 0.834755 0.376288
O O2 0.257727 0.908579 0.300388
O O3 0.256126 0.828018 0.252126
O O4 0.000000 0.858938 0.308260
O O5 0.500000 0.142185 0.071135
O O6 0.758726 0.092098 0.079135
O O7 0.755461 0.173296 0.126821
O O8 0.750000 0.159435 0.000000
O O9 0.260634 0.250000 0.416174
O O10 0.250000 0.312531 0.500000
O O11 0.000000 0.298871 0.427603
O O12 0.500000 0.950399 0.884032
O O13 0.755220 0.948051 0.811270
O O14 0.750000 0.000000 0.909265
O O15 0.500000 0.950283 0.739558
O O16 0.750000 0.000000 0.713751
O O17 0.255202 0.750000 0.191488
O O18 0.000000 0.698482 0.190239
#
# Coordination Sequence:
#
# PCOD9500855 Si02
#       6
#    16  16  16  16  16  16
#     4  10  18  32  56  82 105 134 174 216 257 304
#     4  10  20  34  49  68  96 129 167 211 257 307
#     4  10  21  36  54  80 114 147 177 210 251 301
#     4   9  17  31  49  69  96 126 162 207 254 307
#     4   9  17  30  50  76 104 133 168 210 256 308
#     4   9  17  31  52  74  96 128 170 211 254 307
#
# _framework density 18.614094000000001
#
# number of rings (size 3 to 8) (size 9 to 14) (size 15 to 20)
#    0.000    2.500    1.667    1.000    0.000    3.667 
#    0.000    2.500    0.000    1.500    0.000    3.500 
#    0.000    0.000    0.000    0.000    0.000    0.000 
#
# Total GULP energy -267800.112640 kJ/mol
# GULP energy per Si atom -5579.169013 kJ/mol
# Density = 1.857173 g / cm^3
# Si number density = 18.614094 Si / 1000 Ang^3
#
#
#
# Elastic Constant Matrix: (Units=GPa)
#
#
# Indices 1 2 3 4 5 6 
#
# 1 9.9185 13.8865 7.1144 0.0000 0.0000 0.0000
# 2 13.8865 154.2402 85.0978 0.0000 0.0000 0.0000
# 3 7.1144 85.0978 120.1431 0.0000 0.0000 0.0000
# 4 0.0000 0.0000 0.0000 29.7881 0.0000 0.0000
# 5 0.0000 0.0000 0.0000 0.0000 21.0853 0.0000
# 6 0.0000 0.0000 0.0000 0.0000 0.0000 17.3879
#
#
#
# Elastic Compliance Matrix: (Units=1/GPa)
#
#
# Indices 1 2 3 4 5 6 
#
# 1 0.115418 -0.010867 0.000863 0.000000 0.000000 0.000000
# 2 -0.010867 0.011665 -0.007619 0.000000 0.000000 0.000000
# 3 0.000863 -0.007619 0.013669 0.000000 0.000000 0.000000
# 4 0.000000 0.000000 0.000000 0.033570 0.000000 0.000000
# 5 0.000000 0.000000 0.000000 0.000000 0.047426 0.000000
# 6 0.000000 0.000000 0.000000 0.000000 0.000000 0.057511
#
#
# Mechanical properties :
#
#
# Convention : Reuss Voigt Hill
#
# Bulk Modulus (GPa) = 9.47824 55.16656 32.32240
# Shear Modulus (GPa) = 14.29895 25.53246 19.91571
#
# Velocity S-wave (km/s) = 2.77461 3.70763 3.27452
# Velocity P-wave (km/s) = 3.92016 6.93037 5.63017
#
# Compressibility (1/GPa) = 0.10550486
#
# Stress axis : x y z
#
# Youngs Moduli (GPa) = 8.66418 85.72320 73.15818
#
# Poissons Ratio (x) = 0.93157 -0.06312
# Poissons Ratio (y) = 0.09416 0.55740
# Poissons Ratio (z) = -0.00747 0.65314
#
# Static dielectric constant tensor:
#      x y z
#    x 1.666880 0.000000 0.000000 
#    y 0.000000 1.658210 0.000000 
#    z 0.000000 0.000000 1.619310 
# 
# From -- ./inp_files/37204.got.cif
#   From: 2010.05.17/outbox.cif.g08.bks.cpg/sg67_19_cif.got.tgz:37204.got - 2010.06.03 18:28:57.
