data_PCOD9500162
_publ_section_title
;
Structure prediction by ZEFSAII (Michael W. Deem and Ramdas Pophale) SiO2 
 PCOD9500162
Probable space group: C M M A
;
_chemical_formula_sum "Si O2"
_cell_formula_units_Z 72
_cell_length_a 14.743659
_cell_length_b 8.536574
_cell_length_c 26.979300
_cell_angle_alpha 90.000000
_cell_angle_beta 90.000000
_cell_angle_gamma 90.000000
_cell_volume 3395.623765
_symmetry_space_group_name_H-M "C M M A"
_symmetry_group_IT_number 67
_symmetry_cell_setting 'orthorhombic'
loop_
_space_group_symop_operation_xyz
x,y,z
-x,1/2-y,z
x,-y,-z
-x,1/2+y,-z
-x,-y,-z
x,1/2+y,-z
-x,y,z
x,1/2-y,z
1/2+x,1/2+y,z
1/2-x,-y,z
1/2+x,1/2-y,-z
1/2-x,y,-z
1/2-x,1/2-y,-z
1/2+x,y,-z
1/2-x,1/2+y,z
1/2+x,-y,z
loop_
_atom_site_type_symbol
_atom_site_label
_atom_site_fract_x
_atom_site_fract_y
_atom_site_fract_z
Si Si1 0.646120 0.563600 0.948685
Si Si2 0.000000 0.564065 0.444436
Si Si3 0.354065 0.561464 0.153988
Si Si4 0.353305 0.439050 0.738790
Si Si5 0.852658 0.938484 0.630163
O O1 0.647364 0.750000 0.949872
O O2 0.750000 0.500000 0.948163
O O3 0.605415 0.505870 0.896663
O O4 0.605588 0.500000 0.000000
O O5 0.000000 0.500000 0.500000
O O6 0.913649 0.504419 0.413506
O O7 0.000000 0.750000 0.445875
O O8 0.354463 0.750000 0.150564
O O9 0.250000 0.500000 0.155275
O O10 0.393424 0.513675 0.207793
O O11 0.353087 0.250000 0.739169
O O12 0.250000 0.500000 0.738664
O O13 0.389929 0.486809 0.684925
O O14 0.853001 0.750000 0.628102
O O15 0.750000 0.000000 0.626279
#
# Coordination Sequence:
#
# PCOD9500162 Si02
#       5
#    16   8  16  16  16
#     4  10  16  21  27  38  60  97 144 196 250 307
#     4  12  26  44  64  90 120 156 197 240 285 336
#     4   9  14  21  32  50  75 107 148 197 248 306
#     4   8  15  26  44  68  96 128 166 210 263 320
#     4  10  20  38  62  90 121 156 194 238 287 342
#
# _framework density 21.203762999999999
#
# number of rings (size 3 to 8) (size 9 to 14) (size 15 to 20)
#    0.000    2.444    0.000    6.333    0.000    2.222 
#    0.000    2.222    0.000    0.000    0.000    0.000 
#    0.000    0.000    0.000    1.000    0.000   13.556 
#
# Total GULP energy -200809.057241 kJ/mol
# GULP energy per Si atom -5578.029368 kJ/mol
# Density = 2.115550 g / cm^3
# Si number density = 21.203763 Si / 1000 Ang^3
#
#
#
# Elastic Constant Matrix: (Units=GPa)
#
#
# Indices 1 2 3 4 5 6 
#
# 1 88.6558 21.8499 62.9684 0.0000 0.0000 0.0000
# 2 21.8499 117.5562 82.9173 0.0000 0.0000 0.0000
# 3 62.9684 82.9173 292.0706 0.0000 0.0000 0.0000
# 4 0.0000 0.0000 0.0000 32.0155 0.0000 0.0000
# 5 0.0000 0.0000 0.0000 0.0000 60.7240 0.0000
# 6 0.0000 0.0000 0.0000 0.0000 0.0000 5.3387
#
#
#
# Elastic Compliance Matrix: (Units=1/GPa)
#
#
# Indices 1 2 3 4 5 6 
#
# 1 0.013349 -0.000564 -0.002718 0.000000 0.000000 0.000000
# 2 -0.000564 0.010660 -0.002905 0.000000 0.000000 0.000000
# 3 -0.002718 -0.002905 0.004834 0.000000 0.000000 0.000000
# 4 0.000000 0.000000 0.000000 0.031235 0.000000 0.000000
# 5 0.000000 0.000000 0.000000 0.000000 0.016468 0.000000
# 6 0.000000 0.000000 0.000000 0.000000 0.000000 0.187312
#
#
# Mechanical properties :
#
#
# Convention : Reuss Voigt Hill
#
# Bulk Modulus (GPa) = 60.71569 92.63931 76.67750
# Shear Modulus (GPa) = 17.74797 41.65209 29.70003
#
# Velocity S-wave (km/s) = 2.89627 4.43693 3.74665
# Velocity P-wave (km/s) = 6.31514 8.36859 7.41331
#
# Compressibility (1/GPa) = 0.01647021
#
# Stress axis : x y z
#
# Youngs Moduli (GPa) = 74.91228 93.80610 206.85044
#
# Poissons Ratio (x) = 0.05292 0.56217
# Poissons Ratio (y) = 0.04226 0.60085
# Poissons Ratio (z) = 0.20359 0.27248
#
# Static dielectric constant tensor:
#      x y z
#    x 2.195770 0.000000 0.000000 
#    y 0.000000 1.706900 0.000000 
#    z 0.000000 0.000000 1.833000 
# 
# From -- ./inp_files/44238.got.cif
#   From: 2010.05.17/outbox.cif.g08.bks.cpg/sg67_23_cif.got.tgz:44238.got - 2010.06.03 18:28:57.
