data_PCOD9500965
_publ_section_title
;
Structure prediction by ZEFSAII (Michael W. Deem and Ramdas Pophale) SiO2 
 PCOD9500965
Probable space group: C M M A
;
_chemical_formula_sum "Si O2"
_cell_formula_units_Z 116
_cell_length_a 17.296857
_cell_length_b 28.495348
_cell_length_c 11.568141
_cell_angle_alpha 90.000000
_cell_angle_beta 90.000000
_cell_angle_gamma 90.000000
_cell_volume 5701.704868
_symmetry_space_group_name_H-M "C M M A"
_symmetry_group_IT_number 67
_symmetry_cell_setting 'orthorhombic'
loop_
_space_group_symop_operation_xyz
x,y,z
-x,1/2-y,z
x,-y,-z
-x,1/2+y,-z
-x,-y,-z
x,1/2+y,-z
-x,y,z
x,1/2-y,z
1/2+x,1/2+y,z
1/2-x,-y,z
1/2+x,1/2-y,-z
1/2-x,y,-z
1/2-x,1/2-y,-z
1/2+x,y,-z
1/2-x,1/2+y,z
1/2+x,-y,z
loop_
_atom_site_type_symbol
_atom_site_label
_atom_site_fract_x
_atom_site_fract_y
_atom_site_fract_z
Si Si1 0.328555 0.643265 0.556795
Si Si2 0.000000 0.250000 0.976879
Si Si3 0.245631 0.674955 0.767483
Si Si4 0.588182 0.695505 0.349722
Si Si5 0.909865 0.410223 0.750321
Si Si6 0.088870 0.506931 0.861913
Si Si7 0.695424 0.908339 0.104357
Si Si8 0.127790 0.830453 0.062542
O O1 0.250000 0.875137 0.500000
O O2 0.295931 0.681210 0.650962
O O3 0.383170 0.665441 0.459270
O O4 0.372124 0.604730 0.630843
O O5 0.932661 0.291261 0.971728
O O6 0.158421 0.691386 0.742754
O O7 0.240252 0.618995 0.794869
O O8 0.295514 0.691782 0.876760
O O9 0.500000 0.682862 0.311795
O O10 0.585651 0.750000 0.383468
O O11 0.880801 0.458799 0.805955
O O12 0.903492 0.366382 0.839051
O O13 0.000000 0.417946 0.730989
O O14 0.142426 0.551703 0.843776
O O15 0.000000 0.515824 0.825642
O O16 0.087436 0.500000 0.000000
O O17 0.750000 0.926530 0.000000
O O18 0.649653 0.865759 0.041116
#
# Coordination Sequence:
#
# PCOD9500965 Si02
#       8
#    16   4  16  16  16  16  16  16
#     4   9  19  37  58  81 117 157 197 259 321 362
#     4  12  24  36  58  86 120 186 222 248 302 388
#     4   9  21  39  59  84 122 160 199 267 316 360
#     4  10  21  39  61  90 114 155 215 265 319 380
#     4  10  18  35  57  90 127 158 199 261 309 366
#     4  10  20  33  60  92 123 161 199 249 311 368
#     4  10  21  40  59  87 126 169 208 255 307 376
#     4  10  21  38  54  87 127 168 216 252 306 366
#
# _framework density 20.344792000000002
#
# number of rings (size 3 to 8) (size 9 to 14) (size 15 to 20)
#    0.000    2.207    2.069    0.414    1.931    3.310 
#    4.966    1.034    0.000    5.793    0.000    8.690 
#    0.000    0.000    0.000    0.000    0.000    0.000 
#
# Total GULP energy -322875.553849 kJ/mol
# GULP energy per Si atom -5566.819894 kJ/mol
# Density = 2.029849 g / cm^3
# Si number density = 20.344792 Si / 1000 Ang^3
#
#
#
# Elastic Constant Matrix: (Units=GPa)
#
#
# Indices 1 2 3 4 5 6 
#
# 1 122.8090 49.5240 22.7168 0.0000 0.0000 0.0000
# 2 49.5240 99.9952 24.1401 0.0000 0.0000 0.0000
# 3 22.7168 24.1401 57.0256 0.0000 0.0000 0.0000
# 4 0.0000 0.0000 0.0000 -23.3643 0.0000 0.0000
# 5 0.0000 0.0000 0.0000 0.0000 22.8242 0.0000
# 6 0.0000 0.0000 0.0000 0.0000 0.0000 569.0844
#
#
#
# Elastic Compliance Matrix: (Units=1/GPa)
#
#
# Indices 1 2 3 4 5 6 
#
# 1 0.010415 -0.004629 -0.002189 0.000000 0.000000 0.000000
# 2 -0.004629 0.013197 -0.003742 0.000000 0.000000 0.000000
# 3 -0.002189 -0.003742 0.019992 0.000000 0.000000 0.000000
# 4 0.000000 0.000000 0.000000 -0.042800 0.000000 0.000000
# 5 0.000000 0.000000 0.000000 0.000000 0.043813 0.000000
# 6 0.000000 0.000000 0.000000 0.000000 0.000000 0.001757
#
#
# Mechanical properties :
#
#
# Convention : Reuss Voigt Hill
#
# Bulk Modulus (GPa) = 44.48006 52.51017 48.49511
# Shear Modulus (GPa) = 66.67665 125.93879 96.30772
#
# Velocity S-wave (km/s) = 5.73101 7.87633 6.88771
# Velocity P-wave (km/s) = 8.10575 10.42025 9.33501
#
# Compressibility (1/GPa) = 0.02248198
#
# Stress axis : x y z
#
# Youngs Moduli (GPa) = 96.01966 75.77638 50.01966
#
# Poissons Ratio (x) = 0.35081 0.10949
# Poissons Ratio (y) = 0.44452 0.18718
# Poissons Ratio (z) = 0.21019 0.28357
#
# Static dielectric constant tensor:
#      x y z
#    x 1.804210 0.000000 0.000000 
#    y 0.000000 1.706160 0.000000 
#    z 0.000000 0.000000 1.752570 
# 
# From -- ./inp_files/20010.got.cif
#   From: 2010.05.17/outbox.cif.g08.bks.cpg/sg67_11_cif.got.tgz:20010.got - 2010.06.03 18:28:57.
