data_PCOD9500192
_publ_section_title
;
Structure prediction by ZEFSAII (Michael W. Deem and Ramdas Pophale) SiO2 
 PCOD9500192
Probable space group: C M M A
;
_chemical_formula_sum "Si O2"
_cell_formula_units_Z 96
_cell_length_a 14.650556
_cell_length_b 8.881405
_cell_length_c 33.042581
_cell_angle_alpha 90.000000
_cell_angle_beta 90.000000
_cell_angle_gamma 90.000000
_cell_volume 4299.418737
_symmetry_space_group_name_H-M "C M M A"
_symmetry_group_IT_number 67
_symmetry_cell_setting 'orthorhombic'
loop_
_space_group_symop_operation_xyz
x,y,z
-x,1/2-y,z
x,-y,-z
-x,1/2+y,-z
-x,-y,-z
x,1/2+y,-z
-x,y,z
x,1/2-y,z
1/2+x,1/2+y,z
1/2-x,-y,z
1/2+x,1/2-y,-z
1/2-x,y,-z
1/2-x,1/2-y,-z
1/2+x,y,-z
1/2-x,1/2+y,z
1/2+x,-y,z
loop_
_atom_site_type_symbol
_atom_site_label
_atom_site_fract_x
_atom_site_fract_y
_atom_site_fract_z
Si Si1 0.111891 0.919438 0.123661
Si Si2 0.892645 0.583122 0.796325
Si Si3 0.146588 0.067540 0.458641
Si Si4 0.888380 0.920145 0.958757
Si Si5 0.148759 0.067563 0.294181
Si Si6 0.146590 0.568041 0.376034
O O1 0.143889 0.750000 0.120185
O O2 0.000000 0.918509 0.123735
O O3 0.142981 0.986640 0.166472
O O4 0.139906 0.007418 0.083563
O O5 0.850331 0.750000 0.796697
O O6 0.887339 0.526559 0.750296
O O7 0.000000 0.597930 0.804545
O O8 0.147674 0.250000 0.458993
O O9 0.105755 0.000000 0.500000
O O10 0.250000 0.000000 0.458467
O O11 0.105731 0.002379 0.417026
O O12 0.857063 0.750000 0.959923
O O13 0.000000 0.922165 0.958758
O O14 0.859604 0.000000 0.000000
O O15 0.146651 0.250000 0.298521
O O16 0.250000 0.000000 0.293155
O O17 0.105191 0.992062 0.333943
O O18 0.148295 0.750000 0.377573
O O19 0.250000 0.500000 0.375351
#
# Coordination Sequence:
#
# PCOD9500192 Si02
#       6
#    16  16  16  16  16  16
#     4   9  16  25  38  57  81 109 141 177 218 262
#     4   9  18  32  48  65  87 117 151 185 222 264
#     4  10  16  23  34  51  76 106 140 174 212 257
#     4   9  15  22  33  50  75 107 141 175 212 257
#     4  10  19  31  47  66  89 117 149 185 224 265
#     4  10  17  26  39  56  80 110 143 177 216 260
#
# _framework density 22.328599000000001
#
# number of rings (size 3 to 8) (size 9 to 14) (size 15 to 20)
#    0.000    2.500    0.000    7.000    0.000    5.333 
#    0.000    0.000    0.000    0.000    0.000    0.000 
#    0.000    1.333    0.000    8.833    0.000   17.667 
#
# Total GULP energy -267790.360648 kJ/mol
# GULP energy per Si atom -5578.965847 kJ/mol
# Density = 2.227778 g / cm^3
# Si number density = 22.328599 Si / 1000 Ang^3
#
#
#
# Elastic Constant Matrix: (Units=GPa)
#
#
# Indices 1 2 3 4 5 6 
#
# 1 57.2751 11.2829 6.6761 0.0000 0.0000 0.0000
# 2 11.2829 202.3201 147.5381 0.0000 0.0000 0.0000
# 3 6.6761 147.5381 273.5148 0.0000 0.0000 0.0000
# 4 0.0000 0.0000 0.0000 46.7756 0.0000 0.0000
# 5 0.0000 0.0000 0.0000 0.0000 6.5458 0.0000
# 6 0.0000 0.0000 0.0000 0.0000 0.0000 -6.3864
#
#
#
# Elastic Compliance Matrix: (Units=1/GPa)
#
#
# Indices 1 2 3 4 5 6 
#
# 1 0.017658 -0.001105 0.000165 0.000000 0.000000 0.000000
# 2 -0.001105 0.008217 -0.004405 0.000000 0.000000 0.000000
# 3 0.000165 -0.004405 0.006028 0.000000 0.000000 0.000000
# 4 0.000000 0.000000 0.000000 0.021379 0.000000 0.000000
# 5 0.000000 0.000000 0.000000 0.000000 0.152771 0.000000
# 6 0.000000 0.000000 0.000000 0.000000 0.000000 -0.156582
#
#
# Mechanical properties :
#
#
# Convention : Reuss Voigt Hill
#
# Bulk Modulus (GPa) = 47.14191 96.01158 71.57675
# Shear Modulus (GPa) = 74.36974 33.89451 54.13213
#
# Velocity S-wave (km/s) = 5.77748 3.90036 4.92910
# Velocity P-wave (km/s) = 8.10335 7.96093 8.03246
#
# Compressibility (1/GPa) = 0.02121255
#
# Stress axis : x y z
#
# Youngs Moduli (GPa) = 56.63140 121.70253 165.88293
#
# Poissons Ratio (x) = 0.13450 -0.02739
# Poissons Ratio (y) = 0.06259 0.73076
# Poissons Ratio (z) = -0.00935 0.53613
#
# Static dielectric constant tensor:
#      x y z
#    x 1.994200 0.000000 0.000000 
#    y 0.000000 1.769100 0.000000 
#    z 0.000000 0.000000 1.935810 
# 
# From -- ./inp_files/44794.got.cif
#   From: 2010.05.17/outbox.cif.g08.bks.cpg/sg67_23_cif.got.tgz:44794.got - 2010.06.03 18:28:57.
