data_PCOD9500426
_publ_section_title
;
Structure prediction by ZEFSAII (Michael W. Deem and Ramdas Pophale) SiO2 
 PCOD9500426
Probable space group: C M M A
;
_chemical_formula_sum "Si O2"
_cell_formula_units_Z 96
_cell_length_a 17.784858
_cell_length_b 26.209518
_cell_length_c 12.573051
_cell_angle_alpha 90.000000
_cell_angle_beta 90.000000
_cell_angle_gamma 90.000000
_cell_volume 5860.708398
_symmetry_space_group_name_H-M "C M M A"
_symmetry_group_IT_number 67
_symmetry_cell_setting 'orthorhombic'
loop_
_space_group_symop_operation_xyz
x,y,z
-x,1/2-y,z
x,-y,-z
-x,1/2+y,-z
-x,-y,-z
x,1/2+y,-z
-x,y,z
x,1/2-y,z
1/2+x,1/2+y,z
1/2-x,-y,z
1/2+x,1/2-y,-z
1/2-x,y,-z
1/2-x,1/2-y,-z
1/2+x,y,-z
1/2-x,1/2+y,z
1/2+x,-y,z
loop_
_atom_site_type_symbol
_atom_site_label
_atom_site_fract_x
_atom_site_fract_y
_atom_site_fract_z
Si Si1 0.198059 0.847261 0.248058
Si Si2 0.734152 0.941283 0.125569
Si Si3 0.866292 0.309649 0.299671
Si Si4 0.411909 0.191987 0.068677
Si Si5 0.083474 0.115432 0.125441
Si Si6 0.162501 0.808292 0.464829
O O1 0.217935 0.902221 0.197844
O O2 0.278795 0.819660 0.266485
O O3 0.144952 0.818620 0.164445
O O4 0.158032 0.844767 0.363215
O O5 0.647187 0.926510 0.140722
O O6 0.750000 0.000000 0.150913
O O7 0.750000 0.933132 0.000000
O O8 0.882744 0.250000 0.284463
O O9 0.913226 0.346365 0.224937
O O10 0.877534 0.321850 0.424594
O O11 0.500000 0.187161 0.100491
O O12 0.401223 0.250000 0.029076
O O13 0.397826 0.151004 0.976112
O O14 0.000000 0.094318 0.111532
O O15 0.142030 0.750000 0.433767
O O16 0.250000 0.807008 0.500000
#
# Coordination Sequence:
#
# PCOD9500426 Si02
#       6
#    16  16  16  16  16  16
#     4  10  17  30  50  69  96 132 167 209 250 296
#     4  10  20  36  53  74  98 124 170 223 254 296
#     4   9  17  28  48  74 100 134 169 199 234 289
#     4  10  19  29  43  69 103 132 156 190 242 303
#     4  10  20  34  50  73 104 133 160 200 254 301
#     4   8  14  26  45  71  99 128 165 203 238 283
#
# _framework density 16.380272000000001
#
# number of rings (size 3 to 8) (size 9 to 14) (size 15 to 20)
#    0.000    2.500    1.667    3.000    0.000    1.000 
#    0.000    5.833    0.000   13.500    0.000    1.167 
#    0.000    0.000    0.000    0.000    0.000    0.000 
#
# Total GULP energy -267396.760914 kJ/mol
# GULP energy per Si atom -5570.765852 kJ/mol
# Density = 1.634299 g / cm^3
# Si number density = 16.380272 Si / 1000 Ang^3
#
#
#
# Elastic Constant Matrix: (Units=GPa)
#
#
# Indices 1 2 3 4 5 6 
#
# 1 54.6736 37.2498 22.1538 0.0000 0.0000 0.0000
# 2 37.2498 99.5756 43.6501 0.0000 0.0000 0.0000
# 3 22.1538 43.6501 96.6342 0.0000 0.0000 0.0000
# 4 0.0000 0.0000 0.0000 20.0686 0.0000 0.0000
# 5 0.0000 0.0000 0.0000 0.0000 13.4013 0.0000
# 6 0.0000 0.0000 0.0000 0.0000 0.0000 7.0471
#
#
#
# Elastic Compliance Matrix: (Units=1/GPa)
#
#
# Indices 1 2 3 4 5 6 
#
# 1 0.024813 -0.008465 -0.001865 0.000000 0.000000 0.000000
# 2 -0.008465 0.015410 -0.005020 0.000000 0.000000 0.000000
# 3 -0.001865 -0.005020 0.013043 0.000000 0.000000 0.000000
# 4 0.000000 0.000000 0.000000 0.049829 0.000000 0.000000
# 5 0.000000 0.000000 0.000000 0.000000 0.074620 0.000000
# 6 0.000000 0.000000 0.000000 0.000000 0.000000 0.141903
#
#
# Mechanical properties :
#
#
# Convention : Reuss Voigt Hill
#
# Bulk Modulus (GPa) = 44.31283 50.77677 47.54480
# Shear Modulus (GPa) = 13.97272 17.95870 15.96571
#
# Velocity S-wave (km/s) = 2.92382 3.31473 3.12539
# Velocity P-wave (km/s) = 6.20561 6.76135 6.48943
#
# Compressibility (1/GPa) = 0.02256683
#
# Stress axis : x y z
#
# Youngs Moduli (GPa) = 40.30113 64.89395 76.66686
#
# Poissons Ratio (x) = 0.54931 0.14298
# Poissons Ratio (y) = 0.34114 0.38487
# Poissons Ratio (z) = 0.07516 0.32577
#
# Static dielectric constant tensor:
#      x y z
#    x 1.573220 0.000000 0.000000 
#    y 0.000000 1.519470 0.000000 
#    z 0.000000 0.000000 1.567800 
# 
# From -- ./inp_files/19814.got.cif
#   From: 2010.05.17/outbox.cif.g08.bks.cpg/sg67_10_cif.got.tgz:19814.got - 2010.06.03 18:28:57.
