data_PCOD9500089
_publ_section_title
;
Structure prediction by ZEFSAII (Michael W. Deem and Ramdas Pophale) SiO2 
 PCOD9500089
Probable space group: C C C M
;
_chemical_formula_sum "Si O2"
_cell_formula_units_Z 40
_cell_length_a 27.000000
_cell_length_b 18.000000
_cell_length_c 9.000000
_cell_angle_alpha 90.000000
_cell_angle_beta 90.000000
_cell_angle_gamma 90.000000
_cell_volume 4374.000000
_symmetry_space_group_name_H-M "C C C M"
_symmetry_group_IT_number 66
_symmetry_cell_setting 'orthorhombic'
loop_
_space_group_symop_operation_xyz
x,y,z
-x,-y,z
x,-y,1/2-z
-x,y,1/2-z
-x,-y,-z
x,y,-z
-x,y,1/2+z
x,-y,1/2+z
1/2+x,1/2+y,z
1/2-x,1/2-y,z
1/2+x,1/2-y,1/2-z
1/2-x,1/2+y,1/2-z
1/2-x,1/2-y,-z
1/2+x,1/2+y,-z
1/2-x,1/2+y,1/2+z
1/2+x,1/2-y,1/2+z
loop_
_atom_site_type_symbol
_atom_site_label
_atom_site_fract_x
_atom_site_fract_y
_atom_site_fract_z
Si Si1 0.753349 0.159679 0.327701
Si Si2 0.450560 0.580874 0.823343
Si Si3 0.148410 0.825062 0.824322
Si Si4 0.050472 0.417914 0.679137
Si Si5 0.142961 0.335537 0.821465
O O1 0.762540 0.140427 0.500000
O O2 0.750000 0.250000 0.319869
O O3 0.800128 0.137541 0.228531
O O4 0.698156 0.133452 0.285237
O O5 0.445224 0.500000 0.750000
O O6 0.500000 0.615412 0.750000
O O7 0.400279 0.626030 0.798249
O O8 0.458120 0.574112 0.000000
O O9 0.142850 0.749923 0.730068
O O10 0.151627 0.807972 0.000000
O O11 0.053941 0.500000 0.750000
O O12 0.047179 0.420674 0.500000
O O13 0.098958 0.375199 0.734346
O O14 0.000000 0.384658 0.750000
O O15 0.136647 0.340839 0.000000
#
# Coordination Sequence:
#
# PCOD9500089 Si02
#       5
#    16  16  16  16  16
#     4   8  16  31  51  75 104 138 172 210 260 311
#     4  10  21  36  54  75 101 135 173 212 259 311
#     4  10  20  33  52  80 108 136 174 218 263 312
#     4  11  22  38  58  79 106 140 176 215 262 313
#     4  10  20  35  55  80 108 139 176 216 259 308
#
# _framework density 9.1449470000000002
#
# number of rings (size 3 to 8) (size 9 to 14) (size 15 to 20)
#    0.000    2.200    0.000    6.000    0.000    8.400 
#    0.000    3.000    0.000    2.400    0.000    0.000 
#    0.000    0.000    0.000    0.000    0.000    0.000 
#
# Total GULP energy -223083.232245 kJ/mol
# GULP energy per Si atom -5577.080806 kJ/mol
# Density = 0.912413 g / cm^3
# Si number density = 9.144947 Si / 1000 Ang^3
#
#
#
# Elastic Constant Matrix: (Units=GPa)
#
#
# Indices 1 2 3 4 5 6 
#
# 1 187.7560 41.5157 90.7024 0.0000 0.0000 0.0000
# 2 41.5157 22.9652 26.1912 0.0000 0.0000 0.0000
# 3 90.7024 26.1912 129.0913 0.0000 0.0000 0.0000
# 4 0.0000 0.0000 0.0000 6.8847 0.0000 0.0000
# 5 0.0000 0.0000 0.0000 0.0000 40.9149 0.0000
# 6 0.0000 0.0000 0.0000 0.0000 0.0000 81.3429
#
#
#
# Elastic Compliance Matrix: (Units=1/GPa)
#
#
# Indices 1 2 3 4 5 6 
#
# 1 0.010665 -0.013966 -0.004660 0.000000 0.000000 0.000000
# 2 -0.013966 0.074940 -0.005392 0.000000 0.000000 0.000000
# 3 -0.004660 -0.005392 0.012115 0.000000 0.000000 0.000000
# 4 0.000000 0.000000 0.000000 0.145249 0.000000 0.000000
# 5 0.000000 0.000000 0.000000 0.000000 0.024441 0.000000
# 6 0.000000 0.000000 0.000000 0.000000 0.000000 0.012294
#
#
# Mechanical properties :
#
#
# Convention : Reuss Voigt Hill
#
# Bulk Modulus (GPa) = 20.12696 72.95900 46.54298
# Shear Modulus (GPa) = 14.52216 37.92205 26.22210
#
# Velocity S-wave (km/s) = 2.82086 4.55839 3.79052
# Velocity P-wave (km/s) = 4.65166 8.22691 6.68282
#
# Compressibility (1/GPa) = 0.04968460
#
# Stress axis : x y z
#
# Youngs Moduli (GPa) = 93.76131 13.34399 82.54342
#
# Poissons Ratio (x) = 0.18636 0.38467
# Poissons Ratio (y) = 1.30943 0.44507
# Poissons Ratio (z) = 0.43695 0.07195
#
# Static dielectric constant tensor:
#      x y z
#    x 1.676360 0.000000 0.000000 
#    y 0.000000 1.628760 0.000000 
#    z 0.000000 0.000000 1.608210 
# 
# From -- ./inp_files/10068.got.cif
#   From: 2010.05.17/outbox.ucp.g08.bks.cvg/sg66_6_cif.got.tgz:10068.got - 2010.06.11 16:44:13.
