data_PCOD9500534
_publ_section_title
;
Structure prediction by ZEFSAII (Michael W. Deem and Ramdas Pophale) SiO2 
 PCOD9500534
Probable space group: C M M A
;
_chemical_formula_sum "Si O2"
_cell_formula_units_Z 96
_cell_length_a 28.275575
_cell_length_b 8.572893
_cell_length_c 24.526492
_cell_angle_alpha 90.000000
_cell_angle_beta 90.000000
_cell_angle_gamma 90.000000
_cell_volume 5945.306988
_symmetry_space_group_name_H-M "C M M A"
_symmetry_group_IT_number 67
_symmetry_cell_setting 'orthorhombic'
loop_
_space_group_symop_operation_xyz
x,y,z
-x,1/2-y,z
x,-y,-z
-x,1/2+y,-z
-x,-y,-z
x,1/2+y,-z
-x,y,z
x,1/2-y,z
1/2+x,1/2+y,z
1/2-x,-y,z
1/2+x,1/2-y,-z
1/2-x,y,-z
1/2-x,1/2-y,-z
1/2+x,y,-z
1/2-x,1/2+y,z
1/2+x,-y,z
loop_
_atom_site_type_symbol
_atom_site_label
_atom_site_fract_x
_atom_site_fract_y
_atom_site_fract_z
Si Si1 0.944961 0.563066 0.059881
Si Si2 0.697779 0.937198 0.778060
Si Si3 0.303299 0.562085 0.558700
Si Si4 0.145442 0.439389 0.667685
Si Si5 0.446398 0.938974 0.729692
Si Si6 0.606570 0.564212 0.164897
O O1 0.942098 0.750000 0.060191
O O2 0.912348 0.494852 0.107122
O O3 0.000000 0.518842 0.070334
O O4 0.932528 0.500000 0.000000
O O5 0.697582 0.750000 0.779862
O O6 0.679882 0.986209 0.717487
O O7 0.750000 0.000000 0.788402
O O8 0.658372 0.000307 0.819575
O O9 0.319756 0.500000 0.500000
O O10 0.302036 0.750000 0.557382
O O11 0.250000 0.500000 0.566889
O O12 0.335320 0.508424 0.609386
O O13 0.145554 0.250000 0.666605
O O14 0.092751 0.488773 0.685278
O O15 0.500000 0.988701 0.718502
O O16 0.445514 0.750000 0.732060
O O17 0.428175 0.000636 0.787755
O O18 0.606971 0.750000 0.166369
#
# Coordination Sequence:
#
# PCOD9500534 Si02
#       6
#    16  16  16  16  16  16
#     4  10  20  34  52  74 100 130 163 200 241 283
#     4  10  19  33  51  72  97 125 159 197 239 284
#     4  10  18  29  44  64  90 118 151 189 232 281
#     4   8  16  29  46  68  93 121 154 192 233 281
#     4   9  17  31  50  70  93 123 158 196 238 282
#     4  11  21  32  48  72 101 131 161 194 235 282
#
# _framework density 16.147189999999998
#
# number of rings (size 3 to 8) (size 9 to 14) (size 15 to 20)
#    0.000    2.333    0.000    5.500    0.000    3.333 
#    0.000    7.500    0.000    1.000    0.000    3.500 
#    0.000    0.000    0.000    0.000    0.000    0.667 
#
# Total GULP energy -267761.032251 kJ/mol
# GULP energy per Si atom -5578.354839 kJ/mol
# Density = 1.611044 g / cm^3
# Si number density = 16.147190 Si / 1000 Ang^3
#
#
#
# Elastic Constant Matrix: (Units=GPa)
#
#
# Indices 1 2 3 4 5 6 
#
# 1 136.4471 35.4419 94.6737 0.0000 0.0000 0.0000
# 2 35.4419 49.2232 35.5640 0.0000 0.0000 0.0000
# 3 94.6737 35.5640 151.4215 0.0000 0.0000 0.0000
# 4 0.0000 0.0000 0.0000 18.1148 0.0000 0.0000
# 5 0.0000 0.0000 0.0000 0.0000 20.7074 0.0000
# 6 0.0000 0.0000 0.0000 0.0000 0.0000 19.7931
#
#
#
# Elastic Compliance Matrix: (Units=1/GPa)
#
#
# Indices 1 2 3 4 5 6 
#
# 1 0.013701 -0.004427 -0.007527 0.000000 0.000000 0.000000
# 2 -0.004427 0.025898 -0.003315 0.000000 0.000000 0.000000
# 3 -0.007527 -0.003315 0.012088 0.000000 0.000000 0.000000
# 4 0.000000 0.000000 0.000000 0.055203 0.000000 0.000000
# 5 0.000000 0.000000 0.000000 0.000000 0.048292 0.000000
# 6 0.000000 0.000000 0.000000 0.000000 0.000000 0.050523
#
#
# Mechanical properties :
#
#
# Convention : Reuss Voigt Hill
#
# Bulk Modulus (GPa) = 47.27923 74.27234 60.77579
# Shear Modulus (GPa) = 20.55138 23.15055 21.85096
#
# Velocity S-wave (km/s) = 3.57144 3.79056 3.68263
# Velocity P-wave (km/s) = 6.80813 8.07804 7.47012
#
# Compressibility (1/GPa) = 0.02115093
#
# Stress axis : x y z
#
# Youngs Moduli (GPa) = 72.98676 38.61290 82.72345
#
# Poissons Ratio (x) = 0.17094 0.62263
# Poissons Ratio (y) = 0.32312 0.27420
# Poissons Ratio (z) = 0.54934 0.12799
#
# Static dielectric constant tensor:
#      x y z
#    x 1.532850 0.000000 0.000000 
#    y 0.000000 1.547990 0.000000 
#    z 0.000000 0.000000 1.526770 
# 
# From -- ./inp_files/42700.got.cif
#   From: 2010.05.17/outbox.cif.g08.bks.cpg/sg67_22_cif.got.tgz:42700.got - 2010.06.03 18:28:57.
