data_PCOD9500610
_publ_section_title
;
Structure prediction by ZEFSAII (Michael W. Deem and Ramdas Pophale) SiO2 
 PCOD9500610
Probable space group: C M M A
;
_chemical_formula_sum "Si O2"
_cell_formula_units_Z 112
_cell_length_a 13.871532
_cell_length_b 24.841661
_cell_length_c 12.910038
_cell_angle_alpha 90.000000
_cell_angle_beta 90.000000
_cell_angle_gamma 90.000000
_cell_volume 4448.694465
_symmetry_space_group_name_H-M "C M M A"
_symmetry_group_IT_number 67
_symmetry_cell_setting 'orthorhombic'
loop_
_space_group_symop_operation_xyz
x,y,z
-x,1/2-y,z
x,-y,-z
-x,1/2+y,-z
-x,-y,-z
x,1/2+y,-z
-x,y,z
x,1/2-y,z
1/2+x,1/2+y,z
1/2-x,-y,z
1/2+x,1/2-y,-z
1/2-x,y,-z
1/2-x,1/2-y,-z
1/2+x,y,-z
1/2-x,1/2+y,z
1/2+x,-y,z
loop_
_atom_site_type_symbol
_atom_site_label
_atom_site_fract_x
_atom_site_fract_y
_atom_site_fract_z
Si Si1 0.352542 0.950796 0.942550
Si Si2 0.617439 0.890377 0.635143
Si Si3 0.116543 0.498478 0.720117
Si Si4 0.382420 0.877593 0.247680
Si Si5 0.393356 0.661185 0.025310
Si Si6 0.382777 0.311828 0.550262
Si Si7 0.882099 0.807934 0.189649
O O1 0.350175 0.969406 0.825308
O O2 0.403169 0.895852 0.966974
O O3 0.250000 0.944960 0.000000
O O4 0.401429 0.000000 0.000000
O O5 0.500000 0.890510 0.635666
O O6 0.645571 0.953606 0.634564
O O7 0.647520 0.853166 0.539515
O O8 0.647747 0.857774 0.738698
O O9 0.147763 0.560957 0.725133
O O10 0.000000 0.500288 0.719332
O O11 0.500000 0.879752 0.240655
O O12 0.356236 0.837422 0.339591
O O13 0.349602 0.854055 0.136666
O O14 0.500000 0.684526 0.046014
O O15 0.346397 0.692211 0.929359
O O16 0.500000 0.311123 0.546941
O O17 0.351928 0.250000 0.537919
O O18 0.856816 0.750000 0.238191
O O19 0.000000 0.809923 0.184628
#
# Coordination Sequence:
#
# PCOD9500610 Si02
#       7
#    16  16  16  16  16  16  16
#     4  11  21  31  47  73 103 134 166 206 252 310
#     4   9  16  26  44  68  97 135 169 206 256 304
#     4  10  18  30  49  73 102 134 172 211 254 308
#     4   9  18  28  43  67  96 135 171 203 248 304
#     4  10  18  30  48  70 100 135 169 203 250 310
#     4   9  17  29  43  65 103 140 168 206 259 307
#     4   9  16  25  41  68  96 125 169 217 253 291
#
# _framework density 25.175924999999999
#
# number of rings (size 3 to 8) (size 9 to 14) (size 15 to 20)
#    0.000    2.429    2.857    0.857    0.000    3.429 
#    0.000    5.714    0.000    0.429    0.000    1.000 
#    0.000    1.714    0.000    0.000    0.000    0.000 
#
# Total GULP energy -312766.544635 kJ/mol
# GULP energy per Si atom -5585.116868 kJ/mol
# Density = 2.511862 g / cm^3
# Si number density = 25.175925 Si / 1000 Ang^3
#
#
#
# Elastic Constant Matrix: (Units=GPa)
#
#
# Indices 1 2 3 4 5 6 
#
# 1 102.9109 9.5107 3.4105 0.0000 0.0000 0.0000
# 2 9.5107 137.9615 33.8637 0.0000 0.0000 0.0000
# 3 3.4105 33.8637 107.0980 0.0000 0.0000 0.0000
# 4 0.0000 0.0000 0.0000 38.2936 0.0000 0.0000
# 5 0.0000 0.0000 0.0000 0.0000 21.5263 0.0000
# 6 0.0000 0.0000 0.0000 0.0000 0.0000 -14.2183
#
#
#
# Elastic Compliance Matrix: (Units=1/GPa)
#
#
# Indices 1 2 3 4 5 6 
#
# 1 0.009781 -0.000648 -0.000107 0.000000 0.000000 0.000000
# 2 -0.000648 0.007901 -0.002478 0.000000 0.000000 0.000000
# 3 -0.000107 -0.002478 0.010124 0.000000 0.000000 0.000000
# 4 0.000000 0.000000 0.000000 0.026114 0.000000 0.000000
# 5 0.000000 0.000000 0.000000 0.000000 0.046455 0.000000
# 6 0.000000 0.000000 0.000000 0.000000 0.000000 -0.070332
#
#
# Mechanical properties :
#
#
# Convention : Reuss Voigt Hill
#
# Bulk Modulus (GPa) = 46.85763 49.06003 47.95883
# Shear Modulus (GPa) = 114.62264 29.19933 71.91098
#
# Velocity S-wave (km/s) = 6.75481 3.40930 5.35027
# Velocity P-wave (km/s) = 8.91567 5.91835 7.56690
#
# Compressibility (1/GPa) = 0.02134124
#
# Stress axis : x y z
#
# Youngs Moduli (GPa) = 102.24354 126.56232 98.77453
#
# Poissons Ratio (x) = 0.08202 0.01052
# Poissons Ratio (y) = 0.06626 0.24473
# Poissons Ratio (z) = 0.01089 0.31358
#
# Static dielectric constant tensor:
#      x y z
#    x 2.030290 0.000000 0.000000 
#    y 0.000000 2.018480 0.000000 
#    z 0.000000 0.000000 1.987340 
# 
# From -- ./inp_files/21221.got.cif
#   From: 2010.05.17/outbox.cif.g08.bks.cpg/sg67_11_cif.got.tgz:21221.got - 2010.06.03 18:28:57.
