data_PCOD9500044
_publ_section_title
;
Structure prediction by ZEFSAII (Michael W. Deem and Ramdas Pophale) SiO2 
 PCOD9500044
Probable space group: C C C M
;
_chemical_formula_sum "Si O2"
_cell_formula_units_Z 80
_cell_length_a 6.472021
_cell_length_b 28.445190
_cell_length_c 16.206129
_cell_angle_alpha 90.000000
_cell_angle_beta 90.000000
_cell_angle_gamma 90.000000
_cell_volume 2983.513782
_symmetry_space_group_name_H-M "C C C M"
_symmetry_group_IT_number 66
_symmetry_cell_setting 'orthorhombic'
loop_
_space_group_symop_operation_xyz
x,y,z
-x,-y,z
x,-y,1/2-z
-x,y,1/2-z
-x,-y,-z
x,y,-z
-x,y,1/2+z
x,-y,1/2+z
1/2+x,1/2+y,z
1/2-x,1/2-y,z
1/2+x,1/2-y,1/2-z
1/2-x,1/2+y,1/2-z
1/2-x,1/2-y,-z
1/2+x,1/2+y,-z
1/2-x,1/2+y,1/2+z
1/2+x,1/2-y,1/2+z
loop_
_atom_site_type_symbol
_atom_site_label
_atom_site_fract_x
_atom_site_fract_y
_atom_site_fract_z
Si Si1 0.734651 0.010172 0.347420
Si Si2 0.082612 0.609699 0.654040
Si Si3 0.941217 0.812303 0.402473
Si Si4 0.523262 0.212346 0.651801
Si Si5 0.134604 0.912325 0.094002
O O1 0.743961 0.066898 0.358770
O O2 0.500000 0.000000 0.378139
O O3 0.735915 0.000000 0.250000
O O4 0.871434 0.966325 0.378033
O O5 0.142966 0.663381 0.632760
O O6 0.881421 0.598213 0.599861
O O7 0.000000 0.607233 0.750000
O O8 0.981048 0.814760 0.500000
O O9 0.700512 0.798452 0.388409
O O10 0.063331 0.766961 0.369531
O O11 0.950941 0.864649 0.363471
O O12 0.500000 0.212393 0.750000
O O13 0.062809 0.911998 0.000000
#
# Coordination Sequence:
#
# PCOD9500044 Si02
#       5
#    16  16  16  16  16
#     4   9  13  21  33  48  76 110 138 162 211 258
#     4   9  14  22  32  50  77 112 140 161 207 260
#     4   9  17  30  42  59  89 120 152 192 230 263
#     4   9  16  24  40  60  83 117 154 182 219 265
#     4   9  16  23  35  52  74 109 146 175 204 247
#
# _framework density 26.814022999999999
#
# number of rings (size 3 to 8) (size 9 to 14) (size 15 to 20)
#    0.000    3.000    4.000    1.200    0.000    4.400 
#    0.000    0.000    0.000    0.000    0.000   11.200 
#    0.000    7.200    0.000    4.400    3.200    0.000 
#
# Total GULP energy -223169.647607 kJ/mol
# GULP energy per Si atom -5579.241190 kJ/mol
# Density = 2.675299 g / cm^3
# Si number density = 26.814023 Si / 1000 Ang^3
#
#
#
# Elastic Constant Matrix: (Units=GPa)
#
#
# Indices 1 2 3 4 5 6 
#
# 1 75.9464 102.8120 -14.8843 0.0000 0.0000 0.0000
# 2 102.8120 444.8059 25.5133 0.0000 0.0000 0.0000
# 3 -14.8843 25.5133 61.9742 0.0000 0.0000 0.0000
# 4 0.0000 0.0000 0.0000 25.2873 0.0000 0.0000
# 5 0.0000 0.0000 0.0000 0.0000 285.8632 0.0000
# 6 0.0000 0.0000 0.0000 0.0000 0.0000 85.4759
#
#
#
# Elastic Compliance Matrix: (Units=1/GPa)
#
#
# Indices 1 2 3 4 5 6 
#
# 1 0.022200 -0.005569 0.007624 0.000000 0.000000 0.000000
# 2 -0.005569 0.003699 -0.002860 0.000000 0.000000 0.000000
# 3 0.007624 -0.002860 0.019144 0.000000 0.000000 0.000000
# 4 0.000000 0.000000 0.000000 0.039546 0.000000 0.000000
# 5 0.000000 0.000000 0.000000 0.000000 0.003498 0.000000
# 6 0.000000 0.000000 0.000000 0.000000 0.000000 0.011699
#
#
# Mechanical properties :
#
#
# Convention : Reuss Voigt Hill
#
# Bulk Modulus (GPa) = 23.02339 89.95647 56.48993
# Shear Modulus (GPa) = 43.15036 110.61098 76.88067
#
# Velocity S-wave (km/s) = 4.01589 6.42968 5.36042
# Velocity P-wave (km/s) = 5.48709 9.42030 7.70877
#
# Compressibility (1/GPa) = 0.04343408
#
# Stress axis : x y z
#
# Youngs Moduli (GPa) = 45.04549 270.31839 52.23466
#
# Poissons Ratio (x) = 1.50528 -0.39825
# Poissons Ratio (y) = 0.25084 0.14941
# Poissons Ratio (z) = -0.34343 0.77320
#
# Static dielectric constant tensor:
#      x y z
#    x 2.226350 0.000000 0.000000 
#    y 0.000000 2.204530 0.000000 
#    z 0.000000 0.000000 1.970000 
# 
# From -- ./inp_files/26835.got.cif
#   From: 2010.05.17/outbox.cif.g08.bks.cpg/sg66_14_cif.got.tgz:26835.got - 2010.06.03 17:51:23.
