data_PCOD9500210
_publ_section_title
;
Structure prediction by ZEFSAII (Michael W. Deem and Ramdas Pophale) SiO2 
 PCOD9500210
Probable space group: C M M A
;
_chemical_formula_sum "Si O2"
_cell_formula_units_Z 88
_cell_length_a 14.385022
_cell_length_b 27.022674
_cell_length_c 10.401842
_cell_angle_alpha 90.000000
_cell_angle_beta 90.000000
_cell_angle_gamma 90.000000
_cell_volume 4043.422329
_symmetry_space_group_name_H-M "C M M A"
_symmetry_group_IT_number 67
_symmetry_cell_setting 'orthorhombic'
loop_
_space_group_symop_operation_xyz
x,y,z
-x,1/2-y,z
x,-y,-z
-x,1/2+y,-z
-x,-y,-z
x,1/2+y,-z
-x,y,z
x,1/2-y,z
1/2+x,1/2+y,z
1/2-x,-y,z
1/2+x,1/2-y,-z
1/2-x,y,-z
1/2-x,1/2-y,-z
1/2+x,y,-z
1/2-x,1/2+y,z
1/2+x,-y,z
loop_
_atom_site_type_symbol
_atom_site_label
_atom_site_fract_x
_atom_site_fract_y
_atom_site_fract_z
Si Si1 0.824683 0.641769 0.836033
Si Si2 0.603198 0.355227 0.548010
Si Si3 0.500000 0.028399 0.193504
Si Si4 0.142077 0.750000 0.535808
Si Si5 0.750000 0.573260 0.500000
Si Si6 0.711258 0.450050 0.226587
Si Si7 0.612710 0.750000 0.155112
Si Si8 0.000000 0.077211 0.087206
O O1 0.843794 0.648421 0.683539
O O2 0.738949 0.602441 0.841081
O O3 0.835820 0.698639 0.886598
O O4 0.910449 0.611013 0.892418
O O5 0.500000 0.372502 0.573179
O O6 0.602890 0.301370 0.485199
O O7 0.662206 0.392862 0.467264
O O8 0.399323 0.044305 0.247321
O O9 0.500000 0.968827 0.185231
O O10 0.500000 0.052224 0.051590
O O11 0.250000 0.750000 0.500000
O O12 0.118394 0.750000 0.688201
O O13 0.767021 0.548519 0.636687
O O14 0.750000 0.500000 0.157076
O O15 0.500000 0.750000 0.124827
#
# Coordination Sequence:
#
# PCOD9500210 Si02
#       8
#    16  16   8   8   8  16   8   8
#     4  10  19  36  63  90 123 148 210 255 309 362
#     4  10  18  31  51  78 109 157 196 253 291 361
#     4  11  26  40  64  89 125 159 204 248 321 362
#     4  10  16  26  42  75 118 143 196 246 303 350
#     4  10  23  35  54  82 118 159 204 234 305 360
#     4  11  23  42  59  89 126 165 204 258 300 375
#     4  10  18  32  60  90 113 156 199 264 307 362
#     4  11  20  41  65  96 114 157 202 266 315 363
#
# _framework density 21.763743999999999
#
# number of rings (size 3 to 8) (size 9 to 14) (size 15 to 20)
#    0.000    1.636    4.545    2.182    1.273    0.727 
#    0.000    0.909    0.000    3.818    0.000    0.000 
#    0.000    0.000    0.000    0.000    0.000    0.000 
#
# Total GULP energy -245007.829632 kJ/mol
# GULP energy per Si atom -5568.359764 kJ/mol
# Density = 2.171421 g / cm^3
# Si number density = 21.763744 Si / 1000 Ang^3
#
#
#
# Elastic Constant Matrix: (Units=GPa)
#
#
# Indices 1 2 3 4 5 6 
#
# 1 129.2437 53.5935 -0.0632 0.0000 0.0000 0.0000
# 2 53.5935 202.4577 11.5861 0.0000 0.0000 0.0000
# 3 -0.0632 11.5861 33.4580 0.0000 0.0000 0.0000
# 4 0.0000 0.0000 0.0000 -22.5323 0.0000 0.0000
# 5 0.0000 0.0000 0.0000 0.0000 15.4209 0.0000
# 6 0.0000 0.0000 0.0000 0.0000 0.0000 49.5118
#
#
#
# Elastic Compliance Matrix: (Units=1/GPa)
#
#
# Indices 1 2 3 4 5 6 
#
# 1 0.008714 -0.002354 0.000832 0.000000 0.000000 0.000000
# 2 -0.002354 0.005675 -0.001970 0.000000 0.000000 0.000000
# 3 0.000832 -0.001970 0.030572 0.000000 0.000000 0.000000
# 4 0.000000 0.000000 0.000000 -0.044381 0.000000 0.000000
# 5 0.000000 0.000000 0.000000 0.000000 0.064847 0.000000
# 6 0.000000 0.000000 0.000000 0.000000 0.000000 0.020197
#
#
# Mechanical properties :
#
#
# Convention : Reuss Voigt Hill
#
# Bulk Modulus (GPa) = 26.33205 55.04355 40.68780
# Shear Modulus (GPa) = 47.49779 28.48295 37.99037
#
# Velocity S-wave (km/s) = 4.67671 3.62157 4.18255
# Velocity P-wave (km/s) = 6.42554 6.54477 6.48543
#
# Compressibility (1/GPa) = 0.03797653
#
# Stress axis : x y z
#
# Youngs Moduli (GPa) = 114.75792 176.20376 32.70980
#
# Poissons Ratio (x) = 0.41484 -0.02721
# Poissons Ratio (y) = 0.27018 0.06443
# Poissons Ratio (z) = -0.09545 0.34707
#
# Static dielectric constant tensor:
#      x y z
#    x 1.791110 0.000000 0.000000 
#    y 0.000000 1.902450 0.000000 
#    z 0.000000 0.000000 1.862330 
# 
# From -- ./inp_files/18397.got.cif
#   From: 2010.05.17/outbox.cif.g08.bks.cpg/sg67_10_cif.got.tgz:18397.got - 2010.06.03 18:28:57.
