data_PCOD9500053
_publ_section_title
;
Structure prediction by ZEFSAII (Michael W. Deem and Ramdas Pophale) SiO2 
 PCOD9500053
Probable space group: C C C M
;
_chemical_formula_sum "Si O2"
_cell_formula_units_Z 64
_cell_length_a 17.849099
_cell_length_b 8.672945
_cell_length_c 18.269374
_cell_angle_alpha 90.000000
_cell_angle_beta 90.000000
_cell_angle_gamma 90.000000
_cell_volume 2828.176812
_symmetry_space_group_name_H-M "C C C M"
_symmetry_group_IT_number 66
_symmetry_cell_setting 'orthorhombic'
loop_
_space_group_symop_operation_xyz
x,y,z
-x,-y,z
x,-y,1/2-z
-x,y,1/2-z
-x,-y,-z
x,y,-z
-x,y,1/2+z
x,-y,1/2+z
1/2+x,1/2+y,z
1/2-x,1/2-y,z
1/2+x,1/2-y,1/2-z
1/2-x,1/2+y,1/2-z
1/2-x,1/2-y,-z
1/2+x,1/2+y,-z
1/2-x,1/2+y,1/2+z
1/2+x,1/2-y,1/2+z
loop_
_atom_site_type_symbol
_atom_site_label
_atom_site_fract_x
_atom_site_fract_y
_atom_site_fract_z
Si Si1 0.918159 0.654427 0.285460
Si Si2 0.389362 0.959787 0.418050
Si Si3 0.777336 0.914701 0.416844
Si Si4 0.664931 0.684855 0.826440
O O1 0.880278 0.500000 0.250000
O O2 0.922631 0.600868 0.369613
O O3 0.870981 0.795809 0.253941
O O4 0.000000 0.666393 0.250000
O O5 0.419214 0.950423 0.500000
O O6 0.387609 0.796711 0.376189
O O7 0.301065 0.996089 0.423554
O O8 0.807467 0.891338 0.500000
O O9 0.750000 0.750000 0.386816
O O10 0.828727 0.021613 0.366862
O O11 0.750000 0.750000 0.821899
#
# Coordination Sequence:
#
# PCOD9500053 Si02
#       4
#    16  16  16  16
#     4   9  18  33  51  78 117 153 190 240 292 348
#     4   9  17  31  52  77 108 146 190 238 287 343
#     4   9  17  30  51  80 109 137 178 235 293 347
#     4   9  17  31  53  79 108 145 189 237 288 346
#
# _framework density 22.629418999999999
#
# number of rings (size 3 to 8) (size 9 to 14) (size 15 to 20)
#    0.000    3.000    0.000    0.750    0.000    4.000 
#    0.000   15.000    0.000    3.000    0.000    5.250 
#    0.000    1.000    0.000    0.000    0.000    0.000 
#
# Total GULP energy -178313.399956 kJ/mol
# GULP energy per Si atom -5572.293749 kJ/mol
# Density = 2.257791 g / cm^3
# Si number density = 22.629419 Si / 1000 Ang^3
#
#
#
# Elastic Constant Matrix: (Units=GPa)
#
#
# Indices 1 2 3 4 5 6 
#
# 1 65.5816 27.2540 52.7479 0.0000 0.0000 0.0000
# 2 27.2540 134.3233 85.6803 0.0000 0.0000 0.0000
# 3 52.7479 85.6803 185.1096 0.0000 0.0000 0.0000
# 4 0.0000 0.0000 0.0000 33.5735 0.0000 0.0000
# 5 0.0000 0.0000 0.0000 0.0000 1.6831 0.0000
# 6 0.0000 0.0000 0.0000 0.0000 0.0000 20.6297
#
#
#
# Elastic Compliance Matrix: (Units=1/GPa)
#
#
# Indices 1 2 3 4 5 6 
#
# 1 0.019815 -0.000594 -0.005371 0.000000 0.000000 0.000000
# 2 -0.000594 0.010581 -0.004728 0.000000 0.000000 0.000000
# 3 -0.005371 -0.004728 0.009121 0.000000 0.000000 0.000000
# 4 0.000000 0.000000 0.000000 0.029785 0.000000 0.000000
# 5 0.000000 0.000000 0.000000 0.000000 0.594139 0.000000
# 6 0.000000 0.000000 0.000000 0.000000 0.000000 0.048474
#
#
# Mechanical properties :
#
#
# Convention : Reuss Voigt Hill
#
# Bulk Modulus (GPa) = 55.15707 79.59767 67.37737
# Shear Modulus (GPa) = 6.76272 25.79942 16.28107
#
# Velocity S-wave (km/s) = 1.73059 3.38017 2.68519
# Velocity P-wave (km/s) = 5.33106 7.10527 6.28113
#
# Compressibility (1/GPa) = 0.01813004
#
# Stress axis : x y z
#
# Youngs Moduli (GPa) = 50.46569 94.50566 109.63207
#
# Poissons Ratio (x) = 0.05616 0.58888
# Poissons Ratio (y) = 0.02999 0.51838
# Poissons Ratio (z) = 0.27107 0.44686
#
# Static dielectric constant tensor:
#      x y z
#    x 1.850100 0.000000 0.000000 
#    y 0.000000 1.900330 0.000000 
#    z 0.000000 0.000000 1.945460 
# 
# From -- ./inp_files/36357.got.cif
#   From: 2010.05.17/outbox.cif.g08.bks.cpg/sg66_19_cif.got.tgz:36357.got - 2010.06.03 17:51:23.
