data_PCOD9500215
_publ_section_title
;
Structure prediction by ZEFSAII (Michael W. Deem and Ramdas Pophale) SiO2 
 PCOD9500215
Probable space group: C M M A
;
_chemical_formula_sum "Si O2"
_cell_formula_units_Z 36
_cell_length_a 5.479393
_cell_length_b 14.716665
_cell_length_c 22.123939
_cell_angle_alpha 90.000000
_cell_angle_beta 90.000000
_cell_angle_gamma 90.000000
_cell_volume 1784.038848
_symmetry_space_group_name_H-M "C M M A"
_symmetry_group_IT_number 67
_symmetry_cell_setting 'orthorhombic'
loop_
_space_group_symop_operation_xyz
x,y,z
-x,1/2-y,z
x,-y,-z
-x,1/2+y,-z
-x,-y,-z
x,1/2+y,-z
-x,y,z
x,1/2-y,z
1/2+x,1/2+y,z
1/2-x,-y,z
1/2+x,1/2-y,-z
1/2-x,y,-z
1/2-x,1/2-y,-z
1/2+x,y,-z
1/2-x,1/2+y,z
1/2+x,-y,z
loop_
_atom_site_type_symbol
_atom_site_label
_atom_site_fract_x
_atom_site_fract_y
_atom_site_fract_z
Si Si1 0.500000 0.750000 0.462130
Si Si2 0.500000 0.145761 0.655770
Si Si3 0.500000 0.895056 0.974997
Si Si4 0.500000 0.558388 0.837004
Si Si5 0.000000 0.142221 0.708380
O O1 0.750000 0.750000 0.500000
O O2 0.500000 0.835782 0.415950
O O3 0.500000 0.250000 0.681522
O O4 0.248690 0.104516 0.679255
O O5 0.500000 0.895991 0.902791
O O6 0.250000 0.854687 0.000000
O O7 0.500000 0.000000 0.000000
O O8 0.750000 0.500000 0.833729
O O9 0.500000 0.624141 0.779552
O O10 0.000000 0.250000 0.694768
#
# Coordination Sequence:
#
# PCOD9500215 Si02
#       5
#     4   8   8   8   8
#     4  10  16  26  50  80 106 132 174 212 238 292
#     4   8  17  30  47  68 105 143 155 197 260 298
#     4  10  16  30  47  67  94 123 156 218 280 282
#     4  12  21  31  52  80  95 126 185 221 242 315
#     4  10  19  35  49  68 106 149 159 196 272 318
#
# _framework density 20.178934000000002
#
# number of rings (size 3 to 8) (size 9 to 14) (size 15 to 20)
#    0.667    1.333    4.444    2.667    0.000    0.000 
#    0.000    0.000    0.000    1.333    0.000    0.000 
#    0.000   62.222    0.000    0.000    0.000    0.000 
#
# Total GULP energy -100301.240593 kJ/mol
# GULP energy per Si atom -5572.291144 kJ/mol
# Density = 2.013301 g / cm^3
# Si number density = 20.178934 Si / 1000 Ang^3
#
#
#
# Elastic Constant Matrix: (Units=GPa)
#
#
# Indices 1 2 3 4 5 6 
#
# 1 254.4075 23.8588 80.5824 0.0000 0.0000 0.0000
# 2 23.8588 52.1311 6.5599 0.0000 0.0000 0.0000
# 3 80.5824 6.5599 152.5006 0.0000 0.0000 0.0000
# 4 0.0000 0.0000 0.0000 25.2123 0.0000 0.0000
# 5 0.0000 0.0000 0.0000 0.0000 48.1014 0.0000
# 6 0.0000 0.0000 0.0000 0.0000 0.0000 -12.7932
#
#
#
# Elastic Compliance Matrix: (Units=1/GPa)
#
#
# Indices 1 2 3 4 5 6 
#
# 1 0.004907 -0.001930 -0.002510 0.000000 0.000000 0.000000
# 2 -0.001930 0.020046 0.000157 0.000000 0.000000 0.000000
# 3 -0.002510 0.000157 0.007877 0.000000 0.000000 0.000000
# 4 0.000000 0.000000 0.000000 0.039663 0.000000 0.000000
# 5 0.000000 0.000000 0.000000 0.000000 0.020789 0.000000
# 6 0.000000 0.000000 0.000000 0.000000 0.000000 -0.078167
#
#
# Mechanical properties :
#
#
# Convention : Reuss Voigt Hill
#
# Bulk Modulus (GPa) = 41.21152 75.67127 58.44139
# Shear Modulus (GPa) = 157.39435 35.30664 96.35050
#
# Velocity S-wave (km/s) = 8.84130 4.18745 6.91749
# Velocity P-wave (km/s) = 11.16657 7.80777 9.63466
#
# Compressibility (1/GPa) = 0.02426506
#
# Stress axis : x y z
#
# Youngs Moduli (GPa) = 203.80663 49.88570 126.95651
#
# Poissons Ratio (x) = 0.09627 0.31862
# Poissons Ratio (y) = 0.39331 -0.01999
# Poissons Ratio (z) = 0.51149 -0.00785
#
# Static dielectric constant tensor:
#      x y z
#    x 1.665780 0.000000 0.000000 
#    y 0.000000 1.714540 0.000000 
#    z 0.000000 0.000000 1.677950 
# 
# From -- ./inp_files/31335.got.cif
#   From: 2010.05.17/outbox.cif.g08.bks.cpg/sg67_16_cif.got.tgz:31335.got - 2010.06.03 18:28:57.
