data_PCOD9500501
_publ_section_title
;
Structure prediction by ZEFSAII (Michael W. Deem and Ramdas Pophale) SiO2 
 PCOD9500501
Probable space group: C M M A
;
_chemical_formula_sum "Si O2"
_cell_formula_units_Z 80
_cell_length_a 15.117797
_cell_length_b 26.466626
_cell_length_c 9.924420
_cell_angle_alpha 90.000000
_cell_angle_beta 90.000000
_cell_angle_gamma 90.000000
_cell_volume 3970.929943
_symmetry_space_group_name_H-M "C M M A"
_symmetry_group_IT_number 67
_symmetry_cell_setting 'orthorhombic'
loop_
_space_group_symop_operation_xyz
x,y,z
-x,1/2-y,z
x,-y,-z
-x,1/2+y,-z
-x,-y,-z
x,1/2+y,-z
-x,y,z
x,1/2-y,z
1/2+x,1/2+y,z
1/2-x,-y,z
1/2+x,1/2-y,-z
1/2-x,y,-z
1/2-x,1/2-y,-z
1/2+x,y,-z
1/2-x,1/2+y,z
1/2+x,-y,z
loop_
_atom_site_type_symbol
_atom_site_label
_atom_site_fract_x
_atom_site_fract_y
_atom_site_fract_z
Si Si1 0.399286 0.454883 0.902867
Si Si2 0.233813 0.113168 0.220024
Si Si3 0.679606 0.693282 0.623935
Si Si4 0.843509 0.525785 0.323831
Si Si5 0.597584 0.104377 0.533663
O O1 0.500000 0.441328 0.938125
O O2 0.333848 0.407084 0.892814
O O3 0.397130 0.484279 0.759000
O O4 0.367783 0.500000 0.000000
O O5 0.274633 0.168514 0.243299
O O6 0.312620 0.072478 0.228546
O O7 0.174795 0.107680 0.356682
O O8 0.646419 0.750000 0.647511
O O9 0.750000 0.696631 0.500000
O O10 0.611108 0.651713 0.567737
O O11 0.750000 0.500000 0.357871
O O12 0.889834 0.553495 0.447433
O O13 0.500000 0.107009 0.594563
#
# Coordination Sequence:
#
# PCOD9500501 Si02
#       5
#    16  16  16  16  16
#     4  10  20  32  46  66  91 119 155 199 245 289
#     4   9  18  30  45  66  93 123 156 193 231 282
#     4   8  15  29  47  67  93 124 155 189 234 290
#     4   9  18  30  44  62  88 123 159 189 228 283
#     4  10  18  28  44  68  96 122 153 194 238 280
#
# _framework density 20.146415000000001
#
# number of rings (size 3 to 8) (size 9 to 14) (size 15 to 20)
#    0.000    2.800    0.000    3.000    0.000    9.600 
#    0.000    5.000    0.000    1.800    0.000   11.200 
#    0.000    6.400    0.000    0.000    0.000    0.000 
#
# Total GULP energy -222883.227295 kJ/mol
# GULP energy per Si atom -5572.080682 kJ/mol
# Density = 2.010056 g / cm^3
# Si number density = 20.146415 Si / 1000 Ang^3
#
#
#
# Elastic Constant Matrix: (Units=GPa)
#
#
# Indices 1 2 3 4 5 6 
#
# 1 47.2391 10.9873 -7.2862 0.0000 0.0000 0.0000
# 2 10.9873 134.2028 12.0228 0.0000 0.0000 0.0000
# 3 -7.2862 12.0228 38.7795 0.0000 0.0000 0.0000
# 4 0.0000 0.0000 0.0000 26.1624 0.0000 0.0000
# 5 0.0000 0.0000 0.0000 0.0000 17.3407 0.0000
# 6 0.0000 0.0000 0.0000 0.0000 0.0000 11.9834
#
#
#
# Elastic Compliance Matrix: (Units=1/GPa)
#
#
# Indices 1 2 3 4 5 6 
#
# 1 0.022459 -0.002280 0.004927 0.000000 0.000000 0.000000
# 2 -0.002280 0.007896 -0.002876 0.000000 0.000000 0.000000
# 3 0.004927 -0.002876 0.027604 0.000000 0.000000 0.000000
# 4 0.000000 0.000000 0.000000 0.038223 0.000000 0.000000
# 5 0.000000 0.000000 0.000000 0.000000 0.057668 0.000000
# 6 0.000000 0.000000 0.000000 0.000000 0.000000 0.083449
#
#
# Mechanical properties :
#
#
# Convention : Reuss Voigt Hill
#
# Bulk Modulus (GPa) = 17.39140 27.96324 22.67732
# Shear Modulus (GPa) = 19.46096 24.73046 22.09571
#
# Velocity S-wave (km/s) = 3.11139 3.50742 3.31532
# Velocity P-wave (km/s) = 4.64316 5.50571 5.09273
#
# Compressibility (1/GPa) = 0.05749969
#
# Stress axis : x y z
#
# Youngs Moduli (GPa) = 44.52530 126.65023 36.22630
#
# Poissons Ratio (x) = 0.28878 -0.17848
# Poissons Ratio (y) = 0.10152 0.10420
# Poissons Ratio (z) = -0.21936 0.36429
#
# Static dielectric constant tensor:
#      x y z
#    x 1.727250 0.000000 0.000000 
#    y 0.000000 1.731680 0.000000 
#    z 0.000000 0.000000 1.838610 
# 
# From -- ./inp_files/9962.got.cif
#   From: 2010.05.17/outbox.cif.g08.bks.cpg/sg67_5_cif.got.tgz:9962.got - 2010.06.03 18:28:57.
