data_PCOD9500937
_publ_section_title
;
Structure prediction by ZEFSAII (Michael W. Deem and Ramdas Pophale) SiO2 
 PCOD9500937
Probable space group: C M M A
;
_chemical_formula_sum "Si O2"
_cell_formula_units_Z 92
_cell_length_a 23.007638
_cell_length_b 17.789127
_cell_length_c 11.340773
_cell_angle_alpha 90.000000
_cell_angle_beta 90.000000
_cell_angle_gamma 90.000000
_cell_volume 4641.617286
_symmetry_space_group_name_H-M "C M M A"
_symmetry_group_IT_number 67
_symmetry_cell_setting 'orthorhombic'
loop_
_space_group_symop_operation_xyz
x,y,z
-x,1/2-y,z
x,-y,-z
-x,1/2+y,-z
-x,-y,-z
x,1/2+y,-z
-x,y,z
x,1/2-y,z
1/2+x,1/2+y,z
1/2-x,-y,z
1/2+x,1/2-y,-z
1/2-x,y,-z
1/2-x,1/2-y,-z
1/2+x,y,-z
1/2-x,1/2+y,z
1/2+x,-y,z
loop_
_atom_site_type_symbol
_atom_site_label
_atom_site_fract_x
_atom_site_fract_y
_atom_site_fract_z
Si Si1 0.180658 0.089325 0.503217
Si Si2 0.866571 0.836657 0.256488
Si Si3 0.065126 0.750000 0.766926
Si Si4 0.000000 0.750000 0.527733
Si Si5 0.885037 0.603021 0.722908
Si Si6 0.315427 0.520690 0.862884
Si Si7 0.000000 0.358007 0.695641
Si Si8 0.500000 0.473729 0.633297
O O1 0.250000 0.094628 0.500000
O O2 0.151907 0.128870 0.616012
O O3 0.157138 0.124530 0.383296
O O4 0.165036 0.000000 0.500000
O O5 0.847286 0.750000 0.245902
O O6 0.835758 0.894607 0.166217
O O7 0.937238 0.836448 0.250183
O O8 0.052951 0.750000 0.622906
O O9 0.099379 0.824509 0.798748
O O10 0.000000 0.750000 0.817074
O O11 0.000000 0.679626 0.436669
O O12 0.857891 0.534935 0.794111
O O13 0.944292 0.574382 0.664885
O O14 0.250000 0.500000 0.820753
O O15 0.317896 0.500000 0.000000
O O16 0.000000 0.447761 0.700792
O O17 0.500000 0.500000 0.500000
#
# Coordination Sequence:
#
# PCOD9500937 Si02
#       8
#    16  16   8   4  16  16   8   8
#     4  11  22  38  61  91 138 180 217 266 336 403
#     4  12  24  41  67 102 138 170 221 279 339 407
#     4  10  22  36  59  93 139 169 216 263 321 403
#     4  10  18  34  54  92 150 184 200 248 320 408
#     4  12  22  40  65  95 135 176 222 274 334 403
#     4  11  26  52  74  91 125 180 238 289 339 397
#     4  12  20  34  61  91 137 176 210 255 328 409
#     4  12  20  33  61  96 129 181 218 254 331 419
#
# _framework density 19.820675999999999
#
# number of rings (size 3 to 8) (size 9 to 14) (size 15 to 20)
#    0.261    0.348    5.217    4.696    1.217    0.348 
#    6.261    2.609    0.000    0.000    0.000    0.000 
#    0.000    0.000    0.000    0.000    0.000    0.000 
#
# Total GULP energy -256956.527650 kJ/mol
# GULP energy per Si atom -5586.011471 kJ/mol
# Density = 1.977556 g / cm^3
# Si number density = 19.820676 Si / 1000 Ang^3
#
#
#
# Elastic Constant Matrix: (Units=GPa)
#
#
# Indices 1 2 3 4 5 6 
#
# 1 122.4760 49.1669 23.1560 0.0000 0.0000 0.0000
# 2 49.1669 166.6681 21.5595 0.0000 0.0000 0.0000
# 3 23.1560 21.5595 40.6279 0.0000 0.0000 0.0000
# 4 0.0000 0.0000 0.0000 15.6697 0.0000 0.0000
# 5 0.0000 0.0000 0.0000 0.0000 26.8908 0.0000
# 6 0.0000 0.0000 0.0000 0.0000 0.0000 -205.9521
#
#
#
# Elastic Compliance Matrix: (Units=1/GPa)
#
#
# Indices 1 2 3 4 5 6 
#
# 1 0.009949 -0.002364 -0.004416 0.000000 0.000000 0.000000
# 2 -0.002364 0.007004 -0.002369 0.000000 0.000000 0.000000
# 3 -0.004416 -0.002369 0.028388 0.000000 0.000000 0.000000
# 4 0.000000 0.000000 0.000000 0.063818 0.000000 0.000000
# 5 0.000000 0.000000 0.000000 0.000000 0.037187 0.000000
# 6 0.000000 0.000000 0.000000 0.000000 0.000000 -0.004855
#
#
# Mechanical properties :
#
#
# Convention : Reuss Voigt Hill
#
# Bulk Modulus (GPa) = 36.97927 57.50410 47.24168
# Shear Modulus (GPa) = 29.62053 -16.95235 6.33409
#
# Velocity S-wave (km/s) = 3.86997 -2.92770 1.78959
# Velocity P-wave (km/s) = 6.21823 4.20078 5.30627
#
# Compressibility (1/GPa) = 0.02704218
#
# Stress axis : x y z
#
# Youngs Moduli (GPa) = 100.51643 142.78150 35.22630
#
# Poissons Ratio (x) = 0.33748 0.15556
# Poissons Ratio (y) = 0.23758 0.08347
# Poissons Ratio (z) = 0.44388 0.33831
#
# Static dielectric constant tensor:
#      x y z
#    x 1.687110 0.000000 0.000000 
#    y 0.000000 1.684900 0.000000 
#    z 0.000000 0.000000 1.688590 
# 
# From -- ./inp_files/20728.got.cif
#   From: 2010.05.17/outbox.cif.g08.bks.cpg/sg67_11_cif.got.tgz:20728.got - 2010.06.03 18:28:57.
