data_PCOD9500847
_publ_section_title
;
Structure prediction by ZEFSAII (Michael W. Deem and Ramdas Pophale) SiO2 
 PCOD9500847
Probable space group: C M M A
;
_chemical_formula_sum "Si O2"
_cell_formula_units_Z 88
_cell_length_a 8.810203
_cell_length_b 15.009217
_cell_length_c 31.646077
_cell_angle_alpha 90.000000
_cell_angle_beta 90.000000
_cell_angle_gamma 90.000000
_cell_volume 4184.695215
_symmetry_space_group_name_H-M "C M M A"
_symmetry_group_IT_number 67
_symmetry_cell_setting 'orthorhombic'
loop_
_space_group_symop_operation_xyz
x,y,z
-x,1/2-y,z
x,-y,-z
-x,1/2+y,-z
-x,-y,-z
x,1/2+y,-z
-x,y,z
x,1/2-y,z
1/2+x,1/2+y,z
1/2-x,-y,z
1/2+x,1/2-y,-z
1/2-x,y,-z
1/2-x,1/2-y,-z
1/2+x,y,-z
1/2-x,1/2+y,z
1/2+x,-y,z
loop_
_atom_site_type_symbol
_atom_site_label
_atom_site_fract_x
_atom_site_fract_y
_atom_site_fract_z
Si Si1 0.168096 0.144859 0.128920
Si Si2 0.682999 0.599135 0.612743
Si Si3 0.326044 0.859244 0.956100
Si Si4 0.817860 0.100824 0.299917
Si Si5 0.819960 0.901383 0.214976
Si Si6 0.181914 0.750000 0.453558
O O1 0.151743 0.250000 0.121795
O O2 0.238540 0.108997 0.085628
O O3 0.273734 0.136592 0.169718
O O4 0.000000 0.106691 0.137668
O O5 0.500000 0.594387 0.616749
O O6 0.750000 0.500000 0.606701
O O7 0.752438 0.637829 0.656299
O O8 0.723949 0.663275 0.573996
O O9 0.500000 0.887866 0.954442
O O10 0.325090 0.750000 0.955806
O O11 0.250000 0.886803 0.000000
O O12 0.756860 0.142333 0.256312
O O13 0.000000 0.099109 0.300178
O O14 0.750000 0.000000 0.299937
O O15 0.000000 0.902757 0.220616
O O16 0.750000 0.000000 0.213463
O O17 0.250000 0.750000 0.500000
O O18 0.000000 0.750000 0.456975
#
# Coordination Sequence:
#
# PCOD9500847 Si02
#       6
#    16  16  16  16  16   8
#     4  10  20  34  51  74 105 136 172 221 271 323
#     4  10  20  38  61  88 118 156 198 246 296 351
#     4   9  16  27  45  69  96 129 170 215 266 321
#     4  10  18  32  55  82 109 143 184 229 273 326
#     4  11  21  35  55  78 107 144 182 222 270 329
#     4  10  24  42  62  88 124 160 200 246 297 352
#
# _framework density 21.029012000000002
#
# number of rings (size 3 to 8) (size 9 to 14) (size 15 to 20)
#    0.000    2.000    0.000    7.091    0.000    5.091 
#    1.636    1.818    0.000    0.545    0.000    3.818 
#    0.000    0.000    0.000    0.000    0.000    0.000 
#
# Total GULP energy -245742.111209 kJ/mol
# GULP energy per Si atom -5585.047982 kJ/mol
# Density = 2.098115 g / cm^3
# Si number density = 21.029012 Si / 1000 Ang^3
#
#
#
# Elastic Constant Matrix: (Units=GPa)
#
#
# Indices 1 2 3 4 5 6 
#
# 1 169.3086 25.2818 82.8659 0.0000 0.0000 0.0000
# 2 25.2818 60.7984 40.9682 0.0000 0.0000 0.0000
# 3 82.8659 40.9682 215.4092 0.0000 0.0000 0.0000
# 4 0.0000 0.0000 0.0000 -11.5987 0.0000 0.0000
# 5 0.0000 0.0000 0.0000 0.0000 38.4863 0.0000
# 6 0.0000 0.0000 0.0000 0.0000 0.0000 13.7250
#
#
#
# Elastic Compliance Matrix: (Units=1/GPa)
#
#
# Indices 1 2 3 4 5 6 
#
# 1 0.007368 -0.001324 -0.002583 0.000000 0.000000 0.000000
# 2 -0.001324 0.019103 -0.003124 0.000000 0.000000 0.000000
# 3 -0.002583 -0.003124 0.006230 0.000000 0.000000 0.000000
# 4 0.000000 0.000000 0.000000 -0.086217 0.000000 0.000000
# 5 0.000000 0.000000 0.000000 0.000000 0.025983 0.000000
# 6 0.000000 0.000000 0.000000 0.000000 0.000000 0.072860
#
#
# Mechanical properties :
#
#
# Convention : Reuss Voigt Hill
#
# Bulk Modulus (GPa) = 53.64587 82.63868 68.14228
# Shear Modulus (GPa) = 76.21705 27.88253 52.04979
#
# Velocity S-wave (km/s) = 6.02681 3.64525 4.98048
# Velocity P-wave (km/s) = 8.60208 7.55645 8.09616
#
# Compressibility (1/GPa) = 0.01864076
#
# Stress axis : x y z
#
# Youngs Moduli (GPa) = 135.72046 52.34705 160.51294
#
# Poissons Ratio (x) = 0.06928 0.41456
# Poissons Ratio (y) = 0.17963 0.50145
# Poissons Ratio (z) = 0.35053 0.16353
#
# Static dielectric constant tensor:
#      x y z
#    x 1.709630 0.000000 0.000000 
#    y 0.000000 1.816290 0.000000 
#    z 0.000000 0.000000 1.780180 
# 
# From -- ./inp_files/45254.got.cif
#   From: 2010.05.17/outbox.cif.g08.bks.cpg/sg67_23_cif.got.tgz:45254.got - 2010.06.03 18:28:57.
