data_PCOD9500938
_publ_section_title
;
Structure prediction by ZEFSAII (Michael W. Deem and Ramdas Pophale) SiO2 
 PCOD9500938
Probable space group: C M M A
;
_chemical_formula_sum "Si O2"
_cell_formula_units_Z 96
_cell_length_a 24.072603
_cell_length_b 9.059392
_cell_length_c 25.787595
_cell_angle_alpha 90.000000
_cell_angle_beta 90.000000
_cell_angle_gamma 90.000000
_cell_volume 5623.839872
_symmetry_space_group_name_H-M "C M M A"
_symmetry_group_IT_number 67
_symmetry_cell_setting 'orthorhombic'
loop_
_space_group_symop_operation_xyz
x,y,z
-x,1/2-y,z
x,-y,-z
-x,1/2+y,-z
-x,-y,-z
x,1/2+y,-z
-x,y,z
x,1/2-y,z
1/2+x,1/2+y,z
1/2-x,-y,z
1/2+x,1/2-y,-z
1/2-x,y,-z
1/2-x,1/2-y,-z
1/2+x,y,-z
1/2-x,1/2+y,z
1/2+x,-y,z
loop_
_atom_site_type_symbol
_atom_site_label
_atom_site_fract_x
_atom_site_fract_y
_atom_site_fract_z
Si Si1 0.065079 0.926014 0.555008
Si Si2 0.887772 0.923286 0.346635
Si Si3 0.689744 0.071525 0.252547
Si Si4 0.385108 0.573881 0.846661
Si Si5 0.500000 0.081294 0.280096
Si Si6 0.000000 0.923774 0.827292
Si Si7 0.689868 0.573372 0.947014
O O1 0.068942 0.750000 0.550999
O O2 0.000000 0.963723 0.566463
O O3 0.078631 0.000000 0.500000
O O4 0.103354 0.986010 0.601083
O O5 0.880080 0.750000 0.359094
O O6 0.839408 0.970081 0.306971
O O7 0.945134 0.935500 0.314398
O O8 0.694273 0.250000 0.251383
O O9 0.649396 0.028913 0.204782
O O10 0.750000 0.000000 0.246879
O O11 0.394276 0.750000 0.842592
O O12 0.443858 0.493910 0.849501
O O13 0.348641 0.545183 0.897594
O O14 0.500000 0.250000 0.258945
O O15 0.500000 0.968024 0.233307
O O16 0.000000 0.750000 0.834281
O O17 0.695711 0.750000 0.953496
O O18 0.750000 0.500000 0.938012
O O19 0.667913 0.500000 0.000000
#
# Coordination Sequence:
#
# PCOD9500938 Si02
#       7
#    16  16  16  16   8   8  16
#     4  10  20  32  49  76 109 140 175 218 264 316
#     4  10  19  33  55  77 104 143 178 215 264 318
#     4  10  21  36  55  79 107 141 180 220 266 318
#     4  10  21  39  58  78 109 150 184 216 269 331
#     4  10  18  34  55  74 107 148 181 213 261 333
#     4  12  24  34  53  84 113 142 179 227 271 319
#     4  10  20  35  59  84 111 145 185 230 275 322
#
# _framework density 17.070188000000002
#
# number of rings (size 3 to 8) (size 9 to 14) (size 15 to 20)
#    0.000    1.833    2.500    2.750    0.000    4.000 
#    0.000    0.417    0.000    0.500    0.000    3.500 
#    0.000    0.000    0.000    0.000    0.000    0.000 
#
# Total GULP energy -267967.290513 kJ/mol
# GULP energy per Si atom -5582.651886 kJ/mol
# Density = 1.703134 g / cm^3
# Si number density = 17.070188 Si / 1000 Ang^3
#
#
#
# Elastic Constant Matrix: (Units=GPa)
#
#
# Indices 1 2 3 4 5 6 
#
# 1 108.1127 50.1006 63.2237 0.0000 0.0000 0.0000
# 2 50.1006 63.0844 65.0525 0.0000 0.0000 0.0000
# 3 63.2237 65.0525 135.6121 0.0000 0.0000 0.0000
# 4 0.0000 0.0000 0.0000 20.9995 0.0000 0.0000
# 5 0.0000 0.0000 0.0000 0.0000 18.4467 0.0000
# 6 0.0000 0.0000 0.0000 0.0000 0.0000 28.3921
#
#
#
# Elastic Compliance Matrix: (Units=1/GPa)
#
#
# Indices 1 2 3 4 5 6 
#
# 1 0.015066 -0.009345 -0.002541 0.000000 0.000000 0.000000
# 2 -0.009345 0.037164 -0.013471 0.000000 0.000000 0.000000
# 3 -0.002541 -0.013471 0.015021 0.000000 0.000000 0.000000
# 4 0.000000 0.000000 0.000000 0.047620 0.000000 0.000000
# 5 0.000000 0.000000 0.000000 0.000000 0.054210 0.000000
# 6 0.000000 0.000000 0.000000 0.000000 0.000000 0.035221
#
#
# Mechanical properties :
#
#
# Convention : Reuss Voigt Hill
#
# Bulk Modulus (GPa) = 60.46958 73.72920 67.09939
# Shear Modulus (GPa) = 19.19168 22.12982 20.66075
#
# Velocity S-wave (km/s) = 3.35667 3.60446 3.48277
# Velocity P-wave (km/s) = 7.10802 7.78514 7.45427
#
# Compressibility (1/GPa) = 0.01653724
#
# Stress axis : x y z
#
# Youngs Moduli (GPa) = 66.37354 26.90748 66.57428
#
# Poissons Ratio (x) = 0.25144 0.16920
# Poissons Ratio (y) = 0.62023 0.89682
# Poissons Ratio (z) = 0.16869 0.36247
#
# Static dielectric constant tensor:
#      x y z
#    x 1.559310 0.000000 0.000000 
#    y 0.000000 1.571270 0.000000 
#    z 0.000000 0.000000 1.570900 
# 
# From -- ./inp_files/42612.got.cif
#   From: 2010.05.17/outbox.cif.g08.bks.cpg/sg67_22_cif.got.tgz:42612.got - 2010.06.03 18:28:57.
