data_PCOD9500547
_publ_section_title
;
Structure prediction by ZEFSAII (Michael W. Deem and Ramdas Pophale) SiO2 
 PCOD9500547
Probable space group: C M M A
;
_chemical_formula_sum "Si O2"
_cell_formula_units_Z 96
_cell_length_a 15.134999
_cell_length_b 18.431640
_cell_length_c 16.547080
_cell_angle_alpha 90.000000
_cell_angle_beta 90.000000
_cell_angle_gamma 90.000000
_cell_volume 4616.020645
_symmetry_space_group_name_H-M "C M M A"
_symmetry_group_IT_number 67
_symmetry_cell_setting 'orthorhombic'
loop_
_space_group_symop_operation_xyz
x,y,z
-x,1/2-y,z
x,-y,-z
-x,1/2+y,-z
-x,-y,-z
x,1/2+y,-z
-x,y,z
x,1/2-y,z
1/2+x,1/2+y,z
1/2-x,-y,z
1/2+x,1/2-y,-z
1/2-x,y,-z
1/2-x,1/2-y,-z
1/2+x,y,-z
1/2-x,1/2+y,z
1/2+x,-y,z
loop_
_atom_site_type_symbol
_atom_site_label
_atom_site_fract_x
_atom_site_fract_y
_atom_site_fract_z
Si Si1 0.899931 0.897710 0.467675
Si Si2 0.599589 0.334716 0.303318
Si Si3 0.401570 0.087014 0.796749
Si Si4 0.150178 0.530314 0.083682
Si Si5 0.656937 0.461234 0.621674
Si Si6 0.777930 0.163259 0.842658
O O1 0.873168 0.843974 0.396244
O O2 0.840602 0.904992 0.547149
O O3 0.000000 0.880914 0.493672
O O4 0.899388 0.973840 0.418295
O O5 0.500000 0.366282 0.293156
O O6 0.592058 0.250000 0.285800
O O7 0.673356 0.360595 0.240959
O O8 0.500000 0.117609 0.806361
O O9 0.381327 0.072126 0.702707
O O10 0.323046 0.136023 0.834256
O O11 0.397328 0.009465 0.842534
O O12 0.250000 0.500000 0.087811
O O13 0.165996 0.616370 0.092136
O O14 0.111901 0.500000 0.000000
O O15 0.750000 0.500000 0.637920
O O16 0.781560 0.250000 0.854309
#
# Coordination Sequence:
#
# PCOD9500547 Si02
#       6
#    16  16  16  16  16  16
#     4  10  18  29  47  73 104 138 184 240 298 350
#     4   9  18  33  54  81 113 149 190 239 296 355
#     4  11  22  37  58  83 117 159 200 242 292 353
#     4   9  19  38  61  88 116 146 190 239 293 353
#     4  11  20  31  49  73 103 142 192 245 291 337
#     4  10  21  38  61  89 121 155 192 238 293 353
#
# _framework density 20.797132999999999
#
# number of rings (size 3 to 8) (size 9 to 14) (size 15 to 20)
#    0.000    2.000    0.000    6.500    0.000    2.667 
#    0.000    7.500    0.000    6.000    0.000    0.000 
#    0.000    0.000    0.000    0.000    0.000    0.000 
#
# Total GULP energy -267568.394681 kJ/mol
# GULP energy per Si atom -5574.341556 kJ/mol
# Density = 2.074980 g / cm^3
# Si number density = 20.797133 Si / 1000 Ang^3
#
#
#
# Elastic Constant Matrix: (Units=GPa)
#
#
# Indices 1 2 3 4 5 6 
#
# 1 96.7612 28.2803 27.3496 0.0000 0.0000 0.0000
# 2 28.2803 86.9917 35.7304 0.0000 0.0000 0.0000
# 3 27.3496 35.7304 86.5706 0.0000 0.0000 0.0000
# 4 0.0000 0.0000 0.0000 24.7167 0.0000 0.0000
# 5 0.0000 0.0000 0.0000 0.0000 -133.1013 0.0000
# 6 0.0000 0.0000 0.0000 0.0000 0.0000 17.5924
#
#
#
# Elastic Compliance Matrix: (Units=1/GPa)
#
#
# Indices 1 2 3 4 5 6 
#
# 1 0.011887 -0.002796 -0.002601 0.000000 0.000000 0.000000
# 2 -0.002796 0.014499 -0.005101 0.000000 0.000000 0.000000
# 3 -0.002601 -0.005101 0.014479 0.000000 0.000000 0.000000
# 4 0.000000 0.000000 0.000000 0.040458 0.000000 0.000000
# 5 0.000000 0.000000 0.000000 0.000000 -0.007513 0.000000
# 6 0.000000 0.000000 0.000000 0.000000 0.000000 0.056843
#
#
# Mechanical properties :
#
#
# Convention : Reuss Voigt Hill
#
# Bulk Modulus (GPa) = 50.33166 50.33823 50.33495
# Shear Modulus (GPa) = 31.59099 -6.22756 12.68171
#
# Velocity S-wave (km/s) = 3.90167 -1.73232 2.47205
# Velocity P-wave (km/s) = 6.67467 4.50063 5.69240
#
# Compressibility (1/GPa) = 0.01986821
#
# Stress axis : x y z
#
# Youngs Moduli (GPa) = 84.12420 68.96799 69.06784
#
# Poissons Ratio (x) = 0.19283 0.17968
# Poissons Ratio (y) = 0.23520 0.35232
# Poissons Ratio (z) = 0.21885 0.35181
#
# Static dielectric constant tensor:
#      x y z
#    x 1.798350 0.000000 0.000000 
#    y 0.000000 1.805360 0.000000 
#    z 0.000000 0.000000 1.810020 
# 
# From -- ./inp_files/27183.got.cif
#   From: 2010.05.17/outbox.cif.g08.bks.cpg/sg67_14_cif.got.tgz:27183.got - 2010.06.03 18:28:57.
