data_PCOD9500597
_publ_section_title
;
Structure prediction by ZEFSAII (Michael W. Deem and Ramdas Pophale) SiO2 
 PCOD9500597
Probable space group: C M M A
;
_chemical_formula_sum "Si O2"
_cell_formula_units_Z 88
_cell_length_a 28.076665
_cell_length_b 8.641996
_cell_length_c 19.287372
_cell_angle_alpha 90.000000
_cell_angle_beta 90.000000
_cell_angle_gamma 90.000000
_cell_volume 4679.857596
_symmetry_space_group_name_H-M "C M M A"
_symmetry_group_IT_number 67
_symmetry_cell_setting 'orthorhombic'
loop_
_space_group_symop_operation_xyz
x,y,z
-x,1/2-y,z
x,-y,-z
-x,1/2+y,-z
-x,-y,-z
x,1/2+y,-z
-x,y,z
x,1/2-y,z
1/2+x,1/2+y,z
1/2-x,-y,z
1/2+x,1/2-y,-z
1/2-x,y,-z
1/2-x,1/2-y,-z
1/2+x,y,-z
1/2-x,1/2+y,z
1/2+x,-y,z
loop_
_atom_site_type_symbol
_atom_site_label
_atom_site_fract_x
_atom_site_fract_y
_atom_site_fract_z
Si Si1 0.801356 0.564133 0.834776
Si Si2 0.054041 0.063508 0.212217
Si Si3 0.899142 0.065538 0.422328
Si Si4 0.355758 0.066720 0.292589
Si Si5 0.000000 0.935721 0.421465
Si Si6 0.107424 0.065290 0.076051
O O1 0.801001 0.750000 0.833107
O O2 0.750000 0.500000 0.854724
O O3 0.816229 0.502139 0.758933
O O4 0.842958 0.513094 0.888021
O O5 0.059769 0.250000 0.222483
O O6 0.066142 0.029861 0.131705
O O7 0.000000 0.021247 0.229583
O O8 0.094451 0.977453 0.255254
O O9 0.901673 0.250000 0.425213
O O10 0.892273 0.000000 0.500000
O O11 0.859461 0.009001 0.368397
O O12 0.950106 0.001306 0.394325
O O13 0.350713 0.250000 0.298234
O O14 0.000000 0.750000 0.419897
O O15 0.000000 0.000000 0.500000
O O16 0.109947 0.250000 0.070733
O O17 0.100401 0.000000 0.000000
#
# Coordination Sequence:
#
# PCOD9500597 Si02
#       6
#    16  16  16  16   8  16
#     4  10  21  39  60  83 109 140 178 222 276 331
#     4   9  19  36  54  74 106 148 190 228 272 322
#     4  11  21  35  53  76 108 146 184 227 276 323
#     4  11  22  36  55  81 110 142 183 229 274 327
#     4  10  18  30  46  70 102 138 179 220 263 316
#     4   9  19  34  53  79 111 144 180 223 269 324
#
# _framework density 18.803992000000001
#
# number of rings (size 3 to 8) (size 9 to 14) (size 15 to 20)
#    0.000    2.000    0.000    6.818    1.273    4.727 
#    0.000    1.818    0.000    0.545    0.000    3.818 
#    0.000    0.000    0.000    0.000    0.000    0.000 
#
# Total GULP energy -245642.321593 kJ/mol
# GULP energy per Si atom -5582.780036 kJ/mol
# Density = 1.876119 g / cm^3
# Si number density = 18.803992 Si / 1000 Ang^3
#
#
#
# Elastic Constant Matrix: (Units=GPa)
#
#
# Indices 1 2 3 4 5 6 
#
# 1 30.6129 0.6408 -17.1216 0.0000 0.0000 0.0000
# 2 0.6408 94.1870 11.7156 0.0000 0.0000 0.0000
# 3 -17.1216 11.7156 75.2516 0.0000 0.0000 0.0000
# 4 0.0000 0.0000 0.0000 31.8970 0.0000 0.0000
# 5 0.0000 0.0000 0.0000 0.0000 17.1913 0.0000
# 6 0.0000 0.0000 0.0000 0.0000 0.0000 25.0366
#
#
#
# Elastic Compliance Matrix: (Units=1/GPa)
#
#
# Indices 1 2 3 4 5 6 
#
# 1 0.037595 -0.001346 0.008763 0.000000 0.000000 0.000000
# 2 -0.001346 0.010875 -0.001999 0.000000 0.000000 0.000000
# 3 0.008763 -0.001999 0.015594 0.000000 0.000000 0.000000
# 4 0.000000 0.000000 0.000000 0.031351 0.000000 0.000000
# 5 0.000000 0.000000 0.000000 0.000000 0.058169 0.000000
# 6 0.000000 0.000000 0.000000 0.000000 0.000000 0.039942
#
#
# Mechanical properties :
#
#
# Convention : Reuss Voigt Hill
#
# Bulk Modulus (GPa) = 13.35097 21.16902 17.26000
# Shear Modulus (GPa) = 24.07827 28.47943 26.27885
#
# Velocity S-wave (km/s) = 3.58227 3.89593 3.74239
# Velocity P-wave (km/s) = 4.92196 5.61426 5.27947
#
# Compressibility (1/GPa) = 0.07490093
#
# Stress axis : x y z
#
# Youngs Moduli (GPa) = 26.59898 91.95388 64.12763
#
# Poissons Ratio (x) = 0.12375 -0.56198
# Poissons Ratio (y) = 0.03580 0.12821
# Poissons Ratio (z) = -0.23310 0.18384
#
# Static dielectric constant tensor:
#      x y z
#    x 1.654880 0.000000 0.000000 
#    y 0.000000 1.630180 0.000000 
#    z 0.000000 0.000000 1.657580 
# 
# From -- ./inp_files/36139.got.cif
#   From: 2010.05.17/outbox.cif.g08.bks.cpg/sg67_19_cif.got.tgz:36139.got - 2010.06.03 18:28:57.
