data_PCOD9500102
_publ_section_title
;
Structure prediction by ZEFSAII (Michael W. Deem and Ramdas Pophale) SiO2 
 PCOD9500102
Probable space group: C C C M
;
_chemical_formula_sum "Si O2"
_cell_formula_units_Z 40
_cell_length_a 24.000000
_cell_length_b 12.000000
_cell_length_c 15.000000
_cell_angle_alpha 90.000000
_cell_angle_beta 90.000000
_cell_angle_gamma 90.000000
_cell_volume 4320.000000
_symmetry_space_group_name_H-M "C C C M"
_symmetry_group_IT_number 66
_symmetry_cell_setting 'orthorhombic'
loop_
_space_group_symop_operation_xyz
x,y,z
-x,-y,z
x,-y,1/2-z
-x,y,1/2-z
-x,-y,-z
x,y,-z
-x,y,1/2+z
x,-y,1/2+z
1/2+x,1/2+y,z
1/2-x,1/2-y,z
1/2+x,1/2-y,1/2-z
1/2-x,1/2+y,1/2-z
1/2-x,1/2-y,-z
1/2+x,1/2+y,-z
1/2-x,1/2+y,1/2+z
1/2+x,1/2-y,1/2+z
loop_
_atom_site_type_symbol
_atom_site_label
_atom_site_fract_x
_atom_site_fract_y
_atom_site_fract_z
Si Si1 0.956401 0.916621 0.394095
Si Si2 0.192316 0.813412 0.740760
Si Si3 0.669174 0.480283 0.110011
Si Si4 0.904270 0.623197 0.750885
Si Si5 0.502129 0.834365 0.607457
O O1 0.953661 0.936328 0.500000
O O2 0.894052 0.943058 0.366185
O O3 0.981893 0.795190 0.383657
O O4 0.000000 0.000000 0.351971
O O5 0.250000 0.750000 0.721432
O O6 0.201312 0.885526 0.832340
O O7 0.141444 0.722986 0.751540
O O8 0.179826 0.901477 0.659923
O O9 0.676674 0.481769 0.000000
O O10 0.877026 0.500000 0.750000
O O11 0.946356 0.615845 0.665070
O O12 0.945420 0.641921 0.836822
O O13 0.499731 0.861233 0.500000
#
# Coordination Sequence:
#
# PCOD9500102 Si02
#       5
#    16  16  16  16  16
#     4   9  16  30  58  90 121 154 191 245 310 370
#     4  11  25  43  67  92 127 171 216 270 320 373
#     4  10  22  43  67  96 127 161 213 269 319 379
#     4  11  24  39  60  92 129 171 214 254 312 384
#     4  10  20  38  60  90 129 164 205 257 313 382
#
# _framework density 9.2592590000000001
#
# number of rings (size 3 to 8) (size 9 to 14) (size 15 to 20)
#    0.000    1.800    2.000    2.400    2.800    4.800 
#    0.000    0.000    0.000    0.000    0.000    0.000 
#    0.000    0.000    0.000    0.000    0.000    0.000 
#
# Total GULP energy -222743.499512 kJ/mol
# GULP energy per Si atom -5568.587488 kJ/mol
# Density = 0.923818 g / cm^3
# Si number density = 9.259259 Si / 1000 Ang^3
#
#
#
# Elastic Constant Matrix: (Units=GPa)
#
#
# Indices 1 2 3 4 5 6 
#
# 1 80.6573 54.0484 25.5633 0.0000 0.0000 0.0000
# 2 54.0484 112.6286 56.0929 0.0000 0.0000 0.0000
# 3 25.5633 56.0929 133.5459 0.0000 0.0000 0.0000
# 4 0.0000 0.0000 0.0000 24.1028 0.0000 0.0000
# 5 0.0000 0.0000 0.0000 0.0000 19.3118 0.0000
# 6 0.0000 0.0000 0.0000 0.0000 0.0000 31.6741
#
#
#
# Elastic Compliance Matrix: (Units=1/GPa)
#
#
# Indices 1 2 3 4 5 6 
#
# 1 0.018281 -0.008889 0.000234 0.000000 0.000000 0.000000
# 2 -0.008889 0.015550 -0.004830 0.000000 0.000000 0.000000
# 3 0.000234 -0.004830 0.009472 0.000000 0.000000 0.000000
# 4 0.000000 0.000000 0.000000 0.041489 0.000000 0.000000
# 5 0.000000 0.000000 0.000000 0.000000 0.051782 0.000000
# 6 0.000000 0.000000 0.000000 0.000000 0.000000 0.031572
#
#
# Mechanical properties :
#
#
# Convention : Reuss Voigt Hill
#
# Bulk Modulus (GPa) = 61.22541 66.47123 63.84832
# Shear Modulus (GPa) = 24.93042 27.75954 26.34498
#
# Velocity S-wave (km/s) = 3.67310 3.87591 3.77587
# Velocity P-wave (km/s) = 7.14999 7.48349 7.31864
#
# Compressibility (1/GPa) = 0.01633309
#
# Stress axis : x y z
#
# Youngs Moduli (GPa) = 54.70307 64.30893 105.57616
#
# Poissons Ratio (x) = 0.57166 -0.02475
# Poissons Ratio (y) = 0.48627 0.50991
# Poissons Ratio (z) = -0.01283 0.31060
#
# Static dielectric constant tensor:
#      x y z
#    x 1.650610 0.000000 0.000000 
#    y 0.000000 1.899620 0.000000 
#    z 0.000000 0.000000 1.648300 
# 
# From -- ./inp_files/26394.got.cif
#   From: 2010.05.17/outbox.ucp.g08.bks.cvg/sg66_14_cif.got.tgz:26394.got - 2010.06.11 16:44:13.
