data_PCOD9500608
_publ_section_title
;
Structure prediction by ZEFSAII (Michael W. Deem and Ramdas Pophale) SiO2 
 PCOD9500608
Probable space group: C M M A
;
_chemical_formula_sum "Si O2"
_cell_formula_units_Z 120
_cell_length_a 8.980188
_cell_length_b 30.370693
_cell_length_c 25.860293
_cell_angle_alpha 90.000000
_cell_angle_beta 90.000000
_cell_angle_gamma 90.000000
_cell_volume 7052.994930
_symmetry_space_group_name_H-M "C M M A"
_symmetry_group_IT_number 67
_symmetry_cell_setting 'orthorhombic'
loop_
_space_group_symop_operation_xyz
x,y,z
-x,1/2-y,z
x,-y,-z
-x,1/2+y,-z
-x,-y,-z
x,1/2+y,-z
-x,y,z
x,1/2-y,z
1/2+x,1/2+y,z
1/2-x,-y,z
1/2+x,1/2-y,-z
1/2-x,y,-z
1/2-x,1/2-y,-z
1/2+x,y,-z
1/2-x,1/2+y,z
1/2+x,-y,z
loop_
_atom_site_type_symbol
_atom_site_label
_atom_site_fract_x
_atom_site_fract_y
_atom_site_fract_z
Si Si1 0.179015 0.250000 0.442667
Si Si2 0.328606 0.545358 0.163748
Si Si3 0.321514 0.839591 0.556139
Si Si4 0.818717 0.199061 0.747768
Si Si5 0.179956 0.639957 0.152742
Si Si6 0.830127 0.044192 0.288608
Si Si7 0.820948 0.800961 0.054721
Si Si8 0.178166 0.371078 0.664537
O O1 0.250000 0.250000 0.500000
O O2 0.248146 0.205274 0.421878
O O3 0.000000 0.250000 0.443320
O O4 0.500000 0.546160 0.146328
O O5 0.250000 0.500000 0.145918
O O6 0.247560 0.591117 0.150450
O O7 0.328066 0.543881 0.226302
O O8 0.500000 0.834066 0.549831
O O9 0.250000 0.849341 0.500000
O O10 0.290252 0.872327 0.603275
O O11 0.767136 0.250000 0.750346
O O12 0.773947 0.168542 0.796698
O O13 0.773353 0.172811 0.695873
O O14 0.000000 0.200812 0.748766
O O15 0.222187 0.667773 0.101990
O O16 0.000000 0.636291 0.154846
O O17 0.747795 0.087287 0.307827
O O18 0.000000 0.044672 0.306055
O O19 0.750000 0.000000 0.306878
O O20 0.778944 0.750000 0.065554
O O21 0.000000 0.802393 0.050341
O O22 0.750000 0.813665 0.000000
O O23 0.000000 0.372484 0.669750
#
# Coordination Sequence:
#
# PCOD9500608 Si02
#       8
#     8  16  16  16  16  16  16  16
#     4  10  18  30  48  68  92 126 168 214 255 294
#     4  10  20  33  51  76 105 136 171 210 257 310
#     4  10  20  33  50  71  97 131 172 215 255 304
#     4   9  17  29  48  74 103 136 171 208 249 298
#     4  10  18  31  53  77 105 138 176 216 257 305
#     4  10  20  34  54  77 105 134 167 209 256 309
#     4   9  18  32  51  77 106 141 183 223 257 297
#     4  10  20  33  53  77 102 133 172 211 253 307
#
# _framework density 17.014047999999999
#
# number of rings (size 3 to 8) (size 9 to 14) (size 15 to 20)
#    0.000    2.267    1.333    3.000    0.933    4.267 
#    0.000    0.000    0.000    2.800    0.000    5.600 
#    0.000    0.000    0.000    0.000    0.000    0.000 
#
# Total GULP energy -334282.649927 kJ/mol
# GULP energy per Si atom -5571.377499 kJ/mol
# Density = 1.697532 g / cm^3
# Si number density = 17.014048 Si / 1000 Ang^3
#
#
#
# Elastic Constant Matrix: (Units=GPa)
#
#
# Indices 1 2 3 4 5 6 
#
# 1 27.2287 28.9677 34.3513 0.0000 0.0000 0.0000
# 2 28.9677 122.9544 51.8610 0.0000 0.0000 0.0000
# 3 34.3513 51.8610 89.3584 0.0000 0.0000 0.0000
# 4 0.0000 0.0000 0.0000 23.3086 0.0000 0.0000
# 5 0.0000 0.0000 0.0000 0.0000 18.8529 0.0000
# 6 0.0000 0.0000 0.0000 0.0000 0.0000 26.6313
#
#
#
# Elastic Compliance Matrix: (Units=1/GPa)
#
#
# Indices 1 2 3 4 5 6 
#
# 1 0.076075 -0.007399 -0.024951 0.000000 0.000000 0.000000
# 2 -0.007399 0.011489 -0.003824 0.000000 0.000000 0.000000
# 3 -0.024951 -0.003824 0.023002 0.000000 0.000000 0.000000
# 4 0.000000 0.000000 0.000000 0.042903 0.000000 0.000000
# 5 0.000000 0.000000 0.000000 0.000000 0.053042 0.000000
# 6 0.000000 0.000000 0.000000 0.000000 0.000000 0.037550
#
#
# Mechanical properties :
#
#
# Convention : Reuss Voigt Hill
#
# Bulk Modulus (GPa) = 26.16498 52.21127 39.18813
# Shear Modulus (GPa) = 15.19079 22.04930 18.62004
#
# Velocity S-wave (km/s) = 2.99128 3.60383 3.31175
# Velocity P-wave (km/s) = 5.22898 6.93329 6.14055
#
# Compressibility (1/GPa) = 0.03821903
#
# Stress axis : x y z
#
# Youngs Moduli (GPa) = 13.14490 87.03949 43.47533
#
# Poissons Ratio (x) = 0.64401 1.08474
# Poissons Ratio (y) = 0.09726 0.16623
# Poissons Ratio (z) = 0.32797 0.33280
#
# Static dielectric constant tensor:
#      x y z
#    x 1.576780 0.000000 0.000000 
#    y 0.000000 1.580040 0.000000 
#    z 0.000000 0.000000 1.503380 
# 
# From -- ./inp_files/43949.got.cif
#   From: 2010.05.17/outbox.cif.g08.bks.cpg/sg67_22_cif.got.tgz:43949.got - 2010.06.03 18:28:57.
