data_PCOD9500321
_publ_section_title
;
Structure prediction by ZEFSAII (Michael W. Deem and Ramdas Pophale) SiO2 
 PCOD9500321
Probable space group: C M M A
;
_chemical_formula_sum "Si O2"
_cell_formula_units_Z 96
_cell_length_a 8.539089
_cell_length_b 29.829469
_cell_length_c 21.752359
_cell_angle_alpha 90.000000
_cell_angle_beta 90.000000
_cell_angle_gamma 90.000000
_cell_volume 5540.684547
_symmetry_space_group_name_H-M "C M M A"
_symmetry_group_IT_number 67
_symmetry_cell_setting 'orthorhombic'
loop_
_space_group_symop_operation_xyz
x,y,z
-x,1/2-y,z
x,-y,-z
-x,1/2+y,-z
-x,-y,-z
x,1/2+y,-z
-x,y,z
x,1/2-y,z
1/2+x,1/2+y,z
1/2-x,-y,z
1/2+x,1/2-y,-z
1/2-x,y,-z
1/2-x,1/2-y,-z
1/2+x,y,-z
1/2-x,1/2+y,z
1/2+x,-y,z
loop_
_atom_site_type_symbol
_atom_site_label
_atom_site_fract_x
_atom_site_fract_y
_atom_site_fract_z
Si Si1 0.187795 0.449243 0.568593
Si Si2 0.186256 0.551284 0.063575
Si Si3 0.816736 0.299115 0.310567
Si Si4 0.674088 0.803149 0.560091
Si Si5 0.187221 0.550277 0.809611
Si Si6 0.690254 0.103237 0.687464
O O1 0.250000 0.500000 0.581763
O O2 0.250000 0.437517 0.500000
O O3 0.243636 0.416011 0.623235
O O4 0.000000 0.450118 0.567145
O O5 0.250000 0.500000 0.064222
O O6 0.244214 0.571839 0.127937
O O7 0.000000 0.549949 0.061977
O O8 0.250000 0.571839 0.000000
O O9 0.747661 0.250000 0.293892
O O10 0.792778 0.304439 0.383710
O O11 0.752528 0.347258 0.291162
O O12 0.000000 0.297478 0.294971
O O13 0.500000 0.821082 0.574341
O O14 0.653960 0.750000 0.548446
O O15 0.750000 0.824280 0.500000
O O16 0.250000 0.500000 0.807679
O O17 0.230848 0.572011 0.744863
O O18 0.000000 0.550427 0.815026
O O19 0.500000 0.104927 0.681270
#
# Coordination Sequence:
#
# PCOD9500321 Si02
#       6
#    16  16  16  16  16  16
#     4  11  22  37  56  74  95 123 158 201 247 295
#     4  10  17  27  44  67  97 131 164 192 222 265
#     4   9  18  33  50  66  87 117 152 192 238 286
#     4   9  16  26  41  60  80 103 133 172 221 277
#     4  10  19  31  47  69  98 129 160 194 231 273
#     4  10  21  35  51  72  97 125 161 203 245 291
#
# _framework density 17.32638
#
# number of rings (size 3 to 8) (size 9 to 14) (size 15 to 20)
#    0.000    2.167    0.000    6.500    0.000    6.000 
#    0.000    0.000    0.000    0.000    0.000    0.000 
#    0.000    0.667    0.000    1.167    0.000    2.000 
#
# Total GULP energy -267289.076705 kJ/mol
# GULP energy per Si atom -5568.522431 kJ/mol
# Density = 1.728694 g / cm^3
# Si number density = 17.326380 Si / 1000 Ang^3
#
#
#
# Elastic Constant Matrix: (Units=GPa)
#
#
# Indices 1 2 3 4 5 6 
#
# 1 68.3582 14.8752 32.0376 0.0000 0.0000 0.0000
# 2 14.8752 84.2240 40.2306 0.0000 0.0000 0.0000
# 3 32.0376 40.2306 106.8281 0.0000 0.0000 0.0000
# 4 0.0000 0.0000 0.0000 -4.9897 0.0000 0.0000
# 5 0.0000 0.0000 0.0000 0.0000 27.7518 0.0000
# 6 0.0000 0.0000 0.0000 0.0000 0.0000 8.1028
#
#
#
# Elastic Compliance Matrix: (Units=1/GPa)
#
#
# Indices 1 2 3 4 5 6 
#
# 1 0.017054 -0.000694 -0.004853 0.000000 0.000000 0.000000
# 2 -0.000694 0.014506 -0.005255 0.000000 0.000000 0.000000
# 3 -0.004853 -0.005255 0.012795 0.000000 0.000000 0.000000
# 4 0.000000 0.000000 0.000000 -0.200414 0.000000 0.000000
# 5 0.000000 0.000000 0.000000 0.000000 0.036034 0.000000
# 6 0.000000 0.000000 0.000000 0.000000 0.000000 0.123414
#
#
# Mechanical properties :
#
#
# Convention : Reuss Voigt Hill
#
# Bulk Modulus (GPa) = 43.95275 48.18854 46.07065
# Shear Modulus (GPa) = 153.48953 17.65744 85.57349
#
# Velocity S-wave (km/s) = 9.42229 3.19581 7.03536
# Velocity P-wave (km/s) = 11.99147 6.44129 9.62511
#
# Compressibility (1/GPa) = 0.02275171
#
# Stress axis : x y z
#
# Youngs Moduli (GPa) = 58.63578 68.93906 78.15440
#
# Poissons Ratio (x) = 0.04783 0.37931
# Poissons Ratio (y) = 0.04068 0.41067
# Poissons Ratio (z) = 0.28458 0.36225
#
# Static dielectric constant tensor:
#      x y z
#    x 1.597010 0.000000 0.000000 
#    y 0.000000 1.654650 0.000000 
#    z 0.000000 0.000000 1.603700 
# 
# From -- ./inp_files/37166.got.cif
#   From: 2010.05.17/outbox.cif.g08.bks.cpg/sg67_19_cif.got.tgz:37166.got - 2010.06.03 18:28:57.
