data_PCOD9500785
_publ_section_title
;
Structure prediction by ZEFSAII (Michael W. Deem and Ramdas Pophale) SiO2 
 PCOD9500785
Probable space group: C M M A
;
_chemical_formula_sum "Si O2"
_cell_formula_units_Z 72
_cell_length_a 8.612073
_cell_length_b 25.699395
_cell_length_c 21.358374
_cell_angle_alpha 90.000000
_cell_angle_beta 90.000000
_cell_angle_gamma 90.000000
_cell_volume 4727.143531
_symmetry_space_group_name_H-M "C M M A"
_symmetry_group_IT_number 67
_symmetry_cell_setting 'orthorhombic'
loop_
_space_group_symop_operation_xyz
x,y,z
-x,1/2-y,z
x,-y,-z
-x,1/2+y,-z
-x,-y,-z
x,1/2+y,-z
-x,y,z
x,1/2-y,z
1/2+x,1/2+y,z
1/2-x,-y,z
1/2+x,1/2-y,-z
1/2-x,y,-z
1/2-x,1/2-y,-z
1/2+x,y,-z
1/2-x,1/2+y,z
1/2+x,-y,z
loop_
_atom_site_type_symbol
_atom_site_label
_atom_site_fract_x
_atom_site_fract_y
_atom_site_fract_z
Si Si1 0.813367 0.940876 0.299392
Si Si2 0.185563 0.059153 0.563926
Si Si3 0.685517 0.441062 0.831463
Si Si4 0.314107 0.750000 0.071131
Si Si5 0.314265 0.859106 0.929247
O O1 0.773679 0.917530 0.367796
O O2 0.739589 0.918823 0.236152
O O3 0.000000 0.941809 0.293186
O O4 0.750000 0.000000 0.301470
O O5 0.250000 0.083838 0.500000
O O6 0.000000 0.056676 0.559824
O O7 0.250000 0.000000 0.564949
O O8 0.500000 0.442364 0.834408
O O9 0.750000 0.500000 0.836445
O O10 0.754764 0.405750 0.886186
O O11 0.500000 0.750000 0.070894
O O12 0.250036 0.804216 0.097505
O O13 0.250000 0.750000 0.000000
O O14 0.500000 0.857499 0.931475
O O15 0.250000 0.865036 0.000000
#
# Coordination Sequence:
#
# PCOD9500785 Si02
#       5
#    16  16  16   8  16
#     4   9  16  26  38  54  76 107 142 178 215 257
#     4   9  15  21  32  49  71  98 134 174 213 250
#     4  11  21  33  47  65  88 119 153 186 223 267
#     4  10  18  32  52  74  94 114 141 176 219 266
#     4  11  21  35  52  71  92 116 146 183 223 265
#
# _framework density 15.231185999999999
#
# number of rings (size 3 to 8) (size 9 to 14) (size 15 to 20)
#    0.000    2.000    0.000    9.667    0.000    3.111 
#    0.000    2.222    0.000    0.000    0.000    0.000 
#    0.000    0.000    0.000    1.000    0.000   14.000 
#
# Total GULP energy -200505.723466 kJ/mol
# GULP energy per Si atom -5569.603430 kJ/mol
# Density = 1.519652 g / cm^3
# Si number density = 15.231186 Si / 1000 Ang^3
#
#
#
# Elastic Constant Matrix: (Units=GPa)
#
#
# Indices 1 2 3 4 5 6 
#
# 1 139.5698 33.6061 53.7519 0.0000 0.0000 0.0000
# 2 33.6061 56.1233 44.8357 0.0000 0.0000 0.0000
# 3 53.7519 44.8357 124.6552 0.0000 0.0000 0.0000
# 4 0.0000 0.0000 0.0000 -0.9727 0.0000 0.0000
# 5 0.0000 0.0000 0.0000 0.0000 29.2970 0.0000
# 6 0.0000 0.0000 0.0000 0.0000 0.0000 17.1333
#
#
#
# Elastic Compliance Matrix: (Units=1/GPa)
#
#
# Indices 1 2 3 4 5 6 
#
# 1 0.008985 -0.003206 -0.002721 0.000000 0.000000 0.000000
# 2 -0.003206 0.026146 -0.008022 0.000000 0.000000 0.000000
# 3 -0.002721 -0.008022 0.012081 0.000000 0.000000 0.000000
# 4 0.000000 0.000000 0.000000 -1.028051 0.000000 0.000000
# 5 0.000000 0.000000 0.000000 0.000000 0.034133 0.000000
# 6 0.000000 0.000000 0.000000 0.000000 0.000000 0.058366
#
#
# Mechanical properties :
#
#
# Convention : Reuss Voigt Hill
#
# Bulk Modulus (GPa) = 51.77670 64.97064 58.37367
# Shear Modulus (GPa) = -5.85477 21.63516 7.89020
#
# Velocity S-wave (km/s) = -1.96272 3.77298 2.27849
# Velocity P-wave (km/s) = 5.37878 7.85681 6.73278
#
# Compressibility (1/GPa) = 0.01931371
#
# Stress axis : x y z
#
# Youngs Moduli (GPa) = 111.29851 38.24669 82.77683
#
# Poissons Ratio (x) = 0.12263 0.22524
# Poissons Ratio (y) = 0.35685 0.66400
# Poissons Ratio (z) = 0.30285 0.30680
#
# Static dielectric constant tensor:
#      x y z
#    x 1.507730 0.000000 0.000000 
#    y 0.000000 1.501540 0.000000 
#    z 0.000000 0.000000 1.595350 
# 
# From -- ./inp_files/36745.got.cif
#   From: 2010.05.17/outbox.cif.g08.bks.cpg/sg67_19_cif.got.tgz:36745.got - 2010.06.03 18:28:57.
