data_PCOD9500536
_publ_section_title
;
Structure prediction by ZEFSAII (Michael W. Deem and Ramdas Pophale) SiO2 
 PCOD9500536
Probable space group: C M M A
;
_chemical_formula_sum "Si O2"
_cell_formula_units_Z 104
_cell_length_a 7.334952
_cell_length_b 22.614575
_cell_length_c 28.257396
_cell_angle_alpha 90.000000
_cell_angle_beta 90.000000
_cell_angle_gamma 90.000000
_cell_volume 4687.247050
_symmetry_space_group_name_H-M "C M M A"
_symmetry_group_IT_number 67
_symmetry_cell_setting 'orthorhombic'
loop_
_space_group_symop_operation_xyz
x,y,z
-x,1/2-y,z
x,-y,-z
-x,1/2+y,-z
-x,-y,-z
x,1/2+y,-z
-x,y,z
x,1/2-y,z
1/2+x,1/2+y,z
1/2-x,-y,z
1/2+x,1/2-y,-z
1/2-x,y,-z
1/2-x,1/2-y,-z
1/2+x,y,-z
1/2-x,1/2+y,z
1/2+x,-y,z
loop_
_atom_site_type_symbol
_atom_site_label
_atom_site_fract_x
_atom_site_fract_y
_atom_site_fract_z
Si Si1 0.217617 0.069020 0.702770
Si Si2 0.722395 0.619134 0.802911
Si Si3 0.778527 0.750000 0.190935
Si Si4 0.719133 0.650889 0.626113
Si Si5 0.217812 0.750000 0.444399
Si Si6 0.781960 0.750000 0.298501
Si Si7 0.717143 0.934542 0.896406
Si Si8 0.717693 0.314490 0.056189
O O1 0.285477 0.103261 0.749932
O O2 0.284170 0.090271 0.650583
O O3 0.000000 0.079629 0.702209
O O4 0.250000 0.000000 0.709486
O O5 0.500000 0.620004 0.800335
O O6 0.776718 0.683773 0.823371
O O7 0.780218 0.571653 0.841989
O O8 0.716373 0.750000 0.245793
O O9 0.000000 0.750000 0.186506
O O10 0.500000 0.645714 0.619001
O O11 0.786080 0.689608 0.581309
O O12 0.762235 0.694197 0.669901
O O13 0.250000 0.750000 0.500000
O O14 0.000000 0.750000 0.436310
O O15 0.000000 0.750000 0.293997
O O16 0.500000 0.928457 0.895743
O O17 0.788401 0.876657 0.923650
O O18 0.750000 0.000000 0.915938
O O19 0.500000 0.313623 0.064705
O O20 0.785752 0.250000 0.074353
O O21 0.750000 0.314915 0.000000
#
# Coordination Sequence:
#
# PCOD9500536 Si02
#       8
#    16  16   8  16   8   8  16  16
#     4  10  18  29  45  67  95 129 164 194 229 276
#     4   9  17  27  44  71 101 129 161 202 245 288
#     4   9  13  20  40  69  94 118 155 201 239 273
#     4   8  14  25  43  66  92 117 148 188 228 274
#     4   9  17  30  50  74  96 118 145 190 247 293
#     4   8  10  18  37  63  87 108 140 185 227 260
#     4  10  21  35  51  75 105 136 168 206 252 301
#     4   9  19  36  57  79 102 128 164 211 259 304
#
# _framework density 22.187863
#
# number of rings (size 3 to 8) (size 9 to 14) (size 15 to 20)
#    0.000    2.923    1.538    1.385    1.077    0.923 
#    0.000    2.308    0.000    0.462    0.000    5.923 
#    0.000    0.000    0.000    0.000    0.000    0.000 
#
# Total GULP energy -289620.575067 kJ/mol
# GULP energy per Si atom -5569.626444 kJ/mol
# Density = 2.213736 g / cm^3
# Si number density = 22.187863 Si / 1000 Ang^3
#
#
#
# Elastic Constant Matrix: (Units=GPa)
#
#
# Indices 1 2 3 4 5 6 
#
# 1 82.3263 0.3877 -0.1937 0.0000 0.0000 0.0000
# 2 0.3877 175.6131 67.1730 0.0000 0.0000 0.0000
# 3 -0.1937 67.1730 89.3013 0.0000 0.0000 0.0000
# 4 0.0000 0.0000 0.0000 25.3921 0.0000 0.0000
# 5 0.0000 0.0000 0.0000 0.0000 -0.6012 0.0000
# 6 0.0000 0.0000 0.0000 0.0000 0.0000 6.5316
#
#
#
# Elastic Compliance Matrix: (Units=1/GPa)
#
#
# Indices 1 2 3 4 5 6 
#
# 1 0.012147 -0.000052 0.000065 0.000000 0.000000 0.000000
# 2 -0.000052 0.007995 -0.006014 0.000000 0.000000 0.000000
# 3 0.000065 -0.006014 0.015722 0.000000 0.000000 0.000000
# 4 0.000000 0.000000 0.000000 0.039382 0.000000 0.000000
# 5 0.000000 0.000000 0.000000 0.000000 -1.663429 0.000000
# 6 0.000000 0.000000 0.000000 0.000000 0.000000 0.153102
#
#
# Mechanical properties :
#
#
# Convention : Reuss Voigt Hill
#
# Bulk Modulus (GPa) = 41.90563 53.55276 47.72920
# Shear Modulus (GPa) = -3.53325 24.92275 10.69475
#
# Velocity S-wave (km/s) = -1.26328 3.35514 2.19785
# Velocity P-wave (km/s) = 4.09877 6.26081 5.29139
#
# Compressibility (1/GPa) = 0.02386314
#
# Stress axis : x y z
#
# Youngs Moduli (GPa) = 82.32362 125.08161 63.60579
#
# Poissons Ratio (x) = 0.00648 -0.00415
# Poissons Ratio (y) = 0.00426 0.38252
# Poissons Ratio (z) = -0.00538 0.75222
#
# Static dielectric constant tensor:
#      x y z
#    x 1.932430 0.000000 0.000000 
#    y 0.000000 1.890870 0.000000 
#    z 0.000000 0.000000 1.814040 
# 
# From -- ./inp_files/44140.got.cif
#   From: 2010.05.17/outbox.cif.g08.bks.cpg/sg67_23_cif.got.tgz:44140.got - 2010.06.03 18:28:57.
