data_PCOD9500047
_publ_section_title
;
Structure prediction by ZEFSAII (Michael W. Deem and Ramdas Pophale) SiO2 
 PCOD9500047
Probable space group: C C C M
;
_chemical_formula_sum "Si O2"
_cell_formula_units_Z 96
_cell_length_a 7.407544
_cell_length_b 19.136798
_cell_length_c 29.158246
_cell_angle_alpha 90.000000
_cell_angle_beta 90.000000
_cell_angle_gamma 90.000000
_cell_volume 4133.375949
_symmetry_space_group_name_H-M "C C C M"
_symmetry_group_IT_number 66
_symmetry_cell_setting 'orthorhombic'
loop_
_space_group_symop_operation_xyz
x,y,z
-x,-y,z
x,-y,1/2-z
-x,y,1/2-z
-x,-y,-z
x,y,-z
-x,y,1/2+z
x,-y,1/2+z
1/2+x,1/2+y,z
1/2-x,1/2-y,z
1/2+x,1/2-y,1/2-z
1/2-x,1/2+y,1/2-z
1/2-x,1/2-y,-z
1/2+x,1/2+y,-z
1/2-x,1/2+y,1/2+z
1/2+x,1/2-y,1/2+z
loop_
_atom_site_type_symbol
_atom_site_label
_atom_site_fract_x
_atom_site_fract_y
_atom_site_fract_z
Si Si1 0.711491 0.978141 0.550040
Si Si2 0.794238 0.902313 0.887163
Si Si3 0.950025 0.215476 0.552307
Si Si4 0.384097 0.152102 0.596638
Si Si5 0.769417 0.334428 0.294929
Si Si6 0.300463 0.168515 0.695013
O O1 0.786559 0.997342 0.500000
O O2 0.705875 0.895578 0.558177
O O3 0.500000 0.000000 0.549108
O O4 0.797974 0.019647 0.592651
O O5 0.915910 0.854995 0.920014
O O6 0.585021 0.878792 0.894570
O O7 0.826190 0.879580 0.834459
O O8 0.010880 0.207045 0.500000
O O9 0.750000 0.250000 0.550422
O O10 0.071828 0.269825 0.580447
O O11 0.270940 0.143124 0.643420
O O12 0.750000 0.250000 0.301875
O O13 0.715010 0.355539 0.243155
O O14 0.985136 0.343208 0.298889
O O15 0.250000 0.250000 0.693831
#
# Coordination Sequence:
#
# PCOD9500047 Si02
#       6
#    16  16  16  16  16  16
#     4   9  16  25  38  58  87 120 150 185 237 294
#     4   9  15  24  39  62  89 115 147 190 236 279
#     4   9  15  23  39  62  86 113 150 195 236 275
#     4   9  16  26  39  59  88 119 149 185 232 285
#     4   9  16  28  45  67  92 117 151 197 239 275
#     4   9  17  28  44  65  91 123 155 188 233 285
#
# _framework density 23.225569
#
# number of rings (size 3 to 8) (size 9 to 14) (size 15 to 20)
#    0.000    3.000    0.000    3.500    0.000    4.000 
#    0.000    0.833    0.000    7.000    0.000    4.667 
#    0.000   17.333    0.000    1.333    0.000    0.000 
#
# Total GULP energy -267783.233616 kJ/mol
# GULP energy per Si atom -5578.817367 kJ/mol
# Density = 2.317271 g / cm^3
# Si number density = 23.225569 Si / 1000 Ang^3
#
#
#
# Elastic Constant Matrix: (Units=GPa)
#
#
# Indices 1 2 3 4 5 6 
#
# 1 83.3638 7.9408 21.8999 0.0000 0.0000 0.0000
# 2 7.9408 51.0267 39.8810 0.0000 0.0000 0.0000
# 3 21.8999 39.8810 190.5971 0.0000 0.0000 0.0000
# 4 0.0000 0.0000 0.0000 26.2661 0.0000 0.0000
# 5 0.0000 0.0000 0.0000 0.0000 0.8508 0.0000
# 6 0.0000 0.0000 0.0000 0.0000 0.0000 7.7396
#
#
#
# Elastic Compliance Matrix: (Units=1/GPa)
#
#
# Indices 1 2 3 4 5 6 
#
# 1 0.012410 -0.000976 -0.001222 0.000000 0.000000 0.000000
# 2 -0.000976 0.023506 -0.004806 0.000000 0.000000 0.000000
# 3 -0.001222 -0.004806 0.006393 0.000000 0.000000 0.000000
# 4 0.000000 0.000000 0.000000 0.038072 0.000000 0.000000
# 5 0.000000 0.000000 0.000000 0.000000 1.175423 0.000000
# 6 0.000000 0.000000 0.000000 0.000000 0.000000 0.129205
#
#
# Mechanical properties :
#
#
# Convention : Reuss Voigt Hill
#
# Bulk Modulus (GPa) = 35.33604 51.60342 43.46973
# Shear Modulus (GPa) = 3.55000 23.98903 13.76951
#
# Velocity S-wave (km/s) = 1.23766 3.21732 2.43751
# Velocity P-wave (km/s) = 4.15809 6.00567 5.16516
#
# Compressibility (1/GPa) = 0.02829972
#
# Stress axis : x y z
#
# Youngs Moduli (GPa) = 80.58318 42.54240 156.42842
#
# Poissons Ratio (x) = 0.04154 0.19109
# Poissons Ratio (y) = 0.07868 0.75183
# Poissons Ratio (z) = 0.09844 0.20447
#
# Static dielectric constant tensor:
#      x y z
#    x 1.946320 0.000000 0.000000 
#    y 0.000000 1.813110 0.000000 
#    z 0.000000 0.000000 1.902620 
# 
# From -- ./inp_files/62582.got.cif
#   From: 2010.05.17/outbox.cif.g08.bks.cpg/sg66_32_cif.got.tgz:62582.got - 2010.06.03 17:51:23.
