data_PCOD9500225
_publ_section_title
;
Structure prediction by ZEFSAII (Michael W. Deem and Ramdas Pophale) SiO2 
 PCOD9500225
Probable space group: C M M A
;
_chemical_formula_sum "Si O2"
_cell_formula_units_Z 56
_cell_length_a 19.338736
_cell_length_b 14.627513
_cell_length_c 11.837022
_cell_angle_alpha 90.000000
_cell_angle_beta 90.000000
_cell_angle_gamma 90.000000
_cell_volume 3348.428519
_symmetry_space_group_name_H-M "C M M A"
_symmetry_group_IT_number 67
_symmetry_cell_setting 'orthorhombic'
loop_
_space_group_symop_operation_xyz
x,y,z
-x,1/2-y,z
x,-y,-z
-x,1/2+y,-z
-x,-y,-z
x,1/2+y,-z
-x,y,z
x,1/2-y,z
1/2+x,1/2+y,z
1/2-x,-y,z
1/2+x,1/2-y,-z
1/2-x,y,-z
1/2-x,1/2-y,-z
1/2+x,y,-z
1/2-x,1/2+y,z
1/2+x,-y,z
loop_
_atom_site_type_symbol
_atom_site_label
_atom_site_fract_x
_atom_site_fract_y
_atom_site_fract_z
Si Si1 0.581998 0.750000 0.440021
Si Si2 0.676742 0.399089 0.451372
Si Si3 0.841045 0.250000 0.204681
Si Si4 0.778041 0.900453 0.196137
Si Si5 0.670474 0.750000 0.959334
O O1 0.500000 0.750000 0.445937
O O2 0.615906 0.664084 0.504124
O O3 0.607496 0.750000 0.309724
O O4 0.668401 0.500000 0.500000
O O5 0.750000 0.362536 0.500000
O O6 0.685254 0.406720 0.317254
O O7 0.790026 0.162594 0.212932
O O8 0.871243 0.250000 0.076584
O O9 0.829502 0.842882 0.114404
O O10 0.750000 0.000000 0.158442
O O11 0.750000 0.750000 0.000000
#
# Coordination Sequence:
#
# PCOD9500225 Si02
#       5
#     8  16   8  16   8
#     4  12  23  34  52  75 109 153 180 212 261 318
#     4  11  19  33  55  81 106 138 174 218 274 320
#     4  10  19  32  44  70 105 131 175 217 253 309
#     4  10  16  29  52  77 102 128 162 216 278 309
#     4   8  19  27  42  72 101 128 165 213 252 308
#
# _framework density 16.724264000000002
#
# number of rings (size 3 to 8) (size 9 to 14) (size 15 to 20)
#    0.000    2.000    5.714    2.143    0.000    5.714 
#    0.000    0.000    0.000    3.429    0.000    8.000 
#    0.000    0.000    0.000    0.000    0.000    0.000 
#
# Total GULP energy -155953.887314 kJ/mol
# GULP energy per Si atom -5569.781690 kJ/mol
# Density = 1.668620 g / cm^3
# Si number density = 16.724264 Si / 1000 Ang^3
#
#
#
# Elastic Constant Matrix: (Units=GPa)
#
#
# Indices 1 2 3 4 5 6 
#
# 1 80.7680 41.7518 19.0826 0.0000 0.0000 0.0000
# 2 41.7518 138.1183 48.7793 0.0000 0.0000 0.0000
# 3 19.0826 48.7793 137.9128 0.0000 0.0000 0.0000
# 4 0.0000 0.0000 0.0000 32.5207 0.0000 0.0000
# 5 0.0000 0.0000 0.0000 0.0000 14.1378 0.0000
# 6 0.0000 0.0000 0.0000 0.0000 0.0000 -212.6324
#
#
#
# Elastic Compliance Matrix: (Units=1/GPa)
#
#
# Indices 1 2 3 4 5 6 
#
# 1 0.014708 -0.004259 -0.000529 0.000000 0.000000 0.000000
# 2 -0.004259 0.009507 -0.002773 0.000000 0.000000 0.000000
# 3 -0.000529 -0.002773 0.008305 0.000000 0.000000 0.000000
# 4 0.000000 0.000000 0.000000 0.030750 0.000000 0.000000
# 5 0.000000 0.000000 0.000000 0.000000 0.070732 0.000000
# 6 0.000000 0.000000 0.000000 0.000000 0.000000 -0.004703
#
#
# Mechanical properties :
#
#
# Convention : Reuss Voigt Hill
#
# Bulk Modulus (GPa) = 57.47928 64.00293 60.74111
# Shear Modulus (GPa) = 33.28434 -16.71577 8.28429
#
# Velocity S-wave (km/s) = 4.46599 -3.16490 2.22805
# Velocity P-wave (km/s) = 7.81260 4.99971 6.55873
#
# Compressibility (1/GPa) = 0.01739757
#
# Stress axis : x y z
#
# Youngs Moduli (GPa) = 67.99104 105.18361 120.40932
#
# Poissons Ratio (x) = 0.44801 0.06364
# Poissons Ratio (y) = 0.28960 0.33393
# Poissons Ratio (z) = 0.03594 0.29171
#
# Static dielectric constant tensor:
#      x y z
#    x 1.517830 0.000000 0.000000 
#    y 0.000000 1.661820 0.000000 
#    z 0.000000 0.000000 1.649940 
# 
# From -- ./inp_files/18921.got.cif
#   From: 2010.05.17/outbox.cif.g08.bks.cpg/sg67_10_cif.got.tgz:18921.got - 2010.06.03 18:28:57.
