data_PCOD9500077
_publ_section_title
;
Structure prediction by ZEFSAII (Michael W. Deem and Ramdas Pophale) SiO2 
 PCOD9500077
Probable space group: C C C M
;
_chemical_formula_sum "Si O2"
_cell_formula_units_Z 56
_cell_length_a 15.000000
_cell_length_b 24.000000
_cell_length_c 15.000000
_cell_angle_alpha 90.000000
_cell_angle_beta 90.000000
_cell_angle_gamma 90.000000
_cell_volume 5400.000000
_symmetry_space_group_name_H-M "C C C M"
_symmetry_group_IT_number 66
_symmetry_cell_setting 'orthorhombic'
loop_
_space_group_symop_operation_xyz
x,y,z
-x,-y,z
x,-y,1/2-z
-x,y,1/2-z
-x,-y,-z
x,y,-z
-x,y,1/2+z
x,-y,1/2+z
1/2+x,1/2+y,z
1/2-x,1/2-y,z
1/2+x,1/2-y,1/2-z
1/2-x,1/2+y,1/2-z
1/2-x,1/2-y,-z
1/2+x,1/2+y,-z
1/2-x,1/2+y,1/2+z
1/2+x,1/2-y,1/2+z
loop_
_atom_site_type_symbol
_atom_site_label
_atom_site_fract_x
_atom_site_fract_y
_atom_site_fract_z
Si Si1 0.942749 0.375405 0.108917
Si Si2 0.331406 0.626964 0.395866
Si Si3 0.647703 0.240325 0.108733
Si Si4 0.696997 0.027232 0.891747
Si Si5 0.125656 0.059505 0.718352
Si Si6 0.972324 0.846131 0.394854
Si Si7 0.641069 0.901255 0.893488
O O1 0.894290 0.318433 0.138827
O O2 0.881752 0.429012 0.130310
O O3 0.044708 0.382323 0.141978
O O4 0.945282 0.372664 0.000000
O O5 0.334966 0.605290 0.500000
O O6 0.348324 0.587139 0.312299
O O7 0.420764 0.664825 0.389346
O O8 0.226101 0.640157 0.382033
O O9 0.750000 0.250000 0.138163
O O10 0.585306 0.292580 0.133774
O O11 0.649173 0.239054 0.000000
O O12 0.786810 0.047257 0.842470
O O13 0.669212 0.964108 0.864945
O O14 0.709959 0.028025 0.000000
O O15 0.060658 0.100768 0.662887
O O16 0.090420 0.000000 0.750000
O O17 0.953351 0.857098 0.500000
O O18 0.628670 0.906088 0.000000
#
# Coordination Sequence:
#
# PCOD9500077 Si02
#       7
#    16  16  16  16  16  16  16
#     4   9  17  31  60  93 123 162 205 247 304 371
#     4  10  22  40  58  81 119 161 202 250 300 361
#     4   9  17  33  59  93 125 157 201 252 305 368
#     4  10  19  34  58  93 130 160 196 249 310 366
#     4  12  23  37  59  88 118 159 203 247 308 374
#     4  10  22  39  61  89 123 158 199 255 314 369
#     4   9  17  33  55  85 125 165 200 240 296 364
#
# _framework density 10.370369999999999
#
# number of rings (size 3 to 8) (size 9 to 14) (size 15 to 20)
#    0.000    2.143    1.429    2.143    0.000    5.714 
#    0.000    2.857    0.000   12.857    0.000    0.000 
#    0.000    0.000    0.000    0.000    0.000    0.000 
#
# Total GULP energy -312338.492447 kJ/mol
# GULP energy per Si atom -5577.473079 kJ/mol
# Density = 1.034677 g / cm^3
# Si number density = 10.370370 Si / 1000 Ang^3
#
#
#
# Elastic Constant Matrix: (Units=GPa)
#
#
# Indices 1 2 3 4 5 6 
#
# 1 226.8506 76.5064 18.7743 0.0000 0.0000 0.0000
# 2 76.5064 92.3356 4.1371 0.0000 0.0000 0.0000
# 3 18.7743 4.1371 47.1614 0.0000 0.0000 0.0000
# 4 0.0000 0.0000 0.0000 17.7054 0.0000 0.0000
# 5 0.0000 0.0000 0.0000 0.0000 13.8474 0.0000
# 6 0.0000 0.0000 0.0000 0.0000 0.0000 29.7034
#
#
#
# Elastic Compliance Matrix: (Units=1/GPa)
#
#
# Indices 1 2 3 4 5 6 
#
# 1 0.006311 -0.005137 -0.002062 0.000000 0.000000 0.000000
# 2 -0.005137 0.015054 0.000724 0.000000 0.000000 0.000000
# 3 -0.002062 0.000724 0.021961 0.000000 0.000000 0.000000
# 4 0.000000 0.000000 0.000000 0.056480 0.000000 0.000000
# 5 0.000000 0.000000 0.000000 0.000000 0.072216 0.000000
# 6 0.000000 0.000000 0.000000 0.000000 0.000000 0.033666
#
#
# Mechanical properties :
#
#
# Convention : Reuss Voigt Hill
#
# Bulk Modulus (GPa) = 32.91913 62.79812 47.85863
# Shear Modulus (GPa) = 21.85670 30.04654 25.95162
#
# Velocity S-wave (km/s) = 3.24976 3.81027 3.54112
# Velocity P-wave (km/s) = 5.47608 7.04989 6.31223
#
# Compressibility (1/GPa) = 0.03037748
#
# Stress axis : x y z
#
# Youngs Moduli (GPa) = 158.44631 66.42786 45.53519
#
# Poissons Ratio (x) = 0.34124 0.09388
# Poissons Ratio (y) = 0.81393 -0.03298
# Poissons Ratio (z) = 0.32669 -0.04812
#
# Static dielectric constant tensor:
#      x y z
#    x 1.778740 0.000000 0.000000 
#    y 0.000000 1.726120 0.000000 
#    z 0.000000 0.000000 1.750410 
# 
# From -- ./inp_files/28683.got.cif
#   From: 2010.05.17/outbox.ucp.g08.bks.cvg/sg66_15_cif.got.tgz:28683.got - 2010.06.11 16:44:13.
