data_PCOD9500475
_publ_section_title
;
Structure prediction by ZEFSAII (Michael W. Deem and Ramdas Pophale) SiO2 
 PCOD9500475
Probable space group: C M M A
;
_chemical_formula_sum "Si O2"
_cell_formula_units_Z 80
_cell_length_a 12.942203
_cell_length_b 14.108069
_cell_length_c 16.150410
_cell_angle_alpha 90.000000
_cell_angle_beta 90.000000
_cell_angle_gamma 90.000000
_cell_volume 2948.895173
_symmetry_space_group_name_H-M "C M M A"
_symmetry_group_IT_number 67
_symmetry_cell_setting 'orthorhombic'
loop_
_space_group_symop_operation_xyz
x,y,z
-x,1/2-y,z
x,-y,-z
-x,1/2+y,-z
-x,-y,-z
x,1/2+y,-z
-x,y,z
x,1/2-y,z
1/2+x,1/2+y,z
1/2-x,-y,z
1/2+x,1/2-y,-z
1/2-x,y,-z
1/2-x,1/2-y,-z
1/2+x,y,-z
1/2-x,1/2+y,z
1/2+x,-y,z
loop_
_atom_site_type_symbol
_atom_site_label
_atom_site_fract_x
_atom_site_fract_y
_atom_site_fract_z
Si Si1 0.179271 0.863627 0.216544
Si Si2 0.377758 0.138546 0.037117
Si Si3 0.116993 0.633764 0.855442
Si Si4 0.386092 0.882412 0.421540
Si Si5 0.654213 0.605909 0.604871
O O1 0.177681 0.750000 0.210524
O O2 0.136949 0.901736 0.129095
O O3 0.299852 0.895037 0.213299
O O4 0.119876 0.883182 0.300783
O O5 0.500000 0.134320 0.022526
O O6 0.349574 0.250000 0.041906
O O7 0.339411 0.104269 0.946739
O O8 0.113988 0.750000 0.857197
O O9 0.000000 0.601606 0.841018
O O10 0.500000 0.858320 0.385836
O O11 0.388685 0.854557 0.518697
O O12 0.272042 0.853589 0.391027
O O13 0.367671 0.995061 0.411837
#
# Coordination Sequence:
#
# PCOD9500475 Si02
#       5
#    16  16  16  16  16
#     4  10  18  27  43  71 106 130 146 185 236 276
#     4   8  14  24  38  60  94 135 169 187 208 256
#     4   8  14  25  40  60  93 138 173 184 201 254
#     4   9  18  35  54  66  84 114 151 202 244 271
#     4   9  18  31  51  76  89 110 157 193 231 290
#
# _framework density 27.128802
#
# number of rings (size 3 to 8) (size 9 to 14) (size 15 to 20)
#    0.000    3.200    0.000    4.200    0.000    4.800 
#    0.000    2.000    0.000    1.200    0.000   11.200 
#    0.000   19.200    0.000    0.000    0.000    0.000 
#
# Total GULP energy -222966.002693 kJ/mol
# GULP energy per Si atom -5574.150067 kJ/mol
# Density = 2.706706 g / cm^3
# Si number density = 27.128802 Si / 1000 Ang^3
#
#
#
# Elastic Constant Matrix: (Units=GPa)
#
#
# Indices 1 2 3 4 5 6 
#
# 1 138.6080 5.9427 34.2688 0.0000 0.0000 0.0000
# 2 5.9427 103.6268 17.0405 0.0000 0.0000 0.0000
# 3 34.2688 17.0405 193.4837 0.0000 0.0000 0.0000
# 4 0.0000 0.0000 0.0000 40.0996 0.0000 0.0000
# 5 0.0000 0.0000 0.0000 0.0000 3.9621 0.0000
# 6 0.0000 0.0000 0.0000 0.0000 0.0000 -6.0252
#
#
#
# Elastic Compliance Matrix: (Units=1/GPa)
#
#
# Indices 1 2 3 4 5 6 
#
# 1 0.007550 -0.000216 -0.001318 0.000000 0.000000 0.000000
# 2 -0.000216 0.009798 -0.000825 0.000000 0.000000 0.000000
# 3 -0.001318 -0.000825 0.005474 0.000000 0.000000 0.000000
# 4 0.000000 0.000000 0.000000 0.024938 0.000000 0.000000
# 5 0.000000 0.000000 0.000000 0.000000 0.252393 0.000000
# 6 0.000000 0.000000 0.000000 0.000000 0.000000 -0.165971
#
#
# Mechanical properties :
#
#
# Convention : Reuss Voigt Hill
#
# Bulk Modulus (GPa) = 55.23545 61.13581 58.18563
# Shear Modulus (GPa) = 34.49813 32.83842 33.66827
#
# Velocity S-wave (km/s) = 3.56988 3.48295 3.52668
# Velocity P-wave (km/s) = 6.11528 6.22566 6.17072
#
# Compressibility (1/GPa) = 0.01810431
#
# Stress axis : x y z
#
# Youngs Moduli (GPa) = 132.45471 102.06149 182.66575
#
# Poissons Ratio (x) = 0.02207 0.24078
# Poissons Ratio (y) = 0.02864 0.15063
# Poissons Ratio (z) = 0.17459 0.08416
#
# Static dielectric constant tensor:
#      x y z
#    x 2.163980 0.000000 0.000000 
#    y 0.000000 2.130410 0.000000 
#    z 0.000000 0.000000 2.076960 
# 
# From -- ./inp_files/26970.got.cif
#   From: 2010.05.17/outbox.cif.g08.bks.cpg/sg67_14_cif.got.tgz:26970.got - 2010.06.03 18:28:57.
