data_PCOD9500872
_publ_section_title
;
Structure prediction by ZEFSAII (Michael W. Deem and Ramdas Pophale) SiO2 
 PCOD9500872
Probable space group: C M M A
;
_chemical_formula_sum "Si O2"
_cell_formula_units_Z 88
_cell_length_a 11.046880
_cell_length_b 15.140495
_cell_length_c 26.874393
_cell_angle_alpha 90.000000
_cell_angle_beta 90.000000
_cell_angle_gamma 90.000000
_cell_volume 4494.882820
_symmetry_space_group_name_H-M "C M M A"
_symmetry_group_IT_number 67
_symmetry_cell_setting 'orthorhombic'
loop_
_space_group_symop_operation_xyz
x,y,z
-x,1/2-y,z
x,-y,-z
-x,1/2+y,-z
-x,-y,-z
x,1/2+y,-z
-x,y,z
x,1/2-y,z
1/2+x,1/2+y,z
1/2-x,-y,z
1/2+x,1/2-y,-z
1/2-x,y,-z
1/2-x,1/2-y,-z
1/2+x,y,-z
1/2-x,1/2+y,z
1/2+x,-y,z
loop_
_atom_site_type_symbol
_atom_site_label
_atom_site_fract_x
_atom_site_fract_y
_atom_site_fract_z
Si Si1 0.794435 0.250000 0.444017
Si Si2 0.142731 0.563249 0.905637
Si Si3 0.863744 0.750000 0.963398
Si Si4 0.359253 0.845040 0.191363
Si Si5 0.205234 0.404028 0.299161
Si Si6 0.641487 0.750000 0.655127
Si Si7 0.130572 0.060229 0.409388
O O1 0.750000 0.250000 0.500000
O O2 0.692308 0.250000 0.400990
O O3 0.860475 0.343533 0.434674
O O4 0.250000 0.500000 0.926317
O O5 0.144142 0.659770 0.931437
O O6 0.180909 0.583109 0.848319
O O7 0.000000 0.531561 0.908825
O O8 0.000000 0.750000 0.986388
O O9 0.750000 0.750000 0.000000
O O10 0.500000 0.837012 0.178803
O O11 0.298050 0.750000 0.183226
O O12 0.353234 0.865543 0.249756
O O13 0.250000 0.500000 0.284313
O O14 0.307884 0.336035 0.316941
O O15 0.132035 0.420090 0.350109
O O16 0.500000 0.750000 0.654642
O O17 0.000000 0.018380 0.422367
O O18 0.250000 0.000000 0.419958
#
# Coordination Sequence:
#
# PCOD9500872 Si02
#       7
#     8  16   8  16  16   8  16
#     4  10  23  41  61  85 110 146 194 244 296 355
#     4  10  21  39  62  89 122 160 203 249 300 357
#     4  10  22  41  64  89 121 160 202 253 309 364
#     4  10  18  32  57  83 113 156 198 237 285 345
#     4  10  20  34  56  82 114 154 194 233 281 345
#     4  10  22  38  55  80 117 152 186 241 304 353
#     4  10  22  40  61  88 119 151 191 238 287 345
#
# _framework density 19.577818000000001
#
# number of rings (size 3 to 8) (size 9 to 14) (size 15 to 20)
#    0.000    2.000    1.818    1.364    0.000    9.455 
#    0.000    3.636    0.000    0.000    0.000    0.000 
#    0.000    0.000    0.000    0.000    0.000    0.000 
#
# Total GULP energy -244968.135293 kJ/mol
# GULP energy per Si atom -5567.457620 kJ/mol
# Density = 1.953326 g / cm^3
# Si number density = 19.577818 Si / 1000 Ang^3
#
#
#
# Elastic Constant Matrix: (Units=GPa)
#
#
# Indices 1 2 3 4 5 6 
#
# 1 141.8727 68.6126 27.6584 0.0000 0.0000 0.0000
# 2 68.6126 111.1167 13.9935 0.0000 0.0000 0.0000
# 3 27.6584 13.9935 61.9337 0.0000 0.0000 0.0000
# 4 0.0000 0.0000 0.0000 8.7274 0.0000 0.0000
# 5 0.0000 0.0000 0.0000 0.0000 -266.5224 0.0000
# 6 0.0000 0.0000 0.0000 0.0000 0.0000 20.8862
#
#
#
# Elastic Compliance Matrix: (Units=1/GPa)
#
#
# Indices 1 2 3 4 5 6 
#
# 1 0.010696 -0.006179 -0.003380 0.000000 0.000000 0.000000
# 2 -0.006179 0.012832 -0.000140 0.000000 0.000000 0.000000
# 3 -0.003380 -0.000140 0.017688 0.000000 0.000000 0.000000
# 4 0.000000 0.000000 0.000000 0.114581 0.000000 0.000000
# 5 0.000000 0.000000 0.000000 0.000000 -0.003752 0.000000
# 6 0.000000 0.000000 0.000000 0.000000 0.000000 0.047879
#
#
# Mechanical properties :
#
#
# Convention : Reuss Voigt Hill
#
# Bulk Modulus (GPa) = 45.83543 59.49469 52.66506
# Shear Modulus (GPa) = 22.06582 -33.73784 -5.83601
#
# Velocity S-wave (km/s) = 3.36085 -4.15573 -1.72841
# Velocity P-wave (km/s) = 6.20670 2.72544 4.79328
#
# Compressibility (1/GPa) = 0.02181718
#
# Stress axis : x y z
#
# Youngs Moduli (GPa) = 93.49498 77.92749 56.53680
#
# Poissons Ratio (x) = 0.48149 0.19112
# Poissons Ratio (y) = 0.57768 0.00792
# Poissons Ratio (z) = 0.31606 0.01092
#
# Static dielectric constant tensor:
#      x y z
#    x 1.710120 0.000000 0.000000 
#    y 0.000000 1.730600 0.000000 
#    z 0.000000 0.000000 1.692190 
# 
# From -- ./inp_files/41430.got.cif
#   From: 2010.05.17/outbox.cif.g08.bks.cpg/sg67_21_cif.got.tgz:41430.got - 2010.06.03 18:28:57.
