data_PCOD9500391
_publ_section_title
;
Structure prediction by ZEFSAII (Michael W. Deem and Ramdas Pophale) SiO2 
 PCOD9500391
Probable space group: C M M A
;
_chemical_formula_sum "Si O2"
_cell_formula_units_Z 52
_cell_length_a 35.954706
_cell_length_b 7.830525
_cell_length_c 7.287147
_cell_angle_alpha 90.000000
_cell_angle_beta 90.000000
_cell_angle_gamma 90.000000
_cell_volume 2051.654149
_symmetry_space_group_name_H-M "C M M A"
_symmetry_group_IT_number 67
_symmetry_cell_setting 'orthorhombic'
loop_
_space_group_symop_operation_xyz
x,y,z
-x,1/2-y,z
x,-y,-z
-x,1/2+y,-z
-x,-y,-z
x,1/2+y,-z
-x,y,z
x,1/2-y,z
1/2+x,1/2+y,z
1/2-x,-y,z
1/2+x,1/2-y,-z
1/2-x,y,-z
1/2-x,1/2-y,-z
1/2+x,y,-z
1/2-x,1/2+y,z
1/2+x,-y,z
loop_
_atom_site_type_symbol
_atom_site_label
_atom_site_fract_x
_atom_site_fract_y
_atom_site_fract_z
Si Si1 0.630120 0.446558 0.287162
Si Si2 0.949314 0.553679 0.793709
Si Si3 0.290373 0.549256 0.283989
Si Si4 0.500000 0.250000 0.345325
O O1 0.632609 0.500000 0.500000
O O2 0.620014 0.250000 0.270994
O O3 0.595401 0.549713 0.210854
O O4 0.671624 0.469453 0.209031
O O5 0.960714 0.750000 0.750772
O O6 0.967734 0.403697 0.673389
O O7 0.960220 0.500000 0.000000
O O8 0.288981 0.500000 0.500000
O O9 0.294656 0.750000 0.270606
O O10 0.250000 0.500000 0.207547
#
# Coordination Sequence:
#
# PCOD9500391 Si02
#       4
#    16  16  16   4
#     4  11  21  38  59  87 123 159 195 243 298 354
#     4  12  24  41  66  91 117 154 198 248 294 355
#     4  10  17  28  48  79 112 153 195 239 283 339
#     4  12  24  44  64  92 116 150 204 244 304 338
#
# _framework density 25.345400000000001
#
# number of rings (size 3 to 8) (size 9 to 14) (size 15 to 20)
#    0.000    0.923    3.077    9.231    0.000    0.000 
#    0.000    0.769    0.000    0.923    0.000    6.462 
#    0.000    0.000    0.000    0.000    0.000    0.000 
#
# Total GULP energy -145009.235113 kJ/mol
# GULP energy per Si atom -5577.278274 kJ/mol
# Density = 2.528771 g / cm^3
# Si number density = 25.345400 Si / 1000 Ang^3
#
#
#
# Elastic Constant Matrix: (Units=GPa)
#
#
# Indices 1 2 3 4 5 6 
#
# 1 261.7709 41.7922 5.5749 0.0000 0.0000 0.0000
# 2 41.7922 243.6424 4.2170 0.0000 0.0000 0.0000
# 3 5.5749 4.2170 83.3120 0.0000 0.0000 0.0000
# 4 0.0000 0.0000 0.0000 13.0666 0.0000 0.0000
# 5 0.0000 0.0000 0.0000 0.0000 -861.8429 0.0000
# 6 0.0000 0.0000 0.0000 0.0000 0.0000 -452.1595
#
#
#
# Elastic Compliance Matrix: (Units=1/GPa)
#
#
# Indices 1 2 3 4 5 6 
#
# 1 0.003932 -0.000671 -0.000229 0.000000 0.000000 0.000000
# 2 -0.000671 0.004222 -0.000169 0.000000 0.000000 0.000000
# 3 -0.000229 -0.000169 0.012027 0.000000 0.000000 0.000000
# 4 0.000000 0.000000 0.000000 0.076531 0.000000 0.000000
# 5 0.000000 0.000000 0.000000 0.000000 -0.001160 0.000000
# 6 0.000000 0.000000 0.000000 0.000000 0.000000 -0.002212
#
#
# Mechanical properties :
#
#
# Convention : Reuss Voigt Hill
#
# Bulk Modulus (GPa) = 55.41929 76.87705 66.14817
# Shear Modulus (GPa) = 49.26475 -224.37775 -87.55650
#
# Velocity S-wave (km/s) = 4.41356 -9.41914 -5.88390
# Velocity P-wave (km/s) = 6.91996 9.37529 4.47270
#
# Compressibility (1/GPa) = 0.01804426
#
# Stress axis : x y z
#
# Youngs Moduli (GPa) = 254.31950 236.83720 83.14659
#
# Poissons Ratio (x) = 0.15880 0.01906
# Poissons Ratio (y) = 0.17052 0.01404
# Poissons Ratio (z) = 0.05828 0.03999
#
# Static dielectric constant tensor:
#      x y z
#    x -11.904210 0.000000 0.000000 
#    y 0.000000 1.900560 0.000000 
#    z 0.000000 0.000000 2.054160 
# 
# From -- ./inp_files/23319.got.cif
#   From: 2010.05.17/outbox.cif.g08.bks.cpg/sg67_12_cif.got.tgz:23319.got - 2010.06.03 18:28:57.
