data_PCOD9500645
_publ_section_title
;
Structure prediction by ZEFSAII (Michael W. Deem and Ramdas Pophale) SiO2 
 PCOD9500645
Probable space group: C M M A
;
_chemical_formula_sum "Si O2"
_cell_formula_units_Z 72
_cell_length_a 10.619596
_cell_length_b 15.040039
_cell_length_c 23.176892
_cell_angle_alpha 90.000000
_cell_angle_beta 90.000000
_cell_angle_gamma 90.000000
_cell_volume 3701.793212
_symmetry_space_group_name_H-M "C M M A"
_symmetry_group_IT_number 67
_symmetry_cell_setting 'orthorhombic'
loop_
_space_group_symop_operation_xyz
x,y,z
-x,1/2-y,z
x,-y,-z
-x,1/2+y,-z
-x,-y,-z
x,1/2+y,-z
-x,y,z
x,1/2-y,z
1/2+x,1/2+y,z
1/2-x,-y,z
1/2+x,1/2-y,-z
1/2-x,y,-z
1/2-x,1/2-y,-z
1/2+x,y,-z
1/2-x,1/2+y,z
1/2+x,-y,z
loop_
_atom_site_type_symbol
_atom_site_label
_atom_site_fract_x
_atom_site_fract_y
_atom_site_fract_z
Si Si1 0.000000 0.108940 0.065509
Si Si2 0.645487 0.069693 0.621642
Si Si3 0.356861 0.250000 0.548085
Si Si4 0.000000 0.108676 0.932104
Si Si5 0.856451 0.853846 0.746790
Si Si6 0.250933 0.892925 0.132529
O O1 0.874471 0.138867 0.098344
O O2 0.000000 0.000210 0.067047
O O3 0.000000 0.136173 0.998799
O O4 0.500000 0.038323 0.615796
O O5 0.655535 0.161982 0.587126
O O6 0.669007 0.091162 0.689153
O O7 0.750000 0.000000 0.601442
O O8 0.500000 0.250000 0.524020
O O9 0.250000 0.250000 0.500000
O O10 0.124490 0.138224 0.898462
O O11 0.854371 0.750000 0.731038
O O12 0.765309 0.868889 0.800526
O O13 0.000000 0.875750 0.766071
O O14 0.250000 0.000000 0.129360
#
# Coordination Sequence:
#
# PCOD9500645 Si02
#       6
#     8  16   8   8  16  16
#     4   9  16  30  47  73  99 139 183 228 287 359
#     4  10  21  40  65  94 126 167 212 259 306 356
#     4  10  22  42  68  96 136 176 211 251 298 356
#     4   9  18  28  47  71 107 135 173 238 297 351
#     4  10  19  35  58  79 109 151 199 241 294 364
#     4  10  18  30  50  76 102 135 184 236 293 355
#
# _framework density 19.450035
#
# number of rings (size 3 to 8) (size 9 to 14) (size 15 to 20)
#    0.000    2.222    2.222    1.333    0.000    4.000 
#    2.000    2.778    0.000    4.000    0.000    0.000 
#    0.000    0.000    0.000    0.000    0.000    0.000 
#
# Total GULP energy -201028.116280 kJ/mol
# GULP energy per Si atom -5584.114341 kJ/mol
# Density = 1.940577 g / cm^3
# Si number density = 19.450035 Si / 1000 Ang^3
#
#
#
# Elastic Constant Matrix: (Units=GPa)
#
#
# Indices 1 2 3 4 5 6 
#
# 1 158.4087 49.1777 70.5595 0.0000 0.0000 0.0000
# 2 49.1777 71.1268 11.1598 0.0000 0.0000 0.0000
# 3 70.5595 11.1598 89.5216 0.0000 0.0000 0.0000
# 4 0.0000 0.0000 0.0000 17.4215 0.0000 0.0000
# 5 0.0000 0.0000 0.0000 0.0000 31.1600 0.0000
# 6 0.0000 0.0000 0.0000 0.0000 0.0000 14.7462
#
#
#
# Elastic Compliance Matrix: (Units=1/GPa)
#
#
# Indices 1 2 3 4 5 6 
#
# 1 0.012593 -0.007292 -0.009016 0.000000 0.000000 0.000000
# 2 -0.007292 0.018562 0.003433 0.000000 0.000000 0.000000
# 3 -0.009016 0.003433 0.017849 0.000000 0.000000 0.000000
# 4 0.000000 0.000000 0.000000 0.057400 0.000000 0.000000
# 5 0.000000 0.000000 0.000000 0.000000 0.032092 0.000000
# 6 0.000000 0.000000 0.000000 0.000000 0.000000 0.067814
#
#
# Mechanical properties :
#
#
# Convention : Reuss Voigt Hill
#
# Bulk Modulus (GPa) = 43.00270 64.53901 53.77086
# Shear Modulus (GPa) = 20.84964 25.20954 23.02959
#
# Velocity S-wave (km/s) = 3.27763 3.60407 3.44472
# Velocity P-wave (km/s) = 6.03996 7.11148 6.59751
#
# Compressibility (1/GPa) = 0.02325435
#
# Stress axis : x y z
#
# Youngs Moduli (GPa) = 79.41099 53.87214 56.02549
#
# Poissons Ratio (x) = 0.39284 0.50515
# Poissons Ratio (y) = 0.57907 -0.19236
# Poissons Ratio (z) = 0.71600 -0.18497
#
# Static dielectric constant tensor:
#      x y z
#    x 1.668590 0.000000 0.000000 
#    y 0.000000 1.695710 0.000000 
#    z 0.000000 0.000000 1.649490 
# 
# From -- ./inp_files/43144.got.cif
#   From: 2010.05.17/outbox.cif.g08.bks.cpg/sg67_22_cif.got.tgz:43144.got - 2010.06.03 18:28:57.
