data_PCOD9500979
_publ_section_title
;
Structure prediction by ZEFSAII (Michael W. Deem and Ramdas Pophale) SiO2 
 PCOD9500979
Probable space group: C M M A
;
_chemical_formula_sum "Si O2"
_cell_formula_units_Z 108
_cell_length_a 28.168510
_cell_length_b 32.125829
_cell_length_c 5.294542
_cell_angle_alpha 90.000000
_cell_angle_beta 90.000000
_cell_angle_gamma 90.000000
_cell_volume 4791.225553
_symmetry_space_group_name_H-M "C M M A"
_symmetry_group_IT_number 67
_symmetry_cell_setting 'orthorhombic'
loop_
_space_group_symop_operation_xyz
x,y,z
-x,1/2-y,z
x,-y,-z
-x,1/2+y,-z
-x,-y,-z
x,1/2+y,-z
-x,y,z
x,1/2-y,z
1/2+x,1/2+y,z
1/2-x,-y,z
1/2+x,1/2-y,-z
1/2-x,y,-z
1/2-x,1/2-y,-z
1/2+x,y,-z
1/2-x,1/2+y,z
1/2+x,-y,z
loop_
_atom_site_type_symbol
_atom_site_label
_atom_site_fract_x
_atom_site_fract_y
_atom_site_fract_z
Si Si1 0.500000 0.250000 0.110027
Si Si2 0.083708 0.379725 0.761335
Si Si3 0.613672 0.973928 0.751461
Si Si4 0.573512 0.189987 0.880776
Si Si5 0.810820 0.347936 0.658839
Si Si6 0.000000 0.831695 0.497098
Si Si7 0.720985 0.558055 0.745808
Si Si8 0.185265 0.297123 0.157401
O O1 0.541670 0.213586 0.093478
O O2 0.089171 0.428926 0.761849
O O3 0.132942 0.359056 0.666960
O O4 0.041113 0.363973 0.594685
O O5 0.074785 0.358261 0.034442
O O6 0.669996 0.963675 0.753612
O O7 0.602658 0.000000 0.500000
O O8 0.601924 0.000000 0.000000
O O9 0.541297 0.197070 0.637987
O O10 0.627324 0.203872 0.850279
O O11 0.787034 0.392183 0.716438
O O12 0.800664 0.327182 0.388600
O O13 0.800763 0.316307 0.887480
O O14 0.750000 0.545200 0.500000
O O15 0.750000 0.550128 0.000000
O O16 0.202127 0.250000 0.194341
#
# Coordination Sequence:
#
# PCOD9500979 Si02
#       8
#     4  16  16  16  16   8  16  16
#     4  10  18  36  52  94 128 166 218 302 342 354
#     4  10  23  40  61  89 126 181 217 264 328 385
#     4  11  26  45  71 101 135 168 208 265 321 392
#     4  10  21  34  57  87 130 169 223 279 335 375
#     4  10  22  39  62  89 127 171 215 257 321 394
#     4  11  19  37  59  84 120 171 221 270 309 374
#     4  11  23  42  72 104 130 161 201 257 329 402
#     4  11  20  37  57  88 126 172 222 268 316 377
#
# _framework density 22.541205000000001
#
# number of rings (size 3 to 8) (size 9 to 14) (size 15 to 20)
#    0.000    1.481    2.222    3.111    2.074    4.148 
#    0.000    6.667    0.000    8.889    0.000    0.000 
#    0.000    0.000    0.000    0.000    0.000    0.000 
#
# Total GULP energy -300723.112348 kJ/mol
# GULP energy per Si atom -5568.946525 kJ/mol
# Density = 2.248990 g / cm^3
# Si number density = 22.541205 Si / 1000 Ang^3
#
#
#
# Elastic Constant Matrix: (Units=GPa)
#
#
# Indices 1 2 3 4 5 6 
#
# 1 83.1641 13.3529 15.9845 0.0000 0.0000 0.0000
# 2 13.3529 173.4783 53.9420 0.0000 0.0000 0.0000
# 3 15.9845 53.9420 144.2731 0.0000 0.0000 0.0000
# 4 0.0000 0.0000 0.0000 -87.6415 0.0000 0.0000
# 5 0.0000 0.0000 0.0000 0.0000 20.1988 0.0000
# 6 0.0000 0.0000 0.0000 0.0000 0.0000 65.8936
#
#
#
# Elastic Compliance Matrix: (Units=1/GPa)
#
#
# Indices 1 2 3 4 5 6 
#
# 1 0.012340 -0.000594 -0.001145 0.000000 0.000000 0.000000
# 2 -0.000594 0.006551 -0.002384 0.000000 0.000000 0.000000
# 3 -0.001145 -0.002384 0.007949 0.000000 0.000000 0.000000
# 4 0.000000 0.000000 0.000000 -0.011410 0.000000 0.000000
# 5 0.000000 0.000000 0.000000 0.000000 0.049508 0.000000
# 6 0.000000 0.000000 0.000000 0.000000 0.000000 0.015176
#
#
# Mechanical properties :
#
#
# Convention : Reuss Voigt Hill
#
# Bulk Modulus (GPa) = 53.77679 63.05273 58.41476
# Shear Modulus (GPa) = 52.87762 20.86591 36.87177
#
# Velocity S-wave (km/s) = 4.84862 3.04580 4.04883
# Velocity P-wave (km/s) = 7.43333 6.35627 6.91580
#
# Compressibility (1/GPa) = 0.01859538
#
# Stress axis : x y z
#
# Youngs Moduli (GPa) = 81.03818 152.64152 125.79556
#
# Poissons Ratio (x) = 0.09063 0.14406
# Poissons Ratio (y) = 0.04811 0.29986
# Poissons Ratio (z) = 0.09280 0.36385
#
# Static dielectric constant tensor:
#      x y z
#    x 1.854210 0.000000 0.000000 
#    y 0.000000 1.834930 0.000000 
#    z 0.000000 0.000000 1.977570 
# 
# From -- ./inp_files/4962.got.cif
#   From: 2010.05.17/outbox.cif.g08.bks.cpg/sg67_3_cif.got.tgz:4962.got - 2010.06.03 18:28:57.
