data_PCOD9500910
_publ_section_title
;
Structure prediction by ZEFSAII (Michael W. Deem and Ramdas Pophale) SiO2 
 PCOD9500910
Probable space group: C M M A
;
_chemical_formula_sum "Si O2"
_cell_formula_units_Z 112
_cell_length_a 19.694675
_cell_length_b 18.639844
_cell_length_c 18.081051
_cell_angle_alpha 90.000000
_cell_angle_beta 90.000000
_cell_angle_gamma 90.000000
_cell_volume 6637.656335
_symmetry_space_group_name_H-M "C M M A"
_symmetry_group_IT_number 67
_symmetry_cell_setting 'orthorhombic'
loop_
_space_group_symop_operation_xyz
x,y,z
-x,1/2-y,z
x,-y,-z
-x,1/2+y,-z
-x,-y,-z
x,1/2+y,-z
-x,y,z
x,1/2-y,z
1/2+x,1/2+y,z
1/2-x,-y,z
1/2+x,1/2-y,-z
1/2-x,y,-z
1/2-x,1/2-y,-z
1/2+x,y,-z
1/2-x,1/2+y,z
1/2+x,-y,z
loop_
_atom_site_type_symbol
_atom_site_label
_atom_site_fract_x
_atom_site_fract_y
_atom_site_fract_z
Si Si1 0.684286 0.333402 0.828713
Si Si2 0.347037 0.337138 0.569629
Si Si3 0.919454 0.100745 0.289138
Si Si4 0.920209 0.036950 0.802484
Si Si5 0.832681 0.165407 0.755436
Si Si6 0.321370 0.030503 0.917261
Si Si7 0.812102 0.336426 0.588507
O O1 0.678651 0.250000 0.847455
O O2 0.625324 0.355479 0.770842
O O3 0.756396 0.344625 0.786800
O O4 0.681231 0.384786 0.900295
O O5 0.355536 0.250000 0.576933
O O6 0.392754 0.376457 0.630130
O O7 0.267690 0.354810 0.584109
O O8 0.354567 0.359472 0.483512
O O9 0.000000 0.115366 0.282286
O O10 0.908339 0.017317 0.266802
O O11 0.884568 0.113300 0.795214
O O12 0.000000 0.043846 0.812394
O O13 0.884319 0.998519 0.871112
O O14 0.848121 0.250000 0.762075
O O15 0.836533 0.143617 0.669332
O O16 0.250000 0.000000 0.886052
O O17 0.325686 0.000000 0.000000
O O18 0.812957 0.250000 0.584719
#
# Coordination Sequence:
#
# PCOD9500910 Si02
#       7
#    16  16  16  16  16  16  16
#     4  10  19  33  56  85 111 140 181 224 267 315
#     4   9  15  27  46  72 105 138 176 222 268 318
#     4  10  20  32  50  77 112 147 180 224 278 326
#     4  10  22  38  55  78 106 143 182 218 266 325
#     4  10  18  33  56  79 102 137 183 231 269 307
#     4  10  20  37  59  84 113 141 173 211 263 326
#     4   8  15  27  47  73 101 135 177 223 269 313
#
# _framework density 16.873425999999998
#
# number of rings (size 3 to 8) (size 9 to 14) (size 15 to 20)
#    0.000    2.429    2.857    1.286    0.000    1.714 
#    0.000    3.571    0.000    6.000    0.000    0.000 
#    0.000    0.000    0.000    0.000    0.000    0.000 
#
# Total GULP energy -311795.638898 kJ/mol
# GULP energy per Si atom -5567.779266 kJ/mol
# Density = 1.683502 g / cm^3
# Si number density = 16.873426 Si / 1000 Ang^3
#
#
#
# Elastic Constant Matrix: (Units=GPa)
#
#
# Indices 1 2 3 4 5 6 
#
# 1 91.0924 55.5905 32.9011 0.0000 0.0000 0.0000
# 2 55.5905 94.6677 54.7130 0.0000 0.0000 0.0000
# 3 32.9011 54.7130 80.9482 0.0000 0.0000 0.0000
# 4 0.0000 0.0000 0.0000 30.5510 0.0000 0.0000
# 5 0.0000 0.0000 0.0000 0.0000 19.1908 0.0000
# 6 0.0000 0.0000 0.0000 0.0000 0.0000 13.7393
#
#
#
# Elastic Compliance Matrix: (Units=1/GPa)
#
#
# Indices 1 2 3 4 5 6 
#
# 1 0.017113 -0.009894 -0.000268 0.000000 0.000000 0.000000
# 2 -0.009894 0.023055 -0.011562 0.000000 0.000000 0.000000
# 3 -0.000268 -0.011562 0.020277 0.000000 0.000000 0.000000
# 4 0.000000 0.000000 0.000000 0.032732 0.000000 0.000000
# 5 0.000000 0.000000 0.000000 0.000000 0.052108 0.000000
# 6 0.000000 0.000000 0.000000 0.000000 0.000000 0.072784
#
#
# Mechanical properties :
#
#
# Convention : Reuss Voigt Hill
#
# Bulk Modulus (GPa) = 58.83190 61.45750 60.14470
# Shear Modulus (GPa) = 18.71380 20.92979 19.82179
#
# Velocity S-wave (km/s) = 3.33388 3.52575 3.43116
# Velocity P-wave (km/s) = 7.05422 7.28535 7.17071
#
# Compressibility (1/GPa) = 0.01699758
#
# Stress axis : x y z
#
# Youngs Moduli (GPa) = 58.43662 43.37423 49.31671
#
# Poissons Ratio (x) = 0.42914 0.01322
# Poissons Ratio (y) = 0.57816 0.57018
# Poissons Ratio (z) = 0.01567 0.50148
#
# Static dielectric constant tensor:
#      x y z
#    x 1.550740 0.000000 0.000000 
#    y 0.000000 1.571400 0.000000 
#    z 0.000000 0.000000 1.595440 
# 
# From -- ./inp_files/35084.got.cif
#   From: 2010.05.17/outbox.cif.g08.bks.cpg/sg67_18_cif.got.tgz:35084.got - 2010.06.03 18:28:57.
