data_PCOD9500992
_publ_section_title
;
Structure prediction by ZEFSAII (Michael W. Deem and Ramdas Pophale) SiO2 
 PCOD9500992
Probable space group: C M M A
;
_chemical_formula_sum "Si O2"
_cell_formula_units_Z 80
_cell_length_a 18.304520
_cell_length_b 21.532197
_cell_length_c 10.478914
_cell_angle_alpha 90.000000
_cell_angle_beta 90.000000
_cell_angle_gamma 90.000000
_cell_volume 4130.122809
_symmetry_space_group_name_H-M "C M M A"
_symmetry_group_IT_number 67
_symmetry_cell_setting 'orthorhombic'
loop_
_space_group_symop_operation_xyz
x,y,z
-x,1/2-y,z
x,-y,-z
-x,1/2+y,-z
-x,-y,-z
x,1/2+y,-z
-x,y,z
x,1/2-y,z
1/2+x,1/2+y,z
1/2-x,-y,z
1/2+x,1/2-y,-z
1/2-x,y,-z
1/2-x,1/2-y,-z
1/2+x,y,-z
1/2-x,1/2+y,z
1/2+x,-y,z
loop_
_atom_site_type_symbol
_atom_site_label
_atom_site_fract_x
_atom_site_fract_y
_atom_site_fract_z
Si Si1 0.585434 0.370040 0.561917
Si Si2 0.500000 0.824241 0.908236
Si Si3 0.417644 0.007321 0.686652
Si Si4 0.128240 0.871767 0.275077
Si Si5 0.000000 0.939912 0.907208
Si Si6 0.729043 0.677146 0.357749
O O1 0.500000 0.361980 0.592904
O O2 0.604317 0.443186 0.580020
O O3 0.599466 0.350979 0.415662
O O4 0.643166 0.335550 0.651868
O O5 0.500000 0.750000 0.935442
O O6 0.428133 0.843057 0.825606
O O7 0.500000 0.873987 0.024036
O O8 0.500000 0.983450 0.655026
O O9 0.431445 0.049281 0.812713
O O10 0.373776 0.946508 0.721310
O O11 0.212220 0.851712 0.262541
O O12 0.000000 0.000000 0.000000
O O13 0.742102 0.750000 0.356926
O O14 0.750000 0.652554 0.500000
#
# Coordination Sequence:
#
# PCOD9500992 Si02
#       6
#    16   8  16  16   8  16
#     4  10  19  33  54  86 114 150 194 234 290 351
#     4  12  22  33  57  89 113 157 204 239 289 350
#     4   9  18  32  57  82 110 146 188 235 290 338
#     4  11  18  33  55  85 118 148 185 246 288 347
#     4  10  18  37  55  82 115 149 187 249 290 330
#     4   9  20  34  47  74 121 158 184 228 287 345
#
# _framework density 19.369883999999999
#
# number of rings (size 3 to 8) (size 9 to 14) (size 15 to 20)
#    0.600    1.400    4.000    1.200    0.000    3.600 
#    0.000    4.000    0.000    1.200    0.000    2.800 
#    0.000    0.000    0.000    0.000    0.000    0.000 
#
# Total GULP energy -222722.776422 kJ/mol
# GULP energy per Si atom -5568.069411 kJ/mol
# Density = 1.932580 g / cm^3
# Si number density = 19.369884 Si / 1000 Ang^3
#
#
#
# Elastic Constant Matrix: (Units=GPa)
#
#
# Indices 1 2 3 4 5 6 
#
# 1 98.0711 36.9712 24.7318 0.0000 0.0000 0.0000
# 2 36.9712 82.3553 24.3660 0.0000 0.0000 0.0000
# 3 24.7318 24.3660 43.0829 0.0000 0.0000 0.0000
# 4 0.0000 0.0000 0.0000 22.5822 0.0000 0.0000
# 5 0.0000 0.0000 0.0000 0.0000 12.0309 0.0000
# 6 0.0000 0.0000 0.0000 0.0000 0.0000 29.9780
#
#
#
# Elastic Compliance Matrix: (Units=1/GPa)
#
#
# Indices 1 2 3 4 5 6 
#
# 1 0.013128 -0.004400 -0.005048 0.000000 0.000000 0.000000
# 2 -0.004400 0.016057 -0.006555 0.000000 0.000000 0.000000
# 3 -0.005048 -0.006555 0.029816 0.000000 0.000000 0.000000
# 4 0.000000 0.000000 0.000000 0.044283 0.000000 0.000000
# 5 0.000000 0.000000 0.000000 0.000000 0.083119 0.000000
# 6 0.000000 0.000000 0.000000 0.000000 0.000000 0.033358
#
#
# Mechanical properties :
#
#
# Convention : Reuss Voigt Hill
#
# Bulk Modulus (GPa) = 37.04373 43.96082 40.50227
# Shear Modulus (GPa) = 19.17419 22.08091 20.62755
#
# Velocity S-wave (km/s) = 3.14968 3.37999 3.26687
# Velocity P-wave (km/s) = 5.69150 6.16256 5.93171
#
# Compressibility (1/GPa) = 0.02699512
#
# Stress axis : x y z
#
# Youngs Moduli (GPa) = 76.17030 62.27663 33.53868
#
# Poissons Ratio (x) = 0.27403 0.16930
# Poissons Ratio (y) = 0.33516 0.21986
# Poissons Ratio (z) = 0.38450 0.40825
#
# Static dielectric constant tensor:
#      x y z
#    x 1.716110 0.000000 0.000000 
#    y 0.000000 1.704170 0.000000 
#    z 0.000000 0.000000 1.735180 
# 
# From -- ./inp_files/19359.got.cif
#   From: 2010.05.17/outbox.cif.g08.bks.cpg/sg67_10_cif.got.tgz:19359.got - 2010.06.03 18:28:57.
