data_PCOD9500183
_publ_section_title
;
Structure prediction by ZEFSAII (Michael W. Deem and Ramdas Pophale) SiO2 
 PCOD9500183
Probable space group: C M M A
;
_chemical_formula_sum "Si O2"
_cell_formula_units_Z 80
_cell_length_a 8.507015
_cell_length_b 15.099225
_cell_length_c 31.320257
_cell_angle_alpha 90.000000
_cell_angle_beta 90.000000
_cell_angle_gamma 90.000000
_cell_volume 4023.066139
_symmetry_space_group_name_H-M "C M M A"
_symmetry_group_IT_number 67
_symmetry_cell_setting 'orthorhombic'
loop_
_space_group_symop_operation_xyz
x,y,z
-x,1/2-y,z
x,-y,-z
-x,1/2+y,-z
-x,-y,-z
x,1/2+y,-z
-x,y,z
x,1/2-y,z
1/2+x,1/2+y,z
1/2-x,-y,z
1/2+x,1/2-y,-z
1/2-x,y,-z
1/2-x,1/2-y,-z
1/2+x,y,-z
1/2-x,1/2+y,z
1/2+x,-y,z
loop_
_atom_site_type_symbol
_atom_site_label
_atom_site_fract_x
_atom_site_fract_y
_atom_site_fract_z
Si Si1 0.689647 0.900021 0.273558
Si Si2 0.188442 0.101351 0.367621
Si Si3 0.808261 0.250000 0.111187
Si Si4 0.807570 0.250000 0.208852
Si Si5 0.188614 0.900749 0.953734
Si Si6 0.313309 0.601688 0.544178
O O1 0.500000 0.902766 0.273009
O O2 0.733707 0.863501 0.320774
O O3 0.742829 0.835835 0.235799
O O4 0.750000 0.000000 0.268850
O O5 0.256883 0.142063 0.410963
O O6 0.000000 0.101913 0.371142
O O7 0.250000 0.000000 0.366459
O O8 0.753856 0.250000 0.159988
O O9 0.759690 0.335614 0.083950
O O10 0.000000 0.250000 0.112061
O O11 0.000000 0.250000 0.208511
O O12 0.000000 0.901986 0.955233
O O13 0.250000 0.000000 0.947076
O O14 0.250000 0.870093 0.000000
O O15 0.500000 0.599806 0.542978
O O16 0.250000 0.500000 0.544699
O O17 0.250000 0.641725 0.500000
#
# Coordination Sequence:
#
# PCOD9500183 Si02
#       6
#    16  16   8   8  16  16
#     4   9  18  32  53  74  98 130 168 210 255 302
#     4   9  15  24  38  60  85 115 153 194 237 289
#     4   9  19  33  52  76 106 139 175 214 259 307
#     4   9  18  35  54  76 103 137 174 210 256 315
#     4  10  19  33  53  79 107 141 178 217 257 303
#     4  10  16  22  33  53  83 118 150 189 236 288
#
# _framework density 19.88533
#
# number of rings (size 3 to 8) (size 9 to 14) (size 15 to 20)
#    0.000    2.600    0.000    5.700    0.000    1.600 
#    0.000    2.000    0.000    3.600    0.000    0.700 
#    0.000    0.000    0.000    0.600    0.000    0.000 
#
# Total GULP energy -223119.751406 kJ/mol
# GULP energy per Si atom -5577.993785 kJ/mol
# Density = 1.984007 g / cm^3
# Si number density = 19.885330 Si / 1000 Ang^3
#
#
#
# Elastic Constant Matrix: (Units=GPa)
#
#
# Indices 1 2 3 4 5 6 
#
# 1 68.2419 16.7082 47.7175 0.0000 0.0000 0.0000
# 2 16.7082 86.5052 88.6924 0.0000 0.0000 0.0000
# 3 47.7175 88.6924 249.6901 0.0000 0.0000 0.0000
# 4 0.0000 0.0000 0.0000 53.5855 0.0000 0.0000
# 5 0.0000 0.0000 0.0000 0.0000 13.9628 0.0000
# 6 0.0000 0.0000 0.0000 0.0000 0.0000 -3.5333
#
#
#
# Elastic Compliance Matrix: (Units=1/GPa)
#
#
# Indices 1 2 3 4 5 6 
#
# 1 0.016914 0.000074 -0.003259 0.000000 0.000000 0.000000
# 2 0.000074 0.018182 -0.006473 0.000000 0.000000 0.000000
# 3 -0.003259 -0.006473 0.006927 0.000000 0.000000 0.000000
# 4 0.000000 0.000000 0.000000 0.018662 0.000000 0.000000
# 5 0.000000 0.000000 0.000000 0.000000 0.071619 0.000000
# 6 0.000000 0.000000 0.000000 0.000000 0.000000 -0.283020
#
#
# Mechanical properties :
#
#
# Convention : Reuss Voigt Hill
#
# Bulk Modulus (GPa) = 44.03584 78.96373 61.49978
# Shear Modulus (GPa) = -40.37711 29.55760 -5.40975
#
# Velocity S-wave (km/s) = -4.51099 3.85957 -1.65118
# Velocity P-wave (km/s) = 2.22241 7.72382 5.23060
#
# Compressibility (1/GPa) = 0.02270878
#
# Stress axis : x y z
#
# Youngs Moduli (GPa) = 59.12174 54.99978 144.36524
#
# Poissons Ratio (x) = -0.00409 0.47046
# Poissons Ratio (y) = -0.00439 0.93442
# Poissons Ratio (z) = 0.19267 0.35599
#
# Static dielectric constant tensor:
#      x y z
#    x 1.670550 0.000000 0.000000 
#    y 0.000000 1.724700 0.000000 
#    z 0.000000 0.000000 1.736630 
# 
# From -- ./inp_files/43375.got.cif
#   From: 2010.05.17/outbox.cif.g08.bks.cpg/sg67_22_cif.got.tgz:43375.got - 2010.06.03 18:28:57.
