data_PCOD9500381
_publ_section_title
;
Structure prediction by ZEFSAII (Michael W. Deem and Ramdas Pophale) SiO2 
 PCOD9500381
Probable space group: C M M A
;
_chemical_formula_sum "Si O2"
_cell_formula_units_Z 80
_cell_length_a 18.591299
_cell_length_b 8.603142
_cell_length_c 26.834704
_cell_angle_alpha 90.000000
_cell_angle_beta 90.000000
_cell_angle_gamma 90.000000
_cell_volume 4292.038767
_symmetry_space_group_name_H-M "C M M A"
_symmetry_group_IT_number 67
_symmetry_cell_setting 'orthorhombic'
loop_
_space_group_symop_operation_xyz
x,y,z
-x,1/2-y,z
x,-y,-z
-x,1/2+y,-z
-x,-y,-z
x,1/2+y,-z
-x,y,z
x,1/2-y,z
1/2+x,1/2+y,z
1/2-x,-y,z
1/2+x,1/2-y,-z
1/2-x,y,-z
1/2-x,1/2-y,-z
1/2+x,y,-z
1/2-x,1/2+y,z
1/2+x,-y,z
loop_
_atom_site_type_symbol
_atom_site_label
_atom_site_fract_x
_atom_site_fract_y
_atom_site_fract_z
Si Si1 0.083521 0.937519 0.553471
Si Si2 0.169549 0.062140 0.348958
Si Si3 0.415833 0.937622 0.249481
Si Si4 0.331998 0.935436 0.051248
Si Si5 0.831158 0.434989 0.844871
O O1 0.085024 0.750000 0.552244
O O2 0.130816 0.990428 0.600176
O O3 0.000000 0.985269 0.560219
O O4 0.108481 0.000000 0.500000
O O5 0.171004 0.250000 0.349676
O O6 0.124000 0.015297 0.300416
O O7 0.250000 0.000000 0.345720
O O8 0.500000 0.976407 0.251850
O O9 0.409585 0.750000 0.244887
O O10 0.377824 0.014550 0.202246
O O11 0.330447 0.750000 0.049975
O O12 0.250000 0.000000 0.051898
O O13 0.362597 0.995147 0.103629
O O14 0.365359 0.000000 0.000000
O O15 0.827151 0.250000 0.849365
O O16 0.750000 0.500000 0.838353
#
# Coordination Sequence:
#
# PCOD9500381 Si02
#       5
#    16  16  16  16  16
#     4   9  18  34  55  78 105 139 178 217 259 310
#     4  10  21  36  55  79 107 139 175 218 266 317
#     4  10  21  38  58  78 103 138 178 220 270 326
#     4  10  17  28  47  74 107 141 178 219 266 316
#     4  11  21  34  53  79 110 142 179 222 268 317
#
# _framework density 18.639161999999999
#
# number of rings (size 3 to 8) (size 9 to 14) (size 15 to 20)
#    0.000    2.000    0.000    6.600    0.000    6.400 
#    0.000    2.000    0.000    4.200    0.000    0.000 
#    0.000    0.000    0.000    0.000    0.000    0.000 
#
# Total GULP energy -223322.962628 kJ/mol
# GULP energy per Si atom -5583.074066 kJ/mol
# Density = 1.859674 g / cm^3
# Si number density = 18.639162 Si / 1000 Ang^3
#
#
#
# Elastic Constant Matrix: (Units=GPa)
#
#
# Indices 1 2 3 4 5 6 
#
# 1 91.2582 41.2489 90.4525 0.0000 0.0000 0.0000
# 2 41.2489 85.2683 69.1537 0.0000 0.0000 0.0000
# 3 90.4525 69.1537 221.3371 0.0000 0.0000 0.0000
# 4 0.0000 0.0000 0.0000 37.9218 0.0000 0.0000
# 5 0.0000 0.0000 0.0000 0.0000 -66.3032 0.0000
# 6 0.0000 0.0000 0.0000 0.0000 0.0000 23.3758
#
#
#
# Elastic Compliance Matrix: (Units=1/GPa)
#
#
# Indices 1 2 3 4 5 6 
#
# 1 0.019363 -0.003951 -0.006679 0.000000 0.000000 0.000000
# 2 -0.003951 0.016514 -0.003545 0.000000 0.000000 0.000000
# 3 -0.006679 -0.003545 0.008355 0.000000 0.000000 0.000000
# 4 0.000000 0.000000 0.000000 0.026370 0.000000 0.000000
# 5 0.000000 0.000000 0.000000 0.000000 -0.015082 0.000000
# 6 0.000000 0.000000 0.000000 0.000000 0.000000 0.042779
#
#
# Mechanical properties :
#
#
# Convention : Reuss Voigt Hill
#
# Bulk Modulus (GPa) = 62.95876 88.84155 75.90015
# Shear Modulus (GPa) = 37.89515 12.13277 25.01396
#
# Velocity S-wave (km/s) = 4.51388 2.55410 3.66732
# Velocity P-wave (km/s) = 7.81139 7.51434 7.66430
#
# Compressibility (1/GPa) = 0.01588341
#
# Stress axis : x y z
#
# Youngs Moduli (GPa) = 51.64369 60.55507 119.68842
#
# Poissons Ratio (x) = 0.23922 0.79938
# Poissons Ratio (y) = 0.20402 0.42431
# Poissons Ratio (z) = 0.34492 0.21467
#
# Static dielectric constant tensor:
#      x y z
#    x 1.620120 0.000000 0.000000 
#    y 0.000000 1.633190 0.000000 
#    z 0.000000 0.000000 1.664720 
# 
# From -- ./inp_files/44414.got.cif
#   From: 2010.05.17/outbox.cif.g08.bks.cpg/sg67_23_cif.got.tgz:44414.got - 2010.06.03 18:28:57.
