data_PCOD9500265
_publ_section_title
;
Structure prediction by ZEFSAII (Michael W. Deem and Ramdas Pophale) SiO2 
 PCOD9500265
Probable space group: C M M A
;
_chemical_formula_sum "Si O2"
_cell_formula_units_Z 96
_cell_length_a 8.000445
_cell_length_b 26.181193
_cell_length_c 19.450387
_cell_angle_alpha 90.000000
_cell_angle_beta 90.000000
_cell_angle_gamma 90.000000
_cell_volume 4074.101297
_symmetry_space_group_name_H-M "C M M A"
_symmetry_group_IT_number 67
_symmetry_cell_setting 'orthorhombic'
loop_
_space_group_symop_operation_xyz
x,y,z
-x,1/2-y,z
x,-y,-z
-x,1/2+y,-z
-x,-y,-z
x,1/2+y,-z
-x,y,z
x,1/2-y,z
1/2+x,1/2+y,z
1/2-x,-y,z
1/2+x,1/2-y,-z
1/2-x,y,-z
1/2-x,1/2-y,-z
1/2+x,y,-z
1/2-x,1/2+y,z
1/2+x,-y,z
loop_
_atom_site_type_symbol
_atom_site_label
_atom_site_fract_x
_atom_site_fract_y
_atom_site_fract_z
Si Si1 0.306756 0.914125 0.574982
Si Si2 0.809802 0.332053 0.921227
Si Si3 0.701398 0.555558 0.721312
Si Si4 0.198971 0.445222 0.079362
Si Si5 0.204156 0.335836 0.775593
Si Si6 0.800862 0.805624 0.623601
O O1 0.500000 0.926399 0.578430
O O2 0.250000 0.930098 0.500000
O O3 0.228392 0.938341 0.643535
O O4 0.282030 0.853427 0.585826
O O5 0.796049 0.392872 0.905369
O O6 0.733997 0.312800 0.848512
O O7 0.000000 0.315007 0.922836
O O8 0.750000 0.323289 0.000000
O O9 0.500000 0.558927 0.720997
O O10 0.750000 0.500000 0.746049
O O11 0.760365 0.604997 0.763526
O O12 0.250000 0.500000 0.110303
O O13 0.000000 0.437356 0.086595
O O14 0.250000 0.450190 0.000000
O O15 0.260750 0.309565 0.705033
O O16 0.000000 0.334423 0.776865
O O17 0.744501 0.750000 0.598731
O O18 0.000000 0.809970 0.614676
#
# Coordination Sequence:
#
# PCOD9500265 Si02
#       6
#    16  16  16  16  16  16
#     4  10  21  37  57  83 116 150 185 225 267 315
#     4  10  19  32  49  71  99 131 171 219 273 331
#     4   9  19  35  53  76 106 144 188 228 267 312
#     4  10  17  26  39  57  84 119 159 203 252 305
#     4   9  20  37  55  77 107 142 181 225 272 327
#     4  10  21  37  59  86 112 140 177 220 269 326
#
# _framework density 23.563479000000001
#
# number of rings (size 3 to 8) (size 9 to 14) (size 15 to 20)
#    0.000    2.333    0.000    5.500    0.000    7.333 
#    0.000    3.333    0.000    0.500    0.000    0.000 
#    0.000    0.000    0.000    0.000    0.000    0.000 
#
# Total GULP energy -267665.876087 kJ/mol
# GULP energy per Si atom -5576.372418 kJ/mol
# Density = 2.350985 g / cm^3
# Si number density = 23.563479 Si / 1000 Ang^3
#
#
#
# Elastic Constant Matrix: (Units=GPa)
#
#
# Indices 1 2 3 4 5 6 
#
# 1 36.0971 -13.6966 10.6369 0.0000 0.0000 0.0000
# 2 -13.6966 72.7831 -5.5787 0.0000 0.0000 0.0000
# 3 10.6369 -5.5787 162.9786 0.0000 0.0000 0.0000
# 4 0.0000 0.0000 0.0000 -26.2583 0.0000 0.0000
# 5 0.0000 0.0000 0.0000 0.0000 -14.0832 0.0000
# 6 0.0000 0.0000 0.0000 0.0000 0.0000 10.8260
#
#
#
# Elastic Compliance Matrix: (Units=1/GPa)
#
#
# Indices 1 2 3 4 5 6 
#
# 1 0.030345 0.005573 -0.001790 0.000000 0.000000 0.000000
# 2 0.005573 0.014799 0.000143 0.000000 0.000000 0.000000
# 3 -0.001790 0.000143 0.006257 0.000000 0.000000 0.000000
# 4 0.000000 0.000000 0.000000 -0.038083 0.000000 0.000000
# 5 0.000000 0.000000 0.000000 0.000000 -0.071007 0.000000
# 6 0.000000 0.000000 0.000000 0.000000 0.000000 0.092370
#
#
# Mechanical properties :
#
#
# Convention : Reuss Voigt Hill
#
# Bulk Modulus (GPa) = 16.87630 28.28687 22.58159
# Shear Modulus (GPa) = 107.33997 12.79673 60.06835
#
# Velocity S-wave (km/s) = 6.75666 2.33292 5.05445
# Velocity P-wave (km/s) = 8.24909 4.39173 6.60813
#
# Compressibility (1/GPa) = 0.05925469
#
# Stress axis : x y z
#
# Youngs Moduli (GPa) = 32.95417 67.57115 159.80901
#
# Poissons Ratio (x) = -0.37659 0.28601
# Poissons Ratio (y) = -0.18366 -0.02283
# Poissons Ratio (z) = 0.05898 -0.00965
#
# Static dielectric constant tensor:
#      x y z
#    x 1.845140 0.000000 0.000000 
#    y 0.000000 1.946410 0.000000 
#    z 0.000000 0.000000 1.918790 
# 
# From -- ./inp_files/37215.got.cif
#   From: 2010.05.17/outbox.cif.g08.bks.cpg/sg67_19_cif.got.tgz:37215.got - 2010.06.03 18:28:57.
