data_PCOD9500196
_publ_section_title
;
Structure prediction by ZEFSAII (Michael W. Deem and Ramdas Pophale) SiO2 
 PCOD9500196
Probable space group: C M M A
;
_chemical_formula_sum "Si O2"
_cell_formula_units_Z 96
_cell_length_a 14.700213
_cell_length_b 8.800424
_cell_length_c 32.676952
_cell_angle_alpha 90.000000
_cell_angle_beta 90.000000
_cell_angle_gamma 90.000000
_cell_volume 4227.355432
_symmetry_space_group_name_H-M "C M M A"
_symmetry_group_IT_number 67
_symmetry_cell_setting 'orthorhombic'
loop_
_space_group_symop_operation_xyz
x,y,z
-x,1/2-y,z
x,-y,-z
-x,1/2+y,-z
-x,-y,-z
x,1/2+y,-z
-x,y,z
x,1/2-y,z
1/2+x,1/2+y,z
1/2-x,-y,z
1/2+x,1/2-y,-z
1/2-x,y,-z
1/2-x,1/2-y,-z
1/2+x,y,-z
1/2-x,1/2+y,z
1/2+x,-y,z
loop_
_atom_site_type_symbol
_atom_site_label
_atom_site_fract_x
_atom_site_fract_y
_atom_site_fract_z
Si Si1 0.106928 0.917021 0.291282
Si Si2 0.646745 0.932647 0.874349
Si Si3 0.611225 0.576524 0.542350
Si Si4 0.888468 0.576826 0.626987
Si Si5 0.146676 0.566724 0.958065
Si Si6 0.149596 0.570078 0.791968
O O1 0.146264 0.750000 0.281356
O O2 0.000000 0.899273 0.298566
O O3 0.143714 0.982932 0.333649
O O4 0.112887 0.026819 0.252458
O O5 0.648496 0.750000 0.876373
O O6 0.750000 0.000000 0.873466
O O7 0.605914 0.003164 0.915794
O O8 0.605231 0.989458 0.831512
O O9 0.640007 0.500000 0.500000
O O10 0.500000 0.575821 0.542243
O O11 0.641533 0.750000 0.543802
O O12 0.639582 0.490985 0.583465
O O13 0.858891 0.750000 0.630917
O O14 0.000000 0.575899 0.627156
O O15 0.147825 0.750000 0.958550
O O16 0.250000 0.500000 0.957829
O O17 0.105944 0.500000 0.000000
O O18 0.149955 0.750000 0.798456
O O19 0.250000 0.500000 0.790313
#
# Coordination Sequence:
#
# PCOD9500196 Si02
#       6
#    16  16  16  16  16  16
#     4  10  20  34  51  71  96 126 160 198 240 285
#     4  10  17  27  41  59  84 115 150 187 230 277
#     4   9  15  22  33  51  77 110 146 183 224 272
#     4   9  16  26  40  59  84 115 150 187 229 277
#     4  10  16  23  34  52  78 110 146 182 223 271
#     4  11  21  34  51  71  96 126 161 199 240 285
#
# _framework density 22.709233000000001
#
# number of rings (size 3 to 8) (size 9 to 14) (size 15 to 20)
#    0.000    2.167    0.000    8.500    0.000    5.000 
#    0.000    0.000    0.000    0.000    0.000    0.000 
#    0.000    1.333    0.000    9.167    0.000   19.667 
#
# Total GULP energy -268119.232459 kJ/mol
# GULP energy per Si atom -5585.817343 kJ/mol
# Density = 2.265755 g / cm^3
# Si number density = 22.709233 Si / 1000 Ang^3
#
#
#
# Elastic Constant Matrix: (Units=GPa)
#
#
# Indices 1 2 3 4 5 6 
#
# 1 59.3048 10.4628 11.2863 0.0000 0.0000 0.0000
# 2 10.4628 217.4621 84.7103 0.0000 0.0000 0.0000
# 3 11.2863 84.7103 213.0412 0.0000 0.0000 0.0000
# 4 0.0000 0.0000 0.0000 42.8845 0.0000 0.0000
# 5 0.0000 0.0000 0.0000 0.0000 0.9992 0.0000
# 6 0.0000 0.0000 0.0000 0.0000 0.0000 0.9535
#
#
#
# Elastic Compliance Matrix: (Units=1/GPa)
#
#
# Indices 1 2 3 4 5 6 
#
# 1 0.017090 -0.000556 -0.000684 0.000000 0.000000 0.000000
# 2 -0.000556 0.005459 -0.002141 0.000000 0.000000 0.000000
# 3 -0.000684 -0.002141 0.005582 0.000000 0.000000 0.000000
# 4 0.000000 0.000000 0.000000 0.023318 0.000000 0.000000
# 5 0.000000 0.000000 0.000000 0.000000 1.000802 0.000000
# 6 0.000000 0.000000 0.000000 0.000000 0.000000 1.048788
#
#
# Mechanical properties :
#
#
# Convention : Reuss Voigt Hill
#
# Bulk Modulus (GPa) = 46.79796 78.08074 62.43935
# Shear Modulus (GPa) = 2.36415 34.52402 18.44408
#
# Velocity S-wave (km/s) = 1.02143 3.90329 2.85298
# Velocity P-wave (km/s) = 4.69503 7.40079 6.19738
#
# Compressibility (1/GPa) = 0.02136845
#
# Stress axis : x y z
#
# Youngs Moduli (GPa) = 58.51263 183.17113 179.15889
#
# Poissons Ratio (x) = 0.10178 0.12263
# Poissons Ratio (y) = 0.03251 0.38364
# Poissons Ratio (z) = 0.04005 0.39223
#
# Static dielectric constant tensor:
#      x y z
#    x 2.036540 0.000000 0.000000 
#    y 0.000000 1.791620 0.000000 
#    z 0.000000 0.000000 1.898330 
# 
# From -- ./inp_files/44574.got.cif
#   From: 2010.05.17/outbox.cif.g08.bks.cpg/sg67_23_cif.got.tgz:44574.got - 2010.06.03 18:28:57.
