data_PCOD9500240
_publ_section_title
;
Structure prediction by ZEFSAII (Michael W. Deem and Ramdas Pophale) SiO2 
 PCOD9500240
Probable space group: C M M A
;
_chemical_formula_sum "Si O2"
_cell_formula_units_Z 80
_cell_length_a 24.215734
_cell_length_b 8.394027
_cell_length_c 21.230820
_cell_angle_alpha 90.000000
_cell_angle_beta 90.000000
_cell_angle_gamma 90.000000
_cell_volume 4315.536236
_symmetry_space_group_name_H-M "C M M A"
_symmetry_group_IT_number 67
_symmetry_cell_setting 'orthorhombic'
loop_
_space_group_symop_operation_xyz
x,y,z
-x,1/2-y,z
x,-y,-z
-x,1/2+y,-z
-x,-y,-z
x,1/2+y,-z
-x,y,z
x,1/2-y,z
1/2+x,1/2+y,z
1/2-x,-y,z
1/2+x,1/2-y,-z
1/2-x,y,-z
1/2-x,1/2-y,-z
1/2+x,y,-z
1/2-x,1/2+y,z
1/2+x,-y,z
loop_
_atom_site_type_symbol
_atom_site_label
_atom_site_fract_x
_atom_site_fract_y
_atom_site_fract_z
Si Si1 0.379279 0.560791 0.933459
Si Si2 0.886828 0.060663 0.696447
Si Si3 0.935802 0.442874 0.569316
Si Si4 0.187441 0.943639 0.190169
Si Si5 0.500000 0.565875 0.773078
Si Si6 0.000000 0.567667 0.907362
O O1 0.375977 0.750000 0.933157
O O2 0.347319 0.501862 0.871123
O O3 0.443306 0.511883 0.929114
O O4 0.356277 0.500000 0.000000
O O5 0.875746 0.250000 0.689793
O O6 0.897103 0.997076 0.626117
O O7 0.841339 0.997395 0.745135
O O8 0.945568 0.046005 0.731640
O O9 0.919468 0.500000 0.500000
O O10 0.935527 0.250000 0.570610
O O11 0.000000 0.492333 0.579820
O O12 0.185432 0.750000 0.190635
O O13 0.250000 0.000000 0.185820
O O14 0.500000 0.750000 0.797235
O O15 0.500000 0.450043 0.831909
O O16 0.000000 0.750000 0.927864
#
# Coordination Sequence:
#
# PCOD9500240 Si02
#       6
#    16  16  16  16   8   8
#     4  11  23  40  60  81 109 144 179 217 267 326
#     4   9  16  31  56  79 102 141 182 216 260 321
#     4   9  16  27  47  76 110 142 172 208 255 316
#     4  10  22  39  59  79 102 137 183 230 272 317
#     4  10  16  31  56  79 105 139 183 219 262 326
#     4  12  23  35  54  85 118 143 173 217 269 322
#
# _framework density 18.537673000000002
#
# number of rings (size 3 to 8) (size 9 to 14) (size 15 to 20)
#    0.000    2.000    3.000    1.800    0.000    2.000 
#    0.000    4.000    0.000    0.600    0.000    4.200 
#    0.000    0.000    0.000    0.000    0.000    0.000 
#
# Total GULP energy -223153.166962 kJ/mol
# GULP energy per Si atom -5578.829174 kJ/mol
# Density = 1.849548 g / cm^3
# Si number density = 18.537673 Si / 1000 Ang^3
#
#
#
# Elastic Constant Matrix: (Units=GPa)
#
#
# Indices 1 2 3 4 5 6 
#
# 1 105.1620 10.6720 67.8579 0.0000 0.0000 0.0000
# 2 10.6720 16.5451 21.1347 0.0000 0.0000 0.0000
# 3 67.8579 21.1347 182.3798 0.0000 0.0000 0.0000
# 4 0.0000 0.0000 0.0000 27.5030 0.0000 0.0000
# 5 0.0000 0.0000 0.0000 0.0000 -412.4536 0.0000
# 6 0.0000 0.0000 0.0000 0.0000 0.0000 20.3471
#
#
#
# Elastic Compliance Matrix: (Units=1/GPa)
#
#
# Indices 1 2 3 4 5 6 
#
# 1 0.012602 -0.002511 -0.004398 0.000000 0.000000 0.000000
# 2 -0.002511 0.071443 -0.007345 0.000000 0.000000 0.000000
# 3 -0.004398 -0.007345 0.007970 0.000000 0.000000 0.000000
# 4 0.000000 0.000000 0.000000 0.036360 0.000000 0.000000
# 5 0.000000 0.000000 0.000000 0.000000 -0.002425 0.000000
# 6 0.000000 0.000000 0.000000 0.000000 0.000000 0.049147
#
#
# Mechanical properties :
#
#
# Convention : Reuss Voigt Hill
#
# Bulk Modulus (GPa) = 15.74602 55.93515 35.84058
# Shear Modulus (GPa) = 22.24469 -59.29254 -18.52393
#
# Velocity S-wave (km/s) = 3.46782 -5.66165 -3.16453
# Velocity P-wave (km/s) = 4.95448 3.53551 2.45429
#
# Compressibility (1/GPa) = 0.06350813
#
# Stress axis : x y z
#
# Youngs Moduli (GPa) = 79.35459 13.99726 125.46309
#
# Poissons Ratio (x) = 0.03514 0.55175
# Poissons Ratio (y) = 0.19924 0.92150
# Poissons Ratio (z) = 0.34898 0.10281
#
# Static dielectric constant tensor:
#      x y z
#    x 1.613950 0.000000 0.000000 
#    y 0.000000 1.654780 0.000000 
#    z 0.000000 0.000000 1.678330 
# 
# From -- ./inp_files/39509.got.cif
#   From: 2010.05.17/outbox.cif.g08.bks.cpg/sg67_20_cif.got.tgz:39509.got - 2010.06.03 18:28:57.
