data_PCOD9500668
_publ_section_title
;
Structure prediction by ZEFSAII (Michael W. Deem and Ramdas Pophale) SiO2 
 PCOD9500668
Probable space group: C M M A
;
_chemical_formula_sum "Si O2"
_cell_formula_units_Z 80
_cell_length_a 18.859280
_cell_length_b 25.238951
_cell_length_c 10.042792
_cell_angle_alpha 90.000000
_cell_angle_beta 90.000000
_cell_angle_gamma 90.000000
_cell_volume 4780.252936
_symmetry_space_group_name_H-M "C M M A"
_symmetry_group_IT_number 67
_symmetry_cell_setting 'orthorhombic'
loop_
_space_group_symop_operation_xyz
x,y,z
-x,1/2-y,z
x,-y,-z
-x,1/2+y,-z
-x,-y,-z
x,1/2+y,-z
-x,y,z
x,1/2-y,z
1/2+x,1/2+y,z
1/2-x,-y,z
1/2+x,1/2-y,-z
1/2-x,y,-z
1/2-x,1/2-y,-z
1/2+x,y,-z
1/2-x,1/2+y,z
1/2+x,-y,z
loop_
_atom_site_type_symbol
_atom_site_label
_atom_site_fract_x
_atom_site_fract_y
_atom_site_fract_z
Si Si1 0.222012 0.250000 0.707932
Si Si2 0.421208 0.937388 0.529676
Si Si3 0.631994 0.750000 0.458364
Si Si4 0.775119 0.353201 0.150559
Si Si5 0.081680 0.351367 0.303705
Si Si6 0.724304 0.439212 0.353360
O O1 0.292028 0.250000 0.615402
O O2 0.153023 0.250000 0.613593
O O3 0.231666 0.197355 0.794381
O O4 0.500000 0.922039 0.574528
O O5 0.406635 0.903800 0.395065
O O6 0.359844 0.930825 0.637178
O O7 0.420414 0.000000 0.500000
O O8 0.592789 0.802218 0.405286
O O9 0.858784 0.345505 0.188342
O O10 0.754734 0.403936 0.237536
O O11 0.750000 0.360638 0.000000
O O12 0.000000 0.351856 0.256385
O O13 0.750000 0.500000 0.341230
O O14 0.750000 0.420849 0.500000
#
# Coordination Sequence:
#
# PCOD9500668 Si02
#       6
#     8  16   8  16  16  16
#     4   9  19  32  53  76 106 132 172 220 259 301
#     4  10  18  30  51  79 105 132 168 218 274 316
#     4   9  17  30  53  80  98 131 168 218 262 304
#     4  11  22  35  53  78 108 145 183 215 261 323
#     4  10  19  32  51  76 106 136 174 217 266 318
#     4  11  19  34  55  79 107 136 178 228 269 311
#
# _framework density 16.735516000000001
#
# number of rings (size 3 to 8) (size 9 to 14) (size 15 to 20)
#    0.000    1.800    4.000    1.800    2.800    0.400 
#    0.000    1.000    0.000    2.400    0.000    7.000 
#    0.000    0.000    0.000    0.000    0.000    0.000 
#
# Total GULP energy -222819.902378 kJ/mol
# GULP energy per Si atom -5570.497559 kJ/mol
# Density = 1.669743 g / cm^3
# Si number density = 16.735516 Si / 1000 Ang^3
#
#
#
# Elastic Constant Matrix: (Units=GPa)
#
#
# Indices 1 2 3 4 5 6 
#
# 1 125.6828 23.5601 52.7341 0.0000 0.0000 0.0000
# 2 23.5601 75.5948 57.0096 0.0000 0.0000 0.0000
# 3 52.7341 57.0096 115.6956 0.0000 0.0000 0.0000
# 4 0.0000 0.0000 0.0000 784.0487 0.0000 0.0000
# 5 0.0000 0.0000 0.0000 0.0000 17.3415 0.0000
# 6 0.0000 0.0000 0.0000 0.0000 0.0000 15.3485
#
#
#
# Elastic Compliance Matrix: (Units=1/GPa)
#
#
# Indices 1 2 3 4 5 6 
#
# 1 0.009850 0.000503 -0.004737 0.000000 0.000000 0.000000
# 2 0.000503 0.021077 -0.010615 0.000000 0.000000 0.000000
# 3 -0.004737 -0.010615 0.016033 0.000000 0.000000 0.000000
# 4 0.000000 0.000000 0.000000 0.001275 0.000000 0.000000
# 5 0.000000 0.000000 0.000000 0.000000 0.057665 0.000000
# 6 0.000000 0.000000 0.000000 0.000000 0.000000 0.065153
#
#
# Mechanical properties :
#
#
# Convention : Reuss Voigt Hill
#
# Bulk Modulus (GPa) = 57.93366 64.84231 61.38799
# Shear Modulus (GPa) = 24.21234 175.59239 99.90236
#
# Velocity S-wave (km/s) = 3.80776 10.25426 7.73462
# Velocity P-wave (km/s) = 7.35013 13.38018 10.79476
#
# Compressibility (1/GPa) = 0.01726112
#
# Stress axis : x y z
#
# Youngs Moduli (GPa) = 101.52276 47.44522 62.37043
#
# Poissons Ratio (x) = -0.02386 0.29547
# Poissons Ratio (y) = -0.05105 0.66206
# Poissons Ratio (z) = 0.48095 0.50363
#
# Static dielectric constant tensor:
#      x y z
#    x 1.623750 0.000000 0.000000 
#    y 0.000000 1.583450 0.000000 
#    z 0.000000 0.000000 1.529560 
# 
# From -- ./inp_files/11143.got.cif
#   From: 2010.05.17/outbox.cif.g08.bks.cpg/sg67_6_cif.got.tgz:11143.got - 2010.06.03 18:28:57.
