data_PCOD9500172
_publ_section_title
;
Structure prediction by ZEFSAII (Michael W. Deem and Ramdas Pophale) SiO2 
 PCOD9500172
Probable space group: C M M A
;
_chemical_formula_sum "Si O2"
_cell_formula_units_Z 80
_cell_length_a 14.885528
_cell_length_b 8.839068
_cell_length_c 27.918486
_cell_angle_alpha 90.000000
_cell_angle_beta 90.000000
_cell_angle_gamma 90.000000
_cell_volume 3673.352299
_symmetry_space_group_name_H-M "C M M A"
_symmetry_group_IT_number 67
_symmetry_cell_setting 'orthorhombic'
loop_
_space_group_symop_operation_xyz
x,y,z
-x,1/2-y,z
x,-y,-z
-x,1/2+y,-z
-x,-y,-z
x,1/2+y,-z
-x,y,z
x,1/2-y,z
1/2+x,1/2+y,z
1/2-x,-y,z
1/2+x,1/2-y,-z
1/2-x,y,-z
1/2-x,1/2-y,-z
1/2+x,y,-z
1/2-x,1/2+y,z
1/2+x,-y,z
loop_
_atom_site_type_symbol
_atom_site_label
_atom_site_fract_x
_atom_site_fract_y
_atom_site_fract_z
Si Si1 0.650785 0.933089 0.750000
Si Si2 0.351868 0.567890 0.048787
Si Si3 0.106364 0.080999 0.645001
Si Si4 0.148392 0.567042 0.145959
Si Si5 0.610133 0.078877 0.549077
O O1 0.650445 0.750000 0.748878
O O2 0.615243 0.985811 0.698407
O O3 0.607782 0.971020 0.801706
O O4 0.750000 0.000000 0.751719
O O5 0.349728 0.750000 0.047396
O O6 0.250000 0.500000 0.049440
O O7 0.392856 0.507581 0.098532
O O8 0.392520 0.500000 0.000000
O O9 0.145958 0.250000 0.645372
O O10 0.000000 0.094175 0.637387
O O11 0.141209 0.993472 0.598920
O O12 0.151026 0.750000 0.140628
O O13 0.250000 0.500000 0.147981
O O14 0.500000 0.076521 0.549265
O O15 0.640181 0.250000 0.547611
O O16 0.638234 0.000000 0.500000
#
# Coordination Sequence:
#
# PCOD9500172 Si02
#       5
#    16  16  16  16  16
#     4   9  18  30  45  64  87 118 150 180 215 256
#     4  10  16  22  32  48  71 100 133 168 209 251
#     4   9  17  30  47  67  91 117 146 180 216 255
#     4   9  15  24  36  52  75 103 137 171 205 248
#     4   9  16  26  42  65  90 115 143 176 216 259
#
# _framework density 21.778472000000001
#
# number of rings (size 3 to 8) (size 9 to 14) (size 15 to 20)
#    0.000    2.800    0.000    4.800    0.000    4.000 
#    0.000    0.000    0.000    0.600    0.000    4.200 
#    0.000    0.800    0.000    1.400    0.000    8.200 
#
# Total GULP energy -222834.789952 kJ/mol
# GULP energy per Si atom -5570.869749 kJ/mol
# Density = 2.172890 g / cm^3
# Si number density = 21.778472 Si / 1000 Ang^3
#
#
#
# Elastic Constant Matrix: (Units=GPa)
#
#
# Indices 1 2 3 4 5 6 
#
# 1 43.1556 6.2009 13.6332 0.0000 0.0000 0.0000
# 2 6.2009 115.3786 108.6508 0.0000 0.0000 0.0000
# 3 13.6332 108.6508 298.5154 0.0000 0.0000 0.0000
# 4 0.0000 0.0000 0.0000 34.1377 0.0000 0.0000
# 5 0.0000 0.0000 0.0000 0.0000 14.7796 0.0000
# 6 0.0000 0.0000 0.0000 0.0000 0.0000 -6.0740
#
#
#
# Elastic Compliance Matrix: (Units=1/GPa)
#
#
# Indices 1 2 3 4 5 6 
#
# 1 0.023522 -0.000384 -0.000934 0.000000 0.000000 0.000000
# 2 -0.000384 0.013193 -0.004784 0.000000 0.000000 0.000000
# 3 -0.000934 -0.004784 0.005134 0.000000 0.000000 0.000000
# 4 0.000000 0.000000 0.000000 0.029293 0.000000 0.000000
# 5 0.000000 0.000000 0.000000 0.000000 0.067661 0.000000
# 6 0.000000 0.000000 0.000000 0.000000 0.000000 -0.164637
#
#
# Mechanical properties :
#
#
# Convention : Reuss Voigt Hill
#
# Bulk Modulus (GPa) = 33.73433 79.33548 56.53491
# Shear Modulus (GPa) = -1334.52372 30.47299 -652.02537
#
# Velocity S-wave (km/s) = -24.78109 3.74468 -17.32166
# Velocity P-wave (km/s) = 28.34219 7.42996 19.34005
#
# Compressibility (1/GPa) = 0.02964340
#
# Stress axis : x y z
#
# Youngs Moduli (GPa) = 42.51276 75.79685 194.78157
#
# Poissons Ratio (x) = 0.02913 0.18201
# Poissons Ratio (y) = 0.01634 0.93191
# Poissons Ratio (z) = 0.03972 0.36264
#
# Static dielectric constant tensor:
#      x y z
#    x 1.855590 0.000000 0.000000 
#    y 0.000000 1.768460 0.000000 
#    z 0.000000 0.000000 1.903440 
# 
# From -- ./inp_files/44412.got.cif
#   From: 2010.05.17/outbox.cif.g08.bks.cpg/sg67_23_cif.got.tgz:44412.got - 2010.06.03 18:28:57.
