data_PCOD9500948
_publ_section_title
;
Structure prediction by ZEFSAII (Michael W. Deem and Ramdas Pophale) SiO2 
 PCOD9500948
Probable space group: C M M A
;
_chemical_formula_sum "Si O2"
_cell_formula_units_Z 96
_cell_length_a 23.565063
_cell_length_b 14.882706
_cell_length_c 14.868949
_cell_angle_alpha 90.000000
_cell_angle_beta 90.000000
_cell_angle_gamma 90.000000
_cell_volume 5214.717422
_symmetry_space_group_name_H-M "C M M A"
_symmetry_group_IT_number 67
_symmetry_cell_setting 'orthorhombic'
loop_
_space_group_symop_operation_xyz
x,y,z
-x,1/2-y,z
x,-y,-z
-x,1/2+y,-z
-x,-y,-z
x,1/2+y,-z
-x,y,z
x,1/2-y,z
1/2+x,1/2+y,z
1/2-x,-y,z
1/2+x,1/2-y,-z
1/2-x,y,-z
1/2-x,1/2-y,-z
1/2+x,y,-z
1/2-x,1/2+y,z
1/2+x,-y,z
loop_
_atom_site_type_symbol
_atom_site_label
_atom_site_fract_x
_atom_site_fract_y
_atom_site_fract_z
Si Si1 0.762569 0.893827 0.900324
Si Si2 0.126483 0.002618 0.355745
Si Si3 0.500000 0.147665 0.768267
Si Si4 0.790117 0.849228 0.286409
Si Si5 0.877270 0.646069 0.804575
Si Si6 0.197668 0.147384 0.432482
Si Si7 0.000000 0.000177 0.608536
O O1 0.723538 0.857754 0.819010
O O2 0.827863 0.874064 0.875153
O O3 0.750000 0.000000 0.900169
O O4 0.750000 0.858976 0.000000
O O5 0.125979 0.071842 0.272648
O O6 0.150277 0.070516 0.432979
O O7 0.063468 0.963486 0.370384
O O8 0.170097 0.924926 0.328484
O O9 0.500000 0.250000 0.734214
O O10 0.443755 0.137174 0.828643
O O11 0.500000 0.086293 0.677761
O O12 0.813050 0.750000 0.306387
O O13 0.729739 0.856470 0.336690
O O14 0.869396 0.750000 0.774170
O O15 0.177244 0.250000 0.447751
O O16 0.250000 0.130314 0.500000
O O17 0.000000 0.000000 0.500000
#
# Coordination Sequence:
#
# PCOD9500948 Si02
#       7
#    16  16   8  16  16  16   8
#     4  11  21  35  58  89 125 154 185 233 300 353
#     4  11  21  38  57  77 114 151 189 242 284 331
#     4   8  18  36  60  82 106 145 193 240 287 334
#     4  11  22  37  56  82 114 154 195 231 285 346
#     4  10  18  34  58  83 109 143 183 232 286 338
#     4  10  21  35  57  87 114 146 187 233 289 348
#     4  10  24  38  54  83 109 150 202 238 289 342
#
# _framework density 18.409434999999998
#
# number of rings (size 3 to 8) (size 9 to 14) (size 15 to 20)
#    0.000    1.667    3.333    1.500    2.333    2.667 
#    0.000    1.250    0.000    3.000    0.000    0.000 
#    0.000    0.000    0.000    0.000    0.000    0.000 
#
# Total GULP energy -267293.069945 kJ/mol
# GULP energy per Si atom -5568.605624 kJ/mol
# Density = 1.836753 g / cm^3
# Si number density = 18.409435 Si / 1000 Ang^3
#
#
#
# Elastic Constant Matrix: (Units=GPa)
#
#
# Indices 1 2 3 4 5 6 
#
# 1 138.1469 48.7301 28.7708 0.0000 0.0000 0.0000
# 2 48.7301 97.2080 5.4875 0.0000 0.0000 0.0000
# 3 28.7708 5.4875 74.3318 0.0000 0.0000 0.0000
# 4 0.0000 0.0000 0.0000 12.9866 0.0000 0.0000
# 5 0.0000 0.0000 0.0000 0.0000 25.6506 0.0000
# 6 0.0000 0.0000 0.0000 0.0000 0.0000 17.4604
#
#
#
# Elastic Compliance Matrix: (Units=1/GPa)
#
#
# Indices 1 2 3 4 5 6 
#
# 1 0.009563 -0.004604 -0.003361 0.000000 0.000000 0.000000
# 2 -0.004604 0.012547 0.000856 0.000000 0.000000 0.000000
# 3 -0.003361 0.000856 0.014691 0.000000 0.000000 0.000000
# 4 0.000000 0.000000 0.000000 0.077002 0.000000 0.000000
# 5 0.000000 0.000000 0.000000 0.000000 0.038985 0.000000
# 6 0.000000 0.000000 0.000000 0.000000 0.000000 0.057272
#
#
# Mechanical properties :
#
#
# Convention : Reuss Voigt Hill
#
# Bulk Modulus (GPa) = 44.28442 52.85149 48.56796
# Shear Modulus (GPa) = 21.56962 26.33276 23.95119
#
# Velocity S-wave (km/s) = 3.42667 3.78616 3.61089
# Velocity P-wave (km/s) = 6.30584 6.91987 6.61998
#
# Compressibility (1/GPa) = 0.02258130
#
# Stress axis : x y z
#
# Youngs Moduli (GPa) = 104.57232 79.70102 68.06845
#
# Poissons Ratio (x) = 0.36695 0.22881
# Poissons Ratio (y) = 0.48145 -0.05825
# Poissons Ratio (z) = 0.35152 -0.06820
#
# Static dielectric constant tensor:
#      x y z
#    x 1.688200 0.000000 0.000000 
#    y 0.000000 1.645700 0.000000 
#    z 0.000000 0.000000 1.676260 
# 
# From -- ./inp_files/30100.got.cif
#   From: 2010.05.17/outbox.cif.g08.bks.cpg/sg67_16_cif.got.tgz:30100.got - 2010.06.03 18:28:57.
