data_PCOD9500366
_publ_section_title
;
Structure prediction by ZEFSAII (Michael W. Deem and Ramdas Pophale) SiO2 
 PCOD9500366
Probable space group: C M M A
;
_chemical_formula_sum "Si O2"
_cell_formula_units_Z 100
_cell_length_a 21.014644
_cell_length_b 30.778380
_cell_length_c 8.643108
_cell_angle_alpha 90.000000
_cell_angle_beta 90.000000
_cell_angle_gamma 90.000000
_cell_volume 5590.333720
_symmetry_space_group_name_H-M "C M M A"
_symmetry_group_IT_number 67
_symmetry_cell_setting 'orthorhombic'
loop_
_space_group_symop_operation_xyz
x,y,z
-x,1/2-y,z
x,-y,-z
-x,1/2+y,-z
-x,-y,-z
x,1/2+y,-z
-x,y,z
x,1/2-y,z
1/2+x,1/2+y,z
1/2-x,-y,z
1/2+x,1/2-y,-z
1/2-x,y,-z
1/2-x,1/2-y,-z
1/2+x,y,-z
1/2-x,1/2+y,z
1/2+x,-y,z
loop_
_atom_site_type_symbol
_atom_site_label
_atom_site_fract_x
_atom_site_fract_y
_atom_site_fract_z
Si Si1 0.500000 0.250000 0.241551
Si Si2 0.654465 0.750000 0.126693
Si Si3 0.203601 0.250000 0.773536
Si Si4 0.077243 0.095878 0.808168
Si Si5 0.422515 0.498041 0.321515
Si Si6 0.075795 0.822169 0.703027
Si Si7 0.922976 0.586577 0.837687
Si Si8 0.391310 0.184830 0.345979
O O1 0.444376 0.212194 0.252955
O O2 0.720837 0.750000 0.218620
O O3 0.613182 0.708496 0.178466
O O4 0.674779 0.750000 0.947829
O O5 0.175334 0.207813 0.689082
O O6 0.105270 0.135297 0.709434
O O7 0.000000 0.099223 0.797638
O O8 0.095893 0.048286 0.748011
O O9 0.096437 0.097671 0.987777
O O10 0.403001 0.500000 0.500000
O O11 0.500000 0.499226 0.317994
O O12 0.400055 0.540270 0.226633
O O13 0.092896 0.872468 0.730712
O O14 0.091136 0.810235 0.526375
O O15 0.000000 0.816777 0.727729
O O16 0.000000 0.583709 0.840681
#
# Coordination Sequence:
#
# PCOD9500366 Si02
#       8
#     4   8   8  16  16  16  16  16
#     4  10  18  30  46  70 104 128 164 216 256 306
#     4  11  23  42  55  74 104 138 182 221 266 315
#     4  10  25  40  55  73 102 143 181 221 261 319
#     4  10  17  28  46  70 102 139 175 214 260 315
#     4   9  16  26  42  65  99 139 174 211 259 313
#     4  11  21  34  55  80 109 136 173 223 270 318
#     4   9  18  29  43  70 104 137 173 210 262 318
#     4  11  20  34  53  76 104 139 175 215 268 313
#
# _framework density 17.888019
#
# number of rings (size 3 to 8) (size 9 to 14) (size 15 to 20)
#    0.000    1.920    1.600    3.600    0.000    5.760 
#    5.760    0.000    0.000    0.000    0.000    1.120 
#    0.000    8.960    0.000    0.000    0.000    0.000 
#
# Total GULP energy -278492.436155 kJ/mol
# GULP energy per Si atom -5569.848723 kJ/mol
# Density = 1.784731 g / cm^3
# Si number density = 17.888019 Si / 1000 Ang^3
#
#
#
# Elastic Constant Matrix: (Units=GPa)
#
#
# Indices 1 2 3 4 5 6 
#
# 1 46.3055 27.9075 20.4204 0.0000 0.0000 0.0000
# 2 27.9075 127.3752 24.0270 0.0000 0.0000 0.0000
# 3 20.4204 24.0270 41.6519 0.0000 0.0000 0.0000
# 4 0.0000 0.0000 0.0000 25.2686 0.0000 0.0000
# 5 0.0000 0.0000 0.0000 0.0000 17.0452 0.0000
# 6 0.0000 0.0000 0.0000 0.0000 0.0000 2.0262
#
#
#
# Elastic Compliance Matrix: (Units=1/GPa)
#
#
# Indices 1 2 3 4 5 6 
#
# 1 0.029409 -0.004178 -0.012008 0.000000 0.000000 0.000000
# 2 -0.004178 0.009403 -0.003376 0.000000 0.000000 0.000000
# 3 -0.012008 -0.003376 0.031843 0.000000 0.000000 0.000000
# 4 0.000000 0.000000 0.000000 0.039575 0.000000 0.000000
# 5 0.000000 0.000000 0.000000 0.000000 0.058668 0.000000
# 6 0.000000 0.000000 0.000000 0.000000 0.000000 0.493541
#
#
# Mechanical properties :
#
#
# Convention : Reuss Voigt Hill
#
# Bulk Modulus (GPa) = 31.71469 40.00471 35.85970
# Shear Modulus (GPa) = 7.02175 18.39983 12.71079
#
# Velocity S-wave (km/s) = 1.98341 3.21068 2.66855
# Velocity P-wave (km/s) = 4.79722 6.01308 5.43923
#
# Compressibility (1/GPa) = 0.03153113
#
# Stress axis : x y z
#
# Youngs Moduli (GPa) = 34.00263 106.34845 31.40417
#
# Poissons Ratio (x) = 0.44437 0.37710
# Poissons Ratio (y) = 0.14208 0.10601
# Poissons Ratio (z) = 0.40831 0.35899
#
# Static dielectric constant tensor:
#      x y z
#    x 1.584740 0.000000 0.000000 
#    y 0.000000 1.613910 0.000000 
#    z 0.000000 0.000000 1.640320 
# 
# From -- ./inp_files/11613.got.cif
#   From: 2010.05.17/outbox.cif.g08.bks.cpg/sg67_6_cif.got.tgz:11613.got - 2010.06.03 18:28:57.
