data_PCOD9500144
_publ_section_title
;
Structure prediction by ZEFSAII (Michael W. Deem and Ramdas Pophale) SiO2 
 PCOD9500144
Probable space group: C C C M
;
_chemical_formula_sum "Si O2"
_cell_formula_units_Z 44
_cell_length_a 24.000000
_cell_length_b 12.000000
_cell_length_c 15.000000
_cell_angle_alpha 90.000000
_cell_angle_beta 90.000000
_cell_angle_gamma 90.000000
_cell_volume 4320.000000
_symmetry_space_group_name_H-M "C C C M"
_symmetry_group_IT_number 66
_symmetry_cell_setting 'orthorhombic'
loop_
_space_group_symop_operation_xyz
x,y,z
-x,-y,z
x,-y,1/2-z
-x,y,1/2-z
-x,-y,-z
x,y,-z
-x,y,1/2+z
x,-y,1/2+z
1/2+x,1/2+y,z
1/2-x,1/2-y,z
1/2+x,1/2-y,1/2-z
1/2-x,1/2+y,1/2-z
1/2-x,1/2-y,-z
1/2+x,1/2+y,-z
1/2-x,1/2+y,1/2+z
1/2+x,1/2-y,1/2+z
loop_
_atom_site_type_symbol
_atom_site_label
_atom_site_fract_x
_atom_site_fract_y
_atom_site_fract_z
Si Si1 0.320123 0.042167 0.149683
Si Si2 0.805285 0.047308 0.602595
Si Si3 0.868700 0.825050 0.646351
Si Si4 0.329333 0.848930 0.000000
Si Si5 0.613409 0.739504 0.153594
Si Si6 0.501941 0.372285 0.105662
O O1 0.254628 0.078230 0.144303
O O2 0.364411 0.139273 0.125999
O O3 0.330962 0.000000 0.250000
O O4 0.325887 0.944106 0.078535
O O5 0.794700 0.014653 0.500000
O O6 0.848929 0.148086 0.604167
O O7 0.837133 0.943567 0.647761
O O8 0.836958 0.748061 0.576941
O O9 0.869805 0.773401 0.743673
O O10 0.934149 0.834832 0.619198
O O11 0.548078 0.704817 0.143863
O O12 0.500000 0.500000 0.140257
O O13 0.490999 0.375650 0.000000
#
# Coordination Sequence:
#
# PCOD9500144 Si02
#       6
#    16  16  16   8  16  16
#     4  12  27  48  69 101 143 192 237 281 348 426
#     4  12  25  42  72 106 139 180 232 295 357 412
#     4  12  24  47  71 104 136 182 237 287 350 416
#     4  12  26  49  73  94 144 189 238 289 333 437
#     4  12  26  43  72 105 143 176 230 295 354 416
#     4  11  23  42  72 106 137 175 227 294 361 409
#
# _framework density 10.185185000000001
#
# number of rings (size 3 to 8) (size 9 to 14) (size 15 to 20)
#    0.000    0.182    6.364    3.273    2.545    2.909 
#    0.000    1.818    0.000    0.000    0.000    0.000 
#    0.000    0.000    0.000    0.000    0.000    0.000 
#
# Total GULP energy -244943.624459 kJ/mol
# GULP energy per Si atom -5566.900556 kJ/mol
# Density = 1.016200 g / cm^3
# Si number density = 10.185185 Si / 1000 Ang^3
#
#
#
# Elastic Constant Matrix: (Units=GPa)
#
#
# Indices 1 2 3 4 5 6 
#
# 1 66.1779 25.9002 -17.6028 0.0000 0.0000 0.0000
# 2 25.9002 83.8099 2.7812 0.0000 0.0000 0.0000
# 3 -17.6028 2.7812 111.2599 0.0000 0.0000 0.0000
# 4 0.0000 0.0000 0.0000 20.4896 0.0000 0.0000
# 5 0.0000 0.0000 0.0000 0.0000 86.8879 0.0000
# 6 0.0000 0.0000 0.0000 0.0000 0.0000 15.2894
#
#
#
# Elastic Compliance Matrix: (Units=1/GPa)
#
#
# Indices 1 2 3 4 5 6 
#
# 1 0.018146 -0.005708 0.003014 0.000000 0.000000 0.000000
# 2 -0.005708 0.013737 -0.001246 0.000000 0.000000 0.000000
# 3 0.003014 -0.001246 0.009496 0.000000 0.000000 0.000000
# 4 0.000000 0.000000 0.000000 0.048805 0.000000 0.000000
# 5 0.000000 0.000000 0.000000 0.000000 0.011509 0.000000
# 6 0.000000 0.000000 0.000000 0.000000 0.000000 0.065405
#
#
# Mechanical properties :
#
#
# Convention : Reuss Voigt Hill
#
# Bulk Modulus (GPa) = 29.85249 31.48940 30.67095
# Shear Modulus (GPa) = 26.86071 41.21133 34.03602
#
# Velocity S-wave (km/s) = 3.63522 4.50277 4.09205
# Velocity P-wave (km/s) = 5.68387 6.52114 6.11685
#
# Compressibility (1/GPa) = 0.03349804
#
# Stress axis : x y z
#
# Youngs Moduli (GPa) = 55.10771 72.79584 105.30831
#
# Poissons Ratio (x) = 0.41551 -0.31736
# Poissons Ratio (y) = 0.31455 0.13126
# Poissons Ratio (z) = -0.16608 0.09074
#
# Static dielectric constant tensor:
#      x y z
#    x 1.713920 0.000000 0.000000 
#    y 0.000000 1.722590 0.000000 
#    z 0.000000 0.000000 1.761740 
# 
# From -- ./inp_files/32187.got.cif
#   From: 2010.05.17/outbox.ucp.g08.bks.cvg/sg66_17_cif.got.tgz:32187.got - 2010.06.11 16:44:13.
