data_PCOD9500433
_publ_section_title
;
Structure prediction by ZEFSAII (Michael W. Deem and Ramdas Pophale) SiO2 
 PCOD9500433
Probable space group: C M M A
;
_chemical_formula_sum "Si O2"
_cell_formula_units_Z 112
_cell_length_a 15.077861
_cell_length_b 29.102767
_cell_length_c 12.758298
_cell_angle_alpha 90.000000
_cell_angle_beta 90.000000
_cell_angle_gamma 90.000000
_cell_volume 5598.436538
_symmetry_space_group_name_H-M "C M M A"
_symmetry_group_IT_number 67
_symmetry_cell_setting 'orthorhombic'
loop_
_space_group_symop_operation_xyz
x,y,z
-x,1/2-y,z
x,-y,-z
-x,1/2+y,-z
-x,-y,-z
x,1/2+y,-z
-x,y,z
x,1/2-y,z
1/2+x,1/2+y,z
1/2-x,-y,z
1/2+x,1/2-y,-z
1/2-x,y,-z
1/2-x,1/2-y,-z
1/2+x,y,-z
1/2-x,1/2+y,z
1/2+x,-y,z
loop_
_atom_site_type_symbol
_atom_site_label
_atom_site_fract_x
_atom_site_fract_y
_atom_site_fract_z
Si Si1 0.603512 0.949748 0.949519
Si Si2 0.646369 0.898741 0.572774
Si Si3 0.392552 0.607462 0.144617
Si Si4 0.607859 0.801189 0.247084
Si Si5 0.099172 0.531553 0.275679
Si Si6 0.837784 0.939409 0.638409
Si Si7 0.107447 0.802522 0.509120
O O1 0.500000 0.936246 0.931015
O O2 0.645023 0.957070 0.835097
O O3 0.640627 0.915324 0.037063
O O4 0.603755 0.000000 0.000000
O O5 0.590539 0.920528 0.665165
O O6 0.742050 0.918996 0.607377
O O7 0.610845 0.920391 0.463376
O O8 0.646309 0.844127 0.558444
O O9 0.500000 0.606454 0.139349
O O10 0.362244 0.659194 0.168867
O O11 0.366391 0.579987 0.249250
O O12 0.500000 0.801217 0.245952
O O13 0.637979 0.750000 0.219803
O O14 0.631929 0.810498 0.368564
O O15 0.149204 0.493852 0.346558
O O16 0.000000 0.511921 0.256319
O O17 0.133334 0.750000 0.481531
O O18 0.000000 0.804935 0.502375
#
# Coordination Sequence:
#
# PCOD9500433 Si02
#       7
#    16  16  16  16  16  16  16
#     4   9  17  31  52  78 101 128 172 232 278 313
#     4  11  23  36  50  76 115 149 179 227 280 332
#     4  10  17  30  55  77 103 139 180 228 279 330
#     4   8  14  25  46  78 108 134 172 224 272 317
#     4  11  22  36  56  77 103 143 191 228 270 336
#     4  11  22  35  50  76 111 148 175 223 282 331
#     4   9  17  32  55  81 109 144 189 233 271 322
#
# _framework density 20.005585
#
# number of rings (size 3 to 8) (size 9 to 14) (size 15 to 20)
#    0.000    2.143    2.857    2.571    0.000    3.429 
#    0.000    2.857    0.000    0.857    0.000    4.000 
#    0.000    2.286    0.000    0.000    0.000    0.000 
#
# Total GULP energy -312133.307595 kJ/mol
# GULP energy per Si atom -5573.809064 kJ/mol
# Density = 1.996005 g / cm^3
# Si number density = 20.005585 Si / 1000 Ang^3
#
#
#
# Elastic Constant Matrix: (Units=GPa)
#
#
# Indices 1 2 3 4 5 6 
#
# 1 43.3112 17.1353 15.1174 0.0000 0.0000 0.0000
# 2 17.1353 169.9395 65.3356 0.0000 0.0000 0.0000
# 3 15.1174 65.3356 105.0110 0.0000 0.0000 0.0000
# 4 0.0000 0.0000 0.0000 31.6784 0.0000 0.0000
# 5 0.0000 0.0000 0.0000 0.0000 11.1225 0.0000
# 6 0.0000 0.0000 0.0000 0.0000 0.0000 13.8833
#
#
#
# Elastic Compliance Matrix: (Units=1/GPa)
#
#
# Indices 1 2 3 4 5 6 
#
# 1 0.024586 -0.001470 -0.002625 0.000000 0.000000 0.000000
# 2 -0.001470 0.007822 -0.004655 0.000000 0.000000 0.000000
# 3 -0.002625 -0.004655 0.012797 0.000000 0.000000 0.000000
# 4 0.000000 0.000000 0.000000 0.031567 0.000000 0.000000
# 5 0.000000 0.000000 0.000000 0.000000 0.089908 0.000000
# 6 0.000000 0.000000 0.000000 0.000000 0.000000 0.072029
#
#
# Mechanical properties :
#
#
# Convention : Reuss Voigt Hill
#
# Bulk Modulus (GPa) = 36.09361 57.04869 46.57115
# Shear Modulus (GPa) = 18.83626 26.04842 22.44234
#
# Velocity S-wave (km/s) = 3.07180 3.61232 3.35297
# Velocity P-wave (km/s) = 5.53734 6.78061 6.19027
#
# Compressibility (1/GPa) = 0.02770573
#
# Stress axis : x y z
#
# Youngs Moduli (GPa) = 40.67276 127.83665 78.14228
#
# Poissons Ratio (x) = 0.18791 0.20512
# Poissons Ratio (y) = 0.05979 0.36378
# Poissons Ratio (z) = 0.10676 0.59513
#
# Static dielectric constant tensor:
#      x y z
#    x 1.878550 0.000000 0.000000 
#    y 0.000000 1.737630 0.000000 
#    z 0.000000 0.000000 1.721330 
# 
# From -- ./inp_files/18581.got.cif
#   From: 2010.05.17/outbox.cif.g08.bks.cpg/sg67_10_cif.got.tgz:18581.got - 2010.06.03 18:28:57.
