data_PCOD9500748
_publ_section_title
;
Structure prediction by ZEFSAII (Michael W. Deem and Ramdas Pophale) SiO2 
 PCOD9500748
Probable space group: C M M A
;
_chemical_formula_sum "Si O2"
_cell_formula_units_Z 96
_cell_length_a 24.623037
_cell_length_b 9.568425
_cell_length_c 24.897369
_cell_angle_alpha 90.000000
_cell_angle_beta 90.000000
_cell_angle_gamma 90.000000
_cell_volume 5865.911829
_symmetry_space_group_name_H-M "C M M A"
_symmetry_group_IT_number 67
_symmetry_cell_setting 'orthorhombic'
loop_
_space_group_symop_operation_xyz
x,y,z
-x,1/2-y,z
x,-y,-z
-x,1/2+y,-z
-x,-y,-z
x,1/2+y,-z
-x,y,z
x,1/2-y,z
1/2+x,1/2+y,z
1/2-x,-y,z
1/2+x,1/2-y,-z
1/2-x,y,-z
1/2-x,1/2-y,-z
1/2+x,y,-z
1/2-x,1/2+y,z
1/2+x,-y,z
loop_
_atom_site_type_symbol
_atom_site_label
_atom_site_fract_x
_atom_site_fract_y
_atom_site_fract_z
Si Si1 0.500000 0.091767 0.326852
Si Si2 0.610504 0.582558 0.727183
Si Si3 0.500000 0.968874 0.436815
Si Si4 0.877911 0.094618 0.447337
Si Si5 0.433892 0.410765 0.948487
Si Si6 0.564306 0.412609 0.155327
Si Si7 0.306801 0.919298 0.342947
O O1 0.500000 0.250000 0.306235
O O2 0.444089 0.032395 0.303932
O O3 0.500000 0.087645 0.391291
O O4 0.619147 0.750000 0.716141
O O5 0.597655 0.567373 0.790113
O O6 0.659321 0.489004 0.705478
O O7 0.558917 0.900677 0.429126
O O8 0.500000 0.000000 0.500000
O O9 0.861010 0.250000 0.463056
O O10 0.841294 0.050368 0.397195
O O11 0.873565 0.000000 0.500000
O O12 0.500000 0.410403 0.949626
O O13 0.415978 0.250000 0.950768
O O14 0.418784 0.487365 0.893184
O O15 0.415780 0.500000 0.000000
O O16 0.500000 0.436036 0.167080
O O17 0.569179 0.250000 0.138632
O O18 0.301523 0.750000 0.337911
O O19 0.250000 0.000000 0.346574
#
# Coordination Sequence:
#
# PCOD9500748 Si02
#       7
#     8  16   8  16  16  16  16
#     4  10  18  31  54  80 103 135 169 202 254 314
#     4  10  19  34  55  79 104 134 171 211 254 309
#     4  10  19  33  51  80 110 131 164 202 252 302
#     4  10  22  37  56  79 104 131 163 203 253 308
#     4   9  16  25  38  59  92 135 179 215 250 291
#     4   9  16  27  45  70 101 134 170 208 249 300
#     4  11  24  41  57  76  99 131 170 215 262 309
#
# _framework density 16.365742999999998
#
# number of rings (size 3 to 8) (size 9 to 14) (size 15 to 20)
#    0.000    2.167    2.500    1.250    0.000    7.000 
#    0.000    2.083    0.000    0.000    0.000    0.000 
#    0.000    0.667    0.000    7.000    0.000    3.333 
#
# Total GULP energy -267298.569139 kJ/mol
# GULP energy per Si atom -5568.720190 kJ/mol
# Density = 1.632849 g / cm^3
# Si number density = 16.365743 Si / 1000 Ang^3
#
#
#
# Elastic Constant Matrix: (Units=GPa)
#
#
# Indices 1 2 3 4 5 6 
#
# 1 92.6358 44.8213 42.4138 0.0000 0.0000 0.0000
# 2 44.8213 97.8811 71.7115 0.0000 0.0000 0.0000
# 3 42.4138 71.7115 109.2556 0.0000 0.0000 0.0000
# 4 0.0000 0.0000 0.0000 30.4535 0.0000 0.0000
# 5 0.0000 0.0000 0.0000 0.0000 10.3337 0.0000
# 6 0.0000 0.0000 0.0000 0.0000 0.0000 15.1905
#
#
#
# Elastic Compliance Matrix: (Units=1/GPa)
#
#
# Indices 1 2 3 4 5 6 
#
# 1 0.014185 -0.004741 -0.002395 0.000000 0.000000 0.000000
# 2 -0.004741 0.021265 -0.012117 0.000000 0.000000 0.000000
# 3 -0.002395 -0.012117 0.018036 0.000000 0.000000 0.000000
# 4 0.000000 0.000000 0.000000 0.032837 0.000000 0.000000
# 5 0.000000 0.000000 0.000000 0.000000 0.096771 0.000000
# 6 0.000000 0.000000 0.000000 0.000000 0.000000 0.065831
#
#
# Mechanical properties :
#
#
# Convention : Reuss Voigt Hill
#
# Bulk Modulus (GPa) = 66.75588 68.62950 67.69269
# Shear Modulus (GPa) = 17.09848 20.58394 18.84121
#
# Velocity S-wave (km/s) = 3.23580 3.55032 3.39670
# Velocity P-wave (km/s) = 7.40534 7.67022 7.53894
#
# Compressibility (1/GPa) = 0.01497995
#
# Stress axis : x y z
#
# Youngs Moduli (GPa) = 70.49462 47.02597 55.44531
#
# Poissons Ratio (x) = 0.22295 0.13279
# Poissons Ratio (y) = 0.33422 0.67183
# Poissons Ratio (z) = 0.16884 0.56981
#
# Static dielectric constant tensor:
#      x y z
#    x 1.544150 0.000000 0.000000 
#    y 0.000000 1.581330 0.000000 
#    z 0.000000 0.000000 1.552270 
# 
# From -- ./inp_files/42592.got.cif
#   From: 2010.05.17/outbox.cif.g08.bks.cpg/sg67_22_cif.got.tgz:42592.got - 2010.06.03 18:28:57.
