data_PCOD9500777
_publ_section_title
;
Structure prediction by ZEFSAII (Michael W. Deem and Ramdas Pophale) SiO2 
 PCOD9500777
Probable space group: C M M A
;
_chemical_formula_sum "Si O2"
_cell_formula_units_Z 56
_cell_length_a 25.863772
_cell_length_b 8.659641
_cell_length_c 15.706980
_cell_angle_alpha 90.000000
_cell_angle_beta 90.000000
_cell_angle_gamma 90.000000
_cell_volume 3517.907710
_symmetry_space_group_name_H-M "C M M A"
_symmetry_group_IT_number 67
_symmetry_cell_setting 'orthorhombic'
loop_
_space_group_symop_operation_xyz
x,y,z
-x,1/2-y,z
x,-y,-z
-x,1/2+y,-z
-x,-y,-z
x,1/2+y,-z
-x,y,z
x,1/2-y,z
1/2+x,1/2+y,z
1/2-x,-y,z
1/2+x,1/2-y,-z
1/2-x,y,-z
1/2-x,1/2-y,-z
1/2+x,y,-z
1/2-x,1/2+y,z
1/2+x,-y,z
loop_
_atom_site_type_symbol
_atom_site_label
_atom_site_fract_x
_atom_site_fract_y
_atom_site_fract_z
Si Si1 0.691620 0.435746 0.775631
Si Si2 0.892129 0.065470 0.904140
Si Si3 0.000000 0.934871 0.903527
Si Si4 0.691656 0.565966 0.414020
O O1 0.692793 0.250000 0.784381
O O2 0.750000 0.500000 0.782855
O O3 0.654893 0.509775 0.845924
O O4 0.670972 0.472867 0.679996
O O5 0.894996 0.250000 0.908256
O O6 0.946150 0.998383 0.867393
O O7 0.885866 0.000000 0.000000
O O8 0.000000 0.750000 0.904288
O O9 0.000000 0.000000 0.000000
O O10 0.666317 0.500000 0.500000
O O11 0.694034 0.750000 0.421403
O O12 0.750000 0.500000 0.412568
#
# Coordination Sequence:
#
# PCOD9500777 Si02
#       4
#    16  16   8  16
#     4  10  20  33  47  69  98 129 161 195 234 281
#     4  11  21  34  51  71  95 125 159 197 236 279
#     4  10  18  32  52  72  93 118 153 198 238 276
#     4   9  16  26  43  64  90 120 154 192 231 273
#
# _framework density 15.918552
#
# number of rings (size 3 to 8) (size 9 to 14) (size 15 to 20)
#    0.000    2.000    0.000    8.143    0.000    4.000 
#    0.000    2.857    0.000    0.000    0.000    1.000 
#    0.000    0.000    0.000    0.000    0.000    0.000 
#
# Total GULP energy -156030.458078 kJ/mol
# GULP energy per Si atom -5572.516360 kJ/mol
# Density = 1.588232 g / cm^3
# Si number density = 15.918552 Si / 1000 Ang^3
#
#
#
# Elastic Constant Matrix: (Units=GPa)
#
#
# Indices 1 2 3 4 5 6 
#
# 1 86.4614 44.2699 56.2311 0.0000 0.0000 0.0000
# 2 44.2699 129.2460 55.2026 0.0000 0.0000 0.0000
# 3 56.2311 55.2026 108.9668 0.0000 0.0000 0.0000
# 4 0.0000 0.0000 0.0000 25.4548 0.0000 0.0000
# 5 0.0000 0.0000 0.0000 0.0000 -1.8630 0.0000
# 6 0.0000 0.0000 0.0000 0.0000 0.0000 21.9954
#
#
#
# Elastic Compliance Matrix: (Units=1/GPa)
#
#
# Indices 1 2 3 4 5 6 
#
# 1 0.018187 -0.002834 -0.007949 0.000000 0.000000 0.000000
# 2 -0.002834 0.010315 -0.003763 0.000000 0.000000 0.000000
# 3 -0.007949 -0.003763 0.015186 0.000000 0.000000 0.000000
# 4 0.000000 0.000000 0.000000 0.039285 0.000000 0.000000
# 5 0.000000 0.000000 0.000000 0.000000 -0.536776 0.000000
# 6 0.000000 0.000000 0.000000 0.000000 0.000000 0.045464
#
#
# Mechanical properties :
#
#
# Convention : Reuss Voigt Hill
#
# Bulk Modulus (GPa) = 68.51906 70.67570 69.59738
# Shear Modulus (GPa) = -13.35541 20.38215 3.51337
#
# Velocity S-wave (km/s) = -2.89966 3.58215 1.48724
# Velocity P-wave (km/s) = 5.65033 7.84881 6.83849
#
# Compressibility (1/GPa) = 0.01459448
#
# Stress axis : x y z
#
# Youngs Moduli (GPa) = 54.98437 96.94385 65.85138
#
# Poissons Ratio (x) = 0.27476 0.52348
# Poissons Ratio (y) = 0.15584 0.24781
# Poissons Ratio (z) = 0.43709 0.36481
#
# Static dielectric constant tensor:
#      x y z
#    x 1.525110 0.000000 0.000000 
#    y 0.000000 1.529250 0.000000 
#    z 0.000000 0.000000 1.577530 
# 
# From -- ./inp_files/15712.got.cif
#   From: 2010.05.17/outbox.cif.g08.bks.cpg/sg67_8_cif.got.tgz:15712.got - 2010.06.03 18:28:57.
