data_PCOD9500558
_publ_section_title
;
Structure prediction by ZEFSAII (Michael W. Deem and Ramdas Pophale) SiO2 
 PCOD9500558
Probable space group: C M M A
;
_chemical_formula_sum "Si O2"
_cell_formula_units_Z 72
_cell_length_a 25.916426
_cell_length_b 15.712444
_cell_length_c 10.985966
_cell_angle_alpha 90.000000
_cell_angle_beta 90.000000
_cell_angle_gamma 90.000000
_cell_volume 4473.599524
_symmetry_space_group_name_H-M "C M M A"
_symmetry_group_IT_number 67
_symmetry_cell_setting 'orthorhombic'
loop_
_space_group_symop_operation_xyz
x,y,z
-x,1/2-y,z
x,-y,-z
-x,1/2+y,-z
-x,-y,-z
x,1/2+y,-z
-x,y,z
x,1/2-y,z
1/2+x,1/2+y,z
1/2-x,-y,z
1/2+x,1/2-y,-z
1/2-x,y,-z
1/2-x,1/2-y,-z
1/2+x,y,-z
1/2-x,1/2+y,z
1/2+x,-y,z
loop_
_atom_site_type_symbol
_atom_site_label
_atom_site_fract_x
_atom_site_fract_y
_atom_site_fract_z
Si Si1 0.939032 0.750000 0.617562
Si Si2 0.356153 0.250000 0.823623
Si Si3 0.193697 0.750000 0.068105
Si Si4 0.697322 0.908883 0.299190
Si Si5 0.115925 0.094149 0.512212
Si Si6 0.813613 0.598969 0.261259
O O1 0.909363 0.750000 0.747828
O O2 0.919664 0.667872 0.541796
O O3 0.000000 0.750000 0.632483
O O4 0.324987 0.332289 0.778842
O O5 0.351764 0.250000 0.968216
O O6 0.187954 0.833707 0.152233
O O7 0.250000 0.750000 0.000000
O O8 0.665598 0.911549 0.423668
O O9 0.757386 0.893181 0.324093
O O10 0.686855 0.998254 0.230533
O O11 0.139282 0.113285 0.645335
O O12 0.091507 0.000000 0.500000
#
# Coordination Sequence:
#
# PCOD9500558 Si02
#       6
#     8   8   8  16  16  16
#     4  10  21  36  56  73  92 129 175 220 270 308
#     4  10  20  35  45  68 101 132 176 210 237 294
#     4  12  21  31  44  70 106 143 177 199 233 288
#     4   9  17  30  48  73 104 139 165 192 242 307
#     4   9  18  32  52  78 104 127 161 210 262 308
#     4  10  18  29  48  74 106 137 165 195 244 300
#
# _framework density 16.094422000000002
#
# number of rings (size 3 to 8) (size 9 to 14) (size 15 to 20)
#    0.000    2.222    2.222    1.333    0.000    4.000 
#    0.000    4.444    0.000    2.667    0.000   14.000 
#    0.000    0.000    0.000    0.000    0.000    0.000 
#
# Total GULP energy -200515.252373 kJ/mol
# GULP energy per Si atom -5569.868121 kJ/mol
# Density = 1.605779 g / cm^3
# Si number density = 16.094422 Si / 1000 Ang^3
#
#
#
# Elastic Constant Matrix: (Units=GPa)
#
#
# Indices 1 2 3 4 5 6 
#
# 1 90.8470 53.0323 28.1015 0.0000 0.0000 0.0000
# 2 53.0323 125.7344 59.4477 0.0000 0.0000 0.0000
# 3 28.1015 59.4477 79.1351 0.0000 0.0000 0.0000
# 4 0.0000 0.0000 0.0000 58.9608 0.0000 0.0000
# 5 0.0000 0.0000 0.0000 0.0000 7.3230 0.0000
# 6 0.0000 0.0000 0.0000 0.0000 0.0000 10.2325
#
#
#
# Elastic Compliance Matrix: (Units=1/GPa)
#
#
# Indices 1 2 3 4 5 6 
#
# 1 0.014641 -0.005765 -0.000869 0.000000 0.000000 0.000000
# 2 -0.005765 0.014604 -0.008924 0.000000 0.000000 0.000000
# 3 -0.000869 -0.008924 0.019649 0.000000 0.000000 0.000000
# 4 0.000000 0.000000 0.000000 0.016960 0.000000 0.000000
# 5 0.000000 0.000000 0.000000 0.000000 0.136556 0.000000
# 6 0.000000 0.000000 0.000000 0.000000 0.000000 0.097728
#
#
# Mechanical properties :
#
#
# Convention : Reuss Voigt Hill
#
# Bulk Modulus (GPa) = 56.24333 64.09772 60.17052
# Shear Modulus (GPa) = 14.82892 25.64559 20.23725
#
# Velocity S-wave (km/s) = 3.03870 3.99613 3.54984
# Velocity P-wave (km/s) = 6.87992 7.82334 7.36675
#
# Compressibility (1/GPa) = 0.01777989
#
# Stress axis : x y z
#
# Youngs Moduli (GPa) = 68.29940 68.47530 50.89413
#
# Poissons Ratio (x) = 0.39474 0.04421
# Poissons Ratio (y) = 0.39373 0.45416
# Poissons Ratio (z) = 0.05933 0.61104
#
# Static dielectric constant tensor:
#      x y z
#    x 1.512690 0.000000 0.000000 
#    y 0.000000 1.593200 0.000000 
#    z 0.000000 0.000000 1.553300 
# 
# From -- ./inp_files/12248.got.cif
#   From: 2010.05.17/outbox.cif.g08.bks.cpg/sg67_7_cif.got.tgz:12248.got - 2010.06.03 18:28:57.
