data_PCOD9500725
_publ_section_title
;
Structure prediction by ZEFSAII (Michael W. Deem and Ramdas Pophale) SiO2 
 PCOD9500725
Probable space group: C M M A
;
_chemical_formula_sum "Si O2"
_cell_formula_units_Z 128
_cell_length_a 23.354520
_cell_length_b 14.775313
_cell_length_c 18.262493
_cell_angle_alpha 90.000000
_cell_angle_beta 90.000000
_cell_angle_gamma 90.000000
_cell_volume 6301.844723
_symmetry_space_group_name_H-M "C M M A"
_symmetry_group_IT_number 67
_symmetry_cell_setting 'orthorhombic'
loop_
_space_group_symop_operation_xyz
x,y,z
-x,1/2-y,z
x,-y,-z
-x,1/2+y,-z
-x,-y,-z
x,1/2+y,-z
-x,y,z
x,1/2-y,z
1/2+x,1/2+y,z
1/2-x,-y,z
1/2+x,1/2-y,-z
1/2-x,y,-z
1/2-x,1/2-y,-z
1/2+x,y,-z
1/2-x,1/2+y,z
1/2+x,-y,z
loop_
_atom_site_type_symbol
_atom_site_label
_atom_site_fract_x
_atom_site_fract_y
_atom_site_fract_z
Si Si1 0.344478 0.146468 0.817822
Si Si2 0.796991 0.641441 0.668714
Si Si3 0.833173 0.355129 0.649916
Si Si4 0.936708 0.360989 0.748843
Si Si5 0.760980 0.892887 0.082842
Si Si6 0.606395 0.642075 0.904629
Si Si7 0.934252 0.638917 0.935974
Si Si8 0.814794 0.392820 0.491514
O O1 0.363486 0.250000 0.804284
O O2 0.329804 0.103801 0.739420
O O3 0.284893 0.148178 0.862088
O O4 0.391185 0.105254 0.872967
O O5 0.792554 0.750000 0.678473
O O6 0.731142 0.606003 0.661769
O O7 0.829806 0.626855 0.592203
O O8 0.828690 0.250000 0.670762
O O9 0.884423 0.393652 0.698387
O O10 0.847210 0.358999 0.563323
O O11 0.935954 0.250000 0.747729
O O12 0.926051 0.390378 0.832502
O O13 0.000000 0.389279 0.724259
O O14 0.826047 0.874071 0.103851
O O15 0.750000 0.000000 0.083502
O O16 0.750000 0.859880 0.000000
O O17 0.597023 0.750000 0.906904
O O18 0.585680 0.607427 0.983497
O O19 0.930709 0.750000 0.936525
O O20 0.000000 0.614413 0.922990
O O21 0.812984 0.500000 0.500000
O O22 0.750000 0.355656 0.500000
#
# Coordination Sequence:
#
# PCOD9500725 Si02
#       8
#    16  16  16  16  16  16  16  16
#     4  10  19  33  52  74  99 132 170 209 251 294
#     4   9  17  30  49  75 103 129 163 204 251 303
#     4   9  16  28  47  70  98 128 157 196 250 303
#     4   9  17  29  48  76 103 125 159 208 252 296
#     4  11  22  34  47  71 105 136 167 208 259 305
#     4  10  18  31  52  74 100 132 168 207 251 303
#     4   9  17  29  49  75  98 127 171 216 250 283
#     4   9  17  30  47  72  99 128 161 196 242 302
#
# _framework density 20.311513000000001
#
# number of rings (size 3 to 8) (size 9 to 14) (size 15 to 20)
#    0.000    2.500    1.250    1.875    0.000    5.500 
#    6.750    0.000    0.000    3.375    0.000    3.500 
#    0.000    0.000    0.000    0.000    0.000    0.000 
#
# Total GULP energy -357087.091743 kJ/mol
# GULP energy per Si atom -5579.485808 kJ/mol
# Density = 2.026528 g / cm^3
# Si number density = 20.311513 Si / 1000 Ang^3
#
#
#
# Elastic Constant Matrix: (Units=GPa)
#
#
# Indices 1 2 3 4 5 6 
#
# 1 111.8191 1.5981 74.7726 0.0000 0.0000 0.0000
# 2 1.5981 40.5577 3.1672 0.0000 0.0000 0.0000
# 3 74.7726 3.1672 177.3657 0.0000 0.0000 0.0000
# 4 0.0000 0.0000 0.0000 -10.9941 0.0000 0.0000
# 5 0.0000 0.0000 0.0000 0.0000 17.6523 0.0000
# 6 0.0000 0.0000 0.0000 0.0000 0.0000 3.9393
#
#
#
# Elastic Compliance Matrix: (Units=1/GPa)
#
#
# Indices 1 2 3 4 5 6 
#
# 1 0.012454 -0.000081 -0.005249 0.000000 0.000000 0.000000
# 2 -0.000081 0.024691 -0.000407 0.000000 0.000000 0.000000
# 3 -0.005249 -0.000407 0.007858 0.000000 0.000000 0.000000
# 4 0.000000 0.000000 0.000000 -0.090958 0.000000 0.000000
# 5 0.000000 0.000000 0.000000 0.000000 0.056650 0.000000
# 6 0.000000 0.000000 0.000000 0.000000 0.000000 0.253851
#
#
# Mechanical properties :
#
#
# Convention : Reuss Voigt Hill
#
# Bulk Modulus (GPa) = 29.82377 54.31314 42.06846
# Shear Modulus (GPa) = 17.40973 18.79983 18.10478
#
# Velocity S-wave (km/s) = 2.93087 3.04563 2.98880
# Velocity P-wave (km/s) = 5.11550 6.25827 5.71552
#
# Compressibility (1/GPa) = 0.03353030
#
# Stress axis : x y z
#
# Youngs Moduli (GPa) = 80.29523 40.50032 127.25716
#
# Poissons Ratio (x) = 0.00327 0.66795
# Poissons Ratio (y) = 0.00649 0.05177
# Poissons Ratio (z) = 0.42146 0.01648
#
# Static dielectric constant tensor:
#      x y z
#    x 1.693660 0.000000 0.000000 
#    y 0.000000 1.777990 0.000000 
#    z 0.000000 0.000000 1.753540 
# 
# From -- ./inp_files/35648.got.cif
#   From: 2010.05.17/outbox.cif.g08.bks.cpg/sg67_18_cif.got.tgz:35648.got - 2010.06.03 18:28:57.
