data_PCOD9500273
_publ_section_title
;
Structure prediction by ZEFSAII (Michael W. Deem and Ramdas Pophale) SiO2 
 PCOD9500273
Probable space group: C M M A
;
_chemical_formula_sum "Si O2"
_cell_formula_units_Z 96
_cell_length_a 32.271929
_cell_length_b 8.753325
_cell_length_c 19.795279
_cell_angle_alpha 90.000000
_cell_angle_beta 90.000000
_cell_angle_gamma 90.000000
_cell_volume 5591.902702
_symmetry_space_group_name_H-M "C M M A"
_symmetry_group_IT_number 67
_symmetry_cell_setting 'orthorhombic'
loop_
_space_group_symop_operation_xyz
x,y,z
-x,1/2-y,z
x,-y,-z
-x,1/2+y,-z
-x,-y,-z
x,1/2+y,-z
-x,y,z
x,1/2-y,z
1/2+x,1/2+y,z
1/2-x,-y,z
1/2+x,1/2-y,-z
1/2-x,y,-z
1/2-x,1/2-y,-z
1/2+x,y,-z
1/2-x,1/2+y,z
1/2+x,-y,z
loop_
_atom_site_type_symbol
_atom_site_label
_atom_site_fract_x
_atom_site_fract_y
_atom_site_fract_z
Si Si1 0.878493 0.565514 0.171511
Si Si2 0.883472 0.933250 0.329740
Si Si3 0.292209 0.932262 0.174349
Si Si4 0.547262 0.567467 0.425995
Si Si5 0.208340 0.066747 0.673296
Si Si6 0.453107 0.434234 0.074307
O O1 0.873923 0.750000 0.169220
O O2 0.885238 0.524014 0.250327
O O3 0.835834 0.490969 0.145562
O O4 0.917856 0.519026 0.127007
O O5 0.887924 0.750000 0.333374
O O6 0.836960 0.971162 0.355974
O O7 0.919342 0.009372 0.372696
O O8 0.290291 0.750000 0.175142
O O9 0.250000 0.000000 0.142964
O O10 0.292812 0.997021 0.251158
O O11 0.556170 0.500000 0.500000
O O12 0.500000 0.521110 0.407870
O O13 0.548606 0.750000 0.429738
O O14 0.211649 0.250000 0.678338
O O15 0.250000 0.000000 0.640187
O O16 0.500000 0.480439 0.094219
O O17 0.452381 0.250000 0.070784
O O18 0.445008 0.500000 0.000000
#
# Coordination Sequence:
#
# PCOD9500273 Si02
#       6
#    16  16  16  16  16  16
#     4   9  18  32  49  72 101 130 162 200 242 287
#     4   9  18  31  49  74 101 128 160 199 241 285
#     4  10  17  26  43  67  96 128 161 197 239 285
#     4  10  21  36  53  72  95 126 163 200 241 291
#     4   9  16  27  44  68  98 130 162 195 235 283
#     4   9  18  33  52  72  96 129 166 201 240 289
#
# _framework density 17.167681000000002
#
# number of rings (size 3 to 8) (size 9 to 14) (size 15 to 20)
#    0.000    2.667    0.000    4.500    0.000    5.667 
#    0.000    1.667    0.000    3.000    0.000    7.000 
#    0.000    0.000    0.000    0.000    0.000    0.000 
#
# Total GULP energy -267405.555509 kJ/mol
# GULP energy per Si atom -5570.949073 kJ/mol
# Density = 1.712861 g / cm^3
# Si number density = 17.167681 Si / 1000 Ang^3
#
#
#
# Elastic Constant Matrix: (Units=GPa)
#
#
# Indices 1 2 3 4 5 6 
#
# 1 194.5199 58.8339 81.6888 0.0000 0.0000 0.0000
# 2 58.8339 50.6719 25.6406 0.0000 0.0000 0.0000
# 3 81.6888 25.6406 50.2299 0.0000 0.0000 0.0000
# 4 0.0000 0.0000 0.0000 21.7261 0.0000 0.0000
# 5 0.0000 0.0000 0.0000 0.0000 -8.1193 0.0000
# 6 0.0000 0.0000 0.0000 0.0000 0.0000 28.5167
#
#
#
# Elastic Compliance Matrix: (Units=1/GPa)
#
#
# Indices 1 2 3 4 5 6 
#
# 1 0.018567 -0.008465 -0.025875 0.000000 0.000000 0.000000
# 2 -0.008465 0.030467 -0.001786 0.000000 0.000000 0.000000
# 3 -0.025875 -0.001786 0.062900 0.000000 0.000000 0.000000
# 4 0.000000 0.000000 0.000000 0.046028 0.000000 0.000000
# 5 0.000000 0.000000 0.000000 0.000000 -0.123163 0.000000
# 6 0.000000 0.000000 0.000000 0.000000 0.000000 0.035067
#
#
# Mechanical properties :
#
#
# Convention : Reuss Voigt Hill
#
# Bulk Modulus (GPa) = 25.19950 69.74981 47.47466
# Shear Modulus (GPa) = 32.18645 17.04195 24.61420
#
# Velocity S-wave (km/s) = 4.33463 3.15409 3.79060
# Velocity P-wave (km/s) = 6.30573 7.34719 6.84629
#
# Compressibility (1/GPa) = 0.03968333
#
# Stress axis : x y z
#
# Youngs Moduli (GPa) = 53.85796 32.82253 15.89820
#
# Poissons Ratio (x) = 0.27784 0.41136
# Poissons Ratio (y) = 0.45591 0.02839
# Poissons Ratio (z) = 1.39357 0.05861
#
# Static dielectric constant tensor:
#      x y z
#    x 1.635920 0.000000 0.000000 
#    y 0.000000 1.575940 0.000000 
#    z 0.000000 0.000000 1.546850 
# 
# From -- ./inp_files/42704.got.cif
#   From: 2010.05.17/outbox.cif.g08.bks.cpg/sg67_22_cif.got.tgz:42704.got - 2010.06.03 18:28:57.
