data_PCOD9500925
_publ_section_title
;
Structure prediction by ZEFSAII (Michael W. Deem and Ramdas Pophale) SiO2 
 PCOD9500925
Probable space group: C M M A
;
_chemical_formula_sum "Si O2"
_cell_formula_units_Z 80
_cell_length_a 28.873700
_cell_length_b 18.079289
_cell_length_c 7.812069
_cell_angle_alpha 90.000000
_cell_angle_beta 90.000000
_cell_angle_gamma 90.000000
_cell_volume 4078.024752
_symmetry_space_group_name_H-M "C M M A"
_symmetry_group_IT_number 67
_symmetry_cell_setting 'orthorhombic'
loop_
_space_group_symop_operation_xyz
x,y,z
-x,1/2-y,z
x,-y,-z
-x,1/2+y,-z
-x,-y,-z
x,1/2+y,-z
-x,y,z
x,1/2-y,z
1/2+x,1/2+y,z
1/2-x,-y,z
1/2+x,1/2-y,-z
1/2-x,y,-z
1/2-x,1/2-y,-z
1/2+x,y,-z
1/2-x,1/2+y,z
1/2+x,-y,z
loop_
_atom_site_type_symbol
_atom_site_label
_atom_site_fract_x
_atom_site_fract_y
_atom_site_fract_z
Si Si1 0.646759 0.073360 0.281137
Si Si2 0.947614 0.337768 0.229730
Si Si3 0.947732 0.924698 0.110394
Si Si4 0.851414 0.399913 0.341239
Si Si5 0.305128 0.834518 0.013936
O O1 0.591836 0.081823 0.250020
O O2 0.661565 0.109357 0.460536
O O3 0.671245 0.110034 0.119437
O O4 0.655822 0.985870 0.293858
O O5 0.942760 0.250000 0.252614
O O6 0.905574 0.379503 0.320285
O O7 0.000000 0.359845 0.282637
O O8 0.943819 0.359530 0.029348
O O9 0.000000 0.926728 0.178445
O O10 0.940304 0.000000 0.000000
O O11 0.823099 0.352664 0.204039
O O12 0.317923 0.750000 0.971537
O O13 0.250000 0.842053 0.000000
#
# Coordination Sequence:
#
# PCOD9500925 Si02
#       5
#    16  16  16  16  16
#     4  11  23  39  63  93 125 162 202 250 307 365
#     4  10  20  35  57  86 124 166 204 246 294 347
#     4  10  18  33  59  89 123 165 208 246 292 355
#     4  11  23  39  62  94 126 159 205 252 301 366
#     4  11  25  45  67  89 118 157 201 255 317 375
#
# _framework density 19.617339999999999
#
# number of rings (size 3 to 8) (size 9 to 14) (size 15 to 20)
#    0.000    1.400    4.000    1.200    0.000    4.800 
#    0.000    6.000    0.000    2.400    0.000    0.000 
#    0.000    0.000    0.000    0.000    0.000    0.000 
#
# Total GULP energy -223446.438023 kJ/mol
# GULP energy per Si atom -5586.160951 kJ/mol
# Density = 1.957269 g / cm^3
# Si number density = 19.617340 Si / 1000 Ang^3
#
#
#
# Elastic Constant Matrix: (Units=GPa)
#
#
# Indices 1 2 3 4 5 6 
#
# 1 56.1149 18.0996 22.2482 0.0000 0.0000 0.0000
# 2 18.0996 60.3810 19.2348 0.0000 0.0000 0.0000
# 3 22.2482 19.2348 73.2931 0.0000 0.0000 0.0000
# 4 0.0000 0.0000 0.0000 14.7376 0.0000 0.0000
# 5 0.0000 0.0000 0.0000 0.0000 -0.0387 0.0000
# 6 0.0000 0.0000 0.0000 0.0000 0.0000 52.4115
#
#
#
# Elastic Compliance Matrix: (Units=1/GPa)
#
#
# Indices 1 2 3 4 5 6 
#
# 1 0.021439 -0.004750 -0.005261 0.000000 0.000000 0.000000
# 2 -0.004750 0.019125 -0.003577 0.000000 0.000000 0.000000
# 3 -0.005261 -0.003577 0.016180 0.000000 0.000000 0.000000
# 4 0.000000 0.000000 0.000000 0.067854 0.000000 0.000000
# 5 0.000000 0.000000 0.000000 0.000000-25.848343 0.000000
# 6 0.000000 0.000000 0.000000 0.000000 0.000000 0.019080
#
#
# Mechanical properties :
#
#
# Convention : Reuss Voigt Hill
#
# Bulk Modulus (GPa) = 33.82250 34.32824 34.07537
# Shear Modulus (GPa) = -0.19480 22.10251 10.95385
#
# Velocity S-wave (km/s) = -0.31546 3.36025 2.36556
# Velocity P-wave (km/s) = 4.14076 5.70894 4.98687
#
# Compressibility (1/GPa) = 0.02956612
#
# Stress axis : x y z
#
# Youngs Moduli (GPa) = 46.64468 52.28767 61.80618
#
# Poissons Ratio (x) = 0.24839 0.32517
# Poissons Ratio (y) = 0.22158 0.22109
# Poissons Ratio (z) = 0.24540 0.18704
#
# Static dielectric constant tensor:
#      x y z
#    x 1.692580 0.000000 0.000000 
#    y 0.000000 1.688520 0.000000 
#    z 0.000000 0.000000 1.681730 
# 
# From -- ./inp_files/13516.got.cif
#   From: 2010.05.17/outbox.cif.g08.bks.cpg/sg67_7_cif.got.tgz:13516.got - 2010.06.03 18:28:57.
