data_PCOD9500142
_publ_section_title
;
Structure prediction by ZEFSAII (Michael W. Deem and Ramdas Pophale) SiO2 
 PCOD9500142
Probable space group: C C C M
;
_chemical_formula_sum "Si O2"
_cell_formula_units_Z 48
_cell_length_a 27.000000
_cell_length_b 9.000000
_cell_length_c 21.000000
_cell_angle_alpha 90.000000
_cell_angle_beta 90.000000
_cell_angle_gamma 90.000000
_cell_volume 5103.000000
_symmetry_space_group_name_H-M "C C C M"
_symmetry_group_IT_number 66
_symmetry_cell_setting 'orthorhombic'
loop_
_space_group_symop_operation_xyz
x,y,z
-x,-y,z
x,-y,1/2-z
-x,y,1/2-z
-x,-y,-z
x,y,-z
-x,y,1/2+z
x,-y,1/2+z
1/2+x,1/2+y,z
1/2-x,1/2-y,z
1/2+x,1/2-y,1/2-z
1/2-x,1/2+y,1/2-z
1/2-x,1/2-y,-z
1/2+x,1/2+y,-z
1/2-x,1/2+y,1/2+z
1/2+x,1/2-y,1/2+z
loop_
_atom_site_type_symbol
_atom_site_label
_atom_site_fract_x
_atom_site_fract_y
_atom_site_fract_z
Si Si1 0.723815 0.091698 0.188577
Si Si2 0.873889 0.756800 0.282598
Si Si3 0.369337 0.421682 0.149543
Si Si4 0.981895 0.668796 0.683968
Si Si5 0.468177 0.350293 0.072392
Si Si6 0.232504 0.918997 0.427257
O O1 0.750000 0.250000 0.185470
O O2 0.667999 0.138027 0.201935
O O3 0.743238 0.000000 0.250000
O O4 0.733139 0.006844 0.122802
O O5 0.870881 0.804359 0.208199
O O6 0.923810 0.682993 0.307517
O O7 0.869519 0.913768 0.319712
O O8 0.416294 0.390254 0.105205
O O9 0.320938 0.415540 0.105982
O O10 0.000000 0.500000 0.683911
O O11 0.000000 0.745091 0.750000
O O12 0.003058 0.743752 0.621005
O O13 0.500000 0.500000 0.069225
O O14 0.462279 0.292907 0.000000
O O15 0.231738 0.978525 0.500000
O O16 0.250000 0.750000 0.430276
#
# Coordination Sequence:
#
# PCOD9500142 Si02
#       6
#    16  16  16  16  16  16
#     4  12  24  41  65  97 130 164 215 269 323 381
#     4  11  23  38  66  97 125 168 216 269 323 378
#     4  11  21  41  66  94 127 167 223 265 314 385
#     4  11  24  41  63  95 130 165 210 267 324 382
#     4  11  23  40  65  94 126 166 212 263 316 383
#     4  11  25  45  66  94 133 176 216 266 329 391
#
# _framework density 9.4062319999999993
#
# number of rings (size 3 to 8) (size 9 to 14) (size 15 to 20)
#    0.000    0.833    5.000    3.000    2.333    2.333 
#    0.000    0.833    0.000    0.000    0.000    0.000 
#    0.000    0.000    0.000    0.000    0.000    0.000 
#
# Total GULP energy -267990.609240 kJ/mol
# GULP energy per Si atom -5583.137693 kJ/mol
# Density = 0.938482 g / cm^3
# Si number density = 9.406232 Si / 1000 Ang^3
#
#
#
# Elastic Constant Matrix: (Units=GPa)
#
#
# Indices 1 2 3 4 5 6 
#
# 1 108.2383 36.5358 64.0114 0.0000 0.0000 0.0000
# 2 36.5358 85.4145 64.9584 0.0000 0.0000 0.0000
# 3 64.0114 64.9584 209.0463 0.0000 0.0000 0.0000
# 4 0.0000 0.0000 0.0000 36.9103 0.0000 0.0000
# 5 0.0000 0.0000 0.0000 0.0000 29.4473 0.0000
# 6 0.0000 0.0000 0.0000 0.0000 0.0000 11.8509
#
#
#
# Elastic Compliance Matrix: (Units=1/GPa)
#
#
# Indices 1 2 3 4 5 6 
#
# 1 0.011850 -0.003024 -0.002689 0.000000 0.000000 0.000000
# 2 -0.003024 0.016102 -0.004078 0.000000 0.000000 0.000000
# 3 -0.002689 -0.004078 0.006874 0.000000 0.000000 0.000000
# 4 0.000000 0.000000 0.000000 0.027093 0.000000 0.000000
# 5 0.000000 0.000000 0.000000 0.000000 0.033959 0.000000
# 6 0.000000 0.000000 0.000000 0.000000 0.000000 0.084382
#
#
# Mechanical properties :
#
#
# Convention : Reuss Voigt Hill
#
# Bulk Modulus (GPa) = 65.59382 81.52337 73.55860
# Shear Modulus (GPa) = 24.39955 31.45460 27.92708
#
# Velocity S-wave (km/s) = 3.60528 4.09346 3.85710
# Velocity P-wave (km/s) = 7.23005 8.10991 7.68259
#
# Compressibility (1/GPa) = 0.01524534
#
# Stress axis : x y z
#
# Youngs Moduli (GPa) = 84.39012 62.10376 145.47473
#
# Poissons Ratio (x) = 0.18779 0.39116
# Poissons Ratio (y) = 0.25518 0.59319
# Poissons Ratio (z) = 0.22691 0.25324
#
# Static dielectric constant tensor:
#      x y z
#    x 1.578810 0.000000 0.000000 
#    y 0.000000 1.628740 0.000000 
#    z 0.000000 0.000000 1.652900 
# 
# From -- ./inp_files/52974.got.cif
#   From: 2010.05.17/outbox.ucp.g08.bks.cvg/sg66_27_cif.got.tgz:52974.got - 2010.06.11 16:44:13.
