data_PCOD9500118
_publ_section_title
;
Structure prediction by ZEFSAII (Michael W. Deem and Ramdas Pophale) SiO2 
 PCOD9500118
Probable space group: C C C M
;
_chemical_formula_sum "Si O2"
_cell_formula_units_Z 44
_cell_length_a 24.000000
_cell_length_b 21.000000
_cell_length_c 9.000000
_cell_angle_alpha 90.000000
_cell_angle_beta 90.000000
_cell_angle_gamma 90.000000
_cell_volume 4536.000000
_symmetry_space_group_name_H-M "C C C M"
_symmetry_group_IT_number 66
_symmetry_cell_setting 'orthorhombic'
loop_
_space_group_symop_operation_xyz
x,y,z
-x,-y,z
x,-y,1/2-z
-x,y,1/2-z
-x,-y,-z
x,y,-z
-x,y,1/2+z
x,-y,1/2+z
1/2+x,1/2+y,z
1/2-x,1/2-y,z
1/2+x,1/2-y,1/2-z
1/2-x,1/2+y,1/2-z
1/2-x,1/2-y,-z
1/2+x,1/2+y,-z
1/2-x,1/2+y,1/2+z
1/2+x,1/2-y,1/2+z
loop_
_atom_site_type_symbol
_atom_site_label
_atom_site_fract_x
_atom_site_fract_y
_atom_site_fract_z
Si Si1 0.132712 0.786618 0.326443
Si Si2 0.155356 0.347263 0.321190
Si Si3 0.942670 0.429600 0.680009
Si Si4 0.271598 0.610271 0.324050
Si Si5 0.150919 0.000000 0.750000
Si Si6 0.443451 0.597773 0.667877
O O1 0.121558 0.768724 0.500000
O O2 0.141853 0.725224 0.226167
O O3 0.189102 0.827962 0.326334
O O4 0.085303 0.836973 0.274409
O O5 0.156033 0.354161 0.500000
O O6 0.107924 0.389028 0.242928
O O7 0.213365 0.370639 0.248721
O O8 0.937102 0.500000 0.750000
O O9 0.944569 0.431664 0.500000
O O10 0.000000 0.403215 0.750000
O O11 0.266644 0.589294 0.500000
O O12 0.304122 0.557041 0.225926
O O13 0.104671 0.043542 0.835374
O O14 0.500000 0.579289 0.750000
O O15 0.459783 0.610812 0.500000
#
# Coordination Sequence:
#
# PCOD9500118 Si02
#       6
#    16  16  16  16   8  16
#     4   9  20  41  62  84 119 163 208 258 315 368
#     4  12  25  39  61  93 125 161 205 252 307 370
#     4  11  23  43  67  91 122 156 195 244 301 361
#     4  10  22  40  62  87 121 165 209 258 315 367
#     4  10  21  38  62  90 123 160 212 258 310 372
#     4  10  22  39  62  91 124 165 209 258 314 374
#
# _framework density 9.7001760000000008
#
# number of rings (size 3 to 8) (size 9 to 14) (size 15 to 20)
#    0.000    1.636    0.000    6.273    1.273    8.000 
#    0.000    7.273    0.000    0.000    0.000    0.000 
#    0.000    0.000    0.000    0.000    0.000    0.000 
#
# Total GULP energy -245074.482635 kJ/mol
# GULP energy per Si atom -5569.874605 kJ/mol
# Density = 0.967810 g / cm^3
# Si number density = 9.700176 Si / 1000 Ang^3
#
#
#
# Elastic Constant Matrix: (Units=GPa)
#
#
# Indices 1 2 3 4 5 6 
#
# 1 118.3427 57.5286 61.0124 0.0000 0.0000 0.0000
# 2 57.5286 84.1761 40.4605 0.0000 0.0000 0.0000
# 3 61.0124 40.4605 112.4838 0.0000 0.0000 0.0000
# 4 0.0000 0.0000 0.0000 27.3559 0.0000 0.0000
# 5 0.0000 0.0000 0.0000 0.0000 19.8926 0.0000
# 6 0.0000 0.0000 0.0000 0.0000 0.0000 22.3941
#
#
#
# Elastic Compliance Matrix: (Units=1/GPa)
#
#
# Indices 1 2 3 4 5 6 
#
# 1 0.014911 -0.007621 -0.005347 0.000000 0.000000 0.000000
# 2 -0.007621 0.018258 -0.002434 0.000000 0.000000 0.000000
# 3 -0.005347 -0.002434 0.012666 0.000000 0.000000 0.000000
# 4 0.000000 0.000000 0.000000 0.036555 0.000000 0.000000
# 5 0.000000 0.000000 0.000000 0.000000 0.050270 0.000000
# 6 0.000000 0.000000 0.000000 0.000000 0.000000 0.044655
#
#
# Mechanical properties :
#
#
# Convention : Reuss Voigt Hill
#
# Bulk Modulus (GPa) = 66.52393 70.33394 68.42894
# Shear Modulus (GPa) = 23.46006 24.32860 23.89433
#
# Velocity S-wave (km/s) = 3.48121 3.54507 3.51329
# Velocity P-wave (km/s) = 7.10795 7.28624 7.19765
#
# Compressibility (1/GPa) = 0.01503218
#
# Stress axis : x y z
#
# Youngs Moduli (GPa) = 67.06364 54.77062 78.95295
#
# Poissons Ratio (x) = 0.41739 0.42215
# Poissons Ratio (y) = 0.51108 0.19216
# Poissons Ratio (z) = 0.35858 0.13330
#
# Static dielectric constant tensor:
#      x y z
#    x 1.684220 0.000000 0.000000 
#    y 0.000000 1.692790 0.000000 
#    z 0.000000 0.000000 1.669630 
# 
# From -- ./inp_files/9003.got.cif
#   From: 2010.05.17/outbox.ucp.g08.bks.cvg/sg66_5_cif.got.tgz:9003.got - 2010.06.11 16:44:13.
