data_PCOD9500284
_publ_section_title
;
Structure prediction by ZEFSAII (Michael W. Deem and Ramdas Pophale) SiO2 
 PCOD9500284
Probable space group: C M M A
;
_chemical_formula_sum "Si O2"
_cell_formula_units_Z 104
_cell_length_a 8.608514
_cell_length_b 26.312443
_cell_length_c 28.511306
_cell_angle_alpha 90.000000
_cell_angle_beta 90.000000
_cell_angle_gamma 90.000000
_cell_volume 6458.125401
_symmetry_space_group_name_H-M "C M M A"
_symmetry_group_IT_number 67
_symmetry_cell_setting 'orthorhombic'
loop_
_space_group_symop_operation_xyz
x,y,z
-x,1/2-y,z
x,-y,-z
-x,1/2+y,-z
-x,-y,-z
x,1/2+y,-z
-x,y,z
x,1/2-y,z
1/2+x,1/2+y,z
1/2-x,-y,z
1/2+x,1/2-y,-z
1/2-x,y,-z
1/2-x,1/2-y,-z
1/2+x,y,-z
1/2-x,1/2+y,z
1/2+x,-y,z
loop_
_atom_site_type_symbol
_atom_site_label
_atom_site_fract_x
_atom_site_fract_y
_atom_site_fract_z
Si Si1 0.818349 0.307626 0.221894
Si Si2 0.686714 0.750000 0.052706
Si Si3 0.816562 0.056780 0.355914
Si Si4 0.312188 0.335057 0.121473
Si Si5 0.184842 0.942063 0.451748
Si Si6 0.182097 0.594351 0.259499
Si Si7 0.813252 0.945007 0.156992
O O1 0.804014 0.250000 0.238254
O O2 0.762179 0.311322 0.168267
O O3 0.711498 0.346618 0.249513
O O4 0.000000 0.322702 0.224751
O O5 0.500000 0.750000 0.053883
O O6 0.749433 0.800584 0.079240
O O7 0.750000 0.750000 0.000000
O O8 0.741146 0.081291 0.402520
O O9 0.773127 0.080580 0.306211
O O10 0.000000 0.055230 0.362571
O O11 0.750000 0.000000 0.353031
O O12 0.500000 0.331449 0.123189
O O13 0.270771 0.395417 0.125595
O O14 0.250000 0.918757 0.500000
O O15 0.000000 0.943886 0.453442
O O16 0.250000 0.000000 0.450928
O O17 0.235795 0.566820 0.211116
O O18 0.000000 0.582949 0.265881
O O19 0.000000 0.947052 0.157273
O O20 0.750000 0.000000 0.142396
#
# Coordination Sequence:
#
# PCOD9500284 Si02
#       7
#    16   8  16  16  16  16  16
#     4  10  19  31  49  73  99 128 163 200 241 290
#     4  12  24  38  58  84 108 134 166 208 259 304
#     4  11  20  30  43  61  88 122 158 198 242 288
#     4  10  20  35  54  77 106 137 169 207 250 296
#     4  10  17  27  41  58  80 110 150 193 238 287
#     4  10  20  32  45  66  95 130 167 202 245 290
#     4   9  19  32  49  73 101 135 171 205 242 288
#
# _framework density 16.103745
#
# number of rings (size 3 to 8) (size 9 to 14) (size 15 to 20)
#    0.000    1.846    0.769    7.615    0.000    5.846 
#    0.000    0.000    0.000    0.462    0.000    3.231 
#    0.000    0.615    0.000    2.308    0.000    3.846 
#
# Total GULP energy -289866.586509 kJ/mol
# GULP energy per Si atom -5574.357433 kJ/mol
# Density = 1.606709 g / cm^3
# Si number density = 16.103745 Si / 1000 Ang^3
#
#
#
# Elastic Constant Matrix: (Units=GPa)
#
#
# Indices 1 2 3 4 5 6 
#
# 1 85.4432 16.6219 27.2117 0.0000 0.0000 0.0000
# 2 16.6219 78.5591 35.3806 0.0000 0.0000 0.0000
# 3 27.2117 35.3806 106.3993 0.0000 0.0000 0.0000
# 4 0.0000 0.0000 0.0000 14.1461 0.0000 0.0000
# 5 0.0000 0.0000 0.0000 0.0000 28.2141 0.0000
# 6 0.0000 0.0000 0.0000 0.0000 0.0000 25.3043
#
#
#
# Elastic Compliance Matrix: (Units=1/GPa)
#
#
# Indices 1 2 3 4 5 6 
#
# 1 0.012882 -0.001461 -0.002809 0.000000 0.000000 0.000000
# 2 -0.001461 0.015137 -0.004660 0.000000 0.000000 0.000000
# 3 -0.002809 -0.004660 0.011666 0.000000 0.000000 0.000000
# 4 0.000000 0.000000 0.000000 0.070691 0.000000 0.000000
# 5 0.000000 0.000000 0.000000 0.000000 0.035443 0.000000
# 6 0.000000 0.000000 0.000000 0.000000 0.000000 0.039519
#
#
# Mechanical properties :
#
#
# Convention : Reuss Voigt Hill
#
# Bulk Modulus (GPa) = 45.81510 47.64779 46.73144
# Shear Modulus (GPa) = 23.75592 26.27872 25.01732
#
# Velocity S-wave (km/s) = 3.84497 4.04399 3.94573
# Velocity P-wave (km/s) = 6.94431 7.17338 7.05977
#
# Compressibility (1/GPa) = 0.02182687
#
# Stress axis : x y z
#
# Youngs Moduli (GPa) = 77.62512 66.06334 85.71552
#
# Poissons Ratio (x) = 0.09649 0.24077
# Poissons Ratio (y) = 0.11338 0.39943
# Poissons Ratio (z) = 0.21805 0.30785
#
# Static dielectric constant tensor:
#      x y z
#    x 1.541610 0.000000 0.000000 
#    y 0.000000 1.556470 0.000000 
#    z 0.000000 0.000000 1.576290 
# 
# From -- ./inp_files/43841.got.cif
#   From: 2010.05.17/outbox.cif.g08.bks.cpg/sg67_22_cif.got.tgz:43841.got - 2010.06.03 18:28:57.
