data_PCOD9500635
_publ_section_title
;
Structure prediction by ZEFSAII (Michael W. Deem and Ramdas Pophale) SiO2 
 PCOD9500635
Probable space group: C M M A
;
_chemical_formula_sum "Si O2"
_cell_formula_units_Z 80
_cell_length_a 8.609559
_cell_length_b 26.875514
_cell_length_c 19.195019
_cell_angle_alpha 90.000000
_cell_angle_beta 90.000000
_cell_angle_gamma 90.000000
_cell_volume 4441.464875
_symmetry_space_group_name_H-M "C M M A"
_symmetry_group_IT_number 67
_symmetry_cell_setting 'orthorhombic'
loop_
_space_group_symop_operation_xyz
x,y,z
-x,1/2-y,z
x,-y,-z
-x,1/2+y,-z
-x,-y,-z
x,1/2+y,-z
-x,y,z
x,1/2-y,z
1/2+x,1/2+y,z
1/2-x,-y,z
1/2+x,1/2-y,-z
1/2-x,y,-z
1/2-x,1/2-y,-z
1/2+x,y,-z
1/2-x,1/2+y,z
1/2+x,-y,z
loop_
_atom_site_type_symbol
_atom_site_label
_atom_site_fract_x
_atom_site_fract_y
_atom_site_fract_z
Si Si1 0.813150 0.553913 0.666118
Si Si2 0.686944 0.646405 0.078664
Si Si3 0.313396 0.946851 0.171562
Si Si4 0.314442 0.853937 0.578758
Si Si5 0.185749 0.250000 0.420707
Si Si6 0.185430 0.750000 0.079266
O O1 0.750000 0.500000 0.642977
O O2 0.767846 0.559732 0.747550
O O3 0.742594 0.598845 0.622228
O O4 0.000000 0.554575 0.661009
O O5 0.500000 0.648874 0.076381
O O6 0.737077 0.599366 0.124542
O O7 0.751008 0.698333 0.109363
O O8 0.750000 0.641092 0.000000
O O9 0.500000 0.948639 0.169423
O O10 0.250000 0.000000 0.147059
O O11 0.500000 0.851424 0.576435
O O12 0.250000 0.858594 0.500000
O O13 0.248431 0.801928 0.609438
O O14 0.250000 0.250000 0.500000
O O15 0.000000 0.250000 0.421376
O O16 0.000000 0.750000 0.078190
O O17 0.250000 0.750000 0.000000
#
# Coordination Sequence:
#
# PCOD9500635 Si02
#       6
#    16  16  16  16   8   8
#     4  10  20  37  56  77 103 137 175 215 261 311
#     4  10  19  33  52  77 104 135 170 210 254 303
#     4   9  20  36  55  75 102 137 173 210 257 307
#     4  11  21  35  55  81 108 138 173 214 257 306
#     4  10  18  32  53  78 107 140 172 210 256 306
#     4  10  18  30  49  74 101 134 168 208 256 304
#
# _framework density 18.012076
#
# number of rings (size 3 to 8) (size 9 to 14) (size 15 to 20)
#    0.000    2.000    0.000    7.200    0.000    3.200 
#    0.000    5.000    0.000    2.400    0.000    0.000 
#    0.000    0.000    0.000    0.000    0.000    0.000 
#
# Total GULP energy -223227.112900 kJ/mol
# GULP energy per Si atom -5580.677822 kJ/mol
# Density = 1.797108 g / cm^3
# Si number density = 18.012076 Si / 1000 Ang^3
#
#
#
# Elastic Constant Matrix: (Units=GPa)
#
#
# Indices 1 2 3 4 5 6 
#
# 1 117.2788 70.0384 28.1909 0.0000 0.0000 0.0000
# 2 70.0384 229.0164 74.6204 0.0000 0.0000 0.0000
# 3 28.1909 74.6204 44.5445 0.0000 0.0000 0.0000
# 4 0.0000 0.0000 0.0000 -93.6554 0.0000 0.0000
# 5 0.0000 0.0000 0.0000 0.0000 19.8160 0.0000
# 6 0.0000 0.0000 0.0000 0.0000 0.0000 37.0221
#
#
#
# Elastic Compliance Matrix: (Units=1/GPa)
#
#
# Indices 1 2 3 4 5 6 
#
# 1 0.010589 -0.002323 -0.002811 0.000000 0.000000 0.000000
# 2 -0.002323 0.010124 -0.015489 0.000000 0.000000 0.000000
# 3 -0.002811 -0.015489 0.050175 0.000000 0.000000 0.000000
# 4 0.000000 0.000000 0.000000 -0.010677 0.000000 0.000000
# 5 0.000000 0.000000 0.000000 0.000000 0.050464 0.000000
# 6 0.000000 0.000000 0.000000 0.000000 0.000000 0.027011
#
#
# Mechanical properties :
#
#
# Convention : Reuss Voigt Hill
#
# Bulk Modulus (GPa) = 33.73437 81.83766 57.78602
# Shear Modulus (GPa) = 26.48132 7.16921 16.82526
#
# Velocity S-wave (km/s) = 3.83848 1.99721 3.05964
# Velocity P-wave (km/s) = 6.19795 7.13106 6.68082
#
# Compressibility (1/GPa) = 0.02964336
#
# Stress axis : x y z
#
# Youngs Moduli (GPa) = 94.43398 98.77924 19.93005
#
# Poissons Ratio (x) = 0.22942 0.05602
# Poissons Ratio (y) = 0.21933 0.30870
# Poissons Ratio (z) = 0.26545 1.52999
#
# Static dielectric constant tensor:
#      x y z
#    x 1.612640 0.000000 0.000000 
#    y 0.000000 1.640980 0.000000 
#    z 0.000000 0.000000 1.607310 
# 
# From -- ./inp_files/36903.got.cif
#   From: 2010.05.17/outbox.cif.g08.bks.cpg/sg67_19_cif.got.tgz:36903.got - 2010.06.03 18:28:57.
