data_PCOD9500765
_publ_section_title
;
Structure prediction by ZEFSAII (Michael W. Deem and Ramdas Pophale) SiO2 
 PCOD9500765
Probable space group: C M M A
;
_chemical_formula_sum "Si O2"
_cell_formula_units_Z 120
_cell_length_a 14.192044
_cell_length_b 31.108707
_cell_length_c 15.352369
_cell_angle_alpha 90.000000
_cell_angle_beta 90.000000
_cell_angle_gamma 90.000000
_cell_volume 6778.011631
_symmetry_space_group_name_H-M "C M M A"
_symmetry_group_IT_number 67
_symmetry_cell_setting 'orthorhombic'
loop_
_space_group_symop_operation_xyz
x,y,z
-x,1/2-y,z
x,-y,-z
-x,1/2+y,-z
-x,-y,-z
x,1/2+y,-z
-x,y,z
x,1/2-y,z
1/2+x,1/2+y,z
1/2-x,-y,z
1/2+x,1/2-y,-z
1/2-x,y,-z
1/2-x,1/2-y,-z
1/2+x,y,-z
1/2-x,1/2+y,z
1/2+x,-y,z
loop_
_atom_site_type_symbol
_atom_site_label
_atom_site_fract_x
_atom_site_fract_y
_atom_site_fract_z
Si Si1 0.750000 0.671265 0.500000
Si Si2 0.887251 0.098703 0.452367
Si Si3 0.615154 0.432922 0.057431
Si Si4 0.885897 0.028930 0.120140
Si Si5 0.114486 0.123568 0.785675
Si Si6 0.843912 0.973591 0.684119
Si Si7 0.888448 0.799790 0.344889
Si Si8 0.396203 0.562925 0.636715
O O1 0.825263 0.641351 0.550379
O O2 0.816543 0.693685 0.426509
O O3 0.863071 0.066791 0.374926
O O4 0.857761 0.074406 0.542265
O O5 0.000000 0.106586 0.451789
O O6 0.500000 0.431752 0.055750
O O7 0.640331 0.479350 0.099309
O O8 0.646772 0.393521 0.119068
O O9 0.645702 0.439120 0.956987
O O10 0.850714 0.038893 0.215752
O O11 0.000000 0.029780 0.121726
O O12 0.136607 0.168047 0.735281
O O13 0.150085 0.087126 0.717708
O O14 0.000000 0.123014 0.792875
O O15 0.750000 0.000000 0.664921
O O16 0.909205 0.013395 0.657917
O O17 0.883315 0.750000 0.318185
O O18 0.000000 0.808456 0.368701
O O19 0.500000 0.583176 0.633329
#
# Coordination Sequence:
#
# PCOD9500765 Si02
#       8
#     8  16  16  16  16  16  16  16
#     4  12  21  36  55  74 104 144 180 221 271 336
#     4  11  23  35  49  72 103 144 192 235 270 313
#     4   8  14  25  48  71  87 122 169 210 254 310
#     4   9  16  29  46  65  91 126 172 213 251 300
#     4   9  15  28  52  75  97 128 167 211 265 320
#     4  12  23  31  43  67 101 143 185 228 259 297
#     4  10  21  36  56  82 109 136 171 220 276 335
#     4  10  18  32  49  64  89 134 181 219 258 300
#
# _framework density 17.704307
#
# number of rings (size 3 to 8) (size 9 to 14) (size 15 to 20)
#    0.000    2.000    2.667    3.800    0.000    1.600 
#    0.000    1.333    0.000    0.000    0.000    0.000 
#    0.000    3.200    0.000   11.867    0.000    0.400 
#
# Total GULP energy -334112.289534 kJ/mol
# GULP energy per Si atom -5568.538159 kJ/mol
# Density = 1.766401 g / cm^3
# Si number density = 17.704307 Si / 1000 Ang^3
#
#
#
# Elastic Constant Matrix: (Units=GPa)
#
#
# Indices 1 2 3 4 5 6 
#
# 1 77.7716 19.7954 19.3131 0.0000 0.0000 0.0000
# 2 19.7954 81.5819 45.3724 0.0000 0.0000 0.0000
# 3 19.3131 45.3724 68.8164 0.0000 0.0000 0.0000
# 4 0.0000 0.0000 0.0000 12.3210 0.0000 0.0000
# 5 0.0000 0.0000 0.0000 0.0000 19.7643 0.0000
# 6 0.0000 0.0000 0.0000 0.0000 0.0000 19.4412
#
#
#
# Elastic Compliance Matrix: (Units=1/GPa)
#
#
# Indices 1 2 3 4 5 6 
#
# 1 0.014008 -0.001915 -0.002669 0.000000 0.000000 0.000000
# 2 -0.001915 0.019617 -0.012396 0.000000 0.000000 0.000000
# 3 -0.002669 -0.012396 0.023454 0.000000 0.000000 0.000000
# 4 0.000000 0.000000 0.000000 0.081163 0.000000 0.000000
# 5 0.000000 0.000000 0.000000 0.000000 0.050596 0.000000
# 6 0.000000 0.000000 0.000000 0.000000 0.000000 0.051437
#
#
# Mechanical properties :
#
#
# Convention : Reuss Voigt Hill
#
# Bulk Modulus (GPa) = 43.25534 44.12574 43.69054
# Shear Modulus (GPa) = 17.73422 19.88455 18.80938
#
# Velocity S-wave (km/s) = 3.16838 3.35498 3.26301
# Velocity P-wave (km/s) = 6.15386 6.32342 6.23922
#
# Compressibility (1/GPa) = 0.02311853
#
# Stress axis : x y z
#
# Youngs Moduli (GPa) = 71.38625 50.97742 42.63718
#
# Poissons Ratio (x) = 0.09760 0.11380
# Poissons Ratio (y) = 0.13668 0.52855
# Poissons Ratio (z) = 0.19053 0.63193
#
# Static dielectric constant tensor:
#      x y z
#    x 1.566490 0.000000 0.000000 
#    y 0.000000 1.598140 0.000000 
#    z 0.000000 0.000000 1.651280 
# 
# From -- ./inp_files/27933.got.cif
#   From: 2010.05.17/outbox.cif.g08.bks.cpg/sg67_14_cif.got.tgz:27933.got - 2010.06.03 18:28:57.
