data_PCOD9500099
_publ_section_title
;
Structure prediction by ZEFSAII (Michael W. Deem and Ramdas Pophale) SiO2 
 PCOD9500099
Probable space group: C C C M
;
_chemical_formula_sum "Si O2"
_cell_formula_units_Z 48
_cell_length_a 27.000000
_cell_length_b 21.000000
_cell_length_c 9.000000
_cell_angle_alpha 90.000000
_cell_angle_beta 90.000000
_cell_angle_gamma 90.000000
_cell_volume 5103.000000
_symmetry_space_group_name_H-M "C C C M"
_symmetry_group_IT_number 66
_symmetry_cell_setting 'orthorhombic'
loop_
_space_group_symop_operation_xyz
x,y,z
-x,-y,z
x,-y,1/2-z
-x,y,1/2-z
-x,-y,-z
x,y,-z
-x,y,1/2+z
x,-y,1/2+z
1/2+x,1/2+y,z
1/2-x,1/2-y,z
1/2+x,1/2-y,1/2-z
1/2-x,1/2+y,1/2-z
1/2-x,1/2-y,-z
1/2+x,1/2+y,-z
1/2-x,1/2+y,1/2+z
1/2+x,1/2-y,1/2+z
loop_
_atom_site_type_symbol
_atom_site_label
_atom_site_fract_x
_atom_site_fract_y
_atom_site_fract_z
Si Si1 0.772729 0.820382 0.176445
Si Si2 0.709557 0.932727 0.677476
Si Si3 0.880305 0.178440 0.178578
Si Si4 0.445503 0.567320 0.320130
Si Si5 0.908701 0.433956 0.823306
Si Si6 0.448439 0.201985 0.678341
O O1 0.750000 0.750000 0.195513
O O2 0.737380 0.874205 0.245878
O O3 0.824794 0.822406 0.261154
O O4 0.779233 0.831721 0.000000
O O5 0.718269 0.933125 0.500000
O O6 0.650356 0.926846 0.702181
O O7 0.725176 0.000000 0.750000
O O8 0.910807 0.123704 0.262616
O O9 0.906075 0.246445 0.211541
O O10 0.881905 0.168670 0.000000
O O11 0.428288 0.500000 0.250000
O O12 0.500000 0.577997 0.250000
O O13 0.447804 0.564213 0.500000
O O14 0.925431 0.500000 0.750000
O O15 0.934485 0.369196 0.769196
O O16 0.916264 0.438780 0.000000
O O17 0.500000 0.222480 0.750000
O O18 0.453575 0.200011 0.500000
#
# Coordination Sequence:
#
# PCOD9500099 Si02
#       6
#    16  16  16  16  16  16
#     4  11  24  40  59  86 118 151 191 239 290 346
#     4  10  20  37  61  86 115 151 191 235 285 341
#     4  11  23  40  61  85 114 151 194 240 290 343
#     4  11  22  39  62  89 120 154 193 236 286 343
#     4   9  19  36  57  83 113 148 188 230 277 331
#     4  10  22  38  57  82 113 148 188 232 280 334
#
# _framework density 9.4062319999999993
#
# number of rings (size 3 to 8) (size 9 to 14) (size 15 to 20)
#    0.000    1.667    0.000    5.000    0.000    7.667 
#    0.000    5.000    0.000    0.000    0.000    0.000 
#    0.000    0.000    0.000    0.000    0.000    0.000 
#
# Total GULP energy -268261.273178 kJ/mol
# GULP energy per Si atom -5588.776525 kJ/mol
# Density = 0.938482 g / cm^3
# Si number density = 9.406232 Si / 1000 Ang^3
#
#
#
# Elastic Constant Matrix: (Units=GPa)
#
#
# Indices 1 2 3 4 5 6 
#
# 1 28.0724 8.7552 22.4048 0.0000 0.0000 0.0000
# 2 8.7552 82.0720 37.3249 0.0000 0.0000 0.0000
# 3 22.4048 37.3249 95.0846 0.0000 0.0000 0.0000
# 4 0.0000 0.0000 0.0000 32.8247 0.0000 0.0000
# 5 0.0000 0.0000 0.0000 0.0000 29.6341 0.0000
# 6 0.0000 0.0000 0.0000 0.0000 0.0000 40.1546
#
#
#
# Elastic Compliance Matrix: (Units=1/GPa)
#
#
# Indices 1 2 3 4 5 6 
#
# 1 0.043873 0.000026 -0.010348 0.000000 0.000000 0.000000
# 2 0.000026 0.014832 -0.005828 0.000000 0.000000 0.000000
# 3 -0.010348 -0.005828 0.015243 0.000000 0.000000 0.000000
# 4 0.000000 0.000000 0.000000 0.030465 0.000000 0.000000
# 5 0.000000 0.000000 0.000000 0.000000 0.033745 0.000000
# 6 0.000000 0.000000 0.000000 0.000000 0.000000 0.024904
#
#
# Mechanical properties :
#
#
# Convention : Reuss Voigt Hill
#
# Bulk Modulus (GPa) = 24.01115 38.02209 31.01662
# Shear Modulus (GPa) = 23.89537 29.63894 26.76716
#
# Velocity S-wave (km/s) = 3.56784 3.97356 3.77615
# Velocity P-wave (km/s) = 5.45562 6.42707 5.96116
#
# Compressibility (1/GPa) = 0.04164732
#
# Stress axis : x y z
#
# Youngs Moduli (GPa) = 22.79310 67.42031 65.60324
#
# Poissons Ratio (x) = -0.00174 0.67886
# Poissons Ratio (y) = -0.00059 0.38236
# Poissons Ratio (z) = 0.23586 0.39295
#
# Static dielectric constant tensor:
#      x y z
#    x 1.629960 0.000000 0.000000 
#    y 0.000000 1.642890 0.000000 
#    z 0.000000 0.000000 1.626280 
# 
# From -- ./inp_files/10244.got.cif
#   From: 2010.05.17/outbox.ucp.g08.bks.cvg/sg66_6_cif.got.tgz:10244.got - 2010.06.11 16:44:13.
