data_PCOD9500799
_publ_section_title
;
Structure prediction by ZEFSAII (Michael W. Deem and Ramdas Pophale) SiO2 
 PCOD9500799
Probable space group: C M M A
;
_chemical_formula_sum "Si O2"
_cell_formula_units_Z 112
_cell_length_a 16.396407
_cell_length_b 22.114202
_cell_length_c 17.210572
_cell_angle_alpha 90.000000
_cell_angle_beta 90.000000
_cell_angle_gamma 90.000000
_cell_volume 6240.440789
_symmetry_space_group_name_H-M "C M M A"
_symmetry_group_IT_number 67
_symmetry_cell_setting 'orthorhombic'
loop_
_space_group_symop_operation_xyz
x,y,z
-x,1/2-y,z
x,-y,-z
-x,1/2+y,-z
-x,-y,-z
x,1/2+y,-z
-x,y,z
x,1/2-y,z
1/2+x,1/2+y,z
1/2-x,-y,z
1/2+x,1/2-y,-z
1/2-x,y,-z
1/2-x,1/2-y,-z
1/2+x,y,-z
1/2-x,1/2+y,z
1/2+x,-y,z
loop_
_atom_site_type_symbol
_atom_site_label
_atom_site_fract_x
_atom_site_fract_y
_atom_site_fract_z
Si Si1 0.599332 0.318807 0.646302
Si Si2 0.904828 0.090677 0.480536
Si Si3 0.097775 0.013402 0.789653
Si Si4 0.842627 0.979750 0.383435
Si Si5 0.657102 0.818688 0.029724
Si Si6 0.401842 0.371974 0.812892
Si Si7 0.097896 0.941341 0.049180
O O1 0.500000 0.320732 0.644130
O O2 0.625740 0.250000 0.646722
O O3 0.627907 0.354311 0.570558
O O4 0.622021 0.350228 0.727039
O O5 0.858924 0.076568 0.560174
O O6 0.000000 0.099273 0.498396
O O7 0.896261 0.033196 0.422394
O O8 0.112879 0.943803 0.814543
O O9 0.000000 0.019670 0.780820
O O10 0.136121 0.027753 0.706475
O O11 0.127542 0.053191 0.862063
O O12 0.750000 0.000000 0.391430
O O13 0.624643 0.750000 0.016455
O O14 0.644733 0.835561 0.120310
O O15 0.750000 0.818375 0.000000
O O16 0.616882 0.876318 0.987079
O O17 0.500000 0.362511 0.823534
O O18 0.000000 0.947606 0.051329
O O19 0.128236 0.000000 0.000000
#
# Coordination Sequence:
#
# PCOD9500799 Si02
#       7
#    16  16  16  16  16  16  16
#     4   9  17  29  51  83 108 129 167 221 273 316
#     4  10  18  32  53  75 105 138 170 214 263 315
#     4  10  19  34  56  82 108 135 176 227 277 323
#     4  11  21  32  50  76 108 141 175 214 261 322
#     4  11  24  38  53  78 115 153 187 224 273 340
#     4  10  18  33  57  83 108 136 178 229 277 326
#     4  10  20  37  59  82 109 142 185 236 282 330
#
# _framework density 17.94745
#
# number of rings (size 3 to 8) (size 9 to 14) (size 15 to 20)
#    0.000    1.857    2.857    3.429    0.000    3.143 
#    0.000    0.000    0.000    2.571    0.000    2.000 
#    0.000    0.000    0.000    0.000    0.000    0.000 
#
# Total GULP energy -312342.643607 kJ/mol
# GULP energy per Si atom -5577.547207 kJ/mol
# Density = 1.790660 g / cm^3
# Si number density = 17.947450 Si / 1000 Ang^3
#
#
#
# Elastic Constant Matrix: (Units=GPa)
#
#
# Indices 1 2 3 4 5 6 
#
# 1 36.6011 8.3235 35.8323 0.0000 0.0000 0.0000
# 2 8.3235 83.2008 55.4291 0.0000 0.0000 0.0000
# 3 35.8323 55.4291 140.3244 0.0000 0.0000 0.0000
# 4 0.0000 0.0000 0.0000 21.3151 0.0000 0.0000
# 5 0.0000 0.0000 0.0000 0.0000 3.6677 0.0000
# 6 0.0000 0.0000 0.0000 0.0000 0.0000 14.3657
#
#
#
# Elastic Compliance Matrix: (Units=1/GPa)
#
#
# Indices 1 2 3 4 5 6 
#
# 1 0.037179 0.003536 -0.010891 0.000000 0.000000 0.000000
# 2 0.003536 0.016648 -0.007479 0.000000 0.000000 0.000000
# 3 -0.010891 -0.007479 0.012862 0.000000 0.000000 0.000000
# 4 0.000000 0.000000 0.000000 0.046915 0.000000 0.000000
# 5 0.000000 0.000000 0.000000 0.000000 0.272652 0.000000
# 6 0.000000 0.000000 0.000000 0.000000 0.000000 0.069610
#
#
# Mechanical properties :
#
#
# Convention : Reuss Voigt Hill
#
# Bulk Modulus (GPa) = 27.01124 51.03287 39.02206
# Shear Modulus (GPa) = 10.04269 18.57244 14.30756
#
# Velocity S-wave (km/s) = 2.36807 3.22036 2.82652
# Velocity P-wave (km/s) = 4.74972 6.50568 5.69578
#
# Compressibility (1/GPa) = 0.03702162
#
# Stress axis : x y z
#
# Youngs Moduli (GPa) = 26.89664 60.06754 77.75122
#
# Poissons Ratio (x) = -0.21240 0.84676
# Poissons Ratio (y) = -0.09511 0.58150
# Poissons Ratio (z) = 0.29292 0.44924
#
# Static dielectric constant tensor:
#      x y z
#    x 1.626640 0.000000 0.000000 
#    y 0.000000 1.626910 0.000000 
#    z 0.000000 0.000000 1.623910 
# 
# From -- ./inp_files/34470.got.cif
#   From: 2010.05.17/outbox.cif.g08.bks.cpg/sg67_18_cif.got.tgz:34470.got - 2010.06.03 18:28:57.
