data_PCOD9500491
_publ_section_title
;
Structure prediction by ZEFSAII (Michael W. Deem and Ramdas Pophale) SiO2 
 PCOD9500491
Probable space group: C M M A
;
_chemical_formula_sum "Si O2"
_cell_formula_units_Z 96
_cell_length_a 27.324417
_cell_length_b 8.693938
_cell_length_c 23.660343
_cell_angle_alpha 90.000000
_cell_angle_beta 90.000000
_cell_angle_gamma 90.000000
_cell_volume 5620.675069
_symmetry_space_group_name_H-M "C M M A"
_symmetry_group_IT_number 67
_symmetry_cell_setting 'orthorhombic'
loop_
_space_group_symop_operation_xyz
x,y,z
-x,1/2-y,z
x,-y,-z
-x,1/2+y,-z
-x,-y,-z
x,1/2+y,-z
-x,y,z
x,1/2-y,z
1/2+x,1/2+y,z
1/2-x,-y,z
1/2+x,1/2-y,-z
1/2-x,y,-z
1/2-x,1/2-y,-z
1/2+x,y,-z
1/2-x,1/2+y,z
1/2+x,-y,z
loop_
_atom_site_type_symbol
_atom_site_label
_atom_site_fract_x
_atom_site_fract_y
_atom_site_fract_z
Si Si1 0.697342 0.933323 0.437106
Si Si2 0.444117 0.564790 0.750628
Si Si3 0.802958 0.936717 0.936509
Si Si4 0.880217 0.076504 0.154529
Si Si5 0.702059 0.422859 0.749895
Si Si6 0.363471 0.068712 0.340055
O O1 0.700920 0.750000 0.438967
O O2 0.690451 0.000000 0.500000
O O3 0.750000 0.000000 0.416633
O O4 0.652548 0.984390 0.397151
O O5 0.500000 0.512675 0.744370
O O6 0.442740 0.750000 0.749460
O O7 0.421981 0.512866 0.811028
O O8 0.409984 0.513277 0.697619
O O9 0.801095 0.750000 0.935650
O O10 0.850071 0.986060 0.899248
O O11 0.750000 0.000000 0.915985
O O12 0.808366 0.000000 0.000000
O O13 0.897411 0.250000 0.141374
O O14 0.837870 0.086478 0.201572
O O15 0.710441 0.250000 0.727909
O O16 0.750000 0.500000 0.773940
O O17 0.681670 0.532873 0.701490
O O18 0.368701 0.250000 0.350536
#
# Coordination Sequence:
#
# PCOD9500491 Si02
#       6
#    16  16  16  16  16  16
#     4  11  21  34  51  73 102 135 170 201 235 279
#     4   9  19  35  55  77  98 123 158 202 252 300
#     4  10  19  31  47  70 100 134 170 202 238 284
#     4   9  19  32  47  69  96 126 160 199 242 291
#     4  10  18  28  42  64  94 125 157 192 234 283
#     4  10  19  32  49  70  97 127 159 196 240 288
#
# _framework density 17.079799000000001
#
# number of rings (size 3 to 8) (size 9 to 14) (size 15 to 20)
#    0.000    2.167    0.000    5.000    0.000    3.000 
#    0.000    0.000    0.000    1.000    0.000    0.000 
#    0.000    0.000    0.000    0.000    0.000    0.000 
#
# Total GULP energy -267366.487464 kJ/mol
# GULP energy per Si atom -5570.135155 kJ/mol
# Density = 1.704092 g / cm^3
# Si number density = 17.079799 Si / 1000 Ang^3
#
#
#
# Elastic Constant Matrix: (Units=GPa)
#
#
# Indices 1 2 3 4 5 6 
#
# 1 94.7681 38.0909 50.2143 0.0000 0.0000 0.0000
# 2 38.0909 62.5087 21.9643 0.0000 0.0000 0.0000
# 3 50.2143 21.9643 88.5714 0.0000 0.0000 0.0000
# 4 0.0000 0.0000 0.0000 21.1022 0.0000 0.0000
# 5 0.0000 0.0000 0.0000 0.0000 22.1719 0.0000
# 6 0.0000 0.0000 0.0000 0.0000 0.0000 18.6733
#
#
#
# Elastic Compliance Matrix: (Units=1/GPa)
#
#
# Indices 1 2 3 4 5 6 
#
# 1 0.018255 -0.008202 -0.008315 0.000000 0.000000 0.000000
# 2 -0.008202 0.021210 -0.000610 0.000000 0.000000 0.000000
# 3 -0.008315 -0.000610 0.016156 0.000000 0.000000 0.000000
# 4 0.000000 0.000000 0.000000 0.047388 0.000000 0.000000
# 5 0.000000 0.000000 0.000000 0.000000 0.045102 0.000000
# 6 0.000000 0.000000 0.000000 0.000000 0.000000 0.053552
#
#
# Mechanical properties :
#
#
# Convention : Reuss Voigt Hill
#
# Bulk Modulus (GPa) = 46.80233 51.82082 49.31157
# Shear Modulus (GPa) = 20.57275 21.42807 21.00041
#
# Velocity S-wave (km/s) = 3.47437 3.54586 3.51029
# Velocity P-wave (km/s) = 6.59974 6.86807 6.73524
#
# Compressibility (1/GPa) = 0.02136646
#
# Stress axis : x y z
#
# Youngs Moduli (GPa) = 54.78008 47.14731 61.89735
#
# Poissons Ratio (x) = 0.38671 0.51470
# Poissons Ratio (y) = 0.44931 0.03774
# Poissons Ratio (z) = 0.45551 0.02875
#
# Static dielectric constant tensor:
#      x y z
#    x 1.583960 0.000000 0.000000 
#    y 0.000000 1.671360 0.000000 
#    z 0.000000 0.000000 1.597990 
# 
# From -- ./inp_files/42554.got.cif
#   From: 2010.05.17/outbox.cif.g08.bks.cpg/sg67_22_cif.got.tgz:42554.got - 2010.06.03 18:28:57.
