data_PCOD9500278
_publ_section_title
;
Structure prediction by ZEFSAII (Michael W. Deem and Ramdas Pophale) SiO2 
 PCOD9500278
Probable space group: C M M A
;
_chemical_formula_sum "Si O2"
_cell_formula_units_Z 116
_cell_length_a 14.512198
_cell_length_b 30.944157
_cell_length_c 12.788200
_cell_angle_alpha 90.000000
_cell_angle_beta 90.000000
_cell_angle_gamma 90.000000
_cell_volume 5742.767987
_symmetry_space_group_name_H-M "C M M A"
_symmetry_group_IT_number 67
_symmetry_cell_setting 'orthorhombic'
loop_
_space_group_symop_operation_xyz
x,y,z
-x,1/2-y,z
x,-y,-z
-x,1/2+y,-z
-x,-y,-z
x,1/2+y,-z
-x,y,z
x,1/2-y,z
1/2+x,1/2+y,z
1/2-x,-y,z
1/2+x,1/2-y,-z
1/2-x,y,-z
1/2-x,1/2-y,-z
1/2+x,y,-z
1/2-x,1/2+y,z
1/2+x,-y,z
loop_
_atom_site_type_symbol
_atom_site_label
_atom_site_fract_x
_atom_site_fract_y
_atom_site_fract_z
Si Si1 0.612431 0.437779 0.418886
Si Si2 0.850332 0.186373 0.126605
Si Si3 0.112333 0.466023 0.356902
Si Si4 0.109740 0.610278 0.221784
Si Si5 0.000000 0.250000 0.207616
Si Si6 0.107049 0.592918 0.830007
Si Si7 0.606950 0.544552 0.952890
Si Si8 0.638400 0.701455 0.887322
O O1 0.500000 0.436845 0.423195
O O2 0.642076 0.439633 0.539780
O O3 0.640219 0.484214 0.370296
O O4 0.643320 0.400782 0.338763
O O5 0.841085 0.137881 0.167880
O O6 0.748401 0.204514 0.118963
O O7 0.919371 0.212836 0.197704
O O8 0.888050 0.189442 0.007047
O O9 0.141840 0.442559 0.251524
O O10 0.000000 0.467246 0.355726
O O11 0.117120 0.659635 0.183276
O O12 0.000000 0.602134 0.222148
O O13 0.147763 0.573821 0.140486
O O14 0.107037 0.575359 0.947039
O O15 0.000000 0.602113 0.802754
O O16 0.500000 0.533695 0.922961
O O17 0.646598 0.500000 0.000000
O O18 0.602669 0.750000 0.863127
#
# Coordination Sequence:
#
# PCOD9500278 Si02
#       8
#    16  16  16  16   4  16  16  16
#     4   8  14  27  45  73 105 138 178 220 257 298
#     4  11  21  34  52  75 105 130 167 214 260 317
#     4   8  14  25  46  74 106 134 173 225 263 297
#     4  10  19  29  49  75 103 142 182 213 254 314
#     4  12  20  34  60  76  96 134 172 220 254 316
#     4  10  17  26  46  75  99 129 167 208 261 310
#     4   9  16  25  40  67 103 133 167 211 252 303
#     4  11  22  36  49  73 105 142 169 211 267 307
#
# _framework density 20.199318999999999
#
# number of rings (size 3 to 8) (size 9 to 14) (size 15 to 20)
#    0.000    2.345    3.448    2.069    0.966    3.586 
#    0.000    0.000    0.000    4.966    1.793    2.897 
#    0.000    0.000    0.000    0.000    0.000    0.000 
#
# Total GULP energy -322939.830150 kJ/mol
# GULP energy per Si atom -5567.928106 kJ/mol
# Density = 2.015334 g / cm^3
# Si number density = 20.199319 Si / 1000 Ang^3
#
#
#
# Elastic Constant Matrix: (Units=GPa)
#
#
# Indices 1 2 3 4 5 6 
#
# 1 49.3732 -14.3862 -7.5831 0.0000 0.0000 0.0000
# 2 -14.3862 66.4588 10.1816 0.0000 0.0000 0.0000
# 3 -7.5831 10.1816 65.1889 0.0000 0.0000 0.0000
# 4 0.0000 0.0000 0.0000 -13.0841 0.0000 0.0000
# 5 0.0000 0.0000 0.0000 0.0000 9.2250 0.0000
# 6 0.0000 0.0000 0.0000 0.0000 0.0000 -4.6803
#
#
#
# Elastic Compliance Matrix: (Units=1/GPa)
#
#
# Indices 1 2 3 4 5 6 
#
# 1 0.021832 0.004443 0.001846 0.000000 0.000000 0.000000
# 2 0.004443 0.016320 -0.002032 0.000000 0.000000 0.000000
# 3 0.001846 -0.002032 0.015872 0.000000 0.000000 0.000000
# 4 0.000000 0.000000 0.000000 -0.076428 0.000000 0.000000
# 5 0.000000 0.000000 0.000000 0.000000 0.108401 0.000000
# 6 0.000000 0.000000 0.000000 0.000000 0.000000 -0.213661
#
#
# Mechanical properties :
#
#
# Convention : Reuss Voigt Hill
#
# Bulk Modulus (GPa) = 15.99040 17.49396 16.74218
# Shear Modulus (GPa) = -43.35319 11.14600 -16.10359
#
# Velocity S-wave (km/s) = -4.63781 2.35159 -2.82660
# Velocity P-wave (km/s) = 4.55473 4.00659 1.53179
#
# Compressibility (1/GPa) = 0.06253754
#
# Stress axis : x y z
#
# Youngs Moduli (GPa) = 45.80430 61.27432 63.00355
#
# Poissons Ratio (x) = -0.27225 -0.11628
# Poissons Ratio (y) = -0.20352 0.12803
# Poissons Ratio (z) = -0.08454 0.12452
#
# Static dielectric constant tensor:
#      x y z
#    x 1.803820 0.000000 0.000000 
#    y 0.000000 1.762670 0.000000 
#    z 0.000000 0.000000 1.712980 
# 
# From -- ./inp_files/20085.got.cif
#   From: 2010.05.17/outbox.cif.g08.bks.cpg/sg67_11_cif.got.tgz:20085.got - 2010.06.03 18:28:57.
