data_PCOD9500021
_publ_section_title
;
Structure prediction by ZEFSAII (Michael W. Deem and Ramdas Pophale) SiO2 
 PCOD9500021
Probable space group: C C C M
;
_chemical_formula_sum "Si O2"
_cell_formula_units_Z 96
_cell_length_a 23.473466
_cell_length_b 6.954040
_cell_length_c 27.933319
_cell_angle_alpha 90.000000
_cell_angle_beta 90.000000
_cell_angle_gamma 90.000000
_cell_volume 4559.707101
_symmetry_space_group_name_H-M "C C C M"
_symmetry_group_IT_number 66
_symmetry_cell_setting 'orthorhombic'
loop_
_space_group_symop_operation_xyz
x,y,z
-x,-y,z
x,-y,1/2-z
-x,y,1/2-z
-x,-y,-z
x,y,-z
-x,y,1/2+z
x,-y,1/2+z
1/2+x,1/2+y,z
1/2-x,1/2-y,z
1/2+x,1/2-y,1/2-z
1/2-x,1/2+y,1/2-z
1/2-x,1/2-y,-z
1/2+x,1/2+y,-z
1/2-x,1/2+y,1/2+z
1/2+x,1/2-y,1/2+z
loop_
_atom_site_type_symbol
_atom_site_label
_atom_site_fract_x
_atom_site_fract_y
_atom_site_fract_z
Si Si1 0.863598 0.113093 0.877371
Si Si2 0.767672 0.027151 0.948044
Si Si3 0.583278 0.841260 0.053876
Si Si4 0.327625 0.058477 0.873780
Si Si5 0.955311 0.210585 0.946088
Si Si6 0.231788 0.027985 0.306209
O O1 0.827408 0.039997 0.922436
O O2 0.851299 0.340834 0.868681
O O3 0.927013 0.112729 0.899373
O O4 0.829107 0.008755 0.833906
O O5 0.750000 0.250000 0.951216
O O6 0.719464 0.936398 0.915527
O O7 0.770975 0.944318 0.000000
O O8 0.523375 0.730308 0.057060
O O9 0.621367 0.819881 0.102061
O O10 0.567984 0.069338 0.053554
O O11 0.608051 0.804708 0.000000
O O12 0.286926 0.088289 0.827362
O O13 0.940789 0.135688 0.000000
O O14 0.250000 0.250000 0.315271
O O15 0.225443 0.000000 0.250000
#
# Coordination Sequence:
#
# PCOD9500021 Si02
#       6
#    16  16  16  16  16  16
#     4   8  13  20  30  47  72 103 136 168 207 253
#     4   8  11  14  23  40  65  96 125 156 195 243
#     4   8  12  17  27  47  78 113 139 159 196 255
#     4   8  13  20  30  47  72 102 134 167 208 256
#     4   8  12  17  27  47  78 113 140 160 193 251
#     4   9  17  28  41  57  78 105 140 184 229 268
#
# _framework density 21.053984
#
# number of rings (size 3 to 8) (size 9 to 14) (size 15 to 20)
#    0.000    3.833    0.000    4.000    0.000    4.000 
#    0.000    0.000    0.000    0.000    0.000   21.000 
#    0.000   26.667    0.000    3.667    0.000    3.333 
#
# Total GULP energy -267279.632838 kJ/mol
# GULP energy per Si atom -5568.325684 kJ/mol
# Density = 2.100606 g / cm^3
# Si number density = 21.053984 Si / 1000 Ang^3
#
#
#
# Elastic Constant Matrix: (Units=GPa)
#
#
# Indices 1 2 3 4 5 6 
#
# 1 92.3064 25.2469 59.8933 0.0000 0.0000 0.0000
# 2 25.2469 68.7624 9.9967 0.0000 0.0000 0.0000
# 3 59.8933 9.9967 156.7459 0.0000 0.0000 0.0000
# 4 0.0000 0.0000 0.0000 18.4679 0.0000 0.0000
# 5 0.0000 0.0000 0.0000 0.0000 28.7018 0.0000
# 6 0.0000 0.0000 0.0000 0.0000 0.0000 35.7972
#
#
#
# Elastic Compliance Matrix: (Units=1/GPa)
#
#
# Indices 1 2 3 4 5 6 
#
# 1 0.015954 -0.005018 -0.005776 0.000000 0.000000 0.000000
# 2 -0.005018 0.016257 0.000881 0.000000 0.000000 0.000000
# 3 -0.005776 0.000881 0.008531 0.000000 0.000000 0.000000
# 4 0.000000 0.000000 0.000000 0.054148 0.000000 0.000000
# 5 0.000000 0.000000 0.000000 0.000000 0.034841 0.000000
# 6 0.000000 0.000000 0.000000 0.000000 0.000000 0.027935
#
#
# Mechanical properties :
#
#
# Convention : Reuss Voigt Hill
#
# Bulk Modulus (GPa) = 47.81284 56.45430 52.13357
# Shear Modulus (GPa) = 27.10556 31.43855 29.27205
#
# Velocity S-wave (km/s) = 3.59197 3.86843 3.73276
# Velocity P-wave (km/s) = 6.32155 6.84290 6.58738
#
# Compressibility (1/GPa) = 0.02091488
#
# Stress axis : x y z
#
# Youngs Moduli (GPa) = 62.68147 61.51123 117.22489
#
# Poissons Ratio (x) = 0.30866 0.67709
# Poissons Ratio (y) = 0.31453 -0.10322
# Poissons Ratio (z) = 0.36204 -0.05416
#
# Static dielectric constant tensor:
#      x y z
#    x 1.796470 0.000000 0.000000 
#    y 0.000000 1.942750 0.000000 
#    z 0.000000 0.000000 1.743090 
# 
# From -- ./inp_files/66013.got.cif
#   From: 2010.05.17/outbox.cif.g08.bks.cpg/sg66_34_cif.got.tgz:66013.got - 2010.06.03 17:51:23.
