data_PCOD9500340
_publ_section_title
;
Structure prediction by ZEFSAII (Michael W. Deem and Ramdas Pophale) SiO2 
 PCOD9500340
Probable space group: C M M A
;
_chemical_formula_sum "Si O2"
_cell_formula_units_Z 80
_cell_length_a 8.728229
_cell_length_b 18.538219
_cell_length_c 26.575145
_cell_angle_alpha 90.000000
_cell_angle_beta 90.000000
_cell_angle_gamma 90.000000
_cell_volume 4300.013147
_symmetry_space_group_name_H-M "C M M A"
_symmetry_group_IT_number 67
_symmetry_cell_setting 'orthorhombic'
loop_
_space_group_symop_operation_xyz
x,y,z
-x,1/2-y,z
x,-y,-z
-x,1/2+y,-z
-x,-y,-z
x,1/2+y,-z
-x,y,z
x,1/2-y,z
1/2+x,1/2+y,z
1/2-x,-y,z
1/2+x,1/2-y,-z
1/2-x,y,-z
1/2-x,1/2-y,-z
1/2+x,y,-z
1/2-x,1/2+y,z
1/2+x,-y,z
loop_
_atom_site_type_symbol
_atom_site_label
_atom_site_fract_x
_atom_site_fract_y
_atom_site_fract_z
Si Si1 0.816647 0.581844 0.051350
Si Si2 0.817825 0.920080 0.351190
Si Si3 0.683714 0.080681 0.844801
Si Si4 0.316144 0.834230 0.257259
Si Si5 0.683129 0.334917 0.554469
O O1 0.750000 0.500000 0.052276
O O2 0.756888 0.612702 0.104164
O O3 0.000000 0.579749 0.049605
O O4 0.750000 0.615389 0.000000
O O5 0.765788 0.874574 0.302768
O O6 0.753928 0.881467 0.401005
O O7 0.000000 0.923725 0.353544
O O8 0.750000 0.000000 0.347196
O O9 0.500000 0.076013 0.851038
O O10 0.718946 0.127832 0.795811
O O11 0.750000 0.000000 0.837487
O O12 0.500000 0.839829 0.264934
O O13 0.275687 0.750000 0.256256
O O14 0.500000 0.342896 0.554124
O O15 0.718798 0.250000 0.562736
O O16 0.750000 0.355146 0.500000
#
# Coordination Sequence:
#
# PCOD9500340 Si02
#       5
#    16  16  16  16  16
#     4  10  17  27  45  71 104 138 175 219 268 322
#     4  12  25  40  60  86 116 150 190 235 282 332
#     4  10  19  32  52  78 108 141 179 223 272 325
#     4  10  22  40  60  82 111 147 185 228 280 336
#     4  10  21  39  63  90 121 155 191 231 276 329
#
# _framework density 18.604593000000001
#
# number of rings (size 3 to 8) (size 9 to 14) (size 15 to 20)
#    0.000    1.600    0.000    7.800    0.000    7.600 
#    0.000    2.000    0.000    0.600    0.000    0.000 
#    0.000    0.000    0.000    0.000    0.000    0.000 
#
# Total GULP energy -223504.974939 kJ/mol
# GULP energy per Si atom -5587.624373 kJ/mol
# Density = 1.856225 g / cm^3
# Si number density = 18.604593 Si / 1000 Ang^3
#
#
#
# Elastic Constant Matrix: (Units=GPa)
#
#
# Indices 1 2 3 4 5 6 
#
# 1 118.3851 62.0362 99.0108 0.0000 0.0000 0.0000
# 2 62.0362 96.1287 91.9755 0.0000 0.0000 0.0000
# 3 99.0108 91.9755 193.3780 0.0000 0.0000 0.0000
# 4 0.0000 0.0000 0.0000 -210.3745 0.0000 0.0000
# 5 0.0000 0.0000 0.0000 0.0000 44.1528 0.0000
# 6 0.0000 0.0000 0.0000 0.0000 0.0000 19.0131
#
#
#
# Elastic Compliance Matrix: (Units=1/GPa)
#
#
# Indices 1 2 3 4 5 6 
#
# 1 0.015766 -0.004498 -0.005933 0.000000 0.000000 0.000000
# 2 -0.004498 0.020373 -0.007387 0.000000 0.000000 0.000000
# 3 -0.005933 -0.007387 0.011722 0.000000 0.000000 0.000000
# 4 0.000000 0.000000 0.000000 -0.004753 0.000000 0.000000
# 5 0.000000 0.000000 0.000000 0.000000 0.022649 0.000000
# 6 0.000000 0.000000 0.000000 0.000000 0.000000 0.052595
#
#
# Mechanical properties :
#
#
# Convention : Reuss Voigt Hill
#
# Bulk Modulus (GPa) = 81.79402 101.54853 91.67127
# Shear Modulus (GPa) = 31.63278 -19.11709 6.25784
#
# Velocity S-wave (km/s) = 4.12790 -3.20902 1.83600
# Velocity P-wave (km/s) = 8.17186 6.40083 7.33996
#
# Compressibility (1/GPa) = 0.01222583
#
# Stress axis : x y z
#
# Youngs Moduli (GPa) = 63.42756 49.08361 85.30607
#
# Poissons Ratio (x) = 0.22077 0.50612
# Poissons Ratio (y) = 0.28529 0.63017
# Poissons Ratio (z) = 0.37632 0.36259
#
# Static dielectric constant tensor:
#      x y z
#    x 1.621290 0.000000 0.000000 
#    y 0.000000 1.618800 0.000000 
#    z 0.000000 0.000000 1.655090 
# 
# From -- ./inp_files/43228.got.cif
#   From: 2010.05.17/outbox.cif.g08.bks.cpg/sg67_22_cif.got.tgz:43228.got - 2010.06.03 18:28:57.
