data_PCOD9500413
_publ_section_title
;
Structure prediction by ZEFSAII (Michael W. Deem and Ramdas Pophale) SiO2 
 PCOD9500413
Probable space group: C M M A
;
_chemical_formula_sum "Si O2"
_cell_formula_units_Z 96
_cell_length_a 8.705207
_cell_length_b 30.769822
_cell_length_c 19.511398
_cell_angle_alpha 90.000000
_cell_angle_beta 90.000000
_cell_angle_gamma 90.000000
_cell_volume 5226.277604
_symmetry_space_group_name_H-M "C M M A"
_symmetry_group_IT_number 67
_symmetry_cell_setting 'orthorhombic'
loop_
_space_group_symop_operation_xyz
x,y,z
-x,1/2-y,z
x,-y,-z
-x,1/2+y,-z
-x,-y,-z
x,1/2+y,-z
-x,y,z
x,1/2-y,z
1/2+x,1/2+y,z
1/2-x,-y,z
1/2+x,1/2-y,-z
1/2-x,y,-z
1/2-x,1/2-y,-z
1/2+x,y,-z
1/2-x,1/2+y,z
1/2+x,-y,z
loop_
_atom_site_type_symbol
_atom_site_label
_atom_site_fract_x
_atom_site_fract_y
_atom_site_fract_z
Si Si1 0.817303 0.699020 0.185137
Si Si2 0.182873 0.634606 0.923712
Si Si3 0.682701 0.639399 0.299631
Si Si4 0.818192 0.543793 0.692599
Si Si5 0.816211 0.955667 0.077867
Si Si6 0.183134 0.904564 0.424175
O O1 0.780481 0.750000 0.187168
O O2 0.729819 0.674362 0.124301
O O3 0.766619 0.674913 0.254567
O O4 0.000000 0.694161 0.175257
O O5 0.256258 0.590118 0.894168
O O6 0.000000 0.629535 0.927406
O O7 0.250000 0.641099 0.000000
O O8 0.500000 0.646693 0.300192
O O9 0.709931 0.590168 0.270495
O O10 0.747465 0.634038 0.376671
O O11 0.750000 0.500000 0.723040
O O12 0.739639 0.553266 0.618762
O O13 0.000000 0.539284 0.684548
O O14 0.000000 0.957069 0.076701
O O15 0.750000 0.000000 0.109730
O O16 0.750000 0.955181 0.000000
O O17 0.250000 0.904033 0.500000
O O18 0.000000 0.902744 0.424909
#
# Coordination Sequence:
#
# PCOD9500413 Si02
#       6
#    16  16  16  16  16  16
#     4  11  24  42  64  87 110 142 186 233 287 349
#     4  11  22  38  60  87 119 151 187 233 285 338
#     4   9  20  37  56  81 112 147 190 232 276 333
#     4   9  18  31  50  79 114 153 194 235 278 332
#     4  10  17  29  50  78 112 148 185 221 262 317
#     4  10  18  31  52  80 116 155 194 237 281 329
#
# _framework density 18.368713
#
# number of rings (size 3 to 8) (size 9 to 14) (size 15 to 20)
#    1.000    1.000    0.000    7.000    0.000    2.000 
#    0.000    2.500    0.000    2.500    0.000    0.000 
#    0.000    0.000    0.000    0.000    0.000    0.000 
#
# Total GULP energy -267563.149952 kJ/mol
# GULP energy per Si atom -5574.232291 kJ/mol
# Density = 1.832690 g / cm^3
# Si number density = 18.368713 Si / 1000 Ang^3
#
#
#
# Elastic Constant Matrix: (Units=GPa)
#
#
# Indices 1 2 3 4 5 6 
#
# 1 141.1047 67.3230 29.4970 0.0000 0.0000 0.0000
# 2 67.3230 122.5318 34.3472 0.0000 0.0000 0.0000
# 3 29.4970 34.3472 72.2401 0.0000 0.0000 0.0000
# 4 0.0000 0.0000 0.0000 22.2113 0.0000 0.0000
# 5 0.0000 0.0000 0.0000 0.0000 18.5102 0.0000
# 6 0.0000 0.0000 0.0000 0.0000 0.0000 28.4811
#
#
#
# Elastic Compliance Matrix: (Units=1/GPa)
#
#
# Indices 1 2 3 4 5 6 
#
# 1 0.009774 -0.004905 -0.001659 0.000000 0.000000 0.000000
# 2 -0.004905 0.011878 -0.003645 0.000000 0.000000 0.000000
# 3 -0.001659 -0.003645 0.016253 0.000000 0.000000 0.000000
# 4 0.000000 0.000000 0.000000 0.045022 0.000000 0.000000
# 5 0.000000 0.000000 0.000000 0.000000 0.054024 0.000000
# 6 0.000000 0.000000 0.000000 0.000000 0.000000 0.035111
#
#
# Mechanical properties :
#
#
# Convention : Reuss Voigt Hill
#
# Bulk Modulus (GPa) = 57.18267 66.46790 61.82528
# Shear Modulus (GPa) = 25.21328 27.48781 26.35055
#
# Velocity S-wave (km/s) = 3.70891 3.87259 3.79163
# Velocity P-wave (km/s) = 7.03842 7.50066 7.27321
#
# Compressibility (1/GPa) = 0.01748782
#
# Stress axis : x y z
#
# Youngs Moduli (GPa) = 102.31195 84.19033 61.52771
#
# Poissons Ratio (x) = 0.41297 0.10206
# Poissons Ratio (y) = 0.50186 0.22424
# Poissons Ratio (z) = 0.16970 0.30683
#
# Static dielectric constant tensor:
#      x y z
#    x 1.604400 0.000000 0.000000 
#    y 0.000000 1.654700 0.000000 
#    z 0.000000 0.000000 1.660850 
# 
# From -- ./inp_files/40940.got.cif
#   From: 2010.05.17/outbox.cif.g08.bks.cpg/sg67_21_cif.got.tgz:40940.got - 2010.06.03 18:28:57.
