data_PCOD9500639
_publ_section_title
;
Structure prediction by ZEFSAII (Michael W. Deem and Ramdas Pophale) SiO2 
 PCOD9500639
Probable space group: C M M A
;
_chemical_formula_sum "Si O2"
_cell_formula_units_Z 72
_cell_length_a 11.310016
_cell_length_b 14.787871
_cell_length_c 17.763372
_cell_angle_alpha 90.000000
_cell_angle_beta 90.000000
_cell_angle_gamma 90.000000
_cell_volume 2970.942754
_symmetry_space_group_name_H-M "C M M A"
_symmetry_group_IT_number 67
_symmetry_cell_setting 'orthorhombic'
loop_
_space_group_symop_operation_xyz
x,y,z
-x,1/2-y,z
x,-y,-z
-x,1/2+y,-z
-x,-y,-z
x,1/2+y,-z
-x,y,z
x,1/2-y,z
1/2+x,1/2+y,z
1/2-x,-y,z
1/2+x,1/2-y,-z
1/2-x,y,-z
1/2-x,1/2-y,-z
1/2+x,y,-z
1/2-x,1/2+y,z
1/2+x,-y,z
loop_
_atom_site_type_symbol
_atom_site_label
_atom_site_fract_x
_atom_site_fract_y
_atom_site_fract_z
Si Si1 0.266052 0.139594 0.585053
Si Si2 0.500000 0.358930 0.672989
Si Si3 0.000000 0.075743 0.933603
Si Si4 0.256879 0.602691 0.884462
Si Si5 0.000000 0.895077 0.850895
Si Si6 0.637174 0.857203 0.728706
O O1 0.266216 0.250000 0.581323
O O2 0.250000 0.107596 0.500000
O O3 0.385752 0.111050 0.626646
O O4 0.166386 0.111780 0.644655
O O5 0.500000 0.250000 0.671728
O O6 0.500000 0.382446 0.761110
O O7 0.121509 0.133512 0.925607
O O8 0.000000 0.002891 0.865201
O O9 0.000000 0.000000 0.000000
O O10 0.250000 0.500000 0.912274
O O11 0.123177 0.640869 0.887176
O O12 0.286159 0.602347 0.795645
O O13 0.500000 0.868210 0.743527
O O14 0.664329 0.750000 0.731909
#
# Coordination Sequence:
#
# PCOD9500639 Si02
#       6
#    16   8   8  16   8  16
#     4   9  18  29  45  73 109 147 188 238 287 331
#     4  10  18  30  49  75 111 145 184 232 282 342
#     4  10  22  40  60  82 108 141 183 235 282 338
#     4  10  20  35  56  84 113 147 187 233 284 344
#     4  10  20  32  54  83 108 144 179 231 286 339
#     4  10  19  32  53  81 112 149 194 240 285 343
#
# _framework density 24.234732999999999
#
# number of rings (size 3 to 8) (size 9 to 14) (size 15 to 20)
#    0.000    2.222    3.333    0.000    1.556    4.000 
#    0.000    0.000    0.000    2.000    0.000   12.444 
#    0.000    0.000    0.000    0.000    0.000    0.000 
#
# Total GULP energy -200891.450012 kJ/mol
# GULP energy per Si atom -5580.318056 kJ/mol
# Density = 2.417957 g / cm^3
# Si number density = 24.234733 Si / 1000 Ang^3
#
#
#
# Elastic Constant Matrix: (Units=GPa)
#
#
# Indices 1 2 3 4 5 6 
#
# 1 177.2508 19.5147 43.2138 0.0000 0.0000 0.0000
# 2 19.5147 60.9825 24.0790 0.0000 0.0000 0.0000
# 3 43.2138 24.0790 169.8371 0.0000 0.0000 0.0000
# 4 0.0000 0.0000 0.0000 23.0427 0.0000 0.0000
# 5 0.0000 0.0000 0.0000 0.0000 21.3113 0.0000
# 6 0.0000 0.0000 0.0000 0.0000 0.0000 4.3554
#
#
#
# Elastic Compliance Matrix: (Units=1/GPa)
#
#
# Indices 1 2 3 4 5 6 
#
# 1 0.006130 -0.001425 -0.001358 0.000000 0.000000 0.000000
# 2 -0.001425 0.017702 -0.002147 0.000000 0.000000 0.000000
# 3 -0.001358 -0.002147 0.006538 0.000000 0.000000 0.000000
# 4 0.000000 0.000000 0.000000 0.043398 0.000000 0.000000
# 5 0.000000 0.000000 0.000000 0.000000 0.046924 0.000000
# 6 0.000000 0.000000 0.000000 0.000000 0.000000 0.229602
#
#
# Mechanical properties :
#
#
# Convention : Reuss Voigt Hill
#
# Bulk Modulus (GPa) = 48.75817 64.63169 56.69493
# Shear Modulus (GPa) = 13.62437 31.15939 22.39188
#
# Velocity S-wave (km/s) = 2.37361 3.58960 3.04297
# Velocity P-wave (km/s) = 5.26069 6.62625 5.98256
#
# Compressibility (1/GPa) = 0.02050938
#
# Stress axis : x y z
#
# Youngs Moduli (GPa) = 163.14194 56.49057 152.95637
#
# Poissons Ratio (x) = 0.08053 0.20764
# Poissons Ratio (y) = 0.23256 0.32840
# Poissons Ratio (z) = 0.22147 0.12129
#
# Static dielectric constant tensor:
#      x y z
#    x 2.049290 0.000000 0.000000 
#    y 0.000000 1.942800 0.000000 
#    z 0.000000 0.000000 1.919170 
# 
# From -- ./inp_files/32796.got.cif
#   From: 2010.05.17/outbox.cif.g08.bks.cpg/sg67_17_cif.got.tgz:32796.got - 2010.06.03 18:28:57.
