data_PCOD9500539
_publ_section_title
;
Structure prediction by ZEFSAII (Michael W. Deem and Ramdas Pophale) SiO2 
 PCOD9500539
Probable space group: C M M A
;
_chemical_formula_sum "Si O2"
_cell_formula_units_Z 96
_cell_length_a 26.196805
_cell_length_b 9.826749
_cell_length_c 22.829437
_cell_angle_alpha 90.000000
_cell_angle_beta 90.000000
_cell_angle_gamma 90.000000
_cell_volume 5876.968893
_symmetry_space_group_name_H-M "C M M A"
_symmetry_group_IT_number 67
_symmetry_cell_setting 'orthorhombic'
loop_
_space_group_symop_operation_xyz
x,y,z
-x,1/2-y,z
x,-y,-z
-x,1/2+y,-z
-x,-y,-z
x,1/2+y,-z
-x,y,z
x,1/2-y,z
1/2+x,1/2+y,z
1/2-x,-y,z
1/2+x,1/2-y,-z
1/2-x,y,-z
1/2-x,1/2-y,-z
1/2+x,y,-z
1/2-x,1/2+y,z
1/2+x,-y,z
loop_
_atom_site_type_symbol
_atom_site_label
_atom_site_fract_x
_atom_site_fract_y
_atom_site_fract_z
Si Si1 0.559115 0.910516 0.169192
Si Si2 0.311386 0.511622 0.645897
Si Si3 0.202634 0.593605 0.110311
Si Si4 0.686243 0.250000 0.573979
Si Si5 0.857820 0.411715 0.770636
Si Si6 0.810053 0.750000 0.440742
Si Si7 0.591189 0.413410 0.057771
O O1 0.500000 0.912650 0.186865
O O2 0.573333 0.750000 0.159696
O O3 0.595643 0.987222 0.215009
O O4 0.565546 0.004066 0.111178
O O5 0.250000 0.500000 0.653115
O O6 0.328457 0.375009 0.614458
O O7 0.334564 0.551338 0.708039
O O8 0.325175 0.621877 0.597269
O O9 0.219048 0.750000 0.107156
O O10 0.250000 0.500000 0.094549
O O11 0.182877 0.566375 0.176668
O O12 0.152076 0.577630 0.070767
O O13 0.747878 0.250000 0.563189
O O14 0.668847 0.250000 0.506531
O O15 0.871592 0.250000 0.773286
O O16 0.578612 0.250000 0.055590
O O17 0.578871 0.500000 0.000000
#
# Coordination Sequence:
#
# PCOD9500539 Si02
#       7
#    16  16  16   8  16   8  16
#     4  10  22  39  58  79 101 125 157 205 261 310
#     4  10  18  29  45  70 103 141 178 212 246 290
#     4   9  19  33  48  70 100 136 172 208 245 284
#     4   9  18  26  44  66  97 143 182 211 247 285
#     4  10  20  34  50  72 102 133 170 210 252 304
#     4   9  16  30  42  64 101 141 180 213 245 289
#     4  10  21  37  56  79 105 134 169 204 243 296
#
# _framework density 16.334951
#
# number of rings (size 3 to 8) (size 9 to 14) (size 15 to 20)
#    0.000    2.333    0.833    3.000    1.167    7.333 
#    0.000    1.667    0.000    0.000    0.000    0.000 
#    0.000    4.000    0.000    0.000    0.000    0.000 
#
# Total GULP energy -267314.851579 kJ/mol
# GULP energy per Si atom -5569.059408 kJ/mol
# Density = 1.629777 g / cm^3
# Si number density = 16.334951 Si / 1000 Ang^3
#
#
#
# Elastic Constant Matrix: (Units=GPa)
#
#
# Indices 1 2 3 4 5 6 
#
# 1 43.0379 31.8575 -0.9473 0.0000 0.0000 0.0000
# 2 31.8575 138.9423 32.7253 0.0000 0.0000 0.0000
# 3 -0.9473 32.7253 77.7005 0.0000 0.0000 0.0000
# 4 0.0000 0.0000 0.0000 30.5429 0.0000 0.0000
# 5 0.0000 0.0000 0.0000 0.0000 1.5115 0.0000
# 6 0.0000 0.0000 0.0000 0.0000 0.0000 24.5553
#
#
#
# Elastic Compliance Matrix: (Units=1/GPa)
#
#
# Indices 1 2 3 4 5 6 
#
# 1 0.028808 -0.007424 0.003478 0.000000 0.000000 0.000000
# 2 -0.007424 0.009903 -0.004261 0.000000 0.000000 0.000000
# 3 0.003478 -0.004261 0.014707 0.000000 0.000000 0.000000
# 4 0.000000 0.000000 0.000000 0.032741 0.000000 0.000000
# 5 0.000000 0.000000 0.000000 0.000000 0.661581 0.000000
# 6 0.000000 0.000000 0.000000 0.000000 0.000000 0.040724
#
#
# Mechanical properties :
#
#
# Convention : Reuss Voigt Hill
#
# Bulk Modulus (GPa) = 27.02515 42.99461 35.00988
# Shear Modulus (GPa) = 6.11835 24.39161 15.25498
#
# Velocity S-wave (km/s) = 1.93744 3.86841 3.05927
# Velocity P-wave (km/s) = 4.64599 6.80665 5.82734
#
# Compressibility (1/GPa) = 0.03700256
#
# Stress axis : x y z
#
# Youngs Moduli (GPa) = 34.71310 100.97692 67.99405
#
# Poissons Ratio (x) = 0.74969 -0.23649
# Poissons Ratio (y) = 0.25772 0.28976
# Poissons Ratio (z) = -0.12074 0.43031
#
# Static dielectric constant tensor:
#      x y z
#    x 1.538830 0.000000 0.000000 
#    y 0.000000 1.515300 0.000000 
#    z 0.000000 0.000000 1.541080 
# 
# From -- ./inp_files/42708.got.cif
#   From: 2010.05.17/outbox.cif.g08.bks.cpg/sg67_22_cif.got.tgz:42708.got - 2010.06.03 18:28:57.
