data_PCOD9500496
_publ_section_title
;
Structure prediction by ZEFSAII (Michael W. Deem and Ramdas Pophale) SiO2 
 PCOD9500496
Probable space group: C M M A
;
_chemical_formula_sum "Si O2"
_cell_formula_units_Z 128
_cell_length_a 25.441455
_cell_length_b 16.811655
_cell_length_c 19.031814
_cell_angle_alpha 90.000000
_cell_angle_beta 90.000000
_cell_angle_gamma 90.000000
_cell_volume 8140.153579
_symmetry_space_group_name_H-M "C M M A"
_symmetry_group_IT_number 67
_symmetry_cell_setting 'orthorhombic'
loop_
_space_group_symop_operation_xyz
x,y,z
-x,1/2-y,z
x,-y,-z
-x,1/2+y,-z
-x,-y,-z
x,1/2+y,-z
-x,y,z
x,1/2-y,z
1/2+x,1/2+y,z
1/2-x,-y,z
1/2+x,1/2-y,-z
1/2-x,y,-z
1/2-x,1/2-y,-z
1/2+x,y,-z
1/2-x,1/2+y,z
1/2+x,-y,z
loop_
_atom_site_type_symbol
_atom_site_label
_atom_site_fract_x
_atom_site_fract_y
_atom_site_fract_z
Si Si1 0.436202 0.660654 0.083585
Si Si2 0.117553 0.530216 0.310340
Si Si3 0.163914 0.339764 0.507520
Si Si4 0.292174 0.070698 0.623612
Si Si5 0.936209 0.339281 0.919164
Si Si6 0.936314 0.500617 0.163591
Si Si7 0.940199 0.920998 0.452020
Si Si8 0.200248 0.840034 0.330587
O O1 0.500000 0.660771 0.086270
O O2 0.419395 0.750000 0.107457
O O3 0.419241 0.581916 0.125933
O O4 0.421740 0.652622 0.001347
O O5 0.155231 0.461520 0.340540
O O6 0.086086 0.505266 0.241930
O O7 0.079379 0.557504 0.373623
O O8 0.158616 0.601684 0.294618
O O9 0.171412 0.250000 0.482732
O O10 0.191755 0.396376 0.452111
O O11 0.102764 0.361479 0.516035
O O12 0.187390 0.346296 0.585674
O O13 0.260621 0.132880 0.671974
O O14 0.250000 0.000000 0.615507
O O15 0.919283 0.250000 0.895010
O O16 0.919544 0.418119 0.876878
O O17 0.000000 0.338825 0.916247
O O18 0.000000 0.500503 0.164876
O O19 0.000000 0.891414 0.451193
O O20 0.938204 0.000000 0.500000
O O21 0.192749 0.750000 0.308235
#
# Coordination Sequence:
#
# PCOD9500496 Si02
#       8
#    16  16  16  16  16  16  16  16
#     4   8  14  26  44  65  92 125 159 190 221 261
#     4  10  20  31  45  67  91 121 159 191 226 278
#     4  10  19  31  49  72  88 104 143 196 245 286
#     4  10  19  31  48  66  87 111 142 188 245 296
#     4   8  14  25  43  68  93 121 157 192 225 262
#     4  10  18  28  44  66  97 132 163 188 219 263
#     4  10  19  32  48  61  85 126 164 192 221 260
#     4   9  19  32  48  67  87 109 139 191 253 300
#
# _framework density 15.72452
#
# number of rings (size 3 to 8) (size 9 to 14) (size 15 to 20)
#    0.000    2.625    1.250    2.250    0.000    5.750 
#    0.000    1.250    0.000    2.250    0.000    0.000 
#    0.000   18.000    0.000   29.250    0.000    2.250 
#
# Total GULP energy -356394.263515 kJ/mol
# GULP energy per Si atom -5568.660367 kJ/mol
# Density = 1.568873 g / cm^3
# Si number density = 15.724520 Si / 1000 Ang^3
#
#
#
# Elastic Constant Matrix: (Units=GPa)
#
#
# Indices 1 2 3 4 5 6 
#
# 1 44.0717 9.8811 7.7510 0.0000 0.0000 0.0000
# 2 9.8811 90.5832 37.5395 0.0000 0.0000 0.0000
# 3 7.7510 37.5395 57.1568 0.0000 0.0000 0.0000
# 4 0.0000 0.0000 0.0000 9.8132 0.0000 0.0000
# 5 0.0000 0.0000 0.0000 0.0000 5.7077 0.0000
# 6 0.0000 0.0000 0.0000 0.0000 0.0000 4.4055
#
#
#
# Elastic Compliance Matrix: (Units=1/GPa)
#
#
# Indices 1 2 3 4 5 6 
#
# 1 0.023434 -0.001703 -0.002060 0.000000 0.000000 0.000000
# 2 -0.001703 0.015292 -0.009812 0.000000 0.000000 0.000000
# 3 -0.002060 -0.009812 0.024220 0.000000 0.000000 0.000000
# 4 0.000000 0.000000 0.000000 0.101904 0.000000 0.000000
# 5 0.000000 0.000000 0.000000 0.000000 0.175202 0.000000
# 6 0.000000 0.000000 0.000000 0.000000 0.000000 0.226988
#
#
# Mechanical properties :
#
#
# Convention : Reuss Voigt Hill
#
# Bulk Modulus (GPa) = 27.93596 33.57278 30.75437
# Shear Modulus (GPa) = 8.24917 13.09461 10.67189
#
# Velocity S-wave (km/s) = 2.29291 2.88887 2.60797
# Velocity P-wave (km/s) = 4.98140 5.70302 5.35438
#
# Compressibility (1/GPa) = 0.03579616
#
# Stress axis : x y z
#
# Youngs Moduli (GPa) = 42.67249 65.39451 41.28872
#
# Poissons Ratio (x) = 0.11135 0.08504
# Poissons Ratio (y) = 0.07266 0.40514
# Poissons Ratio (z) = 0.08789 0.64168
#
# Static dielectric constant tensor:
#      x y z
#    x 1.521750 0.000000 0.000000 
#    y 0.000000 1.576710 0.000000 
#    z 0.000000 0.000000 1.496780 
# 
# From -- ./inp_files/35635.got.cif
#   From: 2010.05.17/outbox.cif.g08.bks.cpg/sg67_18_cif.got.tgz:35635.got - 2010.06.03 18:28:57.
