data_PCOD9500173
_publ_section_title
;
Structure prediction by ZEFSAII (Michael W. Deem and Ramdas Pophale) SiO2 
 PCOD9500173
Probable space group: C M M A
;
_chemical_formula_sum "Si O2"
_cell_formula_units_Z 80
_cell_length_a 8.623488
_cell_length_b 18.794383
_cell_length_c 27.161752
_cell_angle_alpha 90.000000
_cell_angle_beta 90.000000
_cell_angle_gamma 90.000000
_cell_volume 4402.190333
_symmetry_space_group_name_H-M "C M M A"
_symmetry_group_IT_number 67
_symmetry_cell_setting 'orthorhombic'
loop_
_space_group_symop_operation_xyz
x,y,z
-x,1/2-y,z
x,-y,-z
-x,1/2+y,-z
-x,-y,-z
x,1/2+y,-z
-x,y,z
x,1/2-y,z
1/2+x,1/2+y,z
1/2-x,-y,z
1/2+x,1/2-y,-z
1/2-x,y,-z
1/2-x,1/2-y,-z
1/2+x,y,-z
1/2-x,1/2+y,z
1/2+x,-y,z
loop_
_atom_site_type_symbol
_atom_site_label
_atom_site_fract_x
_atom_site_fract_y
_atom_site_fract_z
Si Si1 0.315132 0.920440 0.447154
Si Si2 0.813114 0.580096 0.259886
Si Si3 0.186118 0.580884 0.151558
Si Si4 0.187537 0.332815 0.644254
Si Si5 0.184845 0.418756 0.050645
O O1 0.500000 0.923521 0.449358
O O2 0.250000 0.895864 0.500000
O O3 0.259500 0.871024 0.402918
O O4 0.250000 0.000000 0.438945
O O5 0.750000 0.500000 0.264855
O O6 0.771657 0.610223 0.205615
O O7 0.762037 0.627645 0.305704
O O8 0.000000 0.576082 0.260852
O O9 0.250000 0.500000 0.153420
O O10 0.257550 0.614232 0.102159
O O11 0.000000 0.579495 0.146578
O O12 0.228772 0.250000 0.645732
O O13 0.000000 0.338269 0.641164
O O14 0.250000 0.500000 0.051356
O O15 0.000000 0.421274 0.049165
O O16 0.250000 0.386153 0.000000
#
# Coordination Sequence:
#
# PCOD9500173 Si02
#       5
#    16  16  16  16  16
#     4  11  22  38  60  84 109 137 172 210 251 298
#     4   9  18  31  49  71  95 128 166 206 249 294
#     4   9  15  24  37  56  82 112 151 193 235 284
#     4  10  21  37  55  77 107 140 173 210 253 300
#     4  10  16  22  32  49  76 111 148 185 232 285
#
# _framework density 18.172771999999998
#
# number of rings (size 3 to 8) (size 9 to 14) (size 15 to 20)
#    0.000    2.200    0.000    7.200    0.000    4.000 
#    0.000    0.000    0.000    0.000    0.000    0.000 
#    0.000    0.800    0.000    1.400    0.000    8.200 
#
# Total GULP energy -223037.590992 kJ/mol
# GULP energy per Si atom -5575.939775 kJ/mol
# Density = 1.813141 g / cm^3
# Si number density = 18.172772 Si / 1000 Ang^3
#
#
#
# Elastic Constant Matrix: (Units=GPa)
#
#
# Indices 1 2 3 4 5 6 
#
# 1 93.0300 29.2281 72.0780 0.0000 0.0000 0.0000
# 2 29.2281 46.2421 77.7366 0.0000 0.0000 0.0000
# 3 72.0780 77.7366 234.9655 0.0000 0.0000 0.0000
# 4 0.0000 0.0000 0.0000 -10.3421 0.0000 0.0000
# 5 0.0000 0.0000 0.0000 0.0000 31.2727 0.0000
# 6 0.0000 0.0000 0.0000 0.0000 0.0000 11.9918
#
#
#
# Elastic Compliance Matrix: (Units=1/GPa)
#
#
# Indices 1 2 3 4 5 6 
#
# 1 0.014387 -0.003772 -0.003165 0.000000 0.000000 0.000000
# 2 -0.003772 0.049714 -0.015290 0.000000 0.000000 0.000000
# 3 -0.003165 -0.015290 0.010286 0.000000 0.000000 0.000000
# 4 0.000000 0.000000 0.000000 -0.096692 0.000000 0.000000
# 5 0.000000 0.000000 0.000000 0.000000 0.031977 0.000000
# 6 0.000000 0.000000 0.000000 0.000000 0.000000 0.083390
#
#
# Mechanical properties :
#
#
# Convention : Reuss Voigt Hill
#
# Bulk Modulus (GPa) = 33.41084 81.36922 57.39003
# Shear Modulus (GPa) = 33.89976 19.59747 26.74862
#
# Velocity S-wave (km/s) = 4.32373 3.28746 3.84071
# Velocity P-wave (km/s) = 6.58416 7.69951 7.16358
#
# Compressibility (1/GPa) = 0.02993041
#
# Stress axis : x y z
#
# Youngs Moduli (GPa) = 69.50821 20.11516 97.22375
#
# Poissons Ratio (x) = 0.07588 0.30773
# Poissons Ratio (y) = 0.26222 1.48657
# Poissons Ratio (z) = 0.22001 0.30756
#
# Static dielectric constant tensor:
#      x y z
#    x 1.613710 0.000000 0.000000 
#    y 0.000000 1.577060 0.000000 
#    z 0.000000 0.000000 1.690930 
# 
# From -- ./inp_files/43304.got.cif
#   From: 2010.05.17/outbox.cif.g08.bks.cpg/sg67_22_cif.got.tgz:43304.got - 2010.06.03 18:28:57.
