data_PCOD9500614
_publ_section_title
;
Structure prediction by ZEFSAII (Michael W. Deem and Ramdas Pophale) SiO2 
 PCOD9500614
Probable space group: C M M A
;
_chemical_formula_sum "Si O2"
_cell_formula_units_Z 104
_cell_length_a 8.547335
_cell_length_b 25.192539
_cell_length_c 28.499238
_cell_angle_alpha 90.000000
_cell_angle_beta 90.000000
_cell_angle_gamma 90.000000
_cell_volume 6136.714424
_symmetry_space_group_name_H-M "C M M A"
_symmetry_group_IT_number 67
_symmetry_cell_setting 'orthorhombic'
loop_
_space_group_symop_operation_xyz
x,y,z
-x,1/2-y,z
x,-y,-z
-x,1/2+y,-z
-x,-y,-z
x,1/2+y,-z
-x,y,z
x,1/2-y,z
1/2+x,1/2+y,z
1/2-x,-y,z
1/2+x,1/2-y,-z
1/2-x,y,-z
1/2-x,1/2-y,-z
1/2+x,y,-z
1/2-x,1/2+y,z
1/2+x,-y,z
loop_
_atom_site_type_symbol
_atom_site_label
_atom_site_fract_x
_atom_site_fract_y
_atom_site_fract_z
Si Si1 0.687190 0.188754 0.448253
Si Si2 0.689292 0.643404 0.356043
Si Si3 0.688877 0.059175 0.721316
Si Si4 0.311470 0.250000 0.052547
Si Si5 0.690302 0.250000 0.695772
Si Si6 0.187506 0.662724 0.127363
Si Si7 0.312354 0.440375 0.828202
Si Si8 0.311646 0.750000 0.196952
O O1 0.500000 0.188443 0.448681
O O2 0.739691 0.250000 0.437759
O O3 0.750000 0.175966 0.500000
O O4 0.748003 0.148699 0.408644
O O5 0.500000 0.642150 0.357936
O O6 0.741678 0.596547 0.321292
O O7 0.741254 0.697515 0.330733
O O8 0.500000 0.059571 0.721157
O O9 0.736387 0.075288 0.774547
O O10 0.750000 0.000000 0.714239
O O11 0.500000 0.250000 0.051977
O O12 0.262137 0.302690 0.081798
O O13 0.250000 0.250000 0.000000
O O14 0.500000 0.250000 0.695825
O O15 0.740130 0.250000 0.749446
O O16 0.251315 0.603709 0.135593
O O17 0.248052 0.698578 0.170322
O O18 0.000000 0.661177 0.127539
O O19 0.500000 0.441279 0.829640
O O20 0.250000 0.500000 0.836662
O O21 0.500000 0.750000 0.195017
#
# Coordination Sequence:
#
# PCOD9500614 Si02
#       8
#    16  16  16   8   8  16  16   8
#     4  10  20  33  49  70  95 122 156 196 243 300
#     4  10  18  31  50  70  95 127 160 197 243 294
#     4   9  19  33  50  73 101 135 174 207 242 289
#     4   9  20  36  55  78 106 137 174 217 263 312
#     4   9  17  28  45  69  98 128 159 197 242 293
#     4  10  20  34  50  75 107 138 172 215 261 306
#     4  10  19  33  53  77 105 140 180 216 252 300
#     4  10  18  30  48  71 100 137 175 208 246 301
#
# _framework density 16.947179999999999
#
# number of rings (size 3 to 8) (size 9 to 14) (size 15 to 20)
#    0.000    2.308    0.769    3.000    0.000    6.154 
#    0.000    3.077    0.000    0.923    0.000    6.462 
#    0.000    0.000    0.000    0.000    0.000    0.000 
#
# Total GULP energy -289953.460936 kJ/mol
# GULP energy per Si atom -5576.028095 kJ/mol
# Density = 1.690861 g / cm^3
# Si number density = 16.947180 Si / 1000 Ang^3
#
#
#
# Elastic Constant Matrix: (Units=GPa)
#
#
# Indices 1 2 3 4 5 6 
#
# 1 32.0533 26.9829 27.4331 0.0000 0.0000 0.0000
# 2 26.9829 107.2640 71.0198 0.0000 0.0000 0.0000
# 3 27.4331 71.0198 135.8339 0.0000 0.0000 0.0000
# 4 0.0000 0.0000 0.0000 22.5030 0.0000 0.0000
# 5 0.0000 0.0000 0.0000 0.0000 22.0572 0.0000
# 6 0.0000 0.0000 0.0000 0.0000 0.0000 27.5333
#
#
#
# Elastic Compliance Matrix: (Units=1/GPa)
#
#
# Indices 1 2 3 4 5 6 
#
# 1 0.041263 -0.007437 -0.004445 0.000000 0.000000 0.000000
# 2 -0.007437 0.015599 -0.006654 0.000000 0.000000 0.000000
# 3 -0.004445 -0.006654 0.011739 0.000000 0.000000 0.000000
# 4 0.000000 0.000000 0.000000 0.044439 0.000000 0.000000
# 5 0.000000 0.000000 0.000000 0.000000 0.045337 0.000000
# 6 0.000000 0.000000 0.000000 0.000000 0.000000 0.036320
#
#
# Mechanical properties :
#
#
# Convention : Reuss Voigt Hill
#
# Bulk Modulus (GPa) = 31.71701 58.44699 45.08200
# Shear Modulus (GPa) = 20.63751 24.39971 22.51861
#
# Velocity S-wave (km/s) = 3.49342 3.79852 3.64916
# Velocity P-wave (km/s) = 5.91843 7.33491 6.66441
#
# Compressibility (1/GPa) = 0.03152883
#
# Stress axis : x y z
#
# Youngs Moduli (GPa) = 24.23485 64.10594 85.18846
#
# Poissons Ratio (x) = 0.47674 0.37868
# Poissons Ratio (y) = 0.18023 0.56684
# Poissons Ratio (z) = 0.10773 0.42656
#
# Static dielectric constant tensor:
#      x y z
#    x 1.577930 0.000000 0.000000 
#    y 0.000000 1.564740 0.000000 
#    z 0.000000 0.000000 1.568630 
# 
# From -- ./inp_files/43759.got.cif
#   From: 2010.05.17/outbox.cif.g08.bks.cpg/sg67_22_cif.got.tgz:43759.got - 2010.06.03 18:28:57.
