data_PCOD9500320
_publ_section_title
;
Structure prediction by ZEFSAII (Michael W. Deem and Ramdas Pophale) SiO2 
 PCOD9500320
Probable space group: C M M A
;
_chemical_formula_sum "Si O2"
_cell_formula_units_Z 96
_cell_length_a 8.700730
_cell_length_b 32.239092
_cell_length_c 19.737380
_cell_angle_alpha 90.000000
_cell_angle_beta 90.000000
_cell_angle_gamma 90.000000
_cell_volume 5536.406834
_symmetry_space_group_name_H-M "C M M A"
_symmetry_group_IT_number 67
_symmetry_cell_setting 'orthorhombic'
loop_
_space_group_symop_operation_xyz
x,y,z
-x,1/2-y,z
x,-y,-z
-x,1/2+y,-z
-x,-y,-z
x,1/2+y,-z
-x,y,z
x,1/2-y,z
1/2+x,1/2+y,z
1/2-x,-y,z
1/2+x,1/2-y,-z
1/2-x,y,-z
1/2-x,1/2-y,-z
1/2+x,y,-z
1/2-x,1/2+y,z
1/2+x,-y,z
loop_
_atom_site_type_symbol
_atom_site_label
_atom_site_fract_x
_atom_site_fract_y
_atom_site_fract_z
Si Si1 0.315859 0.542527 0.923023
Si Si2 0.316027 0.366508 0.575948
Si Si3 0.185010 0.628729 0.924084
Si Si4 0.815056 0.702852 0.823921
Si Si5 0.816163 0.202559 0.674729
Si Si6 0.183638 0.041808 0.423530
O O1 0.500000 0.541494 0.924630
O O2 0.250000 0.500000 0.891670
O O3 0.254395 0.585977 0.894214
O O4 0.250000 0.543079 0.000000
O O5 0.500000 0.364306 0.572094
O O6 0.250000 0.362766 0.500000
O O7 0.253248 0.330495 0.623367
O O8 0.275553 0.412625 0.604174
O O9 0.227657 0.668124 0.878409
O O10 0.000000 0.625050 0.927329
O O11 0.250000 0.633979 0.000000
O O12 0.772721 0.750000 0.844402
O O13 0.741052 0.694477 0.750993
O O14 0.000000 0.701533 0.816501
O O15 0.769611 0.250000 0.657640
O O16 0.000000 0.200340 0.672589
O O17 0.250000 0.042618 0.500000
O O18 0.000000 0.038281 0.426492
O O19 0.250000 0.000000 0.390417
#
# Coordination Sequence:
#
# PCOD9500320 Si02
#       6
#    16  16  16  16  16  16
#     4  10  17  27  44  67  97 130 164 201 244 292
#     4  10  20  33  51  76 104 133 166 205 248 293
#     4  10  19  31  49  75 104 132 165 205 248 292
#     4   9  19  36  55  73  97 132 169 203 244 296
#     4  10  21  36  54  75  98 128 167 207 249 299
#     4   9  16  26  43  68  97 129 162 196 237 284
#
# _framework density 17.339765
#
# number of rings (size 3 to 8) (size 9 to 14) (size 15 to 20)
#    0.000    2.333    0.000    5.500    0.000    5.000 
#    0.000    0.000    0.000    1.000    0.000    4.667 
#    0.000    0.000    0.000    0.000    0.000    0.000 
#
# Total GULP energy -267543.372186 kJ/mol
# GULP energy per Si atom -5573.820254 kJ/mol
# Density = 1.730030 g / cm^3
# Si number density = 17.339765 Si / 1000 Ang^3
#
#
#
# Elastic Constant Matrix: (Units=GPa)
#
#
# Indices 1 2 3 4 5 6 
#
# 1 76.9969 69.6483 31.9467 0.0000 0.0000 0.0000
# 2 69.6483 200.6785 84.9518 0.0000 0.0000 0.0000
# 3 31.9467 84.9518 52.5925 0.0000 0.0000 0.0000
# 4 0.0000 0.0000 0.0000 -9.2325 0.0000 0.0000
# 5 0.0000 0.0000 0.0000 0.0000 20.8990 0.0000
# 6 0.0000 0.0000 0.0000 0.0000 0.0000 17.9774
#
#
#
# Elastic Compliance Matrix: (Units=1/GPa)
#
#
# Indices 1 2 3 4 5 6 
#
# 1 0.019062 -0.005421 -0.002823 0.000000 0.000000 0.000000
# 2 -0.005421 0.017300 -0.024652 0.000000 0.000000 0.000000
# 3 -0.002823 -0.024652 0.060549 0.000000 0.000000 0.000000
# 4 0.000000 0.000000 0.000000 -0.108313 0.000000 0.000000
# 5 0.000000 0.000000 0.000000 0.000000 0.047849 0.000000
# 6 0.000000 0.000000 0.000000 0.000000 0.000000 0.055625
#
#
# Mechanical properties :
#
#
# Convention : Reuss Voigt Hill
#
# Bulk Modulus (GPa) = 32.13393 78.15128 55.14261
# Shear Modulus (GPa) = 29.71991 15.51020 22.61505
#
# Velocity S-wave (km/s) = 4.14451 2.99404 3.61533
# Velocity P-wave (km/s) = 6.44009 7.55783 7.02124
#
# Compressibility (1/GPa) = 0.03111975
#
# Stress axis : x y z
#
# Youngs Moduli (GPa) = 52.45976 57.80288 16.51557
#
# Poissons Ratio (x) = 0.31333 0.04663
# Poissons Ratio (y) = 0.28437 0.40714
# Poissons Ratio (z) = 0.14810 1.42495
#
# Static dielectric constant tensor:
#      x y z
#    x 1.585560 0.000000 0.000000 
#    y 0.000000 1.651430 0.000000 
#    z 0.000000 0.000000 1.544700 
# 
# From -- ./inp_files/37202.got.cif
#   From: 2010.05.17/outbox.cif.g08.bks.cpg/sg67_19_cif.got.tgz:37202.got - 2010.06.03 18:28:57.
