data_PCOD9500341
_publ_section_title
;
Structure prediction by ZEFSAII (Michael W. Deem and Ramdas Pophale) SiO2 
 PCOD9500341
Probable space group: C M M A
;
_chemical_formula_sum "Si O2"
_cell_formula_units_Z 80
_cell_length_a 27.338097
_cell_length_b 8.535172
_cell_length_c 18.625705
_cell_angle_alpha 90.000000
_cell_angle_beta 90.000000
_cell_angle_gamma 90.000000
_cell_volume 4346.035582
_symmetry_space_group_name_H-M "C M M A"
_symmetry_group_IT_number 67
_symmetry_cell_setting 'orthorhombic'
loop_
_space_group_symop_operation_xyz
x,y,z
-x,1/2-y,z
x,-y,-z
-x,1/2+y,-z
-x,-y,-z
x,1/2+y,-z
-x,y,z
x,1/2-y,z
1/2+x,1/2+y,z
1/2-x,-y,z
1/2+x,1/2-y,-z
1/2-x,y,-z
1/2-x,1/2-y,-z
1/2+x,y,-z
1/2-x,1/2+y,z
1/2+x,-y,z
loop_
_atom_site_type_symbol
_atom_site_label
_atom_site_fract_x
_atom_site_fract_y
_atom_site_fract_z
Si Si1 0.095205 0.438422 0.337557
Si Si2 0.300919 0.063170 0.336087
Si Si3 0.500000 0.940234 0.080656
Si Si4 0.299929 0.062432 0.828020
Si Si5 0.000000 0.562876 0.419311
Si Si6 0.406309 0.059720 0.830020
O O1 0.096447 0.250000 0.339838
O O2 0.147307 0.502339 0.366036
O O3 0.048598 0.500608 0.379999
O O4 0.089739 0.487124 0.253610
O O5 0.299957 0.250000 0.335832
O O6 0.250000 0.000000 0.368995
O O7 0.300921 0.999758 0.253953
O O8 0.500000 0.750000 0.080671
O O9 0.451713 0.994912 0.123108
O O10 0.500000 0.000000 0.000000
O O11 0.297678 0.250000 0.825556
O O12 0.352613 0.013291 0.858773
O O13 0.250000 0.000000 0.862316
O O14 0.000000 0.500000 0.500000
O O15 0.000000 0.750000 0.418647
O O16 0.407461 0.250000 0.830082
#
# Coordination Sequence:
#
# PCOD9500341 Si02
#       6
#    16  16   8  16   8  16
#     4  10  19  35  57  80 103 135 174 216 260 307
#     4  10  17  27  45  74 108 139 168 207 253 303
#     4  10  19  34  50  68  94 128 165 206 252 304
#     4   9  15  25  42  68  97 128 161 200 248 300
#     4  12  25  40  56  78 106 140 175 214 258 308
#     4   8  16  30  51  73  98 130 165 201 250 306
#
# _framework density 18.407579999999999
#
# number of rings (size 3 to 8) (size 9 to 14) (size 15 to 20)
#    0.000    2.400    0.000    6.900    0.000    1.600 
#    0.000    7.000    0.000    1.200    0.000    8.400 
#    0.000    0.000    0.000    0.000    0.000    0.000 
#
# Total GULP energy -222954.295512 kJ/mol
# GULP energy per Si atom -5573.857388 kJ/mol
# Density = 1.836568 g / cm^3
# Si number density = 18.407580 Si / 1000 Ang^3
#
#
#
# Elastic Constant Matrix: (Units=GPa)
#
#
# Indices 1 2 3 4 5 6 
#
# 1 248.6007 59.9741 69.7189 0.0000 0.0000 0.0000
# 2 59.9741 89.6796 17.6550 0.0000 0.0000 0.0000
# 3 69.7189 17.6550 53.6747 0.0000 0.0000 0.0000
# 4 0.0000 0.0000 0.0000 18.0694 0.0000 0.0000
# 5 0.0000 0.0000 0.0000 0.0000 -5.0561 0.0000
# 6 0.0000 0.0000 0.0000 0.0000 0.0000 64.1217
#
#
#
# Elastic Compliance Matrix: (Units=1/GPa)
#
#
# Indices 1 2 3 4 5 6 
#
# 1 0.007058 -0.003117 -0.008142 0.000000 0.000000 0.000000
# 2 -0.003117 0.013300 -0.000326 0.000000 0.000000 0.000000
# 3 -0.008142 -0.000326 0.029314 0.000000 0.000000 0.000000
# 4 0.000000 0.000000 0.000000 0.055342 0.000000 0.000000
# 5 0.000000 0.000000 0.000000 0.000000 -0.197783 0.000000
# 6 0.000000 0.000000 0.000000 0.000000 0.000000 0.015595
#
#
# Mechanical properties :
#
#
# Convention : Reuss Voigt Hill
#
# Bulk Modulus (GPa) = 37.73406 76.29458 57.01432
# Shear Modulus (GPa) = -110.69580 31.73413 -39.48083
#
# Velocity S-wave (km/s) = -7.76315 4.15658 -4.63624
# Velocity P-wave (km/s) = 7.73380 8.03577 1.54302
#
# Compressibility (1/GPa) = 0.02650126
#
# Stress axis : x y z
#
# Youngs Moduli (GPa) = 141.68247 75.19058 34.11307
#
# Poissons Ratio (x) = 0.23438 0.27777
# Poissons Ratio (y) = 0.44164 0.01111
# Poissons Ratio (z) = 1.15365 0.02449
#
# Static dielectric constant tensor:
#      x y z
#    x 1.687660 0.000000 0.000000 
#    y 0.000000 1.623910 0.000000 
#    z 0.000000 0.000000 1.614790 
# 
# From -- ./inp_files/35819.got.cif
#   From: 2010.05.17/outbox.cif.g08.bks.cpg/sg67_18_cif.got.tgz:35819.got - 2010.06.03 18:28:57.
