data_PCOD9500709
_publ_section_title
;
Structure prediction by ZEFSAII (Michael W. Deem and Ramdas Pophale) SiO2 
 PCOD9500709
Probable space group: C M M A
;
_chemical_formula_sum "Si O2"
_cell_formula_units_Z 112
_cell_length_a 27.413906
_cell_length_b 15.501941
_cell_length_c 13.622650
_cell_angle_alpha 90.000000
_cell_angle_beta 90.000000
_cell_angle_gamma 90.000000
_cell_volume 5789.200588
_symmetry_space_group_name_H-M "C M M A"
_symmetry_group_IT_number 67
_symmetry_cell_setting 'orthorhombic'
loop_
_space_group_symop_operation_xyz
x,y,z
-x,1/2-y,z
x,-y,-z
-x,1/2+y,-z
-x,-y,-z
x,1/2+y,-z
-x,y,z
x,1/2-y,z
1/2+x,1/2+y,z
1/2-x,-y,z
1/2+x,1/2-y,-z
1/2-x,y,-z
1/2-x,1/2-y,-z
1/2+x,y,-z
1/2-x,1/2+y,z
1/2+x,-y,z
loop_
_atom_site_type_symbol
_atom_site_label
_atom_site_fract_x
_atom_site_fract_y
_atom_site_fract_z
Si Si1 0.556542 0.974159 0.266682
Si Si2 0.852673 0.427516 0.150151
Si Si3 0.306750 0.400309 0.239724
Si Si4 0.390041 0.852673 0.421726
Si Si5 0.096338 0.650437 0.347838
Si Si6 0.303593 0.348128 0.022873
Si Si7 0.795852 0.348109 0.314477
O O1 0.500000 0.959361 0.248112
O O2 0.591786 0.948295 0.176573
O O3 0.576180 0.913121 0.354841
O O4 0.565810 0.074002 0.296726
O O5 0.822301 0.507158 0.196181
O O6 0.829884 0.351800 0.217219
O O7 0.841680 0.404659 0.038216
O O8 0.348578 0.365626 0.310813
O O9 0.307486 0.346316 0.139386
O O10 0.254473 0.396278 0.291698
O O11 0.394087 0.750000 0.397052
O O12 0.403775 0.861999 0.535075
O O13 0.333749 0.879076 0.398079
O O14 0.082023 0.750000 0.326170
O O15 0.305919 0.250000 0.986435
O O16 0.250000 0.384375 0.000000
O O17 0.781930 0.250000 0.336706
#
# Coordination Sequence:
#
# PCOD9500709 Si02
#       7
#    16  16  16  16  16  16  16
#     4  10  22  40  61  84 109 144 193 246 296 343
#     4  10  21  35  53  79 113 145 181 235 288 330
#     4  11  21  33  53  81 113 150 190 226 273 344
#     4   9  20  36  55  82 116 150 187 235 289 342
#     4  10  21  37  56  82 115 150 190 238 289 344
#     4  11  21  33  55  84 113 149 187 225 276 341
#     4  10  18  31  50  76 112 150 185 223 271 336
#
# _framework density 19.346366
#
# number of rings (size 3 to 8) (size 9 to 14) (size 15 to 20)
#    0.000    1.857    1.429    3.000    0.000    3.429 
#    0.000    3.571    0.000   12.000    0.000    0.000 
#    0.000    0.000    0.000    0.000    0.000    0.000 
#
# Total GULP energy -312368.724146 kJ/mol
# GULP energy per Si atom -5578.012931 kJ/mol
# Density = 1.930233 g / cm^3
# Si number density = 19.346366 Si / 1000 Ang^3
#
#
#
# Elastic Constant Matrix: (Units=GPa)
#
#
# Indices 1 2 3 4 5 6 
#
# 1 144.4095 43.5238 21.1340 0.0000 0.0000 0.0000
# 2 43.5238 87.2523 23.3170 0.0000 0.0000 0.0000
# 3 21.1340 23.3170 29.8492 0.0000 0.0000 0.0000
# 4 0.0000 0.0000 0.0000 26.8077 0.0000 0.0000
# 5 0.0000 0.0000 0.0000 0.0000 8.3830 0.0000
# 6 0.0000 0.0000 0.0000 0.0000 0.0000 20.6742
#
#
#
# Elastic Compliance Matrix: (Units=1/GPa)
#
#
# Indices 1 2 3 4 5 6 
#
# 1 0.008412 -0.003292 -0.003385 0.000000 0.000000 0.000000
# 2 -0.003292 0.015773 -0.009990 0.000000 0.000000 0.000000
# 3 -0.003385 -0.009990 0.043702 0.000000 0.000000 0.000000
# 4 0.000000 0.000000 0.000000 0.037303 0.000000 0.000000
# 5 0.000000 0.000000 0.000000 0.000000 0.119289 0.000000
# 6 0.000000 0.000000 0.000000 0.000000 0.000000 0.048369
#
#
# Mechanical properties :
#
#
# Convention : Reuss Voigt Hill
#
# Bulk Modulus (GPa) = 28.94054 48.60673 38.77364
# Shear Modulus (GPa) = 15.73810 22.74206 19.24008
#
# Velocity S-wave (km/s) = 2.85527 3.43231 3.15700
# Velocity P-wave (km/s) = 5.08544 6.39427 5.77704
#
# Compressibility (1/GPa) = 0.03455360
#
# Stress axis : x y z
#
# Youngs Moduli (GPa) = 118.87504 63.40020 22.88207
#
# Poissons Ratio (x) = 0.20870 0.07745
# Poissons Ratio (y) = 0.39130 0.22860
# Poissons Ratio (z) = 0.40236 0.63340
#
# Static dielectric constant tensor:
#      x y z
#    x 1.653760 0.000000 0.000000 
#    y 0.000000 1.774900 0.000000 
#    z 0.000000 0.000000 1.721240 
# 
# From -- ./inp_files/30819.got.cif
#   From: 2010.05.17/outbox.cif.g08.bks.cpg/sg67_16_cif.got.tgz:30819.got - 2010.06.03 18:28:57.
