data_PCOD9500728
_publ_section_title
;
Structure prediction by ZEFSAII (Michael W. Deem and Ramdas Pophale) SiO2 
 PCOD9500728
Probable space group: C M M A
;
_chemical_formula_sum "Si O2"
_cell_formula_units_Z 96
_cell_length_a 13.869941
_cell_length_b 24.770560
_cell_length_c 11.677468
_cell_angle_alpha 90.000000
_cell_angle_beta 90.000000
_cell_angle_gamma 90.000000
_cell_volume 4011.983373
_symmetry_space_group_name_H-M "C M M A"
_symmetry_group_IT_number 67
_symmetry_cell_setting 'orthorhombic'
loop_
_space_group_symop_operation_xyz
x,y,z
-x,1/2-y,z
x,-y,-z
-x,1/2+y,-z
-x,-y,-z
x,1/2+y,-z
-x,y,z
x,1/2-y,z
1/2+x,1/2+y,z
1/2-x,-y,z
1/2+x,1/2-y,-z
1/2-x,y,-z
1/2-x,1/2-y,-z
1/2+x,y,-z
1/2-x,1/2+y,z
1/2+x,-y,z
loop_
_atom_site_type_symbol
_atom_site_label
_atom_site_fract_x
_atom_site_fract_y
_atom_site_fract_z
Si Si1 0.382036 0.406813 0.825059
Si Si2 0.383374 0.030413 0.179464
Si Si3 0.118997 0.750000 0.460460
Si Si4 0.354948 0.947661 0.556430
Si Si5 0.382266 0.750000 0.806987
Si Si6 0.117475 0.641320 0.059260
Si Si7 0.107103 0.647385 0.594018
O O1 0.500000 0.410246 0.821488
O O2 0.350458 0.469046 0.847412
O O3 0.348049 0.383814 0.702346
O O4 0.356290 0.365286 0.925823
O O5 0.500000 0.029201 0.167326
O O6 0.357392 0.042768 0.310146
O O7 0.351085 0.083610 0.111645
O O8 0.148007 0.750000 0.326745
O O9 0.151039 0.699442 0.536559
O O10 0.000000 0.750000 0.456448
O O11 0.250000 0.944594 0.500000
O O12 0.401393 0.893599 0.511626
O O13 0.401173 0.000000 0.500000
O O14 0.500000 0.750000 0.807782
O O15 0.351229 0.695211 0.873546
O O16 0.000000 0.642113 0.065037
O O17 0.000000 0.663069 0.634416
#
# Coordination Sequence:
#
# PCOD9500728 Si02
#       7
#    16  16   8  16   8  16  16
#     4   9  17  28  46  75 105 133 170 216 261 309
#     4  10  18  31  52  76 104 137 176 218 264 315
#     4   9  18  31  50  78 109 139 178 223 260 306
#     4  11  22  34  50  75 105 140 172 222 270 315
#     4   9  16  27  41  64 103 142 171 209 261 311
#     4   9  17  28  46  73 103 136 175 217 258 306
#     4  10  19  33  53  77 106 139 176 216 264 320
#
# _framework density 23.928314
#
# number of rings (size 3 to 8) (size 9 to 14) (size 15 to 20)
#    0.000    2.333    1.667    2.000    0.000    6.000 
#    0.000    3.750    0.000    1.000    0.000    0.000 
#    0.000    4.000    0.000    0.000    0.000    0.000 
#
# Total GULP energy -268173.104687 kJ/mol
# GULP energy per Si atom -5586.939681 kJ/mol
# Density = 2.387385 g / cm^3
# Si number density = 23.928314 Si / 1000 Ang^3
#
#
#
# Elastic Constant Matrix: (Units=GPa)
#
#
# Indices 1 2 3 4 5 6 
#
# 1 74.8971 24.3470 -4.3990 0.0000 0.0000 0.0000
# 2 24.3470 211.9155 78.2691 0.0000 0.0000 0.0000
# 3 -4.3990 78.2691 109.6931 0.0000 0.0000 0.0000
# 4 0.0000 0.0000 0.0000 38.1063 0.0000 0.0000
# 5 0.0000 0.0000 0.0000 0.0000 -253.2762 0.0000
# 6 0.0000 0.0000 0.0000 0.0000 0.0000 25.2369
#
#
#
# Elastic Compliance Matrix: (Units=1/GPa)
#
#
# Indices 1 2 3 4 5 6 
#
# 1 0.014310 -0.002520 0.002372 0.000000 0.000000 0.000000
# 2 -0.002520 0.006851 -0.004990 0.000000 0.000000 0.000000
# 3 0.002372 -0.004990 0.012772 0.000000 0.000000 0.000000
# 4 0.000000 0.000000 0.000000 0.026242 0.000000 0.000000
# 5 0.000000 0.000000 0.000000 0.000000 -0.003948 0.000000
# 6 0.000000 0.000000 0.000000 0.000000 0.000000 0.039625
#
#
# Mechanical properties :
#
#
# Convention : Reuss Voigt Hill
#
# Bulk Modulus (GPa) = 42.26943 65.88222 54.07583
# Shear Modulus (GPa) = 43.85448 -18.10071 12.87689
#
# Velocity S-wave (km/s) = 4.28570 -2.75336 2.32231
# Velocity P-wave (km/s) = 6.49562 4.18150 5.46251
#
# Compressibility (1/GPa) = 0.02365776
#
# Stress axis : x y z
#
# Youngs Moduli (GPa) = 69.88002 145.95764 78.29788
#
# Poissons Ratio (x) = 0.36785 -0.18573
# Poissons Ratio (y) = 0.17611 0.39068
# Poissons Ratio (z) = -0.16577 0.72828
#
# Static dielectric constant tensor:
#      x y z
#    x 2.001840 0.000000 0.000000 
#    y 0.000000 2.463720 0.000000 
#    z 0.000000 0.000000 1.924480 
# 
# From -- ./inp_files/19706.got.cif
#   From: 2010.05.17/outbox.cif.g08.bks.cpg/sg67_10_cif.got.tgz:19706.got - 2010.06.03 18:28:57.
