data_PCOD9500681
_publ_section_title
;
Structure prediction by ZEFSAII (Michael W. Deem and Ramdas Pophale) SiO2 
 PCOD9500681
Probable space group: C M M A
;
_chemical_formula_sum "Si O2"
_cell_formula_units_Z 88
_cell_length_a 8.681044
_cell_length_b 27.886959
_cell_length_c 19.498997
_cell_angle_alpha 90.000000
_cell_angle_beta 90.000000
_cell_angle_gamma 90.000000
_cell_volume 4720.471589
_symmetry_space_group_name_H-M "C M M A"
_symmetry_group_IT_number 67
_symmetry_cell_setting 'orthorhombic'
loop_
_space_group_symop_operation_xyz
x,y,z
-x,1/2-y,z
x,-y,-z
-x,1/2+y,-z
-x,-y,-z
x,1/2+y,-z
-x,y,z
x,1/2-y,z
1/2+x,1/2+y,z
1/2-x,-y,z
1/2+x,1/2-y,-z
1/2-x,y,-z
1/2-x,1/2-y,-z
1/2+x,y,-z
1/2-x,1/2+y,z
1/2+x,-y,z
loop_
_atom_site_type_symbol
_atom_site_label
_atom_site_fract_x
_atom_site_fract_y
_atom_site_fract_z
Si Si1 0.686869 0.250000 0.923441
Si Si2 0.182544 0.359362 0.575552
Si Si3 0.820855 0.194133 0.304711
Si Si4 0.687709 0.655587 0.160775
Si Si5 0.814473 0.550102 0.332828
Si Si6 0.684961 0.949317 0.178182
O O1 0.500000 0.250000 0.923609
O O2 0.737133 0.299197 0.885227
O O3 0.750000 0.250000 0.000000
O O4 0.250000 0.356498 0.500000
O O5 0.233450 0.316713 0.625558
O O6 0.232755 0.406847 0.617339
O O7 0.000000 0.360585 0.570108
O O8 0.815059 0.250000 0.286750
O O9 0.759506 0.165675 0.238781
O O10 0.000000 0.180861 0.314818
O O11 0.500000 0.657113 0.161932
O O12 0.731135 0.600941 0.141900
O O13 0.750000 0.500000 0.360554
O O14 0.744183 0.555121 0.256664
O O15 0.000000 0.548872 0.327384
O O16 0.500000 0.952190 0.178862
O O17 0.750000 0.000000 0.151062
#
# Coordination Sequence:
#
# PCOD9500681 Si02
#       6
#     8  16  16  16  16  16
#     4  10  20  38  60  90 123 150 183 218 265 324
#     4  11  24  38  52  72 102 139 180 229 281 332
#     4  10  19  35  59  81 100 134 181 225 272 330
#     4   9  17  32  58  84 111 147 183 219 267 326
#     4  10  20  33  50  74 102 135 174 225 278 327
#     4  10  18  30  52  81 110 144 181 226 274 322
#
# _framework density 18.642205000000001
#
# number of rings (size 3 to 8) (size 9 to 14) (size 15 to 20)
#    0.000    2.000    2.727    2.727    0.000    3.273 
#    0.000    4.545    0.000    0.545    0.000    3.818 
#    0.000    0.000    0.000    0.000    0.000    0.000 
#
# Total GULP energy -245372.930062 kJ/mol
# GULP energy per Si atom -5576.657501 kJ/mol
# Density = 1.859977 g / cm^3
# Si number density = 18.642205 Si / 1000 Ang^3
#
#
#
# Elastic Constant Matrix: (Units=GPa)
#
#
# Indices 1 2 3 4 5 6 
#
# 1 26.5727 28.2139 7.0136 0.0000 0.0000 0.0000
# 2 28.2139 137.5467 45.0973 0.0000 0.0000 0.0000
# 3 7.0136 45.0973 58.2120 0.0000 0.0000 0.0000
# 4 0.0000 0.0000 0.0000 17.0183 0.0000 0.0000
# 5 0.0000 0.0000 0.0000 0.0000 22.1755 0.0000
# 6 0.0000 0.0000 0.0000 0.0000 0.0000 19.6746
#
#
#
# Elastic Compliance Matrix: (Units=1/GPa)
#
#
# Indices 1 2 3 4 5 6 
#
# 1 0.048379 -0.010741 0.002492 0.000000 0.000000 0.000000
# 2 -0.010741 0.012130 -0.008103 0.000000 0.000000 0.000000
# 3 0.002492 -0.008103 0.023156 0.000000 0.000000 0.000000
# 4 0.000000 0.000000 0.000000 0.058760 0.000000 0.000000
# 5 0.000000 0.000000 0.000000 0.000000 0.045095 0.000000
# 6 0.000000 0.000000 0.000000 0.000000 0.000000 0.050827
#
#
# Mechanical properties :
#
#
# Convention : Reuss Voigt Hill
#
# Bulk Modulus (GPa) = 19.62279 42.55344 31.08811
# Shear Modulus (GPa) = 17.35882 21.24079 19.29980
#
# Velocity S-wave (km/s) = 3.05480 3.37915 3.22106
# Velocity P-wave (km/s) = 4.79492 6.17259 5.52685
#
# Compressibility (1/GPa) = 0.05096114
#
# Stress axis : x y z
#
# Youngs Moduli (GPa) = 20.67021 82.43883 43.18529
#
# Poissons Ratio (x) = 0.88544 -0.10761
# Poissons Ratio (y) = 0.22201 0.34994
# Poissons Ratio (z) = -0.05151 0.66803
#
# Static dielectric constant tensor:
#      x y z
#    x 1.638120 0.000000 0.000000 
#    y 0.000000 1.702270 0.000000 
#    z 0.000000 0.000000 1.606660 
# 
# From -- ./inp_files/32375.got.cif
#   From: 2010.05.17/outbox.cif.g08.bks.cpg/sg67_17_cif.got.tgz:32375.got - 2010.06.03 18:28:57.
