data_PCOD9500347
_publ_section_title
;
Structure prediction by ZEFSAII (Michael W. Deem and Ramdas Pophale) SiO2 
 PCOD9500347
Probable space group: C M M A
;
_chemical_formula_sum "Si O2"
_cell_formula_units_Z 96
_cell_length_a 25.667634
_cell_length_b 18.607481
_cell_length_c 12.083938
_cell_angle_alpha 90.000000
_cell_angle_beta 90.000000
_cell_angle_gamma 90.000000
_cell_volume 5771.409773
_symmetry_space_group_name_H-M "C M M A"
_symmetry_group_IT_number 67
_symmetry_cell_setting 'orthorhombic'
loop_
_space_group_symop_operation_xyz
x,y,z
-x,1/2-y,z
x,-y,-z
-x,1/2+y,-z
-x,-y,-z
x,1/2+y,-z
-x,y,z
x,1/2-y,z
1/2+x,1/2+y,z
1/2-x,-y,z
1/2+x,1/2-y,-z
1/2-x,y,-z
1/2-x,1/2-y,-z
1/2+x,y,-z
1/2-x,1/2+y,z
1/2+x,-y,z
loop_
_atom_site_type_symbol
_atom_site_label
_atom_site_fract_x
_atom_site_fract_y
_atom_site_fract_z
Si Si1 0.311269 0.412562 0.992552
Si Si2 0.354572 0.576482 0.243923
Si Si3 0.752336 0.912413 0.626351
Si Si4 0.438733 0.929862 0.427869
Si Si5 0.653010 0.096547 0.229809
Si Si6 0.940896 0.164581 0.638146
O O1 0.342325 0.394812 0.879713
O O2 0.310931 0.500000 0.000000
O O3 0.250000 0.391572 0.000000
O O4 0.338646 0.383244 0.102383
O O5 0.306983 0.605395 0.317747
O O6 0.406703 0.585645 0.316462
O O7 0.350235 0.489978 0.234544
O O8 0.750000 0.888387 0.500000
O O9 0.703979 0.884597 0.697994
O O10 0.750000 0.000000 0.626722
O O11 0.500000 0.941428 0.403843
O O12 0.432943 0.864952 0.514219
O O13 0.420146 0.000000 0.500000
O O14 0.601892 0.129595 0.283429
O O15 0.936973 0.250000 0.641135
O O16 0.000000 0.143189 0.670048
#
# Coordination Sequence:
#
# PCOD9500347 Si02
#       6
#    16  16  16  16  16  16
#     4   9  16  28  44  73 107 138 169 206 256 309
#     4  10  17  27  47  76 106 133 167 213 263 308
#     4   9  16  22  39  71 101 127 162 205 255 308
#     4  10  19  32  52  76 103 134 170 217 271 316
#     4  10  17  29  48  71 104 138 171 212 255 305
#     4  10  21  36  54  75 102 139 177 213 262 320
#
# _framework density 16.633717000000001
#
# number of rings (size 3 to 8) (size 9 to 14) (size 15 to 20)
#    0.000    2.333    3.333    1.000    2.333    0.000 
#    0.000    0.833    0.000    9.000    0.000    2.333 
#    0.000    0.000    0.000    0.000    0.000    0.000 
#
# Total GULP energy -267306.009676 kJ/mol
# GULP energy per Si atom -5568.875202 kJ/mol
# Density = 1.659586 g / cm^3
# Si number density = 16.633717 Si / 1000 Ang^3
#
#
#
# Elastic Constant Matrix: (Units=GPa)
#
#
# Indices 1 2 3 4 5 6 
#
# 1 117.9944 20.2892 90.3882 0.0000 0.0000 0.0000
# 2 20.2892 14.2973 18.0326 0.0000 0.0000 0.0000
# 3 90.3882 18.0326 170.4050 0.0000 0.0000 0.0000
# 4 0.0000 0.0000 0.0000 6.9394 0.0000 0.0000
# 5 0.0000 0.0000 0.0000 0.0000 13.5141 0.0000
# 6 0.0000 0.0000 0.0000 0.0000 0.0000 8.7996
#
#
#
# Elastic Compliance Matrix: (Units=1/GPa)
#
#
# Indices 1 2 3 4 5 6 
#
# 1 0.016456 -0.014245 -0.007222 0.000000 0.000000 0.000000
# 2 -0.014245 0.093047 -0.002291 0.000000 0.000000 0.000000
# 3 -0.007222 -0.002291 0.009941 0.000000 0.000000 0.000000
# 4 0.000000 0.000000 0.000000 0.144105 0.000000 0.000000
# 5 0.000000 0.000000 0.000000 0.000000 0.073997 0.000000
# 6 0.000000 0.000000 0.000000 0.000000 0.000000 0.113642
#
#
# Mechanical properties :
#
#
# Convention : Reuss Voigt Hill
#
# Bulk Modulus (GPa) = 13.90229 62.23518 38.06873
# Shear Modulus (GPa) = 9.56612 17.44974 13.50793
#
# Velocity S-wave (km/s) = 2.40073 3.24243 2.85280
# Velocity P-wave (km/s) = 4.00759 7.17733 5.81270
#
# Compressibility (1/GPa) = 0.07193059
#
# Stress axis : x y z
#
# Youngs Moduli (GPa) = 60.76679 10.74730 100.59040
#
# Poissons Ratio (x) = 0.15309 0.72642
# Poissons Ratio (y) = 0.86561 0.23041
# Poissons Ratio (z) = 0.43883 0.02462
#
# Static dielectric constant tensor:
#      x y z
#    x 1.567660 0.000000 0.000000 
#    y 0.000000 1.552250 0.000000 
#    z 0.000000 0.000000 1.569430 
# 
# From -- ./inp_files/19775.got.cif
#   From: 2010.05.17/outbox.cif.g08.bks.cpg/sg67_10_cif.got.tgz:19775.got - 2010.06.03 18:28:57.
