data_PCOD9500652
_publ_section_title
;
Structure prediction by ZEFSAII (Michael W. Deem and Ramdas Pophale) SiO2 
 PCOD9500652
Probable space group: C M M A
;
_chemical_formula_sum "Si O2"
_cell_formula_units_Z 88
_cell_length_a 8.950330
_cell_length_b 21.593833
_cell_length_c 25.723402
_cell_angle_alpha 90.000000
_cell_angle_beta 90.000000
_cell_angle_gamma 90.000000
_cell_volume 4971.611585
_symmetry_space_group_name_H-M "C M M A"
_symmetry_group_IT_number 67
_symmetry_cell_setting 'orthorhombic'
loop_
_space_group_symop_operation_xyz
x,y,z
-x,1/2-y,z
x,-y,-z
-x,1/2+y,-z
-x,-y,-z
x,1/2+y,-z
-x,y,z
x,1/2-y,z
1/2+x,1/2+y,z
1/2-x,-y,z
1/2+x,1/2-y,-z
1/2-x,y,-z
1/2-x,1/2-y,-z
1/2+x,y,-z
1/2-x,1/2+y,z
1/2+x,-y,z
loop_
_atom_site_type_symbol
_atom_site_label
_atom_site_fract_x
_atom_site_fract_y
_atom_site_fract_z
Si Si1 0.819708 0.320854 0.231242
Si Si2 0.169952 0.824972 0.340729
Si Si3 0.672479 0.674459 0.446462
Si Si4 0.820259 0.750000 0.057969
Si Si5 0.821584 0.436408 0.161871
Si Si6 0.821246 0.123660 0.056535
O O1 0.768405 0.250000 0.219097
O O2 0.763703 0.337772 0.288934
O O3 0.769448 0.374959 0.192366
O O4 0.000000 0.319413 0.230417
O O5 0.165445 0.750000 0.344191
O O6 0.244228 0.846854 0.394314
O O7 0.000000 0.847156 0.335713
O O8 0.500000 0.655925 0.445478
O O9 0.676316 0.750000 0.446206
O O10 0.750000 0.654541 0.500000
O O11 0.500000 0.750000 0.942663
O O12 0.752350 0.813382 0.079169
O O13 0.750000 0.750000 0.000000
O O14 0.750000 0.500000 0.180584
O O15 0.791935 0.426976 0.100450
O O16 0.000000 0.439765 0.168078
O O17 0.000000 0.132450 0.050671
O O18 0.750000 0.110899 0.000000
#
# Coordination Sequence:
#
# PCOD9500652 Si02
#       6
#    16  16  16   8  16  16
#     4   9  18  34  55  75  96 130 174 213 256 307
#     4   9  16  26  41  64  94 126 163 209 257 302
#     4   9  15  22  34  55  87 128 169 207 250 302
#     4  10  18  30  50  78 106 134 164 204 247 292
#     4  10  23  39  57  78 104 138 170 213 261 311
#     4  10  20  35  55  78 105 137 170 207 255 309
#
# _framework density 17.700499000000001
#
# number of rings (size 3 to 8) (size 9 to 14) (size 15 to 20)
#    0.000    2.545    0.000    3.545    1.273    6.909 
#    0.000    1.818    0.000    0.000    0.000    0.000 
#    0.000    0.727    0.000    7.636    0.000   11.455 
#
# Total GULP energy -245150.248725 kJ/mol
# GULP energy per Si atom -5571.596562 kJ/mol
# Density = 1.766021 g / cm^3
# Si number density = 17.700499 Si / 1000 Ang^3
#
#
#
# Elastic Constant Matrix: (Units=GPa)
#
#
# Indices 1 2 3 4 5 6 
#
# 1 58.5515 29.3348 32.4938 0.0000 0.0000 0.0000
# 2 29.3348 76.6089 51.8838 0.0000 0.0000 0.0000
# 3 32.4938 51.8838 112.0519 0.0000 0.0000 0.0000
# 4 0.0000 0.0000 0.0000 3.7137 0.0000 0.0000
# 5 0.0000 0.0000 0.0000 0.0000 24.2168 0.0000
# 6 0.0000 0.0000 0.0000 0.0000 0.0000 19.0852
#
#
#
# Elastic Compliance Matrix: (Units=1/GPa)
#
#
# Indices 1 2 3 4 5 6 
#
# 1 0.022101 -0.006006 -0.003628 0.000000 0.000000 0.000000
# 2 -0.006006 0.020649 -0.007819 0.000000 0.000000 0.000000
# 3 -0.003628 -0.007819 0.013597 0.000000 0.000000 0.000000
# 4 0.000000 0.000000 0.000000 0.269275 0.000000 0.000000
# 5 0.000000 0.000000 0.000000 0.000000 0.041294 0.000000
# 6 0.000000 0.000000 0.000000 0.000000 0.000000 0.052397
#
#
# Mechanical properties :
#
#
# Convention : Reuss Voigt Hill
#
# Bulk Modulus (GPa) = 46.64073 52.73747 49.68910
# Shear Modulus (GPa) = 10.83735 18.30313 14.57024
#
# Velocity S-wave (km/s) = 2.47708 3.21915 2.87218
# Velocity P-wave (km/s) = 5.88119 6.60880 6.25558
#
# Compressibility (1/GPa) = 0.02144049
#
# Stress axis : x y z
#
# Youngs Moduli (GPa) = 45.24580 48.42896 73.54403
#
# Poissons Ratio (x) = 0.29085 0.26684
# Poissons Ratio (y) = 0.27173 0.57508
# Poissons Ratio (z) = 0.16417 0.37869
#
# Static dielectric constant tensor:
#      x y z
#    x 1.599670 0.000000 0.000000 
#    y 0.000000 1.613550 0.000000 
#    z 0.000000 0.000000 1.619040 
# 
# From -- ./inp_files/40674.got.cif
#   From: 2010.05.17/outbox.cif.g08.bks.cpg/sg67_21_cif.got.tgz:40674.got - 2010.06.03 18:28:57.
