data_PCOD9500585
_publ_section_title
;
Structure prediction by ZEFSAII (Michael W. Deem and Ramdas Pophale) SiO2 
 PCOD9500585
Probable space group: C M M A
;
_chemical_formula_sum "Si O2"
_cell_formula_units_Z 80
_cell_length_a 27.931132
_cell_length_b 10.473957
_cell_length_c 19.030350
_cell_angle_alpha 90.000000
_cell_angle_beta 90.000000
_cell_angle_gamma 90.000000
_cell_volume 5567.318912
_symmetry_space_group_name_H-M "C M M A"
_symmetry_group_IT_number 67
_symmetry_cell_setting 'orthorhombic'
loop_
_space_group_symop_operation_xyz
x,y,z
-x,1/2-y,z
x,-y,-z
-x,1/2+y,-z
-x,-y,-z
x,1/2+y,-z
-x,y,z
x,1/2-y,z
1/2+x,1/2+y,z
1/2-x,-y,z
1/2+x,1/2-y,-z
1/2-x,y,-z
1/2-x,1/2-y,-z
1/2+x,y,-z
1/2-x,1/2+y,z
1/2+x,-y,z
loop_
_atom_site_type_symbol
_atom_site_label
_atom_site_fract_x
_atom_site_fract_y
_atom_site_fract_z
Si Si1 0.695317 0.499587 0.085204
Si Si2 0.135144 0.250000 0.923362
Si Si3 0.057931 0.250000 0.211261
Si Si4 0.635338 0.250000 0.907577
Si Si5 0.558397 0.398201 0.440731
Si Si6 0.942064 0.514001 0.286083
Si Si7 0.442697 0.250000 0.187483
O O1 0.750000 0.500000 0.111154
O O2 0.665426 0.372828 0.100587
O O3 0.666487 0.624307 0.108523
O O4 0.697889 0.500000 0.000000
O O5 0.084309 0.250000 0.885767
O O6 0.128285 0.250000 0.007765
O O7 0.087171 0.250000 0.138373
O O8 0.071226 0.376053 0.255808
O O9 0.000000 0.250000 0.200115
O O10 0.573333 0.500000 0.500000
O O11 0.500000 0.397016 0.440877
O O12 0.573050 0.250000 0.451967
O O13 0.574311 0.448772 0.364239
O O14 0.928591 0.625403 0.232072
O O15 0.000000 0.514483 0.289356
O O16 0.500000 0.250000 0.179247
#
# Coordination Sequence:
#
# PCOD9500585 Si02
#       7
#    16   8   8   8  16  16   8
#     4   9  17  30  47  65  84 104 131 177 233 282
#     4  10  19  29  46  66  82 110 150 185 222 264
#     4  10  20  30  42  58  84 122 155 184 216 248
#     4  10  19  31  44  64  88 108 146 193 222 256
#     4   9  16  25  39  59  80 102 137 185 222 248
#     4   9  17  29  41  55  79 113 150 181 213 256
#     4  10  18  30  44  58  82 118 155 186 212 248
#
# _framework density 14.369574
#
# number of rings (size 3 to 8) (size 9 to 14) (size 15 to 20)
#    0.000    2.600    1.000    1.800    1.400    2.800 
#    0.000    0.000    0.000    7.200    0.000    0.000 
#    0.000    0.000    0.000    0.000    0.000   70.000 
#
# Total GULP energy -222702.852053 kJ/mol
# GULP energy per Si atom -5567.571301 kJ/mol
# Density = 1.433687 g / cm^3
# Si number density = 14.369574 Si / 1000 Ang^3
#
#
#
# Elastic Constant Matrix: (Units=GPa)
#
#
# Indices 1 2 3 4 5 6 
#
# 1 46.0144 38.1562 33.9184 0.0000 0.0000 0.0000
# 2 38.1562 158.4232 55.1668 0.0000 0.0000 0.0000
# 3 33.9184 55.1668 75.7901 0.0000 0.0000 0.0000
# 4 0.0000 0.0000 0.0000 -0.2086 0.0000 0.0000
# 5 0.0000 0.0000 0.0000 0.0000 -0.2175 0.0000
# 6 0.0000 0.0000 0.0000 0.0000 0.0000 11.6252
#
#
#
# Elastic Compliance Matrix: (Units=1/GPa)
#
#
# Indices 1 2 3 4 5 6 
#
# 1 0.034128 -0.003886 -0.012445 0.000000 0.000000 0.000000
# 2 -0.003886 0.008898 -0.004737 0.000000 0.000000 0.000000
# 3 -0.012445 -0.004737 0.022212 0.000000 0.000000 0.000000
# 4 0.000000 0.000000 0.000000 -4.793545 0.000000 0.000000
# 5 0.000000 0.000000 0.000000 0.000000 -4.597623 0.000000
# 6 0.000000 0.000000 0.000000 0.000000 0.000000 0.086020
#
#
# Mechanical properties :
#
#
# Convention : Reuss Voigt Hill
#
# Bulk Modulus (GPa) = 43.28741 59.41227 51.34984
# Shear Modulus (GPa) = -0.54407 12.43888 5.94741
#
# Velocity S-wave (km/s) = -0.61599 2.94537 2.03663
# Velocity P-wave (km/s) = 5.44829 7.28029 6.42987
#
# Compressibility (1/GPa) = 0.02310141
#
# Stress axis : x y z
#
# Youngs Moduli (GPa) = 29.30127 112.38583 45.02055
#
# Poissons Ratio (x) = 0.43676 0.56027
# Poissons Ratio (y) = 0.11387 0.21328
# Poissons Ratio (z) = 0.36464 0.53243
#
# Static dielectric constant tensor:
#      x y z
#    x 1.444570 0.000000 0.000000 
#    y 0.000000 1.492290 0.000000 
#    z 0.000000 0.000000 1.465790 
# 
# From -- ./inp_files/30652.got.cif
#   From: 2010.05.17/outbox.cif.g08.bks.cpg/sg67_16_cif.got.tgz:30652.got - 2010.06.03 18:28:57.
