data_PCOD9500372
_publ_section_title
;
Structure prediction by ZEFSAII (Michael W. Deem and Ramdas Pophale) SiO2 
 PCOD9500372
Probable space group: C M M A
;
_chemical_formula_sum "Si O2"
_cell_formula_units_Z 80
_cell_length_a 19.226278
_cell_length_b 8.665315
_cell_length_c 26.736535
_cell_angle_alpha 90.000000
_cell_angle_beta 90.000000
_cell_angle_gamma 90.000000
_cell_volume 4454.353658
_symmetry_space_group_name_H-M "C M M A"
_symmetry_group_IT_number 67
_symmetry_cell_setting 'orthorhombic'
loop_
_space_group_symop_operation_xyz
x,y,z
-x,1/2-y,z
x,-y,-z
-x,1/2+y,-z
-x,-y,-z
x,1/2+y,-z
-x,y,z
x,1/2-y,z
1/2+x,1/2+y,z
1/2-x,-y,z
1/2+x,1/2-y,-z
1/2-x,y,-z
1/2-x,1/2-y,-z
1/2+x,y,-z
1/2-x,1/2+y,z
1/2+x,-y,z
loop_
_atom_site_type_symbol
_atom_site_label
_atom_site_fract_x
_atom_site_fract_y
_atom_site_fract_z
Si Si1 0.581304 0.564620 0.351585
Si Si2 0.327969 0.066562 0.845071
Si Si3 0.329049 0.065632 0.051234
Si Si4 0.917618 0.066703 0.755691
Si Si5 0.672162 0.435399 0.552842
O O1 0.500000 0.527696 0.359712
O O2 0.587066 0.750000 0.345579
O O3 0.603835 0.485439 0.299976
O O4 0.625900 0.518676 0.399707
O O5 0.323510 0.250000 0.850854
O O6 0.250000 0.000000 0.838261
O O7 0.358791 0.993703 0.896217
O O8 0.374167 0.020048 0.797872
O O9 0.327330 0.250000 0.049694
O O10 0.250000 0.000000 0.051992
O O11 0.361392 0.000000 0.000000
O O12 0.908065 0.250000 0.761267
O O13 0.000000 0.031793 0.760551
O O14 0.644932 0.500000 0.500000
O O15 0.674519 0.250000 0.550167
O O16 0.750000 0.500000 0.558954
#
# Coordination Sequence:
#
# PCOD9500372 Si02
#       5
#    16  16  16  16  16
#     4   9  19  36  55  75 100 133 173 213 254 302
#     4  11  21  34  53  78 107 138 175 218 263 310
#     4  10  17  28  46  71 103 136 172 213 260 310
#     4  10  21  37  56  78 105 138 175 215 261 313
#     4  10  20  34  53  76 104 136 168 206 252 304
#
# _framework density 17.959956999999999
#
# number of rings (size 3 to 8) (size 9 to 14) (size 15 to 20)
#    0.000    2.000    0.000    7.200    0.000    4.000 
#    0.000    2.000    0.000    0.600    0.000    0.000 
#    0.000    0.000    0.000    0.000    0.000    0.000 
#
# Total GULP energy -223248.911816 kJ/mol
# GULP energy per Si atom -5581.222795 kJ/mol
# Density = 1.791908 g / cm^3
# Si number density = 17.959957 Si / 1000 Ang^3
#
#
#
# Elastic Constant Matrix: (Units=GPa)
#
#
# Indices 1 2 3 4 5 6 
#
# 1 32.5201 34.0550 57.0224 0.0000 0.0000 0.0000
# 2 34.0550 120.6853 76.8648 0.0000 0.0000 0.0000
# 3 57.0224 76.8648 181.8451 0.0000 0.0000 0.0000
# 4 0.0000 0.0000 0.0000 37.0854 0.0000 0.0000
# 5 0.0000 0.0000 0.0000 0.0000 981.8227 0.0000
# 6 0.0000 0.0000 0.0000 0.0000 0.0000 20.9079
#
#
#
# Elastic Compliance Matrix: (Units=1/GPa)
#
#
# Indices 1 2 3 4 5 6 
#
# 1 0.073985 -0.008349 -0.019671 0.000000 0.000000 0.000000
# 2 -0.008349 0.012281 -0.002573 0.000000 0.000000 0.000000
# 3 -0.019671 -0.002573 0.012755 0.000000 0.000000 0.000000
# 4 0.000000 0.000000 0.000000 0.026965 0.000000 0.000000
# 5 0.000000 0.000000 0.000000 0.000000 0.001019 0.000000
# 6 0.000000 0.000000 0.000000 0.000000 0.000000 0.047829
#
#
# Mechanical properties :
#
#
# Convention : Reuss Voigt Hill
#
# Bulk Modulus (GPa) = 26.43011 74.54832 50.48921
# Shear Modulus (GPa) = 20.11013 219.10375 119.60694
#
# Velocity S-wave (km/s) = 3.34985 11.05715 8.16952
# Velocity P-wave (km/s) = 5.45070 14.30427 10.82410
#
# Compressibility (1/GPa) = 0.03783564
#
# Stress axis : x y z
#
# Youngs Moduli (GPa) = 13.51617 81.42952 78.39922
#
# Poissons Ratio (x) = 0.67982 1.54221
# Poissons Ratio (y) = 0.11284 0.20172
# Poissons Ratio (z) = 0.26588 0.20952
#
# Static dielectric constant tensor:
#      x y z
#    x 1.595010 0.000000 0.000000 
#    y 0.000000 1.603970 0.000000 
#    z 0.000000 0.000000 1.637110 
# 
# From -- ./inp_files/43294.got.cif
#   From: 2010.05.17/outbox.cif.g08.bks.cpg/sg67_22_cif.got.tgz:43294.got - 2010.06.03 18:28:57.
