data_PCOD9500743
_publ_section_title
;
Structure prediction by ZEFSAII (Michael W. Deem and Ramdas Pophale) SiO2 
 PCOD9500743
Probable space group: C M M A
;
_chemical_formula_sum "Si O2"
_cell_formula_units_Z 96
_cell_length_a 26.343474
_cell_length_b 8.601628
_cell_length_c 24.229978
_cell_angle_alpha 90.000000
_cell_angle_beta 90.000000
_cell_angle_gamma 90.000000
_cell_volume 5490.434596
_symmetry_space_group_name_H-M "C M M A"
_symmetry_group_IT_number 67
_symmetry_cell_setting 'orthorhombic'
loop_
_space_group_symop_operation_xyz
x,y,z
-x,1/2-y,z
x,-y,-z
-x,1/2+y,-z
-x,-y,-z
x,1/2+y,-z
-x,y,z
x,1/2-y,z
1/2+x,1/2+y,z
1/2-x,-y,z
1/2+x,1/2-y,-z
1/2-x,y,-z
1/2-x,1/2-y,-z
1/2+x,y,-z
1/2-x,1/2+y,z
1/2+x,-y,z
loop_
_atom_site_type_symbol
_atom_site_label
_atom_site_fract_x
_atom_site_fract_y
_atom_site_fract_z
Si Si1 0.694389 0.436505 0.129728
Si Si2 0.000000 0.439384 0.129355
Si Si3 0.694614 0.064124 0.257700
Si Si4 0.000000 0.939522 0.743808
Si Si5 0.400233 0.938173 0.324205
Si Si6 0.059152 0.937282 0.558990
Si Si7 0.099736 0.563227 0.938148
O O1 0.694673 0.250000 0.126568
O O2 0.750000 0.500000 0.114471
O O3 0.684873 0.482971 0.193748
O O4 0.650435 0.503463 0.091469
O O5 0.000000 0.492147 0.192813
O O6 0.949431 0.488335 0.097057
O O7 0.000000 0.250000 0.130220
O O8 0.695626 0.250000 0.259638
O O9 0.750000 0.000000 0.272979
O O10 0.650471 0.001138 0.296569
O O11 0.050662 0.987851 0.711513
O O12 0.000000 0.750000 0.743775
O O13 0.398856 0.750000 0.323277
O O14 0.409510 0.987943 0.387421
O O15 0.059833 0.750000 0.557492
O O16 0.000000 0.984995 0.566243
O O17 0.076918 0.000000 0.500000
O O18 0.100310 0.750000 0.939345
O O19 0.096300 0.500000 0.000000
#
# Coordination Sequence:
#
# PCOD9500743 Si02
#       7
#    16   8  16   8  16  16  16
#     4  10  21  38  58  81 107 135 170 216 266 318
#     4   9  19  33  52  77 105 139 176 211 254 309
#     4  10  21  36  55  79 107 139 175 215 265 316
#     4   9  16  29  51  79 107 137 172 211 258 313
#     4  10  18  31  53  79 109 142 180 219 259 311
#     4   9  17  30  48  74 107 146 184 219 260 307
#     4  11  22  37  56  79 105 138 178 217 260 311
#
# _framework density 17.484954999999999
#
# number of rings (size 3 to 8) (size 9 to 14) (size 15 to 20)
#    0.000    2.167    0.833    2.750    0.000    4.333 
#    0.000    3.333    0.000    4.500    0.000    3.500 
#    0.000    0.000    0.000    0.000    0.000    0.000 
#
# Total GULP energy -267975.488547 kJ/mol
# GULP energy per Si atom -5582.822678 kJ/mol
# Density = 1.744516 g / cm^3
# Si number density = 17.484955 Si / 1000 Ang^3
#
#
#
# Elastic Constant Matrix: (Units=GPa)
#
#
# Indices 1 2 3 4 5 6 
#
# 1 133.3670 29.7508 105.8774 0.0000 0.0000 0.0000
# 2 29.7508 28.5893 34.1992 0.0000 0.0000 0.0000
# 3 105.8774 34.1992 168.0829 0.0000 0.0000 0.0000
# 4 0.0000 0.0000 0.0000 24.8834 0.0000 0.0000
# 5 0.0000 0.0000 0.0000 0.0000 -34.4235 0.0000
# 6 0.0000 0.0000 0.0000 0.0000 0.0000 17.9897
#
#
#
# Elastic Compliance Matrix: (Units=1/GPa)
#
#
# Indices 1 2 3 4 5 6 
#
# 1 0.015733 -0.005970 -0.008696 0.000000 0.000000 0.000000
# 2 -0.005970 0.048496 -0.006106 0.000000 0.000000 0.000000
# 3 -0.008696 -0.006106 0.012670 0.000000 0.000000 0.000000
# 4 0.000000 0.000000 0.000000 0.040187 0.000000 0.000000
# 5 0.000000 0.000000 0.000000 0.000000 -0.029050 0.000000
# 6 0.000000 0.000000 0.000000 0.000000 0.000000 0.055587
#
#
# Mechanical properties :
#
#
# Convention : Reuss Voigt Hill
#
# Bulk Modulus (GPa) = 28.28595 74.41043 51.34819
# Shear Modulus (GPa) = 25.38669 12.37069 18.87869
#
# Velocity S-wave (km/s) = 3.81454 2.66278 3.28946
# Velocity P-wave (km/s) = 5.96769 7.21825 6.62255
#
# Compressibility (1/GPa) = 0.03535324
#
# Stress axis : x y z
#
# Youngs Moduli (GPa) = 63.55875 20.62041 78.92926
#
# Poissons Ratio (x) = 0.12311 0.68636
# Poissons Ratio (y) = 0.37947 0.48198
# Poissons Ratio (z) = 0.55270 0.12592
#
# Static dielectric constant tensor:
#      x y z
#    x 1.561390 0.000000 0.000000 
#    y 0.000000 1.594200 0.000000 
#    z 0.000000 0.000000 1.586780 
# 
# From -- ./inp_files/40804.got.cif
#   From: 2010.05.17/outbox.cif.g08.bks.cpg/sg67_21_cif.got.tgz:40804.got - 2010.06.03 18:28:57.
