data_PCOD9500729
_publ_section_title
;
Structure prediction by ZEFSAII (Michael W. Deem and Ramdas Pophale) SiO2 
 PCOD9500729
Probable space group: C M M A
;
_chemical_formula_sum "Si O2"
_cell_formula_units_Z 64
_cell_length_a 9.419724
_cell_length_b 14.604438
_cell_length_c 19.717041
_cell_angle_alpha 90.000000
_cell_angle_beta 90.000000
_cell_angle_gamma 90.000000
_cell_volume 2712.468897
_symmetry_space_group_name_H-M "C M M A"
_symmetry_group_IT_number 67
_symmetry_cell_setting 'orthorhombic'
loop_
_space_group_symop_operation_xyz
x,y,z
-x,1/2-y,z
x,-y,-z
-x,1/2+y,-z
-x,-y,-z
x,1/2+y,-z
-x,y,z
x,1/2-y,z
1/2+x,1/2+y,z
1/2-x,-y,z
1/2+x,1/2-y,-z
1/2-x,y,-z
1/2-x,1/2-y,-z
1/2+x,y,-z
1/2-x,1/2+y,z
1/2+x,-y,z
loop_
_atom_site_type_symbol
_atom_site_label
_atom_site_fract_x
_atom_site_fract_y
_atom_site_fract_z
Si Si1 0.000000 0.862301 0.957551
Si Si2 0.174942 0.398071 0.566901
Si Si3 0.337515 0.592731 0.307429
Si Si4 0.791612 0.358376 0.156849
Si Si5 0.000000 0.862706 0.113365
O O1 0.128928 0.893034 0.909964
O O2 0.000000 0.750000 0.960947
O O3 0.000000 0.891804 0.035049
O O4 0.250000 0.500000 0.568889
O O5 0.250000 0.356879 0.500000
O O6 0.239886 0.356785 0.636317
O O7 0.000000 0.399443 0.563923
O O8 0.500000 0.580115 0.333022
O O9 0.250000 0.500000 0.295900
O O10 0.348749 0.632625 0.232234
O O11 0.786414 0.250000 0.144629
O O12 0.635029 0.397167 0.153465
O O13 0.000000 0.750000 0.113907
#
# Coordination Sequence:
#
# PCOD9500729 Si02
#       5
#     8  16  16  16   8
#     4   9  16  32  53  79 104 133 178 224 269 309
#     4  10  18  31  52  77 106 136 176 218 257 305
#     4  11  22  35  54  78 110 144 176 216 264 317
#     4  10  20  34  55  81 107 138 177 222 269 314
#     4   9  18  30  53  81 106 133 174 228 269 311
#
# _framework density 23.594740000000002
#
# number of rings (size 3 to 8) (size 9 to 14) (size 15 to 20)
#    0.000    2.000    1.250    6.000    3.500    3.000 
#    0.000    0.000    0.000    5.250    0.000    0.000 
#    0.000    0.000    0.000    0.000    0.000    0.000 
#
# Total GULP energy -178238.061141 kJ/mol
# GULP energy per Si atom -5569.939411 kJ/mol
# Density = 2.354104 g / cm^3
# Si number density = 23.594740 Si / 1000 Ang^3
#
#
#
# Elastic Constant Matrix: (Units=GPa)
#
#
# Indices 1 2 3 4 5 6 
#
# 1 246.6117 4.3833 77.5882 0.0000 0.0000 0.0000
# 2 4.3833 46.2260 -3.8584 0.0000 0.0000 0.0000
# 3 77.5882 -3.8584 167.7609 0.0000 0.0000 0.0000
# 4 0.0000 0.0000 0.0000 51.1847 0.0000 0.0000
# 5 0.0000 0.0000 0.0000 0.0000 43.7713 0.0000
# 6 0.0000 0.0000 0.0000 0.0000 0.0000 -48.0518
#
#
#
# Elastic Compliance Matrix: (Units=1/GPa)
#
#
# Indices 1 2 3 4 5 6 
#
# 1 0.004764 -0.000637 -0.002218 0.000000 0.000000 0.000000
# 2 -0.000637 0.021760 0.000795 0.000000 0.000000 0.000000
# 3 -0.002218 0.000795 0.007005 0.000000 0.000000 0.000000
# 4 0.000000 0.000000 0.000000 0.019537 0.000000 0.000000
# 5 0.000000 0.000000 0.000000 0.000000 0.022846 0.000000
# 6 0.000000 0.000000 0.000000 0.000000 0.000000 -0.020811
#
#
# Mechanical properties :
#
#
# Convention : Reuss Voigt Hill
#
# Bulk Modulus (GPa) = 34.00332 68.53609 51.26970
# Shear Modulus (GPa) = 72.43902 34.87989 53.65945
#
# Velocity S-wave (km/s) = 5.54689 3.84903 4.77404
# Velocity P-wave (km/s) = 7.44760 6.99025 7.22254
#
# Compressibility (1/GPa) = 0.02940890
#
# Stress axis : x y z
#
# Youngs Moduli (GPa) = 209.90310 45.95676 142.75589
#
# Poissons Ratio (x) = 0.02927 0.31663
# Poissons Ratio (y) = 0.13368 -0.11349
# Poissons Ratio (z) = 0.46557 -0.03654
#
# Static dielectric constant tensor:
#      x y z
#    x 1.905330 0.000000 0.000000 
#    y 0.000000 1.977300 0.000000 
#    z 0.000000 0.000000 1.915170 
# 
# From -- ./inp_files/31787.got.cif
#   From: 2010.05.17/outbox.cif.g08.bks.cpg/sg67_16_cif.got.tgz:31787.got - 2010.06.03 18:28:57.
