data_PCOD9500820
_publ_section_title
;
Structure prediction by ZEFSAII (Michael W. Deem and Ramdas Pophale) SiO2 
 PCOD9500820
Probable space group: C M M A
;
_chemical_formula_sum "Si O2"
_cell_formula_units_Z 72
_cell_length_a 20.873412
_cell_length_b 8.820625
_cell_length_c 24.553213
_cell_angle_alpha 90.000000
_cell_angle_beta 90.000000
_cell_angle_gamma 90.000000
_cell_volume 4520.652617
_symmetry_space_group_name_H-M "C M M A"
_symmetry_group_IT_number 67
_symmetry_cell_setting 'orthorhombic'
loop_
_space_group_symop_operation_xyz
x,y,z
-x,1/2-y,z
x,-y,-z
-x,1/2+y,-z
-x,-y,-z
x,1/2+y,-z
-x,y,z
x,1/2-y,z
1/2+x,1/2+y,z
1/2-x,-y,z
1/2+x,1/2-y,-z
1/2-x,y,-z
1/2-x,1/2-y,-z
1/2+x,y,-z
1/2-x,1/2+y,z
1/2+x,-y,z
loop_
_atom_site_type_symbol
_atom_site_label
_atom_site_fract_x
_atom_site_fract_y
_atom_site_fract_z
Si Si1 0.000000 0.569178 0.940120
Si Si2 0.571258 0.571219 0.845569
Si Si3 0.073415 0.933057 0.559316
Si Si4 0.680990 0.932665 0.355206
Si Si5 0.819292 0.068234 0.228965
O O1 0.059944 0.507602 0.904215
O O2 0.000000 0.750000 0.941695
O O3 0.000000 0.500000 0.000000
O O4 0.500000 0.553303 0.819302
O O5 0.582847 0.750000 0.852514
O O6 0.625825 0.496260 0.809798
O O7 0.075503 0.750000 0.556257
O O8 0.124663 0.982645 0.604388
O O9 0.000000 0.976548 0.573021
O O10 0.088469 0.000000 0.500000
O O11 0.684896 0.750000 0.357518
O O12 0.667911 0.974373 0.292216
O O13 0.750000 0.000000 0.370525
O O14 0.817248 0.250000 0.225384
O O15 0.750000 0.000000 0.214596
#
# Coordination Sequence:
#
# PCOD9500820 Si02
#       5
#     8  16  16  16  16
#     4  10  18  32  54  80 108 140 175 212 253 294
#     4   9  19  33  50  76 106 135 171 213 252 295
#     4   9  18  33  50  68  92 122 159 202 249 300
#     4   9  19  33  49  70  95 126 162 202 248 300
#     4  10  19  32  51  73 101 136 171 209 258 310
#
# _framework density 15.926904
#
# number of rings (size 3 to 8) (size 9 to 14) (size 15 to 20)
#    0.667    2.000    0.000    2.000    0.000    3.111 
#    0.000    4.444    0.000    3.333    0.000    4.667 
#    0.000    0.000    0.000    0.000    0.000    0.000 
#
# Total GULP energy -200465.322913 kJ/mol
# GULP energy per Si atom -5568.481192 kJ/mol
# Density = 1.589065 g / cm^3
# Si number density = 15.926904 Si / 1000 Ang^3
#
#
#
# Elastic Constant Matrix: (Units=GPa)
#
#
# Indices 1 2 3 4 5 6 
#
# 1 128.1418 56.9290 106.5275 0.0000 0.0000 0.0000
# 2 56.9290 68.5306 50.0112 0.0000 0.0000 0.0000
# 3 106.5275 50.0112 120.6575 0.0000 0.0000 0.0000
# 4 0.0000 0.0000 0.0000 26.9857 0.0000 0.0000
# 5 0.0000 0.0000 0.0000 0.0000 -4.4164 0.0000
# 6 0.0000 0.0000 0.0000 0.0000 0.0000 29.4238
#
#
#
# Elastic Compliance Matrix: (Units=1/GPa)
#
#
# Indices 1 2 3 4 5 6 
#
# 1 0.032599 -0.008712 -0.025170 0.000000 0.000000 0.000000
# 2 -0.008712 0.023248 -0.001944 0.000000 0.000000 0.000000
# 3 -0.025170 -0.001944 0.031317 0.000000 0.000000 0.000000
# 4 0.000000 0.000000 0.000000 0.037057 0.000000 0.000000
# 5 0.000000 0.000000 0.000000 0.000000 -0.226431 0.000000
# 6 0.000000 0.000000 0.000000 0.000000 0.000000 0.033986
#
#
# Mechanical properties :
#
#
# Convention : Reuss Voigt Hill
#
# Bulk Modulus (GPa) = 64.47351 82.69614 73.58482
# Shear Modulus (GPa) = 581.47727 17.32278 299.40002
#
# Velocity S-wave (km/s) = 19.12809 3.30152 13.72559
# Velocity P-wave (km/s) = 22.98725 8.15895 17.24793
#
# Compressibility (1/GPa) = 0.01551025
#
# Stress axis : x y z
#
# Youngs Moduli (GPa) = 30.67571 43.01444 31.93188
#
# Poissons Ratio (x) = 0.37474 0.80374
# Poissons Ratio (y) = 0.26724 0.06209
# Poissons Ratio (z) = 0.77212 0.08364
#
# Static dielectric constant tensor:
#      x y z
#    x 1.518730 0.000000 0.000000 
#    y 0.000000 1.533550 0.000000 
#    z 0.000000 0.000000 1.513390 
# 
# From -- ./inp_files/40566.got.cif
#   From: 2010.05.17/outbox.cif.g08.bks.cpg/sg67_21_cif.got.tgz:40566.got - 2010.06.03 18:28:57.
