data_PCOD9500632
_publ_section_title
;
Structure prediction by ZEFSAII (Michael W. Deem and Ramdas Pophale) SiO2 
 PCOD9500632
Probable space group: C M M A
;
_chemical_formula_sum "Si O2"
_cell_formula_units_Z 104
_cell_length_a 27.745472
_cell_length_b 8.714262
_cell_length_c 25.021959
_cell_angle_alpha 90.000000
_cell_angle_beta 90.000000
_cell_angle_gamma 90.000000
_cell_volume 6049.842084
_symmetry_space_group_name_H-M "C M M A"
_symmetry_group_IT_number 67
_symmetry_cell_setting 'orthorhombic'
loop_
_space_group_symop_operation_xyz
x,y,z
-x,1/2-y,z
x,-y,-z
-x,1/2+y,-z
-x,-y,-z
x,1/2+y,-z
-x,y,z
x,1/2-y,z
1/2+x,1/2+y,z
1/2-x,-y,z
1/2+x,1/2-y,-z
1/2-x,y,-z
1/2-x,1/2-y,-z
1/2+x,y,-z
1/2-x,1/2+y,z
1/2+x,-y,z
loop_
_atom_site_type_symbol
_atom_site_label
_atom_site_fract_x
_atom_site_fract_y
_atom_site_fract_z
Si Si1 0.801278 0.567097 0.725872
Si Si2 0.943340 0.426487 0.241806
Si Si3 0.301835 0.434999 0.851085
Si Si4 0.444202 0.935318 0.557908
Si Si5 0.609312 0.068228 0.336582
Si Si6 0.500000 0.563579 0.059607
Si Si7 0.093982 0.436807 0.126801
O O1 0.800087 0.750000 0.724841
O O2 0.750000 0.500000 0.709242
O O3 0.808658 0.520931 0.788312
O O4 0.842975 0.507611 0.687402
O O5 0.927069 0.250000 0.251991
O O6 0.930853 0.527769 0.292510
O O7 0.918545 0.481490 0.187569
O O8 0.000000 0.423095 0.231796
O O9 0.299387 0.250000 0.853149
O O10 0.250000 0.500000 0.868640
O O11 0.350410 0.484413 0.882516
O O12 0.500000 0.981037 0.568628
O O13 0.443068 0.750000 0.556171
O O14 0.409726 0.987201 0.605972
O O15 0.430716 0.000000 0.500000
O O16 0.616348 0.250000 0.339595
O O17 0.500000 0.750000 0.059449
O O18 0.450567 0.513264 0.089598
O O19 0.500000 0.500000 0.000000
O O20 0.093353 0.250000 0.125579
#
# Coordination Sequence:
#
# PCOD9500632 Si02
#       7
#    16  16  16  16  16   8  16
#     4  10  19  32  50  73 103 135 172 209 250 309
#     4  10  18  30  49  73 100 134 174 208 250 312
#     4   9  17  30  49  73 102 134 171 209 253 305
#     4   9  19  35  52  70  96 131 171 212 254 303
#     4  11  21  32  48  73 106 137 165 206 264 313
#     4  10  20  36  58  78 104 140 179 218 261 306
#     4   9  16  31  53  74 100 137 172 210 255 306
#
# _framework density 17.190532000000001
#
# number of rings (size 3 to 8) (size 9 to 14) (size 15 to 20)
#    0.000    2.308    2.308    1.385    0.000    2.769 
#    0.000    3.077    0.000    0.923    0.000    6.462 
#    0.000    0.000    0.000    0.000    0.000    0.000 
#
# Total GULP energy -289824.790667 kJ/mol
# GULP energy per Si atom -5573.553667 kJ/mol
# Density = 1.715141 g / cm^3
# Si number density = 17.190532 Si / 1000 Ang^3
#
#
#
# Elastic Constant Matrix: (Units=GPa)
#
#
# Indices 1 2 3 4 5 6 
#
# 1 145.1540 19.5057 48.4076 0.0000 0.0000 0.0000
# 2 19.5057 11.8761 6.7736 0.0000 0.0000 0.0000
# 3 48.4076 6.7736 62.6369 0.0000 0.0000 0.0000
# 4 0.0000 0.0000 0.0000 22.0808 0.0000 0.0000
# 5 0.0000 0.0000 0.0000 0.0000 13.6253 0.0000
# 6 0.0000 0.0000 0.0000 0.0000 0.0000 27.1566
#
#
#
# Elastic Compliance Matrix: (Units=1/GPa)
#
#
# Indices 1 2 3 4 5 6 
#
# 1 0.011177 -0.014314 -0.007090 0.000000 0.000000 0.000000
# 2 -0.014314 0.108068 -0.000624 0.000000 0.000000 0.000000
# 3 -0.007090 -0.000624 0.021512 0.000000 0.000000 0.000000
# 4 0.000000 0.000000 0.000000 0.045288 0.000000 0.000000
# 5 0.000000 0.000000 0.000000 0.000000 0.073393 0.000000
# 6 0.000000 0.000000 0.000000 0.000000 0.000000 0.036824
#
#
# Mechanical properties :
#
#
# Convention : Reuss Voigt Hill
#
# Bulk Modulus (GPa) = 10.34118 41.00453 25.67285
# Shear Modulus (GPa) = 13.42091 22.23786 17.82939
#
# Velocity S-wave (km/s) = 2.79716 3.60058 3.22400
# Velocity P-wave (km/s) = 4.05719 6.41797 5.36895
#
# Compressibility (1/GPa) = 0.09670080
#
# Stress axis : x y z
#
# Youngs Moduli (GPa) = 89.46737 9.25341 46.48557
#
# Poissons Ratio (x) = 0.13245 0.32959
# Poissons Ratio (y) = 1.28063 0.02902
# Poissons Ratio (z) = 0.63434 0.00578
#
# Static dielectric constant tensor:
#      x y z
#    x 1.618470 0.000000 0.000000 
#    y 0.000000 1.587570 0.000000 
#    z 0.000000 0.000000 1.558250 
# 
# From -- ./inp_files/42745.got.cif
#   From: 2010.05.17/outbox.cif.g08.bks.cpg/sg67_22_cif.got.tgz:42745.got - 2010.06.03 18:28:57.
