data_PCOD9500878
_publ_section_title
;
Structure prediction by ZEFSAII (Michael W. Deem and Ramdas Pophale) SiO2 
 PCOD9500878
Probable space group: C M M A
;
_chemical_formula_sum "Si O2"
_cell_formula_units_Z 72
_cell_length_a 28.225986
_cell_length_b 14.031446
_cell_length_c 10.064015
_cell_angle_alpha 90.000000
_cell_angle_beta 90.000000
_cell_angle_gamma 90.000000
_cell_volume 3985.867214
_symmetry_space_group_name_H-M "C M M A"
_symmetry_group_IT_number 67
_symmetry_cell_setting 'orthorhombic'
loop_
_space_group_symop_operation_xyz
x,y,z
-x,1/2-y,z
x,-y,-z
-x,1/2+y,-z
-x,-y,-z
x,1/2+y,-z
-x,y,z
x,1/2-y,z
1/2+x,1/2+y,z
1/2-x,-y,z
1/2+x,1/2-y,-z
1/2-x,y,-z
1/2-x,1/2-y,-z
1/2+x,y,-z
1/2-x,1/2+y,z
1/2+x,-y,z
loop_
_atom_site_type_symbol
_atom_site_label
_atom_site_fract_x
_atom_site_fract_y
_atom_site_fract_z
Si Si1 0.302852 0.539103 0.351368
Si Si2 0.949103 0.111347 0.972009
Si Si3 0.444435 0.750000 0.216264
Si Si4 0.646236 0.929116 0.873455
Si Si5 0.662101 0.250000 0.717005
Si Si6 0.695077 0.750000 0.978852
O O1 0.309795 0.500000 0.500000
O O2 0.250000 0.500000 0.312264
O O3 0.340308 0.489347 0.253908
O O4 0.312696 0.653078 0.337537
O O5 0.904948 0.121413 0.875419
O O6 0.000000 0.143915 0.920386
O O7 0.940723 0.161729 0.113365
O O8 0.951997 0.000000 0.000000
O O9 0.500000 0.750000 0.268552
O O10 0.395800 0.750000 0.302955
O O11 0.682145 0.844205 0.899059
O O12 0.648263 0.000000 0.000000
O O13 0.669213 0.250000 0.877593
O O14 0.750000 0.750000 0.000000
#
# Coordination Sequence:
#
# PCOD9500878 Si02
#       6
#    16  16   8  16   8   8
#     4  11  26  42  60  85 121 169 211 249 301 374
#     4   9  16  28  49  80 115 144 181 236 295 349
#     4  10  18  32  57  93 124 157 198 244 308 374
#     4  11  20  35  57  85 115 148 198 249 298 353
#     4  12  20  42  63  84 123 162 201 255 310 363
#     4  12  22  31  56  88 117 153 189 252 310 340
#
# _framework density 18.063822999999999
#
# number of rings (size 3 to 8) (size 9 to 14) (size 15 to 20)
#    0.000    1.333    4.444    2.667    0.000    2.667 
#    0.000    0.000    0.000    2.667    0.000    0.000 
#    0.000    0.000    0.000    0.000    0.000    0.000 
#
# Total GULP energy -200535.735198 kJ/mol
# GULP energy per Si atom -5570.437089 kJ/mol
# Density = 1.802271 g / cm^3
# Si number density = 18.063823 Si / 1000 Ang^3
#
#
#
# Elastic Constant Matrix: (Units=GPa)
#
#
# Indices 1 2 3 4 5 6 
#
# 1 157.2769 34.2600 8.8000 0.0000 0.0000 0.0000
# 2 34.2600 146.8475 14.7073 0.0000 0.0000 0.0000
# 3 8.8000 14.7073 44.9007 0.0000 0.0000 0.0000
# 4 0.0000 0.0000 0.0000 19.9542 0.0000 0.0000
# 5 0.0000 0.0000 0.0000 0.0000 4.7562 0.0000
# 6 0.0000 0.0000 0.0000 0.0000 0.0000 24.3721
#
#
#
# Elastic Compliance Matrix: (Units=1/GPa)
#
#
# Indices 1 2 3 4 5 6 
#
# 1 0.006729 -0.001486 -0.000832 0.000000 0.000000 0.000000
# 2 -0.001486 0.007369 -0.002122 0.000000 0.000000 0.000000
# 3 -0.000832 -0.002122 0.023130 0.000000 0.000000 0.000000
# 4 0.000000 0.000000 0.000000 0.050115 0.000000 0.000000
# 5 0.000000 0.000000 0.000000 0.000000 0.210251 0.000000
# 6 0.000000 0.000000 0.000000 0.000000 0.000000 0.041031
#
#
# Mechanical properties :
#
#
# Convention : Reuss Voigt Hill
#
# Bulk Modulus (GPa) = 35.27857 51.61775 43.44816
# Shear Modulus (GPa) = 14.00743 29.23368 21.62056
#
# Velocity S-wave (km/s) = 2.78770 4.02724 3.46337
# Velocity P-wave (km/s) = 5.47120 7.08958 6.33230
#
# Compressibility (1/GPa) = 0.02834582
#
# Stress axis : x y z
#
# Youngs Moduli (GPa) = 148.62022 135.70072 43.23467
#
# Poissons Ratio (x) = 0.20172 0.03596
# Poissons Ratio (y) = 0.22092 0.09176
# Poissons Ratio (z) = 0.12362 0.28802
#
# Static dielectric constant tensor:
#      x y z
#    x 1.710370 0.000000 0.000000 
#    y 0.000000 1.576210 0.000000 
#    z 0.000000 0.000000 1.587750 
# 
# From -- ./inp_files/8373.got.cif
#   From: 2010.05.17/outbox.cif.g08.bks.cpg/sg67_5_cif.got.tgz:8373.got - 2010.06.03 18:28:57.
