data_PCOD9500757
_publ_section_title
;
Structure prediction by ZEFSAII (Michael W. Deem and Ramdas Pophale) SiO2 
 PCOD9500757
Probable space group: C M M A
;
_chemical_formula_sum "Si O2"
_cell_formula_units_Z 88
_cell_length_a 14.659440
_cell_length_b 23.749160
_cell_length_c 15.632633
_cell_angle_alpha 90.000000
_cell_angle_beta 90.000000
_cell_angle_gamma 90.000000
_cell_volume 5442.491582
_symmetry_space_group_name_H-M "C M M A"
_symmetry_group_IT_number 67
_symmetry_cell_setting 'orthorhombic'
loop_
_space_group_symop_operation_xyz
x,y,z
-x,1/2-y,z
x,-y,-z
-x,1/2+y,-z
-x,-y,-z
x,1/2+y,-z
-x,y,z
x,1/2-y,z
1/2+x,1/2+y,z
1/2-x,-y,z
1/2+x,1/2-y,-z
1/2-x,y,-z
1/2-x,1/2-y,-z
1/2+x,y,-z
1/2-x,1/2+y,z
1/2+x,-y,z
loop_
_atom_site_type_symbol
_atom_site_label
_atom_site_fract_x
_atom_site_fract_y
_atom_site_fract_z
Si Si1 0.500000 0.535210 0.412803
Si Si2 0.822883 0.627830 0.067268
Si Si3 0.103564 0.750000 0.064954
Si Si4 0.500000 0.945892 0.738409
Si Si5 0.290829 0.563803 0.408181
Si Si6 0.604837 0.750000 0.727873
Si Si7 0.500000 0.049235 0.069245
Si Si8 0.317939 0.629329 0.733209
O O1 0.500000 0.500000 0.500000
O O2 0.500000 0.492782 0.333348
O O3 0.401026 0.565114 0.410785
O O4 0.848543 0.691781 0.041465
O O5 0.790513 0.628719 0.166310
O O6 0.912281 0.589373 0.061901
O O7 0.750000 0.605835 0.000000
O O8 0.099288 0.750000 0.168481
O O9 0.000000 0.750000 0.032448
O O10 0.500000 0.972526 0.833029
O O11 0.588722 0.906725 0.729371
O O12 0.250000 0.500000 0.396426
O O13 0.250000 0.582412 0.500000
O O14 0.253318 0.600893 0.330404
O O15 0.500000 0.750000 0.696356
O O16 0.656910 0.807253 0.705558
O O17 0.500000 0.000000 0.000000
#
# Coordination Sequence:
#
# PCOD9500757 Si02
#       8
#     8  16   8   8  16   8   8  16
#     4  12  20  34  55  82 108 136 175 221 265 304
#     4  10  20  34  53  76 103 139 177 221 267 316
#     4   9  15  31  57  77  99 127 178 234 271 299
#     4  10  18  31  56  75 102 136 178 223 259 314
#     4  11  21  35  56  82 109 138 176 220 262 314
#     4   9  16  29  56  83 104 133 172 226 274 315
#     4  10  22  35  45  70 108 145 178 213 256 315
#     4  10  19  34  53  82 107 134 177 223 271 315
#
# _framework density 16.169065
#
# number of rings (size 3 to 8) (size 9 to 14) (size 15 to 20)
#    0.000    1.818    5.455    0.273    0.000    1.818 
#    0.000    0.455    0.000    0.545    0.000    0.000 
#    0.000    0.000    0.000    0.000    0.000    0.000 
#
# Total GULP energy -245259.967871 kJ/mol
# GULP energy per Si atom -5574.090179 kJ/mol
# Density = 1.613226 g / cm^3
# Si number density = 16.169065 Si / 1000 Ang^3
#
#
#
# Elastic Constant Matrix: (Units=GPa)
#
#
# Indices 1 2 3 4 5 6 
#
# 1 127.2608 33.1455 67.5756 0.0000 0.0000 0.0000
# 2 33.1455 69.3464 55.7705 0.0000 0.0000 0.0000
# 3 67.5756 55.7705 110.6347 0.0000 0.0000 0.0000
# 4 0.0000 0.0000 0.0000 23.8265 0.0000 0.0000
# 5 0.0000 0.0000 0.0000 0.0000 24.2574 0.0000
# 6 0.0000 0.0000 0.0000 0.0000 0.0000 -28.2708
#
#
#
# Elastic Compliance Matrix: (Units=1/GPa)
#
#
# Indices 1 2 3 4 5 6 
#
# 1 0.011633 0.000259 -0.007236 0.000000 0.000000 0.000000
# 2 0.000259 0.024258 -0.012387 0.000000 0.000000 0.000000
# 3 -0.007236 -0.012387 0.019703 0.000000 0.000000 0.000000
# 4 0.000000 0.000000 0.000000 0.041970 0.000000 0.000000
# 5 0.000000 0.000000 0.000000 0.000000 0.041225 0.000000
# 6 0.000000 0.000000 0.000000 0.000000 0.000000 -0.035372
#
#
# Mechanical properties :
#
#
# Convention : Reuss Voigt Hill
#
# Bulk Modulus (GPa) = 59.28891 68.91390 64.10140
# Shear Modulus (GPa) = 33.83745 14.01265 23.92505
#
# Velocity S-wave (km/s) = 4.57960 2.94706 3.85083
# Velocity P-wave (km/s) = 8.04434 7.36842 7.71378
#
# Compressibility (1/GPa) = 0.01686656
#
# Stress axis : x y z
#
# Youngs Moduli (GPa) = 85.96513 41.22290 50.75457
#
# Poissons Ratio (x) = -0.01069 0.36726
# Poissons Ratio (y) = -0.02229 0.62869
# Poissons Ratio (z) = 0.62204 0.51063
#
# Static dielectric constant tensor:
#      x y z
#    x 1.559690 0.000000 0.000000 
#    y 0.000000 1.521470 0.000000 
#    z 0.000000 0.000000 1.527660 
# 
# From -- ./inp_files/27122.got.cif
#   From: 2010.05.17/outbox.cif.g08.bks.cpg/sg67_14_cif.got.tgz:27122.got - 2010.06.03 18:28:57.
