data_PCOD9500909
_publ_section_title
;
Structure prediction by ZEFSAII (Michael W. Deem and Ramdas Pophale) SiO2 
 PCOD9500909
Probable space group: C M M A
;
_chemical_formula_sum "Si O2"
_cell_formula_units_Z 96
_cell_length_a 14.920156
_cell_length_b 18.327644
_cell_length_c 17.150962
_cell_angle_alpha 90.000000
_cell_angle_beta 90.000000
_cell_angle_gamma 90.000000
_cell_volume 4689.952985
_symmetry_space_group_name_H-M "C M M A"
_symmetry_group_IT_number 67
_symmetry_cell_setting 'orthorhombic'
loop_
_space_group_symop_operation_xyz
x,y,z
-x,1/2-y,z
x,-y,-z
-x,1/2+y,-z
-x,-y,-z
x,1/2+y,-z
-x,y,z
x,1/2-y,z
1/2+x,1/2+y,z
1/2-x,-y,z
1/2+x,1/2-y,-z
1/2-x,y,-z
1/2-x,1/2-y,-z
1/2+x,y,-z
1/2-x,1/2+y,z
1/2+x,-y,z
loop_
_atom_site_type_symbol
_atom_site_label
_atom_site_fract_x
_atom_site_fract_y
_atom_site_fract_z
Si Si1 0.639904 0.335122 0.152870
Si Si2 0.397259 0.028495 0.251186
Si Si3 0.605539 0.171432 0.660299
Si Si4 0.859620 0.584587 0.995667
Si Si5 0.343422 0.615365 0.173101
Si Si6 0.390462 0.475870 0.584650
O O1 0.618362 0.250000 0.161089
O O2 0.603514 0.390830 0.217246
O O3 0.610979 0.367555 0.069110
O O4 0.746617 0.348408 0.160987
O O5 0.500000 0.000796 0.248974
O O6 0.342900 0.970257 0.198827
O O7 0.366167 0.025488 0.340762
O O8 0.500000 0.174607 0.642994
O O9 0.646960 0.250000 0.643552
O O10 0.614265 0.154010 0.752066
O O11 0.641785 0.104252 0.610367
O O12 0.888278 0.500000 0.000000
O O13 0.750000 0.583827 0.000000
O O14 0.887285 0.616647 0.912081
O O15 0.358758 0.500000 0.500000
O O16 0.500000 0.475458 0.581539
#
# Coordination Sequence:
#
# PCOD9500909 Si02
#       6
#    16  16  16  16  16  16
#     4  11  22  34  52  78 107 138 174 217 259 303
#     4  10  20  35  55  77 104 138 172 210 258 313
#     4   9  17  29  48  77 107 128 159 216 273 307
#     4   9  17  31  51  73  98 133 177 221 250 292
#     4  10  18  33  56  74  97 135 181 217 249 300
#     4   8  15  30  52  75  97 128 171 210 249 306
#
# _framework density 20.469289
#
# number of rings (size 3 to 8) (size 9 to 14) (size 15 to 20)
#    0.000    2.500    1.667    2.500    0.000    4.000 
#    0.000    3.333    0.000   11.000    0.000    5.833 
#    0.000    0.000    0.000    0.000    0.000    0.000 
#
# Total GULP energy -267710.054111 kJ/mol
# GULP energy per Si atom -5577.292794 kJ/mol
# Density = 2.042270 g / cm^3
# Si number density = 20.469289 Si / 1000 Ang^3
#
#
#
# Elastic Constant Matrix: (Units=GPa)
#
#
# Indices 1 2 3 4 5 6 
#
# 1 35.3158 6.0093 -0.9471 0.0000 0.0000 0.0000
# 2 6.0093 167.0446 95.2527 0.0000 0.0000 0.0000
# 3 -0.9471 95.2527 188.3295 0.0000 0.0000 0.0000
# 4 0.0000 0.0000 0.0000 17.3342 0.0000 0.0000
# 5 0.0000 0.0000 0.0000 0.0000 14.0968 0.0000
# 6 0.0000 0.0000 0.0000 0.0000 0.0000 3.7991
#
#
#
# Elastic Compliance Matrix: (Units=1/GPa)
#
#
# Indices 1 2 3 4 5 6 
#
# 1 0.028607 -0.001561 0.000934 0.000000 0.000000 0.000000
# 2 -0.001561 0.008498 -0.004306 0.000000 0.000000 0.000000
# 3 0.000934 -0.004306 0.007492 0.000000 0.000000 0.000000
# 4 0.000000 0.000000 0.000000 0.057689 0.000000 0.000000
# 5 0.000000 0.000000 0.000000 0.000000 0.070938 0.000000
# 6 0.000000 0.000000 0.000000 0.000000 0.000000 0.263220
#
#
# Mechanical properties :
#
#
# Convention : Reuss Voigt Hill
#
# Bulk Modulus (GPa) = 28.79399 65.70219 47.24809
# Shear Modulus (GPa) = 10.91970 26.40435 18.66203
#
# Velocity S-wave (km/s) = 2.31220 3.59548 3.02273
# Velocity P-wave (km/s) = 4.60715 7.02882 5.94265
#
# Compressibility (1/GPa) = 0.03472947
#
# Stress axis : x y z
#
# Youngs Moduli (GPa) = 34.95684 117.67581 133.46917
#
# Poissons Ratio (x) = 0.18375 -0.12461
# Poissons Ratio (y) = 0.05458 0.57471
# Poissons Ratio (z) = -0.03264 0.50670
#
# Static dielectric constant tensor:
#      x y z
#    x 1.819860 0.000000 0.000000 
#    y 0.000000 1.733880 0.000000 
#    z 0.000000 0.000000 1.713570 
# 
# From -- ./inp_files/34251.got.cif
#   From: 2010.05.17/outbox.cif.g08.bks.cpg/sg67_18_cif.got.tgz:34251.got - 2010.06.03 18:28:57.
