data_PCOD9500955
_publ_section_title
;
Structure prediction by ZEFSAII (Michael W. Deem and Ramdas Pophale) SiO2 
 PCOD9500955
Probable space group: C M M A
;
_chemical_formula_sum "Si O2"
_cell_formula_units_Z 96
_cell_length_a 15.624353
_cell_length_b 21.848443
_cell_length_c 13.876997
_cell_angle_alpha 90.000000
_cell_angle_beta 90.000000
_cell_angle_gamma 90.000000
_cell_volume 4737.159741
_symmetry_space_group_name_H-M "C M M A"
_symmetry_group_IT_number 67
_symmetry_cell_setting 'orthorhombic'
loop_
_space_group_symop_operation_xyz
x,y,z
-x,1/2-y,z
x,-y,-z
-x,1/2+y,-z
-x,-y,-z
x,1/2+y,-z
-x,y,z
x,1/2-y,z
1/2+x,1/2+y,z
1/2-x,-y,z
1/2+x,1/2-y,-z
1/2-x,y,-z
1/2-x,1/2-y,-z
1/2+x,y,-z
1/2-x,1/2+y,z
1/2+x,-y,z
loop_
_atom_site_type_symbol
_atom_site_label
_atom_site_fract_x
_atom_site_fract_y
_atom_site_fract_z
Si Si1 0.826655 0.134183 0.292868
Si Si2 0.265025 0.071963 0.111872
Si Si3 0.851369 0.566860 0.524480
Si Si4 0.353357 0.177774 0.384615
Si Si5 0.773556 0.250000 0.891143
Si Si6 0.594595 0.648284 0.825178
Si Si7 0.593426 0.250000 0.778816
O O1 0.794837 0.106384 0.190840
O O2 0.859596 0.081355 0.363043
O O3 0.744479 0.164185 0.348672
O O4 0.895574 0.187458 0.280096
O O5 0.362185 0.084414 0.147142
O O6 0.250000 0.000000 0.116633
O O7 0.250000 0.091397 0.000000
O O8 0.888533 0.500000 0.500000
O O9 0.750000 0.562913 0.500000
O O10 0.878665 0.627494 0.464565
O O11 0.360975 0.250000 0.410468
O O12 0.405748 0.162561 0.288108
O O13 0.834556 0.306133 0.866568
O O14 0.750000 0.250000 0.000000
O O15 0.817114 0.250000 0.162557
O O16 0.500000 0.656613 0.864817
O O17 0.500000 0.250000 0.827743
#
# Coordination Sequence:
#
# PCOD9500955 Si02
#       7
#    16  16  16  16   8  16   8
#     4  10  20  37  59  88 129 166 218 269 326 389
#     4  10  22  41  66  91 131 178 218 271 331 390
#     4   9  20  32  59  94 122 168 223 270 329 395
#     4  10  18  34  60  90 128 165 214 275 332 389
#     4  12  23  43  65  94 133 168 207 271 332 396
#     4  11  22  39  67  99 130 167 218 274 334 393
#     4  12  24  41  62  93 129 171 212 256 327 409
#
# _framework density 20.265307
#
# number of rings (size 3 to 8) (size 9 to 14) (size 15 to 20)
#    0.000    1.667    5.000    0.750    8.167    1.667 
#    0.000    3.333    0.000    1.000    0.000    0.000 
#    0.000    0.000    0.000    0.000    0.000    0.000 
#
# Total GULP energy -267530.201289 kJ/mol
# GULP energy per Si atom -5573.545860 kJ/mol
# Density = 2.021918 g / cm^3
# Si number density = 20.265307 Si / 1000 Ang^3
#
#
#
# Elastic Constant Matrix: (Units=GPa)
#
#
# Indices 1 2 3 4 5 6 
#
# 1 114.7567 35.6899 23.1899 0.0000 0.0000 0.0000
# 2 35.6899 152.1721 69.8235 0.0000 0.0000 0.0000
# 3 23.1899 69.8235 128.3101 0.0000 0.0000 0.0000
# 4 0.0000 0.0000 0.0000 24.6137 0.0000 0.0000
# 5 0.0000 0.0000 0.0000 0.0000 -2.3161 0.0000
# 6 0.0000 0.0000 0.0000 0.0000 0.0000 -8.6660
#
#
#
# Elastic Compliance Matrix: (Units=1/GPa)
#
#
# Indices 1 2 3 4 5 6 
#
# 1 0.009443 -0.001908 -0.000668 0.000000 0.000000 0.000000
# 2 -0.001908 0.009144 -0.004631 0.000000 0.000000 0.000000
# 3 -0.000668 -0.004631 0.010435 0.000000 0.000000 0.000000
# 4 0.000000 0.000000 0.000000 0.040628 0.000000 0.000000
# 5 0.000000 0.000000 0.000000 0.000000 -0.431760 0.000000
# 6 0.000000 0.000000 0.000000 0.000000 0.000000 -0.115393
#
#
# Mechanical properties :
#
#
# Convention : Reuss Voigt Hill
#
# Bulk Modulus (GPa) = 68.46370 72.51616 70.48993
# Shear Modulus (GPa) = -10.91177 20.49535 4.79179
#
# Velocity S-wave (km/s) = -2.32296 3.18363 1.53937
# Velocity P-wave (km/s) = 5.16354 7.02674 6.16592
#
# Compressibility (1/GPa) = 0.01460628
#
# Stress axis : x y z
#
# Youngs Moduli (GPa) = 105.90387 109.36182 95.83544
#
# Poissons Ratio (x) = 0.20866 0.06405
# Poissons Ratio (y) = 0.20206 0.44382
# Poissons Ratio (z) = 0.07078 0.50647
#
# Static dielectric constant tensor:
#      x y z
#    x 1.701630 0.000000 0.000000 
#    y 0.000000 1.786030 0.000000 
#    z 0.000000 0.000000 1.529020 
# 
# From -- ./inp_files/27258.got.cif
#   From: 2010.05.17/outbox.cif.g08.bks.cpg/sg67_14_cif.got.tgz:27258.got - 2010.06.03 18:28:57.
