data_PCOD9500551
_publ_section_title
;
Structure prediction by ZEFSAII (Michael W. Deem and Ramdas Pophale) SiO2 
 PCOD9500551
Probable space group: C M M A
;
_chemical_formula_sum "Si O2"
_cell_formula_units_Z 128
_cell_length_a 21.416211
_cell_length_b 13.706109
_cell_length_c 18.443682
_cell_angle_alpha 90.000000
_cell_angle_beta 90.000000
_cell_angle_gamma 90.000000
_cell_volume 5413.827876
_symmetry_space_group_name_H-M "C M M A"
_symmetry_group_IT_number 67
_symmetry_cell_setting 'orthorhombic'
loop_
_space_group_symop_operation_xyz
x,y,z
-x,1/2-y,z
x,-y,-z
-x,1/2+y,-z
-x,-y,-z
x,1/2+y,-z
-x,y,z
x,1/2-y,z
1/2+x,1/2+y,z
1/2-x,-y,z
1/2+x,1/2-y,-z
1/2-x,y,-z
1/2-x,1/2-y,-z
1/2+x,y,-z
1/2-x,1/2+y,z
1/2+x,-y,z
loop_
_atom_site_type_symbol
_atom_site_label
_atom_site_fract_x
_atom_site_fract_y
_atom_site_fract_z
Si Si1 0.072331 0.631330 0.070154
Si Si2 0.138640 0.630177 0.221489
Si Si3 0.815650 0.867968 0.962658
Si Si4 0.642238 0.142953 0.670081
Si Si5 0.571189 0.636413 0.465902
Si Si6 0.714945 0.630193 0.198699
Si Si7 0.760502 0.884532 0.417769
Si Si8 0.598625 0.360440 0.375449
O O1 0.070328 0.750000 0.069757
O O2 0.102407 0.603377 0.147829
O O3 0.000000 0.597985 0.061482
O O4 0.122770 0.603834 0.007971
O O5 0.139514 0.750000 0.225287
O O6 0.212885 0.602516 0.216749
O O7 0.099850 0.598368 0.293720
O O8 0.817622 0.750000 0.960508
O O9 0.807239 0.901840 0.880444
O O10 0.750000 0.893298 0.000000
O O11 0.612386 0.250000 0.682265
O O12 0.607939 0.092657 0.602455
O O13 0.660946 0.096005 0.745726
O O14 0.710546 0.155611 0.636635
O O15 0.500000 0.638233 0.444077
O O16 0.594222 0.750000 0.472071
O O17 0.573947 0.596244 0.547949
O O18 0.714112 0.750000 0.201051
O O19 0.750000 0.853744 0.500000
O O20 0.828169 0.857175 0.392300
O O21 0.750000 0.000000 0.416380
O O22 0.572334 0.250000 0.371582
#
# Coordination Sequence:
#
# PCOD9500551 Si02
#       8
#    16  16  16  16  16  16  16  16
#     4   9  16  24  34  54  89 127 152 179 231 284
#     4   9  15  23  38  61  84 110 150 190 219 266
#     4   9  14  22  36  53  79 114 147 181 220 268
#     4  10  18  30  49  67  89 120 155 191 228 276
#     4   9  18  30  44  64  88 117 153 192 231 268
#     4   9  15  23  39  63  82 105 151 192 217 257
#     4  11  21  30  44  69  97 117 146 194 239 276
#     4  10  18  29  48  68  90 121 158 190 225 283
#
# _framework density 23.643159000000001
#
# number of rings (size 3 to 8) (size 9 to 14) (size 15 to 20)
#    0.000    2.500    3.750    0.375    0.000    1.000 
#    0.000    3.125    0.000    5.250    0.000    0.000 
#    0.000    4.500    0.000    1.125    0.000    1.250 
#
# Total GULP energy -357184.287944 kJ/mol
# GULP energy per Si atom -5581.004499 kJ/mol
# Density = 2.358935 g / cm^3
# Si number density = 23.643159 Si / 1000 Ang^3
#
#
#
# Elastic Constant Matrix: (Units=GPa)
#
#
# Indices 1 2 3 4 5 6 
#
# 1 137.9613 7.4201 71.8901 0.0000 0.0000 0.0000
# 2 7.4201 86.8164 19.3723 0.0000 0.0000 0.0000
# 3 71.8901 19.3723 228.5783 0.0000 0.0000 0.0000
# 4 0.0000 0.0000 0.0000 5.5452 0.0000 0.0000
# 5 0.0000 0.0000 0.0000 0.0000 -4.5351 0.0000
# 6 0.0000 0.0000 0.0000 0.0000 0.0000 -15.6438
#
#
#
# Elastic Compliance Matrix: (Units=1/GPa)
#
#
# Indices 1 2 3 4 5 6 
#
# 1 0.008671 -0.000135 -0.002716 0.000000 0.000000 0.000000
# 2 -0.000135 0.011743 -0.000953 0.000000 0.000000 0.000000
# 3 -0.002716 -0.000953 0.005310 0.000000 0.000000 0.000000
# 4 0.000000 0.000000 0.000000 0.180335 0.000000 0.000000
# 5 0.000000 0.000000 0.000000 0.000000 -0.220504 0.000000
# 6 0.000000 0.000000 0.000000 0.000000 0.000000 -0.063923
#
#
# Mechanical properties :
#
#
# Convention : Reuss Voigt Hill
#
# Bulk Modulus (GPa) = 55.19890 72.30230 63.75060
# Shear Modulus (GPa) = -77.25191 20.71817 -28.26687
#
# Velocity S-wave (km/s) = -5.72233 2.96342 -3.46144
# Velocity P-wave (km/s) = 4.50141 6.50816 3.32367
#
# Compressibility (1/GPa) = 0.01811630
#
# Stress axis : x y z
#
# Youngs Moduli (GPa) = 115.33048 85.15930 188.33502
#
# Poissons Ratio (x) = 0.01151 0.51144
# Poissons Ratio (y) = 0.01558 0.17943
# Poissons Ratio (z) = 0.31319 0.08113
#
# Static dielectric constant tensor:
#      x y z
#    x 1.803830 0.000000 0.000000 
#    y 0.000000 1.943790 0.000000 
#    z 0.000000 0.000000 1.975650 
# 
# From -- ./inp_files/35224.got.cif
#   From: 2010.05.17/outbox.cif.g08.bks.cpg/sg67_18_cif.got.tgz:35224.got - 2010.06.03 18:28:57.
