data_PCOD9500259
_publ_section_title
;
Structure prediction by ZEFSAII (Michael W. Deem and Ramdas Pophale) SiO2 
 PCOD9500259
Probable space group: C M M A
;
_chemical_formula_sum "Si O2"
_cell_formula_units_Z 104
_cell_length_a 26.414873
_cell_length_b 8.597493
_cell_length_c 28.514079
_cell_angle_alpha 90.000000
_cell_angle_beta 90.000000
_cell_angle_gamma 90.000000
_cell_volume 6475.595407
_symmetry_space_group_name_H-M "C M M A"
_symmetry_group_IT_number 67
_symmetry_cell_setting 'orthorhombic'
loop_
_space_group_symop_operation_xyz
x,y,z
-x,1/2-y,z
x,-y,-z
-x,1/2+y,-z
-x,-y,-z
x,1/2+y,-z
-x,y,z
x,1/2-y,z
1/2+x,1/2+y,z
1/2-x,-y,z
1/2+x,1/2-y,-z
1/2-x,y,-z
1/2-x,1/2-y,-z
1/2+x,y,-z
1/2-x,1/2+y,z
1/2+x,-y,z
loop_
_atom_site_type_symbol
_atom_site_label
_atom_site_fract_x
_atom_site_fract_y
_atom_site_fract_z
Si Si1 0.694928 0.562529 0.347798
Si Si2 0.000000 0.935299 0.552529
Si Si3 0.192134 0.435774 0.951521
Si Si4 0.157583 0.067298 0.246356
Si Si5 0.942804 0.068149 0.721760
Si Si6 0.692956 0.437748 0.854833
Si Si7 0.090981 0.067450 0.614659
O O1 0.695137 0.750000 0.347874
O O2 0.750000 0.500000 0.362464
O O3 0.684349 0.504840 0.293866
O O4 0.647027 0.505857 0.378804
O O5 0.000000 0.750000 0.552320
O O6 0.000000 0.000000 0.500000
O O7 0.949006 0.992917 0.578915
O O8 0.193544 0.250000 0.952248
O O9 0.250000 0.500000 0.951273
O O10 0.168719 0.496159 0.902694
O O11 0.169034 0.500000 0.000000
O O12 0.169255 0.250000 0.245588
O O13 0.171767 0.005824 0.195198
O O14 0.098583 0.037630 0.254074
O O15 0.933551 0.250000 0.733121
O O16 0.934552 0.052697 0.666000
O O17 0.000000 0.028311 0.733883
O O18 0.691921 0.250000 0.857037
O O19 0.750000 0.500000 0.854782
O O20 0.096438 0.250000 0.603885
#
# Coordination Sequence:
#
# PCOD9500259 Si02
#       7
#    16   8  16  16  16  16  16
#     4  10  19  32  49  74 103 137 176 209 245 290
#     4  12  24  38  58  84 110 136 166 208 253 300
#     4  10  17  26  39  55  75 104 143 184 229 275
#     4   9  19  30  42  64  93 125 161 197 235 281
#     4   9  17  30  48  69  94 124 157 193 235 282
#     4  10  18  28  40  57  84 116 151 189 229 272
#     4  10  19  35  55  77 105 135 168 208 251 294
#
# _framework density 16.060299000000001
#
# number of rings (size 3 to 8) (size 9 to 14) (size 15 to 20)
#    0.000    2.154    0.769    5.308    0.000    2.769 
#    0.000    0.000    0.000    0.462    0.000    3.231 
#    0.000    0.615    0.000    2.000    0.000    3.231 
#
# Total GULP energy -289671.909619 kJ/mol
# GULP energy per Si atom -5570.613647 kJ/mol
# Density = 1.602375 g / cm^3
# Si number density = 16.060299 Si / 1000 Ang^3
#
#
#
# Elastic Constant Matrix: (Units=GPa)
#
#
# Indices 1 2 3 4 5 6 
#
# 1 79.8624 30.6582 44.3536 0.0000 0.0000 0.0000
# 2 30.6582 83.8765 45.7459 0.0000 0.0000 0.0000
# 3 44.3536 45.7459 107.6494 0.0000 0.0000 0.0000
# 4 0.0000 0.0000 0.0000 22.4685 0.0000 0.0000
# 5 0.0000 0.0000 0.0000 0.0000 14.3255 0.0000
# 6 0.0000 0.0000 0.0000 0.0000 0.0000 24.2020
#
#
#
# Elastic Compliance Matrix: (Units=1/GPa)
#
#
# Indices 1 2 3 4 5 6 
#
# 1 0.016828 -0.003084 -0.005623 0.000000 0.000000 0.000000
# 2 -0.003084 0.016084 -0.005564 0.000000 0.000000 0.000000
# 3 -0.005623 -0.005564 0.013971 0.000000 0.000000 0.000000
# 4 0.000000 0.000000 0.000000 0.044507 0.000000 0.000000
# 5 0.000000 0.000000 0.000000 0.000000 0.069806 0.000000
# 6 0.000000 0.000000 0.000000 0.000000 0.000000 0.041319
#
#
# Mechanical properties :
#
#
# Convention : Reuss Voigt Hill
#
# Bulk Modulus (GPa) = 54.52437 56.98929 55.75683
# Shear Modulus (GPa) = 21.08179 22.24124 21.66152
#
# Velocity S-wave (km/s) = 3.62700 3.72541 3.67653
# Velocity P-wave (km/s) = 7.18079 7.35299 7.26740
#
# Compressibility (1/GPa) = 0.01834042
#
# Stress axis : x y z
#
# Youngs Moduli (GPa) = 59.42329 62.17203 71.57816
#
# Poissons Ratio (x) = 0.19176 0.40248
# Poissons Ratio (y) = 0.18328 0.39828
# Poissons Ratio (z) = 0.33413 0.34594
#
# Static dielectric constant tensor:
#      x y z
#    x 1.521870 0.000000 0.000000 
#    y 0.000000 1.565320 0.000000 
#    z 0.000000 0.000000 1.582570 
# 
# From -- ./inp_files/44838.got.cif
#   From: 2010.05.17/outbox.cif.g08.bks.cpg/sg67_23_cif.got.tgz:44838.got - 2010.06.03 18:28:57.
