data_PCOD9500675
_publ_section_title
;
Structure prediction by ZEFSAII (Michael W. Deem and Ramdas Pophale) SiO2 
 PCOD9500675
Probable space group: C M M A
;
_chemical_formula_sum "Si O2"
_cell_formula_units_Z 96
_cell_length_a 14.470719
_cell_length_b 21.384012
_cell_length_c 14.742842
_cell_angle_alpha 90.000000
_cell_angle_beta 90.000000
_cell_angle_gamma 90.000000
_cell_volume 4562.054938
_symmetry_space_group_name_H-M "C M M A"
_symmetry_group_IT_number 67
_symmetry_cell_setting 'orthorhombic'
loop_
_space_group_symop_operation_xyz
x,y,z
-x,1/2-y,z
x,-y,-z
-x,1/2+y,-z
-x,-y,-z
x,1/2+y,-z
-x,y,z
x,1/2-y,z
1/2+x,1/2+y,z
1/2-x,-y,z
1/2+x,1/2-y,-z
1/2-x,y,-z
1/2-x,1/2-y,-z
1/2+x,y,-z
1/2-x,1/2+y,z
1/2+x,-y,z
loop_
_atom_site_type_symbol
_atom_site_label
_atom_site_fract_x
_atom_site_fract_y
_atom_site_fract_z
Si Si1 0.108256 0.181048 0.439978
Si Si2 0.112735 0.561533 0.057056
Si Si3 0.387115 0.679410 0.061321
Si Si4 0.612287 0.523082 0.745551
Si Si5 0.650375 0.561429 0.546127
Si Si6 0.112933 0.622883 0.747016
O O1 0.145151 0.250000 0.462291
O O2 0.112936 0.128598 0.517019
O O3 0.148351 0.153815 0.345874
O O4 0.000000 0.187944 0.421199
O O5 0.142497 0.555300 0.161129
O O6 0.000000 0.560744 0.057247
O O7 0.140560 0.500000 0.000000
O O8 0.141741 0.625231 0.008142
O O9 0.500000 0.679198 0.061181
O O10 0.357682 0.750000 0.039886
O O11 0.358101 0.659143 0.162585
O O12 0.500000 0.526584 0.740141
O O13 0.650309 0.551560 0.653004
O O14 0.637863 0.450002 0.750495
O O15 0.603418 0.500000 0.500000
O O16 0.750000 0.562280 0.500000
O O17 0.000000 0.623927 0.746490
#
# Coordination Sequence:
#
# PCOD9500675 Si02
#       6
#    16  16  16  16  16  16
#     4  10  20  34  54  80 106 133 174 229 284 333
#     4   9  15  25  42  69 103 137 171 209 261 320
#     4   9  15  23  38  66 106 142 168 203 256 314
#     4  10  18  30  52  78 105 139 183 228 269 319
#     4  11  23  37  53  75 104 144 184 228 272 325
#     4   9  15  25  45  74 105 134 167 216 266 311
#
# _framework density 21.043150000000001
#
# number of rings (size 3 to 8) (size 9 to 14) (size 15 to 20)
#    0.000    2.333    3.333    1.000    0.000    3.000 
#    0.000    0.833    0.000    3.000    0.000    8.167 
#    0.000    2.667    0.000    0.000    0.000    0.167 
#
# Total GULP energy -268053.790766 kJ/mol
# GULP energy per Si atom -5584.453974 kJ/mol
# Density = 2.099525 g / cm^3
# Si number density = 21.043150 Si / 1000 Ang^3
#
#
#
# Elastic Constant Matrix: (Units=GPa)
#
#
# Indices 1 2 3 4 5 6 
#
# 1 49.8638 9.2435 17.6817 0.0000 0.0000 0.0000
# 2 9.2435 216.5587 113.9580 0.0000 0.0000 0.0000
# 3 17.6817 113.9580 192.6601 0.0000 0.0000 0.0000
# 4 0.0000 0.0000 0.0000 18.9748 0.0000 0.0000
# 5 0.0000 0.0000 0.0000 0.0000 8.3359 0.0000
# 6 0.0000 0.0000 0.0000 0.0000 0.0000 3.4120
#
#
#
# Elastic Compliance Matrix: (Units=1/GPa)
#
#
# Indices 1 2 3 4 5 6 
#
# 1 0.020733 0.000169 -0.002003 0.000000 0.000000 0.000000
# 2 0.000169 0.006706 -0.003982 0.000000 0.000000 0.000000
# 3 -0.002003 -0.003982 0.007730 0.000000 0.000000 0.000000
# 4 0.000000 0.000000 0.000000 0.052701 0.000000 0.000000
# 5 0.000000 0.000000 0.000000 0.000000 0.119962 0.000000
# 6 0.000000 0.000000 0.000000 0.000000 0.000000 0.293083
#
#
# Mechanical properties :
#
#
# Convention : Reuss Voigt Hill
#
# Bulk Modulus (GPa) = 42.48574 82.31654 62.40114
# Shear Modulus (GPa) = 9.60811 27.35784 18.48297
#
# Velocity S-wave (km/s) = 2.13912 3.60958 2.96689
# Velocity P-wave (km/s) = 5.13174 7.52163 6.43854
#
# Compressibility (1/GPa) = 0.02353731
#
# Stress axis : x y z
#
# Youngs Moduli (GPa) = 48.23113 149.12219 129.37182
#
# Poissons Ratio (x) = -0.02519 0.25910
# Poissons Ratio (y) = -0.00815 0.51516
# Poissons Ratio (z) = 0.09660 0.59381
#
# Static dielectric constant tensor:
#      x y z
#    x 2.555230 0.000000 0.000000 
#    y 0.000000 1.790900 0.000000 
#    z 0.000000 0.000000 1.724410 
# 
# From -- ./inp_files/20867.got.cif
#   From: 2010.05.17/outbox.cif.g08.bks.cpg/sg67_11_cif.got.tgz:20867.got - 2010.06.03 18:28:57.
