data_PCOD9500523
_publ_section_title
;
Structure prediction by ZEFSAII (Michael W. Deem and Ramdas Pophale) SiO2 
 PCOD9500523
Probable space group: C M M A
;
_chemical_formula_sum "Si O2"
_cell_formula_units_Z 96
_cell_length_a 22.043423
_cell_length_b 22.474119
_cell_length_c 11.382349
_cell_angle_alpha 90.000000
_cell_angle_beta 90.000000
_cell_angle_gamma 90.000000
_cell_volume 5638.889813
_symmetry_space_group_name_H-M "C M M A"
_symmetry_group_IT_number 67
_symmetry_cell_setting 'orthorhombic'
loop_
_space_group_symop_operation_xyz
x,y,z
-x,1/2-y,z
x,-y,-z
-x,1/2+y,-z
-x,-y,-z
x,1/2+y,-z
-x,y,z
x,1/2-y,z
1/2+x,1/2+y,z
1/2-x,-y,z
1/2+x,1/2-y,-z
1/2-x,y,-z
1/2-x,1/2-y,-z
1/2+x,y,-z
1/2-x,1/2+y,z
1/2+x,-y,z
loop_
_atom_site_type_symbol
_atom_site_label
_atom_site_fract_x
_atom_site_fract_y
_atom_site_fract_z
Si Si1 0.427569 0.479225 0.783871
Si Si2 0.734957 0.068212 0.181342
Si Si3 0.570971 0.320750 0.102932
Si Si4 0.429854 0.430606 0.539419
Si Si5 0.875384 0.394599 0.691953
Si Si6 0.151562 0.090871 0.042353
O O1 0.500000 0.481769 0.796268
O O2 0.412779 0.434087 0.676014
O O3 0.404158 0.544075 0.745012
O O4 0.394968 0.454747 0.898574
O O5 0.695939 0.100109 0.281202
O O6 0.795887 0.100932 0.139346
O O7 0.750000 0.000000 0.212991
O O8 0.690009 0.066660 0.068466
O O9 0.500000 0.337467 0.089447
O O10 0.576187 0.250000 0.092723
O O11 0.594702 0.343102 0.229945
O O12 0.612866 0.354254 0.007574
O O13 0.427312 0.500000 0.500000
O O14 0.500000 0.411865 0.529146
O O15 0.391096 0.394420 0.445288
#
# Coordination Sequence:
#
# PCOD9500523 Si02
#       6
#    16  16  16  16  16  16
#     4  10  18  28  49  76  99 127 162 200 254 315
#     4  10  19  31  46  69 101 133 157 205 245 289
#     4  10  21  34  49  72  99 128 167 215 254 291
#     4   8  15  28  45  70 100 125 153 198 246 294
#     4  10  18  31  50  69  97 133 163 197 255 298
#     4  10  19  31  48  67  97 132 161 196 252 292
#
# _framework density 17.024628
#
# number of rings (size 3 to 8) (size 9 to 14) (size 15 to 20)
#    0.000    2.333    1.667    4.000    2.333    0.000 
#    0.000   10.000    0.000    1.000    0.000    4.667 
#    0.000   13.333    0.000    0.000    0.000    0.000 
#
# Total GULP energy -267507.046874 kJ/mol
# GULP energy per Si atom -5573.063477 kJ/mol
# Density = 1.698588 g / cm^3
# Si number density = 17.024628 Si / 1000 Ang^3
#
#
#
# Elastic Constant Matrix: (Units=GPa)
#
#
# Indices 1 2 3 4 5 6 
#
# 1 96.7460 27.0822 32.9750 0.0000 0.0000 0.0000
# 2 27.0822 44.6577 14.7628 0.0000 0.0000 0.0000
# 3 32.9750 14.7628 58.3277 0.0000 0.0000 0.0000
# 4 0.0000 0.0000 0.0000 15.0539 0.0000 0.0000
# 5 0.0000 0.0000 0.0000 0.0000 21.7564 0.0000
# 6 0.0000 0.0000 0.0000 0.0000 0.0000 19.9391
#
#
#
# Elastic Compliance Matrix: (Units=1/GPa)
#
#
# Indices 1 2 3 4 5 6 
#
# 1 0.014383 -0.006586 -0.006465 0.000000 0.000000 0.000000
# 2 -0.006586 0.027452 -0.003225 0.000000 0.000000 0.000000
# 3 -0.006465 -0.003225 0.021616 0.000000 0.000000 0.000000
# 4 0.000000 0.000000 0.000000 0.066428 0.000000 0.000000
# 5 0.000000 0.000000 0.000000 0.000000 0.045963 0.000000
# 6 0.000000 0.000000 0.000000 0.000000 0.000000 0.050153
#
#
# Mechanical properties :
#
#
# Convention : Reuss Voigt Hill
#
# Bulk Modulus (GPa) = 32.36191 38.81906 35.59048
# Shear Modulus (GPa) = 18.59798 19.67730 19.13764
#
# Velocity S-wave (km/s) = 3.30876 3.40341 3.35642
# Velocity P-wave (km/s) = 5.80063 6.18834 5.99762
#
# Compressibility (1/GPa) = 0.03090053
#
# Stress axis : x y z
#
# Youngs Moduli (GPa) = 69.52530 36.42666 46.26302
#
# Poissons Ratio (x) = 0.23989 0.29907
# Poissons Ratio (y) = 0.45786 0.14921
# Poissons Ratio (z) = 0.44946 0.11748
#
# Static dielectric constant tensor:
#      x y z
#    x 1.608480 0.000000 0.000000 
#    y 0.000000 1.550630 0.000000 
#    z 0.000000 0.000000 1.628870 
# 
# From -- ./inp_files/20871.got.cif
#   From: 2010.05.17/outbox.cif.g08.bks.cpg/sg67_11_cif.got.tgz:20871.got - 2010.06.03 18:28:57.
