data_PCOD9500203
_publ_section_title
;
Structure prediction by ZEFSAII (Michael W. Deem and Ramdas Pophale) SiO2 
 PCOD9500203
Probable space group: C M M A
;
_chemical_formula_sum "Si O2"
_cell_formula_units_Z 56
_cell_length_a 38.166388
_cell_length_b 8.634782
_cell_length_c 9.367557
_cell_angle_alpha 90.000000
_cell_angle_beta 90.000000
_cell_angle_gamma 90.000000
_cell_volume 3087.157473
_symmetry_space_group_name_H-M "C M M A"
_symmetry_group_IT_number 67
_symmetry_cell_setting 'orthorhombic'
loop_
_space_group_symop_operation_xyz
x,y,z
-x,1/2-y,z
x,-y,-z
-x,1/2+y,-z
-x,-y,-z
x,1/2+y,-z
-x,y,z
x,1/2-y,z
1/2+x,1/2+y,z
1/2-x,-y,z
1/2+x,1/2-y,-z
1/2-x,y,-z
1/2-x,1/2-y,-z
1/2+x,y,-z
1/2-x,1/2+y,z
1/2+x,-y,z
loop_
_atom_site_type_symbol
_atom_site_label
_atom_site_fract_x
_atom_site_fract_y
_atom_site_fract_z
Si Si1 0.927863 0.935071 0.662721
Si Si2 0.786727 0.564668 0.159910
Si Si3 0.644798 0.436030 0.339522
Si Si4 0.500000 0.564855 0.663075
O O1 0.929233 0.750000 0.659315
O O2 0.927085 0.000000 0.500000
O O3 0.891056 0.993828 0.725016
O O4 0.963717 0.002129 0.728408
O O5 0.784545 0.750000 0.154248
O O6 0.750000 0.500000 0.219186
O O7 0.820702 0.521218 0.251179
O O8 0.790340 0.500000 0.000000
O O9 0.648521 0.500000 0.500000
O O10 0.641495 0.250000 0.344404
O O11 0.500000 0.750000 0.658906
O O12 0.500000 0.500000 0.500000
#
# Coordination Sequence:
#
# PCOD9500203 Si02
#       4
#    16  16  16   8
#     4  10  17  26  41  63  92 126 161 199 240 286
#     4  10  21  36  55  75  98 127 164 203 244 292
#     4  10  20  33  49  73 101 131 163 201 246 293
#     4  10  16  24  38  58  89 126 161 198 237 284
#
# _framework density 18.139664
#
# number of rings (size 3 to 8) (size 9 to 14) (size 15 to 20)
#    0.000    2.000    0.000    9.857    0.000    5.143 
#    0.000    2.857    0.000    0.000    0.000    1.000 
#    0.000    0.000    0.000    0.000    0.000    0.000 
#
# Total GULP energy -156162.665396 kJ/mol
# GULP energy per Si atom -5577.238050 kJ/mol
# Density = 1.809838 g / cm^3
# Si number density = 18.139664 Si / 1000 Ang^3
#
#
#
# Elastic Constant Matrix: (Units=GPa)
#
#
# Indices 1 2 3 4 5 6 
#
# 1 239.4251 83.9617 47.5947 0.0000 0.0000 0.0000
# 2 83.9617 125.3192 17.7680 0.0000 0.0000 0.0000
# 3 47.5947 17.7680 19.3498 0.0000 0.0000 0.0000
# 4 0.0000 0.0000 0.0000 13.1971 0.0000 0.0000
# 5 0.0000 0.0000 0.0000 0.0000 13.5977 0.0000
# 6 0.0000 0.0000 0.0000 0.0000 0.0000 39.8590
#
#
#
# Elastic Compliance Matrix: (Units=1/GPa)
#
#
# Indices 1 2 3 4 5 6 
#
# 1 0.009303 -0.003436 -0.019728 0.000000 0.000000 0.000000
# 2 -0.003436 0.010443 -0.001138 0.000000 0.000000 0.000000
# 3 -0.019728 -0.001138 0.101251 0.000000 0.000000 0.000000
# 4 0.000000 0.000000 0.000000 0.075774 0.000000 0.000000
# 5 0.000000 0.000000 0.000000 0.000000 0.073542 0.000000
# 6 0.000000 0.000000 0.000000 0.000000 0.000000 0.025088
#
#
# Mechanical properties :
#
#
# Convention : Reuss Voigt Hill
#
# Bulk Modulus (GPa) = 13.81352 75.86031 44.83691
# Shear Modulus (GPa) = 13.58189 28.98206 21.28198
#
# Velocity S-wave (km/s) = 2.73928 4.00148 3.42896
# Velocity P-wave (km/s) = 4.19958 7.95362 6.35990
#
# Compressibility (1/GPa) = 0.07239285
#
# Stress axis : x y z
#
# Youngs Moduli (GPa) = 107.48829 95.75810 9.87645
#
# Poissons Ratio (x) = 0.32902 0.19485
# Poissons Ratio (y) = 0.36932 0.01124
# Poissons Ratio (z) = 2.12057 0.10897
#
# Static dielectric constant tensor:
#      x y z
#    x 1.703920 0.000000 0.000000 
#    y 0.000000 1.605130 0.000000 
#    z 0.000000 0.000000 1.592650 
# 
# From -- ./inp_files/23343.got.cif
#   From: 2010.05.17/outbox.cif.g08.bks.cpg/sg67_12_cif.got.tgz:23343.got - 2010.06.03 18:28:57.
