data_PCOD9500024
_publ_section_title
;
Structure prediction by ZEFSAII (Michael W. Deem and Ramdas Pophale) SiO2 
 PCOD9500024
Probable space group: C C C M
;
_chemical_formula_sum "Si O2"
_cell_formula_units_Z 112
_cell_length_a 27.041787
_cell_length_b 14.114666
_cell_length_c 11.395709
_cell_angle_alpha 90.000000
_cell_angle_beta 90.000000
_cell_angle_gamma 90.000000
_cell_volume 4349.580210
_symmetry_space_group_name_H-M "C C C M"
_symmetry_group_IT_number 66
_symmetry_cell_setting 'orthorhombic'
loop_
_space_group_symop_operation_xyz
x,y,z
-x,-y,z
x,-y,1/2-z
-x,y,1/2-z
-x,-y,-z
x,y,-z
-x,y,1/2+z
x,-y,1/2+z
1/2+x,1/2+y,z
1/2-x,1/2-y,z
1/2+x,1/2-y,1/2-z
1/2-x,1/2+y,1/2-z
1/2-x,1/2-y,-z
1/2+x,1/2+y,-z
1/2-x,1/2+y,1/2+z
1/2+x,1/2-y,1/2+z
loop_
_atom_site_type_symbol
_atom_site_label
_atom_site_fract_x
_atom_site_fract_y
_atom_site_fract_z
Si Si1 0.916647 0.347377 0.629125
Si Si2 0.380129 0.513969 0.873741
Si Si3 0.015429 0.180056 0.128541
Si Si4 0.561911 0.145292 0.874405
Si Si5 0.231519 0.952505 0.372032
Si Si6 0.308404 0.787919 0.370854
Si Si7 0.840527 0.772758 0.624937
O O1 0.933972 0.376890 0.500000
O O2 0.939766 0.396044 0.743198
O O3 0.857634 0.354217 0.632100
O O4 0.931647 0.234477 0.637963
O O5 0.406971 0.500000 0.750000
O O6 0.328298 0.455835 0.867741
O O7 0.365022 0.623824 0.876025
O O8 0.403549 0.491644 0.000000
O O9 0.977997 0.270103 0.124805
O O10 0.000000 0.130593 0.250000
O O11 0.010326 0.134297 0.000000
O O12 0.615524 0.196148 0.875076
O O13 0.557123 0.093815 0.000000
O O14 0.243588 0.998780 0.500000
O O15 0.260224 0.853552 0.374462
O O16 0.247826 0.000000 0.250000
O O17 0.314042 0.740466 0.500000
O O18 0.311404 0.737303 0.245353
O O19 0.813192 0.762666 0.500000
#
# Coordination Sequence:
#
# PCOD9500024 Si02
#       7
#    16  16  16  16  16  16  16
#     4   8  13  21  34  55  84 113 138 167 208 257
#     4   9  18  33  50  66  87 118 155 191 229 273
#     4   8  12  18  30  50  80 114 138 160 200 254
#     4   8  13  21  34  55  84 113 138 167 208 257
#     4   9  18  33  50  66  87 118 155 191 229 273
#     4   9  17  29  46  68  92 117 148 188 231 273
#     4   9  17  29  46  68  92 117 148 188 231 273
#
# _framework density 25.749611999999999
#
# number of rings (size 3 to 8) (size 9 to 14) (size 15 to 20)
#    0.000    3.429    0.000    0.000    0.000    1.143 
#    0.000    2.857    0.000   15.429    0.000    0.000 
#    0.000   28.571    0.000  293.143    0.000   36.000 
#
# Total GULP energy -312231.047077 kJ/mol
# GULP energy per Si atom -5575.554412 kJ/mol
# Density = 2.569100 g / cm^3
# Si number density = 25.749612 Si / 1000 Ang^3
#
#
#
# Elastic Constant Matrix: (Units=GPa)
#
#
# Indices 1 2 3 4 5 6 
#
# 1 73.4180 10.6625 24.1168 0.0000 0.0000 0.0000
# 2 10.6625 53.0269 42.4917 0.0000 0.0000 0.0000
# 3 24.1168 42.4917 371.7564 0.0000 0.0000 0.0000
# 4 0.0000 0.0000 0.0000 17.5085 0.0000 0.0000
# 5 0.0000 0.0000 0.0000 0.0000 2.1457 0.0000
# 6 0.0000 0.0000 0.0000 0.0000 0.0000 -8.5915
#
#
#
# Elastic Compliance Matrix: (Units=1/GPa)
#
#
# Indices 1 2 3 4 5 6 
#
# 1 0.014173 -0.002326 -0.000654 0.000000 0.000000 0.000000
# 2 -0.002326 0.021142 -0.002266 0.000000 0.000000 0.000000
# 3 -0.000654 -0.002266 0.002991 0.000000 0.000000 0.000000
# 4 0.000000 0.000000 0.000000 0.057115 0.000000 0.000000
# 5 0.000000 0.000000 0.000000 0.000000 0.466041 0.000000
# 6 0.000000 0.000000 0.000000 0.000000 0.000000 -0.116394
#
#
# Mechanical properties :
#
#
# Convention : Reuss Voigt Hill
#
# Bulk Modulus (GPa) = 35.95138 72.52705 54.23922
# Shear Modulus (GPa) = 10.75662 30.27456 20.51559
#
# Velocity S-wave (km/s) = 2.04608 3.43261 2.82571
# Velocity P-wave (km/s) = 4.42427 6.62856 5.63525
#
# Compressibility (1/GPa) = 0.02781534
#
# Stress axis : x y z
#
# Youngs Moduli (GPa) = 70.55585 47.30024 334.30442
#
# Poissons Ratio (x) = 0.11003 0.21849
# Poissons Ratio (y) = 0.16413 0.75739
# Poissons Ratio (z) = 0.04611 0.10716
#
# Static dielectric constant tensor:
#      x y z
#    x 2.008860 0.000000 0.000000 
#    y 0.000000 1.999200 0.000000 
#    z 0.000000 0.000000 2.148770 
# 
# From -- ./inp_files/21469.got.cif
#   From: 2010.05.17/outbox.cif.g08.bks.cpg/sg66_11_cif.got.tgz:21469.got - 2010.06.03 17:51:23.
