data_PCOD9500456
_publ_section_title
;
Structure prediction by ZEFSAII (Michael W. Deem and Ramdas Pophale) SiO2 
 PCOD9500456
Probable space group: C M M A
;
_chemical_formula_sum "Si O2"
_cell_formula_units_Z 100
_cell_length_a 14.534866
_cell_length_b 16.861542
_cell_length_c 18.647075
_cell_angle_alpha 90.000000
_cell_angle_beta 90.000000
_cell_angle_gamma 90.000000
_cell_volume 4570.029868
_symmetry_space_group_name_H-M "C M M A"
_symmetry_group_IT_number 67
_symmetry_cell_setting 'orthorhombic'
loop_
_space_group_symop_operation_xyz
x,y,z
-x,1/2-y,z
x,-y,-z
-x,1/2+y,-z
-x,-y,-z
x,1/2+y,-z
-x,y,z
x,1/2-y,z
1/2+x,1/2+y,z
1/2-x,-y,z
1/2+x,1/2-y,-z
1/2-x,y,-z
1/2-x,1/2-y,-z
1/2+x,y,-z
1/2-x,1/2+y,z
1/2+x,-y,z
loop_
_atom_site_type_symbol
_atom_site_label
_atom_site_fract_x
_atom_site_fract_y
_atom_site_fract_z
Si Si1 0.851700 0.157746 0.414635
Si Si2 0.361506 0.838642 0.085193
Si Si3 0.140299 0.483078 0.324357
Si Si4 0.362629 0.998651 0.836737
Si Si5 0.866497 0.621148 0.425059
Si Si6 0.500000 0.750000 0.631990
Si Si7 0.638125 0.338446 0.082434
O O1 0.869097 0.250000 0.405771
O O2 0.882261 0.105765 0.347589
O O3 0.891484 0.132041 0.491750
O O4 0.741961 0.140994 0.420255
O O5 0.390093 0.750000 0.110687
O O6 0.391304 0.917955 0.126822
O O7 0.249692 0.838460 0.086731
O O8 0.387202 0.845092 0.001333
O O9 0.250000 0.500000 0.320031
O O10 0.106333 0.503861 0.245695
O O11 0.112549 0.536175 0.391997
O O12 0.250000 0.000000 0.838758
O O13 0.391978 0.917607 0.876246
O O14 0.920648 0.681960 0.376065
O O15 0.608735 0.250000 0.108198
#
# Coordination Sequence:
#
# PCOD9500456 Si02
#       7
#    16  16  16  16  16   4  16
#     4  10  17  34  54  72  96 132 166 203 252 305
#     4   8  13  20  33  49  76 111 157 198 235 274
#     4   9  19  30  45  67  97 128 164 201 243 297
#     4   9  15  24  34  54  82 116 158 198 228 277
#     4  10  19  34  52  76  98 126 164 208 254 301
#     4  12  20  34  58  80  98 118 170 216 252 296
#     4   8  13  21  31  49  74 115 157 195 234 281
#
# _framework density 21.881695000000001
#
# number of rings (size 3 to 8) (size 9 to 14) (size 15 to 20)
#    0.000    2.880    1.600    2.400    0.000    4.480 
#    1.440    4.800    0.000    0.000    0.000    0.000 
#    0.000    0.000    0.000    2.880    1.920    8.880 
#
# Total GULP energy -278391.083155 kJ/mol
# GULP energy per Si atom -5567.821663 kJ/mol
# Density = 2.183189 g / cm^3
# Si number density = 21.881695 Si / 1000 Ang^3
#
#
#
# Elastic Constant Matrix: (Units=GPa)
#
#
# Indices 1 2 3 4 5 6 
#
# 1 81.7850 3.6983 -7.3850 0.0000 0.0000 0.0000
# 2 3.6983 221.9265 110.9852 0.0000 0.0000 0.0000
# 3 -7.3850 110.9852 81.7537 0.0000 0.0000 0.0000
# 4 0.0000 0.0000 0.0000 -436.1527 0.0000 0.0000
# 5 0.0000 0.0000 0.0000 0.0000 -11.8707 0.0000
# 6 0.0000 0.0000 0.0000 0.0000 0.0000 -0.2225
#
#
#
# Elastic Compliance Matrix: (Units=1/GPa)
#
#
# Indices 1 2 3 4 5 6 
#
# 1 0.012743 -0.002454 0.004483 0.000000 0.000000 0.000000
# 2 -0.002454 0.014506 -0.019915 0.000000 0.000000 0.000000
# 3 0.004483 -0.019915 0.039672 0.000000 0.000000 0.000000
# 4 0.000000 0.000000 0.000000 -0.002293 0.000000 0.000000
# 5 0.000000 0.000000 0.000000 0.000000 -0.084241 0.000000
# 6 0.000000 0.000000 0.000000 0.000000 0.000000 -4.495246
#
#
# Mechanical properties :
#
#
# Convention : Reuss Voigt Hill
#
# Bulk Modulus (GPa) = 32.10364 66.67360 49.38862
# Shear Modulus (GPa) = -1.11889 -71.10472 -36.11181
#
# Velocity S-wave (km/s) = -0.71585 -5.70663 -4.06682
# Velocity P-wave (km/s) = 3.74434 3.58952 0.75346
#
# Compressibility (1/GPa) = 0.03114911
#
# Stress axis : x y z
#
# Youngs Moduli (GPa) = 78.47480 68.93605 25.20665
#
# Poissons Ratio (x) = 0.16918 -0.11300
# Poissons Ratio (y) = 0.19259 0.50198
# Poissons Ratio (z) = -0.35179 1.37284
#
# Static dielectric constant tensor:
#      x y z
#    x 1.781960 0.000000 0.000000 
#    y 0.000000 1.904690 0.000000 
#    z 0.000000 0.000000 1.749070 
# 
# From -- ./inp_files/39016.got.cif
#   From: 2010.05.17/outbox.cif.g08.bks.cpg/sg67_20_cif.got.tgz:39016.got - 2010.06.03 18:28:57.
