data_PCOD9500924
_publ_section_title
;
Structure prediction by ZEFSAII (Michael W. Deem and Ramdas Pophale) SiO2 
 PCOD9500924
Probable space group: C M M A
;
_chemical_formula_sum "Si O2"
_cell_formula_units_Z 88
_cell_length_a 26.641174
_cell_length_b 20.079317
_cell_length_c 7.622907
_cell_angle_alpha 90.000000
_cell_angle_beta 90.000000
_cell_angle_gamma 90.000000
_cell_volume 4077.771785
_symmetry_space_group_name_H-M "C M M A"
_symmetry_group_IT_number 67
_symmetry_cell_setting 'orthorhombic'
loop_
_space_group_symop_operation_xyz
x,y,z
-x,1/2-y,z
x,-y,-z
-x,1/2+y,-z
-x,-y,-z
x,1/2+y,-z
-x,y,z
x,1/2-y,z
1/2+x,1/2+y,z
1/2-x,-y,z
1/2+x,1/2-y,-z
1/2-x,y,-z
1/2-x,1/2-y,-z
1/2+x,y,-z
1/2-x,1/2+y,z
1/2+x,-y,z
loop_
_atom_site_type_symbol
_atom_site_label
_atom_site_fract_x
_atom_site_fract_y
_atom_site_fract_z
Si Si1 0.658246 0.250000 0.663484
Si Si2 0.500000 0.527062 0.804427
Si Si3 0.802272 0.397858 0.724645
Si Si4 0.000000 0.323016 0.885344
Si Si5 0.885716 0.500511 0.709510
Si Si6 0.417152 0.250000 0.953123
Si Si7 0.332289 0.750000 0.753571
Si Si8 0.693304 0.894523 0.299303
O O1 0.605573 0.250000 0.762216
O O2 0.652255 0.250000 0.453180
O O3 0.686717 0.184021 0.725496
O O4 0.554812 0.503445 0.739087
O O5 0.500000 0.500000 0.000000
O O6 0.500000 0.607716 0.787961
O O7 0.851155 0.439654 0.782102
O O8 0.805220 0.320537 0.776913
O O9 0.746190 0.420750 0.773824
O O10 0.804109 0.401665 0.511496
O O11 0.048157 0.314087 0.009073
O O12 0.000000 0.250000 0.785347
O O13 0.880793 0.500000 0.500000
O O14 0.855246 0.566156 0.768472
O O15 0.376335 0.250000 0.105681
#
# Coordination Sequence:
#
# PCOD9500924 Si02
#       8
#     8   8  16   8  16   8   8  16
#     4  10  20  33  59  87 119 154 198 242 295 356
#     4  12  25  39  62  83 113 156 196 251 311 350
#     4   9  17  33  58  86 121 154 187 234 302 356
#     4   8  22  41  60  79 112 164 196 251 311 357
#     4  10  21  37  60  86 114 151 197 246 295 360
#     4   9  20  38  61  78 124 150 201 243 300 358
#     4  10  18  33  59  89 115 158 196 242 291 360
#     4   9  18  33  56  89 120 152 189 239 295 360
#
# _framework density 21.580414000000001
#
# number of rings (size 3 to 8) (size 9 to 14) (size 15 to 20)
#    0.545    1.818    0.000    2.455    2.545    4.364 
#    0.000    3.636    0.000    1.091    0.000    0.000 
#    0.000    0.000    0.000    0.000    0.000    0.000 
#
# Total GULP energy -245049.340052 kJ/mol
# GULP energy per Si atom -5569.303183 kJ/mol
# Density = 2.153130 g / cm^3
# Si number density = 21.580414 Si / 1000 Ang^3
#
#
#
# Elastic Constant Matrix: (Units=GPa)
#
#
# Indices 1 2 3 4 5 6 
#
# 1 176.3642 74.2389 9.4163 0.0000 0.0000 0.0000
# 2 74.2389 133.6604 14.3659 0.0000 0.0000 0.0000
# 3 9.4163 14.3659 27.5374 0.0000 0.0000 0.0000
# 4 0.0000 0.0000 0.0000 -0.4268 0.0000 0.0000
# 5 0.0000 0.0000 0.0000 0.0000 -38.5737 0.0000
# 6 0.0000 0.0000 0.0000 0.0000 0.0000 21.5388
#
#
#
# Elastic Compliance Matrix: (Units=1/GPa)
#
#
# Indices 1 2 3 4 5 6 
#
# 1 0.007405 -0.004069 -0.000409 0.000000 0.000000 0.000000
# 2 -0.004069 0.010162 -0.003910 0.000000 0.000000 0.000000
# 3 -0.000409 -0.003910 0.038494 0.000000 0.000000 0.000000
# 4 0.000000 0.000000 0.000000 -2.343003 0.000000 0.000000
# 5 0.000000 0.000000 0.000000 0.000000 -0.025924 0.000000
# 6 0.000000 0.000000 0.000000 0.000000 0.000000 0.046428
#
#
# Mechanical properties :
#
#
# Convention : Reuss Voigt Hill
#
# Bulk Modulus (GPa) = 25.45547 59.28936 42.37242
# Shear Modulus (GPa) = -2.23557 12.47704 5.12074
#
# Velocity S-wave (km/s) = -1.01891 2.40712 1.54208
# Velocity P-wave (km/s) = 3.23064 5.93792 4.77996
#
# Compressibility (1/GPa) = 0.03928428
#
# Stress axis : x y z
#
# Youngs Moduli (GPa) = 135.05025 98.40767 25.97801
#
# Poissons Ratio (x) = 0.40040 0.01063
# Poissons Ratio (y) = 0.54949 0.10157
# Poissons Ratio (z) = 0.05528 0.38477
#
# Static dielectric constant tensor:
#      x y z
#    x 1.838080 0.000000 0.000000 
#    y 0.000000 1.826750 0.000000 
#    z 0.000000 0.000000 1.779030 
# 
# From -- ./inp_files/12523.got.cif
#   From: 2010.05.17/outbox.cif.g08.bks.cpg/sg67_7_cif.got.tgz:12523.got - 2010.06.03 18:28:57.
