data_PCOD9500188
_publ_section_title
;
Structure prediction by ZEFSAII (Michael W. Deem and Ramdas Pophale) SiO2 
 PCOD9500188
Probable space group: C M M A
;
_chemical_formula_sum "Si O2"
_cell_formula_units_Z 72
_cell_length_a 25.883624
_cell_length_b 8.639715
_cell_length_c 21.256239
_cell_angle_alpha 90.000000
_cell_angle_beta 90.000000
_cell_angle_gamma 90.000000
_cell_volume 4753.471818
_symmetry_space_group_name_H-M "C M M A"
_symmetry_group_IT_number 67
_symmetry_cell_setting 'orthorhombic'
loop_
_space_group_symop_operation_xyz
x,y,z
-x,1/2-y,z
x,-y,-z
-x,1/2+y,-z
-x,-y,-z
x,1/2+y,-z
-x,y,z
x,1/2-y,z
1/2+x,1/2+y,z
1/2-x,-y,z
1/2+x,1/2-y,-z
1/2-x,y,-z
1/2-x,1/2-y,-z
1/2+x,y,-z
1/2-x,1/2+y,z
1/2+x,-y,z
loop_
_atom_site_type_symbol
_atom_site_label
_atom_site_fract_x
_atom_site_fract_y
_atom_site_fract_z
Si Si1 0.691269 0.565009 0.305566
Si Si2 0.691053 0.564807 0.564928
Si Si3 0.000000 0.565486 0.928741
Si Si4 0.607560 0.435068 0.070457
Si Si5 0.192131 0.435522 0.825771
O O1 0.692300 0.750000 0.308676
O O2 0.750000 0.500000 0.304001
O O3 0.667399 0.496517 0.369671
O O4 0.669784 0.507001 0.238952
O O5 0.667553 0.500000 0.500000
O O6 0.692505 0.750000 0.564063
O O7 0.750000 0.500000 0.565422
O O8 0.054002 0.503143 0.902201
O O9 0.000000 0.750000 0.929750
O O10 0.000000 0.500000 0.000000
O O11 0.602590 0.250000 0.066290
O O12 0.655167 0.473241 0.115876
O O13 0.615235 0.500000 0.000000
O O14 0.195131 0.250000 0.818767
O O15 0.250000 0.500000 0.835548
#
# Coordination Sequence:
#
# PCOD9500188 Si02
#       5
#    16  16   8  16  16
#     4  10  17  26  39  54  75 105 139 174 210 251
#     4  10  16  23  34  50  72  98 133 173 210 247
#     4  10  18  30  50  70  88 108 135 172 217 262
#     4  10  20  33  49  67  88 112 142 178 219 261
#     4  10  20  32  45  62  85 116 148 180 215 256
#
# _framework density 15.146824000000001
#
# number of rings (size 3 to 8) (size 9 to 14) (size 15 to 20)
#    0.000    2.000    0.000   11.000    0.000    4.000 
#    0.000    2.222    0.000    0.000    0.000    0.000 
#    0.000    0.000    0.000    1.000    0.000   13.556 
#
# Total GULP energy -200567.374666 kJ/mol
# GULP energy per Si atom -5571.315963 kJ/mol
# Density = 1.511235 g / cm^3
# Si number density = 15.146824 Si / 1000 Ang^3
#
#
#
# Elastic Constant Matrix: (Units=GPa)
#
#
# Indices 1 2 3 4 5 6 
#
# 1 57.5904 34.8182 47.0937 0.0000 0.0000 0.0000
# 2 34.8182 123.7595 60.2569 0.0000 0.0000 0.0000
# 3 47.0937 60.2569 125.5961 0.0000 0.0000 0.0000
# 4 0.0000 0.0000 0.0000 27.8241 0.0000 0.0000
# 5 0.0000 0.0000 0.0000 0.0000 -0.3287 0.0000
# 6 0.0000 0.0000 0.0000 0.0000 0.0000 12.4069
#
#
#
# Elastic Compliance Matrix: (Units=1/GPa)
#
#
# Indices 1 2 3 4 5 6 
#
# 1 0.026071 -0.003360 -0.008164 0.000000 0.000000 0.000000
# 2 -0.003360 0.010976 -0.004006 0.000000 0.000000 0.000000
# 3 -0.008164 -0.004006 0.012945 0.000000 0.000000 0.000000
# 4 0.000000 0.000000 0.000000 0.035940 0.000000 0.000000
# 5 0.000000 0.000000 0.000000 0.000000 -3.041867 0.000000
# 6 0.000000 0.000000 0.000000 0.000000 0.000000 0.080601
#
#
# Mechanical properties :
#
#
# Convention : Reuss Voigt Hill
#
# Bulk Modulus (GPa) = 52.81854 65.69818 59.25836
# Shear Modulus (GPa) = -1.76183 18.96560 8.60188
#
# Velocity S-wave (km/s) = -1.07967 3.54237 2.38565
# Velocity P-wave (km/s) = 5.77862 7.75884 6.84076
#
# Compressibility (1/GPa) = 0.01893275
#
# Stress axis : x y z
#
# Youngs Moduli (GPa) = 38.35666 91.10810 77.24973
#
# Poissons Ratio (x) = 0.30613 0.63064
# Poissons Ratio (y) = 0.12888 0.30946
# Poissons Ratio (z) = 0.31313 0.36498
#
# Static dielectric constant tensor:
#      x y z
#    x 1.488350 0.000000 0.000000 
#    y 0.000000 1.504660 0.000000 
#    z 0.000000 0.000000 1.013740 
# 
# From -- ./inp_files/39804.got.cif
#   From: 2010.05.17/outbox.cif.g08.bks.cpg/sg67_20_cif.got.tgz:39804.got - 2010.06.03 18:28:57.
