data_PCOD9500769
_publ_section_title
;
Structure prediction by ZEFSAII (Michael W. Deem and Ramdas Pophale) SiO2 
 PCOD9500769
Probable space group: C M M A
;
_chemical_formula_sum "Si O2"
_cell_formula_units_Z 56
_cell_length_a 10.328202
_cell_length_b 21.422097
_cell_length_c 12.913917
_cell_angle_alpha 90.000000
_cell_angle_beta 90.000000
_cell_angle_gamma 90.000000
_cell_volume 2857.226672
_symmetry_space_group_name_H-M "C M M A"
_symmetry_group_IT_number 67
_symmetry_cell_setting 'orthorhombic'
loop_
_space_group_symop_operation_xyz
x,y,z
-x,1/2-y,z
x,-y,-z
-x,1/2+y,-z
-x,-y,-z
x,1/2+y,-z
-x,y,z
x,1/2-y,z
1/2+x,1/2+y,z
1/2-x,-y,z
1/2+x,1/2-y,-z
1/2-x,y,-z
1/2-x,1/2-y,-z
1/2+x,y,-z
1/2-x,1/2+y,z
1/2+x,-y,z
loop_
_atom_site_type_symbol
_atom_site_label
_atom_site_fract_x
_atom_site_fract_y
_atom_site_fract_z
Si Si1 0.250000 0.000000 0.753758
Si Si2 0.348388 0.250000 0.404561
Si Si3 0.500000 0.485881 0.881329
Si Si4 0.763834 0.143121 0.751951
Si Si5 0.500000 0.161120 0.862910
Si Si6 0.000000 0.678294 0.108357
O O1 0.238614 0.928297 0.709378
O O2 0.125610 0.008649 0.824073
O O3 0.500000 0.250000 0.434507
O O4 0.250000 0.250000 0.500000
O O5 0.318262 0.311572 0.336415
O O6 0.500000 0.412586 0.871970
O O7 0.500000 0.500000 0.000000
O O8 0.632049 0.173139 0.799601
O O9 0.871888 0.146061 0.843865
O O10 0.500000 0.181337 0.983206
O O11 0.000000 0.750000 0.146077
#
# Coordination Sequence:
#
# PCOD9500769 Si02
#       6
#     8   8   8  16   8   8
#     4  10  21  34  63  86 128 170 208 264 312 368
#     4  12  28  50  75  95 120 166 209 271 337 394
#     4  10  18  32  50  85 126 178 219 251 291 359
#     4  11  22  43  62  97 132 171 217 264 318 377
#     4  10  24  32  58  97 134 175 214 257 306 370
#     4  12  22  38  60  93 138 185 219 260 308 369
#
# _framework density 19.599425
#
# number of rings (size 3 to 8) (size 9 to 14) (size 15 to 20)
#    0.000    1.143    2.857    3.857    4.000    5.714 
#    0.000    0.714    0.000    1.714    0.000    0.000 
#    0.000    0.000    0.000    0.000    0.000    0.000 
#
# Total GULP energy -155974.150315 kJ/mol
# GULP energy per Si atom -5570.505368 kJ/mol
# Density = 1.955482 g / cm^3
# Si number density = 19.599425 Si / 1000 Ang^3
#
#
#
# Elastic Constant Matrix: (Units=GPa)
#
#
# Indices 1 2 3 4 5 6 
#
# 1 176.6789 17.6593 44.5700 0.0000 0.0000 0.0000
# 2 17.6593 153.5313 23.4721 0.0000 0.0000 0.0000
# 3 44.5700 23.4721 71.9031 0.0000 0.0000 0.0000
# 4 0.0000 0.0000 0.0000 -1.7297 0.0000 0.0000
# 5 0.0000 0.0000 0.0000 0.0000 31.6164 0.0000
# 6 0.0000 0.0000 0.0000 0.0000 0.0000 30.6007
#
#
#
# Elastic Compliance Matrix: (Units=1/GPa)
#
#
# Indices 1 2 3 4 5 6 
#
# 1 0.006712 -0.000143 -0.004114 0.000000 0.000000 0.000000
# 2 -0.000143 0.006859 -0.002150 0.000000 0.000000 0.000000
# 3 -0.004114 -0.002150 0.017160 0.000000 0.000000 0.000000
# 4 0.000000 0.000000 0.000000 -0.578143 0.000000 0.000000
# 5 0.000000 0.000000 0.000000 0.000000 0.031629 0.000000
# 6 0.000000 0.000000 0.000000 0.000000 0.000000 0.032679
#
#
# Mechanical properties :
#
#
# Convention : Reuss Voigt Hill
#
# Bulk Modulus (GPa) = 55.81650 63.72398 59.77024
# Shear Modulus (GPa) = -10.76846 33.19161 11.21157
#
# Velocity S-wave (km/s) = -2.34653 4.11968 2.39432
# Velocity P-wave (km/s) = 4.60422 7.43053 6.18109
#
# Compressibility (1/GPa) = 0.01791585
#
# Stress axis : x y z
#
# Youngs Moduli (GPa) = 148.98543 145.80416 58.27665
#
# Poissons Ratio (x) = 0.02086 0.23974
# Poissons Ratio (y) = 0.02132 0.12531
# Poissons Ratio (z) = 0.61290 0.31351
#
# Static dielectric constant tensor:
#      x y z
#    x 1.783010 0.000000 0.000000 
#    y 0.000000 1.830610 0.000000 
#    z 0.000000 0.000000 1.608500 
# 
# From -- ./inp_files/24662.got.cif
#   From: 2010.05.17/outbox.cif.g08.bks.cpg/sg67_13_cif.got.tgz:24662.got - 2010.06.03 18:28:57.
