data_PCOD9500422
_publ_section_title
;
Structure prediction by ZEFSAII (Michael W. Deem and Ramdas Pophale) SiO2 
 PCOD9500422
Probable space group: C M M A
;
_chemical_formula_sum "Si O2"
_cell_formula_units_Z 96
_cell_length_a 15.377689
_cell_length_b 25.441263
_cell_length_c 10.589908
_cell_angle_alpha 90.000000
_cell_angle_beta 90.000000
_cell_angle_gamma 90.000000
_cell_volume 4143.066729
_symmetry_space_group_name_H-M "C M M A"
_symmetry_group_IT_number 67
_symmetry_cell_setting 'orthorhombic'
loop_
_space_group_symop_operation_xyz
x,y,z
-x,1/2-y,z
x,-y,-z
-x,1/2+y,-z
-x,-y,-z
x,1/2+y,-z
-x,y,z
x,1/2-y,z
1/2+x,1/2+y,z
1/2-x,-y,z
1/2+x,1/2-y,-z
1/2-x,y,-z
1/2-x,1/2-y,-z
1/2+x,y,-z
1/2-x,1/2+y,z
1/2+x,-y,z
loop_
_atom_site_type_symbol
_atom_site_label
_atom_site_fract_x
_atom_site_fract_y
_atom_site_fract_z
Si Si1 0.348803 0.354781 0.536143
Si Si2 0.650840 0.978846 0.874229
Si Si3 0.635983 0.189865 0.278460
Si Si4 0.597649 0.630687 0.961072
Si Si5 0.840281 0.809890 0.791810
Si Si6 0.348302 0.524664 0.379614
O O1 0.250000 0.338121 0.500000
O O2 0.390833 0.346468 0.398048
O O3 0.383888 0.322346 0.655888
O O4 0.344057 0.413725 0.591895
O O5 0.649074 0.916446 0.891278
O O6 0.611209 0.004221 0.749516
O O7 0.750000 0.000000 0.874910
O O8 0.607348 0.000000 0.000000
O O9 0.619485 0.250000 0.316200
O O10 0.593532 0.175275 0.145708
O O11 0.738282 0.185205 0.241779
O O12 0.500000 0.612363 0.987787
O O13 0.637420 0.651760 0.092029
O O14 0.859128 0.750000 0.830460
O O15 0.393893 0.500000 0.500000
O O16 0.250000 0.500000 0.376714
#
# Coordination Sequence:
#
# PCOD9500422 Si02
#       6
#    16  16  16  16  16  16
#     4  10  18  33  62  94 130 159 212 276 327 375
#     4  10  23  37  62  91 118 164 209 256 310 373
#     4  10  22  39  64  96 129 166 215 272 325 381
#     4  12  26  42  63  93 131 171 215 264 321 388
#     4  10  22  39  64  95 126 168 220 272 324 384
#     4  10  17  29  52  90 120 157 199 254 314 380
#
# _framework density 23.171243
#
# number of rings (size 3 to 8) (size 9 to 14) (size 15 to 20)
#    0.000    1.667    1.667    3.500   11.667    5.000 
#    0.000    0.833    0.000    6.500    0.000    0.000 
#    0.000    0.000    0.000    0.000    0.000    0.000 
#
# Total GULP energy -267758.899547 kJ/mol
# GULP energy per Si atom -5578.310407 kJ/mol
# Density = 2.311850 g / cm^3
# Si number density = 23.171243 Si / 1000 Ang^3
#
#
#
# Elastic Constant Matrix: (Units=GPa)
#
#
# Indices 1 2 3 4 5 6 
#
# 1 58.5316 27.8390 18.9164 0.0000 0.0000 0.0000
# 2 27.8390 111.5714 54.4928 0.0000 0.0000 0.0000
# 3 18.9164 54.4928 234.0870 0.0000 0.0000 0.0000
# 4 0.0000 0.0000 0.0000 59.8295 0.0000 0.0000
# 5 0.0000 0.0000 0.0000 0.0000 -42.3676 0.0000
# 6 0.0000 0.0000 0.0000 0.0000 0.0000 2.2345
#
#
#
# Elastic Compliance Matrix: (Units=1/GPa)
#
#
# Indices 1 2 3 4 5 6 
#
# 1 0.019437 -0.004606 -0.000498 0.000000 0.000000 0.000000
# 2 -0.004606 0.011204 -0.002236 0.000000 0.000000 0.000000
# 3 -0.000498 -0.002236 0.004833 0.000000 0.000000 0.000000
# 4 0.000000 0.000000 0.000000 0.016714 0.000000 0.000000
# 5 0.000000 0.000000 0.000000 0.000000 -0.023603 0.000000
# 6 0.000000 0.000000 0.000000 0.000000 0.000000 0.447533
#
#
# Mechanical properties :
#
#
# Convention : Reuss Voigt Hill
#
# Bulk Modulus (GPa) = 48.09479 67.40960 57.75220
# Shear Modulus (GPa) = 10.04560 24.13539 17.09050
#
# Velocity S-wave (km/s) = 2.08442 3.23090 2.71878
# Velocity P-wave (km/s) = 5.15697 6.56303 5.90202
#
# Compressibility (1/GPa) = 0.02079227
#
# Stress axis : x y z
#
# Youngs Moduli (GPa) = 51.44892 89.25110 206.92348
#
# Poissons Ratio (x) = 0.41113 0.10312
# Poissons Ratio (y) = 0.23699 0.46268
# Poissons Ratio (z) = 0.02564 0.19957
#
# Static dielectric constant tensor:
#      x y z
#    x 1.890380 0.000000 0.000000 
#    y 0.000000 1.955590 0.000000 
#    z 0.000000 0.000000 1.853900 
# 
# From -- ./inp_files/19660.got.cif
#   From: 2010.05.17/outbox.cif.g08.bks.cpg/sg67_10_cif.got.tgz:19660.got - 2010.06.03 18:28:57.
