data_PCOD9500858
_publ_section_title
;
Structure prediction by ZEFSAII (Michael W. Deem and Ramdas Pophale) SiO2 
 PCOD9500858
Probable space group: C M M A
;
_chemical_formula_sum "Si O2"
_cell_formula_units_Z 96
_cell_length_a 8.601911
_cell_length_b 29.592393
_cell_length_c 21.233782
_cell_angle_alpha 90.000000
_cell_angle_beta 90.000000
_cell_angle_gamma 90.000000
_cell_volume 5405.083221
_symmetry_space_group_name_H-M "C M M A"
_symmetry_group_IT_number 67
_symmetry_cell_setting 'orthorhombic'
loop_
_space_group_symop_operation_xyz
x,y,z
-x,1/2-y,z
x,-y,-z
-x,1/2+y,-z
-x,-y,-z
x,1/2+y,-z
-x,y,z
x,1/2-y,z
1/2+x,1/2+y,z
1/2-x,-y,z
1/2+x,1/2-y,-z
1/2-x,y,-z
1/2-x,1/2-y,-z
1/2+x,y,-z
1/2-x,1/2+y,z
1/2+x,-y,z
loop_
_atom_site_type_symbol
_atom_site_label
_atom_site_fract_x
_atom_site_fract_y
_atom_site_fract_z
Si Si1 0.313872 0.358121 0.433555
Si Si2 0.187625 0.197827 0.931373
Si Si3 0.810392 0.198058 0.688762
Si Si4 0.188088 0.140874 0.810911
Si Si5 0.186172 0.951358 0.614650
Si Si6 0.314346 0.048512 0.762363
O O1 0.500000 0.358118 0.434774
O O2 0.250000 0.341154 0.500000
O O3 0.260881 0.327829 0.374420
O O4 0.254948 0.409030 0.422188
O O5 0.235166 0.250000 0.919066
O O6 0.239321 0.165293 0.875037
O O7 0.000000 0.197100 0.932864
O O8 0.250000 0.184857 0.000000
O O9 0.758923 0.250000 0.690221
O O10 0.761017 0.170611 0.750656
O O11 0.000000 0.198266 0.689011
O O12 0.249279 0.090465 0.801246
O O13 0.000000 0.139902 0.810616
O O14 0.231716 0.945762 0.688557
O O15 0.000000 0.951173 0.610296
O O16 0.250000 0.000000 0.593591
O O17 0.500000 0.048073 0.764961
O O18 0.250000 0.000000 0.783198
#
# Coordination Sequence:
#
# PCOD9500858 Si02
#       6
#    16  16  16  16  16  16
#     4  11  22  36  54  75 103 138 176 218 267 318
#     4   9  18  32  52  80 114 150 184 219 260 310
#     4   9  18  33  54  78 102 133 176 221 262 308
#     4  10  18  32  56  82 108 140 180 220 261 309
#     4  10  20  35  55  78 105 134 170 214 265 321
#     4  10  20  33  53  80 110 139 172 215 265 317
#
# _framework density 17.761058999999999
#
# number of rings (size 3 to 8) (size 9 to 14) (size 15 to 20)
#    0.000    2.167    1.667    2.000    0.000    4.667 
#    0.000    1.667    0.000    5.500    0.000    3.500 
#    0.000    0.000    0.000    0.000    0.000    0.000 
#
# Total GULP energy -267980.392004 kJ/mol
# GULP energy per Si atom -5582.924833 kJ/mol
# Density = 1.772063 g / cm^3
# Si number density = 17.761059 Si / 1000 Ang^3
#
#
#
# Elastic Constant Matrix: (Units=GPa)
#
#
# Indices 1 2 3 4 5 6 
#
# 1 21.1640 21.5390 26.1409 0.0000 0.0000 0.0000
# 2 21.5390 137.3743 84.6260 0.0000 0.0000 0.0000
# 3 26.1409 84.6260 137.1775 0.0000 0.0000 0.0000
# 4 0.0000 0.0000 0.0000 15.2366 0.0000 0.0000
# 5 0.0000 0.0000 0.0000 0.0000 25.5689 0.0000
# 6 0.0000 0.0000 0.0000 0.0000 0.0000 20.4888
#
#
#
# Elastic Compliance Matrix: (Units=1/GPa)
#
#
# Indices 1 2 3 4 5 6 
#
# 1 0.063137 -0.004012 -0.009556 0.000000 0.000000 0.000000
# 2 -0.004012 0.011997 -0.006636 0.000000 0.000000 0.000000
# 3 -0.009556 -0.006636 0.013205 0.000000 0.000000 0.000000
# 4 0.000000 0.000000 0.000000 0.065631 0.000000 0.000000
# 5 0.000000 0.000000 0.000000 0.000000 0.039110 0.000000
# 6 0.000000 0.000000 0.000000 0.000000 0.000000 0.048807
#
#
# Mechanical properties :
#
#
# Convention : Reuss Voigt Hill
#
# Bulk Modulus (GPa) = 20.86426 62.25860 41.56143
# Shear Modulus (GPa) = 16.76318 23.15287 19.95802
#
# Velocity S-wave (km/s) = 3.07549 3.61442 3.35579
# Velocity P-wave (km/s) = 4.93804 7.24902 6.20212
#
# Compressibility (1/GPa) = 0.04792884
#
# Stress axis : x y z
#
# Youngs Moduli (GPa) = 15.83852 83.35758 75.73010
#
# Poissons Ratio (x) = 0.33446 0.72370
# Poissons Ratio (y) = 0.06355 0.50256
# Poissons Ratio (z) = 0.15136 0.55317
#
# Static dielectric constant tensor:
#      x y z
#    x 1.600940 0.000000 0.000000 
#    y 0.000000 1.585300 0.000000 
#    z 0.000000 0.000000 1.602440 
# 
# From -- ./inp_files/37121.got.cif
#   From: 2010.05.17/outbox.cif.g08.bks.cpg/sg67_19_cif.got.tgz:37121.got - 2010.06.03 18:28:57.
