data_PCOD9500356
_publ_section_title
;
Structure prediction by ZEFSAII (Michael W. Deem and Ramdas Pophale) SiO2 
 PCOD9500356
Probable space group: C M M A
;
_chemical_formula_sum "Si O2"
_cell_formula_units_Z 112
_cell_length_a 16.946432
_cell_length_b 29.163981
_cell_length_c 14.083644
_cell_angle_alpha 90.000000
_cell_angle_beta 90.000000
_cell_angle_gamma 90.000000
_cell_volume 6960.494883
_symmetry_space_group_name_H-M "C M M A"
_symmetry_group_IT_number 67
_symmetry_cell_setting 'orthorhombic'
loop_
_space_group_symop_operation_xyz
x,y,z
-x,1/2-y,z
x,-y,-z
-x,1/2+y,-z
-x,-y,-z
x,1/2+y,-z
-x,y,z
x,1/2-y,z
1/2+x,1/2+y,z
1/2-x,-y,z
1/2+x,1/2-y,-z
1/2-x,y,-z
1/2-x,1/2-y,-z
1/2+x,y,-z
1/2-x,1/2+y,z
1/2+x,-y,z
loop_
_atom_site_type_symbol
_atom_site_label
_atom_site_fract_x
_atom_site_fract_y
_atom_site_fract_z
Si Si1 0.157967 0.486784 0.604196
Si Si2 0.406715 0.102938 0.305272
Si Si3 0.093448 0.446436 0.897365
Si Si4 0.404778 0.802770 0.775901
Si Si5 0.404782 0.109967 0.921973
Si Si6 0.343867 0.698715 0.989225
Si Si7 0.595104 0.533945 0.209378
O O1 0.127011 0.500000 0.500000
O O2 0.250000 0.500000 0.605843
O O3 0.140257 0.433570 0.630275
O O4 0.119879 0.517002 0.687719
O O5 0.500000 0.100354 0.330735
O O6 0.399802 0.083973 0.197416
O O7 0.382143 0.156303 0.296417
O O8 0.124849 0.496076 0.866881
O O9 0.000000 0.452742 0.916568
O O10 0.125370 0.420083 0.988320
O O11 0.500000 0.805681 0.785773
O O12 0.385238 0.750000 0.748629
O O13 0.368653 0.811424 0.880382
O O14 0.500000 0.109977 0.924373
O O15 0.378861 0.083625 0.827016
O O16 0.377298 0.161053 0.940003
O O17 0.373503 0.750000 0.009850
O O18 0.250000 0.698373 0.000000
O O19 0.500000 0.532546 0.206681
#
# Coordination Sequence:
#
# PCOD9500356 Si02
#       7
#    16  16  16  16  16  16  16
#     4  10  21  35  49  67  92 122 154 191 237 284
#     4   9  16  28  49  73  94 121 153 191 237 278
#     4   8  13  24  42  64  90 117 144 174 215 263
#     4   9  16  28  47  70  95 123 156 192 232 277
#     4  10  17  28  46  65  88 122 158 188 223 264
#     4  10  20  30  40  60  93 130 164 194 225 260
#     4   9  18  30  46  67  90 117 151 188 224 271
#
# _framework density 16.090810000000001
#
# number of rings (size 3 to 8) (size 9 to 14) (size 15 to 20)
#    0.000    2.714    1.429    2.143    0.000    4.857 
#    0.000    0.000    0.000    0.000    0.000    3.000 
#    0.000    2.286    0.000    0.000    0.000    0.000 
#
# Total GULP energy -311757.007861 kJ/mol
# GULP energy per Si atom -5567.089426 kJ/mol
# Density = 1.605419 g / cm^3
# Si number density = 16.090810 Si / 1000 Ang^3
#
#
#
# Elastic Constant Matrix: (Units=GPa)
#
#
# Indices 1 2 3 4 5 6 
#
# 1 17.3944 28.4200 12.5861 0.0000 0.0000 0.0000
# 2 28.4200 146.9385 57.0549 0.0000 0.0000 0.0000
# 3 12.5861 57.0549 62.5692 0.0000 0.0000 0.0000
# 4 0.0000 0.0000 0.0000 17.1153 0.0000 0.0000
# 5 0.0000 0.0000 0.0000 0.0000 2.2559 0.0000
# 6 0.0000 0.0000 0.0000 0.0000 0.0000 2.7991
#
#
#
# Elastic Compliance Matrix: (Units=1/GPa)
#
#
# Indices 1 2 3 4 5 6 
#
# 1 0.084473 -0.015080 -0.003242 0.000000 0.000000 0.000000
# 2 -0.015080 0.013228 -0.009029 0.000000 0.000000 0.000000
# 3 -0.003242 -0.009029 0.024868 0.000000 0.000000 0.000000
# 4 0.000000 0.000000 0.000000 0.058427 0.000000 0.000000
# 5 0.000000 0.000000 0.000000 0.000000 0.443275 0.000000
# 6 0.000000 0.000000 0.000000 0.000000 0.000000 0.357258
#
#
# Mechanical properties :
#
#
# Convention : Reuss Voigt Hill
#
# Bulk Modulus (GPa) = 14.73434 47.00271 30.86852
# Shear Modulus (GPa) = 4.72209 13.02346 8.87278
#
# Velocity S-wave (km/s) = 1.71494 2.84803 2.35078
# Velocity P-wave (km/s) = 3.61915 6.33162 5.15692
#
# Compressibility (1/GPa) = 0.06786867
#
# Stress axis : x y z
#
# Youngs Moduli (GPa) = 11.83804 75.59705 40.21310
#
# Poissons Ratio (x) = 1.13998 0.13035
# Poissons Ratio (y) = 0.17851 0.36308
# Poissons Ratio (z) = 0.03837 0.68256
#
# Static dielectric constant tensor:
#      x y z
#    x 1.565900 0.000000 0.000000 
#    y 0.000000 1.593300 0.000000 
#    z 0.000000 0.000000 1.526210 
# 
# From -- ./inp_files/27873.got.cif
#   From: 2010.05.17/outbox.cif.g08.bks.cpg/sg67_14_cif.got.tgz:27873.got - 2010.06.03 18:28:57.
