data_PCOD9500654
_publ_section_title
;
Structure prediction by ZEFSAII (Michael W. Deem and Ramdas Pophale) SiO2 
 PCOD9500654
Probable space group: C M M A
;
_chemical_formula_sum "Si O2"
_cell_formula_units_Z 88
_cell_length_a 8.414446
_cell_length_b 21.750016
_cell_length_c 24.461799
_cell_angle_alpha 90.000000
_cell_angle_beta 90.000000
_cell_angle_gamma 90.000000
_cell_volume 4476.859880
_symmetry_space_group_name_H-M "C M M A"
_symmetry_group_IT_number 67
_symmetry_cell_setting 'orthorhombic'
loop_
_space_group_symop_operation_xyz
x,y,z
-x,1/2-y,z
x,-y,-z
-x,1/2+y,-z
-x,-y,-z
x,1/2+y,-z
-x,y,z
x,1/2-y,z
1/2+x,1/2+y,z
1/2-x,-y,z
1/2+x,1/2-y,-z
1/2-x,y,-z
1/2-x,1/2-y,-z
1/2+x,y,-z
1/2-x,1/2+y,z
1/2+x,-y,z
loop_
_atom_site_type_symbol
_atom_site_label
_atom_site_fract_x
_atom_site_fract_y
_atom_site_fract_z
Si Si1 0.807838 0.181131 0.863723
Si Si2 0.190766 0.933226 0.062146
Si Si3 0.810603 0.119037 0.438375
Si Si4 0.689663 0.250000 0.437319
Si Si5 0.808244 0.064639 0.328826
Si Si6 0.191858 0.681978 0.739518
O O1 0.762159 0.250000 0.883526
O O2 0.754535 0.124599 0.901519
O O3 0.742461 0.174658 0.802434
O O4 0.000000 0.179353 0.861469
O O5 0.000000 0.934143 0.061900
O O6 0.250000 0.000000 0.082261
O O7 0.250000 0.926147 0.000000
O O8 0.750000 0.109165 0.500000
O O9 0.757627 0.186033 0.416167
O O10 0.755165 0.072154 0.391967
O O11 0.000000 0.118685 0.441387
O O12 0.750000 0.250000 0.500000
O O13 0.000000 0.250000 0.564319
O O14 0.750750 0.123909 0.295238
O O15 0.000000 0.065226 0.328279
O O16 0.750000 0.000000 0.306092
O O17 0.247895 0.750000 0.720903
O O18 0.000000 0.682239 0.736474
#
# Coordination Sequence:
#
# PCOD9500654 Si02
#       6
#    16  16  16   8  16  16
#     4   9  19  36  56  80 110 142 178 224 276 320
#     4  10  20  34  53  78 111 149 186 225 266 316
#     4  10  20  35  55  78 107 143 177 219 270 323
#     4  10  18  30  50  78 106 134 170 214 257 308
#     4  10  23  39  57  80 109 144 178 223 273 324
#     4   9  19  37  60  82 104 138 183 224 269 324
#
# _framework density 19.656635000000001
#
# number of rings (size 3 to 8) (size 9 to 14) (size 15 to 20)
#    0.000    2.364    0.000    3.545    1.273    5.091 
#    0.000    5.455    0.000    0.000    0.000    0.000 
#    0.000    0.000    0.000    0.000    0.000    0.000 
#
# Total GULP energy -245463.029698 kJ/mol
# GULP energy per Si atom -5578.705220 kJ/mol
# Density = 1.961190 g / cm^3
# Si number density = 19.656635 Si / 1000 Ang^3
#
#
#
# Elastic Constant Matrix: (Units=GPa)
#
#
# Indices 1 2 3 4 5 6 
#
# 1 26.1259 19.8498 12.3238 0.0000 0.0000 0.0000
# 2 19.8498 198.1176 89.5209 0.0000 0.0000 0.0000
# 3 12.3238 89.5209 73.9783 0.0000 0.0000 0.0000
# 4 0.0000 0.0000 0.0000 29.2432 0.0000 0.0000
# 5 0.0000 0.0000 0.0000 0.0000 21.5188 0.0000
# 6 0.0000 0.0000 0.0000 0.0000 0.0000 25.4048
#
#
#
# Elastic Compliance Matrix: (Units=1/GPa)
#
#
# Indices 1 2 3 4 5 6 
#
# 1 0.042014 -0.002310 -0.004204 0.000000 0.000000 0.000000
# 2 -0.002310 0.011264 -0.013246 0.000000 0.000000 0.000000
# 3 -0.004204 -0.013246 0.030247 0.000000 0.000000 0.000000
# 4 0.000000 0.000000 0.000000 0.034196 0.000000 0.000000
# 5 0.000000 0.000000 0.000000 0.000000 0.046471 0.000000
# 6 0.000000 0.000000 0.000000 0.000000 0.000000 0.039363
#
#
# Mechanical properties :
#
#
# Convention : Reuss Voigt Hill
#
# Bulk Modulus (GPa) = 22.72426 60.17898 41.45162
# Shear Modulus (GPa) = 19.39916 27.00182 23.20049
#
# Velocity S-wave (km/s) = 3.14491 3.71033 3.43926
# Velocity P-wave (km/s) = 4.97724 7.00264 6.07495
#
# Compressibility (1/GPa) = 0.04400583
#
# Stress axis : x y z
#
# Youngs Moduli (GPa) = 23.80146 88.77612 33.06140
#
# Poissons Ratio (x) = 0.20508 0.13898
# Poissons Ratio (y) = 0.05498 0.43793
# Poissons Ratio (z) = 0.10005 1.17593
#
# Static dielectric constant tensor:
#      x y z
#    x 1.675340 0.000000 0.000000 
#    y 0.000000 1.731620 0.000000 
#    z 0.000000 0.000000 1.664860 
# 
# From -- ./inp_files/40680.got.cif
#   From: 2010.05.17/outbox.cif.g08.bks.cpg/sg67_21_cif.got.tgz:40680.got - 2010.06.03 18:28:57.
