data_PCOD9500006
_publ_section_title
;
Structure prediction by ZEFSAII (Michael W. Deem and Ramdas Pophale) SiO2 
 PCOD9500006
Probable space group: C C C M
;
_chemical_formula_sum "Si O2"
_cell_formula_units_Z 28
_cell_length_a 4.875692
_cell_length_b 13.167207
_cell_length_c 18.937687
_cell_angle_alpha 90.000000
_cell_angle_beta 90.000000
_cell_angle_gamma 90.000000
_cell_volume 1215.785223
_symmetry_space_group_name_H-M "C C C M"
_symmetry_group_IT_number 66
_symmetry_cell_setting 'orthorhombic'
loop_
_space_group_symop_operation_xyz
x,y,z
-x,-y,z
x,-y,1/2-z
-x,y,1/2-z
-x,-y,-z
x,y,-z
-x,y,1/2+z
x,-y,1/2+z
1/2+x,1/2+y,z
1/2-x,1/2-y,z
1/2+x,1/2-y,1/2-z
1/2-x,1/2+y,1/2-z
1/2-x,1/2-y,-z
1/2+x,1/2+y,-z
1/2-x,1/2+y,1/2+z
1/2+x,1/2-y,1/2+z
loop_
_atom_site_type_symbol
_atom_site_label
_atom_site_fract_x
_atom_site_fract_y
_atom_site_fract_z
Si Si1 0.000000 0.819596 0.250000
Si Si2 0.260435 0.570926 0.386434
Si Si3 0.750000 0.750000 0.000000
O O1 0.750000 0.750000 0.277628
O O2 0.875545 0.884938 0.186848
O O3 0.500000 0.500000 0.417254
O O4 0.196583 0.663244 0.438457
O O5 0.000000 0.500000 0.374160
#
# Coordination Sequence:
#
# PCOD9500006 Si02
#       3
#     8  16   4
#     4  12  25  50  81 114 156 206 259 328 391 456
#     4  12  28  50  81 114 153 206 261 317 390 461
#     4  12  28  54  80 108 170 194 266 310 394 466
#
# _framework density 23.030380999999998
#
# number of rings (size 3 to 8) (size 9 to 14) (size 15 to 20)
#    0.000    0.000    2.857    6.000    0.000    4.571 
#    0.000    0.000    0.000    0.000    0.000    0.000 
#    0.000    0.000    0.000    0.000    0.000    0.000 
#
# Total GULP energy -77986.781750 kJ/mol
# GULP energy per Si atom -5570.484411 kJ/mol
# Density = 2.297796 g / cm^3
# Si number density = 23.030381 Si / 1000 Ang^3
#
#
#
# Elastic Constant Matrix: (Units=GPa)
#
#
# Indices 1 2 3 4 5 6 
#
# 1 167.9136 87.1425 55.2696 0.0000 0.0000 0.0000
# 2 87.1425 191.4483 104.4672 0.0000 0.0000 0.0000
# 3 55.2696 104.4672 223.4652 0.0000 0.0000 0.0000
# 4 0.0000 0.0000 0.0000 18.2084 0.0000 0.0000
# 5 0.0000 0.0000 0.0000 0.0000 1.5920 0.0000
# 6 0.0000 0.0000 0.0000 0.0000 0.0000 41.5690
#
#
#
# Elastic Compliance Matrix: (Units=1/GPa)
#
#
# Indices 1 2 3 4 5 6 
#
# 1 0.007819 -0.003361 -0.000363 0.000000 0.000000 0.000000
# 2 -0.003361 0.008457 -0.003122 0.000000 0.000000 0.000000
# 3 -0.000363 -0.003122 0.006024 0.000000 0.000000 0.000000
# 4 0.000000 0.000000 0.000000 0.054920 0.000000 0.000000
# 5 0.000000 0.000000 0.000000 0.000000 0.628140 0.000000
# 6 0.000000 0.000000 0.000000 0.000000 0.000000 0.024056
#
#
# Mechanical properties :
#
#
# Convention : Reuss Voigt Hill
#
# Bulk Modulus (GPa) = 116.16624 119.62065 117.89345
# Shear Modulus (GPa) = 6.70261 34.67040 20.68651
#
# Velocity S-wave (km/s) = 1.70782 3.88418 3.00029
# Velocity P-wave (km/s) = 7.37827 8.49523 7.95637
#
# Compressibility (1/GPa) = 0.00860835
#
# Stress axis : x y z
#
# Youngs Moduli (GPa) = 127.89059 118.24542 165.99619
#
# Poissons Ratio (x) = 0.39745 0.06019
# Poissons Ratio (y) = 0.42987 0.51827
# Poissons Ratio (z) = 0.04637 0.36919
#
# Static dielectric constant tensor:
#      x y z
#    x 2.051030 0.000000 0.000000 
#    y 0.000000 1.873950 0.000000 
#    z 0.000000 0.000000 1.924020 
# 
# From -- ./inp_files/39246.got.cif
#   From: 2010.05.17/outbox.cif.g08.bks.cpg/sg66_20_cif.got.tgz:39246.got - 2010.06.03 17:51:23.
