data_PCOD9500445
_publ_section_title
;
Structure prediction by ZEFSAII (Michael W. Deem and Ramdas Pophale) SiO2 
 PCOD9500445
Probable space group: C M M A
;
_chemical_formula_sum "Si O2"
_cell_formula_units_Z 72
_cell_length_a 29.550007
_cell_length_b 25.341189
_cell_length_c 5.035056
_cell_angle_alpha 90.000000
_cell_angle_beta 90.000000
_cell_angle_gamma 90.000000
_cell_volume 3770.412627
_symmetry_space_group_name_H-M "C M M A"
_symmetry_group_IT_number 67
_symmetry_cell_setting 'orthorhombic'
loop_
_space_group_symop_operation_xyz
x,y,z
-x,1/2-y,z
x,-y,-z
-x,1/2+y,-z
-x,-y,-z
x,1/2+y,-z
-x,y,z
x,1/2-y,z
1/2+x,1/2+y,z
1/2-x,-y,z
1/2+x,1/2-y,-z
1/2-x,y,-z
1/2-x,1/2-y,-z
1/2+x,y,-z
1/2-x,1/2+y,z
1/2+x,-y,z
loop_
_atom_site_type_symbol
_atom_site_label
_atom_site_fract_x
_atom_site_fract_y
_atom_site_fract_z
Si Si1 0.217183 0.250000 0.245301
Si Si2 0.110055 0.053866 0.106336
Si Si3 0.083438 0.307702 0.582908
Si Si4 0.449101 0.577141 0.613158
Si Si5 0.858594 0.330625 0.083320
O O1 0.250000 0.250000 0.500000
O O2 0.184795 0.199117 0.201318
O O3 0.250000 0.250000 0.000000
O O4 0.086876 0.056482 0.395411
O O5 0.141520 0.105729 0.085342
O O6 0.068620 0.060183 0.899889
O O7 0.132589 0.000000 0.000000
O O8 0.062958 0.250000 0.624076
O O9 0.053322 0.359158 0.621751
O O10 0.101800 0.312932 0.284155
O O11 0.125722 0.313264 0.789093
O O12 0.500000 0.560373 0.555228
#
# Coordination Sequence:
#
# PCOD9500445 Si02
#       5
#     8  16  16  16  16
#     4  12  22  34  58  88 113 132 159 212 280 322
#     4  10  21  36  55  74 100 147 187 218 264 312
#     4  10  17  32  53  70 104 149 177 212 263 315
#     4  10  21  32  48  78 107 137 185 236 273 303
#     4  10  20  35  53  79 108 134 175 214 254 326
#
# _framework density 19.096053000000001
#
# number of rings (size 3 to 8) (size 9 to 14) (size 15 to 20)
#    0.000    1.778    2.222    2.667    0.000    3.111 
#    0.000    0.000    0.000    8.667    0.000    1.556 
#    0.000    0.000    0.000    0.000    0.000    0.000 
#
# Total GULP energy -200694.612019 kJ/mol
# GULP energy per Si atom -5574.850334 kJ/mol
# Density = 1.905259 g / cm^3
# Si number density = 19.096053 Si / 1000 Ang^3
#
#
#
# Elastic Constant Matrix: (Units=GPa)
#
#
# Indices 1 2 3 4 5 6 
#
# 1 55.0256 33.0146 2.1720 0.0000 0.0000 0.0000
# 2 33.0146 184.5138 17.2640 0.0000 0.0000 0.0000
# 3 2.1720 17.2640 85.2154 0.0000 0.0000 0.0000
# 4 0.0000 0.0000 0.0000 23.4969 0.0000 0.0000
# 5 0.0000 0.0000 0.0000 0.0000 16.3845 0.0000
# 6 0.0000 0.0000 0.0000 0.0000 0.0000 -10.6347
#
#
#
# Elastic Compliance Matrix: (Units=1/GPa)
#
#
# Indices 1 2 3 4 5 6 
#
# 1 0.020363 -0.003664 0.000223 0.000000 0.000000 0.000000
# 2 -0.003664 0.006184 -0.001159 0.000000 0.000000 0.000000
# 3 0.000223 -0.001159 0.011964 0.000000 0.000000 0.000000
# 4 0.000000 0.000000 0.000000 0.042559 0.000000 0.000000
# 5 0.000000 0.000000 0.000000 0.000000 0.061033 0.000000
# 6 0.000000 0.000000 0.000000 0.000000 0.000000 -0.094031
#
#
# Mechanical properties :
#
#
# Convention : Reuss Voigt Hill
#
# Bulk Modulus (GPa) = 34.11785 47.73955 40.92870
# Shear Modulus (GPa) = 74.57911 24.00294 49.29103
#
# Velocity S-wave (km/s) = 6.25616 3.54921 5.08608
# Velocity P-wave (km/s) = 8.37205 6.46914 7.48134
#
# Compressibility (1/GPa) = 0.02931017
#
# Stress axis : x y z
#
# Youngs Moduli (GPa) = 49.10834 161.71309 83.58303
#
# Poissons Ratio (x) = 0.59258 -0.01867
# Poissons Ratio (y) = 0.17995 0.09690
# Poissons Ratio (z) = -0.01097 0.18749
#
# Static dielectric constant tensor:
#      x y z
#    x 1.607460 0.000000 0.000000 
#    y 0.000000 1.719790 0.000000 
#    z 0.000000 0.000000 1.643760 
# 
# From -- ./inp_files/4181.got.cif
#   From: 2010.05.17/outbox.cif.g08.bks.cpg/sg67_3_cif.got.tgz:4181.got - 2010.06.03 18:28:57.
