data_PCOD9500749
_publ_section_title
;
Structure prediction by ZEFSAII (Michael W. Deem and Ramdas Pophale) SiO2 
 PCOD9500749
Probable space group: C M M A
;
_chemical_formula_sum "Si O2"
_cell_formula_units_Z 96
_cell_length_a 14.614347
_cell_length_b 24.729172
_cell_length_c 12.707082
_cell_angle_alpha 90.000000
_cell_angle_beta 90.000000
_cell_angle_gamma 90.000000
_cell_volume 4592.348338
_symmetry_space_group_name_H-M "C M M A"
_symmetry_group_IT_number 67
_symmetry_cell_setting 'orthorhombic'
loop_
_space_group_symop_operation_xyz
x,y,z
-x,1/2-y,z
x,-y,-z
-x,1/2+y,-z
-x,-y,-z
x,1/2+y,-z
-x,y,z
x,1/2-y,z
1/2+x,1/2+y,z
1/2-x,-y,z
1/2+x,1/2-y,-z
1/2-x,y,-z
1/2-x,1/2-y,-z
1/2+x,y,-z
1/2-x,1/2+y,z
1/2+x,-y,z
loop_
_atom_site_type_symbol
_atom_site_label
_atom_site_fract_x
_atom_site_fract_y
_atom_site_fract_z
Si Si1 0.145297 0.058038 0.965123
Si Si2 0.110729 0.939327 0.280257
Si Si3 0.611268 0.250000 0.546285
Si Si4 0.611774 0.366380 0.466463
Si Si5 0.605708 0.134020 0.852240
Si Si6 0.611837 0.940723 0.337133
Si Si7 0.611653 0.750000 0.206513
O O1 0.137327 0.064856 0.841105
O O2 0.250000 0.056665 0.000000
O O3 0.106410 0.106939 0.033852
O O4 0.104554 0.000000 0.000000
O O5 0.142358 0.891112 0.355719
O O6 0.000000 0.939278 0.282314
O O7 0.140939 0.997142 0.327474
O O8 0.500000 0.250000 0.543114
O O9 0.641744 0.305536 0.491782
O O10 0.634845 0.250000 0.669777
O O11 0.500000 0.365753 0.466919
O O12 0.639237 0.407462 0.559683
O O13 0.500000 0.139894 0.819446
O O14 0.644126 0.091917 0.766364
O O15 0.646106 0.194024 0.844157
O O16 0.500000 0.942171 0.337815
O O17 0.500000 0.750000 0.197308
#
# Coordination Sequence:
#
# PCOD9500749 Si02
#       7
#    16  16   8  16  16  16   8
#     4  11  23  37  52  72 100 139 179 221 263 307
#     4  10  19  31  50  77 106 136 169 209 259 311
#     4   9  14  24  43  73 110 136 157 196 255 308
#     4   9  16  26  44  76 111 135 160 200 254 313
#     4  10  18  31  54  81 104 131 172 217 255 297
#     4   9  15  25  46  77 108 131 158 203 253 302
#     4   9  16  28  50  81 109 132 167 215 254 293
#
# _framework density 20.904339
#
# number of rings (size 3 to 8) (size 9 to 14) (size 15 to 20)
#    0.000    2.333    3.333    1.000    0.000    2.667 
#    0.000    1.250    0.000    4.000    0.000    1.167 
#    0.000    0.000    0.000    0.000    0.000    0.000 
#
# Total GULP energy -268029.981480 kJ/mol
# GULP energy per Si atom -5583.957948 kJ/mol
# Density = 2.085676 g / cm^3
# Si number density = 20.904339 Si / 1000 Ang^3
#
#
#
# Elastic Constant Matrix: (Units=GPa)
#
#
# Indices 1 2 3 4 5 6 
#
# 1 50.0208 0.5341 -0.7544 0.0000 0.0000 0.0000
# 2 0.5341 194.9401 108.1060 0.0000 0.0000 0.0000
# 3 -0.7544 108.1060 167.9694 0.0000 0.0000 0.0000
# 4 0.0000 0.0000 0.0000 75.1892 0.0000 0.0000
# 5 0.0000 0.0000 0.0000 0.0000 7.9756 0.0000
# 6 0.0000 0.0000 0.0000 0.0000 0.0000 -7.7359
#
#
#
# Elastic Compliance Matrix: (Units=1/GPa)
#
#
# Indices 1 2 3 4 5 6 
#
# 1 0.019996 -0.000163 0.000194 0.000000 0.000000 0.000000
# 2 -0.000163 0.007978 -0.005136 0.000000 0.000000 0.000000
# 3 0.000194 -0.005136 0.009260 0.000000 0.000000 0.000000
# 4 0.000000 0.000000 0.000000 0.013300 0.000000 0.000000
# 5 0.000000 0.000000 0.000000 0.000000 0.125382 0.000000
# 6 0.000000 0.000000 0.000000 0.000000 0.000000 -0.129267
#
#
# Mechanical properties :
#
#
# Convention : Reuss Voigt Hill
#
# Bulk Modulus (GPa) = 37.00038 69.85574 53.42806
# Shear Modulus (GPa) = 75.91262 35.42209 55.66736
#
# Velocity S-wave (km/s) = 6.03267 4.12088 5.16598
# Velocity P-wave (km/s) = 8.14017 7.49210 7.82285
#
# Compressibility (1/GPa) = 0.02702675
#
# Stress axis : x y z
#
# Youngs Moduli (GPa) = 50.00915 125.34175 107.99611
#
# Poissons Ratio (x) = 0.02038 -0.02100
# Poissons Ratio (y) = 0.00813 0.55462
# Poissons Ratio (z) = -0.00973 0.64370
#
# Static dielectric constant tensor:
#      x y z
#    x 2.026990 0.000000 0.000000 
#    y 0.000000 1.762880 0.000000 
#    z 0.000000 0.000000 1.704920 
# 
# From -- ./inp_files/20905.got.cif
#   From: 2010.05.17/outbox.cif.g08.bks.cpg/sg67_11_cif.got.tgz:20905.got - 2010.06.03 18:28:57.
