data_PCOD9500057
_publ_section_title
;
Structure prediction by ZEFSAII (Michael W. Deem and Ramdas Pophale) SiO2 
 PCOD9500057
Probable space group: C C C M
;
_chemical_formula_sum "Si O2"
_cell_formula_units_Z 44
_cell_length_a 9.000000
_cell_length_b 21.000000
_cell_length_c 24.000000
_cell_angle_alpha 90.000000
_cell_angle_beta 90.000000
_cell_angle_gamma 90.000000
_cell_volume 4536.000000
_symmetry_space_group_name_H-M "C C C M"
_symmetry_group_IT_number 66
_symmetry_cell_setting 'orthorhombic'
loop_
_space_group_symop_operation_xyz
x,y,z
-x,-y,z
x,-y,1/2-z
-x,y,1/2-z
-x,-y,-z
x,y,-z
-x,y,1/2+z
x,-y,1/2+z
1/2+x,1/2+y,z
1/2-x,1/2-y,z
1/2+x,1/2-y,1/2-z
1/2-x,1/2+y,1/2-z
1/2-x,1/2-y,-z
1/2+x,1/2+y,-z
1/2-x,1/2+y,1/2+z
1/2+x,1/2-y,1/2+z
loop_
_atom_site_type_symbol
_atom_site_label
_atom_site_fract_x
_atom_site_fract_y
_atom_site_fract_z
Si Si1 0.569037 0.078715 0.840014
Si Si2 0.224418 0.108196 0.176098
Si Si3 0.661507 0.809239 0.724386
Si Si4 0.735564 0.462158 0.061777
Si Si5 0.920495 0.899570 0.936382
Si Si6 0.246948 0.000000 0.750000
O O1 0.392591 0.085857 0.838801
O O2 0.634843 0.147632 0.829076
O O3 0.636415 0.048327 0.894374
O O4 0.642989 0.042460 0.787634
O O5 0.244576 0.159127 0.225181
O O6 0.141627 0.131467 0.120559
O O7 0.158287 0.045702 0.207527
O O8 0.500000 0.796309 0.750000
O O9 0.750000 0.750000 0.704924
O O10 0.666315 0.532727 0.064239
O O11 0.594221 0.415929 0.070973
O O12 0.793595 0.451140 0.000000
O O13 0.899722 0.873306 0.000000
#
# Coordination Sequence:
#
# PCOD9500057 Si02
#       6
#    16  16  16  16  16   8
#     4  10  18  30  50  72  96 127 160 196 237 287
#     4  10  18  30  50  72  96 127 160 196 237 287
#     4   9  20  35  51  72  97 126 161 201 243 284
#     4   9  18  31  45  67 102 135 160 191 234 284
#     4   9  18  31  45  67 102 135 160 191 234 284
#     4  10  17  28  45  70 101 124 149 190 241 284
#
# _framework density 9.7001760000000008
#
# number of rings (size 3 to 8) (size 9 to 14) (size 15 to 20)
#    0.000    2.545    1.818    3.818    0.000    2.182 
#    0.000    5.455    0.000    1.091    0.000    0.000 
#    0.000    0.000    0.000    0.000    0.000    0.000 
#
# Total GULP energy -245000.520389 kJ/mol
# GULP energy per Si atom -5568.193645 kJ/mol
# Density = 0.967810 g / cm^3
# Si number density = 9.700176 Si / 1000 Ang^3
#
#
#
# Elastic Constant Matrix: (Units=GPa)
#
#
# Indices 1 2 3 4 5 6 
#
# 1 0.1675 21.9086 30.3442 0.0000 0.0000 0.0000
# 2 21.9086 53.5804 3.9974 0.0000 0.0000 0.0000
# 3 30.3442 3.9974 92.1807 0.0000 0.0000 0.0000
# 4 0.0000 0.0000 0.0000 5.3102 0.0000 0.0000
# 5 0.0000 0.0000 0.0000 0.0000 33.1449 0.0000
# 6 0.0000 0.0000 0.0000 0.0000 0.0000 23.2199
#
#
#
# Elastic Compliance Matrix: (Units=1/GPa)
#
#
# Indices 1 2 3 4 5 6 
#
# 1 -0.056302 0.021709 0.017592 0.000000 0.000000 0.000000
# 2 0.021709 0.010354 -0.007595 0.000000 0.000000 0.000000
# 3 0.017592 -0.007595 0.005387 0.000000 0.000000 0.000000
# 4 0.000000 0.000000 0.000000 0.188316 0.000000 0.000000
# 5 0.000000 0.000000 0.000000 0.000000 0.030171 0.000000
# 6 0.000000 0.000000 0.000000 0.000000 0.000000 0.043066
#
#
# Mechanical properties :
#
#
# Convention : Reuss Voigt Hill
#
# Bulk Modulus (GPa) = 43.76333 28.71436 36.23884
# Shear Modulus (GPa) = 30.26693 18.31357 24.29025
#
# Velocity S-wave (km/s) = 3.95412 3.07576 3.54227
# Velocity P-wave (km/s) = 6.59195 5.23897 5.95402
#
# Compressibility (1/GPa) = 0.02285018
#
# Stress axis : x y z
#
# Youngs Moduli (GPa) = -17.76147 96.58497 185.64525
#
# Poissons Ratio (x) = -2.09675 -3.26589
# Poissons Ratio (y) = 0.38558 1.41000
# Poissons Ratio (z) = 0.31246 0.73358
#
# Static dielectric constant tensor:
#      x y z
#    x 1.703070 0.000000 0.000000 
#    y 0.000000 1.731810 0.000000 
#    z 0.000000 0.000000 1.700810 
# 
# From -- ./inp_files/55492.got.cif
#   From: 2010.05.17/outbox.ucp.g08.bks.cvg/sg66_28_cif.got.tgz:55492.got - 2010.06.11 16:44:13.
