data_PCOD9500285
_publ_section_title
;
Structure prediction by ZEFSAII (Michael W. Deem and Ramdas Pophale) SiO2 
 PCOD9500285
Probable space group: C M M A
;
_chemical_formula_sum "Si O2"
_cell_formula_units_Z 96
_cell_length_a 8.599465
_cell_length_b 28.162585
_cell_length_c 24.791441
_cell_angle_alpha 90.000000
_cell_angle_beta 90.000000
_cell_angle_gamma 90.000000
_cell_volume 6004.069622
_symmetry_space_group_name_H-M "C M M A"
_symmetry_group_IT_number 67
_symmetry_cell_setting 'orthorhombic'
loop_
_space_group_symop_operation_xyz
x,y,z
-x,1/2-y,z
x,-y,-z
-x,1/2+y,-z
-x,-y,-z
x,1/2+y,-z
-x,y,z
x,1/2-y,z
1/2+x,1/2+y,z
1/2-x,-y,z
1/2+x,1/2-y,-z
1/2-x,y,-z
1/2-x,1/2-y,-z
1/2+x,y,-z
1/2-x,1/2+y,z
1/2+x,-y,z
loop_
_atom_site_type_symbol
_atom_site_label
_atom_site_fract_x
_atom_site_fract_y
_atom_site_fract_z
Si Si1 0.185014 0.053585 0.832001
Si Si2 0.310580 0.197051 0.668203
Si Si3 0.314529 0.445925 0.944448
Si Si4 0.312543 0.852042 0.441887
Si Si5 0.311831 0.398807 0.725462
Si Si6 0.313075 0.051688 0.613741
O O1 0.254844 0.074287 0.887709
O O2 0.235846 0.083269 0.780094
O O3 0.000000 0.051004 0.836727
O O4 0.250000 0.000000 0.825211
O O5 0.500000 0.197254 0.668442
O O6 0.256627 0.250000 0.681508
O O7 0.263744 0.181577 0.607707
O O8 0.264965 0.154488 0.708094
O O9 0.500000 0.447016 0.945821
O O10 0.250000 0.500000 0.943745
O O11 0.250000 0.423998 0.000000
O O12 0.500000 0.851688 0.443186
O O13 0.250000 0.838281 0.500000
O O14 0.261922 0.905551 0.425481
O O15 0.500000 0.400353 0.730566
O O16 0.269032 0.432373 0.674591
O O17 0.500000 0.050454 0.612162
O O18 0.250000 0.000000 0.600369
#
# Coordination Sequence:
#
# PCOD9500285 Si02
#       6
#    16  16  16  16  16  16
#     4  11  20  29  42  63  91 123 156 187 221 258
#     4   8  15  30  51  69  86 111 141 175 219 270
#     4  10  17  27  41  59  86 121 159 193 223 254
#     4   9  18  31  45  64  87 109 138 175 214 258
#     4   9  17  30  46  65  87 111 144 183 221 263
#     4   9  18  30  43  59  82 112 143 176 213 256
#
# _framework density 15.989153999999999
#
# number of rings (size 3 to 8) (size 9 to 14) (size 15 to 20)
#    0.000    2.667    0.000    7.000    0.000    3.333 
#    0.000    4.167    0.000    1.500    0.000    0.000 
#    0.000    0.667    0.000    1.833    0.000    3.000 
#
# Total GULP energy -267519.800189 kJ/mol
# GULP energy per Si atom -5573.329171 kJ/mol
# Density = 1.595276 g / cm^3
# Si number density = 15.989154 Si / 1000 Ang^3
#
#
#
# Elastic Constant Matrix: (Units=GPa)
#
#
# Indices 1 2 3 4 5 6 
#
# 1 62.4719 11.7702 32.5354 0.0000 0.0000 0.0000
# 2 11.7702 69.1635 24.3005 0.0000 0.0000 0.0000
# 3 32.5354 24.3005 114.1711 0.0000 0.0000 0.0000
# 4 0.0000 0.0000 0.0000 10.6820 0.0000 0.0000
# 5 0.0000 0.0000 0.0000 0.0000 33.6331 0.0000
# 6 0.0000 0.0000 0.0000 0.0000 0.0000 10.4656
#
#
#
# Elastic Compliance Matrix: (Units=1/GPa)
#
#
# Indices 1 2 3 4 5 6 
#
# 1 0.018927 -0.001433 -0.005089 0.000000 0.000000 0.000000
# 2 -0.001433 0.015736 -0.002941 0.000000 0.000000 0.000000
# 3 -0.005089 -0.002941 0.010835 0.000000 0.000000 0.000000
# 4 0.000000 0.000000 0.000000 0.093616 0.000000 0.000000
# 5 0.000000 0.000000 0.000000 0.000000 0.029733 0.000000
# 6 0.000000 0.000000 0.000000 0.000000 0.000000 0.095551
#
#
# Mechanical properties :
#
#
# Convention : Reuss Voigt Hill
#
# Bulk Modulus (GPa) = 37.63283 42.55764 40.09524
# Shear Modulus (GPa) = 17.11272 22.76948 19.94110
#
# Velocity S-wave (km/s) = 3.27505 3.77776 3.53535
# Velocity P-wave (km/s) = 6.15539 6.76040 6.46498
#
# Compressibility (1/GPa) = 0.02657254
#
# Stress axis : x y z
#
# Youngs Moduli (GPa) = 52.83342 63.55000 92.29478
#
# Poissons Ratio (x) = 0.09108 0.46966
# Poissons Ratio (y) = 0.07572 0.27142
# Poissons Ratio (z) = 0.26885 0.18689
#
# Static dielectric constant tensor:
#      x y z
#    x 1.543130 0.000000 0.000000 
#    y 0.000000 1.528530 0.000000 
#    z 0.000000 0.000000 1.554480 
# 
# From -- ./inp_files/40947.got.cif
#   From: 2010.05.17/outbox.cif.g08.bks.cpg/sg67_21_cif.got.tgz:40947.got - 2010.06.03 18:28:57.
