data_PCOD9500834
_publ_section_title
;
Structure prediction by ZEFSAII (Michael W. Deem and Ramdas Pophale) SiO2 
 PCOD9500834
Probable space group: C M M A
;
_chemical_formula_sum "Si O2"
_cell_formula_units_Z 116
_cell_length_a 24.761195
_cell_length_b 17.170739
_cell_length_c 15.441599
_cell_angle_alpha 90.000000
_cell_angle_beta 90.000000
_cell_angle_gamma 90.000000
_cell_volume 6565.274021
_symmetry_space_group_name_H-M "C M M A"
_symmetry_group_IT_number 67
_symmetry_cell_setting 'orthorhombic'
loop_
_space_group_symop_operation_xyz
x,y,z
-x,1/2-y,z
x,-y,-z
-x,1/2+y,-z
-x,-y,-z
x,1/2+y,-z
-x,y,z
x,1/2-y,z
1/2+x,1/2+y,z
1/2-x,-y,z
1/2+x,1/2-y,-z
1/2-x,y,-z
1/2-x,1/2-y,-z
1/2+x,y,-z
1/2-x,1/2+y,z
1/2+x,-y,z
loop_
_atom_site_type_symbol
_atom_site_label
_atom_site_fract_x
_atom_site_fract_y
_atom_site_fract_z
Si Si1 0.562689 0.659198 0.977943
Si Si2 0.500000 0.750000 0.703276
Si Si3 0.935213 0.657359 0.515470
Si Si4 0.624884 0.420543 0.866154
Si Si5 0.061890 0.929532 0.692112
Si Si6 0.239273 0.160373 0.102609
Si Si7 0.414031 0.888688 0.670564
Si Si8 0.853614 0.101079 0.839383
O O1 0.500000 0.639487 0.956248
O O2 0.563864 0.750000 0.003798
O O3 0.585873 0.608196 0.056784
O O4 0.603326 0.649305 0.897100
O O5 0.453784 0.819228 0.698731
O O6 0.927368 0.750000 0.524685
O O7 0.921466 0.611465 0.602574
O O8 0.904660 0.626218 0.431003
O O9 0.000000 0.645812 0.498530
O O10 0.598010 0.404398 0.773138
O O11 0.682757 0.380256 0.877242
O O12 0.634157 0.512845 0.867809
O O13 0.000000 0.906554 0.709347
O O14 0.063739 0.023220 0.681210
O O15 0.236412 0.250000 0.130231
O O16 0.292031 0.121210 0.142382
O O17 0.250000 0.158253 0.000000
O O18 0.365337 0.886632 0.738347
#
# Coordination Sequence:
#
# PCOD9500834 Si02
#       8
#    16   4  16  16  16  16  16  16
#     4  11  24  37  55  82 117 151 186 228 284 341
#     4  12  20  32  58  84 122 160 188 232 288 348
#     4  10  18  32  54  83 116 156 194 230 276 344
#     4  11  23  40  59  82 113 150 191 239 283 338
#     4  10  21  36  56  85 119 155 192 231 288 343
#     4  11  23  41  63  83 108 145 197 243 287 339
#     4  11  21  34  55  85 122 152 190 237 284 341
#     4  11  25  37  60  86 111 150 190 238 290 340
#
# _framework density 17.668721000000001
#
# number of rings (size 3 to 8) (size 9 to 14) (size 15 to 20)
#    0.000    1.241    3.448    2.483    2.897    4.414 
#    0.000    1.379    0.000    0.828    0.000    5.793 
#    0.000    0.000    0.000    0.000    0.000    0.000 
#
# Total GULP energy -323279.128582 kJ/mol
# GULP energy per Si atom -5573.778079 kJ/mol
# Density = 1.762851 g / cm^3
# Si number density = 17.668721 Si / 1000 Ang^3
#
#
#
# Elastic Constant Matrix: (Units=GPa)
#
#
# Indices 1 2 3 4 5 6 
#
# 1 73.1098 15.4066 29.9470 0.0000 0.0000 0.0000
# 2 15.4066 58.8626 33.3606 0.0000 0.0000 0.0000
# 3 29.9470 33.3606 94.5782 0.0000 0.0000 0.0000
# 4 0.0000 0.0000 0.0000 -18.6713 0.0000 0.0000
# 5 0.0000 0.0000 0.0000 0.0000 20.2268 0.0000
# 6 0.0000 0.0000 0.0000 0.0000 0.0000 35.1650
#
#
#
# Elastic Compliance Matrix: (Units=1/GPa)
#
#
# Indices 1 2 3 4 5 6 
#
# 1 0.015840 -0.001629 -0.004441 0.000000 0.000000 0.000000
# 2 -0.001629 0.021401 -0.007033 0.000000 0.000000 0.000000
# 3 -0.004441 -0.007033 0.014460 0.000000 0.000000 0.000000
# 4 0.000000 0.000000 0.000000 -0.053558 0.000000 0.000000
# 5 0.000000 0.000000 0.000000 0.000000 0.049439 0.000000
# 6 0.000000 0.000000 0.000000 0.000000 0.000000 0.028437
#
#
# Mechanical properties :
#
#
# Convention : Reuss Voigt Hill
#
# Bulk Modulus (GPa) = 39.22254 42.66433 40.94344
# Shear Modulus (GPa) = 45.15678 17.19984 31.17831
#
# Velocity S-wave (km/s) = 5.06092 3.12342 4.20528
# Velocity P-wave (km/s) = 7.50984 6.09975 6.84122
#
# Compressibility (1/GPa) = 0.02549554
#
# Stress axis : x y z
#
# Youngs Moduli (GPa) = 63.12937 46.72657 69.15520
#
# Poissons Ratio (x) = 0.07612 0.30712
# Poissons Ratio (y) = 0.10284 0.48637
# Poissons Ratio (z) = 0.28036 0.32863
#
# Static dielectric constant tensor:
#      x y z
#    x 1.568790 0.000000 0.000000 
#    y 0.000000 1.609390 0.000000 
#    z 0.000000 0.000000 1.614070 
# 
# From -- ./inp_files/30276.got.cif
#   From: 2010.05.17/outbox.cif.g08.bks.cpg/sg67_16_cif.got.tgz:30276.got - 2010.06.03 18:28:57.
