data_PCOD9500817
_publ_section_title
;
Structure prediction by ZEFSAII (Michael W. Deem and Ramdas Pophale) SiO2 
 PCOD9500817
Probable space group: C M M A
;
_chemical_formula_sum "Si O2"
_cell_formula_units_Z 120
_cell_length_a 8.537250
_cell_length_b 27.516045
_cell_length_c 29.023811
_cell_angle_alpha 90.000000
_cell_angle_beta 90.000000
_cell_angle_gamma 90.000000
_cell_volume 6818.022774
_symmetry_space_group_name_H-M "C M M A"
_symmetry_group_IT_number 67
_symmetry_cell_setting 'orthorhombic'
loop_
_space_group_symop_operation_xyz
x,y,z
-x,1/2-y,z
x,-y,-z
-x,1/2+y,-z
-x,-y,-z
x,1/2+y,-z
-x,y,z
x,1/2-y,z
1/2+x,1/2+y,z
1/2-x,-y,z
1/2+x,1/2-y,-z
1/2-x,y,-z
1/2-x,1/2-y,-z
1/2+x,y,-z
1/2-x,1/2+y,z
1/2+x,-y,z
loop_
_atom_site_type_symbol
_atom_site_label
_atom_site_fract_x
_atom_site_fract_y
_atom_site_fract_z
Si Si1 0.189514 0.898887 0.308101
Si Si2 0.687552 0.146428 0.947602
Si Si3 0.688739 0.446542 0.215536
Si Si4 0.188931 0.445550 0.890281
Si Si5 0.311028 0.803163 0.640619
Si Si6 0.812687 0.649424 0.550777
Si Si7 0.687633 0.250000 0.052662
Si Si8 0.812920 0.051661 0.397651
O O1 0.241903 0.911461 0.256582
O O2 0.243405 0.846444 0.326287
O O3 0.249004 0.936501 0.346581
O O4 0.000000 0.900042 0.308818
O O5 0.500000 0.148202 0.948038
O O6 0.745481 0.098612 0.920667
O O7 0.751306 0.198245 0.927961
O O8 0.750000 0.142800 0.000000
O O9 0.500000 0.447033 0.215531
O O10 0.750000 0.500000 0.227051
O O11 0.737350 0.435980 0.163046
O O12 0.250000 0.500000 0.902474
O O13 0.000000 0.446006 0.893294
O O14 0.500000 0.804450 0.639928
O O15 0.259563 0.750000 0.655843
O O16 0.251831 0.814220 0.589326
O O17 0.750000 0.658754 0.500000
O O18 0.763199 0.595910 0.569159
O O19 0.000000 0.651368 0.550592
O O20 0.500000 0.250000 0.052936
O O21 0.750000 0.250000 0.000000
O O22 0.000000 0.050890 0.395934
O O23 0.750000 0.000000 0.413580
#
# Coordination Sequence:
#
# PCOD9500817 Si02
#       8
#    16  16  16  16  16  16   8  16
#     4   9  17  31  51  74  99 127 161 203 245 291
#     4  11  21  35  55  80 108 143 183 227 273 320
#     4   9  18  31  50  74 103 134 168 207 249 298
#     4  10  20  35  52  75 108 144 182 223 268 322
#     4   9  18  33  53  74  96 125 160 200 244 289
#     4  10  21  35  50  69  94 124 159 197 237 287
#     4  10  18  32  54  80 106 136 176 222 268 312
#     4  10  20  32  47  70  97 125 157 194 238 288
#
# _framework density 17.60041
#
# number of rings (size 3 to 8) (size 9 to 14) (size 15 to 20)
#    0.000    2.267    0.000    4.200    0.000    4.800 
#    0.000    2.667    1.467    0.000    0.000    0.000 
#    0.000    0.000    0.000    0.000    0.000    0.000 
#
# Total GULP energy -334621.164583 kJ/mol
# GULP energy per Si atom -5577.019410 kJ/mol
# Density = 1.756035 g / cm^3
# Si number density = 17.600410 Si / 1000 Ang^3
#
#
#
# Elastic Constant Matrix: (Units=GPa)
#
#
# Indices 1 2 3 4 5 6 
#
# 1 55.9433 32.0231 21.4869 0.0000 0.0000 0.0000
# 2 32.0231 119.0906 59.4902 0.0000 0.0000 0.0000
# 3 21.4869 59.4902 86.5766 0.0000 0.0000 0.0000
# 4 0.0000 0.0000 0.0000 8.1593 0.0000 0.0000
# 5 0.0000 0.0000 0.0000 0.0000 16.1500 0.0000
# 6 0.0000 0.0000 0.0000 0.0000 0.0000 19.9504
#
#
#
# Elastic Compliance Matrix: (Units=1/GPa)
#
#
# Indices 1 2 3 4 5 6 
#
# 1 0.021366 -0.004715 -0.002063 0.000000 0.000000 0.000000
# 2 -0.004715 0.013826 -0.008330 0.000000 0.000000 0.000000
# 3 -0.002063 -0.008330 0.017787 0.000000 0.000000 0.000000
# 4 0.000000 0.000000 0.000000 0.122559 0.000000 0.000000
# 5 0.000000 0.000000 0.000000 0.000000 0.061920 0.000000
# 6 0.000000 0.000000 0.000000 0.000000 0.000000 0.050124
#
#
# Mechanical properties :
#
#
# Convention : Reuss Voigt Hill
#
# Bulk Modulus (GPa) = 43.93144 54.17902 49.05523
# Shear Modulus (GPa) = 15.36637 18.75929 17.06283
#
# Velocity S-wave (km/s) = 2.95798 3.26827 3.11699
# Velocity P-wave (km/s) = 6.05647 6.71504 6.39424
#
# Compressibility (1/GPa) = 0.02276274
#
# Stress axis : x y z
#
# Youngs Moduli (GPa) = 46.80225 72.32722 56.22223
#
# Poissons Ratio (x) = 0.34101 0.11599
# Poissons Ratio (y) = 0.22066 0.46835
# Poissons Ratio (z) = 0.09656 0.60251
#
# Static dielectric constant tensor:
#      x y z
#    x 1.591940 0.000000 0.000000 
#    y 0.000000 1.614720 0.000000 
#    z 0.000000 0.000000 1.588390 
# 
# From -- ./inp_files/43936.got.cif
#   From: 2010.05.17/outbox.cif.g08.bks.cpg/sg67_22_cif.got.tgz:43936.got - 2010.06.03 18:28:57.
