data_PCOD9500049
_publ_section_title
;
Structure prediction by ZEFSAII (Michael W. Deem and Ramdas Pophale) SiO2 
 PCOD9500049
Probable space group: C C C M
;
_chemical_formula_sum "Si O2"
_cell_formula_units_Z 80
_cell_length_a 11.961690
_cell_length_b 20.638496
_cell_length_c 13.498599
_cell_angle_alpha 90.000000
_cell_angle_beta 90.000000
_cell_angle_gamma 90.000000
_cell_volume 3332.416565
_symmetry_space_group_name_H-M "C C C M"
_symmetry_group_IT_number 66
_symmetry_cell_setting 'orthorhombic'
loop_
_space_group_symop_operation_xyz
x,y,z
-x,-y,z
x,-y,1/2-z
-x,y,1/2-z
-x,-y,-z
x,y,-z
-x,y,1/2+z
x,-y,1/2+z
1/2+x,1/2+y,z
1/2-x,1/2-y,z
1/2+x,1/2-y,1/2-z
1/2-x,1/2+y,1/2-z
1/2-x,1/2-y,-z
1/2+x,1/2+y,-z
1/2-x,1/2+y,1/2+z
1/2+x,1/2-y,1/2+z
loop_
_atom_site_type_symbol
_atom_site_label
_atom_site_fract_x
_atom_site_fract_y
_atom_site_fract_z
Si Si1 0.895842 0.579547 0.111133
Si Si2 0.614559 0.877243 0.330502
Si Si3 0.129920 0.898374 0.819830
Si Si4 0.848459 0.963802 0.890039
Si Si5 0.875329 0.237604 0.116947
O O1 0.879695 0.620595 0.211486
O O2 0.788527 0.531953 0.117370
O O3 0.029596 0.568637 0.126495
O O4 0.886128 0.607264 0.000000
O O5 0.742706 0.887102 0.359249
O O6 0.569919 0.807297 0.364953
O O7 0.123289 0.918833 0.704195
O O8 0.076315 0.828741 0.840223
O O9 0.100218 0.964792 0.875433
O O10 0.873424 0.938407 0.000000
O O11 0.750000 0.250000 0.158920
O O12 0.867376 0.227611 0.000000
#
# Coordination Sequence:
#
# PCOD9500049 Si02
#       5
#    16  16  16  16  16
#     4   9  17  28  41  58  83 113 141 172 213 259
#     4   9  17  28  41  59  83 111 146 183 214 250
#     4   9  17  28  41  59  83 111 146 183 214 250
#     4   9  17  28  41  58  83 113 141 172 213 259
#     4   9  16  26  41  59  79 106 142 183 220 249
#
# _framework density 24.006602999999998
#
# number of rings (size 3 to 8) (size 9 to 14) (size 15 to 20)
#    0.000    3.000    0.000    1.200    0.000    3.200 
#    0.000    7.000    0.000    6.000    0.000    0.000 
#    0.000   12.800    0.000   46.400    0.000   10.400 
#
# Total GULP energy -222753.952314 kJ/mol
# GULP energy per Si atom -5568.848808 kJ/mol
# Density = 2.395196 g / cm^3
# Si number density = 24.006603 Si / 1000 Ang^3
#
#
#
# Elastic Constant Matrix: (Units=GPa)
#
#
# Indices 1 2 3 4 5 6 
#
# 1 78.9761 28.4568 -0.6960 0.0000 0.0000 0.0000
# 2 28.4568 158.2865 52.7511 0.0000 0.0000 0.0000
# 3 -0.6960 52.7511 143.1607 0.0000 0.0000 0.0000
# 4 0.0000 0.0000 0.0000 6.6211 0.0000 0.0000
# 5 0.0000 0.0000 0.0000 0.0000 12.1270 0.0000
# 6 0.0000 0.0000 0.0000 0.0000 0.0000 19.3938
#
#
#
# Elastic Compliance Matrix: (Units=1/GPa)
#
#
# Indices 1 2 3 4 5 6 
#
# 1 0.013692 -0.002831 0.001110 0.000000 0.000000 0.000000
# 2 -0.002831 0.007788 -0.002883 0.000000 0.000000 0.000000
# 3 0.001110 -0.002883 0.008053 0.000000 0.000000 0.000000
# 4 0.000000 0.000000 0.000000 0.151032 0.000000 0.000000
# 5 0.000000 0.000000 0.000000 0.000000 0.082461 0.000000
# 6 0.000000 0.000000 0.000000 0.000000 0.000000 0.051563
#
#
# Mechanical properties :
#
#
# Convention : Reuss Voigt Hill
#
# Bulk Modulus (GPa) = 49.20551 60.16076 54.68314
# Shear Modulus (GPa) = 15.12529 27.62248 21.37388
#
# Velocity S-wave (km/s) = 2.51280 3.39576 2.98708
# Velocity P-wave (km/s) = 5.38145 6.36313 5.89277
#
# Compressibility (1/GPa) = 0.02032293
#
# Stress axis : x y z
#
# Youngs Moduli (GPa) = 73.03498 128.40937 124.17765
#
# Poissons Ratio (x) = 0.36358 -0.13782
# Poissons Ratio (y) = 0.20679 0.35804
# Poissons Ratio (z) = -0.08106 0.37024
#
# Static dielectric constant tensor:
#      x y z
#    x 2.136110 0.000000 0.000000 
#    y 0.000000 1.967030 0.000000 
#    z 0.000000 0.000000 1.852340 
# 
# From -- ./inp_files/31421.got.cif
#   From: 2010.05.17/outbox.cif.g08.bks.cpg/sg66_16_cif.got.tgz:31421.got - 2010.06.03 17:51:23.
