data_PCOD9500821
_publ_section_title
;
Structure prediction by ZEFSAII (Michael W. Deem and Ramdas Pophale) SiO2 
 PCOD9500821
Probable space group: C M M A
;
_chemical_formula_sum "Si O2"
_cell_formula_units_Z 120
_cell_length_a 8.705956
_cell_length_b 27.440315
_cell_length_c 28.603140
_cell_angle_alpha 90.000000
_cell_angle_beta 90.000000
_cell_angle_gamma 90.000000
_cell_volume 6833.123533
_symmetry_space_group_name_H-M "C M M A"
_symmetry_group_IT_number 67
_symmetry_cell_setting 'orthorhombic'
loop_
_space_group_symop_operation_xyz
x,y,z
-x,1/2-y,z
x,-y,-z
-x,1/2+y,-z
-x,-y,-z
x,1/2+y,-z
-x,y,z
x,1/2-y,z
1/2+x,1/2+y,z
1/2-x,-y,z
1/2+x,1/2-y,-z
1/2-x,y,-z
1/2-x,1/2-y,-z
1/2+x,y,-z
1/2-x,1/2+y,z
1/2+x,-y,z
loop_
_atom_site_type_symbol
_atom_site_label
_atom_site_fract_x
_atom_site_fract_y
_atom_site_fract_z
Si Si1 0.316908 0.645153 0.549641
Si Si2 0.314522 0.553797 0.891927
Si Si3 0.314721 0.250000 0.053134
Si Si4 0.683725 0.305514 0.353858
Si Si5 0.685075 0.852990 0.052821
Si Si6 0.817510 0.447661 0.783033
Si Si7 0.681986 0.395929 0.696632
Si Si8 0.315766 0.052798 0.600944
O O1 0.500000 0.641328 0.546313
O O2 0.250000 0.660322 0.500000
O O3 0.278852 0.681247 0.592394
O O4 0.248188 0.593336 0.565708
O O5 0.500000 0.553635 0.896928
O O6 0.250000 0.500000 0.905317
O O7 0.242994 0.598895 0.920230
O O8 0.274233 0.561283 0.837057
O O9 0.500000 0.250000 0.053089
O O10 0.251662 0.301541 0.072944
O O11 0.250000 0.250000 0.000000
O O12 0.500000 0.312723 0.348472
O O13 0.721280 0.250000 0.343815
O O14 0.771051 0.342710 0.320750
O O15 0.500000 0.850817 0.052136
O O16 0.750000 0.856647 0.000000
O O17 0.750000 0.500000 0.769400
O O18 0.757802 0.409549 0.745435
O O19 0.000000 0.449957 0.781065
O O20 0.500000 0.400451 0.701108
O O21 0.732237 0.431053 0.653610
O O22 0.500000 0.052789 0.599085
O O23 0.250000 0.000000 0.590319
#
# Coordination Sequence:
#
# PCOD9500821 Si02
#       8
#    16  16   8  16  16  16  16  16
#     4  10  20  34  51  72  99 130 165 204 247 298
#     4  10  21  37  55  80 112 148 187 228 276 330
#     4  10  18  32  54  80 108 140 182 230 276 324
#     4   9  19  36  56  76 100 132 168 208 256 307
#     4  11  21  35  56  82 112 148 189 235 282 330
#     4  10  20  34  55  80 109 142 176 214 259 311
#     4  10  20  33  53  79 105 132 167 211 256 305
#     4  10  20  33  49  72 100 130 164 203 247 296
#
# _framework density 17.561515
#
# number of rings (size 3 to 8) (size 9 to 14) (size 15 to 20)
#    0.000    2.000    0.000    5.000    0.000    5.867 
#    0.000    2.667    1.467    0.000    0.000    0.000 
#    0.000    0.000    0.000    0.000    0.000    0.000 
#
# Total GULP energy -334872.268819 kJ/mol
# GULP energy per Si atom -5581.204480 kJ/mol
# Density = 1.752154 g / cm^3
# Si number density = 17.561515 Si / 1000 Ang^3
#
#
#
# Elastic Constant Matrix: (Units=GPa)
#
#
# Indices 1 2 3 4 5 6 
#
# 1 75.1669 37.4773 31.9380 0.0000 0.0000 0.0000
# 2 37.4773 73.5916 38.2197 0.0000 0.0000 0.0000
# 3 31.9380 38.2197 65.6504 0.0000 0.0000 0.0000
# 4 0.0000 0.0000 0.0000 5.4822 0.0000 0.0000
# 5 0.0000 0.0000 0.0000 0.0000 26.9152 0.0000
# 6 0.0000 0.0000 0.0000 0.0000 0.0000 30.5102
#
#
#
# Elastic Compliance Matrix: (Units=1/GPa)
#
#
# Indices 1 2 3 4 5 6 
#
# 1 0.018981 -0.006981 -0.005170 0.000000 0.000000 0.000000
# 2 -0.006981 0.022045 -0.009438 0.000000 0.000000 0.000000
# 3 -0.005170 -0.009438 0.023242 0.000000 0.000000 0.000000
# 4 0.000000 0.000000 0.000000 0.182409 0.000000 0.000000
# 5 0.000000 0.000000 0.000000 0.000000 0.037154 0.000000
# 6 0.000000 0.000000 0.000000 0.000000 0.000000 0.032776
#
#
# Mechanical properties :
#
#
# Convention : Reuss Voigt Hill
#
# Bulk Modulus (GPa) = 47.41523 47.74210 47.57867
# Shear Modulus (GPa) = 13.63086 19.69978 16.66532
#
# Velocity S-wave (km/s) = 2.78902 3.35290 3.08387
# Velocity P-wave (km/s) = 6.11798 6.49876 6.31124
#
# Compressibility (1/GPa) = 0.02109027
#
# Stress axis : x y z
#
# Youngs Moduli (GPa) = 52.68377 45.36094 43.02634
#
# Poissons Ratio (x) = 0.31669 0.22243
# Poissons Ratio (y) = 0.36781 0.40607
# Poissons Ratio (z) = 0.27236 0.42811
#
# Static dielectric constant tensor:
#      x y z
#    x 1.612140 0.000000 0.000000 
#    y 0.000000 1.577590 0.000000 
#    z 0.000000 0.000000 1.590630 
# 
# From -- ./inp_files/43889.got.cif
#   From: 2010.05.17/outbox.cif.g08.bks.cpg/sg67_22_cif.got.tgz:43889.got - 2010.06.03 18:28:57.
