data_PCOD9500904
_publ_section_title
;
Structure prediction by ZEFSAII (Michael W. Deem and Ramdas Pophale) SiO2 
 PCOD9500904
Probable space group: C M M A
;
_chemical_formula_sum "Si O2"
_cell_formula_units_Z 120
_cell_length_a 8.724988
_cell_length_b 27.753713
_cell_length_c 30.189341
_cell_angle_alpha 90.000000
_cell_angle_beta 90.000000
_cell_angle_gamma 90.000000
_cell_volume 7310.373463
_symmetry_space_group_name_H-M "C M M A"
_symmetry_group_IT_number 67
_symmetry_cell_setting 'orthorhombic'
loop_
_space_group_symop_operation_xyz
x,y,z
-x,1/2-y,z
x,-y,-z
-x,1/2+y,-z
-x,-y,-z
x,1/2+y,-z
-x,y,z
x,1/2-y,z
1/2+x,1/2+y,z
1/2-x,-y,z
1/2+x,1/2-y,-z
1/2-x,y,-z
1/2-x,1/2-y,-z
1/2+x,y,-z
1/2-x,1/2+y,z
1/2+x,-y,z
loop_
_atom_site_type_symbol
_atom_site_label
_atom_site_fract_x
_atom_site_fract_y
_atom_site_fract_z
Si Si1 0.675731 0.808504 0.045922
Si Si2 0.313915 0.303545 0.690760
Si Si3 0.816214 0.051790 0.723292
Si Si4 0.316310 0.447698 0.380874
Si Si5 0.814655 0.651070 0.600227
Si Si6 0.183000 0.693971 0.139972
Si Si7 0.814659 0.750000 0.549282
Si Si8 0.183950 0.640635 0.776656
O O1 0.500000 0.824212 0.049101
O O2 0.676712 0.750000 0.044049
O O3 0.765322 0.820875 0.090666
O O4 0.750000 0.825642 0.000000
O O5 0.500000 0.303189 0.689813
O O6 0.259073 0.250000 0.681804
O O7 0.265400 0.336970 0.650580
O O8 0.268257 0.320875 0.738999
O O9 0.771498 0.059025 0.671357
O O10 0.748218 0.091333 0.756357
O O11 0.000000 0.052502 0.725340
O O12 0.750000 0.000000 0.735884
O O13 0.500000 0.448990 0.383190
O O14 0.250000 0.500000 0.394307
O O15 0.254298 0.401782 0.408446
O O16 0.769070 0.699220 0.572790
O O17 0.000000 0.647777 0.597949
O O18 0.234120 0.750000 0.147131
O O19 0.252739 0.659088 0.176850
O O20 0.000000 0.693235 0.142724
O O21 0.750000 0.750000 0.500000
O O22 0.000000 0.750000 0.549607
O O23 0.000000 0.638384 0.778480
#
# Coordination Sequence:
#
# PCOD9500904 Si02
#       8
#    16  16  16  16  16  16   8  16
#     4   9  16  27  44  64  86 116 159 206 252 301
#     4   9  16  27  45  69  96 128 168 205 239 286
#     4  10  20  33  48  68  96 128 166 205 249 295
#     4  10  20  33  52  78 107 137 171 214 259 305
#     4  10  18  33  55  78 104 137 175 212 252 303
#     4  10  20  32  44  62  94 132 167 206 249 295
#     4  10  22  38  60  84 112 144 176 214 261 310
#     4  11  20  30  47  68  95 131 168 205 247 296
#
# _framework density 16.415030000000002
#
# number of rings (size 3 to 8) (size 9 to 14) (size 15 to 20)
#    0.000    2.133    2.000    2.400    0.000    4.533 
#    0.000    0.000    0.000    1.200    0.000    2.800 
#    0.000    0.533    0.000    5.333    0.000    3.467 
#
# Total GULP energy -334381.152378 kJ/mol
# GULP energy per Si atom -5573.019206 kJ/mol
# Density = 1.637767 g / cm^3
# Si number density = 16.415030 Si / 1000 Ang^3
#
#
#
# Elastic Constant Matrix: (Units=GPa)
#
#
# Indices 1 2 3 4 5 6 
#
# 1 41.6664 30.8526 21.1726 0.0000 0.0000 0.0000
# 2 30.8526 125.2359 37.1380 0.0000 0.0000 0.0000
# 3 21.1726 37.1380 67.4354 0.0000 0.0000 0.0000
# 4 0.0000 0.0000 0.0000 8.4212 0.0000 0.0000
# 5 0.0000 0.0000 0.0000 0.0000 23.9842 0.0000
# 6 0.0000 0.0000 0.0000 0.0000 0.0000 23.5477
#
#
#
# Elastic Compliance Matrix: (Units=1/GPa)
#
#
# Indices 1 2 3 4 5 6 
#
# 1 0.031742 -0.005814 -0.006764 0.000000 0.000000 0.000000
# 2 -0.005814 0.010608 -0.004017 0.000000 0.000000 0.000000
# 3 -0.006764 -0.004017 0.019165 0.000000 0.000000 0.000000
# 4 0.000000 0.000000 0.000000 0.118749 0.000000 0.000000
# 5 0.000000 0.000000 0.000000 0.000000 0.041694 0.000000
# 6 0.000000 0.000000 0.000000 0.000000 0.000000 0.042467
#
#
# Mechanical properties :
#
#
# Convention : Reuss Voigt Hill
#
# Bulk Modulus (GPa) = 35.30377 45.85155 40.57766
# Shear Modulus (GPa) = 16.28359 20.86892 18.57626
#
# Velocity S-wave (km/s) = 3.15301 3.56944 3.36767
# Velocity P-wave (km/s) = 5.89991 6.70680 6.31625
#
# Compressibility (1/GPa) = 0.02832559
#
# Stress axis : x y z
#
# Youngs Moduli (GPa) = 31.50352 94.26473 52.17869
#
# Poissons Ratio (x) = 0.54806 0.35295
# Poissons Ratio (y) = 0.18316 0.20959
# Poissons Ratio (z) = 0.21310 0.37865
#
# Static dielectric constant tensor:
#      x y z
#    x 1.554370 0.000000 0.000000 
#    y 0.000000 1.570950 0.000000 
#    z 0.000000 0.000000 1.537870 
# 
# From -- ./inp_files/43891.got.cif
#   From: 2010.05.17/outbox.cif.g08.bks.cpg/sg67_22_cif.got.tgz:43891.got - 2010.06.03 18:28:57.
