data_PCOD9500916
_publ_section_title
;
Structure prediction by ZEFSAII (Michael W. Deem and Ramdas Pophale) SiO2 
 PCOD9500916
Probable space group: C M M A
;
_chemical_formula_sum "Si O2"
_cell_formula_units_Z 104
_cell_length_a 7.810566
_cell_length_b 27.830544
_cell_length_c 23.616446
_cell_angle_alpha 90.000000
_cell_angle_beta 90.000000
_cell_angle_gamma 90.000000
_cell_volume 5133.561202
_symmetry_space_group_name_H-M "C M M A"
_symmetry_group_IT_number 67
_symmetry_cell_setting 'orthorhombic'
loop_
_space_group_symop_operation_xyz
x,y,z
-x,1/2-y,z
x,-y,-z
-x,1/2+y,-z
-x,-y,-z
x,1/2+y,-z
-x,y,z
x,1/2-y,z
1/2+x,1/2+y,z
1/2-x,-y,z
1/2+x,1/2-y,-z
1/2-x,y,-z
1/2-x,1/2-y,-z
1/2+x,y,-z
1/2-x,1/2+y,z
1/2+x,-y,z
loop_
_atom_site_type_symbol
_atom_site_label
_atom_site_fract_x
_atom_site_fract_y
_atom_site_fract_z
Si Si1 0.705565 0.947635 0.244111
Si Si2 0.703387 0.945370 0.934203
Si Si3 0.209683 0.194534 0.750828
Si Si4 0.797726 0.948318 0.626250
Si Si5 0.195283 0.128856 0.844700
Si Si6 0.294709 0.155863 0.368689
Si Si7 0.706210 0.750000 0.565559
O O1 0.500000 0.939798 0.242319
O O2 0.769973 0.947732 0.308962
O O3 0.801923 0.909243 0.206580
O O4 0.750000 0.000000 0.220957
O O5 0.500000 0.942656 0.928463
O O6 0.776496 0.901958 0.895802
O O7 0.750000 0.000000 0.917299
O O8 0.750000 0.939730 0.000000
O O9 0.255867 0.250000 0.741747
O O10 0.272344 0.174434 0.811452
O O11 0.268346 0.163585 0.696199
O O12 0.000000 0.192199 0.752085
O O13 0.746644 0.895858 0.604216
O O14 0.000000 0.948673 0.629569
O O15 0.750000 0.000000 0.599833
O O16 0.000000 0.141444 0.860942
O O17 0.500000 0.158725 0.366108
O O18 0.230567 0.201410 0.404329
O O19 0.500000 0.750000 0.571568
O O20 0.750000 0.750000 0.500000
#
# Coordination Sequence:
#
# PCOD9500916 Si02
#       7
#    16  16  16  16  16  16   8
#     4  10  19  28  41  65  99 134 166 199 244 302
#     4  10  20  33  49  70  95 129 170 213 260 312
#     4   9  16  29  51  77 103 133 170 217 264 314
#     4  10  20  32  48  75 110 148 183 217 266 325
#     4  10  19  30  48  72  97 128 169 211 259 311
#     4  10  18  33  57  81 110 147 187 226 271 324
#     4  10  22  38  60  90 116 150 191 230 276 321
#
# _framework density 20.258842000000001
#
# number of rings (size 3 to 8) (size 9 to 14) (size 15 to 20)
#    0.000    2.154    2.308    2.308    0.000    4.308 
#    0.000    0.000    0.000    2.308    0.000    3.231 
#    0.000    0.000    0.000    0.000    0.000    0.615 
#
# Total GULP energy -289803.678603 kJ/mol
# GULP energy per Si atom -5573.147665 kJ/mol
# Density = 2.021273 g / cm^3
# Si number density = 20.258842 Si / 1000 Ang^3
#
#
#
# Elastic Constant Matrix: (Units=GPa)
#
#
# Indices 1 2 3 4 5 6 
#
# 1 38.8529 2.2435 1.8867 0.0000 0.0000 0.0000
# 2 2.2435 151.8425 39.4606 0.0000 0.0000 0.0000
# 3 1.8867 39.4606 67.5161 0.0000 0.0000 0.0000
# 4 0.0000 0.0000 0.0000 20.3036 0.0000 0.0000
# 5 0.0000 0.0000 0.0000 0.0000 -1.5985 0.0000
# 6 0.0000 0.0000 0.0000 0.0000 0.0000 16.3858
#
#
#
# Elastic Compliance Matrix: (Units=1/GPa)
#
#
# Indices 1 2 3 4 5 6 
#
# 1 0.025780 -0.000228 -0.000587 0.000000 0.000000 0.000000
# 2 -0.000228 0.007767 -0.004533 0.000000 0.000000 0.000000
# 3 -0.000587 -0.004533 0.017477 0.000000 0.000000 0.000000
# 4 0.000000 0.000000 0.000000 0.049252 0.000000 0.000000
# 5 0.000000 0.000000 0.000000 0.000000 -0.625606 0.000000
# 6 0.000000 0.000000 0.000000 0.000000 0.000000 0.061028
#
#
# Mechanical properties :
#
#
# Convention : Reuss Voigt Hill
#
# Bulk Modulus (GPa) = 24.79724 38.37702 31.58713
# Shear Modulus (GPa) = -11.35948 21.32624 4.98338
#
# Velocity S-wave (km/s) = -2.37052 3.24804 1.57009
# Velocity P-wave (km/s) = 2.18502 5.74898 4.34886
#
# Compressibility (1/GPa) = 0.04032708
#
# Stress axis : x y z
#
# Youngs Moduli (GPa) = 38.79007 128.74578 57.21733
#
# Poissons Ratio (x) = 0.02940 0.03358
# Poissons Ratio (y) = 0.00886 0.25938
# Poissons Ratio (z) = 0.02277 0.58364
#
# Static dielectric constant tensor:
#      x y z
#    x 1.783370 0.000000 0.000000 
#    y 0.000000 1.803990 0.000000 
#    z 0.000000 0.000000 1.740720 
# 
# From -- ./inp_files/40992.got.cif
#   From: 2010.05.17/outbox.cif.g08.bks.cpg/sg67_21_cif.got.tgz:40992.got - 2010.06.03 18:28:57.
