data_PCOD9500756
_publ_section_title
;
Structure prediction by ZEFSAII (Michael W. Deem and Ramdas Pophale) SiO2 
 PCOD9500756
Probable space group: C M M A
;
_chemical_formula_sum "Si O2"
_cell_formula_units_Z 112
_cell_length_a 30.736538
_cell_length_b 13.830569
_cell_length_c 11.652349
_cell_angle_alpha 90.000000
_cell_angle_beta 90.000000
_cell_angle_gamma 90.000000
_cell_volume 4953.457951
_symmetry_space_group_name_H-M "C M M A"
_symmetry_group_IT_number 67
_symmetry_cell_setting 'orthorhombic'
loop_
_space_group_symop_operation_xyz
x,y,z
-x,1/2-y,z
x,-y,-z
-x,1/2+y,-z
-x,-y,-z
x,1/2+y,-z
-x,y,z
x,1/2-y,z
1/2+x,1/2+y,z
1/2-x,-y,z
1/2+x,1/2-y,-z
1/2-x,y,-z
1/2-x,1/2-y,-z
1/2+x,y,-z
1/2-x,1/2+y,z
1/2+x,-y,z
loop_
_atom_site_type_symbol
_atom_site_label
_atom_site_fract_x
_atom_site_fract_y
_atom_site_fract_z
Si Si1 0.048138 0.053777 0.291939
Si Si2 0.416641 0.366185 0.935753
Si Si3 0.640677 0.530049 0.368950
Si Si4 0.722978 0.366034 0.738567
Si Si5 0.180211 0.133415 0.034992
Si Si6 0.319405 0.866495 0.768374
Si Si7 0.949600 0.858279 0.183182
O O1 0.052388 0.090907 0.160808
O O2 0.093865 0.082011 0.349973
O O3 0.000000 0.081333 0.337221
O O4 0.050514 0.937479 0.282175
O O5 0.420333 0.250000 0.930093
O O6 0.366707 0.394086 0.913557
O O7 0.425432 0.391887 0.067919
O O8 0.643901 0.500000 0.500000
O O9 0.682814 0.592322 0.332728
O O10 0.644962 0.432511 0.292278
O O11 0.720315 0.250000 0.733148
O O12 0.715633 0.395346 0.871839
O O13 0.772760 0.390635 0.710052
O O14 0.181572 0.250000 0.031003
O O15 0.183079 0.105423 0.902719
O O16 0.326314 0.750000 0.761232
O O17 0.934616 0.750000 0.214306
O O18 0.000000 0.851443 0.146916
#
# Coordination Sequence:
#
# PCOD9500756 Si02
#       7
#    16  16  16  16  16  16  16
#     4  11  23  39  60  83 113 158 209 259 309 357
#     4  10  18  31  55  88 126 161 192 233 292 367
#     4  12  27  44  62  86 119 162 216 267 307 357
#     4  10  21  41  66  94 128 162 197 244 307 370
#     4   9  17  33  60  94 130 160 188 232 296 366
#     4  10  22  40  66  97 127 160 199 246 302 371
#     4   9  18  32  52  82 117 151 190 239 296 360
#
# _framework density 22.610468000000001
#
# number of rings (size 3 to 8) (size 9 to 14) (size 15 to 20)
#    0.000    1.857    1.429    2.571    0.000    8.000 
#    0.000    2.857    0.000    0.000    0.000    4.000 
#    0.000    0.000    0.000    0.000    0.000    0.000 
#
# Total GULP energy -312831.027572 kJ/mol
# GULP energy per Si atom -5586.268349 kJ/mol
# Density = 2.255901 g / cm^3
# Si number density = 22.610468 Si / 1000 Ang^3
#
#
#
# Elastic Constant Matrix: (Units=GPa)
#
#
# Indices 1 2 3 4 5 6 
#
# 1 158.0133 13.5108 21.8253 0.0000 0.0000 0.0000
# 2 13.5108 54.7970 -4.8284 0.0000 0.0000 0.0000
# 3 21.8253 -4.8284 49.8249 0.0000 0.0000 0.0000
# 4 0.0000 0.0000 0.0000 16.5862 0.0000 0.0000
# 5 0.0000 0.0000 0.0000 0.0000 9.0741 0.0000
# 6 0.0000 0.0000 0.0000 0.0000 0.0000 25.1501
#
#
#
# Elastic Compliance Matrix: (Units=1/GPa)
#
#
# Indices 1 2 3 4 5 6 
#
# 1 0.006946 -0.001998 -0.003236 0.000000 0.000000 0.000000
# 2 -0.001998 0.018981 0.002715 0.000000 0.000000 0.000000
# 3 -0.003236 0.002715 0.021751 0.000000 0.000000 0.000000
# 4 0.000000 0.000000 0.000000 0.060291 0.000000 0.000000
# 5 0.000000 0.000000 0.000000 0.000000 0.110203 0.000000
# 6 0.000000 0.000000 0.000000 0.000000 0.000000 0.039761
#
#
# Mechanical properties :
#
#
# Convention : Reuss Voigt Hill
#
# Bulk Modulus (GPa) = 23.45274 35.96117 29.70695
# Shear Modulus (GPa) = 18.03839 25.63726 21.83783
#
# Velocity S-wave (km/s) = 2.82758 3.37095 3.11115
# Velocity P-wave (km/s) = 4.58861 5.57586 5.10615
#
# Compressibility (1/GPa) = 0.04263894
#
# Stress axis : x y z
#
# Youngs Moduli (GPa) = 143.95877 52.68430 45.97484
#
# Poissons Ratio (x) = 0.10526 0.14879
# Poissons Ratio (y) = 0.28761 -0.12480
# Poissons Ratio (z) = 0.46591 -0.14302
#
# Static dielectric constant tensor:
#      x y z
#    x 1.859640 0.000000 0.000000 
#    y 0.000000 1.894060 0.000000 
#    z 0.000000 0.000000 1.787850 
# 
# From -- ./inp_files/23833.got.cif
#   From: 2010.05.17/outbox.cif.g08.bks.cpg/sg67_12_cif.got.tgz:23833.got - 2010.06.03 18:28:57.
