data_PCOD9500353
_publ_section_title
;
Structure prediction by ZEFSAII (Michael W. Deem and Ramdas Pophale) SiO2 
 PCOD9500353
Probable space group: C M M A
;
_chemical_formula_sum "Si O2"
_cell_formula_units_Z 56
_cell_length_a 8.582592
_cell_length_b 26.002585
_cell_length_c 15.720383
_cell_angle_alpha 90.000000
_cell_angle_beta 90.000000
_cell_angle_gamma 90.000000
_cell_volume 3508.311240
_symmetry_space_group_name_H-M "C M M A"
_symmetry_group_IT_number 67
_symmetry_cell_setting 'orthorhombic'
loop_
_space_group_symop_operation_xyz
x,y,z
-x,1/2-y,z
x,-y,-z
-x,1/2+y,-z
-x,-y,-z
x,1/2+y,-z
-x,y,z
x,1/2-y,z
1/2+x,1/2+y,z
1/2-x,-y,z
1/2+x,1/2-y,-z
1/2-x,y,-z
1/2-x,1/2-y,-z
1/2+x,y,-z
1/2-x,1/2+y,z
1/2+x,-y,z
loop_
_atom_site_type_symbol
_atom_site_label
_atom_site_fract_x
_atom_site_fract_y
_atom_site_fract_z
Si Si1 0.814106 0.441922 0.266312
Si Si2 0.812836 0.750000 0.404035
Si Si3 0.187945 0.363077 0.596659
Si Si4 0.813962 0.058623 0.912270
O O1 0.750000 0.500000 0.276837
O O2 0.758447 0.406636 0.343590
O O3 0.747225 0.419918 0.177131
O O4 0.000000 0.444142 0.261408
O O5 0.750000 0.750000 0.500000
O O6 0.766100 0.805891 0.368997
O O7 0.000000 0.750000 0.406197
O O8 0.250000 0.367665 0.500000
O O9 0.000000 0.366832 0.595818
O O10 0.000000 0.057781 0.913705
O O11 0.750000 0.000000 0.911636
O O12 0.750000 0.082438 0.000000
#
# Coordination Sequence:
#
# PCOD9500353 Si02
#       4
#    16   8  16  16
#     4  11  21  33  47  68  96 128 160 194 232 279
#     4   8  16  30  50  70  91 116 151 194 236 274
#     4  10  19  33  50  71  95 124 157 194 234 277
#     4  10  17  28  45  66  91 121 154 192 231 274
#
# _framework density 15.962097
#
# number of rings (size 3 to 8) (size 9 to 14) (size 15 to 20)
#    0.000    2.000    0.000    8.571    0.000    1.714 
#    0.000    2.857    0.000    0.000    0.000    1.000 
#    0.000    0.000    0.000    0.000    0.000    0.000 
#
# Total GULP energy -156004.618160 kJ/mol
# GULP energy per Si atom -5571.593506 kJ/mol
# Density = 1.592577 g / cm^3
# Si number density = 15.962097 Si / 1000 Ang^3
#
#
#
# Elastic Constant Matrix: (Units=GPa)
#
#
# Indices 1 2 3 4 5 6 
#
# 1 136.3781 38.0770 51.4353 0.0000 0.0000 0.0000
# 2 38.0770 82.0074 56.3214 0.0000 0.0000 0.0000
# 3 51.4353 56.3214 115.7607 0.0000 0.0000 0.0000
# 4 0.0000 0.0000 0.0000 -1.8382 0.0000 0.0000
# 5 0.0000 0.0000 0.0000 0.0000 82.3227 0.0000
# 6 0.0000 0.0000 0.0000 0.0000 0.0000 12.1687
#
#
#
# Elastic Compliance Matrix: (Units=1/GPa)
#
#
# Indices 1 2 3 4 5 6 
#
# 1 0.009058 -0.002165 -0.002971 0.000000 0.000000 0.000000
# 2 -0.002165 0.018831 -0.008200 0.000000 0.000000 0.000000
# 3 -0.002971 -0.008200 0.013948 0.000000 0.000000 0.000000
# 4 0.000000 0.000000 0.000000 -0.544013 0.000000 0.000000
# 5 0.000000 0.000000 0.000000 0.000000 0.012147 0.000000
# 6 0.000000 0.000000 0.000000 0.000000 0.000000 0.082178
#
#
# Mechanical properties :
#
#
# Convention : Reuss Voigt Hill
#
# Bulk Modulus (GPa) = 65.94330 69.53483 67.73907
# Shear Modulus (GPa) = -13.29350 31.08481 8.89565
#
# Velocity S-wave (km/s) = -2.88899 4.41774 2.36328
# Velocity P-wave (km/s) = 5.50216 8.34739 7.06940
#
# Compressibility (1/GPa) = 0.01516454
#
# Stress axis : x y z
#
# Youngs Moduli (GPa) = 110.40440 53.10460 71.69405
#
# Poissons Ratio (x) = 0.11497 0.21302
# Poissons Ratio (y) = 0.23903 0.58788
# Poissons Ratio (z) = 0.32803 0.43545
#
# Static dielectric constant tensor:
#      x y z
#    x 1.533830 0.000000 0.000000 
#    y 0.000000 1.546540 0.000000 
#    z 0.000000 0.000000 1.556170 
# 
# From -- ./inp_files/15701.got.cif
#   From: 2010.05.17/outbox.cif.g08.bks.cpg/sg67_8_cif.got.tgz:15701.got - 2010.06.03 18:28:57.
