data_PCOD9500893
_publ_section_title
;
Structure prediction by ZEFSAII (Michael W. Deem and Ramdas Pophale) SiO2 
 PCOD9500893
Probable space group: C M M A
;
_chemical_formula_sum "Si O2"
_cell_formula_units_Z 68
_cell_length_a 31.464909
_cell_length_b 20.293903
_cell_length_c 5.318003
_cell_angle_alpha 90.000000
_cell_angle_beta 90.000000
_cell_angle_gamma 90.000000
_cell_volume 3395.788539
_symmetry_space_group_name_H-M "C M M A"
_symmetry_group_IT_number 67
_symmetry_cell_setting 'orthorhombic'
loop_
_space_group_symop_operation_xyz
x,y,z
-x,1/2-y,z
x,-y,-z
-x,1/2+y,-z
-x,-y,-z
x,1/2+y,-z
-x,y,z
x,1/2-y,z
1/2+x,1/2+y,z
1/2-x,-y,z
1/2+x,1/2-y,-z
1/2-x,y,-z
1/2-x,1/2-y,-z
1/2+x,y,-z
1/2-x,1/2+y,z
1/2+x,-y,z
loop_
_atom_site_type_symbol
_atom_site_label
_atom_site_fract_x
_atom_site_fract_y
_atom_site_fract_z
Si Si1 0.679423 0.598723 0.893535
Si Si2 0.700864 0.326041 0.587577
Si Si3 0.250000 0.000000 0.000000
Si Si4 0.584545 0.571756 0.791253
Si Si5 0.549733 0.922965 0.288913
O O1 0.678161 0.650727 0.666725
O O2 0.717515 0.546524 0.847075
O O3 0.633234 0.566259 0.874059
O O4 0.689477 0.630492 0.166706
O O5 0.692321 0.250000 0.650218
O O6 0.750000 0.331252 0.500000
O O7 0.563916 0.499350 0.750986
O O8 0.577057 0.604192 0.520120
O O9 0.560346 0.607404 0.018453
O O10 0.500000 0.920087 0.345902
#
# Coordination Sequence:
#
# PCOD9500893 Si02
#       5
#    16  16   4  16  16
#     4  12  24  38  58  89 120 156 195 236 309 348
#     4  11  23  44  63  79 105 155 219 260 282 329
#     4  12  24  38  54  86 126 162 180 220 296 386
#     4  10  19  31  49  79 114 147 185 240 267 338
#     4  10  18  33  52  77 117 165 191 215 276 358
#
# _framework density 20.024802999999999
#
# number of rings (size 3 to 8) (size 9 to 14) (size 15 to 20)
#    0.000    1.176    2.353    7.059    0.000    5.647 
#    0.000    0.000    0.000    0.000    0.000    0.000 
#    0.000  109.176    0.000    0.000    0.000    0.000 
#
# Total GULP energy -189533.899627 kJ/mol
# GULP energy per Si atom -5574.526460 kJ/mol
# Density = 1.997923 g / cm^3
# Si number density = 20.024803 Si / 1000 Ang^3
#
#
#
# Elastic Constant Matrix: (Units=GPa)
#
#
# Indices 1 2 3 4 5 6 
#
# 1 141.8544 26.1245 36.2660 0.0000 0.0000 0.0000
# 2 26.1245 38.0496 25.2068 0.0000 0.0000 0.0000
# 3 36.2660 25.2068 184.3710 0.0000 0.0000 0.0000
# 4 0.0000 0.0000 0.0000 5.1839 0.0000 0.0000
# 5 0.0000 0.0000 0.0000 0.0000 30.5162 0.0000
# 6 0.0000 0.0000 0.0000 0.0000 0.0000 5.1887
#
#
#
# Elastic Compliance Matrix: (Units=1/GPa)
#
#
# Indices 1 2 3 4 5 6 
#
# 1 0.008212 -0.005023 -0.000929 0.000000 0.000000 0.000000
# 2 -0.005023 0.031971 -0.003383 0.000000 0.000000 0.000000
# 3 -0.000929 -0.003383 0.006069 0.000000 0.000000 0.000000
# 4 0.000000 0.000000 0.000000 0.192907 0.000000 0.000000
# 5 0.000000 0.000000 0.000000 0.000000 0.032770 0.000000
# 6 0.000000 0.000000 0.000000 0.000000 0.000000 0.192725
#
#
# Mechanical properties :
#
#
# Convention : Reuss Voigt Hill
#
# Bulk Modulus (GPa) = 36.25413 59.94108 48.09761
# Shear Modulus (GPa) = 10.15193 26.62294 18.38743
#
# Velocity S-wave (km/s) = 2.25404 3.65018 3.03352
# Velocity P-wave (km/s) = 4.99181 6.91112 6.02834
#
# Compressibility (1/GPa) = 0.02758306
#
# Stress axis : x y z
#
# Youngs Moduli (GPa) = 121.77382 31.27790 164.77142
#
# Poissons Ratio (x) = 0.15711 0.15300
# Poissons Ratio (y) = 0.61168 0.55743
# Poissons Ratio (z) = 0.11307 0.10581
#
# Static dielectric constant tensor:
#      x y z
#    x 1.751210 0.000000 0.000000 
#    y 0.000000 4.811290 0.000000 
#    z 0.000000 0.000000 1.716270 
# 
# From -- ./inp_files/4634.got.cif
#   From: 2010.05.17/outbox.cif.g08.bks.cpg/sg67_3_cif.got.tgz:4634.got - 2010.06.03 18:28:57.
