data_PCOD9500566
_publ_section_title
;
Structure prediction by ZEFSAII (Michael W. Deem and Ramdas Pophale) SiO2 
 PCOD9500566
Probable space group: C M M A
;
_chemical_formula_sum "Si O2"
_cell_formula_units_Z 96
_cell_length_a 18.693290
_cell_length_b 14.412518
_cell_length_c 15.273836
_cell_angle_alpha 90.000000
_cell_angle_beta 90.000000
_cell_angle_gamma 90.000000
_cell_volume 4115.036856
_symmetry_space_group_name_H-M "C M M A"
_symmetry_group_IT_number 67
_symmetry_cell_setting 'orthorhombic'
loop_
_space_group_symop_operation_xyz
x,y,z
-x,1/2-y,z
x,-y,-z
-x,1/2+y,-z
-x,-y,-z
x,1/2+y,-z
-x,y,z
x,1/2-y,z
1/2+x,1/2+y,z
1/2-x,-y,z
1/2+x,1/2-y,-z
1/2-x,y,-z
1/2-x,1/2-y,-z
1/2+x,y,-z
1/2-x,1/2+y,z
1/2+x,-y,z
loop_
_atom_site_type_symbol
_atom_site_label
_atom_site_fract_x
_atom_site_fract_y
_atom_site_fract_z
Si Si1 0.176654 0.105723 0.111954
Si Si2 0.337645 0.614372 0.918736
Si Si3 0.921184 0.862859 0.519222
Si Si4 0.150445 0.361624 0.310897
Si Si5 0.422847 0.357038 0.245575
Si Si6 0.194262 0.636324 0.376962
O O1 0.258343 0.143712 0.113520
O O2 0.143604 0.118563 0.207761
O O3 0.170847 0.996194 0.093134
O O4 0.148267 0.143019 0.018721
O O5 0.399902 0.644403 0.854755
O O6 0.921517 0.750000 0.515593
O O7 0.909202 0.892325 0.619643
O O8 0.851572 0.890839 0.462508
O O9 0.000000 0.892119 0.486429
O O10 0.151604 0.250000 0.315515
O O11 0.226216 0.394710 0.352015
O O12 0.500000 0.401092 0.258546
O O13 0.427340 0.250000 0.275976
O O14 0.357121 0.397610 0.298876
O O15 0.199015 0.750000 0.379866
#
# Coordination Sequence:
#
# PCOD9500566 Si02
#       6
#    16  16  16  16  16  16
#     4   9  18  33  53  73  98 133 175 219 255 305
#     4   9  18  34  52  72  99 134 174 213 259 313
#     4   9  17  29  45  69 105 142 170 204 255 310
#     4  10  18  29  49  79 105 131 174 220 256 301
#     4  10  19  31  50  78 107 132 167 218 269 311
#     4   9  16  28  47  73 102 133 169 210 254 302
#
# _framework density 23.329073999999999
#
# number of rings (size 3 to 8) (size 9 to 14) (size 15 to 20)
#    0.000    2.667    1.667    2.000    0.000    4.667 
#    0.000    5.000    0.000    3.000    0.000    2.333 
#    0.000    0.000    0.000    0.000    0.000    0.000 
#
# Total GULP energy -267654.153423 kJ/mol
# GULP energy per Si atom -5576.128196 kJ/mol
# Density = 2.327598 g / cm^3
# Si number density = 23.329074 Si / 1000 Ang^3
#
#
#
# Elastic Constant Matrix: (Units=GPa)
#
#
# Indices 1 2 3 4 5 6 
#
# 1 76.0914 -2.6781 29.1349 0.0000 0.0000 0.0000
# 2 -2.6781 69.2421 -8.3526 0.0000 0.0000 0.0000
# 3 29.1349 -8.3526 152.8734 0.0000 0.0000 0.0000
# 4 0.0000 0.0000 0.0000 24.7273 0.0000 0.0000
# 5 0.0000 0.0000 0.0000 0.0000 139.6378 0.0000
# 6 0.0000 0.0000 0.0000 0.0000 0.0000 4.6905
#
#
#
# Elastic Compliance Matrix: (Units=1/GPa)
#
#
# Indices 1 2 3 4 5 6 
#
# 1 0.014180 0.000224 -0.002690 0.000000 0.000000 0.000000
# 2 0.000224 0.014541 0.000752 0.000000 0.000000 0.000000
# 3 -0.002690 0.000752 0.007095 0.000000 0.000000 0.000000
# 4 0.000000 0.000000 0.000000 0.040441 0.000000 0.000000
# 5 0.000000 0.000000 0.000000 0.000000 0.007161 0.000000
# 6 0.000000 0.000000 0.000000 0.000000 0.000000 0.213198
#
#
# Mechanical properties :
#
#
# Convention : Reuss Voigt Hill
#
# Bulk Modulus (GPa) = 30.87593 37.15726 34.01659
# Shear Modulus (GPa) = 16.08537 52.48463 34.28500
#
# Velocity S-wave (km/s) = 2.62868 4.74830 3.83773
# Velocity P-wave (km/s) = 4.74099 6.78409 5.85238
#
# Compressibility (1/GPa) = 0.03238769
#
# Stress axis : x y z
#
# Youngs Moduli (GPa) = 70.52169 68.76898 140.94138
#
# Poissons Ratio (x) = -0.01540 0.37916
# Poissons Ratio (y) = -0.01579 -0.10596
# Poissons Ratio (z) = 0.18972 -0.05170
#
# Static dielectric constant tensor:
#      x y z
#    x 1.851220 0.000000 0.000000 
#    y 0.000000 1.969330 0.000000 
#    z 0.000000 0.000000 1.903880 
# 
# From -- ./inp_files/19682.got.cif
#   From: 2010.05.17/outbox.cif.g08.bks.cpg/sg67_10_cif.got.tgz:19682.got - 2010.06.03 18:28:57.
