data_PCOD9500270
_publ_section_title
;
Structure prediction by ZEFSAII (Michael W. Deem and Ramdas Pophale) SiO2 
 PCOD9500270
Probable space group: C M M A
;
_chemical_formula_sum "Si O2"
_cell_formula_units_Z 80
_cell_length_a 14.372054
_cell_length_b 8.214840
_cell_length_c 30.216392
_cell_angle_alpha 90.000000
_cell_angle_beta 90.000000
_cell_angle_gamma 90.000000
_cell_volume 3567.471854
_symmetry_space_group_name_H-M "C M M A"
_symmetry_group_IT_number 67
_symmetry_cell_setting 'orthorhombic'
loop_
_space_group_symop_operation_xyz
x,y,z
-x,1/2-y,z
x,-y,-z
-x,1/2+y,-z
-x,-y,-z
x,1/2+y,-z
-x,y,z
x,1/2-y,z
1/2+x,1/2+y,z
1/2-x,-y,z
1/2+x,1/2-y,-z
1/2-x,y,-z
1/2-x,1/2-y,-z
1/2+x,y,-z
1/2-x,1/2+y,z
1/2+x,-y,z
loop_
_atom_site_type_symbol
_atom_site_label
_atom_site_fract_x
_atom_site_fract_y
_atom_site_fract_z
Si Si1 0.114456 0.250000 0.791329
Si Si2 0.113378 0.562396 0.950830
Si Si3 0.357407 0.441138 0.453404
Si Si4 0.113644 0.750000 0.106236
Si Si5 0.643606 0.942896 0.360146
Si Si6 0.107101 0.934787 0.739843
O O1 0.141221 0.250000 0.842595
O O2 0.147808 0.415142 0.767324
O O3 0.000000 0.250000 0.788777
O O4 0.144758 0.750000 0.943182
O O5 0.143559 0.417621 0.917843
O O6 0.000000 0.567491 0.948836
O O7 0.137736 0.500000 0.000000
O O8 0.397898 0.500000 0.500000
O O9 0.357465 0.250000 0.454859
O O10 0.250000 0.500000 0.452837
O O11 0.397620 0.492580 0.406052
O O12 0.000000 0.750000 0.104336
O O13 0.638567 0.750000 0.363386
O O14 0.605555 0.985762 0.311889
O O15 0.750000 0.000000 0.358869
O O16 0.147053 0.750000 0.743017
O O17 0.000000 0.920543 0.754456
#
# Coordination Sequence:
#
# PCOD9500270 Si02
#       6
#     8  16  16   8  16  16
#     4   9  18  30  46  62  84 117 157 197 228 273
#     4   9  14  20  31  47  72 104 139 181 223 262
#     4  10  17  26  41  62  92 120 145 178 224 277
#     4   9  16  24  34  54  76 104 146 187 224 260
#     4  10  19  30  48  72  95 117 151 194 230 277
#     4   9  19  34  50  67  90 122 158 197 237 277
#
# _framework density 22.424844
#
# number of rings (size 3 to 8) (size 9 to 14) (size 15 to 20)
#    0.000    2.600    1.000    4.200    2.800    0.800 
#    0.000    4.000    0.000    0.600    0.000    0.000 
#    0.000    0.000    0.000    0.000    0.000    3.000 
#
# Total GULP energy -223211.111587 kJ/mol
# GULP energy per Si atom -5580.277790 kJ/mol
# Density = 2.237380 g / cm^3
# Si number density = 22.424844 Si / 1000 Ang^3
#
#
#
# Elastic Constant Matrix: (Units=GPa)
#
#
# Indices 1 2 3 4 5 6 
#
# 1 65.8862 15.2528 7.7934 0.0000 0.0000 0.0000
# 2 15.2528 210.0405 154.6397 0.0000 0.0000 0.0000
# 3 7.7934 154.6397 204.1729 0.0000 0.0000 0.0000
# 4 0.0000 0.0000 0.0000 46.5945 0.0000 0.0000
# 5 0.0000 0.0000 0.0000 0.0000 191.1783 0.0000
# 6 0.0000 0.0000 0.0000 0.0000 0.0000 -6.4206
#
#
#
# Elastic Compliance Matrix: (Units=1/GPa)
#
#
# Indices 1 2 3 4 5 6 
#
# 1 0.015468 -0.001557 0.000589 0.000000 0.000000 0.000000
# 2 -0.001557 0.010919 -0.008211 0.000000 0.000000 0.000000
# 3 0.000589 -0.008211 0.011094 0.000000 0.000000 0.000000
# 4 0.000000 0.000000 0.000000 0.021462 0.000000 0.000000
# 5 0.000000 0.000000 0.000000 0.000000 0.005231 0.000000
# 6 0.000000 0.000000 0.000000 0.000000 0.000000 -0.155749
#
#
# Mechanical properties :
#
#
# Convention : Reuss Voigt Hill
#
# Bulk Modulus (GPa) = 52.28999 92.83015 72.56007
# Shear Modulus (GPa) = -74.80185 66.43136 -4.18524
#
# Velocity S-wave (km/s) = -5.78179 5.44870 -1.36762
# Velocity P-wave (km/s) = 4.60474 9.00391 5.47114
#
# Compressibility (1/GPa) = 0.01912412
#
# Stress axis : x y z
#
# Youngs Moduli (GPa) = 64.64783 91.58416 90.13909
#
# Poissons Ratio (x) = 0.14256 -0.05305
# Poissons Ratio (y) = 0.10063 0.74009
# Poissons Ratio (z) = -0.03805 0.75195
#
# Static dielectric constant tensor:
#      x y z
#    x 1.934170 0.000000 0.000000 
#    y 0.000000 1.791620 0.000000 
#    z 0.000000 0.000000 1.863320 
# 
# From -- ./inp_files/44461.got.cif
#   From: 2010.05.17/outbox.cif.g08.bks.cpg/sg67_23_cif.got.tgz:44461.got - 2010.06.03 18:28:57.
