data_PCOD9500894
_publ_section_title
;
Structure prediction by ZEFSAII (Michael W. Deem and Ramdas Pophale) SiO2 
 PCOD9500894
Probable space group: C M M A
;
_chemical_formula_sum "Si O2"
_cell_formula_units_Z 112
_cell_length_a 15.456472
_cell_length_b 18.910122
_cell_length_c 21.678124
_cell_angle_alpha 90.000000
_cell_angle_beta 90.000000
_cell_angle_gamma 90.000000
_cell_volume 6336.163835
_symmetry_space_group_name_H-M "C M M A"
_symmetry_group_IT_number 67
_symmetry_cell_setting 'orthorhombic'
loop_
_space_group_symop_operation_xyz
x,y,z
-x,1/2-y,z
x,-y,-z
-x,1/2+y,-z
-x,-y,-z
x,1/2+y,-z
-x,y,z
x,1/2-y,z
1/2+x,1/2+y,z
1/2-x,-y,z
1/2+x,1/2-y,-z
1/2-x,y,-z
1/2-x,1/2-y,-z
1/2+x,y,-z
1/2-x,1/2+y,z
1/2+x,-y,z
loop_
_atom_site_type_symbol
_atom_site_label
_atom_site_fract_x
_atom_site_fract_y
_atom_site_fract_z
Si Si1 0.403663 0.064014 0.959648
Si Si2 0.602295 0.407900 0.372224
Si Si3 0.894894 0.169331 0.501743
Si Si4 0.602302 0.923348 0.384137
Si Si5 0.267768 0.916460 0.143957
Si Si6 0.756512 0.085482 0.283738
Si Si7 0.832889 0.830178 0.046521
O O1 0.500000 0.041048 0.942785
O O2 0.352647 0.087002 0.898873
O O3 0.403427 0.128816 0.006999
O O4 0.361673 0.000000 0.000000
O O5 0.500000 0.396070 0.358731
O O6 0.628724 0.362625 0.431949
O O7 0.611711 0.491444 0.388881
O O8 0.666909 0.391226 0.316002
O O9 0.864611 0.250000 0.493381
O O10 0.869905 0.117017 0.446297
O O11 0.000000 0.170477 0.501130
O O12 0.500000 0.909501 0.373395
O O13 0.663203 0.898240 0.328504
O O14 0.272119 0.889593 0.213969
O O15 0.194781 0.874549 0.106180
O O16 0.250000 0.000000 0.146159
O O17 0.750000 0.000000 0.281172
O O18 0.854833 0.750000 0.061582
O O19 0.750000 0.830139 0.000000
#
# Coordination Sequence:
#
# PCOD9500894 Si02
#       7
#    16  16  16  16  16  16  16
#     4  10  19  31  52  82 105 130 170 212 258 306
#     4   9  17  32  51  70  96 130 170 212 256 307
#     4   9  17  30  50  74  98 127 165 214 270 313
#     4   9  17  31  50  71  98 130 168 210 256 310
#     4  10  18  33  53  72 103 138 168 209 253 301
#     4   9  19  32  49  75 101 134 174 208 252 302
#     4   9  18  32  52  74  98 133 169 203 249 302
#
# _framework density 17.676310999999998
#
# number of rings (size 3 to 8) (size 9 to 14) (size 15 to 20)
#    0.000    2.714    1.429    0.429    0.000    3.143 
#    0.000    7.857    0.000    0.000    0.000    2.000 
#    0.000    0.000    0.000    0.000    0.000    0.000 
#
# Total GULP energy -311880.747126 kJ/mol
# GULP energy per Si atom -5569.299056 kJ/mol
# Density = 1.763608 g / cm^3
# Si number density = 17.676311 Si / 1000 Ang^3
#
#
#
# Elastic Constant Matrix: (Units=GPa)
#
#
# Indices 1 2 3 4 5 6 
#
# 1 64.7853 14.6303 49.8838 0.0000 0.0000 0.0000
# 2 14.6303 62.4198 34.4567 0.0000 0.0000 0.0000
# 3 49.8838 34.4567 152.0395 0.0000 0.0000 0.0000
# 4 0.0000 0.0000 0.0000 -3.0874 0.0000 0.0000
# 5 0.0000 0.0000 0.0000 0.0000 16.8142 0.0000
# 6 0.0000 0.0000 0.0000 0.0000 0.0000 6.2724
#
#
#
# Elastic Compliance Matrix: (Units=1/GPa)
#
#
# Indices 1 2 3 4 5 6 
#
# 1 0.020740 -0.001263 -0.006519 0.000000 0.000000 0.000000
# 2 -0.001263 0.018388 -0.003753 0.000000 0.000000 0.000000
# 3 -0.006519 -0.003753 0.009566 0.000000 0.000000 0.000000
# 4 0.000000 0.000000 0.000000 -0.323900 0.000000 0.000000
# 5 0.000000 0.000000 0.000000 0.000000 0.059474 0.000000
# 6 0.000000 0.000000 0.000000 0.000000 0.000000 0.159429
#
#
# Mechanical properties :
#
#
# Convention : Reuss Voigt Hill
#
# Bulk Modulus (GPa) = 39.02286 53.02067 46.02176
# Shear Modulus (GPa) = -202.49311 16.01810 -93.23751
#
# Velocity S-wave (km/s) = -10.71470 3.01357 -7.27060
# Velocity P-wave (km/s) = 11.44329 6.49378 6.66257
#
# Compressibility (1/GPa) = 0.02562601
#
# Stress axis : x y z
#
# Youngs Moduli (GPa) = 48.21615 54.38253 104.53151
#
# Poissons Ratio (x) = 0.06868 0.68139
# Poissons Ratio (y) = 0.06089 0.39231
# Poissons Ratio (z) = 0.31430 0.20410
#
# Static dielectric constant tensor:
#      x y z
#    x 1.629270 0.000000 0.000000 
#    y 0.000000 1.613250 0.000000 
#    z 0.000000 0.000000 1.589470 
# 
# From -- ./inp_files/34401.got.cif
#   From: 2010.05.17/outbox.cif.g08.bks.cpg/sg67_18_cif.got.tgz:34401.got - 2010.06.03 18:28:57.
