data_PCOD9500898
_publ_section_title
;
Structure prediction by ZEFSAII (Michael W. Deem and Ramdas Pophale) SiO2 
 PCOD9500898
Probable space group: C M M A
;
_chemical_formula_sum "Si O2"
_cell_formula_units_Z 104
_cell_length_a 31.088330
_cell_length_b 8.433779
_cell_length_c 20.794410
_cell_angle_alpha 90.000000
_cell_angle_beta 90.000000
_cell_angle_gamma 90.000000
_cell_volume 5452.130124
_symmetry_space_group_name_H-M "C M M A"
_symmetry_group_IT_number 67
_symmetry_cell_setting 'orthorhombic'
loop_
_space_group_symop_operation_xyz
x,y,z
-x,1/2-y,z
x,-y,-z
-x,1/2+y,-z
-x,-y,-z
x,1/2+y,-z
-x,y,z
x,1/2-y,z
1/2+x,1/2+y,z
1/2-x,-y,z
1/2+x,1/2-y,-z
1/2-x,y,-z
1/2-x,1/2-y,-z
1/2+x,y,-z
1/2-x,1/2+y,z
1/2+x,-y,z
loop_
_atom_site_type_symbol
_atom_site_label
_atom_site_fract_x
_atom_site_fract_y
_atom_site_fract_z
Si Si1 0.586042 0.441450 0.137497
Si Si2 0.860207 0.559538 0.317535
Si Si3 0.797714 0.060865 0.428031
Si Si4 0.204257 0.440452 0.208885
Si Si5 0.827426 0.937905 0.927170
Si Si6 0.549885 0.941936 0.721250
Si Si7 0.000000 0.060078 0.929589
O O1 0.592257 0.250000 0.133742
O O2 0.625386 0.520936 0.100547
O O3 0.572623 0.478377 0.210489
O O4 0.543359 0.495410 0.101946
O O5 0.860127 0.750000 0.314365
O O6 0.832079 0.501531 0.377182
O O7 0.834962 0.500716 0.253273
O O8 0.910407 0.507321 0.324422
O O9 0.797231 0.250000 0.427786
O O10 0.806925 0.000000 0.500000
O O11 0.750000 0.000000 0.410711
O O12 0.203123 0.250000 0.209547
O O13 0.250000 0.500000 0.234961
O O14 0.200328 0.497356 0.134338
O O15 0.821836 0.750000 0.931107
O O16 0.820532 0.000000 0.000000
O O17 0.500000 0.000267 0.715710
O O18 0.546467 0.750000 0.717801
O O19 0.000000 0.250000 0.924168
O O20 0.000000 0.000000 0.000000
#
# Coordination Sequence:
#
# PCOD9500898 Si02
#       7
#    16  16  16  16  16  16   8
#     4  10  18  33  54  75 101 137 180 231 287 346
#     4  11  21  36  62  91 122 159 195 236 288 340
#     4  11  22  39  63  94 132 165 200 238 280 337
#     4  11  24  40  58  82 111 145 190 241 292 350
#     4  11  24  39  55  75 103 139 184 237 294 353
#     4   9  17  32  57  86 114 149 193 238 285 342
#     4  10  20  30  46  70 100 132 175 226 285 348
#
# _framework density 19.075113999999999
#
# number of rings (size 3 to 8) (size 9 to 14) (size 15 to 20)
#    0.000    1.538    2.308    4.154    0.000    4.000 
#    0.000    1.538    0.000    4.154    0.000    0.000 
#    0.000    0.000    0.000    0.000    0.000    0.000 
#
# Total GULP energy -289865.593902 kJ/mol
# GULP energy per Si atom -5574.338344 kJ/mol
# Density = 1.903170 g / cm^3
# Si number density = 19.075114 Si / 1000 Ang^3
#
#
#
# Elastic Constant Matrix: (Units=GPa)
#
#
# Indices 1 2 3 4 5 6 
#
# 1 149.0396 18.7930 61.1391 0.0000 0.0000 0.0000
# 2 18.7930 41.3194 17.9919 0.0000 0.0000 0.0000
# 3 61.1391 17.9919 98.3219 0.0000 0.0000 0.0000
# 4 0.0000 0.0000 0.0000 10.5212 0.0000 0.0000
# 5 0.0000 0.0000 0.0000 0.0000 30.4172 0.0000
# 6 0.0000 0.0000 0.0000 0.0000 0.0000 15.2381
#
#
#
# Elastic Compliance Matrix: (Units=1/GPa)
#
#
# Indices 1 2 3 4 5 6 
#
# 1 0.009132 -0.001826 -0.005345 0.000000 0.000000 0.000000
# 2 -0.001826 0.026662 -0.003743 0.000000 0.000000 0.000000
# 3 -0.005345 -0.003743 0.014179 0.000000 0.000000 0.000000
# 4 0.000000 0.000000 0.000000 0.095047 0.000000 0.000000
# 5 0.000000 0.000000 0.000000 0.000000 0.032876 0.000000
# 6 0.000000 0.000000 0.000000 0.000000 0.000000 0.065625
#
#
# Mechanical properties :
#
#
# Convention : Reuss Voigt Hill
#
# Bulk Modulus (GPa) = 35.52979 53.83652 44.68315
# Shear Modulus (GPa) = 18.19958 23.95242 21.07600
#
# Velocity S-wave (km/s) = 3.09220 3.54742 3.32760
# Velocity P-wave (km/s) = 5.60497 6.71294 6.18382
#
# Compressibility (1/GPa) = 0.02814540
#
# Stress axis : x y z
#
# Youngs Moduli (GPa) = 109.50077 37.50610 70.52688
#
# Poissons Ratio (x) = 0.06850 0.37693
# Poissons Ratio (y) = 0.19999 0.26400
# Poissons Ratio (z) = 0.58523 0.14039
#
# Static dielectric constant tensor:
#      x y z
#    x 1.697700 0.000000 0.000000 
#    y 0.000000 1.656530 0.000000 
#    z 0.000000 0.000000 1.687530 
# 
# From -- ./inp_files/37552.got.cif
#   From: 2010.05.17/outbox.cif.g08.bks.cpg/sg67_19_cif.got.tgz:37552.got - 2010.06.03 18:28:57.
