data_PCOD9500603
_publ_section_title
;
Structure prediction by ZEFSAII (Michael W. Deem and Ramdas Pophale) SiO2 
 PCOD9500603
Probable space group: C M M A
;
_chemical_formula_sum "Si O2"
_cell_formula_units_Z 72
_cell_length_a 9.580314
_cell_length_b 24.405040
_cell_length_c 18.254281
_cell_angle_alpha 90.000000
_cell_angle_beta 90.000000
_cell_angle_gamma 90.000000
_cell_volume 4267.995953
_symmetry_space_group_name_H-M "C M M A"
_symmetry_group_IT_number 67
_symmetry_cell_setting 'orthorhombic'
loop_
_space_group_symop_operation_xyz
x,y,z
-x,1/2-y,z
x,-y,-z
-x,1/2+y,-z
-x,-y,-z
x,1/2+y,-z
-x,y,z
x,1/2-y,z
1/2+x,1/2+y,z
1/2-x,-y,z
1/2+x,1/2-y,-z
1/2-x,y,-z
1/2-x,1/2-y,-z
1/2+x,y,-z
1/2-x,1/2+y,z
1/2+x,-y,z
loop_
_atom_site_type_symbol
_atom_site_label
_atom_site_fract_x
_atom_site_fract_y
_atom_site_fract_z
Si Si1 0.158193 0.360735 0.164037
Si Si2 0.000000 0.183753 0.615602
Si Si3 0.000000 0.183859 0.449479
Si Si4 0.671127 0.058395 0.073305
Si Si5 0.337451 0.750000 0.073568
Si Si6 0.792454 0.683931 0.677756
O O1 0.276178 0.403138 0.138925
O O2 0.187690 0.303928 0.121876
O O3 0.158485 0.346635 0.249922
O O4 0.000000 0.379406 0.143760
O O5 0.865683 0.169441 0.661728
O O6 0.000000 0.250000 0.609306
O O7 0.000000 0.162370 0.532074
O O8 0.129222 0.169513 0.397621
O O9 0.000000 0.250000 0.455508
O O10 0.500000 0.054815 0.066605
O O11 0.750000 0.000000 0.083134
O O12 0.750000 0.081158 0.000000
O O13 0.500000 0.750000 0.053441
O O14 0.250000 0.750000 0.000000
O O15 0.809970 0.750000 0.688512
#
# Coordination Sequence:
#
# PCOD9500603 Si02
#       6
#    16   8   8  16   8  16
#     4  11  21  35  54  77 110 147 184 222 266 321
#     4   9  18  28  42  70 103 140 187 229 260 312
#     4   9  16  28  48  66  97 146 189 221 260 316
#     4  11  23  41  63  84 106 136 176 227 278 324
#     4  10  22  36  50  72 103 145 184 216 255 317
#     4  10  18  30  47  71 107 147 184 221 269 313
#
# _framework density 16.869745000000002
#
# number of rings (size 3 to 8) (size 9 to 14) (size 15 to 20)
#    0.000    1.778    2.222    4.000    1.556    5.333 
#    0.000    0.000    0.000    0.000    0.000    0.000 
#    0.000    5.333    0.000    0.000    0.000    0.000 
#
# Total GULP energy -200556.312434 kJ/mol
# GULP energy per Si atom -5571.008679 kJ/mol
# Density = 1.683135 g / cm^3
# Si number density = 16.869745 Si / 1000 Ang^3
#
#
#
# Elastic Constant Matrix: (Units=GPa)
#
#
# Indices 1 2 3 4 5 6 
#
# 1 131.8104 27.6885 28.8145 0.0000 0.0000 0.0000
# 2 27.6885 31.2564 19.5667 0.0000 0.0000 0.0000
# 3 28.8145 19.5667 86.9507 0.0000 0.0000 0.0000
# 4 0.0000 0.0000 0.0000 11.0353 0.0000 0.0000
# 5 0.0000 0.0000 0.0000 0.0000 46.9394 0.0000
# 6 0.0000 0.0000 0.0000 0.0000 0.0000 16.9474
#
#
#
# Elastic Compliance Matrix: (Units=1/GPa)
#
#
# Indices 1 2 3 4 5 6 
#
# 1 0.009477 -0.007483 -0.001457 0.000000 0.000000 0.000000
# 2 -0.007483 0.043149 -0.007230 0.000000 0.000000 0.000000
# 3 -0.001457 -0.007230 0.013610 0.000000 0.000000 0.000000
# 4 0.000000 0.000000 0.000000 0.090618 0.000000 0.000000
# 5 0.000000 0.000000 0.000000 0.000000 0.021304 0.000000
# 6 0.000000 0.000000 0.000000 0.000000 0.000000 0.059006
#
#
# Mechanical properties :
#
#
# Convention : Reuss Voigt Hill
#
# Bulk Modulus (GPa) = 29.50177 44.68413 37.09295
# Shear Modulus (GPa) = 17.80607 26.58093 22.19350
#
# Velocity S-wave (km/s) = 3.25238 3.97376 3.63103
# Velocity P-wave (km/s) = 5.62404 6.89925 6.29402
#
# Compressibility (1/GPa) = 0.03389627
#
# Stress axis : x y z
#
# Youngs Moduli (GPa) = 105.51784 23.17569 73.47311
#
# Poissons Ratio (x) = 0.17343 0.10702
# Poissons Ratio (y) = 0.78964 0.53120
# Poissons Ratio (z) = 0.15370 0.16756
#
# Static dielectric constant tensor:
#      x y z
#    x 1.564180 0.000000 0.000000 
#    y 0.000000 1.566150 0.000000 
#    z 0.000000 0.000000 1.573270 
# 
# From -- ./inp_files/25122.got.cif
#   From: 2010.05.17/outbox.cif.g08.bks.cpg/sg67_13_cif.got.tgz:25122.got - 2010.06.03 18:28:57.
