data_PCOD9500620
_publ_section_title
;
Structure prediction by ZEFSAII (Michael W. Deem and Ramdas Pophale) SiO2 
 PCOD9500620
Probable space group: C M M A
;
_chemical_formula_sum "Si O2"
_cell_formula_units_Z 80
_cell_length_a 8.996538
_cell_length_b 27.330036
_cell_length_c 16.605068
_cell_angle_alpha 90.000000
_cell_angle_beta 90.000000
_cell_angle_gamma 90.000000
_cell_volume 4082.782841
_symmetry_space_group_name_H-M "C M M A"
_symmetry_group_IT_number 67
_symmetry_cell_setting 'orthorhombic'
loop_
_space_group_symop_operation_xyz
x,y,z
-x,1/2-y,z
x,-y,-z
-x,1/2+y,-z
-x,-y,-z
x,1/2+y,-z
-x,y,z
x,1/2-y,z
1/2+x,1/2+y,z
1/2-x,-y,z
1/2+x,1/2-y,-z
1/2-x,y,-z
1/2-x,1/2-y,-z
1/2+x,y,-z
1/2-x,1/2+y,z
1/2+x,-y,z
loop_
_atom_site_type_symbol
_atom_site_label
_atom_site_fract_x
_atom_site_fract_y
_atom_site_fract_z
Si Si1 0.669570 0.807315 0.346500
Si Si2 0.678697 0.649288 0.088597
Si Si3 0.821457 0.112792 0.760712
Si Si4 0.819823 0.250000 0.910505
Si Si5 0.334131 0.952379 0.617110
Si Si6 0.750000 0.131990 0.500000
O O1 0.500000 0.811228 0.315617
O O2 0.708987 0.750000 0.351322
O O3 0.776455 0.838432 0.289088
O O4 0.673982 0.832695 0.434624
O O5 0.500000 0.652732 0.082668
O O6 0.735299 0.611247 0.155017
O O7 0.750533 0.700083 0.121974
O O8 0.750000 0.641001 0.000000
O O9 0.772708 0.069485 0.700486
O O10 0.000000 0.111702 0.771905
O O11 0.000000 0.250000 0.910285
O O12 0.750000 0.250000 0.000000
O O13 0.500000 0.968667 0.632773
O O14 0.337437 0.906930 0.555427
O O15 0.250000 0.000000 0.588301
#
# Coordination Sequence:
#
# PCOD9500620 Si02
#       6
#    16  16  16   8  16   8
#     4  10  21  36  55  80 113 153 195 236 277 330
#     4  11  21  35  56  82 113 150 191 235 280 331
#     4  10  22  39  56  80 113 150 191 234 285 343
#     4  10  18  30  48  74 108 145 184 227 270 316
#     4  10  22  38  59  84 111 143 183 233 290 345
#     4  10  20  36  58  84 114 148 188 232 282 340
#
# _framework density 19.594477999999999
#
# number of rings (size 3 to 8) (size 9 to 14) (size 15 to 20)
#    0.000    1.800    0.000    5.700    1.400    6.800 
#    0.000    0.000    0.000    0.600    0.000    4.200 
#    0.000    0.000    0.000    0.000    0.000    0.000 
#
# Total GULP energy -222945.543689 kJ/mol
# GULP energy per Si atom -5573.638592 kJ/mol
# Density = 1.954988 g / cm^3
# Si number density = 19.594478 Si / 1000 Ang^3
#
#
#
# Elastic Constant Matrix: (Units=GPa)
#
#
# Indices 1 2 3 4 5 6 
#
# 1 111.5236 28.4914 39.3309 0.0000 0.0000 0.0000
# 2 28.4914 85.5557 28.3290 0.0000 0.0000 0.0000
# 3 39.3309 28.3290 119.1896 0.0000 0.0000 0.0000
# 4 0.0000 0.0000 0.0000 12.7136 0.0000 0.0000
# 5 0.0000 0.0000 0.0000 0.0000 13.9216 0.0000
# 6 0.0000 0.0000 0.0000 0.0000 0.0000 8.9766
#
#
#
# Elastic Compliance Matrix: (Units=1/GPa)
#
#
# Indices 1 2 3 4 5 6 
#
# 1 0.010650 -0.002587 -0.002900 0.000000 0.000000 0.000000
# 2 -0.002587 0.013315 -0.002311 0.000000 0.000000 0.000000
# 3 -0.002900 -0.002311 0.009896 0.000000 0.000000 0.000000
# 4 0.000000 0.000000 0.000000 0.078656 0.000000 0.000000
# 5 0.000000 0.000000 0.000000 0.000000 0.071831 0.000000
# 6 0.000000 0.000000 0.000000 0.000000 0.000000 0.111401
#
#
# Mechanical properties :
#
#
# Convention : Reuss Voigt Hill
#
# Bulk Modulus (GPa) = 54.74495 56.50792 55.62644
# Shear Modulus (GPa) = 15.75136 21.79686 18.77411
#
# Velocity S-wave (km/s) = 2.83833 3.33888 3.09873
# Velocity P-wave (km/s) = 6.22424 6.61555 6.42287
#
# Compressibility (1/GPa) = 0.01826653
#
# Stress axis : x y z
#
# Youngs Moduli (GPa) = 93.89576 75.10372 101.04943
#
# Poissons Ratio (x) = 0.19426 0.29300
# Poissons Ratio (y) = 0.24286 0.23354
# Poissons Ratio (z) = 0.27226 0.17358
#
# Static dielectric constant tensor:
#      x y z
#    x 1.681030 0.000000 0.000000 
#    y 0.000000 1.764520 0.000000 
#    z 0.000000 0.000000 1.790610 
# 
# From -- ./inp_files/32163.got.cif
#   From: 2010.05.17/outbox.cif.g08.bks.cpg/sg67_17_cif.got.tgz:32163.got - 2010.06.03 18:28:57.
