data_PCOD9500335
_publ_section_title
;
Structure prediction by ZEFSAII (Michael W. Deem and Ramdas Pophale) SiO2 
 PCOD9500335
Probable space group: C M M A
;
_chemical_formula_sum "Si O2"
_cell_formula_units_Z 96
_cell_length_a 18.671805
_cell_length_b 8.736331
_cell_length_c 32.464929
_cell_angle_alpha 90.000000
_cell_angle_beta 90.000000
_cell_angle_gamma 90.000000
_cell_volume 5295.778848
_symmetry_space_group_name_H-M "C M M A"
_symmetry_group_IT_number 67
_symmetry_cell_setting 'orthorhombic'
loop_
_space_group_symop_operation_xyz
x,y,z
-x,1/2-y,z
x,-y,-z
-x,1/2+y,-z
-x,-y,-z
x,1/2+y,-z
-x,y,z
x,1/2-y,z
1/2+x,1/2+y,z
1/2-x,-y,z
1/2+x,1/2-y,-z
1/2-x,y,-z
1/2-x,1/2-y,-z
1/2+x,y,-z
1/2-x,1/2+y,z
1/2+x,-y,z
loop_
_atom_site_type_symbol
_atom_site_label
_atom_site_fract_x
_atom_site_fract_y
_atom_site_fract_z
Si Si1 0.330193 0.432583 0.120652
Si Si2 0.085874 0.930419 0.955793
Si Si3 0.415577 0.067590 0.543483
Si Si4 0.830818 0.433446 0.710916
Si Si5 0.331213 0.567009 0.205559
Si Si6 0.830073 0.066912 0.619927
O O1 0.326226 0.250000 0.124274
O O2 0.250000 0.500000 0.116056
O O3 0.375563 0.483520 0.081355
O O4 0.362310 0.502760 0.162932
O O5 0.103015 0.750000 0.954407
O O6 0.000000 0.947336 0.951955
O O7 0.106931 0.000000 0.000000
O O8 0.500000 0.030280 0.546628
O O9 0.407510 0.250000 0.542837
O O10 0.389108 0.000000 0.500000
O O11 0.375401 0.999192 0.582569
O O12 0.827835 0.250000 0.715840
O O13 0.750000 0.500000 0.709196
O O14 0.864914 0.506988 0.751741
O O15 0.861284 0.469678 0.665585
O O16 0.328858 0.750000 0.205107
O O17 0.250000 0.500000 0.205682
O O18 0.826159 0.250000 0.616941
O O19 0.750000 0.000000 0.617654
#
# Coordination Sequence:
#
# PCOD9500335 Si02
#       6
#    16  16  16  16  16  16
#     4  11  21  34  53  78 108 138 173 215 259 303
#     4  10  21  38  58  79 104 135 172 211 255 309
#     4  10  21  37  56  76 100 132 170 210 254 307
#     4   9  16  27  44  69 100 133 167 204 248 298
#     4  10  17  27  45  70 101 135 170 208 252 301
#     4  10  20  33  52  78 107 136 169 211 255 300
#
# _framework density 18.127645999999999
#
# number of rings (size 3 to 8) (size 9 to 14) (size 15 to 20)
#    0.000    2.000    0.000    7.000    0.000    4.667 
#    0.000    3.333    0.000    1.000    0.000    4.667 
#    0.000    0.000    0.000    0.000    0.000    0.000 
#
# Total GULP energy -267778.656562 kJ/mol
# GULP energy per Si atom -5578.722012 kJ/mol
# Density = 1.808639 g / cm^3
# Si number density = 18.127646 Si / 1000 Ang^3
#
#
#
# Elastic Constant Matrix: (Units=GPa)
#
#
# Indices 1 2 3 4 5 6 
#
# 1 17.8169 30.8236 45.9794 0.0000 0.0000 0.0000
# 2 30.8236 128.4082 87.5499 0.0000 0.0000 0.0000
# 3 45.9794 87.5499 219.4948 0.0000 0.0000 0.0000
# 4 0.0000 0.0000 0.0000 35.7946 0.0000 0.0000
# 5 0.0000 0.0000 0.0000 0.0000 -46.3717 0.0000
# 6 0.0000 0.0000 0.0000 0.0000 0.0000 19.9956
#
#
#
# Elastic Compliance Matrix: (Units=1/GPa)
#
#
# Indices 1 2 3 4 5 6 
#
# 1 0.153417 -0.020487 -0.023966 0.000000 0.000000 0.000000
# 2 -0.020487 0.013432 -0.001066 0.000000 0.000000 0.000000
# 3 -0.023966 -0.001066 0.010002 0.000000 0.000000 0.000000
# 4 0.000000 0.000000 0.000000 0.027937 0.000000 0.000000
# 5 0.000000 0.000000 0.000000 0.000000 -0.021565 0.000000
# 6 0.000000 0.000000 0.000000 0.000000 0.000000 0.050011
#
#
# Mechanical properties :
#
#
# Convention : Reuss Voigt Hill
#
# Bulk Modulus (GPa) = 11.65325 77.15842 44.40583
# Shear Modulus (GPa) = 14.16929 15.30817 14.73873
#
# Velocity S-wave (km/s) = 2.79881 2.90912 2.85450
# Velocity P-wave (km/s) = 4.10936 7.34441 5.95093
#
# Compressibility (1/GPa) = 0.08581300
#
# Stress axis : x y z
#
# Youngs Moduli (GPa) = 6.51819 74.44720 99.98431
#
# Poissons Ratio (x) = 1.52517 2.39622
# Poissons Ratio (y) = 0.13354 0.10661
# Poissons Ratio (z) = 0.15621 0.07938
#
# Static dielectric constant tensor:
#      x y z
#    x 1.594810 0.000000 0.000000 
#    y 0.000000 1.601230 0.000000 
#    z 0.000000 0.000000 1.668670 
# 
# From -- ./inp_files/44624.got.cif
#   From: 2010.05.17/outbox.cif.g08.bks.cpg/sg67_23_cif.got.tgz:44624.got - 2010.06.03 18:28:57.
