data_PCOD9500694
_publ_section_title
;
Structure prediction by ZEFSAII (Michael W. Deem and Ramdas Pophale) SiO2 
 PCOD9500694
Probable space group: C M M A
;
_chemical_formula_sum "Si O2"
_cell_formula_units_Z 56
_cell_length_a 19.336418
_cell_length_b 8.885501
_cell_length_c 19.852978
_cell_angle_alpha 90.000000
_cell_angle_beta 90.000000
_cell_angle_gamma 90.000000
_cell_volume 3411.014827
_symmetry_space_group_name_H-M "C M M A"
_symmetry_group_IT_number 67
_symmetry_cell_setting 'orthorhombic'
loop_
_space_group_symop_operation_xyz
x,y,z
-x,1/2-y,z
x,-y,-z
-x,1/2+y,-z
-x,-y,-z
x,1/2+y,-z
-x,y,z
x,1/2-y,z
1/2+x,1/2+y,z
1/2-x,-y,z
1/2+x,1/2-y,-z
1/2-x,y,-z
1/2-x,1/2-y,-z
1/2+x,y,-z
1/2-x,1/2+y,z
1/2+x,-y,z
loop_
_atom_site_type_symbol
_atom_site_label
_atom_site_fract_x
_atom_site_fract_y
_atom_site_fract_z
Si Si1 0.500000 0.072242 0.073265
Si Si2 0.918506 0.070331 0.573112
Si Si3 0.673796 0.068416 0.691048
Si Si4 0.423458 0.573348 0.188074
O O1 0.500000 0.250000 0.068358
O O2 0.564938 0.015645 0.118662
O O3 0.500000 0.000000 0.000000
O O4 0.907379 0.250000 0.571837
O O5 0.000000 0.043092 0.586973
O O6 0.903228 0.000000 0.500000
O O7 0.871492 0.994219 0.629547
O O8 0.675897 0.250000 0.688363
O O9 0.634926 0.023673 0.760428
O O10 0.750000 0.000000 0.688588
O O11 0.500000 0.558987 0.221974
O O12 0.413822 0.750000 0.172858
#
# Coordination Sequence:
#
# PCOD9500694 Si02
#       4
#     8  16  16  16
#     4  10  18  30  54  84 111 136 171 216 258 306
#     4  10  21  37  57  80 105 136 178 225 272 322
#     4  11  22  36  54  77 109 144 179 221 267 317
#     4   8  17  34  53  76 105 138 174 213 260 310
#
# _framework density 16.417401999999999
#
# number of rings (size 3 to 8) (size 9 to 14) (size 15 to 20)
#    0.857    1.429    0.000    3.429    0.000    5.714 
#    0.000    2.857    0.000    0.857    0.000    6.000 
#    0.000    0.000    0.000    0.000    0.000    0.000 
#
# Total GULP energy -155985.825035 kJ/mol
# GULP energy per Si atom -5570.922323 kJ/mol
# Density = 1.638004 g / cm^3
# Si number density = 16.417402 Si / 1000 Ang^3
#
#
#
# Elastic Constant Matrix: (Units=GPa)
#
#
# Indices 1 2 3 4 5 6 
#
# 1 92.5966 61.4742 87.3284 0.0000 0.0000 0.0000
# 2 61.4742 89.0916 80.3177 0.0000 0.0000 0.0000
# 3 87.3284 80.3177 161.3982 0.0000 0.0000 0.0000
# 4 0.0000 0.0000 0.0000 29.6771 0.0000 0.0000
# 5 0.0000 0.0000 0.0000 0.0000 0.3913 0.0000
# 6 0.0000 0.0000 0.0000 0.0000 0.0000 22.7647
#
#
#
# Elastic Compliance Matrix: (Units=1/GPa)
#
#
# Indices 1 2 3 4 5 6 
#
# 1 0.025815 -0.009468 -0.009256 0.000000 0.000000 0.000000
# 2 -0.009468 0.023830 -0.006736 0.000000 0.000000 0.000000
# 3 -0.009256 -0.006736 0.014556 0.000000 0.000000 0.000000
# 4 0.000000 0.000000 0.000000 0.033696 0.000000 0.000000
# 5 0.000000 0.000000 0.000000 0.000000 2.555274 0.000000
# 6 0.000000 0.000000 0.000000 0.000000 0.000000 0.043928
#
#
# Mechanical properties :
#
#
# Convention : Reuss Voigt Hill
#
# Bulk Modulus (GPa) = 75.29534 89.03634 82.16584
# Shear Modulus (GPa) = 1.81657 18.16435 9.99046
#
# Velocity S-wave (km/s) = 1.05304 3.32988 2.46951
# Velocity P-wave (km/s) = 6.88776 8.31473 7.63466
#
# Compressibility (1/GPa) = 0.01328103
#
# Stress axis : x y z
#
# Youngs Moduli (GPa) = 38.73774 41.96435 68.70010
#
# Poissons Ratio (x) = 0.39731 0.63589
# Poissons Ratio (y) = 0.36676 0.46275
# Poissons Ratio (z) = 0.35856 0.28266
#
# Static dielectric constant tensor:
#      x y z
#    x 1.541630 0.000000 0.000000 
#    y 0.000000 1.549320 0.000000 
#    z 0.000000 0.000000 1.533320 
# 
# From -- ./inp_files/31702.got.cif
#   From: 2010.05.17/outbox.cif.g08.bks.cpg/sg67_16_cif.got.tgz:31702.got - 2010.06.03 18:28:57.
