data_PCOD9500952
_publ_section_title
;
Structure prediction by ZEFSAII (Michael W. Deem and Ramdas Pophale) SiO2 
 PCOD9500952
Probable space group: C M M A
;
_chemical_formula_sum "Si O2"
_cell_formula_units_Z 60
_cell_length_a 22.471249
_cell_length_b 13.942341
_cell_length_c 9.999052
_cell_angle_alpha 90.000000
_cell_angle_beta 90.000000
_cell_angle_gamma 90.000000
_cell_volume 3132.721152
_symmetry_space_group_name_H-M "C M M A"
_symmetry_group_IT_number 67
_symmetry_cell_setting 'orthorhombic'
loop_
_space_group_symop_operation_xyz
x,y,z
-x,1/2-y,z
x,-y,-z
-x,1/2+y,-z
-x,-y,-z
x,1/2+y,-z
-x,y,z
x,1/2-y,z
1/2+x,1/2+y,z
1/2-x,-y,z
1/2+x,1/2-y,-z
1/2-x,y,-z
1/2-x,1/2-y,-z
1/2+x,y,-z
1/2-x,1/2+y,z
1/2+x,-y,z
loop_
_atom_site_type_symbol
_atom_site_label
_atom_site_fract_x
_atom_site_fract_y
_atom_site_fract_z
Si Si1 0.862226 0.750000 0.724251
Si Si2 0.878234 0.428253 0.873871
Si Si3 0.000000 0.888291 0.030190
Si Si4 0.000000 0.250000 0.219293
Si Si5 0.818069 0.750000 0.027939
Si Si6 0.183662 0.960790 0.650171
O O1 0.829943 0.653385 0.667535
O O2 0.935207 0.750000 0.706027
O O3 0.853290 0.750000 0.886262
O O4 0.940724 0.373063 0.886118
O O5 0.831211 0.344921 0.890141
O O6 0.865355 0.489111 0.743712
O O7 0.873272 0.500000 0.000000
O O8 0.000000 0.837461 0.887105
O O9 0.000000 0.000000 0.000000
O O10 0.750000 0.750000 0.000000
O O11 0.176672 0.000000 0.500000
O O12 0.250000 0.000000 0.692097
#
# Coordination Sequence:
#
# PCOD9500952 Si02
#       6
#     8  16   8   4   8  16
#     4  12  22  44  67  95 133 179 224 269 346 397
#     4  11  21  37  61  93 123 162 221 267 325 386
#     4  10  18  34  58  89 126 159 205 266 323 377
#     4  12  20  40  66 104 134 180 210 276 350 394
#     4  12  22  33  62  94 127 162 208 282 320 384
#     4  11  26  44  65  94 138 183 222 274 337 404
#
# _framework density 19.152678000000002
#
# number of rings (size 3 to 8) (size 9 to 14) (size 15 to 20)
#    0.000    0.800    5.333    3.200    0.000    3.200 
#    0.000    2.667    0.000    0.000    0.000    0.000 
#    0.000    0.000    0.000    0.000    0.000    0.000 
#
# Total GULP energy -167244.933973 kJ/mol
# GULP energy per Si atom -5574.831132 kJ/mol
# Density = 1.910909 g / cm^3
# Si number density = 19.152678 Si / 1000 Ang^3
#
#
#
# Elastic Constant Matrix: (Units=GPa)
#
#
# Indices 1 2 3 4 5 6 
#
# 1 122.5978 37.3639 0.6058 0.0000 0.0000 0.0000
# 2 37.3639 160.5030 25.2228 0.0000 0.0000 0.0000
# 3 0.6058 25.2228 63.2818 0.0000 0.0000 0.0000
# 4 0.0000 0.0000 0.0000 16.1831 0.0000 0.0000
# 5 0.0000 0.0000 0.0000 0.0000 -0.8021 0.0000
# 6 0.0000 0.0000 0.0000 0.0000 0.0000 24.2262
#
#
#
# Elastic Compliance Matrix: (Units=1/GPa)
#
#
# Indices 1 2 3 4 5 6 
#
# 1 0.008816 -0.002175 0.000783 0.000000 0.000000 0.000000
# 2 -0.002175 0.007183 -0.002842 0.000000 0.000000 0.000000
# 3 0.000783 -0.002842 0.016928 0.000000 0.000000 0.000000
# 4 0.000000 0.000000 0.000000 0.061793 0.000000 0.000000
# 5 0.000000 0.000000 0.000000 0.000000 -1.246753 0.000000
# 6 0.000000 0.000000 0.000000 0.000000 0.000000 0.041278
#
#
# Mechanical properties :
#
#
# Convention : Reuss Voigt Hill
#
# Bulk Modulus (GPa) = 40.88796 52.52972 46.70884
# Shear Modulus (GPa) = -4.56983 26.80078 11.11547
#
# Velocity S-wave (km/s) = -1.54634 3.74481 2.41168
# Velocity P-wave (km/s) = 4.26691 6.79592 5.67411
#
# Compressibility (1/GPa) = 0.02445708
#
# Stress axis : x y z
#
# Youngs Moduli (GPa) = 113.43229 139.20854 59.07458
#
# Poissons Ratio (x) = 0.30281 -0.04623
# Poissons Ratio (y) = 0.24674 0.16791
# Poissons Ratio (z) = -0.08877 0.39568
#
# Static dielectric constant tensor:
#      x y z
#    x 1.774170 0.000000 0.000000 
#    y 0.000000 1.650850 0.000000 
#    z 0.000000 0.000000 1.651670 
# 
# From -- ./inp_files/7934.got.cif
#   From: 2010.05.17/outbox.cif.g08.bks.cpg/sg67_4_cif.got.tgz:7934.got - 2010.06.03 18:28:57.
