data_PCOD9500932
_publ_section_title
;
Structure prediction by ZEFSAII (Michael W. Deem and Ramdas Pophale) SiO2 
 PCOD9500932
Probable space group: C M M A
;
_chemical_formula_sum "Si O2"
_cell_formula_units_Z 80
_cell_length_a 26.485388
_cell_length_b 9.936369
_cell_length_c 17.770393
_cell_angle_alpha 90.000000
_cell_angle_beta 90.000000
_cell_angle_gamma 90.000000
_cell_volume 4676.609239
_symmetry_space_group_name_H-M "C M M A"
_symmetry_group_IT_number 67
_symmetry_cell_setting 'orthorhombic'
loop_
_space_group_symop_operation_xyz
x,y,z
-x,1/2-y,z
x,-y,-z
-x,1/2+y,-z
-x,-y,-z
x,1/2+y,-z
-x,y,z
x,1/2-y,z
1/2+x,1/2+y,z
1/2-x,-y,z
1/2+x,1/2-y,-z
1/2-x,y,-z
1/2-x,1/2-y,-z
1/2+x,y,-z
1/2-x,1/2+y,z
1/2+x,-y,z
loop_
_atom_site_type_symbol
_atom_site_label
_atom_site_fract_x
_atom_site_fract_y
_atom_site_fract_z
Si Si1 0.605229 0.250000 0.929472
Si Si2 0.345502 0.524796 0.271090
Si Si3 0.199861 0.250000 0.163387
Si Si4 0.698275 0.086916 0.570206
Si Si5 0.586116 0.750000 0.894222
Si Si6 0.313461 0.250000 0.202448
Si Si7 0.942815 0.526223 0.823739
O O1 0.665349 0.250000 0.911374
O O2 0.580819 0.375657 0.886205
O O3 0.591214 0.250000 0.016328
O O4 0.317406 0.623184 0.212970
O O5 0.335066 0.572077 0.355229
O O6 0.321755 0.379374 0.254799
O O7 0.404092 0.526503 0.246260
O O8 0.259931 0.250000 0.160593
O O9 0.705685 0.250000 0.556464
O O10 0.676372 0.000000 0.500000
O O11 0.750000 0.000000 0.584836
O O12 0.642192 0.750000 0.858841
O O13 0.559039 0.619564 0.861590
O O14 0.000000 0.564315 0.804692
#
# Coordination Sequence:
#
# PCOD9500932 Si02
#       7
#     8  16   8  16   8   8  16
#     4  10  21  33  52  78 105 135 174 226 269 330
#     4  10  21  34  53  77 105 139 180 220 256 312
#     4  10  18  34  50  74 105 139 181 212 261 314
#     4  11  22  35  55  84 117 146 175 209 255 311
#     4  10  21  35  50  78 107 133 178 222 277 322
#     4  10  20  32  52  74 103 147 177 216 261 316
#     4  10  21  37  55  76 101 136 181 226 273 315
#
# _framework density 17.106411000000001
#
# number of rings (size 3 to 8) (size 9 to 14) (size 15 to 20)
#    0.000    1.800    1.000    4.200    2.800    2.800 
#    0.000    0.000    0.000    7.800    0.000    0.000 
#    0.000    0.000    0.000    0.000    0.000    0.000 
#
# Total GULP energy -223008.571808 kJ/mol
# GULP energy per Si atom -5575.214295 kJ/mol
# Density = 1.706748 g / cm^3
# Si number density = 17.106411 Si / 1000 Ang^3
#
#
#
# Elastic Constant Matrix: (Units=GPa)
#
#
# Indices 1 2 3 4 5 6 
#
# 1 114.7713 10.3782 22.5485 0.0000 0.0000 0.0000
# 2 10.3782 132.4090 19.5430 0.0000 0.0000 0.0000
# 3 22.5485 19.5430 90.5657 0.0000 0.0000 0.0000
# 4 0.0000 0.0000 0.0000 28.7505 0.0000 0.0000
# 5 0.0000 0.0000 0.0000 0.0000 4.7034 0.0000
# 6 0.0000 0.0000 0.0000 0.0000 0.0000 15.6336
#
#
#
# Elastic Compliance Matrix: (Units=1/GPa)
#
#
# Indices 1 2 3 4 5 6 
#
# 1 0.009181 -0.000395 -0.002201 0.000000 0.000000 0.000000
# 2 -0.000395 0.007818 -0.001589 0.000000 0.000000 0.000000
# 3 -0.002201 -0.001589 0.011932 0.000000 0.000000 0.000000
# 4 0.000000 0.000000 0.000000 0.034782 0.000000 0.000000
# 5 0.000000 0.000000 0.000000 0.000000 0.212612 0.000000
# 6 0.000000 0.000000 0.000000 0.000000 0.000000 0.063965
#
#
# Mechanical properties :
#
#
# Convention : Reuss Voigt Hill
#
# Bulk Modulus (GPa) = 48.63110 49.18727 48.90918
# Shear Modulus (GPa) = 14.06420 28.83591 21.45006
#
# Velocity S-wave (km/s) = 2.87044 4.11016 3.54491
# Velocity P-wave (km/s) = 6.28301 7.16524 6.73858
#
# Compressibility (1/GPa) = 0.02056297
#
# Stress axis : x y z
#
# Youngs Moduli (GPa) = 108.92020 127.91345 83.80519
#
# Poissons Ratio (x) = 0.05050 0.18443
# Poissons Ratio (y) = 0.04300 0.13314
# Poissons Ratio (z) = 0.23969 0.20321
#
# Static dielectric constant tensor:
#      x y z
#    x 1.589710 0.000000 0.000000 
#    y 0.000000 1.421350 0.000000 
#    z 0.000000 0.000000 1.557750 
# 
# From -- ./inp_files/35829.got.cif
#   From: 2010.05.17/outbox.cif.g08.bks.cpg/sg67_18_cif.got.tgz:35829.got - 2010.06.03 18:28:57.
