data_PCOD9500876
_publ_section_title
;
Structure prediction by ZEFSAII (Michael W. Deem and Ramdas Pophale) SiO2 
 PCOD9500876
Probable space group: C M M A
;
_chemical_formula_sum "Si O2"
_cell_formula_units_Z 128
_cell_length_a 25.555368
_cell_length_b 17.830643
_cell_length_c 15.847053
_cell_angle_alpha 90.000000
_cell_angle_beta 90.000000
_cell_angle_gamma 90.000000
_cell_volume 7221.005145
_symmetry_space_group_name_H-M "C M M A"
_symmetry_group_IT_number 67
_symmetry_cell_setting 'orthorhombic'
loop_
_space_group_symop_operation_xyz
x,y,z
-x,1/2-y,z
x,-y,-z
-x,1/2+y,-z
-x,-y,-z
x,1/2+y,-z
-x,y,z
x,1/2-y,z
1/2+x,1/2+y,z
1/2-x,-y,z
1/2+x,1/2-y,-z
1/2-x,y,-z
1/2-x,1/2-y,-z
1/2+x,y,-z
1/2-x,1/2+y,z
1/2+x,-y,z
loop_
_atom_site_type_symbol
_atom_site_label
_atom_site_fract_x
_atom_site_fract_y
_atom_site_fract_z
Si Si1 0.612215 0.043910 0.412303
Si Si2 0.285281 0.934557 0.856622
Si Si3 0.789375 0.661566 0.747830
Si Si4 0.440629 0.836389 0.688737
Si Si5 0.768525 0.586557 0.408259
Si Si6 0.134535 0.533524 0.758952
Si Si7 0.884729 0.838348 0.135349
Si Si8 0.939487 0.024286 0.908035
O O1 0.570777 0.107266 0.387107
O O2 0.668936 0.083768 0.410083
O O3 0.605446 0.000000 0.500000
O O4 0.612858 0.988288 0.332176
O O5 0.246161 0.872051 0.822291
O O6 0.333446 0.885631 0.892905
O O7 0.250000 0.000000 0.900135
O O8 0.314555 0.981912 0.782107
O O9 0.794249 0.750000 0.751248
O O10 0.758812 0.635240 0.663606
O O11 0.843991 0.617550 0.755145
O O12 0.500000 0.849161 0.721500
O O13 0.437293 0.750000 0.662101
O O14 0.397960 0.846371 0.763967
O O15 0.750000 0.500000 0.398241
O O16 0.750000 0.612469 0.500000
O O17 0.093989 0.513747 0.833239
O O18 0.881847 0.750000 0.117083
O O19 0.931729 0.886005 0.095983
O O20 0.000000 0.004171 0.898897
O O21 0.920272 0.000000 0.000000
#
# Coordination Sequence:
#
# PCOD9500876 Si02
#       8
#    16  16  16  16  16  16  16  16
#     4  12  20  32  56  81 111 153 192 225 279 346
#     4   9  16  29  51  76 108 148 184 218 268 329
#     4  11  19  29  49  77 107 149 191 220 268 329
#     4  10  21  36  53  78 111 142 182 244 302 339
#     4  11  18  33  50  72 109 146 187 239 282 314
#     4  10  19  35  53  77 110 146 185 230 276 330
#     4  10  18  32  57  89 117 140 178 237 298 337
#     4  10  21  38  61  87 112 144 187 235 290 350
#
# _framework density 17.726064000000001
#
# number of rings (size 3 to 8) (size 9 to 14) (size 15 to 20)
#    0.000    1.625    6.250    1.125    0.000    2.750 
#    0.000    2.500    0.000   25.125    0.000   11.375 
#    0.000    0.000    0.000    0.000    0.000    0.000 
#
# Total GULP energy -356499.095053 kJ/mol
# GULP energy per Si atom -5570.298360 kJ/mol
# Density = 1.768572 g / cm^3
# Si number density = 17.726064 Si / 1000 Ang^3
#
#
#
# Elastic Constant Matrix: (Units=GPa)
#
#
# Indices 1 2 3 4 5 6 
#
# 1 74.1363 34.6024 29.0594 0.0000 0.0000 0.0000
# 2 34.6024 129.8824 34.6796 0.0000 0.0000 0.0000
# 3 29.0594 34.6796 85.1212 0.0000 0.0000 0.0000
# 4 0.0000 0.0000 0.0000 14.4029 0.0000 0.0000
# 5 0.0000 0.0000 0.0000 0.0000 1.5331 0.0000
# 6 0.0000 0.0000 0.0000 0.0000 0.0000 20.9990
#
#
#
# Elastic Compliance Matrix: (Units=1/GPa)
#
#
# Indices 1 2 3 4 5 6 
#
# 1 0.016739 -0.003292 -0.004373 0.000000 0.000000 0.000000
# 2 -0.003292 0.009286 -0.002660 0.000000 0.000000 0.000000
# 3 -0.004373 -0.002660 0.014325 0.000000 0.000000 0.000000
# 4 0.000000 0.000000 0.000000 0.069430 0.000000 0.000000
# 5 0.000000 0.000000 0.000000 0.000000 0.652284 0.000000
# 6 0.000000 0.000000 0.000000 0.000000 0.000000 0.047621
#
#
# Mechanical properties :
#
#
# Convention : Reuss Voigt Hill
#
# Bulk Modulus (GPa) = 50.76021 53.98031 52.37026
# Shear Modulus (GPa) = 5.97441 20.10689 13.04065
#
# Velocity S-wave (km/s) = 1.83786 3.37161 2.71528
# Velocity P-wave (km/s) = 5.76209 6.75837 6.28002
#
# Compressibility (1/GPa) = 0.01970047
#
# Stress axis : x y z
#
# Youngs Moduli (GPa) = 59.73932 107.68430 69.81004
#
# Poissons Ratio (x) = 0.35448 0.30531
# Poissons Ratio (y) = 0.19665 0.18567
# Poissons Ratio (z) = 0.26127 0.28640
#
# Static dielectric constant tensor:
#      x y z
#    x 1.649300 0.000000 0.000000 
#    y 0.000000 1.605410 0.000000 
#    z 0.000000 0.000000 1.619670 
# 
# From -- ./inp_files/35642.got.cif
#   From: 2010.05.17/outbox.cif.g08.bks.cpg/sg67_18_cif.got.tgz:35642.got - 2010.06.03 18:28:57.
