data_PCOD9500568
_publ_section_title
;
Structure prediction by ZEFSAII (Michael W. Deem and Ramdas Pophale) SiO2 
 PCOD9500568
Probable space group: C M M A
;
_chemical_formula_sum "Si O2"
_cell_formula_units_Z 96
_cell_length_a 18.355638
_cell_length_b 23.765323
_cell_length_c 11.820741
_cell_angle_alpha 90.000000
_cell_angle_beta 90.000000
_cell_angle_gamma 90.000000
_cell_volume 5156.534256
_symmetry_space_group_name_H-M "C M M A"
_symmetry_group_IT_number 67
_symmetry_cell_setting 'orthorhombic'
loop_
_space_group_symop_operation_xyz
x,y,z
-x,1/2-y,z
x,-y,-z
-x,1/2+y,-z
-x,-y,-z
x,1/2+y,-z
-x,y,z
x,1/2-y,z
1/2+x,1/2+y,z
1/2-x,-y,z
1/2+x,1/2-y,-z
1/2-x,y,-z
1/2-x,1/2-y,-z
1/2+x,y,-z
1/2-x,1/2+y,z
1/2+x,-y,z
loop_
_atom_site_type_symbol
_atom_site_label
_atom_site_fract_x
_atom_site_fract_y
_atom_site_fract_z
Si Si1 0.665293 0.016833 0.851101
Si Si2 0.664691 0.869891 0.261787
Si Si3 0.836337 0.183763 0.018825
Si Si4 0.208488 0.185669 0.622180
Si Si5 0.912613 0.080245 0.935969
Si Si6 0.915519 0.817158 0.526392
O O1 0.660549 0.063432 0.754068
O O2 0.750000 0.000000 0.869464
O O3 0.617734 0.960469 0.837884
O O4 0.629248 0.051679 0.956131
O O5 0.645747 0.836503 0.146674
O O6 0.746947 0.852757 0.293742
O O7 0.615271 0.848362 0.364070
O O8 0.850185 0.250000 0.004872
O O9 0.750000 0.173395 0.000000
O O10 0.883078 0.143736 0.936550
O O11 0.209456 0.250000 0.664603
O O12 0.250000 0.185487 0.500000
O O13 0.128437 0.167204 0.586563
O O14 0.000000 0.077329 0.947100
O O15 0.902396 0.750000 0.542684
O O16 0.000000 0.826954 0.514065
#
# Coordination Sequence:
#
# PCOD9500568 Si02
#       6
#    16  16  16  16  16  16
#     4  10  19  32  49  69  94 130 179 221 254 302
#     4  10  18  29  50  75 100 136 179 221 258 298
#     4  10  20  33  50  75 108 144 180 218 260 306
#     4   8  14  27  47  72 101 131 165 205 254 313
#     4  10  19  32  50  71  98 132 170 215 267 312
#     4   9  17  29  49  80 113 139 165 205 262 326
#
# _framework density 18.617155
#
# number of rings (size 3 to 8) (size 9 to 14) (size 15 to 20)
#    0.000    2.500    0.000    6.500    0.000    3.667 
#    0.000    0.000    0.000    9.500    0.000    5.833 
#    0.000    0.000    0.000    0.000    0.000    0.000 
#
# Total GULP energy -267463.726393 kJ/mol
# GULP energy per Si atom -5572.160967 kJ/mol
# Density = 1.857478 g / cm^3
# Si number density = 18.617155 Si / 1000 Ang^3
#
#
#
# Elastic Constant Matrix: (Units=GPa)
#
#
# Indices 1 2 3 4 5 6 
#
# 1 136.6069 63.7995 12.2647 0.0000 0.0000 0.0000
# 2 63.7995 121.0863 26.4787 0.0000 0.0000 0.0000
# 3 12.2647 26.4787 19.6019 0.0000 0.0000 0.0000
# 4 0.0000 0.0000 0.0000 24.1456 0.0000 0.0000
# 5 0.0000 0.0000 0.0000 0.0000 15.1567 0.0000
# 6 0.0000 0.0000 0.0000 0.0000 0.0000 18.4914
#
#
#
# Elastic Compliance Matrix: (Units=1/GPa)
#
#
# Indices 1 2 3 4 5 6 
#
# 1 0.009729 -0.005386 0.001188 0.000000 0.000000 0.000000
# 2 -0.005386 0.014702 -0.016491 0.000000 0.000000 0.000000
# 3 0.001188 -0.016491 0.072548 0.000000 0.000000 0.000000
# 4 0.000000 0.000000 0.000000 0.041415 0.000000 0.000000
# 5 0.000000 0.000000 0.000000 0.000000 0.065977 0.000000
# 6 0.000000 0.000000 0.000000 0.000000 0.000000 0.054079
#
#
# Mechanical properties :
#
#
# Convention : Reuss Voigt Hill
#
# Bulk Modulus (GPa) = 17.98473 53.59785 35.79129
# Shear Modulus (GPa) = 15.70538 23.20889 19.45713
#
# Velocity S-wave (km/s) = 2.90763 3.53461 3.23634
# Velocity P-wave (km/s) = 4.57752 6.74611 5.76470
#
# Compressibility (1/GPa) = 0.05560272
#
# Stress axis : x y z
#
# Youngs Moduli (GPa) = 102.78543 68.01573 13.78400
#
# Poissons Ratio (x) = 0.36633 -0.01638
# Poissons Ratio (y) = 0.55360 0.22731
# Poissons Ratio (z) = -0.12213 1.12161
#
# Static dielectric constant tensor:
#      x y z
#    x 1.666090 0.000000 0.000000 
#    y 0.000000 1.675480 0.000000 
#    z 0.000000 0.000000 1.673110 
# 
# From -- ./inp_files/19666.got.cif
#   From: 2010.05.17/outbox.cif.g08.bks.cpg/sg67_10_cif.got.tgz:19666.got - 2010.06.03 18:28:57.
