data_PCOD9500601
_publ_section_title
;
Structure prediction by ZEFSAII (Michael W. Deem and Ramdas Pophale) SiO2 
 PCOD9500601
Probable space group: C M M A
;
_chemical_formula_sum "Si O2"
_cell_formula_units_Z 88
_cell_length_a 15.364184
_cell_length_b 20.667378
_cell_length_c 16.206764
_cell_angle_alpha 90.000000
_cell_angle_beta 90.000000
_cell_angle_gamma 90.000000
_cell_volume 5146.253677
_symmetry_space_group_name_H-M "C M M A"
_symmetry_group_IT_number 67
_symmetry_cell_setting 'orthorhombic'
loop_
_space_group_symop_operation_xyz
x,y,z
-x,1/2-y,z
x,-y,-z
-x,1/2+y,-z
-x,-y,-z
x,1/2+y,-z
-x,y,z
x,1/2-y,z
1/2+x,1/2+y,z
1/2-x,-y,z
1/2+x,1/2-y,-z
1/2-x,y,-z
1/2-x,1/2-y,-z
1/2+x,y,-z
1/2-x,1/2+y,z
1/2+x,-y,z
loop_
_atom_site_type_symbol
_atom_site_label
_atom_site_fract_x
_atom_site_fract_y
_atom_site_fract_z
Si Si1 0.211896 0.622951 0.192302
Si Si2 0.896147 0.676379 0.346026
Si Si3 0.331340 0.180115 0.936404
Si Si4 0.100941 0.432882 0.960845
Si Si5 0.102745 0.460592 0.584120
Si Si6 0.750000 0.000000 0.291469
O O1 0.154101 0.658899 0.261319
O O2 0.284917 0.667060 0.150304
O O3 0.152720 0.592732 0.118946
O O4 0.257971 0.563059 0.236110
O O5 0.873781 0.750000 0.372394
O O6 0.878930 0.617192 0.410381
O O7 0.000000 0.675121 0.330286
O O8 0.375186 0.250000 0.939075
O O9 0.250000 0.181595 0.000000
O O10 0.389361 0.121604 0.968691
O O11 0.000000 0.442128 0.938644
O O12 0.134925 0.500000 0.000000
O O13 0.120061 0.500000 0.500000
O O14 0.165036 0.490761 0.652673
O O15 0.000000 0.468275 0.602281
#
# Coordination Sequence:
#
# PCOD9500601 Si02
#       6
#    16  16  16  16  16   8
#     4  10  18  30  47  68  95 126 157 199 249 292
#     4   9  17  29  48  75 101 124 156 200 250 300
#     4   9  18  31  46  64  88 120 156 193 237 287
#     4  10  20  32  46  65  90 123 165 206 241 282
#     4   9  18  33  53  76 102 131 162 197 239 291
#     4  10  19  30  51  76 100 130 164 200 243 294
#
# _framework density 17.099817000000002
#
# number of rings (size 3 to 8) (size 9 to 14) (size 15 to 20)
#    0.000    2.545    0.000    2.455    0.000    4.364 
#    0.000    0.909    0.000    9.818    0.000    0.000 
#    0.000    0.000    0.000    0.000    0.000    0.000 
#
# Total GULP energy -245028.439947 kJ/mol
# GULP energy per Si atom -5568.828181 kJ/mol
# Density = 1.706090 g / cm^3
# Si number density = 17.099817 Si / 1000 Ang^3
#
#
#
# Elastic Constant Matrix: (Units=GPa)
#
#
# Indices 1 2 3 4 5 6 
#
# 1 21.0307 27.5252 16.0395 0.0000 0.0000 0.0000
# 2 27.5252 150.7324 54.4524 0.0000 0.0000 0.0000
# 3 16.0395 54.4524 68.9549 0.0000 0.0000 0.0000
# 4 0.0000 0.0000 0.0000 20.0000 0.0000 0.0000
# 5 0.0000 0.0000 0.0000 0.0000 14.5486 0.0000
# 6 0.0000 0.0000 0.0000 0.0000 0.0000 12.2509
#
#
#
# Elastic Compliance Matrix: (Units=1/GPa)
#
#
# Indices 1 2 3 4 5 6 
#
# 1 0.065572 -0.009044 -0.008111 0.000000 0.000000 0.000000
# 2 -0.009044 0.010530 -0.006211 0.000000 0.000000 0.000000
# 3 -0.008111 -0.006211 0.021294 0.000000 0.000000 0.000000
# 4 0.000000 0.000000 0.000000 0.050000 0.000000 0.000000
# 5 0.000000 0.000000 0.000000 0.000000 0.068735 0.000000
# 6 0.000000 0.000000 0.000000 0.000000 0.000000 0.081627
#
#
# Mechanical properties :
#
#
# Convention : Reuss Voigt Hill
#
# Bulk Modulus (GPa) = 19.73805 48.52800 34.13302
# Shear Modulus (GPa) = 13.83593 18.87331 16.35462
#
# Velocity S-wave (km/s) = 2.84760 3.32582 3.09596
# Velocity P-wave (km/s) = 4.73072 6.57183 5.72576
#
# Compressibility (1/GPa) = 0.05066356
#
# Stress axis : x y z
#
# Youngs Moduli (GPa) = 15.25030 94.96965 46.96189
#
# Poissons Ratio (x) = 0.85892 0.38090
# Poissons Ratio (y) = 0.13793 0.29170
# Poissons Ratio (z) = 0.12369 0.58989
#
# Static dielectric constant tensor:
#      x y z
#    x 1.562740 0.000000 0.000000 
#    y 0.000000 1.624520 0.000000 
#    z 0.000000 0.000000 1.575250 
# 
# From -- ./inp_files/28470.got.cif
#   From: 2010.05.17/outbox.cif.g08.bks.cpg/sg67_15_cif.got.tgz:28470.got - 2010.06.03 18:28:57.
