data_PCOD9500754
_publ_section_title
;
Structure prediction by ZEFSAII (Michael W. Deem and Ramdas Pophale) SiO2 
 PCOD9500754
Probable space group: C M M A
;
_chemical_formula_sum "Si O2"
_cell_formula_units_Z 128
_cell_length_a 24.881362
_cell_length_b 17.380801
_cell_length_c 16.680977
_cell_angle_alpha 90.000000
_cell_angle_beta 90.000000
_cell_angle_gamma 90.000000
_cell_volume 7213.821977
_symmetry_space_group_name_H-M "C M M A"
_symmetry_group_IT_number 67
_symmetry_cell_setting 'orthorhombic'
loop_
_space_group_symop_operation_xyz
x,y,z
-x,1/2-y,z
x,-y,-z
-x,1/2+y,-z
-x,-y,-z
x,1/2+y,-z
-x,y,z
x,1/2-y,z
1/2+x,1/2+y,z
1/2-x,-y,z
1/2+x,1/2-y,-z
1/2-x,y,-z
1/2-x,1/2-y,-z
1/2+x,y,-z
1/2-x,1/2+y,z
1/2+x,-y,z
loop_
_atom_site_type_symbol
_atom_site_label
_atom_site_fract_x
_atom_site_fract_y
_atom_site_fract_z
Si Si1 0.141121 0.951499 0.751800
Si Si2 0.438155 0.890243 0.564511
Si Si3 0.775994 0.916213 0.083535
Si Si4 0.058890 0.166309 0.823003
Si Si5 0.852524 0.627540 0.306009
Si Si6 0.439464 0.428694 0.614502
Si Si7 0.259070 0.663371 0.241160
Si Si8 0.103869 0.527802 0.087042
O O1 0.098999 0.916095 0.689198
O O2 0.194129 0.899431 0.749201
O O3 0.152590 0.037097 0.717295
O O4 0.116625 0.966285 0.841267
O O5 0.500000 0.861491 0.577838
O O6 0.388108 0.857868 0.614817
O O7 0.426600 0.887675 0.469680
O O8 0.439327 0.980079 0.592235
O O9 0.765658 0.857135 0.154292
O O10 0.838616 0.931555 0.072923
O O11 0.750000 0.000000 0.104001
O O12 0.750000 0.891558 0.000000
O O13 0.061280 0.250000 0.863650
O O14 0.108423 0.161243 0.762324
O O15 0.064857 0.092788 0.878888
O O16 0.000000 0.161318 0.782148
O O17 0.791754 0.657237 0.301327
O O18 0.500000 0.408025 0.636865
O O19 0.280408 0.750000 0.243346
O O20 0.085701 0.500000 0.000000
#
# Coordination Sequence:
#
# PCOD9500754 Si02
#       8
#    16  16  16  16  16  16  16  16
#     4  10  19  33  53  76 105 139 176 220 267 316
#     4   8  14  27  50  83 110 127 164 221 265 312
#     4  11  18  34  56  75 101 132 172 222 270 305
#     4  10  21  35  51  76 112 145 173 214 268 325
#     4  10  18  31  55  77 104 139 174 210 270 325
#     4   8  15  29  52  80 106 131 167 218 270 312
#     4  12  22  33  49  75 106 140 176 216 265 320
#     4  11  20  33  56  78 104 142 184 226 268 319
#
# _framework density 17.743715000000002
#
# number of rings (size 3 to 8) (size 9 to 14) (size 15 to 20)
#    0.000    2.000    5.000    1.875    0.000    3.500 
#    0.000    2.500    0.000    5.625    0.000    3.500 
#    0.000    0.000    0.000    0.000    0.000    0.000 
#
# Total GULP energy -356436.839013 kJ/mol
# GULP energy per Si atom -5569.325610 kJ/mol
# Density = 1.770333 g / cm^3
# Si number density = 17.743715 Si / 1000 Ang^3
#
#
#
# Elastic Constant Matrix: (Units=GPa)
#
#
# Indices 1 2 3 4 5 6 
#
# 1 90.3601 38.3694 56.0756 0.0000 0.0000 0.0000
# 2 38.3694 62.8765 19.1216 0.0000 0.0000 0.0000
# 3 56.0756 19.1216 109.8025 0.0000 0.0000 0.0000
# 4 0.0000 0.0000 0.0000 3.0835 0.0000 0.0000
# 5 0.0000 0.0000 0.0000 0.0000 30.0984 0.0000
# 6 0.0000 0.0000 0.0000 0.0000 0.0000 8.0314
#
#
#
# Elastic Compliance Matrix: (Units=1/GPa)
#
#
# Indices 1 2 3 4 5 6 
#
# 1 0.020841 -0.010011 -0.008900 0.000000 0.000000 0.000000
# 2 -0.010011 0.021603 0.001351 0.000000 0.000000 0.000000
# 3 -0.008900 0.001351 0.013417 0.000000 0.000000 0.000000
# 4 0.000000 0.000000 0.000000 0.324311 0.000000 0.000000
# 5 0.000000 0.000000 0.000000 0.000000 0.033224 0.000000
# 6 0.000000 0.000000 0.000000 0.000000 0.000000 0.124512
#
#
# Mechanical properties :
#
#
# Convention : Reuss Voigt Hill
#
# Bulk Modulus (GPa) = 48.21654 54.46360 51.34007
# Shear Modulus (GPa) = 8.62154 18.20748 13.41451
#
# Velocity S-wave (km/s) = 2.20669 3.20681 2.75256
# Velocity P-wave (km/s) = 5.80737 6.66879 6.25293
#
# Compressibility (1/GPa) = 0.02073977
#
# Stress axis : x y z
#
# Youngs Moduli (GPa) = 47.98217 46.29055 74.53103
#
# Poissons Ratio (x) = 0.46343 0.66333
# Poissons Ratio (y) = 0.48037 -0.10067
# Poissons Ratio (z) = 0.42704 -0.06253
#
# Static dielectric constant tensor:
#      x y z
#    x 1.613880 0.000000 0.000000 
#    y 0.000000 1.628830 0.000000 
#    z 0.000000 0.000000 1.624490 
# 
# From -- ./inp_files/35652.got.cif
#   From: 2010.05.17/outbox.cif.g08.bks.cpg/sg67_18_cif.got.tgz:35652.got - 2010.06.03 18:28:57.
