data_PCOD9500493
_publ_section_title
;
Structure prediction by ZEFSAII (Michael W. Deem and Ramdas Pophale) SiO2 
 PCOD9500493
Probable space group: C M M A
;
_chemical_formula_sum "Si O2"
_cell_formula_units_Z 84
_cell_length_a 14.817942
_cell_length_b 30.782232
_cell_length_c 10.312072
_cell_angle_alpha 90.000000
_cell_angle_beta 90.000000
_cell_angle_gamma 90.000000
_cell_volume 4703.638476
_symmetry_space_group_name_H-M "C M M A"
_symmetry_group_IT_number 67
_symmetry_cell_setting 'orthorhombic'
loop_
_space_group_symop_operation_xyz
x,y,z
-x,1/2-y,z
x,-y,-z
-x,1/2+y,-z
-x,-y,-z
x,1/2+y,-z
-x,y,z
x,1/2-y,z
1/2+x,1/2+y,z
1/2-x,-y,z
1/2+x,1/2-y,-z
1/2-x,y,-z
1/2-x,1/2-y,-z
1/2+x,y,-z
1/2-x,1/2+y,z
1/2+x,-y,z
loop_
_atom_site_type_symbol
_atom_site_label
_atom_site_fract_x
_atom_site_fract_y
_atom_site_fract_z
Si Si1 0.000000 0.664804 0.836320
Si Si2 0.152772 0.926323 0.434648
Si Si3 0.706787 0.664512 0.643682
Si Si4 0.850980 0.750000 0.440847
Si Si5 0.819006 0.301529 0.117464
Si Si6 0.000000 0.250000 0.343540
Si Si7 0.000000 0.082074 0.348003
Si Si8 0.500000 0.486786 0.349674
O O1 0.909871 0.673047 0.916404
O O2 0.000000 0.620593 0.755340
O O3 0.000000 0.705637 0.736728
O O4 0.250000 0.939729 0.500000
O O5 0.166738 0.883400 0.347625
O O6 0.087064 0.914843 0.556595
O O7 0.093768 0.959780 0.346786
O O8 0.750000 0.662878 0.500000
O O9 0.639518 0.705711 0.639910
O O10 0.778530 0.676589 0.753434
O O11 0.750000 0.750000 0.500000
O O12 0.915328 0.750000 0.562009
O O13 0.835094 0.250000 0.141207
O O14 0.750000 0.304745 0.000000
O O15 0.000000 0.033935 0.283136
O O16 0.500000 0.500000 0.500000
#
# Coordination Sequence:
#
# PCOD9500493 Si02
#       8
#     8  16  16   8  16   4   8   8
#     4  12  20  36  57  80 102 148 194 220 260 336
#     4   9  16  29  48  78 111 147 181 225 281 331
#     4  10  18  31  54  79 111 145 179 227 272 317
#     4  10  18  28  42  73 110 135 171 225 267 301
#     4  11  23  39  57  79 112 152 187 226 272 326
#     4  12  20  28  54  82 102 146 176 212 270 318
#     4  10  20  32  51  81 113 142 188 230 268 334
#     4   8  18  30  45  73 114 148 172 225 285 329
#
# _framework density 17.858515000000001
#
# number of rings (size 3 to 8) (size 9 to 14) (size 15 to 20)
#    0.000    2.095    1.905    5.714    0.000    4.190 
#    0.000    2.857    0.000    0.000    0.000    4.000 
#    0.000    0.000    0.000    0.000    0.000    0.000 
#
# Total GULP energy -233829.223311 kJ/mol
# GULP energy per Si atom -5567.362460 kJ/mol
# Density = 1.781787 g / cm^3
# Si number density = 17.858515 Si / 1000 Ang^3
#
#
#
# Elastic Constant Matrix: (Units=GPa)
#
#
# Indices 1 2 3 4 5 6 
#
# 1 116.5530 41.8142 26.7355 0.0000 0.0000 0.0000
# 2 41.8142 140.0769 12.8562 0.0000 0.0000 0.0000
# 3 26.7355 12.8562 35.5960 0.0000 0.0000 0.0000
# 4 0.0000 0.0000 0.0000 1.5837 0.0000 0.0000
# 5 0.0000 0.0000 0.0000 0.0000 22.2970 0.0000
# 6 0.0000 0.0000 0.0000 0.0000 0.0000 27.2177
#
#
#
# Elastic Compliance Matrix: (Units=1/GPa)
#
#
# Indices 1 2 3 4 5 6 
#
# 1 0.011257 -0.002673 -0.007489 0.000000 0.000000 0.000000
# 2 -0.002673 0.008018 -0.000888 0.000000 0.000000 0.000000
# 3 -0.007489 -0.000888 0.034039 0.000000 0.000000 0.000000
# 4 0.000000 0.000000 0.000000 0.631444 0.000000 0.000000
# 5 0.000000 0.000000 0.000000 0.000000 0.044849 0.000000
# 6 0.000000 0.000000 0.000000 0.000000 0.000000 0.036741
#
#
# Mechanical properties :
#
#
# Convention : Reuss Voigt Hill
#
# Bulk Modulus (GPa) = 32.03815 50.55974 41.29895
# Shear Modulus (GPa) = 6.25897 24.27433 15.26665
#
# Velocity S-wave (km/s) = 1.87413 3.69081 2.92698
# Velocity P-wave (km/s) = 4.76047 6.82169 5.88207
#
# Compressibility (1/GPa) = 0.03121278
#
# Stress axis : x y z
#
# Youngs Moduli (GPa) = 88.83658 124.71401 29.37803
#
# Poissons Ratio (x) = 0.33334 0.22002
# Poissons Ratio (y) = 0.23745 0.02610
# Poissons Ratio (z) = 0.66532 0.11081
#
# Static dielectric constant tensor:
#      x y z
#    x 1.690510 0.000000 0.000000 
#    y 0.000000 1.737700 0.000000 
#    z 0.000000 0.000000 1.662260 
# 
# From -- ./inp_files/18474.got.cif
#   From: 2010.05.17/outbox.cif.g08.bks.cpg/sg67_10_cif.got.tgz:18474.got - 2010.06.03 18:28:57.
