data_PCOD9500181
_publ_section_title
;
Structure prediction by ZEFSAII (Michael W. Deem and Ramdas Pophale) SiO2 
 PCOD9500181
Probable space group: C M M A
;
_chemical_formula_sum "Si O2"
_cell_formula_units_Z 80
_cell_length_a 8.664250
_cell_length_b 18.808069
_cell_length_c 27.127092
_cell_angle_alpha 90.000000
_cell_angle_beta 90.000000
_cell_angle_gamma 90.000000
_cell_volume 4420.571554
_symmetry_space_group_name_H-M "C M M A"
_symmetry_group_IT_number 67
_symmetry_cell_setting 'orthorhombic'
loop_
_space_group_symop_operation_xyz
x,y,z
-x,1/2-y,z
x,-y,-z
-x,1/2+y,-z
-x,-y,-z
x,1/2+y,-z
-x,y,z
x,1/2-y,z
1/2+x,1/2+y,z
1/2-x,-y,z
1/2+x,1/2-y,-z
1/2-x,y,-z
1/2-x,1/2-y,-z
1/2+x,y,-z
1/2-x,1/2+y,z
1/2+x,-y,z
loop_
_atom_site_type_symbol
_atom_site_label
_atom_site_fract_x
_atom_site_fract_y
_atom_site_fract_z
Si Si1 0.184956 0.419503 0.848807
Si Si2 0.184605 0.920002 0.260298
Si Si3 0.815811 0.081055 0.050587
Si Si4 0.314489 0.079501 0.552528
Si Si5 0.186381 0.831817 0.648637
O O1 0.250000 0.500000 0.846792
O O2 0.223176 0.390135 0.794491
O O3 0.258231 0.385863 0.897871
O O4 0.000000 0.421607 0.854511
O O5 0.249192 0.872529 0.304069
O O6 0.000000 0.924110 0.263424
O O7 0.250000 0.000000 0.264550
O O8 0.000000 0.078437 0.048998
O O9 0.750000 0.000000 0.051338
O O10 0.750000 0.113674 0.000000
O O11 0.500000 0.076522 0.550090
O O12 0.250000 0.105287 0.500000
O O13 0.267431 0.128236 0.598403
O O14 0.250000 0.000000 0.560070
O O15 0.236371 0.750000 0.648101
O O16 0.000000 0.833737 0.650748
#
# Coordination Sequence:
#
# PCOD9500181 Si02
#       5
#    16  16  16  16  16
#     4   9  16  26  39  59  86 116 155 199 242 290
#     4  10  20  33  52  75  99 131 170 212 255 302
#     4  10  16  22  33  51  79 116 154 192 239 292
#     4  10  20  35  56  80 105 134 169 207 248 294
#     4  10  22  38  54  75 105 137 169 209 255 301
#
# _framework density 18.097207999999998
#
# number of rings (size 3 to 8) (size 9 to 14) (size 15 to 20)
#    0.000    2.200    0.000    6.600    0.000    6.400 
#    0.000    0.000    0.000    0.000    0.000    0.000 
#    0.000    0.800    0.000    2.600    0.000   10.400 
#
# Total GULP energy -223045.297282 kJ/mol
# GULP energy per Si atom -5576.132432 kJ/mol
# Density = 1.805602 g / cm^3
# Si number density = 18.097208 Si / 1000 Ang^3
#
#
#
# Elastic Constant Matrix: (Units=GPa)
#
#
# Indices 1 2 3 4 5 6 
#
# 1 81.3097 23.7885 68.0202 0.0000 0.0000 0.0000
# 2 23.7885 50.2707 75.3629 0.0000 0.0000 0.0000
# 3 68.0202 75.3629 233.3789 0.0000 0.0000 0.0000
# 4 0.0000 0.0000 0.0000 -5.8153 0.0000 0.0000
# 5 0.0000 0.0000 0.0000 0.0000 25.0698 0.0000
# 6 0.0000 0.0000 0.0000 0.0000 0.0000 11.7380
#
#
#
# Elastic Compliance Matrix: (Units=1/GPa)
#
#
# Indices 1 2 3 4 5 6 
#
# 1 0.016298 -0.001146 -0.004380 0.000000 0.000000 0.000000
# 2 -0.001146 0.038639 -0.012143 0.000000 0.000000 0.000000
# 3 -0.004380 -0.012143 0.009483 0.000000 0.000000 0.000000
# 4 0.000000 0.000000 0.000000 -0.171960 0.000000 0.000000
# 5 0.000000 0.000000 0.000000 0.000000 0.039889 0.000000
# 6 0.000000 0.000000 0.000000 0.000000 0.000000 0.085194
#
#
# Mechanical properties :
#
#
# Convention : Reuss Voigt Hill
#
# Bulk Modulus (GPa) = 34.38632 77.70025 56.04329
# Shear Modulus (GPa) = 79.90349 19.38433 49.64391
#
# Velocity S-wave (km/s) = 6.65193 3.27635 5.24322
# Velocity P-wave (km/s) = 8.83401 7.57237 8.22741
#
# Compressibility (1/GPa) = 0.02908133
#
# Stress axis : x y z
#
# Youngs Moduli (GPa) = 61.35643 25.88037 105.45290
#
# Poissons Ratio (x) = 0.02966 0.46191
# Poissons Ratio (y) = 0.07031 1.28056
# Poissons Ratio (z) = 0.26875 0.31428
#
# Static dielectric constant tensor:
#      x y z
#    x 1.609860 0.000000 0.000000 
#    y 0.000000 1.577300 0.000000 
#    z 0.000000 0.000000 1.682610 
# 
# From -- ./inp_files/43211.got.cif
#   From: 2010.05.17/outbox.cif.g08.bks.cpg/sg67_22_cif.got.tgz:43211.got - 2010.06.03 18:28:57.
