data_PCOD9500023
_publ_section_title
;
Structure prediction by ZEFSAII (Michael W. Deem and Ramdas Pophale) SiO2 
 PCOD9500023
Probable space group: C C C M
;
_chemical_formula_sum "Si O2"
_cell_formula_units_Z 96
_cell_length_a 22.573163
_cell_length_b 15.191054
_cell_length_c 11.429005
_cell_angle_alpha 90.000000
_cell_angle_beta 90.000000
_cell_angle_gamma 90.000000
_cell_volume 3919.121683
_symmetry_space_group_name_H-M "C C C M"
_symmetry_group_IT_number 66
_symmetry_cell_setting 'orthorhombic'
loop_
_space_group_symop_operation_xyz
x,y,z
-x,-y,z
x,-y,1/2-z
-x,y,1/2-z
-x,-y,-z
x,y,-z
-x,y,1/2+z
x,-y,1/2+z
1/2+x,1/2+y,z
1/2-x,1/2-y,z
1/2+x,1/2-y,1/2-z
1/2-x,1/2+y,1/2-z
1/2-x,1/2-y,-z
1/2+x,1/2+y,-z
1/2-x,1/2+y,1/2+z
1/2+x,1/2-y,1/2+z
loop_
_atom_site_type_symbol
_atom_site_label
_atom_site_fract_x
_atom_site_fract_y
_atom_site_fract_z
Si Si1 0.304055 0.319605 0.372099
Si Si2 0.976007 0.900098 0.871476
Si Si3 0.318628 0.008074 0.374672
Si Si4 0.401018 0.162583 0.873916
Si Si5 0.403801 0.177268 0.624952
Si Si6 0.340384 0.650319 0.628585
O O1 0.299914 0.364212 0.500000
O O2 0.250000 0.250000 0.367380
O O3 0.366300 0.267186 0.375068
O O4 0.305820 0.368680 0.248032
O O5 0.904888 0.895571 0.865708
O O6 0.000000 0.859617 0.750000
O O7 0.992838 0.861868 0.000000
O O8 0.000000 0.000000 0.872795
O O9 0.287627 0.000899 0.500000
O O10 0.354027 0.100121 0.374719
O O11 0.287321 0.000000 0.250000
O O12 0.366550 0.929380 0.373940
O O13 0.434391 0.168665 0.750587
O O14 0.354771 0.244381 0.870667
O O15 0.431639 0.170558 0.000000
O O16 0.435227 0.168559 0.500000
O O17 0.314181 0.631471 0.500000
#
# Coordination Sequence:
#
# PCOD9500023 Si02
#       6
#    16  16  16  16  16  16
#     4   9  17  28  42  64  96 134 174 212 255 310
#     4   9  18  33  53  78 102 126 162 213 272 335
#     4   8  12  18  30  49  73 104 140 179 222 265
#     4   8  13  21  34  55  82 109 138 177 230 285
#     4   8  13  21  33  51  78 113 154 198 234 271
#     4   9  17  29  46  70  98 125 159 207 261 315
#
# _framework density 24.495283000000001
#
# number of rings (size 3 to 8) (size 9 to 14) (size 15 to 20)
#    0.000    3.500    0.000    0.000    0.000    1.000 
#    0.000    0.000    0.000    0.000   21.667    0.000 
#    0.000   16.667    0.000  171.000    0.000   21.000 
#
# Total GULP energy -267309.830133 kJ/mol
# GULP energy per Si atom -5568.954794 kJ/mol
# Density = 2.443953 g / cm^3
# Si number density = 24.495283 Si / 1000 Ang^3
#
#
#
# Elastic Constant Matrix: (Units=GPa)
#
#
# Indices 1 2 3 4 5 6 
#
# 1 50.5472 19.8035 42.7149 0.0000 0.0000 0.0000
# 2 19.8035 67.7011 -1.5638 0.0000 0.0000 0.0000
# 3 42.7149 -1.5638 411.1491 0.0000 0.0000 0.0000
# 4 0.0000 0.0000 0.0000 -46.9412 0.0000 0.0000
# 5 0.0000 0.0000 0.0000 0.0000 -2.0853 0.0000
# 6 0.0000 0.0000 0.0000 0.0000 0.0000 11.8851
#
#
#
# Elastic Compliance Matrix: (Units=1/GPa)
#
#
# Indices 1 2 3 4 5 6 
#
# 1 0.024863 -0.007333 -0.002611 0.000000 0.000000 0.000000
# 2 -0.007333 0.016935 0.000826 0.000000 0.000000 0.000000
# 3 -0.002611 0.000826 0.002707 0.000000 0.000000 0.000000
# 4 0.000000 0.000000 0.000000 -0.021303 0.000000 0.000000
# 5 0.000000 0.000000 0.000000 0.000000 -0.479542 0.000000
# 6 0.000000 0.000000 0.000000 0.000000 0.000000 0.084139
#
#
# Mechanical properties :
#
#
# Convention : Reuss Voigt Hill
#
# Bulk Modulus (GPa) = 38.06782 72.36741 55.21762
# Shear Modulus (GPa) = -14.48391 23.80124 4.65866
#
# Velocity S-wave (km/s) = -2.43429 3.12054 1.38058
# Velocity P-wave (km/s) = 2.77012 6.52619 5.01322
#
# Compressibility (1/GPa) = 0.02626891
#
# Stress axis : x y z
#
# Youngs Moduli (GPa) = 40.22074 59.04961 369.46693
#
# Poissons Ratio (x) = 0.43301 0.96465
# Poissons Ratio (y) = 0.29494 -0.30527
# Poissons Ratio (z) = 0.10501 -0.04879
#
# Static dielectric constant tensor:
#      x y z
#    x 1.843460 0.000000 0.000000 
#    y 0.000000 1.892750 0.000000 
#    z 0.000000 0.000000 2.070320 
# 
# From -- ./inp_files/19831.got.cif
#   From: 2010.05.17/outbox.cif.g08.bks.cpg/sg66_10_cif.got.tgz:19831.got - 2010.06.03 17:51:23.
