data_PCOD9500829
_publ_section_title
;
Structure prediction by ZEFSAII (Michael W. Deem and Ramdas Pophale) SiO2 
 PCOD9500829
Probable space group: C M M A
;
_chemical_formula_sum "Si O2"
_cell_formula_units_Z 72
_cell_length_a 8.655912
_cell_length_b 21.639113
_cell_length_c 20.172195
_cell_angle_alpha 90.000000
_cell_angle_beta 90.000000
_cell_angle_gamma 90.000000
_cell_volume 3778.378359
_symmetry_space_group_name_H-M "C M M A"
_symmetry_group_IT_number 67
_symmetry_cell_setting 'orthorhombic'
loop_
_space_group_symop_operation_xyz
x,y,z
-x,1/2-y,z
x,-y,-z
-x,1/2+y,-z
-x,-y,-z
x,1/2+y,-z
-x,y,z
x,1/2-y,z
1/2+x,1/2+y,z
1/2-x,-y,z
1/2+x,1/2-y,-z
1/2-x,y,-z
1/2-x,1/2-y,-z
1/2+x,y,-z
1/2-x,1/2+y,z
1/2+x,-y,z
loop_
_atom_site_type_symbol
_atom_site_label
_atom_site_fract_x
_atom_site_fract_y
_atom_site_fract_z
Si Si1 0.685139 0.250000 0.925144
Si Si2 0.175441 0.175189 0.568414
Si Si3 0.685976 0.063985 0.799614
Si Si4 0.815522 0.120507 0.925653
Si Si5 0.314638 0.320397 0.710658
O O1 0.500000 0.250000 0.923530
O O2 0.750139 0.186046 0.898222
O O3 0.750000 0.250000 0.000000
O O4 0.170840 0.250000 0.563446
O O5 0.250000 0.152269 0.500000
O O6 0.269163 0.163056 0.635371
O O7 0.000000 0.153067 0.575041
O O8 0.500000 0.062953 0.802076
O O9 0.754329 0.071347 0.873380
O O10 0.738143 0.124181 0.758017
O O11 0.750000 0.000000 0.770753
O O12 0.000000 0.122445 0.928996
O O13 0.750000 0.111455 0.000000
O O14 0.500000 0.317840 0.716062
O O15 0.256965 0.250000 0.725160
#
# Coordination Sequence:
#
# PCOD9500829 Si02
#       5
#     8  16  16  16  16
#     4  10  18  32  54  82 114 144 177 222 281 338
#     4   9  16  27  48  80 116 150 184 228 277 328
#     4  11  24  41  60  83 114 153 192 237 292 348
#     4  11  22  38  59  85 113 146 189 238 290 346
#     4   9  19  36  58  84 113 149 190 232 281 337
#
# _framework density 19.055793999999999
#
# number of rings (size 3 to 8) (size 9 to 14) (size 15 to 20)
#    0.000    2.000    0.000    5.667    1.556    4.889 
#    0.000    2.222    0.000    0.667    0.000    4.667 
#    0.000    0.000    0.000    0.000    0.000    0.000 
#
# Total GULP energy -200849.244082 kJ/mol
# GULP energy per Si atom -5579.145669 kJ/mol
# Density = 1.901242 g / cm^3
# Si number density = 19.055794 Si / 1000 Ang^3
#
#
#
# Elastic Constant Matrix: (Units=GPa)
#
#
# Indices 1 2 3 4 5 6 
#
# 1 87.1642 34.9190 20.9422 0.0000 0.0000 0.0000
# 2 34.9190 110.5269 61.8093 0.0000 0.0000 0.0000
# 3 20.9422 61.8093 100.0693 0.0000 0.0000 0.0000
# 4 0.0000 0.0000 0.0000 8.2584 0.0000 0.0000
# 5 0.0000 0.0000 0.0000 0.0000 24.9757 0.0000
# 6 0.0000 0.0000 0.0000 0.0000 0.0000 25.0411
#
#
#
# Elastic Compliance Matrix: (Units=1/GPa)
#
#
# Indices 1 2 3 4 5 6 
#
# 1 0.013140 -0.003993 -0.000284 0.000000 0.000000 0.000000
# 2 -0.003993 0.015035 -0.008451 0.000000 0.000000 0.000000
# 3 -0.000284 -0.008451 0.015272 0.000000 0.000000 0.000000
# 4 0.000000 0.000000 0.000000 0.121088 0.000000 0.000000
# 5 0.000000 0.000000 0.000000 0.000000 0.040039 0.000000
# 6 0.000000 0.000000 0.000000 0.000000 0.000000 0.039934
#
#
# Mechanical properties :
#
#
# Convention : Reuss Voigt Hill
#
# Bulk Modulus (GPa) = 55.57837 59.23347 57.40592
# Shear Modulus (GPa) = 18.11845 23.66104 20.88975
#
# Velocity S-wave (km/s) = 3.08687 3.52756 3.31455
# Velocity P-wave (km/s) = 6.47568 6.90965 6.69618
#
# Compressibility (1/GPa) = 0.01799261
#
# Stress axis : x y z
#
# Youngs Moduli (GPa) = 76.10157 66.51134 65.47781
#
# Poissons Ratio (x) = 0.26556 0.01858
# Poissons Ratio (y) = 0.30386 0.55335
# Poissons Ratio (z) = 0.02160 0.56209
#
# Static dielectric constant tensor:
#      x y z
#    x 1.656760 0.000000 0.000000 
#    y 0.000000 1.753750 0.000000 
#    z 0.000000 0.000000 1.648560 
# 
# From -- ./inp_files/36733.got.cif
#   From: 2010.05.17/outbox.cif.g08.bks.cpg/sg67_19_cif.got.tgz:36733.got - 2010.06.03 18:28:57.
