data_PCOD9500383
_publ_section_title
;
Structure prediction by ZEFSAII (Michael W. Deem and Ramdas Pophale) SiO2 
 PCOD9500383
Probable space group: C M M A
;
_chemical_formula_sum "Si O2"
_cell_formula_units_Z 80
_cell_length_a 18.497593
_cell_length_b 8.680138
_cell_length_c 26.643521
_cell_angle_alpha 90.000000
_cell_angle_beta 90.000000
_cell_angle_gamma 90.000000
_cell_volume 4277.927958
_symmetry_space_group_name_H-M "C M M A"
_symmetry_group_IT_number 67
_symmetry_cell_setting 'orthorhombic'
loop_
_space_group_symop_operation_xyz
x,y,z
-x,1/2-y,z
x,-y,-z
-x,1/2+y,-z
-x,-y,-z
x,1/2+y,-z
-x,y,z
x,1/2-y,z
1/2+x,1/2+y,z
1/2-x,-y,z
1/2+x,1/2-y,-z
1/2-x,y,-z
1/2-x,1/2-y,-z
1/2+x,y,-z
1/2-x,1/2+y,z
1/2+x,-y,z
loop_
_atom_site_type_symbol
_atom_site_label
_atom_site_fract_x
_atom_site_fract_y
_atom_site_fract_z
Si Si1 0.415063 0.935031 0.749766
Si Si2 0.831145 0.433397 0.344628
Si Si3 0.415336 0.065659 0.945900
Si Si4 0.667828 0.434226 0.448611
Si Si5 0.169584 0.065330 0.851097
O O1 0.500000 0.969530 0.752582
O O2 0.406693 0.750000 0.743210
O O3 0.375926 0.978497 0.801635
O O4 0.377973 0.018816 0.703117
O O5 0.826525 0.250000 0.350062
O O6 0.750000 0.500000 0.337781
O O7 0.863092 0.505834 0.395960
O O8 0.500000 0.023603 0.938697
O O9 0.409787 0.250000 0.946572
O O10 0.368898 0.998409 0.900698
O O11 0.392650 0.000000 0.000000
O O12 0.634247 0.500000 0.500000
O O13 0.669606 0.250000 0.450061
O O14 0.750000 0.500000 0.447846
O O15 0.171911 0.250000 0.853687
O O16 0.250000 0.000000 0.846967
#
# Coordination Sequence:
#
# PCOD9500383 Si02
#       5
#    16  16  16  16  16
#     4  10  22  40  60  82 110 145 184 228 280 336
#     4  11  21  34  54  81 112 146 186 230 277 328
#     4  10  21  38  61  88 118 152 190 231 276 329
#     4  10  17  28  47  74 108 143 181 225 275 328
#     4  11  23  39  60  86 116 149 187 232 281 332
#
# _framework density 18.700641000000001
#
# number of rings (size 3 to 8) (size 9 to 14) (size 15 to 20)
#    0.000    1.600    0.000    7.800    0.000    6.000 
#    0.000    2.000    0.000    0.600    0.000    0.000 
#    0.000    0.000    0.000    0.000    0.000    0.000 
#
# Total GULP energy -223508.234120 kJ/mol
# GULP energy per Si atom -5587.705853 kJ/mol
# Density = 1.865808 g / cm^3
# Si number density = 18.700641 Si / 1000 Ang^3
#
#
#
# Elastic Constant Matrix: (Units=GPa)
#
#
# Indices 1 2 3 4 5 6 
#
# 1 83.7058 54.1501 82.4584 0.0000 0.0000 0.0000
# 2 54.1501 120.9090 87.7693 0.0000 0.0000 0.0000
# 3 82.4584 87.7693 203.3318 0.0000 0.0000 0.0000
# 4 0.0000 0.0000 0.0000 46.0460 0.0000 0.0000
# 5 0.0000 0.0000 0.0000 0.0000 -37.9430 0.0000
# 6 0.0000 0.0000 0.0000 0.0000 0.0000 15.3421
#
#
#
# Elastic Compliance Matrix: (Units=1/GPa)
#
#
# Indices 1 2 3 4 5 6 
#
# 1 0.021683 -0.004846 -0.006701 0.000000 0.000000 0.000000
# 2 -0.004846 0.013128 -0.003701 0.000000 0.000000 0.000000
# 3 -0.006701 -0.003701 0.009233 0.000000 0.000000 0.000000
# 4 0.000000 0.000000 0.000000 0.021717 0.000000 0.000000
# 5 0.000000 0.000000 0.000000 0.000000 -0.026355 0.000000
# 6 0.000000 0.000000 0.000000 0.000000 0.000000 0.065180
#
#
# Mechanical properties :
#
#
# Convention : Reuss Voigt Hill
#
# Bulk Modulus (GPa) = 73.82024 95.18912 84.50468
# Shear Modulus (GPa) = 35.81635 16.92695 26.37165
#
# Velocity S-wave (km/s) = 4.38110 3.01184 3.75934
# Velocity P-wave (km/s) = 8.07171 7.94399 8.00810
#
# Compressibility (1/GPa) = 0.01354642
#
# Stress axis : x y z
#
# Youngs Moduli (GPa) = 46.11832 76.17251 108.30183
#
# Poissons Ratio (x) = 0.36917 0.72577
# Poissons Ratio (y) = 0.22351 0.40087
# Poissons Ratio (z) = 0.30906 0.28194
#
# Static dielectric constant tensor:
#      x y z
#    x 1.623910 0.000000 0.000000 
#    y 0.000000 1.637640 0.000000 
#    z 0.000000 0.000000 1.656740 
# 
# From -- ./inp_files/44430.got.cif
#   From: 2010.05.17/outbox.cif.g08.bks.cpg/sg67_23_cif.got.tgz:44430.got - 2010.06.03 18:28:57.
