data_PCOD9500180
_publ_section_title
;
Structure prediction by ZEFSAII (Michael W. Deem and Ramdas Pophale) SiO2 
 PCOD9500180
Probable space group: C M M A
;
_chemical_formula_sum "Si O2"
_cell_formula_units_Z 64
_cell_length_a 18.537181
_cell_length_b 8.729063
_cell_length_c 21.897097
_cell_angle_alpha 90.000000
_cell_angle_beta 90.000000
_cell_angle_gamma 90.000000
_cell_volume 3543.217894
_symmetry_space_group_name_H-M "C M M A"
_symmetry_group_IT_number 67
_symmetry_cell_setting 'orthorhombic'
loop_
_space_group_symop_operation_xyz
x,y,z
-x,1/2-y,z
x,-y,-z
-x,1/2+y,-z
-x,-y,-z
x,1/2+y,-z
-x,y,z
x,1/2-y,z
1/2+x,1/2+y,z
1/2-x,-y,z
1/2+x,1/2-y,-z
1/2-x,y,-z
1/2-x,1/2-y,-z
1/2+x,y,-z
1/2-x,1/2+y,z
1/2+x,-y,z
loop_
_atom_site_type_symbol
_atom_site_label
_atom_site_fract_x
_atom_site_fract_y
_atom_site_fract_z
Si Si1 0.414900 0.567593 0.564315
Si Si2 0.832055 0.933279 0.062457
Si Si3 0.331468 0.433751 0.813411
Si Si4 0.830638 0.066843 0.321367
O O1 0.387679 0.500000 0.500000
O O2 0.500000 0.530838 0.568370
O O3 0.406411 0.750000 0.563457
O O4 0.375600 0.498963 0.622792
O O5 0.829350 0.750000 0.060454
O O6 0.750000 0.000000 0.063432
O O7 0.865621 0.991561 0.126173
O O8 0.865191 0.000000 0.000000
O O9 0.328670 0.250000 0.821011
O O10 0.250000 0.500000 0.810536
O O11 0.362359 0.469749 0.746229
O O12 0.826707 0.250000 0.325668
O O13 0.750000 0.000000 0.324504
#
# Coordination Sequence:
#
# PCOD9500180 Si02
#       4
#    16  16  16  16
#     4  10  21  37  56  76  99 127 160 199 242 289
#     4  10  16  22  33  50  76 112 152 191 230 275
#     4   9  16  26  39  58  85 117 152 190 233 278
#     4  10  20  33  51  74 101 131 163 201 243 290
#
# _framework density 18.062677000000001
#
# number of rings (size 3 to 8) (size 9 to 14) (size 15 to 20)
#    0.000    2.250    0.000    6.750    0.000    5.000 
#    0.000    2.500    0.000    0.000    0.000    0.000 
#    0.000    1.000    0.000    3.250    0.000   13.000 
#
# Total GULP energy -178343.304307 kJ/mol
# GULP energy per Si atom -5573.228260 kJ/mol
# Density = 1.802157 g / cm^3
# Si number density = 18.062677 Si / 1000 Ang^3
#
#
#
# Elastic Constant Matrix: (Units=GPa)
#
#
# Indices 1 2 3 4 5 6 
#
# 1 13.0529 24.8625 42.7974 0.0000 0.0000 0.0000
# 2 24.8625 90.2535 81.7466 0.0000 0.0000 0.0000
# 3 42.7974 81.7466 238.0285 0.0000 0.0000 0.0000
# 4 0.0000 0.0000 0.0000 37.0774 0.0000 0.0000
# 5 0.0000 0.0000 0.0000 0.0000 -12.6135 0.0000
# 6 0.0000 0.0000 0.0000 0.0000 0.0000 14.4683
#
#
#
# Elastic Compliance Matrix: (Units=1/GPa)
#
#
# Indices 1 2 3 4 5 6 
#
# 1 0.270541 -0.044226 -0.033455 0.000000 0.000000 0.000000
# 2 -0.044226 0.023312 -0.000054 0.000000 0.000000 0.000000
# 3 -0.033455 -0.000054 0.010235 0.000000 0.000000 0.000000
# 4 0.000000 0.000000 0.000000 0.026971 0.000000 0.000000
# 5 0.000000 0.000000 0.000000 0.000000 -0.079280 0.000000
# 6 0.000000 0.000000 0.000000 0.000000 0.000000 0.069116
#
#
# Mechanical properties :
#
#
# Convention : Reuss Voigt Hill
#
# Bulk Modulus (GPa) = 6.72863 71.12754 38.92809
# Shear Modulus (GPa) = 9.50743 20.58167 15.04455
#
# Velocity S-wave (km/s) = 2.29674 3.37925 2.88915
# Velocity P-wave (km/s) = 3.28125 7.39523 5.72084
#
# Compressibility (1/GPa) = 0.14861869
#
# Stress axis : x y z
#
# Youngs Moduli (GPa) = 3.69629 42.89588 97.70432
#
# Poissons Ratio (x) = 1.89711 3.26865
# Poissons Ratio (y) = 0.16347 0.00531
# Poissons Ratio (z) = 0.12366 0.00233
#
# Static dielectric constant tensor:
#      x y z
#    x 1.584500 0.000000 0.000000 
#    y 0.000000 1.600810 0.000000 
#    z 0.000000 0.000000 1.698780 
# 
# From -- ./inp_files/31739.got.cif
#   From: 2010.05.17/outbox.cif.g08.bks.cpg/sg67_16_cif.got.tgz:31739.got - 2010.06.03 18:28:57.
