data_PCOD9500415
_publ_section_title
;
Structure prediction by ZEFSAII (Michael W. Deem and Ramdas Pophale) SiO2 
 PCOD9500415
Probable space group: C M M A
;
_chemical_formula_sum "Si O2"
_cell_formula_units_Z 52
_cell_length_a 22.983672
_cell_length_b 12.166798
_cell_length_c 7.087561
_cell_angle_alpha 90.000000
_cell_angle_beta 90.000000
_cell_angle_gamma 90.000000
_cell_volume 1981.949218
_symmetry_space_group_name_H-M "C M M A"
_symmetry_group_IT_number 67
_symmetry_cell_setting 'orthorhombic'
loop_
_space_group_symop_operation_xyz
x,y,z
-x,1/2-y,z
x,-y,-z
-x,1/2+y,-z
-x,-y,-z
x,1/2+y,-z
-x,y,z
x,1/2-y,z
1/2+x,1/2+y,z
1/2-x,-y,z
1/2+x,1/2-y,-z
1/2-x,y,-z
1/2-x,1/2-y,-z
1/2+x,y,-z
1/2-x,1/2+y,z
1/2+x,-y,z
loop_
_atom_site_type_symbol
_atom_site_label
_atom_site_fract_x
_atom_site_fract_y
_atom_site_fract_z
Si Si1 0.500000 0.250000 0.590648
Si Si2 0.069038 0.367798 0.815950
Si Si3 0.734323 0.626863 0.280413
Si Si4 0.401060 0.901071 0.255680
O O1 0.448462 0.156257 0.614892
O O2 0.092888 0.250000 0.760549
O O3 0.099567 0.468562 0.720200
O O4 0.000000 0.368346 0.776382
O O5 0.075749 0.379113 0.041944
O O6 0.757192 0.750000 0.210316
O O7 0.750000 0.500000 0.208982
O O8 0.750000 0.624346 0.500000
O O9 0.664941 0.634534 0.263192
#
# Coordination Sequence:
#
# PCOD9500415 Si02
#       4
#     4  16  16  16
#     4  12  16  30  56  94 114 148 186 234 298 352
#     4  10  17  29  50  88 126 155 178 225 299 361
#     4  10  22  40  61  81 103 156 209 245 286 334
#     4  11  18  31  56  87 119 150 189 236 286 355
#
# _framework density 26.236799000000001
#
# number of rings (size 3 to 8) (size 9 to 14) (size 15 to 20)
#    0.000    1.538    6.154    0.923    0.000    1.231 
#    0.000    3.077    0.000   12.923    0.000    0.000 
#    0.000    0.000    0.000    0.000    0.000    0.000 
#
# Total GULP energy -144914.510181 kJ/mol
# GULP energy per Si atom -5573.635007 kJ/mol
# Density = 2.617708 g / cm^3
# Si number density = 26.236799 Si / 1000 Ang^3
#
#
#
# Elastic Constant Matrix: (Units=GPa)
#
#
# Indices 1 2 3 4 5 6 
#
# 1 125.0296 42.7355 1.2439 0.0000 0.0000 0.0000
# 2 42.7355 315.7405 24.7755 0.0000 0.0000 0.0000
# 3 1.2439 24.7755 104.6748 0.0000 0.0000 0.0000
# 4 0.0000 0.0000 0.0000 27.6311 0.0000 0.0000
# 5 0.0000 0.0000 0.0000 0.0000 -66.4041 0.0000
# 6 0.0000 0.0000 0.0000 0.0000 0.0000 165.0585
#
#
#
# Elastic Compliance Matrix: (Units=1/GPa)
#
#
# Indices 1 2 3 4 5 6 
#
# 1 0.008389 -0.001149 0.000172 0.000000 0.000000 0.000000
# 2 -0.001149 0.003384 -0.000787 0.000000 0.000000 0.000000
# 3 0.000172 -0.000787 0.009738 0.000000 0.000000 0.000000
# 4 0.000000 0.000000 0.000000 0.036191 0.000000 0.000000
# 5 0.000000 0.000000 0.000000 0.000000 -0.015059 0.000000
# 6 0.000000 0.000000 0.000000 0.000000 0.000000 0.006058
#
#
# Mechanical properties :
#
#
# Convention : Reuss Voigt Hill
#
# Bulk Modulus (GPa) = 55.60801 75.88387 65.74594
# Shear Modulus (GPa) = 85.87501 57.03643 71.45572
#
# Velocity S-wave (km/s) = 5.72729 4.66758 5.22437
# Velocity P-wave (km/s) = 8.06079 7.61800 7.84252
#
# Compressibility (1/GPa) = 0.01798302
#
# Stress axis : x y z
#
# Youngs Moduli (GPa) = 119.20207 295.46814 102.69340
#
# Poissons Ratio (x) = 0.33949 -0.01769
# Poissons Ratio (y) = 0.13696 0.08086
# Poissons Ratio (z) = -0.02053 0.23266
#
# Static dielectric constant tensor:
#      x y z
#    x 1.940090 0.000000 0.000000 
#    y 0.000000 2.182290 0.000000 
#    z 0.000000 0.000000 2.134110 
# 
# From -- ./inp_files/20254.got.cif
#   From: 2010.05.17/outbox.cif.g08.bks.cpg/sg67_11_cif.got.tgz:20254.got - 2010.06.03 18:28:57.
