data_PCOD9500193
_publ_section_title
;
Structure prediction by ZEFSAII (Michael W. Deem and Ramdas Pophale) SiO2 
 PCOD9500193
Probable space group: C M M A
;
_chemical_formula_sum "Si O2"
_cell_formula_units_Z 80
_cell_length_a 14.864395
_cell_length_b 8.761869
_cell_length_c 27.744728
_cell_angle_alpha 90.000000
_cell_angle_beta 90.000000
_cell_angle_gamma 90.000000
_cell_volume 3613.470094
_symmetry_space_group_name_H-M "C M M A"
_symmetry_group_IT_number 67
_symmetry_cell_setting 'orthorhombic'
loop_
_space_group_symop_operation_xyz
x,y,z
-x,1/2-y,z
x,-y,-z
-x,1/2+y,-z
-x,-y,-z
x,1/2+y,-z
-x,y,z
x,1/2-y,z
1/2+x,1/2+y,z
1/2-x,-y,z
1/2+x,1/2-y,-z
1/2-x,y,-z
1/2-x,1/2-y,-z
1/2+x,y,-z
1/2-x,1/2+y,z
1/2+x,-y,z
loop_
_atom_site_type_symbol
_atom_site_label
_atom_site_fract_x
_atom_site_fract_y
_atom_site_fract_z
Si Si1 0.393581 0.419319 0.353305
Si Si2 0.147522 0.066402 0.148383
Si Si3 0.647563 0.566065 0.950510
Si Si4 0.610279 0.077537 0.549676
Si Si5 0.649406 0.934949 0.753332
O O1 0.500000 0.405919 0.361504
O O2 0.352708 0.250000 0.351988
O O3 0.358588 0.505568 0.400027
O O4 0.385513 0.483088 0.299310
O O5 0.149186 0.250000 0.146822
O O6 0.250000 0.000000 0.148982
O O7 0.107077 0.997872 0.099243
O O8 0.106466 0.006671 0.198585
O O9 0.648687 0.750000 0.950887
O O10 0.750000 0.500000 0.950341
O O11 0.607117 0.500000 0.000000
O O12 0.500000 0.074765 0.549756
O O13 0.640356 0.250000 0.548422
O O14 0.638567 0.000000 0.500000
O O15 0.645717 0.750000 0.757108
O O16 0.750000 0.000000 0.753019
#
# Coordination Sequence:
#
# PCOD9500193 Si02
#       5
#    16  16  16  16  16
#     4   9  18  32  49  69  93 120 151 187 225 265
#     4  10  17  26  39  56  80 111 147 183 220 264
#     4  10  16  23  34  51  76 106 141 179 222 267
#     4   9  16  26  43  67  93 119 147 181 222 267
#     4  10  19  31  47  66  90 121 154 187 224 267
#
# _framework density 22.139384
#
# number of rings (size 3 to 8) (size 9 to 14) (size 15 to 20)
#    0.000    2.400    0.000    7.800    0.000    4.000 
#    0.000    0.000    0.000    0.600    0.000    4.200 
#    0.000    0.800    0.000    2.200    0.000    8.600 
#
# Total GULP energy -223072.757898 kJ/mol
# GULP energy per Si atom -5576.818947 kJ/mol
# Density = 2.208899 g / cm^3
# Si number density = 22.139384 Si / 1000 Ang^3
#
#
#
# Elastic Constant Matrix: (Units=GPa)
#
#
# Indices 1 2 3 4 5 6 
#
# 1 47.7295 8.8003 11.8380 0.0000 0.0000 0.0000
# 2 8.8003 173.7854 126.8541 0.0000 0.0000 0.0000
# 3 11.8380 126.8541 296.8943 0.0000 0.0000 0.0000
# 4 0.0000 0.0000 0.0000 45.6659 0.0000 0.0000
# 5 0.0000 0.0000 0.0000 0.0000 13.5057 0.0000
# 6 0.0000 0.0000 0.0000 0.0000 0.0000 -7.0166
#
#
#
# Elastic Compliance Matrix: (Units=1/GPa)
#
#
# Indices 1 2 3 4 5 6 
#
# 1 0.021213 -0.000664 -0.000562 0.000000 0.000000 0.000000
# 2 -0.000664 0.008383 -0.003555 0.000000 0.000000 0.000000
# 3 -0.000562 -0.003555 0.004910 0.000000 0.000000 0.000000
# 4 0.000000 0.000000 0.000000 0.021898 0.000000 0.000000
# 5 0.000000 0.000000 0.000000 0.000000 0.074043 0.000000
# 6 0.000000 0.000000 0.000000 0.000000 0.000000 -0.142519
#
#
# Mechanical properties :
#
#
# Convention : Reuss Voigt Hill
#
# Bulk Modulus (GPa) = 40.09105 90.37711 65.23408
# Shear Modulus (GPa) = 861.33227 35.15878 448.24553
#
# Velocity S-wave (km/s) = 19.74574 3.98938 14.24446
# Velocity P-wave (km/s) = 23.19498 7.88230 17.32249
#
# Compressibility (1/GPa) = 0.02494322
#
# Stress axis : x y z
#
# Youngs Moduli (GPa) = 47.14037 119.28811 203.67760
#
# Poissons Ratio (x) = 0.07919 0.11451
# Poissons Ratio (y) = 0.03129 0.72415
# Poissons Ratio (z) = 0.02650 0.42411
#
# Static dielectric constant tensor:
#      x y z
#    x 1.853170 0.000000 0.000000 
#    y 0.000000 1.773080 0.000000 
#    z 0.000000 0.000000 1.950570 
# 
# From -- ./inp_files/44426.got.cif
#   From: 2010.05.17/outbox.cif.g08.bks.cpg/sg67_23_cif.got.tgz:44426.got - 2010.06.03 18:28:57.
