data_PCOD9500065
_publ_section_title
;
Structure prediction by ZEFSAII (Michael W. Deem and Ramdas Pophale) SiO2 
 PCOD9500065
Probable space group: C C C M
;
_chemical_formula_sum "Si O2"
_cell_formula_units_Z 48
_cell_length_a 27.000000
_cell_length_b 21.000000
_cell_length_c 9.000000
_cell_angle_alpha 90.000000
_cell_angle_beta 90.000000
_cell_angle_gamma 90.000000
_cell_volume 5103.000000
_symmetry_space_group_name_H-M "C C C M"
_symmetry_group_IT_number 66
_symmetry_cell_setting 'orthorhombic'
loop_
_space_group_symop_operation_xyz
x,y,z
-x,-y,z
x,-y,1/2-z
-x,y,1/2-z
-x,-y,-z
x,y,-z
-x,y,1/2+z
x,-y,1/2+z
1/2+x,1/2+y,z
1/2-x,1/2-y,z
1/2+x,1/2-y,1/2-z
1/2-x,1/2+y,1/2-z
1/2-x,1/2-y,-z
1/2+x,1/2+y,-z
1/2-x,1/2+y,1/2+z
1/2+x,1/2-y,1/2+z
loop_
_atom_site_type_symbol
_atom_site_label
_atom_site_fract_x
_atom_site_fract_y
_atom_site_fract_z
Si Si1 0.053665 0.198832 0.824784
Si Si2 0.772281 0.437788 0.666872
Si Si3 0.228287 0.313000 0.329509
Si Si4 0.554804 0.560330 0.823419
Si Si5 0.393340 0.936195 0.330075
Si Si6 0.109320 0.309106 0.331087
O O1 0.076377 0.129448 0.790963
O O2 0.089206 0.252868 0.767526
O O3 0.000000 0.205014 0.750000
O O4 0.046362 0.202614 0.000000
O O5 0.755661 0.500000 0.750000
O O6 0.755615 0.439284 0.500000
O O7 0.754832 0.375080 0.746555
O O8 0.832817 0.437225 0.668790
O O9 0.244942 0.316647 0.500000
O O10 0.250000 0.250000 0.258638
O O11 0.168879 0.310222 0.328948
O O12 0.580720 0.500000 0.750000
O O13 0.500000 0.563374 0.750000
O O14 0.550221 0.551703 0.000000
O O15 0.409584 0.932576 0.500000
O O16 0.408710 0.875373 0.236423
O O17 0.410069 0.000000 0.250000
O O18 0.092706 0.301300 0.500000
#
# Coordination Sequence:
#
# PCOD9500065 Si02
#       6
#    16  16  16  16  16  16
#     4  10  20  33  49  71  98 127 159 196 237 282
#     4   9  16  26  43  67  93 121 155 196 238 279
#     4   9  18  32  49  70  97 127 159 196 238 284
#     4   9  16  26  43  66  91 118 150 190 232 272
#     4   9  16  27  44  67  94 122 155 196 237 277
#     4  10  19  31  49  72  97 127 160 195 238 284
#
# _framework density 9.4062319999999993
#
# number of rings (size 3 to 8) (size 9 to 14) (size 15 to 20)
#    0.000    2.667    0.000    3.000    0.000    7.000 
#    0.000    0.000    0.000    1.500    0.000    5.833 
#    0.000    0.000    0.000    0.000    0.000    0.000 
#
# Total GULP energy -267290.098381 kJ/mol
# GULP energy per Si atom -5568.543716 kJ/mol
# Density = 0.938482 g / cm^3
# Si number density = 9.406232 Si / 1000 Ang^3
#
#
#
# Elastic Constant Matrix: (Units=GPa)
#
#
# Indices 1 2 3 4 5 6 
#
# 1 -13.7902 12.9650 9.4074 0.0000 0.0000 0.0000
# 2 12.9650 186.8060 76.0442 0.0000 0.0000 0.0000
# 3 9.4074 76.0442 73.8544 0.0000 0.0000 0.0000
# 4 0.0000 0.0000 0.0000 30.3382 0.0000 0.0000
# 5 0.0000 0.0000 0.0000 0.0000 12.9493 0.0000
# 6 0.0000 0.0000 0.0000 0.0000 0.0000 79.7862
#
#
#
# Elastic Compliance Matrix: (Units=1/GPa)
#
#
# Indices 1 2 3 4 5 6 
#
# 1 -0.066280 0.002003 0.006381 0.000000 0.000000 0.000000
# 2 0.002003 0.009155 -0.009682 0.000000 0.000000 0.000000
# 3 0.006381 -0.009682 0.022697 0.000000 0.000000 0.000000
# 4 0.000000 0.000000 0.000000 0.032962 0.000000 0.000000
# 5 0.000000 0.000000 0.000000 0.000000 0.077224 0.000000
# 6 0.000000 0.000000 0.000000 0.000000 0.000000 0.012533
#
#
# Mechanical properties :
#
#
# Convention : Reuss Voigt Hill
#
# Bulk Modulus (GPa) = -27.00847 49.30038 11.14595
# Shear Modulus (GPa) = 63.65575 34.51166 49.08371
#
# Velocity S-wave (km/s) = 5.82327 4.28777 5.11348
# Velocity P-wave (km/s) = 5.55213 7.12575 6.38758
#
# Compressibility (1/GPa) = -0.03702542
#
# Stress axis : x y z
#
# Youngs Moduli (GPa) = -15.08755 109.22433 44.05963
#
# Poissons Ratio (x) = -0.21874 -0.28112
# Poissons Ratio (y) = 0.03022 0.42659
# Poissons Ratio (z) = 0.09627 1.05751
#
# Static dielectric constant tensor:
#      x y z
#    x 1.651030 0.000000 0.000000 
#    y 0.000000 1.671660 0.000000 
#    z 0.000000 0.000000 1.632400 
# 
# From -- ./inp_files/8045.got.cif
#   From: 2010.05.17/outbox.ucp.g08.bks.cvg/sg66_5_cif.got.tgz:8045.got - 2010.06.11 16:44:13.
