data_PCOD9500972
_publ_section_title
;
Structure prediction by ZEFSAII (Michael W. Deem and Ramdas Pophale) SiO2 
 PCOD9500972
Probable space group: C M M A
;
_chemical_formula_sum "Si O2"
_cell_formula_units_Z 116
_cell_length_a 17.783691
_cell_length_b 32.224161
_cell_length_c 11.478627
_cell_angle_alpha 90.000000
_cell_angle_beta 90.000000
_cell_angle_gamma 90.000000
_cell_volume 6577.993894
_symmetry_space_group_name_H-M "C M M A"
_symmetry_group_IT_number 67
_symmetry_cell_setting 'orthorhombic'
loop_
_space_group_symop_operation_xyz
x,y,z
-x,1/2-y,z
x,-y,-z
-x,1/2+y,-z
-x,-y,-z
x,1/2+y,-z
-x,y,z
x,1/2-y,z
1/2+x,1/2+y,z
1/2-x,-y,z
1/2+x,1/2-y,-z
1/2-x,y,-z
1/2-x,1/2-y,-z
1/2+x,y,-z
1/2-x,1/2+y,z
1/2+x,-y,z
loop_
_atom_site_type_symbol
_atom_site_label
_atom_site_fract_x
_atom_site_fract_y
_atom_site_fract_z
Si Si1 0.409180 0.797925 0.011871
Si Si2 0.909557 0.907675 0.607759
Si Si3 0.589145 0.577498 0.660124
Si Si4 0.626534 0.821419 0.263668
Si Si5 0.337011 0.993616 0.360410
Si Si6 0.720215 0.701038 0.622509
Si Si7 0.089756 0.662393 0.236432
Si Si8 0.500000 0.750000 0.311695
O O1 0.500000 0.796286 0.019362
O O2 0.382649 0.750000 0.018375
O O3 0.390481 0.818311 0.888462
O O4 0.382736 0.822953 0.124289
O O5 0.886040 0.908229 0.470465
O O6 0.889078 0.864929 0.671797
O O7 0.000000 0.912860 0.612374
O O8 0.869680 0.948074 0.663855
O O9 0.500000 0.573889 0.652293
O O10 0.620353 0.532777 0.692798
O O11 0.606377 0.613676 0.751348
O O12 0.711489 0.807664 0.290169
O O13 0.566503 0.786602 0.306028
O O14 0.346173 0.000000 0.500000
O O15 0.250000 0.000000 0.332579
O O16 0.709696 0.750000 0.609339
O O17 0.750000 0.683545 0.500000
O O18 0.641599 0.683330 0.666489
O O19 0.000000 0.668784 0.256626
#
# Coordination Sequence:
#
# PCOD9500972 Si02
#       8
#    16  16  16  16  16  16  16   4
#     4  10  18  35  60  84 111 148 201 250 285 338
#     4  10  19  31  54  83 111 145 190 232 284 356
#     4   9  18  34  52  76 112 146 185 228 282 345
#     4  12  21  37  59  84 117 151 195 245 296 339
#     4   9  18  31  51  80 109 144 181 230 289 339
#     4  11  24  39  52  81 116 148 191 241 290 346
#     4  10  22  38  58  81 111 156 195 233 293 344
#     4  12  20  40  58  86 118 162 194 242 308 338
#
# _framework density 17.634556
#
# number of rings (size 3 to 8) (size 9 to 14) (size 15 to 20)
#    0.000    1.793    2.759    1.655    1.931    3.034 
#    1.241    1.379    0.000    0.828    0.000    4.828 
#    0.000    0.000    0.000    0.000    0.000    0.000 
#
# Total GULP energy -322904.911034 kJ/mol
# GULP energy per Si atom -5567.326052 kJ/mol
# Density = 1.759442 g / cm^3
# Si number density = 17.634556 Si / 1000 Ang^3
#
#
#
# Elastic Constant Matrix: (Units=GPa)
#
#
# Indices 1 2 3 4 5 6 
#
# 1 20.1440 28.4327 5.1729 0.0000 0.0000 0.0000
# 2 28.4327 136.3033 31.2413 0.0000 0.0000 0.0000
# 3 5.1729 31.2413 59.3864 0.0000 0.0000 0.0000
# 4 0.0000 0.0000 0.0000 12.5496 0.0000 0.0000
# 5 0.0000 0.0000 0.0000 0.0000 7.4372 0.0000
# 6 0.0000 0.0000 0.0000 0.0000 0.0000 24.1098
#
#
#
# Elastic Compliance Matrix: (Units=1/GPa)
#
#
# Indices 1 2 3 4 5 6 
#
# 1 0.070530 -0.015128 0.001815 0.000000 0.000000 0.000000
# 2 -0.015128 0.011587 -0.004778 0.000000 0.000000 0.000000
# 3 0.001815 -0.004778 0.019194 0.000000 0.000000 0.000000
# 4 0.000000 0.000000 0.000000 0.079684 0.000000 0.000000
# 5 0.000000 0.000000 0.000000 0.000000 0.134459 0.000000
# 6 0.000000 0.000000 0.000000 0.000000 0.000000 0.041477
#
#
# Mechanical properties :
#
#
# Convention : Reuss Voigt Hill
#
# Bulk Modulus (GPa) = 15.35421 38.39194 26.87308
# Shear Modulus (GPa) = 12.05333 18.88513 15.46923
#
# Velocity S-wave (km/s) = 2.61723 3.27604 2.96499
# Velocity P-wave (km/s) = 4.22599 6.01066 5.19553
#
# Compressibility (1/GPa) = 0.06512871
#
# Stress axis : x y z
#
# Youngs Moduli (GPa) = 14.17844 86.29991 52.09860
#
# Poissons Ratio (x) = 1.30558 -0.09456
# Poissons Ratio (y) = 0.21450 0.24893
# Poissons Ratio (z) = -0.02573 0.41235
#
# Static dielectric constant tensor:
#      x y z
#    x 1.611940 0.000000 0.000000 
#    y 0.000000 1.605110 0.000000 
#    z 0.000000 0.000000 1.621800 
# 
# From -- ./inp_files/20119.got.cif
#   From: 2010.05.17/outbox.cif.g08.bks.cpg/sg67_11_cif.got.tgz:20119.got - 2010.06.03 18:28:57.
