data_PCOD9500650
_publ_section_title
;
Structure prediction by ZEFSAII (Michael W. Deem and Ramdas Pophale) SiO2 
 PCOD9500650
Probable space group: C M M A
;
_chemical_formula_sum "Si O2"
_cell_formula_units_Z 88
_cell_length_a 11.063145
_cell_length_b 24.273073
_cell_length_c 17.790956
_cell_angle_alpha 90.000000
_cell_angle_beta 90.000000
_cell_angle_gamma 90.000000
_cell_volume 4777.521522
_symmetry_space_group_name_H-M "C M M A"
_symmetry_group_IT_number 67
_symmetry_cell_setting 'orthorhombic'
loop_
_space_group_symop_operation_xyz
x,y,z
-x,1/2-y,z
x,-y,-z
-x,1/2+y,-z
-x,-y,-z
x,1/2+y,-z
-x,y,z
x,1/2-y,z
1/2+x,1/2+y,z
1/2-x,-y,z
1/2+x,1/2-y,-z
1/2-x,y,-z
1/2-x,1/2-y,-z
1/2+x,y,-z
1/2-x,1/2+y,z
1/2+x,-y,z
loop_
_atom_site_type_symbol
_atom_site_label
_atom_site_fract_x
_atom_site_fract_y
_atom_site_fract_z
Si Si1 0.765875 0.816428 0.915776
Si Si2 0.265603 0.355205 0.374935
Si Si3 0.500000 0.183032 0.823129
Si Si4 0.359370 0.186252 0.230775
Si Si5 0.500000 0.317045 0.646508
Si Si6 0.636529 0.029160 0.417668
Si Si7 0.866904 0.750000 0.448280
O O1 0.777135 0.750000 0.922829
O O2 0.883711 0.835351 0.870209
O O3 0.658597 0.826686 0.856939
O O4 0.750000 0.838267 0.000000
O O5 0.286953 0.354536 0.285235
O O6 0.124025 0.341417 0.388713
O O7 0.319065 0.407882 0.416990
O O8 0.347888 0.304148 0.399751
O O9 0.500000 0.250000 0.822452
O O10 0.500000 0.167550 0.735346
O O11 0.500000 0.184719 0.249355
O O12 0.313945 0.250000 0.241354
O O13 0.500000 0.250000 0.643731
O O14 0.500000 0.025206 0.386423
O O15 0.629950 0.000000 0.500000
O O16 0.750000 0.000000 0.376804
O O17 0.750000 0.750000 0.500000
O O18 0.000000 0.750000 0.482763
#
# Coordination Sequence:
#
# PCOD9500650 Si02
#       7
#    16  16   8  16   8  16   8
#     4   9  17  26  39  66 108 157 199 239 276 326
#     4  12  23  41  64  86 120 153 197 247 300 359
#     4   9  16  28  44  69 109 152 208 247 279 326
#     4  10  18  30  50  77 109 152 197 237 286 341
#     4  11  20  36  61  93 121 162 205 252 296 350
#     4  10  24  45  66  87 111 146 189 241 303 364
#     4  12  28  42  60  90 119 148 187 242 305 370
#
# _framework density 18.419592999999999
#
# number of rings (size 3 to 8) (size 9 to 14) (size 15 to 20)
#    0.000    1.636    3.636    1.636    6.364    0.000 
#    0.000    0.000    0.000    0.000    0.000    0.000 
#    0.000    0.727    0.000    5.091    0.000    0.727 
#
# Total GULP energy -245216.108644 kJ/mol
# GULP energy per Si atom -5573.093378 kJ/mol
# Density = 1.837767 g / cm^3
# Si number density = 18.419593 Si / 1000 Ang^3
#
#
#
# Elastic Constant Matrix: (Units=GPa)
#
#
# Indices 1 2 3 4 5 6 
#
# 1 157.0537 27.0000 24.6083 0.0000 0.0000 0.0000
# 2 27.0000 78.2746 22.1047 0.0000 0.0000 0.0000
# 3 24.6083 22.1047 92.3085 0.0000 0.0000 0.0000
# 4 0.0000 0.0000 0.0000 -3.6901 0.0000 0.0000
# 5 0.0000 0.0000 0.0000 0.0000 22.2617 0.0000
# 6 0.0000 0.0000 0.0000 0.0000 0.0000 10.6556
#
#
#
# Elastic Compliance Matrix: (Units=1/GPa)
#
#
# Indices 1 2 3 4 5 6 
#
# 1 0.006926 -0.002003 -0.001367 0.000000 0.000000 0.000000
# 2 -0.002003 0.014281 -0.002886 0.000000 0.000000 0.000000
# 3 -0.001367 -0.002886 0.011889 0.000000 0.000000 0.000000
# 4 0.000000 0.000000 0.000000 -0.270996 0.000000 0.000000
# 5 0.000000 0.000000 0.000000 0.000000 0.044920 0.000000
# 6 0.000000 0.000000 0.000000 0.000000 0.000000 0.093847
#
#
# Mechanical properties :
#
#
# Convention : Reuss Voigt Hill
#
# Bulk Modulus (GPa) = 48.58000 52.78477 50.68238
# Shear Modulus (GPa) = -62.68766 22.77371 -19.95697
#
# Velocity S-wave (km/s) = -5.84012 3.52004 -3.29517
# Velocity P-wave (km/s) = 4.36402 6.72607 3.61907
#
# Compressibility (1/GPa) = 0.02058460
#
# Stress axis : x y z
#
# Youngs Moduli (GPa) = 144.38898 70.02098 84.11380
#
# Poissons Ratio (x) = 0.14025 0.11495
# Poissons Ratio (y) = 0.28921 0.24275
# Poissons Ratio (z) = 0.19733 0.20208
#
# Static dielectric constant tensor:
#      x y z
#    x 1.710150 0.000000 0.000000 
#    y 0.000000 1.893870 0.000000 
#    z 0.000000 0.000000 1.716710 
# 
# From -- ./inp_files/32944.got.cif
#   From: 2010.05.17/outbox.cif.g08.bks.cpg/sg67_17_cif.got.tgz:32944.got - 2010.06.03 18:28:57.
