data_PCOD9500529
_publ_section_title
;
Structure prediction by ZEFSAII (Michael W. Deem and Ramdas Pophale) SiO2 
 PCOD9500529
Probable space group: C M M A
;
_chemical_formula_sum "Si O2"
_cell_formula_units_Z 112
_cell_length_a 16.411375
_cell_length_b 28.032689
_cell_length_c 14.474355
_cell_angle_alpha 90.000000
_cell_angle_beta 90.000000
_cell_angle_gamma 90.000000
_cell_volume 6658.998976
_symmetry_space_group_name_H-M "C M M A"
_symmetry_group_IT_number 67
_symmetry_cell_setting 'orthorhombic'
loop_
_space_group_symop_operation_xyz
x,y,z
-x,1/2-y,z
x,-y,-z
-x,1/2+y,-z
-x,-y,-z
x,1/2+y,-z
-x,y,z
x,1/2-y,z
1/2+x,1/2+y,z
1/2-x,-y,z
1/2+x,1/2-y,-z
1/2-x,y,-z
1/2-x,1/2-y,-z
1/2+x,y,-z
1/2-x,1/2+y,z
1/2+x,-y,z
loop_
_atom_site_type_symbol
_atom_site_label
_atom_site_fract_x
_atom_site_fract_y
_atom_site_fract_z
Si Si1 0.689859 0.303998 0.589228
Si Si2 0.806483 0.045267 0.384824
Si Si3 0.595005 0.909187 0.847637
Si Si4 0.403878 0.481196 0.790719
Si Si5 0.595564 0.115085 0.492436
Si Si6 0.655130 0.946911 0.026169
Si Si7 0.304889 0.630334 0.689656
O O1 0.662345 0.250000 0.604935
O O2 0.750000 0.304410 0.500000
O O3 0.619680 0.341291 0.560871
O O4 0.745692 0.324941 0.671224
O O5 0.875091 0.029820 0.311851
O O6 0.850001 0.070802 0.471238
O O7 0.751149 0.084882 0.334448
O O8 0.750000 0.000000 0.402811
O O9 0.500000 0.900235 0.828993
O O10 0.652993 0.875122 0.788442
O O11 0.614957 0.963304 0.813037
O O12 0.610975 0.910529 0.957562
O O13 0.500000 0.474733 0.802116
O O14 0.359194 0.446740 0.864578
O O15 0.500000 0.104837 0.494479
O O16 0.625662 0.129024 0.390035
O O17 0.750000 0.945132 0.000000
O O18 0.623171 0.000000 0.000000
#
# Coordination Sequence:
#
# PCOD9500529 Si02
#       7
#    16  16  16  16  16  16  16
#     4   8  16  32  53  73  93 122 158 198 250 307
#     4  11  20  33  47  62  91 131 171 204 241 287
#     4  10  18  29  43  65  93 124 160 203 246 284
#     4  10  19  30  44  64  89 123 166 209 244 278
#     4  10  21  34  48  70  97 125 162 209 251 291
#     4   9  17  27  44  62  88 121 161 202 244 289
#     4  10  19  32  49  67  96 129 163 202 241 298
#
# _framework density 16.819344999999998
#
# number of rings (size 3 to 8) (size 9 to 14) (size 15 to 20)
#    0.000    2.286    1.429    3.429    2.000    3.143 
#    0.000    0.714    0.000    1.286    0.000    0.000 
#    0.000   14.286    0.000    6.286    0.000    0.571 
#
# Total GULP energy -312223.670822 kJ/mol
# GULP energy per Si atom -5575.422693 kJ/mol
# Density = 1.678106 g / cm^3
# Si number density = 16.819345 Si / 1000 Ang^3
#
#
#
# Elastic Constant Matrix: (Units=GPa)
#
#
# Indices 1 2 3 4 5 6 
#
# 1 63.3831 13.2674 4.3878 0.0000 0.0000 0.0000
# 2 13.2674 59.0611 1.1357 0.0000 0.0000 0.0000
# 3 4.3878 1.1357 52.6452 0.0000 0.0000 0.0000
# 4 0.0000 0.0000 0.0000 12.8231 0.0000 0.0000
# 5 0.0000 0.0000 0.0000 0.0000 25.2092 0.0000
# 6 0.0000 0.0000 0.0000 0.0000 0.0000 10.5306
#
#
#
# Elastic Compliance Matrix: (Units=1/GPa)
#
#
# Indices 1 2 3 4 5 6 
#
# 1 0.016645 -0.003714 -0.001307 0.000000 0.000000 0.000000
# 2 -0.003714 0.017767 -0.000074 0.000000 0.000000 0.000000
# 3 -0.001307 -0.000074 0.019106 0.000000 0.000000 0.000000
# 4 0.000000 0.000000 0.000000 0.077984 0.000000 0.000000
# 5 0.000000 0.000000 0.000000 0.000000 0.039668 0.000000
# 6 0.000000 0.000000 0.000000 0.000000 0.000000 0.094961
#
#
# Mechanical properties :
#
#
# Convention : Reuss Voigt Hill
#
# Bulk Modulus (GPa) = 23.07966 23.63011 23.35489
# Shear Modulus (GPa) = 17.19608 20.13249 18.66428
#
# Velocity S-wave (km/s) = 3.20097 3.46350 3.33482
# Velocity P-wave (km/s) = 5.23579 5.48400 5.36133
#
# Compressibility (1/GPa) = 0.04332820
#
# Stress axis : x y z
#
# Youngs Moduli (GPa) = 60.07821 56.28304 52.34059
#
# Poissons Ratio (x) = 0.20903 0.06842
# Poissons Ratio (y) = 0.22313 0.00386
# Poissons Ratio (z) = 0.07853 0.00415
#
# Static dielectric constant tensor:
#      x y z
#    x 1.567520 0.000000 0.000000 
#    y 0.000000 1.559790 0.000000 
#    z 0.000000 0.000000 1.614770 
# 
# From -- ./inp_files/27677.got.cif
#   From: 2010.05.17/outbox.cif.g08.bks.cpg/sg67_14_cif.got.tgz:27677.got - 2010.06.03 18:28:57.
