data_PCOD9500912
_publ_section_title
;
Structure prediction by ZEFSAII (Michael W. Deem and Ramdas Pophale) SiO2 
 PCOD9500912
Probable space group: C M M A
;
_chemical_formula_sum "Si O2"
_cell_formula_units_Z 96
_cell_length_a 29.718260
_cell_length_b 8.456510
_cell_length_c 21.236449
_cell_angle_alpha 90.000000
_cell_angle_beta 90.000000
_cell_angle_gamma 90.000000
_cell_volume 5336.990672
_symmetry_space_group_name_H-M "C M M A"
_symmetry_group_IT_number 67
_symmetry_cell_setting 'orthorhombic'
loop_
_space_group_symop_operation_xyz
x,y,z
-x,1/2-y,z
x,-y,-z
-x,1/2+y,-z
-x,-y,-z
x,1/2+y,-z
-x,y,z
x,1/2-y,z
1/2+x,1/2+y,z
1/2-x,-y,z
1/2+x,1/2-y,-z
1/2-x,y,-z
1/2-x,1/2-y,-z
1/2+x,y,-z
1/2-x,1/2+y,z
1/2+x,-y,z
loop_
_atom_site_type_symbol
_atom_site_label
_atom_site_fract_x
_atom_site_fract_y
_atom_site_fract_z
Si Si1 0.298355 0.939156 0.617953
Si Si2 0.051657 0.057029 0.690415
Si Si3 0.389980 0.558334 0.811700
Si Si4 0.701842 0.562065 0.238932
Si Si5 0.393526 0.059168 0.432533
Si Si6 0.448261 0.440857 0.069277
O O1 0.297557 0.750000 0.617080
O O2 0.342120 0.994852 0.580022
O O3 0.250000 0.000000 0.595087
O O4 0.304026 0.992822 0.690475
O O5 0.051478 0.250000 0.690457
O O6 0.080406 0.008515 0.751179
O O7 0.075986 0.006222 0.626133
O O8 0.000000 0.004684 0.693916
O O9 0.388010 0.750000 0.811303
O O10 0.340063 0.493049 0.802555
O O11 0.415159 0.506837 0.875222
O O12 0.703206 0.750000 0.243607
O O13 0.750000 0.500000 0.215392
O O14 0.393593 0.250000 0.432481
O O15 0.409477 0.000000 0.500000
O O16 0.500000 0.492014 0.081587
O O17 0.448184 0.250000 0.069029
O O18 0.435465 0.500000 0.000000
#
# Coordination Sequence:
#
# PCOD9500912 Si02
#       6
#    16  16  16  16  16  16
#     4  10  19  34  53  75 101 132 169 214 264 318
#     4   9  17  32  54  76  99 132 176 220 259 306
#     4  10  18  33  56  81 108 139 180 220 258 307
#     4  11  21  33  53  80 108 138 171 214 266 315
#     4  10  21  35  51  72 100 134 173 217 265 314
#     4   9  18  32  53  82 115 151 184 217 259 308
#
# _framework density 17.987663999999999
#
# number of rings (size 3 to 8) (size 9 to 14) (size 15 to 20)
#    0.000    2.167    1.667    3.500    0.000    4.667 
#    0.000    1.667    0.000    3.000    0.000    3.500 
#    0.000    0.000    0.000    0.000    0.000    0.000 
#
# Total GULP energy -267932.092385 kJ/mol
# GULP energy per Si atom -5581.918591 kJ/mol
# Density = 1.794672 g / cm^3
# Si number density = 17.987664 Si / 1000 Ang^3
#
#
#
# Elastic Constant Matrix: (Units=GPa)
#
#
# Indices 1 2 3 4 5 6 
#
# 1 136.5636 17.4007 77.9779 0.0000 0.0000 0.0000
# 2 17.4007 24.8977 13.0871 0.0000 0.0000 0.0000
# 3 77.9779 13.0871 123.3908 0.0000 0.0000 0.0000
# 4 0.0000 0.0000 0.0000 24.8489 0.0000 0.0000
# 5 0.0000 0.0000 0.0000 0.0000 25.6862 0.0000
# 6 0.0000 0.0000 0.0000 0.0000 0.0000 18.1383
#
#
#
# Elastic Compliance Matrix: (Units=1/GPa)
#
#
# Indices 1 2 3 4 5 6 
#
# 1 0.011942 -0.004638 -0.007055 0.000000 0.000000 0.000000
# 2 -0.004638 0.044337 -0.001772 0.000000 0.000000 0.000000
# 3 -0.007055 -0.001772 0.012751 0.000000 0.000000 0.000000
# 4 0.000000 0.000000 0.000000 0.040243 0.000000 0.000000
# 5 0.000000 0.000000 0.000000 0.000000 0.038931 0.000000
# 6 0.000000 0.000000 0.000000 0.000000 0.000000 0.055132
#
#
# Mechanical properties :
#
#
# Convention : Reuss Voigt Hill
#
# Bulk Modulus (GPa) = 23.75249 55.75374 39.75312
# Shear Modulus (GPa) = 20.46682 25.49378 22.98030
#
# Velocity S-wave (km/s) = 3.37683 3.76878 3.57817
# Velocity P-wave (km/s) = 5.33268 7.07114 6.26253
#
# Compressibility (1/GPa) = 0.04210084
#
# Stress axis : x y z
#
# Youngs Moduli (GPa) = 83.73888 22.55464 78.42751
#
# Poissons Ratio (x) = 0.10460 0.55330
# Poissons Ratio (y) = 0.38836 0.13894
# Poissons Ratio (z) = 0.59077 0.03996
#
# Static dielectric constant tensor:
#      x y z
#    x 1.619190 0.000000 0.000000 
#    y 0.000000 1.621570 0.000000 
#    z 0.000000 0.000000 1.593480 
# 
# From -- ./inp_files/39866.got.cif
#   From: 2010.05.17/outbox.cif.g08.bks.cpg/sg67_20_cif.got.tgz:39866.got - 2010.06.03 18:28:57.
