data_PCOD9500535
_publ_section_title
;
Structure prediction by ZEFSAII (Michael W. Deem and Ramdas Pophale) SiO2 
 PCOD9500535
Probable space group: C M M A
;
_chemical_formula_sum "Si O2"
_cell_formula_units_Z 96
_cell_length_a 9.802529
_cell_length_b 26.989868
_cell_length_c 22.817057
_cell_angle_alpha 90.000000
_cell_angle_beta 90.000000
_cell_angle_gamma 90.000000
_cell_volume 6036.685127
_symmetry_space_group_name_H-M "C M M A"
_symmetry_group_IT_number 67
_symmetry_cell_setting 'orthorhombic'
loop_
_space_group_symop_operation_xyz
x,y,z
-x,1/2-y,z
x,-y,-z
-x,1/2+y,-z
-x,-y,-z
x,1/2+y,-z
-x,y,z
x,1/2-y,z
1/2+x,1/2+y,z
1/2-x,-y,z
1/2+x,1/2-y,-z
1/2-x,y,-z
1/2-x,1/2-y,-z
1/2+x,y,-z
1/2-x,1/2+y,z
1/2+x,-y,z
loop_
_atom_site_type_symbol
_atom_site_label
_atom_site_fract_x
_atom_site_fract_y
_atom_site_fract_z
Si Si1 0.745501 0.940275 0.147571
Si Si2 0.842198 0.692072 0.321798
Si Si3 0.337451 0.139964 0.446375
Si Si4 0.835845 0.949386 0.608707
Si Si5 0.500000 0.059173 0.936341
Si Si6 0.839565 0.892557 0.731393
Si Si7 0.000000 0.061057 0.930120
O O1 0.626500 0.926479 0.102996
O O2 0.724286 0.916315 0.210577
O O3 0.875069 0.924755 0.110359
O O4 0.750000 0.000000 0.155306
O O5 0.811517 0.750000 0.315756
O O6 0.833144 0.675269 0.389667
O O7 0.740933 0.656859 0.286314
O O8 0.000000 0.683472 0.303827
O O9 0.500000 0.130500 0.458985
O O10 0.250000 0.161872 0.500000
O O11 0.249392 0.091051 0.428789
O O12 0.828765 0.929729 0.675795
O O13 0.000000 0.953178 0.593964
O O14 0.750000 0.000000 0.603297
O O15 0.500000 0.998937 0.937178
O O16 0.500000 0.078589 0.002689
O O17 0.000000 0.883304 0.740929
#
# Coordination Sequence:
#
# PCOD9500535 Si02
#       7
#    16  16  16  16   8  16   8
#     4  10  18  29  44  69 101 138 174 207 241 283
#     4   9  20  38  57  76  99 125 155 200 253 301
#     4  10  20  35  54  77 102 130 162 198 240 291
#     4  10  20  34  50  71 100 135 171 207 245 284
#     4   9  16  30  42  62 101 137 174 211 239 281
#     4  10  20  33  49  72 101 130 165 207 249 296
#     4   9  18  26  44  66  93 141 180 203 241 281
#
# _framework density 15.902767000000001
#
# number of rings (size 3 to 8) (size 9 to 14) (size 15 to 20)
#    0.000    2.333    0.833    2.000    1.167    4.333 
#    0.000    1.667    0.000    0.000    0.000    0.000 
#    0.000    4.000    0.000    0.000    0.000    0.000 
#
# Total GULP energy -267299.057496 kJ/mol
# GULP energy per Si atom -5568.730364 kJ/mol
# Density = 1.586657 g / cm^3
# Si number density = 15.902767 Si / 1000 Ang^3
#
#
#
# Elastic Constant Matrix: (Units=GPa)
#
#
# Indices 1 2 3 4 5 6 
#
# 1 135.5710 27.4973 50.9500 0.0000 0.0000 0.0000
# 2 27.4973 49.1473 10.2682 0.0000 0.0000 0.0000
# 3 50.9500 10.2682 94.8431 0.0000 0.0000 0.0000
# 4 0.0000 0.0000 0.0000 8.6148 0.0000 0.0000
# 5 0.0000 0.0000 0.0000 0.0000 32.8202 0.0000
# 6 0.0000 0.0000 0.0000 0.0000 0.0000 20.8583
#
#
#
# Elastic Compliance Matrix: (Units=1/GPa)
#
#
# Indices 1 2 3 4 5 6 
#
# 1 0.010189 -0.004663 -0.004969 0.000000 0.000000 0.000000
# 2 -0.004663 0.022952 0.000020 0.000000 0.000000 0.000000
# 3 -0.004969 0.000020 0.013211 0.000000 0.000000 0.000000
# 4 0.000000 0.000000 0.000000 0.116080 0.000000 0.000000
# 5 0.000000 0.000000 0.000000 0.000000 0.030469 0.000000
# 6 0.000000 0.000000 0.000000 0.000000 0.000000 0.047943
#
#
# Mechanical properties :
#
#
# Convention : Reuss Voigt Hill
#
# Bulk Modulus (GPa) = 36.86167 50.77694 43.81931
# Shear Modulus (GPa) = 18.57981 25.18170 21.88076
#
# Velocity S-wave (km/s) = 3.42180 3.98361 3.71335
# Velocity P-wave (km/s) = 6.23229 7.29094 6.78230
#
# Compressibility (1/GPa) = 0.02712845
#
# Stress axis : x y z
#
# Youngs Moduli (GPa) = 98.14196 43.57008 75.69509
#
# Poissons Ratio (x) = 0.20315 0.37612
# Poissons Ratio (y) = 0.45760 -0.00151
# Poissons Ratio (z) = 0.48766 -0.00087
#
# Static dielectric constant tensor:
#      x y z
#    x 1.514280 0.000000 0.000000 
#    y 0.000000 1.502100 0.000000 
#    z 0.000000 0.000000 1.521650 
# 
# From -- ./inp_files/40970.got.cif
#   From: 2010.05.17/outbox.cif.g08.bks.cpg/sg67_21_cif.got.tgz:40970.got - 2010.06.03 18:28:57.
