data_PCOD9500000
_publ_section_title
;
Structure prediction by ZEFSAII (Michael W. Deem and Ramdas Pophale) SiO2 
 PCOD9500000
Probable space group: C C C M
;
_chemical_formula_sum "Si O2"
_cell_formula_units_Z 68
_cell_length_a 8.752754
_cell_length_b 16.010429
_cell_length_c 19.189669
_cell_angle_alpha 90.000000
_cell_angle_beta 90.000000
_cell_angle_gamma 90.000000
_cell_volume 2689.150914
_symmetry_space_group_name_H-M "C C C M"
_symmetry_group_IT_number 66
_symmetry_cell_setting 'orthorhombic'
loop_
_space_group_symop_operation_xyz
x,y,z
-x,-y,z
x,-y,1/2-z
-x,y,1/2-z
-x,-y,-z
x,y,-z
-x,y,1/2+z
x,-y,1/2+z
1/2+x,1/2+y,z
1/2-x,1/2-y,z
1/2+x,1/2-y,1/2-z
1/2-x,1/2+y,1/2-z
1/2-x,1/2-y,-z
1/2+x,1/2+y,-z
1/2-x,1/2+y,1/2+z
1/2+x,1/2-y,1/2+z
loop_
_atom_site_type_symbol
_atom_site_label
_atom_site_fract_x
_atom_site_fract_y
_atom_site_fract_z
Si Si1 0.042991 0.325289 0.582799
Si Si2 0.183312 0.070122 0.369173
Si Si3 0.133578 0.581322 0.691209
Si Si4 0.430787 0.314335 0.817334
Si Si5 0.500000 0.500000 0.000000
O O1 0.042092 0.321151 0.500000
O O2 0.943084 0.399195 0.616314
O O3 0.965187 0.242794 0.615725
O O4 0.211117 0.350185 0.610314
O O5 0.277077 0.005162 0.322159
O O6 0.036678 0.104992 0.329202
O O7 0.123592 0.026633 0.438890
O O8 0.261322 0.653592 0.698253
O O9 0.000000 0.585435 0.750000
O O10 0.500000 0.269516 0.750000
#
# Coordination Sequence:
#
# PCOD9500000 Si02
#       5
#    16  16  16  16   4
#     4  12  29  47  76 115 158 207 264 335 413 499
#     4  12  27  50  84 116 161 210 275 342 420 505
#     4  12  28  51  77 114 159 211 269 339 417 506
#     4  12  28  50  77 112 155 209 268 335 416 496
#     4  12  24  52  82 126 162 208 274 358 434 500
#
# _framework density 25.286791000000001
#
# number of rings (size 3 to 8) (size 9 to 14) (size 15 to 20)
#    0.000    0.000    3.529    4.235    3.294   14.118 
#    0.000    0.000    0.000    0.000    0.000    0.000 
#    0.000    0.000    0.000    0.000    0.000    0.000 
#
# Total GULP energy -189948.372243 kJ/mol
# GULP energy per Si atom -5586.716831 kJ/mol
# Density = 2.522924 g / cm^3
# Si number density = 25.286791 Si / 1000 Ang^3
#
#
#
# Elastic Constant Matrix: (Units=GPa)
#
#
# Indices 1 2 3 4 5 6 
#
# 1 200.4085 74.1599 82.3505 0.0000 0.0000 0.0000
# 2 74.1599 137.1024 50.2034 0.0000 0.0000 0.0000
# 3 82.3505 50.2034 211.7316 0.0000 0.0000 0.0000
# 4 0.0000 0.0000 0.0000 -11.8620 0.0000 0.0000
# 5 0.0000 0.0000 0.0000 0.0000 44.0168 0.0000
# 6 0.0000 0.0000 0.0000 0.0000 0.0000 50.8238
#
#
#
# Elastic Compliance Matrix: (Units=1/GPa)
#
#
# Indices 1 2 3 4 5 6 
#
# 1 0.006919 -0.003019 -0.001975 0.000000 0.000000 0.000000
# 2 -0.003019 0.009305 -0.001032 0.000000 0.000000 0.000000
# 3 -0.001975 -0.001032 0.005736 0.000000 0.000000 0.000000
# 4 0.000000 0.000000 0.000000 -0.084303 0.000000 0.000000
# 5 0.000000 0.000000 0.000000 0.000000 0.022719 0.000000
# 6 0.000000 0.000000 0.000000 0.000000 0.000000 0.019676
#
#
# Mechanical properties :
#
#
# Convention : Reuss Voigt Hill
#
# Bulk Modulus (GPa) = 100.93994 106.96334 103.95164
# Shear Modulus (GPa) = -1088.16895 39.43098 -524.36899
#
# Velocity S-wave (km/s) = -20.76693 3.95315 -14.41593
# Velocity P-wave (km/s) = 23.13040 7.95163 15.35883
#
# Compressibility (1/GPa) = 0.00990688
#
# Stress axis : x y z
#
# Youngs Moduli (GPa) = 144.53830 107.47174 174.34276
#
# Poissons Ratio (x) = 0.32447 0.34433
# Poissons Ratio (y) = 0.43638 0.17992
# Poissons Ratio (z) = 0.28547 0.11091
#
# Static dielectric constant tensor:
#      x y z
#    x 2.024690 0.000000 0.000000 
#    y 0.000000 2.119110 0.000000 
#    z 0.000000 0.000000 1.964550 
# 
# From -- ./inp_files/36493.got.cif
#   From: 2010.05.17/outbox.cif.g08.bks.cpg/sg66_19_cif.got.tgz:36493.got - 2010.06.03 17:51:23.
