data_PCOD9500384
_publ_section_title
;
Structure prediction by ZEFSAII (Michael W. Deem and Ramdas Pophale) SiO2 
 PCOD9500384
Probable space group: C M M A
;
_chemical_formula_sum "Si O2"
_cell_formula_units_Z 96
_cell_length_a 8.649506
_cell_length_b 18.495274
_cell_length_c 31.993664
_cell_angle_alpha 90.000000
_cell_angle_beta 90.000000
_cell_angle_gamma 90.000000
_cell_volume 5118.185868
_symmetry_space_group_name_H-M "C M M A"
_symmetry_group_IT_number 67
_symmetry_cell_setting 'orthorhombic'
loop_
_space_group_symop_operation_xyz
x,y,z
-x,1/2-y,z
x,-y,-z
-x,1/2+y,-z
-x,-y,-z
x,1/2+y,-z
-x,y,z
x,1/2-y,z
1/2+x,1/2+y,z
1/2-x,-y,z
1/2+x,1/2-y,-z
1/2-x,y,-z
1/2-x,1/2-y,-z
1/2+x,y,-z
1/2-x,1/2+y,z
1/2+x,-y,z
loop_
_atom_site_type_symbol
_atom_site_label
_atom_site_fract_x
_atom_site_fract_y
_atom_site_fract_z
Si Si1 0.186787 0.666574 0.627612
Si Si2 0.315905 0.081371 0.870267
Si Si3 0.185650 0.080937 0.455435
Si Si4 0.313846 0.334783 0.208795
Si Si5 0.315277 0.917721 0.957129
Si Si6 0.814766 0.080801 0.706901
O O1 0.236011 0.750000 0.629832
O O2 0.231699 0.630583 0.583539
O O3 0.253889 0.621585 0.666024
O O4 0.000000 0.664221 0.629940
O O5 0.500000 0.076980 0.874396
O O6 0.266782 0.128438 0.830697
O O7 0.244687 0.113067 0.913246
O O8 0.250000 0.000000 0.864612
O O9 0.250000 0.107043 0.500000
O O10 0.000000 0.077741 0.457564
O O11 0.250000 0.000000 0.448940
O O12 0.500000 0.341878 0.203995
O O13 0.276968 0.250000 0.211663
O O14 0.268721 0.375565 0.251389
O O15 0.500000 0.919388 0.958263
O O16 0.250000 0.000000 0.956543
O O17 0.250000 0.884143 0.000000
O O18 0.000000 0.078249 0.705459
O O19 0.750000 0.000000 0.708486
#
# Coordination Sequence:
#
# PCOD9500384 Si02
#       6
#    16  16  16  16  16  16
#     4  10  22  39  58  83 116 150 185 229 280 332
#     4  11  21  34  54  81 111 145 187 229 274 328
#     4  10  20  35  56  81 110 146 188 233 279 328
#     4  10  22  40  59  81 111 144 180 225 276 329
#     4  10  17  28  47  74 108 143 181 227 278 326
#     4  11  23  39  61  87 113 145 185 228 275 329
#
# _framework density 18.756646
#
# number of rings (size 3 to 8) (size 9 to 14) (size 15 to 20)
#    0.000    1.667    0.000    7.500    0.000    7.000 
#    0.000    0.000    0.000    0.500    0.000    0.000 
#    0.000    0.000    0.000    0.000    0.000    0.000 
#
# Total GULP energy -268189.613817 kJ/mol
# GULP energy per Si atom -5587.283621 kJ/mol
# Density = 1.871395 g / cm^3
# Si number density = 18.756646 Si / 1000 Ang^3
#
#
#
# Elastic Constant Matrix: (Units=GPa)
#
#
# Indices 1 2 3 4 5 6 
#
# 1 95.2728 49.6306 76.1493 0.0000 0.0000 0.0000
# 2 49.6306 112.0491 97.4023 0.0000 0.0000 0.0000
# 3 76.1493 97.4023 211.9347 0.0000 0.0000 0.0000
# 4 0.0000 0.0000 0.0000 -25.1975 0.0000 0.0000
# 5 0.0000 0.0000 0.0000 0.0000 38.3265 0.0000
# 6 0.0000 0.0000 0.0000 0.0000 0.0000 7.1418
#
#
#
# Elastic Compliance Matrix: (Units=1/GPa)
#
#
# Indices 1 2 3 4 5 6 
#
# 1 0.015449 -0.003360 -0.004007 0.000000 0.000000 0.000000
# 2 -0.003360 0.015593 -0.005959 0.000000 0.000000 0.000000
# 3 -0.004007 -0.005959 0.008897 0.000000 0.000000 0.000000
# 4 0.000000 0.000000 0.000000 -0.039686 0.000000 0.000000
# 5 0.000000 0.000000 0.000000 0.000000 0.026092 0.000000
# 6 0.000000 0.000000 0.000000 0.000000 0.000000 0.140021
#
#
# Mechanical properties :
#
#
# Convention : Reuss Voigt Hill
#
# Bulk Modulus (GPa) = 75.25996 96.18011 85.72003
# Shear Modulus (GPa) = 25.32347 17.12576 21.22462
#
# Velocity S-wave (km/s) = 3.67837 3.02495 3.36754
# Velocity P-wave (km/s) = 7.63230 7.97431 7.80518
#
# Compressibility (1/GPa) = 0.01328728
#
# Stress axis : x y z
#
# Youngs Moduli (GPa) = 64.72933 64.13113 112.39999
#
# Poissons Ratio (x) = 0.21548 0.45035
# Poissons Ratio (y) = 0.21749 0.66980
# Poissons Ratio (z) = 0.25935 0.38216
#
# Static dielectric constant tensor:
#      x y z
#    x 1.633560 0.000000 0.000000 
#    y 0.000000 1.620660 0.000000 
#    z 0.000000 0.000000 1.658580 
# 
# From -- ./inp_files/43441.got.cif
#   From: 2010.05.17/outbox.cif.g08.bks.cpg/sg67_22_cif.got.tgz:43441.got - 2010.06.03 18:28:57.
