data_PCOD9500281
_publ_section_title
;
Structure prediction by ZEFSAII (Michael W. Deem and Ramdas Pophale) SiO2 
 PCOD9500281
Probable space group: C M M A
;
_chemical_formula_sum "Si O2"
_cell_formula_units_Z 104
_cell_length_a 26.702179
_cell_length_b 8.522464
_cell_length_c 28.491235
_cell_angle_alpha 90.000000
_cell_angle_beta 90.000000
_cell_angle_gamma 90.000000
_cell_volume 6483.703602
_symmetry_space_group_name_H-M "C M M A"
_symmetry_group_IT_number 67
_symmetry_cell_setting 'orthorhombic'
loop_
_space_group_symop_operation_xyz
x,y,z
-x,1/2-y,z
x,-y,-z
-x,1/2+y,-z
-x,-y,-z
x,1/2+y,-z
-x,y,z
x,1/2-y,z
1/2+x,1/2+y,z
1/2-x,-y,z
1/2+x,1/2-y,-z
1/2-x,y,-z
1/2-x,1/2-y,-z
1/2+x,y,-z
1/2-x,1/2+y,z
1/2+x,-y,z
loop_
_atom_site_type_symbol
_atom_site_label
_atom_site_fract_x
_atom_site_fract_y
_atom_site_fract_z
Si Si1 0.340970 0.939332 0.745647
Si Si2 0.500000 0.062395 0.947068
Si Si3 0.553666 0.560055 0.779588
Si Si4 0.304866 0.062171 0.846380
Si Si5 0.806268 0.063063 0.354569
Si Si6 0.692566 0.562891 0.548740
Si Si7 0.909559 0.561525 0.116503
O O1 0.336854 0.750000 0.746892
O O2 0.398519 0.991115 0.750970
O O3 0.313832 0.002720 0.792631
O O4 0.324120 0.002088 0.695687
O O5 0.500000 0.250000 0.945973
O O6 0.448799 0.002742 0.921730
O O7 0.500000 0.000000 0.000000
O O8 0.500000 0.498113 0.764619
O O9 0.552648 0.750000 0.777034
O O10 0.564476 0.522105 0.833692
O O11 0.304846 0.250000 0.846728
O O12 0.250000 0.000000 0.861547
O O13 0.352511 0.002303 0.877417
O O14 0.807363 0.250000 0.355892
O O15 0.750000 0.000000 0.356803
O O16 0.831050 0.997237 0.402414
O O17 0.669669 0.500000 0.500000
O O18 0.693765 0.750000 0.548409
O O19 0.750000 0.500000 0.548489
O O20 0.906656 0.750000 0.112057
#
# Coordination Sequence:
#
# PCOD9500281 Si02
#       7
#    16   8  16  16  16  16  16
#     4  10  19  30  45  67  95 128 165 202 245 292
#     4  12  24  38  58  86 114 142 174 216 261 306
#     4   8  14  27  49  72  94 124 158 194 238 289
#     4  11  21  34  51  75 105 139 178 214 251 300
#     4  11  20  30  42  58  85 119 156 196 239 282
#     4  10  17  27  41  58  79 107 146 187 233 282
#     4  10  19  35  57  80 107 138 172 213 259 304
#
# _framework density 16.040215
#
# number of rings (size 3 to 8) (size 9 to 14) (size 15 to 20)
#    0.000    1.846    0.769    8.538    0.000    0.000 
#    0.000    0.000    0.000    0.462    0.000    3.231 
#    0.000    0.615    0.000    1.692    0.000    2.769 
#
# Total GULP energy -289689.635840 kJ/mol
# GULP energy per Si atom -5570.954535 kJ/mol
# Density = 1.600371 g / cm^3
# Si number density = 16.040215 Si / 1000 Ang^3
#
#
#
# Elastic Constant Matrix: (Units=GPa)
#
#
# Indices 1 2 3 4 5 6 
#
# 1 109.0222 39.3884 53.2481 0.0000 0.0000 0.0000
# 2 39.3884 132.5594 50.3049 0.0000 0.0000 0.0000
# 3 53.2481 50.3049 120.5820 0.0000 0.0000 0.0000
# 4 0.0000 0.0000 0.0000 27.5631 0.0000 0.0000
# 5 0.0000 0.0000 0.0000 0.0000 15.4610 0.0000
# 6 0.0000 0.0000 0.0000 0.0000 0.0000 18.6442
#
#
#
# Elastic Compliance Matrix: (Units=1/GPa)
#
#
# Indices 1 2 3 4 5 6 
#
# 1 0.012068 -0.001858 -0.004554 0.000000 0.000000 0.000000
# 2 -0.001858 0.009249 -0.003038 0.000000 0.000000 0.000000
# 3 -0.004554 -0.003038 0.011572 0.000000 0.000000 0.000000
# 4 0.000000 0.000000 0.000000 0.036280 0.000000 0.000000
# 5 0.000000 0.000000 0.000000 0.000000 0.064679 0.000000
# 6 0.000000 0.000000 0.000000 0.000000 0.000000 0.053636
#
#
# Mechanical properties :
#
#
# Convention : Reuss Voigt Hill
#
# Bulk Modulus (GPa) = 71.48704 72.00515 71.74609
# Shear Modulus (GPa) = 23.69153 26.94847 25.32000
#
# Velocity S-wave (km/s) = 3.84736 4.10330 3.97739
# Velocity P-wave (km/s) = 8.02498 8.21202 8.11904
#
# Compressibility (1/GPa) = 0.01398855
#
# Stress axis : x y z
#
# Youngs Moduli (GPa) = 82.86473 108.12359 86.41823
#
# Poissons Ratio (x) = 0.20085 0.39356
# Poissons Ratio (y) = 0.15393 0.26255
# Poissons Ratio (z) = 0.37738 0.32849
#
# Static dielectric constant tensor:
#      x y z
#    x 1.559600 0.000000 0.000000 
#    y 0.000000 1.554040 0.000000 
#    z 0.000000 0.000000 1.559180 
# 
# From -- ./inp_files/44842.got.cif
#   From: 2010.05.17/outbox.cif.g08.bks.cpg/sg67_23_cif.got.tgz:44842.got - 2010.06.03 18:28:57.
