data_PCOD9500611
_publ_section_title
;
Structure prediction by ZEFSAII (Michael W. Deem and Ramdas Pophale) SiO2 
 PCOD9500611
Probable space group: C M M A
;
_chemical_formula_sum "Si O2"
_cell_formula_units_Z 72
_cell_length_a 8.649403
_cell_length_b 32.062189
_cell_length_c 14.671808
_cell_angle_alpha 90.000000
_cell_angle_beta 90.000000
_cell_angle_gamma 90.000000
_cell_volume 4068.768096
_symmetry_space_group_name_H-M "C M M A"
_symmetry_group_IT_number 67
_symmetry_cell_setting 'orthorhombic'
loop_
_space_group_symop_operation_xyz
x,y,z
-x,1/2-y,z
x,-y,-z
-x,1/2+y,-z
-x,-y,-z
x,1/2+y,-z
-x,y,z
x,1/2-y,z
1/2+x,1/2+y,z
1/2-x,-y,z
1/2+x,1/2-y,-z
1/2-x,y,-z
1/2-x,1/2-y,-z
1/2+x,y,-z
1/2-x,1/2+y,z
1/2+x,-y,z
loop_
_atom_site_type_symbol
_atom_site_label
_atom_site_fract_x
_atom_site_fract_y
_atom_site_fract_z
Si Si1 0.686164 0.125349 0.715600
Si Si2 0.813877 0.545058 0.601596
Si Si3 0.185515 0.796921 0.397412
Si Si4 0.184724 0.162701 0.101300
Si Si5 0.815159 0.750000 0.103176
O O1 0.500000 0.127543 0.709364
O O2 0.735487 0.082692 0.667192
O O3 0.752029 0.165329 0.662825
O O4 0.726314 0.128810 0.822444
O O5 0.750000 0.500000 0.630653
O O6 0.750000 0.553041 0.500000
O O7 0.000000 0.543425 0.598012
O O8 0.229446 0.750000 0.364976
O O9 0.250000 0.801320 0.500000
O O10 0.000000 0.798837 0.399618
O O11 0.251054 0.206526 0.139647
O O12 0.000000 0.166405 0.093916
O O13 0.250000 0.155351 0.000000
O O14 0.000000 0.750000 0.104720
O O15 0.750000 0.750000 0.000000
#
# Coordination Sequence:
#
# PCOD9500611 Si02
#       5
#    16  16  16  16   8
#     4  10  22  36  54  78 106 139 177 219 265 316
#     4  10  20  36  57  83 109 136 169 212 263 318
#     4  10  21  35  51  74 105 141 179 216 256 309
#     4  10  20  35  52  74 103 139 178 223 269 311
#     4  10  18  30  48  70  97 132 175 220 262 308
#
# _framework density 17.695774
#
# number of rings (size 3 to 8) (size 9 to 14) (size 15 to 20)
#    0.000    2.000    0.000    5.667    1.556    6.667 
#    0.000    0.000    0.000    0.667    0.000    4.667 
#    0.000    0.000    0.000    0.000    0.000    0.000 
#
# Total GULP energy -200928.838942 kJ/mol
# GULP energy per Si atom -5581.356637 kJ/mol
# Density = 1.765550 g / cm^3
# Si number density = 17.695774 Si / 1000 Ang^3
#
#
#
# Elastic Constant Matrix: (Units=GPa)
#
#
# Indices 1 2 3 4 5 6 
#
# 1 50.6416 42.5445 35.7760 0.0000 0.0000 0.0000
# 2 42.5445 146.8827 99.0288 0.0000 0.0000 0.0000
# 3 35.7760 99.0288 110.5158 0.0000 0.0000 0.0000
# 4 0.0000 0.0000 0.0000 27.0802 0.0000 0.0000
# 5 0.0000 0.0000 0.0000 0.0000 19.6262 0.0000
# 6 0.0000 0.0000 0.0000 0.0000 0.0000 19.8318
#
#
#
# Elastic Compliance Matrix: (Units=1/GPa)
#
#
# Indices 1 2 3 4 5 6 
#
# 1 0.026904 -0.004852 -0.004361 0.000000 0.000000 0.000000
# 2 -0.004852 0.018073 -0.014624 0.000000 0.000000 0.000000
# 3 -0.004361 -0.014624 0.023564 0.000000 0.000000 0.000000
# 4 0.000000 0.000000 0.000000 0.036927 0.000000 0.000000
# 5 0.000000 0.000000 0.000000 0.000000 0.050952 0.000000
# 6 0.000000 0.000000 0.000000 0.000000 0.000000 0.050424
#
#
# Mechanical properties :
#
#
# Convention : Reuss Voigt Hill
#
# Bulk Modulus (GPa) = 47.92394 73.63763 60.78079
# Shear Modulus (GPa) = 19.12227 22.02036 20.57131
#
# Velocity S-wave (km/s) = 3.29083 3.53141 3.41324
# Velocity P-wave (km/s) = 6.44828 7.63749 7.06794
#
# Compressibility (1/GPa) = 0.02086640
#
# Stress axis : x y z
#
# Youngs Moduli (GPa) = 37.16885 55.33131 42.43750
#
# Poissons Ratio (x) = 0.26848 0.18509
# Poissons Ratio (y) = 0.18035 0.62059
# Poissons Ratio (z) = 0.16211 0.80915
#
# Static dielectric constant tensor:
#      x y z
#    x 1.592060 0.000000 0.000000 
#    y 0.000000 1.610300 0.000000 
#    z 0.000000 0.000000 1.601950 
# 
# From -- ./inp_files/25299.got.cif
#   From: 2010.05.17/outbox.cif.g08.bks.cpg/sg67_13_cif.got.tgz:25299.got - 2010.06.03 18:28:57.
