data_PCOD9500589
_publ_section_title
;
Structure prediction by ZEFSAII (Michael W. Deem and Ramdas Pophale) SiO2 
 PCOD9500589
Probable space group: C M M A
;
_chemical_formula_sum "Si O2"
_cell_formula_units_Z 120
_cell_length_a 26.159808
_cell_length_b 22.713978
_cell_length_c 11.464207
_cell_angle_alpha 90.000000
_cell_angle_beta 90.000000
_cell_angle_gamma 90.000000
_cell_volume 6811.955028
_symmetry_space_group_name_H-M "C M M A"
_symmetry_group_IT_number 67
_symmetry_cell_setting 'orthorhombic'
loop_
_space_group_symop_operation_xyz
x,y,z
-x,1/2-y,z
x,-y,-z
-x,1/2+y,-z
-x,-y,-z
x,1/2+y,-z
-x,y,z
x,1/2-y,z
1/2+x,1/2+y,z
1/2-x,-y,z
1/2+x,1/2-y,-z
1/2-x,y,-z
1/2-x,1/2-y,-z
1/2+x,y,-z
1/2-x,1/2+y,z
1/2+x,-y,z
loop_
_atom_site_type_symbol
_atom_site_label
_atom_site_fract_x
_atom_site_fract_y
_atom_site_fract_z
Si Si1 0.250000 0.598569 0.500000
Si Si2 0.372660 0.684336 0.772407
Si Si3 0.842702 0.814572 0.501242
Si Si4 0.442478 0.413725 0.286878
Si Si5 0.739883 0.181748 0.137259
Si Si6 0.377797 0.520735 0.366856
Si Si7 0.728378 0.940366 0.258919
Si Si8 0.943022 0.128010 0.443669
O O1 0.200633 0.638223 0.526469
O O2 0.239921 0.564274 0.380878
O O3 0.392191 0.750000 0.794422
O O4 0.354894 0.681851 0.636678
O O5 0.416206 0.636441 0.790011
O O6 0.320720 0.674714 0.842248
O O7 0.822903 0.750000 0.528811
O O8 0.896283 0.826525 0.565378
O O9 0.500000 0.429872 0.251425
O O10 0.403050 0.466939 0.298578
O O11 0.446029 0.388107 0.418881
O O12 0.752827 0.250000 0.178757
O O13 0.765082 0.123589 0.197262
O O14 0.750000 0.180194 0.000000
O O15 0.363925 0.500000 0.500000
O O16 0.329567 0.546443 0.298348
O O17 0.422093 0.569345 0.382616
O O18 0.750000 0.000000 0.197649
O O19 0.000000 0.145655 0.406186
#
# Coordination Sequence:
#
# PCOD9500589 Si02
#       8
#     8  16  16  16  16  16  16  16
#     4  12  20  32  48  78 111 150 177 214 267 332
#     4   9  17  31  49  72  99 128 168 218 266 312
#     4  10  19  29  45  69 103 141 177 218 263 315
#     4   9  17  28  46  70 101 139 173 214 264 317
#     4  10  22  41  60  78 106 144 181 222 275 332
#     4  10  18  30  45  70 103 141 183 218 259 311
#     4  12  23  33  54  82 111 145 181 224 268 322
#     4   9  17  29  43  64  98 142 185 218 253 305
#
# _framework density 17.616087
#
# number of rings (size 3 to 8) (size 9 to 14) (size 15 to 20)
#    0.000    2.000    2.667    2.400    1.867    2.933 
#    0.000    2.667    0.000    0.000    0.000    2.800 
#    0.000    2.133    0.000    0.000    0.000    0.000 
#
# Total GULP energy -334234.489260 kJ/mol
# GULP energy per Si atom -5570.574821 kJ/mol
# Density = 1.757599 g / cm^3
# Si number density = 17.616087 Si / 1000 Ang^3
#
#
#
# Elastic Constant Matrix: (Units=GPa)
#
#
# Indices 1 2 3 4 5 6 
#
# 1 118.6504 56.4869 19.7550 0.0000 0.0000 0.0000
# 2 56.4869 115.9836 30.1204 0.0000 0.0000 0.0000
# 3 19.7550 30.1204 31.4336 0.0000 0.0000 0.0000
# 4 0.0000 0.0000 0.0000 10.0788 0.0000 0.0000
# 5 0.0000 0.0000 0.0000 0.0000 6.3580 0.0000
# 6 0.0000 0.0000 0.0000 0.0000 0.0000 -13.9546
#
#
#
# Elastic Compliance Matrix: (Units=1/GPa)
#
#
# Indices 1 2 3 4 5 6 
#
# 1 0.011106 -0.004788 -0.002392 0.000000 0.000000 0.000000
# 2 -0.004788 0.013542 -0.009968 0.000000 0.000000 0.000000
# 3 -0.002392 -0.009968 0.042868 0.000000 0.000000 0.000000
# 4 0.000000 0.000000 0.000000 0.099218 0.000000 0.000000
# 5 0.000000 0.000000 0.000000 0.000000 0.157282 0.000000
# 6 0.000000 0.000000 0.000000 0.000000 0.000000 -0.071661
#
#
# Mechanical properties :
#
#
# Convention : Reuss Voigt Hill
#
# Bulk Modulus (GPa) = 30.10135 53.19913 41.65024
# Shear Modulus (GPa) = 16.79418 11.14345 13.96882
#
# Velocity S-wave (km/s) = 3.09098 2.51783 2.81901
# Velocity P-wave (km/s) = 5.46474 6.22233 5.85580
#
# Compressibility (1/GPa) = 0.03322110
#
# Stress axis : x y z
#
# Youngs Moduli (GPa) = 90.04443 73.84393 23.32767
#
# Poissons Ratio (x) = 0.35353 0.05580
# Poissons Ratio (y) = 0.43109 0.23252
# Poissons Ratio (z) = 0.21539 0.73604
#
# Static dielectric constant tensor:
#      x y z
#    x 1.613050 0.000000 0.000000 
#    y 0.000000 1.672300 0.000000 
#    z 0.000000 0.000000 1.589820 
# 
# From -- ./inp_files/23193.got.cif
#   From: 2010.05.17/outbox.cif.g08.bks.cpg/sg67_12_cif.got.tgz:23193.got - 2010.06.03 18:28:57.
