data_PCOD9500572
_publ_section_title
;
Structure prediction by ZEFSAII (Michael W. Deem and Ramdas Pophale) SiO2 
 PCOD9500572
Probable space group: C M M A
;
_chemical_formula_sum "Si O2"
_cell_formula_units_Z 96
_cell_length_a 14.072382
_cell_length_b 21.986000
_cell_length_c 15.695425
_cell_angle_alpha 90.000000
_cell_angle_beta 90.000000
_cell_angle_gamma 90.000000
_cell_volume 4856.092149
_symmetry_space_group_name_H-M "C M M A"
_symmetry_group_IT_number 67
_symmetry_cell_setting 'orthorhombic'
loop_
_space_group_symop_operation_xyz
x,y,z
-x,1/2-y,z
x,-y,-z
-x,1/2+y,-z
-x,-y,-z
x,1/2+y,-z
-x,y,z
x,1/2-y,z
1/2+x,1/2+y,z
1/2-x,-y,z
1/2+x,1/2-y,-z
1/2-x,y,-z
1/2-x,1/2-y,-z
1/2+x,y,-z
1/2-x,1/2+y,z
1/2+x,-y,z
loop_
_atom_site_type_symbol
_atom_site_label
_atom_site_fract_x
_atom_site_fract_y
_atom_site_fract_z
Si Si1 0.276456 0.912346 0.901602
Si Si2 0.109042 0.973812 0.823540
Si Si3 0.606816 0.003616 0.375919
Si Si4 0.107566 0.129622 0.444438
Si Si5 0.693605 0.369547 0.376905
Si Si6 0.109622 0.177595 0.800104
O O1 0.178447 0.919671 0.850036
O O2 0.329661 0.851271 0.875892
O O3 0.344954 0.966888 0.868556
O O4 0.250000 0.918619 0.000000
O O5 0.112036 0.981340 0.721886
O O6 0.000000 0.966089 0.849660
O O7 0.500000 0.030683 0.387035
O O8 0.611547 0.944374 0.435645
O O9 0.682971 0.057150 0.382492
O O10 0.196885 0.149812 0.387259
O O11 0.134300 0.150514 0.539762
O O12 0.000000 0.147370 0.421236
O O13 0.649594 0.347816 0.289028
O O14 0.114215 0.250000 0.799526
O O15 0.000000 0.158182 0.807938
#
# Coordination Sequence:
#
# PCOD9500572 Si02
#       6
#    16  16  16  16  16  16
#     4  11  23  37  59  90 122 153 192 250 313 373
#     4  10  20  35  58  89 126 162 195 234 297 378
#     4  10  18  29  50  80 117 157 195 237 288 352
#     4  10  21  32  50  86 123 156 195 242 301 360
#     4  11  20  35  57  79 115 159 204 253 295 348
#     4  11  24  43  67  88 111 156 215 266 309 361
#
# _framework density 19.768981
#
# number of rings (size 3 to 8) (size 9 to 14) (size 15 to 20)
#    0.000    1.500    1.667    5.000    2.333    5.000 
#    0.000    1.667    0.000    3.000    0.000    0.000 
#    0.000    0.000    0.000    0.000    0.000    0.000 
#
# Total GULP energy -268182.657607 kJ/mol
# GULP energy per Si atom -5587.138700 kJ/mol
# Density = 1.972399 g / cm^3
# Si number density = 19.768981 Si / 1000 Ang^3
#
#
#
# Elastic Constant Matrix: (Units=GPa)
#
#
# Indices 1 2 3 4 5 6 
#
# 1 172.7900 20.0571 40.3571 0.0000 0.0000 0.0000
# 2 20.0571 23.8221 17.3458 0.0000 0.0000 0.0000
# 3 40.3571 17.3458 85.7776 0.0000 0.0000 0.0000
# 4 0.0000 0.0000 0.0000 2.7779 0.0000 0.0000
# 5 0.0000 0.0000 0.0000 0.0000 20.1642 0.0000
# 6 0.0000 0.0000 0.0000 0.0000 0.0000 19.4235
#
#
#
# Elastic Compliance Matrix: (Units=1/GPa)
#
#
# Indices 1 2 3 4 5 6 
#
# 1 0.006810 -0.003988 -0.002398 0.000000 0.000000 0.000000
# 2 -0.003988 0.051562 -0.008550 0.000000 0.000000 0.000000
# 3 -0.002398 -0.008550 0.014515 0.000000 0.000000 0.000000
# 4 0.000000 0.000000 0.000000 0.359989 0.000000 0.000000
# 5 0.000000 0.000000 0.000000 0.000000 0.049593 0.000000
# 6 0.000000 0.000000 0.000000 0.000000 0.000000 0.051484
#
#
# Mechanical properties :
#
#
# Convention : Reuss Voigt Hill
#
# Bulk Modulus (GPa) = 23.24783 48.65662 35.95222
# Shear Modulus (GPa) = 8.64807 22.11509 15.38158
#
# Velocity S-wave (km/s) = 2.09381 3.34829 2.79241
# Velocity P-wave (km/s) = 4.19889 6.29397 5.34999
#
# Compressibility (1/GPa) = 0.04301478
#
# Stress axis : x y z
#
# Youngs Moduli (GPa) = 146.83623 19.39430 68.89349
#
# Poissons Ratio (x) = 0.07735 0.16518
# Poissons Ratio (y) = 0.58560 0.58906
# Poissons Ratio (z) = 0.35207 0.16583
#
# Static dielectric constant tensor:
#      x y z
#    x 1.728690 0.000000 0.000000 
#    y 0.000000 1.697600 0.000000 
#    z 0.000000 0.000000 1.684580 
# 
# From -- ./inp_files/27243.got.cif
#   From: 2010.05.17/outbox.cif.g08.bks.cpg/sg67_14_cif.got.tgz:27243.got - 2010.06.03 18:28:57.
