data_PCOD9500339
_publ_section_title
;
Structure prediction by ZEFSAII (Michael W. Deem and Ramdas Pophale) SiO2 
 PCOD9500339
Probable space group: C M M A
;
_chemical_formula_sum "Si O2"
_cell_formula_units_Z 80
_cell_length_a 18.627506
_cell_length_b 8.631420
_cell_length_c 26.807282
_cell_angle_alpha 90.000000
_cell_angle_beta 90.000000
_cell_angle_gamma 90.000000
_cell_volume 4310.123799
_symmetry_space_group_name_H-M "C M M A"
_symmetry_group_IT_number 67
_symmetry_cell_setting 'orthorhombic'
loop_
_space_group_symop_operation_xyz
x,y,z
-x,1/2-y,z
x,-y,-z
-x,1/2+y,-z
-x,-y,-z
x,1/2+y,-z
-x,y,z
x,1/2-y,z
1/2+x,1/2+y,z
1/2-x,-y,z
1/2+x,1/2-y,-z
1/2-x,y,-z
1/2-x,1/2-y,-z
1/2+x,y,-z
1/2-x,1/2+y,z
1/2+x,-y,z
loop_
_atom_site_type_symbol
_atom_site_label
_atom_site_fract_x
_atom_site_fract_y
_atom_site_fract_z
Si Si1 0.416789 0.063243 0.053536
Si Si2 0.083099 0.563037 0.754818
Si Si3 0.830152 0.935853 0.151131
Si Si4 0.168209 0.564992 0.448763
Si Si5 0.669036 0.063843 0.655141
O O1 0.500000 0.014704 0.060864
O O2 0.415505 0.250000 0.051903
O O3 0.368832 0.011691 0.100010
O O4 0.392459 0.000000 0.000000
O O5 0.085877 0.750000 0.758681
O O6 0.124466 0.492326 0.801606
O O7 0.122301 0.520785 0.703199
O O8 0.000000 0.515176 0.754616
O O9 0.828183 0.750000 0.151157
O O10 0.750000 0.000000 0.154016
O O11 0.134946 0.500000 0.500000
O O12 0.169924 0.750000 0.450071
O O13 0.250000 0.500000 0.448060
O O14 0.137681 0.504607 0.396387
O O15 0.672360 0.250000 0.650917
O O16 0.750000 0.000000 0.661625
#
# Coordination Sequence:
#
# PCOD9500339 Si02
#       5
#    16  16  16  16  16
#     4   9  19  36  57  81 109 143 182 222 266 317
#     4  10  22  39  58  80 107 141 180 222 271 326
#     4  11  23  38  57  82 112 144 181 226 272 320
#     4  10  17  27  45  71 103 136 172 213 260 312
#     4  10  19  32  51  76 106 137 173 217 263 313
#
# _framework density 18.560953000000001
#
# number of rings (size 3 to 8) (size 9 to 14) (size 15 to 20)
#    0.000    2.000    0.000    6.000    0.000    6.400 
#    0.000    4.000    0.000    0.600    0.000    0.000 
#    0.000    0.000    0.000    0.000    0.000    0.000 
#
# Total GULP energy -223323.356260 kJ/mol
# GULP energy per Si atom -5583.083907 kJ/mol
# Density = 1.851871 g / cm^3
# Si number density = 18.560953 Si / 1000 Ang^3
#
#
#
# Elastic Constant Matrix: (Units=GPa)
#
#
# Indices 1 2 3 4 5 6 
#
# 1 104.9237 35.2052 101.7319 0.0000 0.0000 0.0000
# 2 35.2052 66.0972 64.2097 0.0000 0.0000 0.0000
# 3 101.7319 64.2097 227.4016 0.0000 0.0000 0.0000
# 4 0.0000 0.0000 0.0000 39.9984 0.0000 0.0000
# 5 0.0000 0.0000 0.0000 0.0000 -80.6762 0.0000
# 6 0.0000 0.0000 0.0000 0.0000 0.0000 9.0306
#
#
#
# Elastic Compliance Matrix: (Units=1/GPa)
#
#
# Indices 1 2 3 4 5 6 
#
# 1 0.017083 -0.002308 -0.006991 0.000000 0.000000 0.000000
# 2 -0.002308 0.021160 -0.004942 0.000000 0.000000 0.000000
# 3 -0.006991 -0.004942 0.008920 0.000000 0.000000 0.000000
# 4 0.000000 0.000000 0.000000 0.025001 0.000000 0.000000
# 5 0.000000 0.000000 0.000000 0.000000 -0.012395 0.000000
# 6 0.000000 0.000000 0.000000 0.000000 0.000000 0.110734
#
#
# Mechanical properties :
#
#
# Convention : Reuss Voigt Hill
#
# Bulk Modulus (GPa) = 53.52887 88.96844 71.24865
# Shear Modulus (GPa) = 24.36504 6.82227 15.59365
#
# Velocity S-wave (km/s) = 3.62706 1.91927 2.90165
# Velocity P-wave (km/s) = 6.81490 7.27658 7.04952
#
# Compressibility (1/GPa) = 0.01868151
#
# Stress axis : x y z
#
# Youngs Moduli (GPa) = 58.53687 47.26005 112.10175
#
# Poissons Ratio (x) = 0.10907 0.78368
# Poissons Ratio (y) = 0.13509 0.55403
# Poissons Ratio (z) = 0.40922 0.23357
#
# Static dielectric constant tensor:
#      x y z
#    x 1.619250 0.000000 0.000000 
#    y 0.000000 1.652040 0.000000 
#    z 0.000000 0.000000 1.657890 
# 
# From -- ./inp_files/43276.got.cif
#   From: 2010.05.17/outbox.cif.g08.bks.cpg/sg67_22_cif.got.tgz:43276.got - 2010.06.03 18:28:57.
