data_PCOD9500325
_publ_section_title
;
Structure prediction by ZEFSAII (Michael W. Deem and Ramdas Pophale) SiO2 
 PCOD9500325
Probable space group: C M M A
;
_chemical_formula_sum "Si O2"
_cell_formula_units_Z 80
_cell_length_a 8.515495
_cell_length_b 18.741983
_cell_length_c 27.412085
_cell_angle_alpha 90.000000
_cell_angle_beta 90.000000
_cell_angle_gamma 90.000000
_cell_volume 4374.893726
_symmetry_space_group_name_H-M "C M M A"
_symmetry_group_IT_number 67
_symmetry_cell_setting 'orthorhombic'
loop_
_space_group_symop_operation_xyz
x,y,z
-x,1/2-y,z
x,-y,-z
-x,1/2+y,-z
-x,-y,-z
x,1/2+y,-z
-x,y,z
x,1/2-y,z
1/2+x,1/2+y,z
1/2-x,-y,z
1/2+x,1/2-y,-z
1/2-x,y,-z
1/2-x,1/2-y,-z
1/2+x,y,-z
1/2-x,1/2+y,z
1/2+x,-y,z
loop_
_atom_site_type_symbol
_atom_site_label
_atom_site_fract_x
_atom_site_fract_y
_atom_site_fract_z
Si Si1 0.312987 0.918292 0.949502
Si Si2 0.188656 0.580987 0.847146
Si Si3 0.808225 0.831771 0.751546
Si Si4 0.810138 0.419049 0.342890
Si Si5 0.312297 0.581522 0.449893
O O1 0.500000 0.919557 0.950285
O O2 0.251991 0.887886 0.898295
O O3 0.250000 0.000000 0.949018
O O4 0.250000 0.885461 0.000000
O O5 0.250000 0.500000 0.841946
O O6 0.239217 0.626237 0.800240
O O7 0.000000 0.579061 0.849422
O O8 0.756445 0.750000 0.752313
O O9 0.755508 0.872207 0.702653
O O10 0.000000 0.831981 0.750989
O O11 0.750000 0.500000 0.338166
O O12 0.764632 0.389570 0.396597
O O13 0.000000 0.421183 0.341887
O O14 0.500000 0.580142 0.452526
O O15 0.250000 0.500000 0.449367
O O16 0.250000 0.615487 0.500000
#
# Coordination Sequence:
#
# PCOD9500325 Si02
#       5
#    16  16  16  16  16
#     4  10  17  27  44  68  98 125 152 187 227 271
#     4  10  18  29  48  72  96 122 153 189 229 272
#     4   9  18  32  49  68  91 121 157 194 230 272
#     4   9  17  29  47  70  93 119 153 191 230 272
#     4   9  15  23  38  62  90 117 145 181 225 270
#
# _framework density 18.286159999999999
#
# number of rings (size 3 to 8) (size 9 to 14) (size 15 to 20)
#    0.000    2.600    0.000    6.000    0.000    0.800 
#    0.000    1.000    0.000    6.600    0.000    0.000 
#    0.000    0.000    0.000    0.000    0.000    5.400 
#
# Total GULP energy -222857.368522 kJ/mol
# GULP energy per Si atom -5571.434213 kJ/mol
# Density = 1.824454 g / cm^3
# Si number density = 18.286160 Si / 1000 Ang^3
#
#
#
# Elastic Constant Matrix: (Units=GPa)
#
#
# Indices 1 2 3 4 5 6 
#
# 1 62.5018 12.4299 47.7742 0.0000 0.0000 0.0000
# 2 12.4299 55.3042 71.1838 0.0000 0.0000 0.0000
# 3 47.7742 71.1838 247.0949 0.0000 0.0000 0.0000
# 4 0.0000 0.0000 0.0000 -1.5270 0.0000 0.0000
# 5 0.0000 0.0000 0.0000 0.0000 35.2868 0.0000
# 6 0.0000 0.0000 0.0000 0.0000 0.0000 8.3886
#
#
#
# Elastic Compliance Matrix: (Units=1/GPa)
#
#
# Indices 1 2 3 4 5 6 
#
# 1 0.018792 0.000720 -0.003841 0.000000 0.000000 0.000000
# 2 0.000720 0.028765 -0.008426 0.000000 0.000000 0.000000
# 3 -0.003841 -0.008426 0.007217 0.000000 0.000000 0.000000
# 4 0.000000 0.000000 0.000000 -0.654864 0.000000 0.000000
# 5 0.000000 0.000000 0.000000 0.000000 0.028339 0.000000
# 6 0.000000 0.000000 0.000000 0.000000 0.000000 0.119210
#
#
# Mechanical properties :
#
#
# Convention : Reuss Voigt Hill
#
# Bulk Modulus (GPa) = 31.56487 69.74187 50.65337
# Shear Modulus (GPa) = -11.93640 23.99718 6.03039
#
# Velocity S-wave (km/s) = -2.55768 3.62652 1.81795
# Velocity P-wave (km/s) = 2.92861 7.46709 5.67161
#
# Compressibility (1/GPa) = 0.03168079
#
# Stress axis : x y z
#
# Youngs Moduli (GPa) = 53.21391 34.76400 138.56183
#
# Poissons Ratio (x) = -0.02503 0.53218
# Poissons Ratio (y) = -0.03831 1.16752
# Poissons Ratio (z) = 0.20438 0.29292
#
# Static dielectric constant tensor:
#      x y z
#    x 1.623060 0.000000 0.000000 
#    y 0.000000 1.585050 0.000000 
#    z 0.000000 0.000000 1.704460 
# 
# From -- ./inp_files/43317.got.cif
#   From: 2010.05.17/outbox.cif.g08.bks.cpg/sg67_22_cif.got.tgz:43317.got - 2010.06.03 18:28:57.
