data_PCOD9500503
_publ_section_title
;
Structure prediction by ZEFSAII (Michael W. Deem and Ramdas Pophale) SiO2 
 PCOD9500503
Probable space group: C M M A
;
_chemical_formula_sum "Si O2"
_cell_formula_units_Z 104
_cell_length_a 8.242402
_cell_length_b 31.217066
_cell_length_c 20.878245
_cell_angle_alpha 90.000000
_cell_angle_beta 90.000000
_cell_angle_gamma 90.000000
_cell_volume 5372.047751
_symmetry_space_group_name_H-M "C M M A"
_symmetry_group_IT_number 67
_symmetry_cell_setting 'orthorhombic'
loop_
_space_group_symop_operation_xyz
x,y,z
-x,1/2-y,z
x,-y,-z
-x,1/2+y,-z
-x,-y,-z
x,1/2+y,-z
-x,y,z
x,1/2-y,z
1/2+x,1/2+y,z
1/2-x,-y,z
1/2+x,1/2-y,-z
1/2-x,y,-z
1/2-x,1/2-y,-z
1/2+x,y,-z
1/2-x,1/2+y,z
1/2+x,-y,z
loop_
_atom_site_type_symbol
_atom_site_label
_atom_site_fract_x
_atom_site_fract_y
_atom_site_fract_z
Si Si1 0.194667 0.750000 0.929109
Si Si2 0.694137 0.451588 0.571591
Si Si3 0.302293 0.834048 0.139984
Si Si4 0.694092 0.578591 0.073222
Si Si5 0.196232 0.389967 0.315610
Si Si6 0.807529 0.454162 0.794018
Si Si7 0.302590 0.799686 0.279984
O O1 0.255299 0.793057 0.898229
O O2 0.000000 0.750000 0.921878
O O3 0.250000 0.750000 0.000000
O O4 0.500000 0.451064 0.572767
O O5 0.750000 0.500000 0.584955
O O6 0.750000 0.440244 0.500000
O O7 0.755184 0.419175 0.625785
O O8 0.500000 0.837118 0.140752
O O9 0.245190 0.875703 0.101617
O O10 0.256326 0.820749 0.211734
O O11 0.500000 0.578661 0.070978
O O12 0.746811 0.548659 0.132387
O O13 0.750000 0.570344 0.000000
O O14 0.244325 0.414819 0.249866
O O15 0.247588 0.340110 0.324046
O O16 0.000000 0.389592 0.315071
O O17 0.750000 0.500000 0.766923
O O18 0.000000 0.452524 0.793830
O O19 0.500000 0.796901 0.281523
O O20 0.245650 0.750000 0.287789
#
# Coordination Sequence:
#
# PCOD9500503 Si02
#       7
#     8  16  16  16  16  16  16
#     4  10  18  28  44  70  96 130 171 214 274 331
#     4  10  20  34  56  86 121 155 190 227 274 330
#     4   9  16  28  49  72  99 133 173 222 276 329
#     4  11  22  38  56  76 105 141 184 236 287 344
#     4  10  20  36  59  88 118 151 189 233 279 329
#     4  12  25  40  59  83 109 144 186 232 286 343
#     4   9  15  28  54  83 109 142 186 233 277 325
#
# _framework density 19.359470999999999
#
# number of rings (size 3 to 8) (size 9 to 14) (size 15 to 20)
#    0.000    1.846    2.308    3.692    0.000    2.769 
#    0.000    2.308    0.000    0.923    0.000    0.000 
#    0.000    0.000    0.000    0.000    0.000    0.615 
#
# Total GULP energy -289720.303953 kJ/mol
# GULP energy per Si atom -5571.544307 kJ/mol
# Density = 1.931541 g / cm^3
# Si number density = 19.359471 Si / 1000 Ang^3
#
#
#
# Elastic Constant Matrix: (Units=GPa)
#
#
# Indices 1 2 3 4 5 6 
#
# 1 31.1637 14.5233 10.9674 0.0000 0.0000 0.0000
# 2 14.5233 155.8348 62.6572 0.0000 0.0000 0.0000
# 3 10.9674 62.6572 107.0893 0.0000 0.0000 0.0000
# 4 0.0000 0.0000 0.0000 31.9329 0.0000 0.0000
# 5 0.0000 0.0000 0.0000 0.0000 17.0073 0.0000
# 6 0.0000 0.0000 0.0000 0.0000 0.0000 13.0377
#
#
#
# Elastic Compliance Matrix: (Units=1/GPa)
#
#
# Indices 1 2 3 4 5 6 
#
# 1 0.033911 -0.002307 -0.002123 0.000000 0.000000 0.000000
# 2 -0.002307 0.008548 -0.004765 0.000000 0.000000 0.000000
# 3 -0.002123 -0.004765 0.012344 0.000000 0.000000 0.000000
# 4 0.000000 0.000000 0.000000 0.031316 0.000000 0.000000
# 5 0.000000 0.000000 0.000000 0.000000 0.058798 0.000000
# 6 0.000000 0.000000 0.000000 0.000000 0.000000 0.076700
#
#
# Mechanical properties :
#
#
# Convention : Reuss Voigt Hill
#
# Bulk Modulus (GPa) = 27.46337 52.26485 39.86411
# Shear Modulus (GPa) = 19.82992 26.12491 22.97742
#
# Velocity S-wave (km/s) = 3.20394 3.67749 3.44885
# Velocity P-wave (km/s) = 5.28241 6.71473 6.04117
#
# Compressibility (1/GPa) = 0.03641213
#
# Stress axis : x y z
#
# Youngs Moduli (GPa) = 29.48905 116.98704 81.01427
#
# Poissons Ratio (x) = 0.26985 0.17202
# Poissons Ratio (y) = 0.06802 0.38604
# Poissons Ratio (z) = 0.06262 0.55746
#
# Static dielectric constant tensor:
#      x y z
#    x 1.680020 0.000000 0.000000 
#    y 0.000000 1.724210 0.000000 
#    z 0.000000 0.000000 1.690310 
# 
# From -- ./inp_files/37502.got.cif
#   From: 2010.05.17/outbox.cif.g08.bks.cpg/sg67_19_cif.got.tgz:37502.got - 2010.06.03 18:28:57.
