data_PCOD9500315
_publ_section_title
;
Structure prediction by ZEFSAII (Michael W. Deem and Ramdas Pophale) SiO2 
 PCOD9500315
Probable space group: C M M A
;
_chemical_formula_sum "Si O2"
_cell_formula_units_Z 104
_cell_length_a 27.260072
_cell_length_b 8.697681
_cell_length_c 25.096171
_cell_angle_alpha 90.000000
_cell_angle_beta 90.000000
_cell_angle_gamma 90.000000
_cell_volume 5950.287345
_symmetry_space_group_name_H-M "C M M A"
_symmetry_group_IT_number 67
_symmetry_cell_setting 'orthorhombic'
loop_
_space_group_symop_operation_xyz
x,y,z
-x,1/2-y,z
x,-y,-z
-x,1/2+y,-z
-x,-y,-z
x,1/2+y,-z
-x,y,z
x,1/2-y,z
1/2+x,1/2+y,z
1/2-x,-y,z
1/2+x,1/2-y,-z
1/2-x,y,-z
1/2-x,1/2-y,-z
1/2+x,y,-z
1/2-x,1/2+y,z
1/2+x,-y,z
loop_
_atom_site_type_symbol
_atom_site_label
_atom_site_fract_x
_atom_site_fract_y
_atom_site_fract_z
Si Si1 0.303265 0.434772 0.559954
Si Si2 0.058370 0.431450 0.277449
Si Si3 0.500000 0.564378 0.559253
Si Si4 0.599061 0.066241 0.058858
Si Si5 0.057664 0.922390 0.168493
Si Si6 0.898977 0.933744 0.381726
Si Si7 0.701304 0.433387 0.939813
O O1 0.310423 0.500000 0.500000
O O2 0.301084 0.250000 0.558391
O O3 0.250000 0.500000 0.578286
O O4 0.349976 0.488943 0.594665
O O5 0.063093 0.250000 0.286267
O O6 0.074776 0.473322 0.217334
O O7 0.090049 0.521899 0.320731
O O8 0.000000 0.470201 0.284035
O O9 0.500000 0.750000 0.558899
O O10 0.500000 0.500000 0.500000
O O11 0.449235 0.515970 0.587884
O O12 0.601882 0.250000 0.052647
O O13 0.563672 0.025507 0.107469
O O14 0.650467 0.999344 0.080361
O O15 0.588171 0.000000 0.000000
O O16 0.079459 0.750000 0.172423
O O17 0.000000 0.909680 0.177061
O O18 0.894228 0.750000 0.387535
O O19 0.702164 0.250000 0.941235
O O20 0.750000 0.500000 0.913042
O O21 0.701435 0.500000 0.000000
#
# Coordination Sequence:
#
# PCOD9500315 Si02
#       7
#    16  16   8  16  16  16  16
#     4  11  22  38  58  83 113 151 194 237 279 328
#     4  10  20  34  54  80 106 136 177 224 270 321
#     4  10  22  34  50  78 114 150 179 214 267 322
#     4  10  19  31  48  72 101 132 168 209 258 313
#     4   9  19  35  53  72  99 137 176 215 260 315
#     4  11  21  36  56  81 111 149 187 227 276 328
#     4  10  17  27  44  66  93 123 156 194 239 294
#
# _framework density 17.478145999999999
#
# number of rings (size 3 to 8) (size 9 to 14) (size 15 to 20)
#    0.000    1.846    0.769    6.462    0.000    4.615 
#    0.000    0.000    0.000    0.923    0.000    2.154 
#    0.000    0.000    0.000    0.000    0.000    0.000 
#
# Total GULP energy -289734.160098 kJ/mol
# GULP energy per Si atom -5571.810771 kJ/mol
# Density = 1.743837 g / cm^3
# Si number density = 17.478146 Si / 1000 Ang^3
#
#
#
# Elastic Constant Matrix: (Units=GPa)
#
#
# Indices 1 2 3 4 5 6 
#
# 1 83.9894 46.3466 39.9791 0.0000 0.0000 0.0000
# 2 46.3466 92.6470 42.8283 0.0000 0.0000 0.0000
# 3 39.9791 42.8283 90.0761 0.0000 0.0000 0.0000
# 4 0.0000 0.0000 0.0000 28.2834 0.0000 0.0000
# 5 0.0000 0.0000 0.0000 0.0000 17.7616 0.0000
# 6 0.0000 0.0000 0.0000 0.0000 0.0000 24.9910
#
#
#
# Elastic Compliance Matrix: (Units=1/GPa)
#
#
# Indices 1 2 3 4 5 6 
#
# 1 0.017887 -0.006765 -0.004722 0.000000 0.000000 0.000000
# 2 -0.006765 0.016393 -0.004792 0.000000 0.000000 0.000000
# 3 -0.004722 -0.004792 0.015476 0.000000 0.000000 0.000000
# 4 0.000000 0.000000 0.000000 0.035356 0.000000 0.000000
# 5 0.000000 0.000000 0.000000 0.000000 0.056301 0.000000
# 6 0.000000 0.000000 0.000000 0.000000 0.000000 0.040014
#
#
# Mechanical properties :
#
#
# Convention : Reuss Voigt Hill
#
# Bulk Modulus (GPa) = 58.14709 58.33560 58.24135
# Shear Modulus (GPa) = 22.75632 23.37776 23.06704
#
# Velocity S-wave (km/s) = 3.61222 3.66121 3.63680
# Velocity P-wave (km/s) = 7.12307 7.16389 7.14351
#
# Compressibility (1/GPa) = 0.01719777
#
# Stress axis : x y z
#
# Youngs Moduli (GPa) = 55.90597 61.00189 64.61590
#
# Poissons Ratio (x) = 0.41268 0.30515
# Poissons Ratio (y) = 0.37820 0.30962
# Poissons Ratio (z) = 0.26401 0.29231
#
# Static dielectric constant tensor:
#      x y z
#    x 1.668840 0.000000 0.000000 
#    y 0.000000 1.606920 0.000000 
#    z 0.000000 0.000000 1.572990 
# 
# From -- ./inp_files/42949.got.cif
#   From: 2010.05.17/outbox.cif.g08.bks.cpg/sg67_22_cif.got.tgz:42949.got - 2010.06.03 18:28:57.
