data_PCOD9500852
_publ_section_title
;
Structure prediction by ZEFSAII (Michael W. Deem and Ramdas Pophale) SiO2 
 PCOD9500852
Probable space group: C M M A
;
_chemical_formula_sum "Si O2"
_cell_formula_units_Z 60
_cell_length_a 18.121824
_cell_length_b 10.867106
_cell_length_c 15.877286
_cell_angle_alpha 90.000000
_cell_angle_beta 90.000000
_cell_angle_gamma 90.000000
_cell_volume 3126.742230
_symmetry_space_group_name_H-M "C M M A"
_symmetry_group_IT_number 67
_symmetry_cell_setting 'orthorhombic'
loop_
_space_group_symop_operation_xyz
x,y,z
-x,1/2-y,z
x,-y,-z
-x,1/2+y,-z
-x,-y,-z
x,1/2+y,-z
-x,y,z
x,1/2-y,z
1/2+x,1/2+y,z
1/2-x,-y,z
1/2+x,1/2-y,-z
1/2-x,y,-z
1/2-x,1/2-y,-z
1/2+x,y,-z
1/2-x,1/2+y,z
1/2+x,-y,z
loop_
_atom_site_type_symbol
_atom_site_label
_atom_site_fract_x
_atom_site_fract_y
_atom_site_fract_z
Si Si1 0.589354 0.250000 0.900498
Si Si2 0.153273 0.885771 0.353712
Si Si3 0.750000 0.000000 0.500000
Si Si4 0.590225 0.001683 0.196559
Si Si5 0.000000 0.122408 0.552700
Si Si6 0.088821 0.750000 0.091844
O O1 0.500000 0.250000 0.904971
O O2 0.608348 0.375634 0.851809
O O3 0.618028 0.250000 0.996350
O O4 0.176134 0.750000 0.322719
O O5 0.201235 0.922171 0.434624
O O6 0.142114 0.982623 0.278632
O O7 0.071032 0.876555 0.389546
O O8 0.500000 0.001342 0.214150
O O9 0.606038 0.123974 0.141232
O O10 0.000000 0.250000 0.500533
O O11 0.000000 0.000000 0.500000
O O12 0.000000 0.750000 0.086057
#
# Coordination Sequence:
#
# PCOD9500852 Si02
#       6
#     8  16   4  16   8   8
#     4   9  18  30  46  89 128 150 184 237 293 345
#     4  11  22  40  60  85 113 156 200 241 292 359
#     4  12  26  42  60  82 118 148 200 260 302 336
#     4  10  18  32  55  84 119 158 193 235 287 349
#     4  10  20  38  62  84 109 147 200 242 295 353
#     4   9  16  28  54  81 120 158 188 233 293 345
#
# _framework density 19.189302000000001
#
# number of rings (size 3 to 8) (size 9 to 14) (size 15 to 20)
#    0.000    1.867    4.000    1.200    0.000    3.200 
#    7.200    0.000    0.000    0.000    0.000    5.600 
#    0.000    0.000    0.000    0.000    0.000    0.000 
#
# Total GULP energy -167068.872624 kJ/mol
# GULP energy per Si atom -5568.962421 kJ/mol
# Density = 1.914563 g / cm^3
# Si number density = 19.189302 Si / 1000 Ang^3
#
#
#
# Elastic Constant Matrix: (Units=GPa)
#
#
# Indices 1 2 3 4 5 6 
#
# 1 39.4874 7.5213 22.7443 0.0000 0.0000 0.0000
# 2 7.5213 144.7565 62.8573 0.0000 0.0000 0.0000
# 3 22.7443 62.8573 123.4082 0.0000 0.0000 0.0000
# 4 0.0000 0.0000 0.0000 28.9636 0.0000 0.0000
# 5 0.0000 0.0000 0.0000 0.0000 -27.3149 0.0000
# 6 0.0000 0.0000 0.0000 0.0000 0.0000 57.1972
#
#
#
# Elastic Compliance Matrix: (Units=1/GPa)
#
#
# Indices 1 2 3 4 5 6 
#
# 1 0.028450 0.001025 -0.005766 0.000000 0.000000 0.000000
# 2 0.001025 0.008907 -0.004726 0.000000 0.000000 0.000000
# 3 -0.005766 -0.004726 0.011573 0.000000 0.000000 0.000000
# 4 0.000000 0.000000 0.000000 0.034526 0.000000 0.000000
# 5 0.000000 0.000000 0.000000 0.000000 -0.036610 0.000000
# 6 0.000000 0.000000 0.000000 0.000000 0.000000 0.017483
#
#
# Mechanical properties :
#
#
# Convention : Reuss Voigt Hill
#
# Bulk Modulus (GPa) = 33.33560 54.87756 44.10658
# Shear Modulus (GPa) = 53.61329 26.07112 39.84220
#
# Velocity S-wave (km/s) = 5.29148 3.68996 4.56156
# Velocity P-wave (km/s) = 7.39884 6.84211 7.12591
#
# Compressibility (1/GPa) = 0.02999796
#
# Stress axis : x y z
#
# Youngs Moduli (GPa) = 35.14918 112.27260 86.40944
#
# Poissons Ratio (x) = -0.11512 0.49821
# Poissons Ratio (y) = -0.03604 0.40834
# Poissons Ratio (z) = 0.20266 0.53056
#
# Static dielectric constant tensor:
#      x y z
#    x 1.669180 0.000000 0.000000 
#    y 0.000000 1.676560 0.000000 
#    z 0.000000 0.000000 1.680530 
# 
# From -- ./inp_files/20326.got.cif
#   From: 2010.05.17/outbox.cif.g08.bks.cpg/sg67_11_cif.got.tgz:20326.got - 2010.06.03 18:28:57.
