data_PCOD9500677
_publ_section_title
;
Structure prediction by ZEFSAII (Michael W. Deem and Ramdas Pophale) SiO2 
 PCOD9500677
Probable space group: C M M A
;
_chemical_formula_sum "Si O2"
_cell_formula_units_Z 72
_cell_length_a 8.985375
_cell_length_b 21.277250
_cell_length_c 20.340340
_cell_angle_alpha 90.000000
_cell_angle_beta 90.000000
_cell_angle_gamma 90.000000
_cell_volume 3888.748991
_symmetry_space_group_name_H-M "C M M A"
_symmetry_group_IT_number 67
_symmetry_cell_setting 'orthorhombic'
loop_
_space_group_symop_operation_xyz
x,y,z
-x,1/2-y,z
x,-y,-z
-x,1/2+y,-z
-x,-y,-z
x,1/2+y,-z
-x,y,z
x,1/2-y,z
1/2+x,1/2+y,z
1/2-x,-y,z
1/2+x,1/2-y,-z
1/2-x,y,-z
1/2-x,1/2-y,-z
1/2+x,y,-z
1/2-x,1/2+y,z
1/2+x,-y,z
loop_
_atom_site_type_symbol
_atom_site_label
_atom_site_fract_x
_atom_site_fract_y
_atom_site_fract_z
Si Si1 0.324350 0.623116 0.570426
Si Si2 0.675097 0.064725 0.293923
Si Si3 0.669182 0.673768 0.065472
Si Si4 0.321570 0.750000 0.427127
Si Si5 0.819174 0.323089 0.213208
O O1 0.500000 0.636162 0.559853
O O2 0.250000 0.608038 0.500000
O O3 0.308871 0.571817 0.627031
O O4 0.243711 0.685256 0.599557
O O5 0.500000 0.064667 0.279270
O O6 0.750324 0.124979 0.260308
O O7 0.750000 0.000000 0.272142
O O8 0.500000 0.651225 0.063753
O O9 0.666325 0.750000 0.062096
O O10 0.730296 0.660894 0.138278
O O11 0.750000 0.650838 0.000000
O O12 0.500000 0.750000 0.427022
O O13 0.250000 0.750000 0.500000
O O14 0.778497 0.250000 0.227751
O O15 0.000000 0.325521 0.215262
#
# Coordination Sequence:
#
# PCOD9500677 Si02
#       5
#    16  16  16   8  16
#     4  10  21  37  56  80 108 139 179 228 278 333
#     4  11  25  41  58  80 110 147 187 233 282 336
#     4   8  14  26  47  78 114 147 180 221 267 318
#     4  10  18  30  52  80 108 138 169 212 269 324
#     4   9  19  36  58  85 116 150 188 228 274 329
#
# _framework density 18.514951
#
# number of rings (size 3 to 8) (size 9 to 14) (size 15 to 20)
#    0.000    2.444    0.000    5.000    1.556    5.333 
#    0.000    4.444    0.000    0.667    0.000    4.667 
#    0.000    0.000    0.000    0.000    0.000    0.000 
#
# Total GULP energy -200618.300746 kJ/mol
# GULP energy per Si atom -5572.730576 kJ/mol
# Density = 1.847281 g / cm^3
# Si number density = 18.514951 Si / 1000 Ang^3
#
#
#
# Elastic Constant Matrix: (Units=GPa)
#
#
# Indices 1 2 3 4 5 6 
#
# 1 92.1978 51.4699 51.4555 0.0000 0.0000 0.0000
# 2 51.4699 91.9578 52.1709 0.0000 0.0000 0.0000
# 3 51.4555 52.1709 109.5851 0.0000 0.0000 0.0000
# 4 0.0000 0.0000 0.0000 7.0558 0.0000 0.0000
# 5 0.0000 0.0000 0.0000 0.0000 28.9251 0.0000
# 6 0.0000 0.0000 0.0000 0.0000 0.0000 18.0682
#
#
#
# Elastic Compliance Matrix: (Units=1/GPa)
#
#
# Indices 1 2 3 4 5 6 
#
# 1 0.017483 -0.007026 -0.004864 0.000000 0.000000 0.000000
# 2 -0.007026 0.017722 -0.005138 0.000000 0.000000 0.000000
# 3 -0.004864 -0.005138 0.013856 0.000000 0.000000 0.000000
# 4 0.000000 0.000000 0.000000 0.141728 0.000000 0.000000
# 5 0.000000 0.000000 0.000000 0.000000 0.034572 0.000000
# 6 0.000000 0.000000 0.000000 0.000000 0.000000 0.055346
#
#
# Mechanical properties :
#
#
# Convention : Reuss Voigt Hill
#
# Bulk Modulus (GPa) = 66.64812 67.10370 66.87591
# Shear Modulus (GPa) = 15.63648 20.05277 17.84462
#
# Velocity S-wave (km/s) = 2.90924 3.29455 3.10787
# Velocity P-wave (km/s) = 6.88186 7.12698 7.00549
#
# Compressibility (1/GPa) = 0.01500417
#
# Stress axis : x y z
#
# Youngs Moduli (GPa) = 57.19752 56.42702 72.17349
#
# Poissons Ratio (x) = 0.39645 0.35108
# Poissons Ratio (y) = 0.40186 0.37083
# Poissons Ratio (z) = 0.27823 0.28992
#
# Static dielectric constant tensor:
#      x y z
#    x 1.633080 0.000000 0.000000 
#    y 0.000000 1.643690 0.000000 
#    z 0.000000 0.000000 1.689210 
# 
# From -- ./inp_files/36780.got.cif
#   From: 2010.05.17/outbox.cif.g08.bks.cpg/sg67_19_cif.got.tgz:36780.got - 2010.06.03 18:28:57.
