data_PCOD9500064
_publ_section_title
;
Structure prediction by ZEFSAII (Michael W. Deem and Ramdas Pophale) SiO2 
 PCOD9500064
Probable space group: C C C M
;
_chemical_formula_sum "Si O2"
_cell_formula_units_Z 48
_cell_length_a 27.000000
_cell_length_b 21.000000
_cell_length_c 9.000000
_cell_angle_alpha 90.000000
_cell_angle_beta 90.000000
_cell_angle_gamma 90.000000
_cell_volume 5103.000000
_symmetry_space_group_name_H-M "C C C M"
_symmetry_group_IT_number 66
_symmetry_cell_setting 'orthorhombic'
loop_
_space_group_symop_operation_xyz
x,y,z
-x,-y,z
x,-y,1/2-z
-x,y,1/2-z
-x,-y,-z
x,y,-z
-x,y,1/2+z
x,-y,1/2+z
1/2+x,1/2+y,z
1/2-x,1/2-y,z
1/2+x,1/2-y,1/2-z
1/2-x,1/2+y,1/2-z
1/2-x,1/2-y,-z
1/2+x,1/2+y,-z
1/2-x,1/2+y,1/2+z
1/2+x,1/2-y,1/2+z
loop_
_atom_site_type_symbol
_atom_site_label
_atom_site_fract_x
_atom_site_fract_y
_atom_site_fract_z
Si Si1 0.360907 0.285219 0.677466
Si Si2 0.749470 0.064282 0.833183
Si Si3 0.606180 0.069976 0.675247
Si Si4 0.867735 0.066280 0.168546
Si Si5 0.196959 0.328065 0.825896
Si Si6 0.949334 0.683703 0.675705
O O1 0.349884 0.288982 0.500000
O O2 0.371739 0.359189 0.726629
O O3 0.319249 0.239880 0.755886
O O4 0.408694 0.239377 0.699284
O O5 0.808503 0.057914 0.841008
O O6 0.739629 0.132300 0.756549
O O7 0.731294 0.000000 0.750000
O O8 0.728281 0.065054 0.000000
O O9 0.596367 0.061254 0.500000
O O10 0.653857 0.117267 0.688017
O O11 0.565851 0.115850 0.752465
O O12 0.610860 0.000000 0.750000
O O13 0.885258 0.000000 0.250000
O O14 0.888212 0.066301 0.000000
O O15 0.207159 0.319112 0.000000
O O16 0.954338 0.674877 0.500000
O O17 0.000000 0.704812 0.750000
#
# Coordination Sequence:
#
# PCOD9500064 Si02
#       6
#    16  16  16  16  16  16
#     4   9  19  36  55  74  99 131 164 200 248 301
#     4  10  19  31  48  70 100 136 173 211 248 288
#     4  10  20  33  49  71 100 134 172 209 244 283
#     4   9  19  35  54  76 100 129 165 204 248 297
#     4  10  20  32  48  72 102 136 174 212 247 286
#     4  10  20  35  55  76  99 127 160 200 246 297
#
# _framework density 9.4062319999999993
#
# number of rings (size 3 to 8) (size 9 to 14) (size 15 to 20)
#    0.000    2.333    0.000    2.500    0.000    6.333 
#    0.000    5.000    0.000    0.500    0.000    3.500 
#    0.000    0.000    0.000    0.000    0.000    0.000 
#
# Total GULP energy -267308.895442 kJ/mol
# GULP energy per Si atom -5568.935322 kJ/mol
# Density = 0.938482 g / cm^3
# Si number density = 9.406232 Si / 1000 Ang^3
#
#
#
# Elastic Constant Matrix: (Units=GPa)
#
#
# Indices 1 2 3 4 5 6 
#
# 1 19.8808 1.3634 15.3053 0.0000 0.0000 0.0000
# 2 1.3634 187.2352 63.9981 0.0000 0.0000 0.0000
# 3 15.3053 63.9981 84.8294 0.0000 0.0000 0.0000
# 4 0.0000 0.0000 0.0000 40.2145 0.0000 0.0000
# 5 0.0000 0.0000 0.0000 0.0000 16.2215 0.0000
# 6 0.0000 0.0000 0.0000 0.0000 0.0000 22.3472
#
#
#
# Elastic Compliance Matrix: (Units=1/GPa)
#
#
# Indices 1 2 3 4 5 6 
#
# 1 0.061076 0.004476 -0.014396 0.000000 0.000000 0.000000
# 2 0.004476 0.007525 -0.006484 0.000000 0.000000 0.000000
# 3 -0.014396 -0.006484 0.019278 0.000000 0.000000 0.000000
# 4 0.000000 0.000000 0.000000 0.024867 0.000000 0.000000
# 5 0.000000 0.000000 0.000000 0.000000 0.061646 0.000000
# 6 0.000000 0.000000 0.000000 0.000000 0.000000 0.044748
#
#
# Mechanical properties :
#
#
# Convention : Reuss Voigt Hill
#
# Bulk Modulus (GPa) = 18.15910 50.36433 34.26172
# Shear Modulus (GPa) = 18.49755 29.84188 24.16972
#
# Velocity S-wave (km/s) = 3.13910 3.98714 3.58826
# Velocity P-wave (km/s) = 4.77622 6.93010 5.95141
#
# Compressibility (1/GPa) = 0.05506880
#
# Stress axis : x y z
#
# Youngs Moduli (GPa) = 16.37306 132.89543 51.87276
#
# Poissons Ratio (x) = -0.59485 0.74678
# Poissons Ratio (y) = -0.07329 0.33637
# Poissons Ratio (z) = 0.23571 0.86176
#
# Static dielectric constant tensor:
#      x y z
#    x 1.731070 0.000000 0.000000 
#    y 0.000000 1.643390 0.000000 
#    z 0.000000 0.000000 1.670610 
# 
# From -- ./inp_files/10238.got.cif
#   From: 2010.05.17/outbox.ucp.g08.bks.cvg/sg66_6_cif.got.tgz:10238.got - 2010.06.11 16:44:13.
