data_PCOD9500682
_publ_section_title
;
Structure prediction by ZEFSAII (Michael W. Deem and Ramdas Pophale) SiO2 
 PCOD9500682
Probable space group: C M M A
;
_chemical_formula_sum "Si O2"
_cell_formula_units_Z 84
_cell_length_a 14.941331
_cell_length_b 18.644204
_cell_length_c 11.243646
_cell_angle_alpha 90.000000
_cell_angle_beta 90.000000
_cell_angle_gamma 90.000000
_cell_volume 3132.133732
_symmetry_space_group_name_H-M "C M M A"
_symmetry_group_IT_number 67
_symmetry_cell_setting 'orthorhombic'
loop_
_space_group_symop_operation_xyz
x,y,z
-x,1/2-y,z
x,-y,-z
-x,1/2+y,-z
-x,-y,-z
x,1/2+y,-z
-x,y,z
x,1/2-y,z
1/2+x,1/2+y,z
1/2-x,-y,z
1/2+x,1/2-y,-z
1/2-x,y,-z
1/2-x,1/2-y,-z
1/2+x,y,-z
1/2-x,1/2+y,z
1/2+x,-y,z
loop_
_atom_site_type_symbol
_atom_site_label
_atom_site_fract_x
_atom_site_fract_y
_atom_site_fract_z
Si Si1 0.000000 0.668870 0.715276
Si Si2 0.682737 0.166598 0.795416
Si Si3 0.686090 0.088751 0.383565
Si Si4 0.250000 0.500000 0.000000
Si Si5 0.395967 0.329534 0.050034
Si Si6 0.500000 0.829756 0.565457
Si Si7 0.605939 0.015566 0.182381
O O1 0.089690 0.631784 0.754310
O O2 0.000000 0.675520 0.575715
O O3 0.000000 0.750000 0.767048
O O4 0.684043 0.250000 0.756947
O O5 0.757430 0.130406 0.716176
O O6 0.670159 0.169260 0.937383
O O7 0.750000 0.082234 0.500000
O O8 0.592912 0.130848 0.405996
O O9 0.647376 0.018872 0.314751
O O10 0.324272 0.473984 0.902751
O O11 0.500000 0.330070 0.009239
O O12 0.381967 0.250000 0.108270
O O13 0.387691 0.401766 0.127634
O O14 0.500000 0.750000 0.619548
O O15 0.500000 0.999894 0.174909
#
# Coordination Sequence:
#
# PCOD9500682 Si02
#       7
#     8  16  16   4  16   8  16
#     4   9  16  28  47  77 121 175 236 277 309 380
#     4  10  18  30  52  85 128 184 237 274 320 400
#     4  12  24  39  61  92 135 181 231 291 348 409
#     4  12  26  52  84 102 132 180 242 288 352 426
#     4   9  18  35  62  99 142 179 215 272 350 426
#     4  11  22  36  53  86 140 198 243 279 328 405
#     4  11  25  47  73 106 140 180 230 293 352 415
#
# _framework density 26.818777000000001
#
# number of rings (size 3 to 8) (size 9 to 14) (size 15 to 20)
#    0.000    1.524    3.810    2.000    0.000    2.286 
#    0.000    2.857    2.095    1.143    0.000    0.000 
#    0.000    0.000    0.000    0.000    0.000    0.000 
#
# Total GULP energy -234732.859128 kJ/mol
# GULP energy per Si atom -5588.877598 kJ/mol
# Density = 2.675774 g / cm^3
# Si number density = 26.818777 Si / 1000 Ang^3
#
#
#
# Elastic Constant Matrix: (Units=GPa)
#
#
# Indices 1 2 3 4 5 6 
#
# 1 275.4942 50.2487 113.1808 0.0000 0.0000 0.0000
# 2 50.2487 131.9830 14.3309 0.0000 0.0000 0.0000
# 3 113.1808 14.3309 116.4853 0.0000 0.0000 0.0000
# 4 0.0000 0.0000 0.0000 31.9843 0.0000 0.0000
# 5 0.0000 0.0000 0.0000 0.0000 61.5932 0.0000
# 6 0.0000 0.0000 0.0000 0.0000 0.0000 18.7733
#
#
#
# Elastic Compliance Matrix: (Units=1/GPa)
#
#
# Indices 1 2 3 4 5 6 
#
# 1 0.006435 -0.001795 -0.006032 0.000000 0.000000 0.000000
# 2 -0.001795 0.008180 0.000738 0.000000 0.000000 0.000000
# 3 -0.006032 0.000738 0.014355 0.000000 0.000000 0.000000
# 4 0.000000 0.000000 0.000000 0.031265 0.000000 0.000000
# 5 0.000000 0.000000 0.000000 0.000000 0.016236 0.000000
# 6 0.000000 0.000000 0.000000 0.000000 0.000000 0.053267
#
#
# Mechanical properties :
#
#
# Convention : Reuss Voigt Hill
#
# Bulk Modulus (GPa) = 67.60519 97.72034 82.66276
# Shear Modulus (GPa) = 33.59144 45.55029 39.57086
#
# Velocity S-wave (km/s) = 3.54296 4.12569 3.84538
# Velocity P-wave (km/s) = 6.48071 7.69490 7.11376
#
# Compressibility (1/GPa) = 0.01479176
#
# Stress axis : x y z
#
# Youngs Moduli (GPa) = 155.39171 122.24852 69.66298
#
# Poissons Ratio (x) = 0.21945 0.42020
# Poissons Ratio (y) = 0.27895 -0.05140
# Poissons Ratio (z) = 0.93731 -0.09020
#
# Static dielectric constant tensor:
#      x y z
#    x 2.146820 0.000000 0.000000 
#    y 0.000000 2.234520 0.000000 
#    z 0.000000 0.000000 2.034730 
# 
# From -- ./inp_files/18160.got.cif
#   From: 2010.05.17/outbox.cif.g08.bks.cpg/sg67_10_cif.got.tgz:18160.got - 2010.06.03 18:28:57.
