data_PCOD9500411
_publ_section_title
;
Structure prediction by ZEFSAII (Michael W. Deem and Ramdas Pophale) SiO2 
 PCOD9500411
Probable space group: C M M A
;
_chemical_formula_sum "Si O2"
_cell_formula_units_Z 64
_cell_length_a 15.137027
_cell_length_b 25.736183
_cell_length_c 7.195966
_cell_angle_alpha 90.000000
_cell_angle_beta 90.000000
_cell_angle_gamma 90.000000
_cell_volume 2803.327415
_symmetry_space_group_name_H-M "C M M A"
_symmetry_group_IT_number 67
_symmetry_cell_setting 'orthorhombic'
loop_
_space_group_symop_operation_xyz
x,y,z
-x,1/2-y,z
x,-y,-z
-x,1/2+y,-z
-x,-y,-z
x,1/2+y,-z
-x,y,z
x,1/2-y,z
1/2+x,1/2+y,z
1/2-x,-y,z
1/2+x,1/2-y,-z
1/2-x,y,-z
1/2-x,1/2-y,-z
1/2+x,y,-z
1/2-x,1/2+y,z
1/2+x,-y,z
loop_
_atom_site_type_symbol
_atom_site_label
_atom_site_fract_x
_atom_site_fract_y
_atom_site_fract_z
Si Si1 0.144133 0.363868 0.740245
Si Si2 0.000000 0.945272 0.268598
Si Si3 0.154116 0.640174 0.708791
Si Si4 0.500000 0.435931 0.720890
Si Si5 0.705970 0.250000 0.795378
Si Si6 0.599763 0.250000 0.269035
O O1 0.143969 0.359570 0.514828
O O2 0.247156 0.372009 0.779018
O O3 0.104799 0.309029 0.813479
O O4 0.084862 0.412507 0.793226
O O5 0.000000 0.941680 0.494981
O O6 0.000000 0.005039 0.211908
O O7 0.146215 0.699983 0.764942
O O8 0.084383 0.598242 0.775813
O O9 0.795599 0.250000 0.666453
O O10 0.750000 0.250000 0.000000
O O11 0.500000 0.250000 0.358584
#
# Coordination Sequence:
#
# PCOD9500411 Si02
#       6
#    16   8  16   8   8   8
#     4   9  16  28  49  75 103 127 156 199 254 312
#     4   9  16  27  45  73 106 135 160 192 240 312
#     4   9  18  31  47  72 101 131 160 202 253 306
#     4   9  18  29  43  71 106 135 164 192 244 311
#     4  10  21  36  49  69  98 131 176 215 253 298
#     4  10  17  29  50  74  94 122 160 202 258 313
#
# _framework density 22.830010999999999
#
# number of rings (size 3 to 8) (size 9 to 14) (size 15 to 20)
#    0.000    2.750    1.250    0.750    0.000    4.500 
#    2.250    5.000    0.000    0.000    0.000   21.000 
#    0.000    0.000    0.000    0.000    0.000    0.000 
#
# Total GULP energy -178263.591669 kJ/mol
# GULP energy per Si atom -5570.737240 kJ/mol
# Density = 2.277805 g / cm^3
# Si number density = 22.830011 Si / 1000 Ang^3
#
#
#
# Elastic Constant Matrix: (Units=GPa)
#
#
# Indices 1 2 3 4 5 6 
#
# 1 164.1898 137.5955 23.2428 0.0000 0.0000 0.0000
# 2 137.5955 283.8801 12.7378 0.0000 0.0000 0.0000
# 3 23.2428 12.7378 98.0600 0.0000 0.0000 0.0000
# 4 0.0000 0.0000 0.0000 -55.6608 0.0000 0.0000
# 5 0.0000 0.0000 0.0000 0.0000 -1.4150 0.0000
# 6 0.0000 0.0000 0.0000 0.0000 0.0000 50.8216
#
#
#
# Elastic Compliance Matrix: (Units=1/GPa)
#
#
# Indices 1 2 3 4 5 6 
#
# 1 0.010581 -0.005045 -0.001853 0.000000 0.000000 0.000000
# 2 -0.005045 0.005949 0.000423 0.000000 0.000000 0.000000
# 3 -0.001853 0.000423 0.010582 0.000000 0.000000 0.000000
# 4 0.000000 0.000000 0.000000 -0.017966 0.000000 0.000000
# 5 0.000000 0.000000 0.000000 0.000000 -0.706726 0.000000
# 6 0.000000 0.000000 0.000000 0.000000 0.000000 0.019677
#
#
# Mechanical properties :
#
#
# Convention : Reuss Voigt Hill
#
# Bulk Modulus (GPa) = 70.60994 99.25356 84.93175
# Shear Modulus (GPa) = -7.57309 23.58608 8.00650
#
# Velocity S-wave (km/s) = -1.82328 3.21770 1.87473
# Velocity P-wave (km/s) = 5.15395 7.57458 6.47833
#
# Compressibility (1/GPa) = 0.01416231
#
# Stress axis : x y z
#
# Youngs Moduli (GPa) = 94.50938 168.09205 94.50021
#
# Poissons Ratio (x) = 0.84809 0.17507
# Poissons Ratio (y) = 0.47684 -0.03998
# Poissons Ratio (z) = 0.17509 -0.07112
#
# Static dielectric constant tensor:
#      x y z
#    x 1.835770 0.000000 0.000000 
#    y 0.000000 1.816910 0.000000 
#    z 0.000000 0.000000 1.933580 
# 
# From -- ./inp_files/8085.got.cif
#   From: 2010.05.17/outbox.cif.g08.bks.cpg/sg67_5_cif.got.tgz:8085.got - 2010.06.03 18:28:57.
