data_PCOD9500830
_publ_section_title
;
Structure prediction by ZEFSAII (Michael W. Deem and Ramdas Pophale) SiO2 
 PCOD9500830
Probable space group: C M M A
;
_chemical_formula_sum "Si O2"
_cell_formula_units_Z 88
_cell_length_a 21.531012
_cell_length_b 8.618512
_cell_length_c 24.158920
_cell_angle_alpha 90.000000
_cell_angle_beta 90.000000
_cell_angle_gamma 90.000000
_cell_volume 4483.056882
_symmetry_space_group_name_H-M "C M M A"
_symmetry_group_IT_number 67
_symmetry_cell_setting 'orthorhombic'
loop_
_space_group_symop_operation_xyz
x,y,z
-x,1/2-y,z
x,-y,-z
-x,1/2+y,-z
-x,-y,-z
x,1/2+y,-z
-x,y,z
x,1/2-y,z
1/2+x,1/2+y,z
1/2-x,-y,z
1/2+x,1/2-y,-z
1/2-x,y,-z
1/2-x,1/2-y,-z
1/2+x,y,-z
1/2-x,1/2+y,z
1/2+x,-y,z
loop_
_atom_site_type_symbol
_atom_site_label
_atom_site_fract_x
_atom_site_fract_y
_atom_site_fract_z
Si Si1 0.929662 0.435909 0.633800
Si Si2 0.500000 0.564390 0.062680
Si Si3 0.686327 0.063870 0.832259
Si Si4 0.316316 0.435203 0.562240
Si Si5 0.869569 0.565367 0.061952
Si Si6 0.069298 0.562642 0.758123
O O1 0.924749 0.250000 0.630816
O O2 0.874783 0.510672 0.598318
O O3 0.924200 0.490274 0.697353
O O4 0.000000 0.479811 0.615278
O O5 0.500000 0.750000 0.064113
O O6 0.564664 0.500468 0.084661
O O7 0.500000 0.500000 0.000000
O O8 0.687522 0.250000 0.835642
O O9 0.626406 0.015159 0.796619
O O10 0.750000 0.000000 0.807043
O O11 0.679369 0.992786 0.893442
O O12 0.323596 0.500000 0.500000
O O13 0.313217 0.250000 0.560609
O O14 0.250000 0.500000 0.583532
O O15 0.872113 0.750000 0.058651
O O16 0.859484 0.500000 0.000000
O O17 0.071445 0.750000 0.753413
O O18 0.000000 0.522151 0.779625
#
# Coordination Sequence:
#
# PCOD9500830 Si02
#       6
#    16   8  16  16  16  16
#     4  10  21  38  61  90 123 159 202 251 300 354
#     4  10  18  32  54  82 114 146 184 228 277 332
#     4  11  24  41  61  87 119 155 195 243 297 357
#     4  11  22  38  60  87 123 164 207 253 301 358
#     4  11  22  38  59  86 117 152 193 239 291 352
#     4   9  20  40  64  88 115 154 200 247 299 353
#
# _framework density 19.629462
#
# number of rings (size 3 to 8) (size 9 to 14) (size 15 to 20)
#    0.000    1.636    0.000    6.818    1.273    4.000 
#    0.000    3.636    0.000    0.000    0.000    0.000 
#    0.000    0.000    0.000    0.000    0.000    0.000 
#
# Total GULP energy -245833.454146 kJ/mol
# GULP energy per Si atom -5587.123958 kJ/mol
# Density = 1.958478 g / cm^3
# Si number density = 19.629462 Si / 1000 Ang^3
#
#
#
# Elastic Constant Matrix: (Units=GPa)
#
#
# Indices 1 2 3 4 5 6 
#
# 1 191.1933 74.1692 81.8558 0.0000 0.0000 0.0000
# 2 74.1692 122.2982 39.8312 0.0000 0.0000 0.0000
# 3 81.8558 39.8312 72.8684 0.0000 0.0000 0.0000
# 4 0.0000 0.0000 0.0000 27.1699 0.0000 0.0000
# 5 0.0000 0.0000 0.0000 0.0000 21.7224 0.0000
# 6 0.0000 0.0000 0.0000 0.0000 0.0000 34.1937
#
#
#
# Elastic Compliance Matrix: (Units=1/GPa)
#
#
# Indices 1 2 3 4 5 6 
#
# 1 0.011034 -0.003230 -0.010630 0.000000 0.000000 0.000000
# 2 -0.003230 0.010893 -0.002326 0.000000 0.000000 0.000000
# 3 -0.010630 -0.002326 0.026935 0.000000 0.000000 0.000000
# 4 0.000000 0.000000 0.000000 0.036805 0.000000 0.000000
# 5 0.000000 0.000000 0.000000 0.000000 0.046035 0.000000
# 6 0.000000 0.000000 0.000000 0.000000 0.000000 0.029245
#
#
# Mechanical properties :
#
#
# Convention : Reuss Voigt Hill
#
# Bulk Modulus (GPa) = 60.63702 86.45248 73.54475
# Shear Modulus (GPa) = 25.14877 29.31745 27.23311
#
# Velocity S-wave (km/s) = 3.58323 3.86883 3.72877
# Velocity P-wave (km/s) = 6.93378 8.00593 7.48907
#
# Compressibility (1/GPa) = 0.01649158
#
# Stress axis : x y z
#
# Youngs Moduli (GPa) = 90.62836 91.80107 37.12579
#
# Poissons Ratio (x) = 0.29650 0.39463
# Poissons Ratio (y) = 0.29271 0.08636
# Poissons Ratio (z) = 0.96333 0.21355
#
# Static dielectric constant tensor:
#      x y z
#    x 2.372810 0.000000 0.000000 
#    y 0.000000 1.660180 0.000000 
#    z 0.000000 0.000000 1.653380 
# 
# From -- ./inp_files/42364.got.cif
#   From: 2010.05.17/outbox.cif.g08.bks.cpg/sg67_22_cif.got.tgz:42364.got - 2010.06.03 18:28:57.
