data_PCOD9500016
_publ_section_title
;
Structure prediction by ZEFSAII (Michael W. Deem and Ramdas Pophale) SiO2 
 PCOD9500016
Probable space group: C C C M
;
_chemical_formula_sum "Si O2"
_cell_formula_units_Z 80
_cell_length_a 28.568015
_cell_length_b 6.622789
_cell_length_c 15.190894
_cell_angle_alpha 90.000000
_cell_angle_beta 90.000000
_cell_angle_gamma 90.000000
_cell_volume 2874.116165
_symmetry_space_group_name_H-M "C C C M"
_symmetry_group_IT_number 66
_symmetry_cell_setting 'orthorhombic'
loop_
_space_group_symop_operation_xyz
x,y,z
-x,-y,z
x,-y,1/2-z
-x,y,1/2-z
-x,-y,-z
x,y,-z
-x,y,1/2+z
x,-y,1/2+z
1/2+x,1/2+y,z
1/2-x,1/2-y,z
1/2+x,1/2-y,1/2-z
1/2-x,1/2+y,1/2-z
1/2-x,1/2-y,-z
1/2+x,1/2+y,-z
1/2-x,1/2+y,1/2+z
1/2+x,1/2-y,1/2+z
loop_
_atom_site_type_symbol
_atom_site_label
_atom_site_fract_x
_atom_site_fract_y
_atom_site_fract_z
Si Si1 0.437908 0.323353 0.394072
Si Si2 0.260808 0.018968 0.854507
Si Si3 0.537690 0.788043 0.108142
Si Si4 0.839406 0.950162 0.646176
Si Si5 0.364255 0.096066 0.900149
O O1 0.438751 0.314242 0.500000
O O2 0.483237 0.193846 0.364456
O O3 0.450388 0.554584 0.369705
O O4 0.383616 0.302459 0.366757
O O5 0.250000 0.250000 0.881951
O O6 0.213780 0.900604 0.885237
O O7 0.315924 0.996186 0.870199
O O8 0.258058 0.000000 0.750000
O O9 0.583728 0.906841 0.141651
O O10 0.537944 0.806583 0.000000
O O11 0.852828 0.162643 0.601480
O O12 0.837368 0.000000 0.750000
O O13 0.370213 0.031201 0.000000
#
# Coordination Sequence:
#
# PCOD9500016 Si02
#       5
#    16  16  16  16  16
#     4   8  12  20  34  51  80 120 152 182 231 291
#     4   9  18  30  45  66  96 131 163 205 257 301
#     4   7  11  20  34  54  80 112 150 192 234 274
#     4   9  16  24  35  59  95 127 154 193 248 298
#     4   9  16  27  44  63  85 121 172 214 238 284
#
# _framework density 27.834645999999999
#
# number of rings (size 3 to 8) (size 9 to 14) (size 15 to 20)
#    0.000    3.600    0.000    3.000    0.000    4.400 
#    0.000    8.000    0.000    0.600    0.000    8.400 
#    0.000   28.800    0.000   84.000    0.000    7.800 
#
# Total GULP energy -223326.803724 kJ/mol
# GULP energy per Si atom -5583.170093 kJ/mol
# Density = 2.777129 g / cm^3
# Si number density = 27.834646 Si / 1000 Ang^3
#
#
#
# Elastic Constant Matrix: (Units=GPa)
#
#
# Indices 1 2 3 4 5 6 
#
# 1 477.8062 118.4607 24.1130 0.0000 0.0000 0.0000
# 2 118.4607 111.0005 -4.1792 0.0000 0.0000 0.0000
# 3 24.1130 -4.1792 47.5624 0.0000 0.0000 0.0000
# 4 0.0000 0.0000 0.0000 6.8114 0.0000 0.0000
# 5 0.0000 0.0000 0.0000 0.0000 34.7295 0.0000
# 6 0.0000 0.0000 0.0000 0.0000 0.0000 929.4649
#
#
#
# Elastic Compliance Matrix: (Units=1/GPa)
#
#
# Indices 1 2 3 4 5 6 
#
# 1 0.002993 -0.003262 -0.001804 0.000000 0.000000 0.000000
# 2 -0.003262 0.012594 0.002760 0.000000 0.000000 0.000000
# 3 -0.001804 0.002760 0.022182 0.000000 0.000000 0.000000
# 4 0.000000 0.000000 0.000000 0.146813 0.000000 0.000000
# 5 0.000000 0.000000 0.000000 0.000000 0.028794 0.000000
# 6 0.000000 0.000000 0.000000 0.000000 0.000000 0.001076
#
#
# Mechanical properties :
#
#
# Convention : Reuss Voigt Hill
#
# Bulk Modulus (GPa) = 30.15878 101.46202 65.81040
# Shear Modulus (GPa) = 21.72835 227.39947 124.56391
#
# Velocity S-wave (km/s) = 2.79699 9.04842 6.69691
# Velocity P-wave (km/s) = 4.61404 12.07046 9.13744
#
# Compressibility (1/GPa) = 0.03315784
#
# Stress axis : x y z
#
# Youngs Moduli (GPa) = 334.16153 79.40478 45.08161
#
# Poissons Ratio (x) = 0.25899 0.08132
# Poissons Ratio (y) = 1.08990 -0.12443
# Poissons Ratio (z) = 0.60274 -0.21917
#
# Static dielectric constant tensor:
#      x y z
#    x 2.229400 0.000000 0.000000 
#    y 0.000000 2.292260 0.000000 
#    z 0.000000 0.000000 2.089370 
# 
# From -- ./inp_files/26661.got.cif
#   From: 2010.05.17/outbox.cif.g08.bks.cpg/sg66_14_cif.got.tgz:26661.got - 2010.06.03 17:51:23.
