data_PCOD9500634
_publ_section_title
;
Structure prediction by ZEFSAII (Michael W. Deem and Ramdas Pophale) SiO2 
 PCOD9500634
Probable space group: C M M A
;
_chemical_formula_sum "Si O2"
_cell_formula_units_Z 112
_cell_length_a 19.352631
_cell_length_b 18.562438
_cell_length_c 17.657297
_cell_angle_alpha 90.000000
_cell_angle_beta 90.000000
_cell_angle_gamma 90.000000
_cell_volume 6343.066347
_symmetry_space_group_name_H-M "C M M A"
_symmetry_group_IT_number 67
_symmetry_cell_setting 'orthorhombic'
loop_
_space_group_symop_operation_xyz
x,y,z
-x,1/2-y,z
x,-y,-z
-x,1/2+y,-z
-x,-y,-z
x,1/2+y,-z
-x,y,z
x,1/2-y,z
1/2+x,1/2+y,z
1/2-x,-y,z
1/2+x,1/2-y,-z
1/2-x,y,-z
1/2-x,1/2-y,-z
1/2+x,y,-z
1/2-x,1/2+y,z
1/2+x,-y,z
loop_
_atom_site_type_symbol
_atom_site_label
_atom_site_fract_x
_atom_site_fract_y
_atom_site_fract_z
Si Si1 0.322854 0.664624 0.040949
Si Si2 0.848049 0.834069 0.354672
Si Si3 0.082204 0.569659 0.051370
Si Si4 0.686532 0.596992 0.201987
Si Si5 0.665677 0.582786 0.494881
Si Si6 0.652159 0.066218 0.214514
Si Si7 0.820060 0.830137 0.648545
O O1 0.322052 0.750000 0.055546
O O2 0.334067 0.621157 0.118549
O O3 0.250000 0.645659 0.000000
O O4 0.383152 0.639481 0.985580
O O5 0.869348 0.750000 0.348544
O O6 0.863891 0.870160 0.435853
O O7 0.872604 0.884902 0.285125
O O8 0.763846 0.834708 0.352398
O O9 0.108168 0.567982 0.137782
O O10 0.000000 0.572142 0.049210
O O11 0.104355 0.500000 0.000000
O O12 0.661298 0.518799 0.230070
O O13 0.769966 0.593885 0.198534
O O14 0.661418 0.652144 0.265545
O O15 0.644364 0.500000 0.500000
O O16 0.750000 0.584714 0.500000
O O17 0.650172 0.615432 0.412911
O O18 0.839642 0.750000 0.625943
#
# Coordination Sequence:
#
# PCOD9500634 Si02
#       7
#    16  16  16  16  16  16  16
#     4  11  22  35  55  79 105 137 176 223 274 323
#     4   9  17  27  41  65  97 134 175 214 257 314
#     4  11  23  39  57  77 104 140 180 222 273 328
#     4  10  18  30  49  74 100 131 176 217 260 316
#     4   9  15  24  38  59  93 136 177 206 248 310
#     4  10  19  31  51  72  98 134 172 219 265 312
#     4   9  16  25  39  62  97 134 166 208 257 307
#
# _framework density 17.657074999999999
#
# number of rings (size 3 to 8) (size 9 to 14) (size 15 to 20)
#    0.000    2.143    2.857    1.714    0.000    6.857 
#    0.000    0.000    0.000    0.000    0.000    0.000 
#    0.000    6.286    0.000    2.857    0.000    0.000 
#
# Total GULP energy -311957.573845 kJ/mol
# GULP energy per Si atom -5570.670962 kJ/mol
# Density = 1.761689 g / cm^3
# Si number density = 17.657075 Si / 1000 Ang^3
#
#
#
# Elastic Constant Matrix: (Units=GPa)
#
#
# Indices 1 2 3 4 5 6 
#
# 1 18.8586 22.1093 21.8471 0.0000 0.0000 0.0000
# 2 22.1093 84.0815 47.5418 0.0000 0.0000 0.0000
# 3 21.8471 47.5418 117.6776 0.0000 0.0000 0.0000
# 4 0.0000 0.0000 0.0000 26.5530 0.0000 0.0000
# 5 0.0000 0.0000 0.0000 0.0000 6.0648 0.0000
# 6 0.0000 0.0000 0.0000 0.0000 0.0000 2.0373
#
#
#
# Elastic Compliance Matrix: (Units=1/GPa)
#
#
# Indices 1 2 3 4 5 6 
#
# 1 0.082761 -0.016945 -0.008519 0.000000 0.000000 0.000000
# 2 -0.016945 0.018884 -0.004483 0.000000 0.000000 0.000000
# 3 -0.008519 -0.004483 0.011891 0.000000 0.000000 0.000000
# 4 0.000000 0.000000 0.000000 0.037661 0.000000 0.000000
# 5 0.000000 0.000000 0.000000 0.000000 0.164885 0.000000
# 6 0.000000 0.000000 0.000000 0.000000 0.000000 0.490856
#
#
# Mechanical properties :
#
#
# Convention : Reuss Voigt Hill
#
# Bulk Modulus (GPa) = 18.64244 44.84602 31.74423
# Shear Modulus (GPa) = 5.65155 15.53898 10.59527
#
# Velocity S-wave (km/s) = 1.79100 2.96977 2.45227
# Velocity P-wave (km/s) = 3.85459 6.10023 5.10249
#
# Compressibility (1/GPa) = 0.05364104
#
# Stress axis : x y z
#
# Youngs Moduli (GPa) = 12.08292 52.95515 84.10032
#
# Poissons Ratio (x) = 0.89734 0.71645
# Poissons Ratio (y) = 0.20475 0.37704
# Poissons Ratio (z) = 0.10293 0.23741
#
# Static dielectric constant tensor:
#      x y z
#    x 1.577400 0.000000 0.000000 
#    y 0.000000 1.618980 0.000000 
#    z 0.000000 0.000000 1.609120 
# 
# From -- ./inp_files/35117.got.cif
#   From: 2010.05.17/outbox.cif.g08.bks.cpg/sg67_18_cif.got.tgz:35117.got - 2010.06.03 18:28:57.
