data_PCOD9500942
_publ_section_title
;
Structure prediction by ZEFSAII (Michael W. Deem and Ramdas Pophale) SiO2 
 PCOD9500942
Probable space group: C M M A
;
_chemical_formula_sum "Si O2"
_cell_formula_units_Z 104
_cell_length_a 30.884787
_cell_length_b 9.067032
_cell_length_c 20.486716
_cell_angle_alpha 90.000000
_cell_angle_beta 90.000000
_cell_angle_gamma 90.000000
_cell_volume 5736.963754
_symmetry_space_group_name_H-M "C M M A"
_symmetry_group_IT_number 67
_symmetry_cell_setting 'orthorhombic'
loop_
_space_group_symop_operation_xyz
x,y,z
-x,1/2-y,z
x,-y,-z
-x,1/2+y,-z
-x,-y,-z
x,1/2+y,-z
-x,y,z
x,1/2-y,z
1/2+x,1/2+y,z
1/2-x,-y,z
1/2+x,1/2-y,-z
1/2-x,y,-z
1/2-x,1/2-y,-z
1/2+x,y,-z
1/2-x,1/2+y,z
1/2+x,-y,z
loop_
_atom_site_type_symbol
_atom_site_label
_atom_site_fract_x
_atom_site_fract_y
_atom_site_fract_z
Si Si1 0.668933 0.923347 0.570425
Si Si2 0.500000 0.916796 0.433514
Si Si3 0.450575 0.576856 0.783908
Si Si4 0.705730 0.427534 0.293430
Si Si5 0.204133 0.428786 0.071241
Si Si6 0.858950 0.070339 0.824274
Si Si7 0.073603 0.916123 0.367511
O O1 0.678240 0.750000 0.560925
O O2 0.697211 0.978926 0.631926
O O3 0.620497 0.934071 0.600527
O O4 0.672992 0.000000 0.500000
O O5 0.500000 0.750000 0.448856
O O6 0.500000 0.000000 0.500000
O O7 0.457862 0.962606 0.394867
O O8 0.500000 0.515545 0.787692
O O9 0.454382 0.750000 0.800542
O O10 0.409200 0.519603 0.824029
O O11 0.432100 0.573410 0.710066
O O12 0.709675 0.250000 0.294835
O O13 0.750000 0.500000 0.269097
O O14 0.665926 0.460205 0.244474
O O15 0.206693 0.250000 0.068291
O O16 0.250000 0.500000 0.092744
O O17 0.167834 0.486391 0.120578
O O18 0.195982 0.500000 0.000000
O O19 0.857542 0.250000 0.832773
O O20 0.058577 0.750000 0.385195
#
# Coordination Sequence:
#
# PCOD9500942 Si02
#       7
#    16   8  16  16  16  16  16
#     4  10  21  36  53  73  98 135 180 232 284 337
#     4  12  24  34  46  70 100 132 171 224 287 350
#     4   9  16  30  58  86 108 145 190 229 274 336
#     4  10  21  36  54  77 106 141 184 230 280 335
#     4  11  22  38  61  92 127 161 193 229 273 327
#     4  10  19  35  59  87 119 152 188 231 278 334
#     4  10  18  34  56  74  98 133 177 226 281 342
#
# _framework density 18.128056999999998
#
# number of rings (size 3 to 8) (size 9 to 14) (size 15 to 20)
#    0.000    1.846    2.308    3.462    0.000    4.615 
#    0.000    2.308    0.000    0.462    0.000    0.000 
#    0.000    0.000    0.000    0.000    0.000    0.000 
#
# Total GULP energy -289770.650522 kJ/mol
# GULP energy per Si atom -5572.512510 kJ/mol
# Density = 1.808680 g / cm^3
# Si number density = 18.128057 Si / 1000 Ang^3
#
#
#
# Elastic Constant Matrix: (Units=GPa)
#
#
# Indices 1 2 3 4 5 6 
#
# 1 126.7138 35.0075 54.8409 0.0000 0.0000 0.0000
# 2 35.0075 69.5702 32.5914 0.0000 0.0000 0.0000
# 3 54.8409 32.5914 79.0669 0.0000 0.0000 0.0000
# 4 0.0000 0.0000 0.0000 23.4296 0.0000 0.0000
# 5 0.0000 0.0000 0.0000 0.0000 26.2173 0.0000
# 6 0.0000 0.0000 0.0000 0.0000 0.0000 43.2453
#
#
#
# Elastic Compliance Matrix: (Units=1/GPa)
#
#
# Indices 1 2 3 4 5 6 
#
# 1 0.011637 -0.002571 -0.007011 0.000000 0.000000 0.000000
# 2 -0.002571 0.018382 -0.005794 0.000000 0.000000 0.000000
# 3 -0.007011 -0.005794 0.019899 0.000000 0.000000 0.000000
# 4 0.000000 0.000000 0.000000 0.042681 0.000000 0.000000
# 5 0.000000 0.000000 0.000000 0.000000 0.038143 0.000000
# 6 0.000000 0.000000 0.000000 0.000000 0.000000 0.023124
#
#
# Mechanical properties :
#
#
# Convention : Reuss Voigt Hill
#
# Bulk Modulus (GPa) = 52.17842 57.80341 54.99091
# Shear Modulus (GPa) = 26.17723 28.77251 27.47487
#
# Velocity S-wave (km/s) = 3.80415 3.98827 3.89729
# Velocity P-wave (km/s) = 6.93838 7.29135 7.11705
#
# Compressibility (1/GPa) = 0.01916501
#
# Stress axis : x y z
#
# Youngs Moduli (GPa) = 85.93609 54.40152 50.25401
#
# Poissons Ratio (x) = 0.13986 0.35235
# Poissons Ratio (y) = 0.22093 0.29117
# Poissons Ratio (z) = 0.60254 0.31520
#
# Static dielectric constant tensor:
#      x y z
#    x 1.632750 0.000000 0.000000 
#    y 0.000000 1.606240 0.000000 
#    z 0.000000 0.000000 1.601950 
# 
# From -- ./inp_files/40197.got.cif
#   From: 2010.05.17/outbox.cif.g08.bks.cpg/sg67_21_cif.got.tgz:40197.got - 2010.06.03 18:28:57.
