data_PCOD9500251
_publ_section_title
;
Structure prediction by ZEFSAII (Michael W. Deem and Ramdas Pophale) SiO2 
 PCOD9500251
Probable space group: C M M A
;
_chemical_formula_sum "Si O2"
_cell_formula_units_Z 128
_cell_length_a 14.983465
_cell_length_b 15.504329
_cell_length_c 23.852935
_cell_angle_alpha 90.000000
_cell_angle_beta 90.000000
_cell_angle_gamma 90.000000
_cell_volume 5541.241242
_symmetry_space_group_name_H-M "C M M A"
_symmetry_group_IT_number 67
_symmetry_cell_setting 'orthorhombic'
loop_
_space_group_symop_operation_xyz
x,y,z
-x,1/2-y,z
x,-y,-z
-x,1/2+y,-z
-x,-y,-z
x,1/2+y,-z
-x,y,z
x,1/2-y,z
1/2+x,1/2+y,z
1/2-x,-y,z
1/2+x,1/2-y,-z
1/2-x,y,-z
1/2-x,1/2-y,-z
1/2+x,y,-z
1/2-x,1/2+y,z
1/2+x,-y,z
loop_
_atom_site_type_symbol
_atom_site_label
_atom_site_fract_x
_atom_site_fract_y
_atom_site_fract_z
Si Si1 0.103811 0.152552 0.358882
Si Si2 0.105496 0.152411 0.644207
Si Si3 0.890323 0.999654 0.435316
Si Si4 0.683623 0.582413 0.881830
Si Si5 0.133732 0.648743 0.764731
Si Si6 0.847775 0.649634 0.231243
Si Si7 0.130037 0.651803 0.885114
Si Si8 0.857819 0.148531 0.993660
O O1 0.142489 0.250000 0.358567
O O2 0.141939 0.084639 0.402534
O O3 0.105668 0.114865 0.295626
O O4 0.000000 0.161552 0.373414
O O5 0.142916 0.250000 0.640586
O O6 0.117194 0.121478 0.708331
O O7 0.000000 0.158938 0.634303
O O8 0.140186 0.084068 0.599413
O O9 0.000000 0.999654 0.433884
O O10 0.863825 0.000000 0.500000
O O11 0.750000 0.500000 0.883598
O O12 0.631246 0.594543 0.824011
O O13 0.761521 0.655159 0.882772
O O14 0.624877 0.595909 0.937114
O O15 0.107325 0.750000 0.764898
O O16 0.240639 0.644650 0.763968
O O17 0.103364 0.612292 0.825097
O O18 0.874205 0.750000 0.222918
O O19 0.098754 0.750000 0.885779
O O20 0.106236 0.615556 0.946292
O O21 0.881222 0.250000 0.987183
O O22 0.750000 0.143031 0.000000
#
# Coordination Sequence:
#
# PCOD9500251 Si02
#       8
#    16  16  16  16  16  16  16  16
#     4   9  17  29  47  71  96 122 153 187 222 264
#     4   9  18  32  50  71  92 116 150 190 228 267
#     4   9  18  32  50  72  96 120 148 185 226 268
#     4  10  17  22  33  57  84 110 140 180 223 262
#     4   8  14  26  44  65  89 118 151 185 224 271
#     4   9  17  30  46  63  87 120 153 184 224 272
#     4   8  14  24  36  50  73 109 146 175 212 264
#     4   8  13  22  34  47  71 109 145 175 214 263
#
# _framework density 23.099516999999999
#
# number of rings (size 3 to 8) (size 9 to 14) (size 15 to 20)
#    0.000    3.250    0.000    2.625    0.000    4.750 
#    0.000    2.500    0.000    1.500    0.000    4.375 
#    0.000    5.000    0.000   32.750    0.000   67.500 
#
# Total GULP energy -356644.902116 kJ/mol
# GULP energy per Si atom -5572.576596 kJ/mol
# Density = 2.304694 g / cm^3
# Si number density = 23.099517 Si / 1000 Ang^3
#
#
#
# Elastic Constant Matrix: (Units=GPa)
#
#
# Indices 1 2 3 4 5 6 
#
# 1 45.6116 1.1271 -3.0869 0.0000 0.0000 0.0000
# 2 1.1271 110.9687 101.0236 0.0000 0.0000 0.0000
# 3 -3.0869 101.0236 266.2967 0.0000 0.0000 0.0000
# 4 0.0000 0.0000 0.0000 98.7954 0.0000 0.0000
# 5 0.0000 0.0000 0.0000 0.0000 19.0446 0.0000
# 6 0.0000 0.0000 0.0000 0.0000 0.0000 -12.2140
#
#
#
# Elastic Compliance Matrix: (Units=1/GPa)
#
#
# Indices 1 2 3 4 5 6 
#
# 1 0.021977 -0.000695 0.000518 0.000000 0.000000 0.000000
# 2 -0.000695 0.013788 -0.005239 0.000000 0.000000 0.000000
# 3 0.000518 -0.005239 0.005749 0.000000 0.000000 0.000000
# 4 0.000000 0.000000 0.000000 0.010122 0.000000 0.000000
# 5 0.000000 0.000000 0.000000 0.000000 0.052508 0.000000
# 6 0.000000 0.000000 0.000000 0.000000 0.000000 -0.081874
#
#
# Mechanical properties :
#
#
# Convention : Reuss Voigt Hill
#
# Bulk Modulus (GPa) = 32.59230 69.00050 50.79640
# Shear Modulus (GPa) = 115.39960 42.71275 79.05618
#
# Velocity S-wave (km/s) = 7.07574 4.30475 5.85649
# Velocity P-wave (km/s) = 8.99416 7.39214 8.23221
#
# Compressibility (1/GPa) = 0.03068210
#
# Stress axis : x y z
#
# Youngs Moduli (GPa) = 45.50308 72.52798 173.95590
#
# Poissons Ratio (x) = 0.05042 -0.09020
# Poissons Ratio (y) = 0.03164 0.91130
# Poissons Ratio (z) = -0.02359 0.37995
#
# Static dielectric constant tensor:
#      x y z
#    x 1.906020 0.000000 0.000000 
#    y 0.000000 1.942260 0.000000 
#    z 0.000000 0.000000 1.913300 
# 
# From -- ./inp_files/39435.got.cif
#   From: 2010.05.17/outbox.cif.g08.bks.cpg/sg67_20_cif.got.tgz:39435.got - 2010.06.03 18:28:57.
