data_PCOD9500631
_publ_section_title
;
Structure prediction by ZEFSAII (Michael W. Deem and Ramdas Pophale) SiO2 
 PCOD9500631
Probable space group: C M M A
;
_chemical_formula_sum "Si O2"
_cell_formula_units_Z 80
_cell_length_a 27.189319
_cell_length_b 8.378339
_cell_length_c 19.499792
_cell_angle_alpha 90.000000
_cell_angle_beta 90.000000
_cell_angle_gamma 90.000000
_cell_volume 4442.078587
_symmetry_space_group_name_H-M "C M M A"
_symmetry_group_IT_number 67
_symmetry_cell_setting 'orthorhombic'
loop_
_space_group_symop_operation_xyz
x,y,z
-x,1/2-y,z
x,-y,-z
-x,1/2+y,-z
-x,-y,-z
x,1/2+y,-z
-x,y,z
x,1/2-y,z
1/2+x,1/2+y,z
1/2-x,-y,z
1/2+x,1/2-y,-z
1/2-x,y,-z
1/2-x,1/2-y,-z
1/2+x,y,-z
1/2-x,1/2+y,z
1/2+x,-y,z
loop_
_atom_site_type_symbol
_atom_site_label
_atom_site_fract_x
_atom_site_fract_y
_atom_site_fract_z
Si Si1 0.604262 0.558699 0.421652
Si Si2 0.803483 0.942773 0.826821
Si Si3 0.892761 0.443376 0.078457
Si Si4 0.500000 0.557576 0.078658
Si Si5 0.696440 0.942681 0.331397
Si Si6 0.500000 0.439588 0.421186
O O1 0.608537 0.500000 0.500000
O O2 0.603703 0.750000 0.422298
O O3 0.650944 0.502362 0.377695
O O4 0.551720 0.501407 0.392063
O O5 0.803821 0.750000 0.827068
O O6 0.847887 0.999657 0.874615
O O7 0.809610 0.995693 0.747727
O O8 0.750000 0.000000 0.850864
O O9 0.892058 0.250000 0.078123
O O10 0.946747 0.495145 0.106187
O O11 0.887653 0.500000 0.000000
O O12 0.500000 0.750000 0.080360
O O13 0.500000 0.500000 0.000000
O O14 0.696411 0.750000 0.332015
O O15 0.750000 0.000000 0.355624
O O16 0.500000 0.250000 0.421101
O O17 0.500000 0.500000 0.500000
#
# Coordination Sequence:
#
# PCOD9500631 Si02
#       6
#    16  16  16   8  16   8
#     4  10  19  32  50  73  98 125 158 197 237 281
#     4   9  18  33  49  67  91 122 156 190 228 274
#     4   9  17  29  47  69  93 118 151 189 228 272
#     4   8  14  26  43  64  88 116 144 178 222 266
#     4   9  19  34  51  69  93 125 160 195 236 282
#     4  10  18  30  49  72  98 128 158 192 235 282
#
# _framework density 18.009585999999999
#
# number of rings (size 3 to 8) (size 9 to 14) (size 15 to 20)
#    0.000    2.800    0.000    2.700    0.000    3.200 
#    0.000    5.000    0.000    4.800    0.000    5.600 
#    0.000    0.000    0.000    0.000    0.000    0.000 
#
# Total GULP energy -222828.863141 kJ/mol
# GULP energy per Si atom -5570.721579 kJ/mol
# Density = 1.796860 g / cm^3
# Si number density = 18.009586 Si / 1000 Ang^3
#
#
#
# Elastic Constant Matrix: (Units=GPa)
#
#
# Indices 1 2 3 4 5 6 
#
# 1 234.8353 25.7350 83.1297 0.0000 0.0000 0.0000
# 2 25.7350 25.5998 10.4737 0.0000 0.0000 0.0000
# 3 83.1297 10.4737 50.1662 0.0000 0.0000 0.0000
# 4 0.0000 0.0000 0.0000 17.0290 0.0000 0.0000
# 5 0.0000 0.0000 0.0000 0.0000 -34.4534 0.0000
# 6 0.0000 0.0000 0.0000 0.0000 0.0000 28.1764
#
#
#
# Elastic Compliance Matrix: (Units=1/GPa)
#
#
# Indices 1 2 3 4 5 6 
#
# 1 0.010629 -0.003804 -0.016819 0.000000 0.000000 0.000000
# 2 -0.003804 0.044072 -0.002898 0.000000 0.000000 0.000000
# 3 -0.016819 -0.002898 0.048409 0.000000 0.000000 0.000000
# 4 0.000000 0.000000 0.000000 0.058723 0.000000 0.000000
# 5 0.000000 0.000000 0.000000 0.000000 -0.029025 0.000000
# 6 0.000000 0.000000 0.000000 0.000000 0.000000 0.035491
#
#
# Mechanical properties :
#
#
# Convention : Reuss Voigt Hill
#
# Bulk Modulus (GPa) = 17.83521 61.03090 39.43305
# Shear Modulus (GPa) = 21.36473 14.90125 18.13299
#
# Velocity S-wave (km/s) = 3.44800 2.87959 3.17654
# Velocity P-wave (km/s) = 5.07704 6.70952 5.94953
#
# Compressibility (1/GPa) = 0.05606888
#
# Stress axis : x y z
#
# Youngs Moduli (GPa) = 94.08333 22.68992 20.65733
#
# Poissons Ratio (x) = 0.08631 0.34743
# Poissons Ratio (y) = 0.35789 0.05986
# Poissons Ratio (z) = 1.58237 0.06576
#
# Static dielectric constant tensor:
#      x y z
#    x 1.656920 0.000000 0.000000 
#    y 0.000000 1.623970 0.000000 
#    z 0.000000 0.000000 1.590250 
# 
# From -- ./inp_files/39517.got.cif
#   From: 2010.05.17/outbox.cif.g08.bks.cpg/sg67_20_cif.got.tgz:39517.got - 2010.06.03 18:28:57.
