data_PCOD9500648
_publ_section_title
;
Structure prediction by ZEFSAII (Michael W. Deem and Ramdas Pophale) SiO2 
 PCOD9500648
Probable space group: C M M A
;
_chemical_formula_sum "Si O2"
_cell_formula_units_Z 96
_cell_length_a 26.580497
_cell_length_b 14.640565
_cell_length_c 15.098598
_cell_angle_alpha 90.000000
_cell_angle_beta 90.000000
_cell_angle_gamma 90.000000
_cell_volume 5875.672167
_symmetry_space_group_name_H-M "C M M A"
_symmetry_group_IT_number 67
_symmetry_cell_setting 'orthorhombic'
loop_
_space_group_symop_operation_xyz
x,y,z
-x,1/2-y,z
x,-y,-z
-x,1/2+y,-z
-x,-y,-z
x,1/2+y,-z
-x,y,z
x,1/2-y,z
1/2+x,1/2+y,z
1/2-x,-y,z
1/2+x,1/2-y,-z
1/2-x,y,-z
1/2-x,1/2-y,-z
1/2+x,y,-z
1/2-x,1/2+y,z
1/2+x,-y,z
loop_
_atom_site_type_symbol
_atom_site_label
_atom_site_fract_x
_atom_site_fract_y
_atom_site_fract_z
Si Si1 0.556066 0.357573 0.927354
Si Si2 0.193142 0.015996 0.144697
Si Si3 0.439053 0.447398 0.409685
Si Si4 0.559387 0.250000 0.452509
Si Si5 0.902770 0.566527 0.751091
Si Si6 0.838265 0.858355 0.015962
Si Si7 0.440186 0.250000 0.664618
O O1 0.500000 0.373449 0.962807
O O2 0.558567 0.250000 0.898921
O O3 0.566599 0.421828 0.843068
O O4 0.602277 0.369548 0.994276
O O5 0.154064 0.046773 0.219321
O O6 0.189964 0.093853 0.067496
O O7 0.250000 0.000000 0.174092
O O8 0.174943 0.921453 0.099201
O O9 0.423656 0.500000 0.500000
O O10 0.500000 0.448412 0.410523
O O11 0.419659 0.344196 0.416129
O O12 0.421709 0.493092 0.319117
O O13 0.500000 0.250000 0.430576
O O14 0.562307 0.250000 0.558645
O O15 0.912783 0.661902 0.702459
O O16 0.827319 0.750000 0.023631
O O17 0.500000 0.250000 0.688672
#
# Coordination Sequence:
#
# PCOD9500648 Si02
#       7
#    16  16  16   8  16  16   8
#     4   9  16  27  47  76 108 134 161 202 248 306
#     4  10  22  37  52  76 102 128 177 230 267 303
#     4  10  18  30  50  76 106 139 171 202 251 312
#     4   9  18  30  48  75 106 139 170 205 246 305
#     4  11  20  31  50  78 105 138 170 211 264 309
#     4   9  18  35  57  77  99 135 177 214 263 316
#     4  11  18  30  54  85 111 131 171 219 256 311
#
# _framework density 16.338556000000001
#
# number of rings (size 3 to 8) (size 9 to 14) (size 15 to 20)
#    0.000    2.167    2.500    2.500    1.167    1.333 
#    1.500    8.333    0.000    0.500    0.000    1.167 
#    0.000    0.000    0.000    0.000    0.000    0.000 
#
# Total GULP energy -267545.466005 kJ/mol
# GULP energy per Si atom -5573.863875 kJ/mol
# Density = 1.630137 g / cm^3
# Si number density = 16.338556 Si / 1000 Ang^3
#
#
#
# Elastic Constant Matrix: (Units=GPa)
#
#
# Indices 1 2 3 4 5 6 
#
# 1 91.5598 38.8794 24.8068 0.0000 0.0000 0.0000
# 2 38.8794 138.9998 45.8516 0.0000 0.0000 0.0000
# 3 24.8068 45.8516 49.3951 0.0000 0.0000 0.0000
# 4 0.0000 0.0000 0.0000 14.6620 0.0000 0.0000
# 5 0.0000 0.0000 0.0000 0.0000 14.1975 0.0000
# 6 0.0000 0.0000 0.0000 0.0000 0.0000 16.8687
#
#
#
# Elastic Compliance Matrix: (Units=1/GPa)
#
#
# Indices 1 2 3 4 5 6 
#
# 1 0.013073 -0.002149 -0.004571 0.000000 0.000000 0.000000
# 2 -0.002149 0.010723 -0.008874 0.000000 0.000000 0.000000
# 3 -0.004571 -0.008874 0.030778 0.000000 0.000000 0.000000
# 4 0.000000 0.000000 0.000000 0.068204 0.000000 0.000000
# 5 0.000000 0.000000 0.000000 0.000000 0.070435 0.000000
# 6 0.000000 0.000000 0.000000 0.000000 0.000000 0.059281
#
#
# Mechanical properties :
#
#
# Convention : Reuss Voigt Hill
#
# Bulk Modulus (GPa) = 42.76074 55.44782 49.10428
# Shear Modulus (GPa) = 17.15410 20.50677 18.83043
#
# Velocity S-wave (km/s) = 3.24375 3.54660 3.39855
# Velocity P-wave (km/s) = 6.34490 7.12613 6.74683
#
# Compressibility (1/GPa) = 0.02338594
#
# Stress axis : x y z
#
# Youngs Moduli (GPa) = 76.49577 93.26067 32.49084
#
# Poissons Ratio (x) = 0.20040 0.14850
# Poissons Ratio (y) = 0.16438 0.28833
# Poissons Ratio (z) = 0.34963 0.82762
#
# Static dielectric constant tensor:
#      x y z
#    x 1.540220 0.000000 0.000000 
#    y 0.000000 1.575610 0.000000 
#    z 0.000000 0.000000 1.533190 
# 
# From -- ./inp_files/30751.got.cif
#   From: 2010.05.17/outbox.cif.g08.bks.cpg/sg67_16_cif.got.tgz:30751.got - 2010.06.03 18:28:57.
