data_PCOD9500984
_publ_section_title
;
Structure prediction by ZEFSAII (Michael W. Deem and Ramdas Pophale) SiO2 
 PCOD9500984
Probable space group: C M M A
;
_chemical_formula_sum "Si O2"
_cell_formula_units_Z 116
_cell_length_a 7.679297
_cell_length_b 31.831925
_cell_length_c 26.855350
_cell_angle_alpha 90.000000
_cell_angle_beta 90.000000
_cell_angle_gamma 90.000000
_cell_volume 6564.704536
_symmetry_space_group_name_H-M "C M M A"
_symmetry_group_IT_number 67
_symmetry_cell_setting 'orthorhombic'
loop_
_space_group_symop_operation_xyz
x,y,z
-x,1/2-y,z
x,-y,-z
-x,1/2+y,-z
-x,-y,-z
x,1/2+y,-z
-x,y,z
x,1/2-y,z
1/2+x,1/2+y,z
1/2-x,-y,z
1/2+x,1/2-y,-z
1/2-x,y,-z
1/2-x,1/2-y,-z
1/2+x,y,-z
1/2-x,1/2+y,z
1/2+x,-y,z
loop_
_atom_site_type_symbol
_atom_site_label
_atom_site_fract_x
_atom_site_fract_y
_atom_site_fract_z
Si Si1 0.209727 0.950523 0.161922
Si Si2 0.208953 0.548203 0.364136
Si Si3 0.500000 0.750000 0.751670
Si Si4 0.211766 0.296333 0.603814
Si Si5 0.302209 0.188090 0.719087
Si Si6 0.790916 0.883001 0.443035
Si Si7 0.787979 0.408455 0.736611
Si Si8 0.794723 0.450436 0.945892
O O1 0.274035 0.926083 0.210342
O O2 0.277441 0.935468 0.107556
O O3 0.000000 0.946372 0.161817
O O4 0.250000 0.000000 0.166559
O O5 0.250000 0.500000 0.375210
O O6 0.275314 0.581421 0.405089
O O7 0.269958 0.562168 0.309282
O O8 0.000000 0.551891 0.363786
O O9 0.653909 0.713684 0.747672
O O10 0.265599 0.250000 0.585520
O O11 0.273382 0.301787 0.660571
O O12 0.272496 0.336480 0.572454
O O13 0.000000 0.296782 0.605251
O O14 0.500000 0.199132 0.732774
O O15 0.274306 0.138566 0.726699
O O16 0.750000 0.892519 0.500000
O O17 0.000000 0.881945 0.438002
O O18 0.000000 0.408120 0.736713
O O19 0.750000 0.500000 0.947699
O O20 0.000000 0.446961 0.942506
O O21 0.750000 0.431894 0.000000
#
# Coordination Sequence:
#
# PCOD9500984 Si02
#       8
#    16  16   4  16  16  16  16  16
#     4   9  18  29  46  68 100 141 184 227 274 316
#     4  10  21  36  56  74  99 134 174 217 272 319
#     4  12  22  40  56  82 122 140 172 226 252 306
#     4  10  18  36  59  78 106 137 161 206 264 316
#     4  12  22  34  59  86 106 146 181 204 261 325
#     4  10  22  38  55  75 102 134 167 212 269 320
#     4  10  19  36  53  73 108 141 170 223 277 310
#     4   9  15  24  38  61  88 130 182 225 267 314
#
# _framework density 17.670255000000001
#
# number of rings (size 3 to 8) (size 9 to 14) (size 15 to 20)
#    0.000    1.931    3.448    1.448    0.000    3.310 
#    0.000    1.379    0.000    0.000    0.000    0.000 
#    0.000    0.000    0.000    0.621    2.759    0.690 
#
# Total GULP energy -322968.281745 kJ/mol
# GULP energy per Si atom -5568.418651 kJ/mol
# Density = 1.763004 g / cm^3
# Si number density = 17.670255 Si / 1000 Ang^3
#
#
#
# Elastic Constant Matrix: (Units=GPa)
#
#
# Indices 1 2 3 4 5 6 
#
# 1 61.1517 11.8203 12.2160 0.0000 0.0000 0.0000
# 2 11.8203 119.3362 64.6506 0.0000 0.0000 0.0000
# 3 12.2160 64.6506 134.5041 0.0000 0.0000 0.0000
# 4 0.0000 0.0000 0.0000 15.7666 0.0000 0.0000
# 5 0.0000 0.0000 0.0000 0.0000 16.6087 0.0000
# 6 0.0000 0.0000 0.0000 0.0000 0.0000 12.7193
#
#
#
# Elastic Compliance Matrix: (Units=1/GPa)
#
#
# Indices 1 2 3 4 5 6 
#
# 1 0.016767 -0.001130 -0.000980 0.000000 0.000000 0.000000
# 2 -0.001130 0.011406 -0.005380 0.000000 0.000000 0.000000
# 3 -0.000980 -0.005380 0.010110 0.000000 0.000000 0.000000
# 4 0.000000 0.000000 0.000000 0.063425 0.000000 0.000000
# 5 0.000000 0.000000 0.000000 0.000000 0.060209 0.000000
# 6 0.000000 0.000000 0.000000 0.000000 0.000000 0.078621
#
#
# Mechanical properties :
#
#
# Convention : Reuss Voigt Hill
#
# Bulk Modulus (GPa) = 42.91189 54.70731 48.80960
# Shear Modulus (GPa) = 18.99083 24.10592 21.54838
#
# Velocity S-wave (km/s) = 3.28187 3.69753 3.49588
# Velocity P-wave (km/s) = 6.22081 7.01828 6.63154
#
# Compressibility (1/GPa) = 0.02330357
#
# Stress axis : x y z
#
# Youngs Moduli (GPa) = 59.64129 87.67200 98.91633
#
# Poissons Ratio (x) = 0.09907 0.09690
# Poissons Ratio (y) = 0.06740 0.53215
# Poissons Ratio (z) = 0.05843 0.47166
#
# Static dielectric constant tensor:
#      x y z
#    x 1.674160 0.000000 0.000000 
#    y 0.000000 1.588810 0.000000 
#    z 0.000000 0.000000 1.633070 
# 
# From -- ./inp_files/43981.got.cif
#   From: 2010.05.17/outbox.cif.g08.bks.cpg/sg67_22_cif.got.tgz:43981.got - 2010.06.03 18:28:57.
