data_PCOD9500778
_publ_section_title
;
Structure prediction by ZEFSAII (Michael W. Deem and Ramdas Pophale) SiO2 
 PCOD9500778
Probable space group: C M M A
;
_chemical_formula_sum "Si O2"
_cell_formula_units_Z 112
_cell_length_a 28.023134
_cell_length_b 13.965939
_cell_length_c 12.756736
_cell_angle_alpha 90.000000
_cell_angle_beta 90.000000
_cell_angle_gamma 90.000000
_cell_volume 4992.595860
_symmetry_space_group_name_H-M "C M M A"
_symmetry_group_IT_number 67
_symmetry_cell_setting 'orthorhombic'
loop_
_space_group_symop_operation_xyz
x,y,z
-x,1/2-y,z
x,-y,-z
-x,1/2+y,-z
-x,-y,-z
x,1/2+y,-z
-x,y,z
x,1/2-y,z
1/2+x,1/2+y,z
1/2-x,-y,z
1/2+x,1/2-y,-z
1/2-x,y,-z
1/2-x,1/2-y,-z
1/2+x,y,-z
1/2-x,1/2+y,z
1/2+x,-y,z
loop_
_atom_site_type_symbol
_atom_site_label
_atom_site_fract_x
_atom_site_fract_y
_atom_site_fract_z
Si Si1 0.053837 0.366273 0.553738
Si Si2 0.701090 0.526099 0.296718
Si Si3 0.113122 0.134168 0.354009
Si Si4 0.704369 0.098873 0.937006
Si Si5 0.373566 0.364556 0.257645
Si Si6 0.598006 0.358987 0.879606
Si Si7 0.947952 0.632705 0.082130
O O1 0.051080 0.250000 0.550518
O O2 0.076275 0.396683 0.442839
O O3 0.091382 0.386436 0.645193
O O4 0.000000 0.401285 0.571634
O O5 0.750000 0.500000 0.351495
O O6 0.665676 0.590334 0.365540
O O7 0.714292 0.579439 0.186405
O O8 0.672800 0.429576 0.266742
O O9 0.116066 0.250000 0.355181
O O10 0.099186 0.100191 0.236997
O O11 0.651332 0.142959 0.929691
O O12 0.750000 0.143001 0.000000
O O13 0.697746 0.000000 0.000000
O O14 0.363712 0.250000 0.256150
O O15 0.403667 0.391918 0.155056
O O16 0.582513 0.250000 0.863996
O O17 0.562495 0.400995 0.964473
O O18 0.948196 0.750000 0.081646
O O19 0.000000 0.602830 0.121130
#
# Coordination Sequence:
#
# PCOD9500778 Si02
#       7
#    16  16  16  16  16  16  16
#     4   9  18  37  65  89 113 153 197 238 288 342
#     4  11  22  37  58  83 113 152 191 236 295 343
#     4   9  20  38  58  84 117 149 189 239 285 341
#     4  10  18  32  52  73 104 146 188 232 280 330
#     4  10  21  37  58  85 116 148 193 243 286 339
#     4   9  18  31  50  79 111 144 182 229 284 345
#     4   9  17  30  51  80 115 150 181 225 289 351
#
# _framework density 22.433219999999999
#
# number of rings (size 3 to 8) (size 9 to 14) (size 15 to 20)
#    0.000    2.429    1.429    1.286    0.000    3.714 
#    0.000    6.429    0.000   12.000    0.000    0.000 
#    0.000    0.000    0.000    0.000    0.000    0.000 
#
# Total GULP energy -312685.973138 kJ/mol
# GULP energy per Si atom -5583.678092 kJ/mol
# Density = 2.238216 g / cm^3
# Si number density = 22.433220 Si / 1000 Ang^3
#
#
#
# Elastic Constant Matrix: (Units=GPa)
#
#
# Indices 1 2 3 4 5 6 
#
# 1 127.3082 15.5156 44.2364 0.0000 0.0000 0.0000
# 2 15.5156 66.1523 5.7091 0.0000 0.0000 0.0000
# 3 44.2364 5.7091 87.1859 0.0000 0.0000 0.0000
# 4 0.0000 0.0000 0.0000 15.0145 0.0000 0.0000
# 5 0.0000 0.0000 0.0000 0.0000 15.6502 0.0000
# 6 0.0000 0.0000 0.0000 0.0000 0.0000 52.9373
#
#
#
# Elastic Compliance Matrix: (Units=1/GPa)
#
#
# Indices 1 2 3 4 5 6 
#
# 1 0.009762 -0.001873 -0.004830 0.000000 0.000000 0.000000
# 2 -0.001873 0.015562 -0.000069 0.000000 0.000000 0.000000
# 3 -0.004830 -0.000069 0.013925 0.000000 0.000000 0.000000
# 4 0.000000 0.000000 0.000000 0.066602 0.000000 0.000000
# 5 0.000000 0.000000 0.000000 0.000000 0.063897 0.000000
# 6 0.000000 0.000000 0.000000 0.000000 0.000000 0.018890
#
#
# Mechanical properties :
#
#
# Convention : Reuss Voigt Hill
#
# Bulk Modulus (GPa) = 38.90306 45.72984 42.31645
# Shear Modulus (GPa) = 23.72483 31.06608 27.39545
#
# Velocity S-wave (km/s) = 3.25557 3.72536 3.49836
# Velocity P-wave (km/s) = 5.61346 6.23968 5.93483
#
# Compressibility (1/GPa) = 0.02570492
#
# Stress axis : x y z
#
# Youngs Moduli (GPa) = 102.44264 64.25996 71.81324
#
# Poissons Ratio (x) = 0.12034 0.34687
# Poissons Ratio (y) = 0.19184 0.00495
# Poissons Ratio (z) = 0.49482 0.00443
#
# Static dielectric constant tensor:
#      x y z
#    x 1.839170 0.000000 0.000000 
#    y 0.000000 1.866820 0.000000 
#    z 0.000000 0.000000 1.824660 
# 
# From -- ./inp_files/23788.got.cif
#   From: 2010.05.17/outbox.cif.g08.bks.cpg/sg67_12_cif.got.tgz:23788.got - 2010.06.03 18:28:57.
