data_PCOD9500244
_publ_section_title
;
Structure prediction by ZEFSAII (Michael W. Deem and Ramdas Pophale) SiO2 
 PCOD9500244
Probable space group: C M M A
;
_chemical_formula_sum "Si O2"
_cell_formula_units_Z 84
_cell_length_a 17.147145
_cell_length_b 13.888594
_cell_length_c 19.284066
_cell_angle_alpha 90.000000
_cell_angle_beta 90.000000
_cell_angle_gamma 90.000000
_cell_volume 4592.495211
_symmetry_space_group_name_H-M "C M M A"
_symmetry_group_IT_number 67
_symmetry_cell_setting 'orthorhombic'
loop_
_space_group_symop_operation_xyz
x,y,z
-x,1/2-y,z
x,-y,-z
-x,1/2+y,-z
-x,-y,-z
x,1/2+y,-z
-x,y,z
x,1/2-y,z
1/2+x,1/2+y,z
1/2-x,-y,z
1/2+x,1/2-y,-z
1/2-x,y,-z
1/2-x,1/2-y,-z
1/2+x,y,-z
1/2-x,1/2+y,z
1/2+x,-y,z
loop_
_atom_site_type_symbol
_atom_site_label
_atom_site_fract_x
_atom_site_fract_y
_atom_site_fract_z
Si Si1 0.500000 0.750000 0.855625
Si Si2 0.837189 0.966868 0.700144
Si Si3 0.666320 0.750000 0.826642
Si Si4 0.295620 0.750000 0.292819
Si Si5 0.091098 0.061122 0.568681
Si Si6 0.696989 0.250000 0.432136
Si Si7 0.500000 0.462284 0.078157
Si Si8 0.835839 0.039009 0.856184
O O1 0.575409 0.750000 0.806388
O O2 0.500000 0.653047 0.902793
O O3 0.840039 0.851879 0.712644
O O4 0.750000 0.000000 0.677936
O O5 0.892800 0.000639 0.638593
O O6 0.848306 0.019753 0.773861
O O7 0.728295 0.750000 0.765404
O O8 0.673948 0.847517 0.868979
O O9 0.253682 0.750000 0.366562
O O10 0.143399 0.155909 0.570366
O O11 0.000000 0.085963 0.564454
O O12 0.111473 0.000000 0.500000
O O13 0.750000 0.250000 0.500000
O O14 0.416253 0.496402 0.109254
O O15 0.500000 0.500000 0.000000
O O16 0.750000 0.000000 0.874904
#
# Coordination Sequence:
#
# PCOD9500244 Si02
#       8
#     4  16   8   8  16   8   8  16
#     4   8  20  36  60  88 118 158 190 250 296 338
#     4  11  21  37  59  86 116 153 200 245 302 354
#     4  10  16  34  55  86 119 147 198 243 294 349
#     4  12  20  35  57  91 112 147 206 248 291 365
#     4  11  25  41  57  84 121 158 201 251 303 364
#     4  12  23  37  62  85 112 155 202 252 305 356
#     4  10  22  40  62  92 123 159 201 238 302 366
#     4  10  20  36  62  88 122 156 197 250 297 356
#
# _framework density 18.290711000000002
#
# number of rings (size 3 to 8) (size 9 to 14) (size 15 to 20)
#    0.000    1.333    5.714    1.429    1.333    0.381 
#    5.143    3.333    0.000    3.429    0.000    0.000 
#    0.000    0.000    0.000    0.000    0.000    0.000 
#
# Total GULP energy -234094.155483 kJ/mol
# GULP energy per Si atom -5573.670369 kJ/mol
# Density = 1.824908 g / cm^3
# Si number density = 18.290711 Si / 1000 Ang^3
#
#
#
# Elastic Constant Matrix: (Units=GPa)
#
#
# Indices 1 2 3 4 5 6 
#
# 1 95.7415 25.3122 41.3746 0.0000 0.0000 0.0000
# 2 25.3122 98.4224 9.6898 0.0000 0.0000 0.0000
# 3 41.3746 9.6898 70.8785 0.0000 0.0000 0.0000
# 4 0.0000 0.0000 0.0000 15.6654 0.0000 0.0000
# 5 0.0000 0.0000 0.0000 0.0000 29.1382 0.0000
# 6 0.0000 0.0000 0.0000 0.0000 0.0000 11.3997
#
#
#
# Elastic Compliance Matrix: (Units=1/GPa)
#
#
# Indices 1 2 3 4 5 6 
#
# 1 0.014791 -0.002994 -0.008225 0.000000 0.000000 0.000000
# 2 -0.002994 0.010905 0.000257 0.000000 0.000000 0.000000
# 3 -0.008225 0.000257 0.018875 0.000000 0.000000 0.000000
# 4 0.000000 0.000000 0.000000 0.063835 0.000000 0.000000
# 5 0.000000 0.000000 0.000000 0.000000 0.034319 0.000000
# 6 0.000000 0.000000 0.000000 0.000000 0.000000 0.087722
#
#
# Mechanical properties :
#
#
# Convention : Reuss Voigt Hill
#
# Bulk Modulus (GPa) = 44.15648 46.42174 45.28911
# Shear Modulus (GPa) = 19.23679 23.81837 21.52758
#
# Velocity S-wave (km/s) = 3.24655 3.61253 3.43442
# Velocity P-wave (km/s) = 6.18444 6.54489 6.36722
#
# Compressibility (1/GPa) = 0.02264673
#
# Stress axis : x y z
#
# Youngs Moduli (GPa) = 67.61047 91.70095 52.98151
#
# Poissons Ratio (x) = 0.27456 0.43575
# Poissons Ratio (y) = 0.20243 -0.01361
# Poissons Ratio (z) = 0.55607 -0.02356
#
# Static dielectric constant tensor:
#      x y z
#    x 1.629640 0.000000 0.000000 
#    y 0.000000 1.686420 0.000000 
#    z 0.000000 0.000000 1.599090 
# 
# From -- ./inp_files/38360.got.cif
#   From: 2010.05.17/outbox.cif.g08.bks.cpg/sg67_20_cif.got.tgz:38360.got - 2010.06.03 18:28:57.
