data_PCOD9500680
_publ_section_title
;
Structure prediction by ZEFSAII (Michael W. Deem and Ramdas Pophale) SiO2 
 PCOD9500680
Probable space group: C M M A
;
_chemical_formula_sum "Si O2"
_cell_formula_units_Z 56
_cell_length_a 8.821774
_cell_length_b 21.703237
_cell_length_c 14.336304
_cell_angle_alpha 90.000000
_cell_angle_beta 90.000000
_cell_angle_gamma 90.000000
_cell_volume 2744.843844
_symmetry_space_group_name_H-M "C M M A"
_symmetry_group_IT_number 67
_symmetry_cell_setting 'orthorhombic'
loop_
_space_group_symop_operation_xyz
x,y,z
-x,1/2-y,z
x,-y,-z
-x,1/2+y,-z
-x,-y,-z
x,1/2+y,-z
-x,y,z
x,1/2-y,z
1/2+x,1/2+y,z
1/2-x,-y,z
1/2+x,1/2-y,-z
1/2-x,y,-z
1/2-x,1/2-y,-z
1/2+x,y,-z
1/2-x,1/2+y,z
1/2+x,-y,z
loop_
_atom_site_type_symbol
_atom_site_label
_atom_site_fract_x
_atom_site_fract_y
_atom_site_fract_z
Si Si1 0.681949 0.181205 0.604022
Si Si2 0.681303 0.250000 0.895360
Si Si3 0.320777 0.064282 0.291544
Si Si4 0.179462 0.123279 0.898649
O O1 0.500000 0.176768 0.600769
O O2 0.719628 0.250000 0.642337
O O3 0.750000 0.178818 0.500000
O O4 0.747867 0.123581 0.659690
O O5 0.500000 0.250000 0.894816
O O6 0.744556 0.314314 0.858408
O O7 0.750000 0.250000 0.000000
O O8 0.500000 0.064693 0.309032
O O9 0.297026 0.072358 0.180186
O O10 0.250000 0.000000 0.323566
O O11 0.000000 0.134018 0.910672
O O12 0.250000 0.109512 0.000000
#
# Coordination Sequence:
#
# PCOD9500680 Si02
#       4
#    16   8  16  16
#     4  10  22  42  69  99 128 160 201 250 308 370
#     4  10  18  30  52  80 111 148 195 250 302 356
#     4  11  25  42  62  90 126 166 210 258 309 368
#     4  10  21  37  57  84 119 162 207 256 308 362
#
# _framework density 20.401889000000001
#
# number of rings (size 3 to 8) (size 9 to 14) (size 15 to 20)
#    0.000    1.714    0.000    5.571    2.000    7.429 
#    0.000    5.714    0.000    0.000    0.000    0.000 
#    0.000    0.000    0.000    0.000    0.000    0.000 
#
# Total GULP energy -156419.574986 kJ/mol
# GULP energy per Si atom -5586.413392 kJ/mol
# Density = 2.035545 g / cm^3
# Si number density = 20.401889 Si / 1000 Ang^3
#
#
#
# Elastic Constant Matrix: (Units=GPa)
#
#
# Indices 1 2 3 4 5 6 
#
# 1 120.3670 91.9543 50.7812 0.0000 0.0000 0.0000
# 2 91.9543 177.3216 63.7375 0.0000 0.0000 0.0000
# 3 50.7812 63.7375 73.9964 0.0000 0.0000 0.0000
# 4 0.0000 0.0000 0.0000 18.1521 0.0000 0.0000
# 5 0.0000 0.0000 0.0000 0.0000 28.1484 0.0000
# 6 0.0000 0.0000 0.0000 0.0000 0.0000 28.9799
#
#
#
# Elastic Compliance Matrix: (Units=1/GPa)
#
#
# Indices 1 2 3 4 5 6 
#
# 1 0.015031 -0.005920 -0.005216 0.000000 0.000000 0.000000
# 2 -0.005920 0.010500 -0.004982 0.000000 0.000000 0.000000
# 3 -0.005216 -0.004982 0.021385 0.000000 0.000000 0.000000
# 4 0.000000 0.000000 0.000000 0.055090 0.000000 0.000000
# 5 0.000000 0.000000 0.000000 0.000000 0.035526 0.000000
# 6 0.000000 0.000000 0.000000 0.000000 0.000000 0.034507
#
#
# Mechanical properties :
#
#
# Convention : Reuss Voigt Hill
#
# Bulk Modulus (GPa) = 68.11754 87.18121 77.64937
# Shear Modulus (GPa) = 23.90433 26.07023 24.98728
#
# Velocity S-wave (km/s) = 3.42668 3.57856 3.50344
# Velocity P-wave (km/s) = 7.00832 7.73948 7.38295
#
# Compressibility (1/GPa) = 0.01468051
#
# Stress axis : x y z
#
# Youngs Moduli (GPa) = 66.52949 95.23884 46.76181
#
# Poissons Ratio (x) = 0.56378 0.24392
# Poissons Ratio (y) = 0.39383 0.23295
# Poissons Ratio (z) = 0.34703 0.47445
#
# Static dielectric constant tensor:
#      x y z
#    x 1.685200 0.000000 0.000000 
#    y 0.000000 1.740850 0.000000 
#    z 0.000000 0.000000 1.592300 
# 
# From -- ./inp_files/24617.got.cif
#   From: 2010.05.17/outbox.cif.g08.bks.cpg/sg67_13_cif.got.tgz:24617.got - 2010.06.03 18:28:57.
