data_PCOD9500030
_publ_section_title
;
Structure prediction by ZEFSAII (Michael W. Deem and Ramdas Pophale) SiO2 
 PCOD9500030
Probable space group: C C C M
;
_chemical_formula_sum "Si O2"
_cell_formula_units_Z 48
_cell_length_a 14.612270
_cell_length_b 8.138114
_cell_length_c 16.124507
_cell_angle_alpha 90.000000
_cell_angle_beta 90.000000
_cell_angle_gamma 90.000000
_cell_volume 1917.467019
_symmetry_space_group_name_H-M "C C C M"
_symmetry_group_IT_number 66
_symmetry_cell_setting 'orthorhombic'
loop_
_space_group_symop_operation_xyz
x,y,z
-x,-y,z
x,-y,1/2-z
-x,y,1/2-z
-x,-y,-z
x,y,-z
-x,y,1/2+z
x,-y,1/2+z
1/2+x,1/2+y,z
1/2-x,1/2-y,z
1/2+x,1/2-y,1/2-z
1/2-x,1/2+y,1/2-z
1/2-x,1/2-y,-z
1/2+x,1/2+y,-z
1/2-x,1/2+y,1/2+z
1/2+x,1/2-y,1/2+z
loop_
_atom_site_type_symbol
_atom_site_label
_atom_site_fract_x
_atom_site_fract_y
_atom_site_fract_z
Si Si1 0.385129 0.850702 0.097185
Si Si2 0.459796 0.333236 0.842511
Si Si3 0.789940 0.007679 0.599928
O O1 0.490582 0.823442 0.119636
O O2 0.313535 0.982822 0.132370
O O3 0.337656 0.671460 0.112369
O O4 0.381175 0.878661 0.000000
O O5 0.500000 0.500000 0.884867
O O6 0.500000 0.333763 0.750000
O O7 0.352384 0.360020 0.853058
O O8 0.792119 0.042521 0.500000
#
# Coordination Sequence:
#
# PCOD9500030 Si02
#       3
#    16  16  16
#     4   8  13  21  33  49  73 108 145 179 216 259
#     4   9  15  21  31  51  81 111 137 175 225 267
#     4   8  13  21  33  49  73 108 145 179 216 259
#
# _framework density 25.033026
#
# number of rings (size 3 to 8) (size 9 to 14) (size 15 to 20)
#    0.000    3.667    0.000    3.000    0.000    4.000 
#    0.000    0.000    0.000    0.000    0.000    0.000 
#    0.000   13.333    0.000  201.333    0.000  533.333 
#
# Total GULP energy -133756.568108 kJ/mol
# GULP energy per Si atom -5573.190338 kJ/mol
# Density = 2.497605 g / cm^3
# Si number density = 25.033026 Si / 1000 Ang^3
#
#
#
# Elastic Constant Matrix: (Units=GPa)
#
#
# Indices 1 2 3 4 5 6 
#
# 1 228.9163 65.2718 40.6204 0.0000 0.0000 0.0000
# 2 65.2718 119.4750 24.3729 0.0000 0.0000 0.0000
# 3 40.6204 24.3729 44.7977 0.0000 0.0000 0.0000
# 4 0.0000 0.0000 0.0000 -19.8190 0.0000 0.0000
# 5 0.0000 0.0000 0.0000 0.0000 421.9618 0.0000
# 6 0.0000 0.0000 0.0000 0.0000 0.0000 36.6621
#
#
#
# Elastic Compliance Matrix: (Units=1/GPa)
#
#
# Indices 1 2 3 4 5 6 
#
# 1 0.005729 -0.002329 -0.003928 0.000000 0.000000 0.000000
# 2 -0.002329 0.010361 -0.003526 0.000000 0.000000 0.000000
# 3 -0.003928 -0.003526 0.027803 0.000000 0.000000 0.000000
# 4 0.000000 0.000000 0.000000 -0.050457 0.000000 0.000000
# 5 0.000000 0.000000 0.000000 0.000000 0.002370 0.000000
# 6 0.000000 0.000000 0.000000 0.000000 0.000000 0.027276
#
#
# Mechanical properties :
#
#
# Convention : Reuss Voigt Hill
#
# Bulk Modulus (GPa) = 41.10443 72.63546 56.86994
# Shear Modulus (GPa) = 98.50733 105.28926 101.89830
#
# Velocity S-wave (km/s) = 6.27984 6.49241 6.38701
# Velocity P-wave (km/s) = 8.30888 9.23476 8.78403
#
# Compressibility (1/GPa) = 0.02432828
#
# Stress axis : x y z
#
# Youngs Moduli (GPa) = 174.53635 96.51156 35.96776
#
# Poissons Ratio (x) = 0.22475 0.14129
# Poissons Ratio (y) = 0.40646 0.12681
# Poissons Ratio (z) = 0.68561 0.34027
#
# Static dielectric constant tensor:
#      x y z
#    x 2.703090 0.000000 0.000000 
#    y 0.000000 2.026670 0.000000 
#    z 0.000000 0.000000 1.977600 
# 
# From -- ./inp_files/27463.got.cif
#   From: 2010.05.17/outbox.cif.g08.bks.cpg/sg66_14_cif.got.tgz:27463.got - 2010.06.03 17:51:23.
